1
     RDKit          3D

 43 45  0  0  0  0  0  0  0  0999 V2000
   20.9544   71.2620   -2.2150 P   0  0  2  0  0  0  0  0  0  0  0  0
   21.3603   72.6616   -2.9188 O   0  0  0  0  0  0  0  0  0  0  0  0
   21.5411   70.0377   -2.8544 O   0  0  0  0  0  0  0  0  0  0  0  0
   19.3386   71.3145   -2.1491 O   0  0  0  0  0  0  0  0  0  0  0  0
   18.6853   72.5141   -2.5217 C   0  0  0  0  0  0  0  0  0  0  0  0
   17.0536   72.3653   -4.2804 O   0  0  0  0  0  0  0  0  0  0  0  0
   15.4191   70.7286   -2.3723 O   0  0  0  0  0  0  0  0  0  0  0  0
   16.5311   68.8307   -3.9840 O   0  0  0  0  0  0  0  0  0  0  0  0
   16.8358   70.7673   -2.5456 C   0  0  1  0  0  0  0  0  0  0  0  0
   17.2279   70.0480   -3.8188 C   0  0  2  0  0  0  0  0  0  0  0  0
   17.2320   72.2042   -2.8565 C   0  0  1  0  0  0  0  0  0  0  0  0
   16.8739   71.0735   -4.8822 C   0  0  2  0  0  0  0  0  0  0  0  0
   15.1422   69.8202   -2.1726 H   0  0  0  0  0  0  0  0  0  0  0  0
   16.7912   68.2116   -3.2833 H   0  0  0  0  0  0  0  0  0  0  0  0
   15.9283   70.7096   -7.5186 O   0  0  0  0  0  0  0  0  0  0  0  0
   20.2013   70.7137   -9.2464 O   0  0  0  0  0  0  0  0  0  0  0  0
   17.7174   70.9762   -6.0398 N   0  0  0  0  0  0  0  0  0  0  0  0
   18.0575   70.7110   -8.3765 N   0  0  0  0  0  0  0  0  0  0  0  0
   17.1417   70.7936   -7.3194 C   0  0  0  0  0  0  0  0  0  0  0  0
   19.0974   71.0631   -5.9016 C   0  0  0  0  0  0  0  0  0  0  0  0
   19.9575   70.9827   -6.9187 C   0  0  0  0  0  0  0  0  0  0  0  0
   19.4379   70.7912   -8.2886 C   0  0  0  0  0  0  0  0  0  0  0  0
   17.6804   70.5818   -9.2768 H   0  0  0  0  0  0  0  0  0  0  0  0
   21.3884   71.4910   -0.6749 O   0  0  0  0  0  0  0  0  0  0  0  0
   20.7213   70.9741    0.7040 P   0  0  2  0  0  0  0  0  0  0  0  0
   20.7173   69.3645    0.5323 O   0  0  0  0  0  0  0  0  0  0  0  0
   19.3740   71.5681    0.9969 O   0  0  0  0  0  0  0  0  0  0  0  0
   21.8387   71.2604    1.8318 O   0  0  0  0  0  0  0  0  0  0  0  0
   23.8419   72.5160    1.9723 O   0  0  0  0  0  0  0  0  0  0  0  0
   24.9083   69.0147    3.8884 O   0  0  0  0  0  0  0  0  0  0  0  0
   23.3170   68.9373    1.4397 O   0  0  0  0  0  0  0  0  0  0  0  0
   24.3603   71.4152    5.4338 O   0  0  0  0  0  0  0  0  0  0  0  0
   24.0242   70.0558    3.4731 C   0  0  2  0  0  0  0  0  0  0  0  0
   23.9653   70.0984    1.9460 C   0  0  2  0  0  0  0  0  0  0  0  0
   24.5614   71.3794    4.0221 C   0  0  1  0  0  0  0  0  0  0  0  0
   23.2140   71.3393    1.4618 C   0  0  1  0  0  0  0  0  0  0  0  0
   23.8456   72.5733    3.3970 C   0  0  1  0  0  0  0  0  0  0  0  0
   24.5870   68.1637    3.5510 H   0  0  0  0  0  0  0  0  0  0  0  0
   23.7883   68.1460    1.7433 H   0  0  0  0  0  0  0  0  0  0  0  0
   24.8107   70.6604    5.8438 H   0  0  0  0  0  0  0  0  0  0  0  0
   25.8560   73.5790    4.0665 O   0  0  0  0  0  0  0  0  0  0  0  0
   24.1125   74.9645    3.5771 O   0  0  0  0  0  0  0  0  0  0  0  0
   24.5830   73.8416    3.6799 C   0  0  0  0  0  0  0  0  0  0  0  0
  1  4  1  0
  1 24  1  0
  1  2  1  6
  1  3  2  0
 25 28  1  0
 25 24  1  0
 25 26  1  6
 25 27  2  0
  6 11  1  0
  6 12  1  0
 29 36  1  0
 29 37  1  0
  9  7  1  6
  7 13  1  0
 10  8  1  6
  8 14  1  0
  4  5  1  0
 36 28  1  1
 33 30  1  6
 30 38  1  0
 34 31  1  1
 31 39  1  0
 35 32  1  1
 32 40  1  0
 41 43  1  0
 15 19  2  0
 42 43  2  0
 16 22  2  0
 12 17  1  6
 17 19  1  0
 17 20  1  0
 18 19  1  0
 18 22  1  0
 18 23  1  0
  9 10  1  0
  9 11  1  0
 10 12  1  0
 11  5  1  6
 33 34  1  0
 33 35  1  0
 34 36  1  0
 35 37  1  0
 37 43  1  6
 20 21  2  0
 21 22  1  0
M  CHG  3   2  -1  26  -1  41  -1
M  END
>  <COMPND>  (1) 
    udp_gluA.pdb 

>  <AUTHOR>  (1) 
    GENERATED BY OPEN BABEL 3.1.1

>  <MASTER>  (1) 
        0    0    0    0    0    0    0    0   56    0   56    0

>  <minimizedAffinity>  (1) 
-8.59780

>  <CNNscore>  (1) 
0.8352615833

>  <CNNaffinity>  (1) 
5.0662565231

>  <CNN_VS>  (1) 
4.2316493988

>  <CNNaffinity_variance>  (1) 
0.1557470709

$$$$
2
     RDKit          3D

 43 45  0  0  0  0  0  0  0  0999 V2000
   24.3988   71.0609    4.1787 P   0  0  2  0  0  0  0  0  0  0  0  0
   24.5898   72.5101    4.8732 O   0  0  0  0  0  0  0  0  0  0  0  0
   23.4908   70.1201    4.9151 O   0  0  0  0  0  0  0  0  0  0  0  0
   25.9126   70.5388    3.9465 O   0  0  0  0  0  0  0  0  0  0  0  0
   26.7376   71.2410    3.0351 C   0  0  0  0  0  0  0  0  0  0  0  0
   28.8376   71.8734    4.0190 O   0  0  0  0  0  0  0  0  0  0  0  0
   27.8215   74.6929    3.9225 O   0  0  0  0  0  0  0  0  0  0  0  0
   29.4854   74.5850    1.7647 O   0  0  0  0  0  0  0  0  0  0  0  0
   27.6190   73.6272    2.9942 C   0  0  1  0  0  0  0  0  0  0  0  0
   28.8805   73.3829    2.1933 C   0  0  2  0  0  0  0  0  0  0  0  0
   27.4887   72.3331    3.7858 C   0  0  1  0  0  0  0  0  0  0  0  0
   29.7399   72.6168    3.1845 C   0  0  2  0  0  0  0  0  0  0  0  0
   27.9077   75.5305    3.4400 H   0  0  0  0  0  0  0  0  0  0  0  0
   28.8995   75.0352    1.1353 H   0  0  0  0  0  0  0  0  0  0  0  0
   32.4472   72.2635    3.9073 O   0  0  0  0  0  0  0  0  0  0  0  0
   33.0951   69.0819    0.6360 O   0  0  0  0  0  0  0  0  0  0  0  0
   30.6388   71.7028    2.5384 N   0  0  0  0  0  0  0  0  0  0  0  0
   32.7675   70.6800    2.2767 N   0  0  0  0  0  0  0  0  0  0  0  0
   31.9798   71.6018    2.9785 C   0  0  0  0  0  0  0  0  0  0  0  0
   30.1899   70.9178    1.4833 C   0  0  0  0  0  0  0  0  0  0  0  0
   30.9526   70.0434    0.8241 C   0  0  0  0  0  0  0  0  0  0  0  0
   32.3663   69.8776    1.2208 C   0  0  0  0  0  0  0  0  0  0  0  0
   33.7054   70.5935    2.5636 H   0  0  0  0  0  0  0  0  0  0  0  0
   23.9106   71.4363    2.6842 O   0  0  0  0  0  0  0  0  0  0  0  0
   22.9265   70.6604    1.6628 P   0  0  2  0  0  0  0  0  0  0  0  0
   21.4550   70.9614    2.2666 O   0  0  0  0  0  0  0  0  0  0  0  0
   23.2394   69.2018    1.4946 O   0  0  0  0  0  0  0  0  0  0  0  0
   22.9909   71.5205    0.2995 O   0  0  0  0  0  0  0  0  0  0  0  0
   22.0033   73.2473   -0.9858 O   0  0  0  0  0  0  0  0  0  0  0  0
   21.3539   69.9422   -3.3780 O   0  0  0  0  0  0  0  0  0  0  0  0
   20.9730   69.7751   -0.4864 O   0  0  0  0  0  0  0  0  0  0  0  0
   23.4323   71.8550   -4.0650 O   0  0  0  0  0  0  0  0  0  0  0  0
   22.0540   70.7467   -2.4290 C   0  0  2  0  0  0  0  0  0  0  0  0
   21.1662   70.9865   -1.2075 C   0  0  2  0  0  0  0  0  0  0  0  0
   22.4035   72.0758   -3.1021 C   0  0  1  0  0  0  0  0  0  0  0  0
   21.7878   72.0273   -0.2753 C   0  0  1  0  0  0  0  0  0  0  0  0
   22.8980   73.1016   -2.0864 C   0  0  1  0  0  0  0  0  0  0  0  0
   21.1213   69.0920   -2.9724 H   0  0  0  0  0  0  0  0  0  0  0  0
   20.5791   69.1101   -1.0719 H   0  0  0  0  0  0  0  0  0  0  0  0
   23.1303   71.2038   -4.7174 H   0  0  0  0  0  0  0  0  0  0  0  0
   23.0508   75.4128   -1.7166 O   0  0  0  0  0  0  0  0  0  0  0  0
   22.8373   74.7171   -3.8775 O   0  0  0  0  0  0  0  0  0  0  0  0
   22.9209   74.4710   -2.6836 C   0  0  0  0  0  0  0  0  0  0  0  0
  1  4  1  0
  1 24  1  0
  1  2  1  1
  1  3  2  0
 25 28  1  0
 25 24  1  0
 25 26  1  1
 25 27  2  0
  6 11  1  0
  6 12  1  0
 29 36  1  0
 29 37  1  0
  9  7  1  1
  7 13  1  0
 10  8  1  1
  8 14  1  0
  4  5  1  0
 36 28  1  6
 33 30  1  6
 30 38  1  0
 34 31  1  1
 31 39  1  0
 35 32  1  6
 32 40  1  0
 41 43  1  0
 15 19  2  0
 42 43  2  0
 16 22  2  0
 12 17  1  6
 17 19  1  0
 17 20  1  0
 18 19  1  0
 18 22  1  0
 18 23  1  0
  9 10  1  0
  9 11  1  0
 10 12  1  0
 11  5  1  6
 33 34  1  0
 33 35  1  0
 34 36  1  0
 35 37  1  0
 37 43  1  6
 20 21  2  0
 21 22  1  0
M  CHG  3   2  -1  26  -1  41  -1
M  END
>  <COMPND>  (2) 
    udp_gluA.pdb 

>  <AUTHOR>  (2) 
    GENERATED BY OPEN BABEL 3.1.1

>  <MASTER>  (2) 
        0    0    0    0    0    0    0    0   56    0   56    0

>  <minimizedAffinity>  (2) 
-8.61685

>  <CNNscore>  (2) 
0.8268167377

>  <CNNaffinity>  (2) 
5.1374030113

>  <CNN_VS>  (2) 
4.2476906776

>  <CNNaffinity_variance>  (2) 
0.2649936676

$$$$
3
     RDKit          3D

 43 45  0  0  0  0  0  0  0  0999 V2000
   22.4332   72.4580   -3.3267 P   0  0  2  0  0  0  0  0  0  0  0  0
   21.8751   73.9752   -3.4008 O   0  0  0  0  0  0  0  0  0  0  0  0
   23.7309   72.2247   -4.0430 O   0  0  0  0  0  0  0  0  0  0  0  0
   21.1836   71.5596   -3.8259 O   0  0  0  0  0  0  0  0  0  0  0  0
   20.5495   70.7050   -2.8921 C   0  0  0  0  0  0  0  0  0  0  0  0
   18.6799   71.7612   -3.9721 O   0  0  0  0  0  0  0  0  0  0  0  0
   16.9711   70.4443   -1.8894 O   0  0  0  0  0  0  0  0  0  0  0  0
   16.6161   68.8307   -4.0589 O   0  0  0  0  0  0  0  0  0  0  0  0
   18.1448   69.9537   -2.5377 C   0  0  1  0  0  0  0  0  0  0  0  0
   17.8272   69.5506   -3.9621 C   0  0  2  0  0  0  0  0  0  0  0  0
   19.0935   71.1269   -2.7425 C   0  0  1  0  0  0  0  0  0  0  0  0
   17.7654   70.8964   -4.6643 C   0  0  2  0  0  0  0  0  0  0  0  0
   16.3497   69.7125   -1.7478 H   0  0  0  0  0  0  0  0  0  0  0  0
   16.7066   67.9821   -3.5968 H   0  0  0  0  0  0  0  0  0  0  0  0
   16.0495   70.0968   -6.7603 O   0  0  0  0  0  0  0  0  0  0  0  0
   19.3668   70.6138   -9.9182 O   0  0  0  0  0  0  0  0  0  0  0  0
   18.1547   70.8132   -6.0436 N   0  0  0  0  0  0  0  0  0  0  0  0
   17.7036   70.3541   -8.3309 N   0  0  0  0  0  0  0  0  0  0  0  0
   17.2159   70.4000   -7.0183 C   0  0  0  0  0  0  0  0  0  0  0  0
   19.4520   71.1400   -6.4190 C   0  0  0  0  0  0  0  0  0  0  0  0
   19.9022   71.0915   -7.6743 C   0  0  0  0  0  0  0  0  0  0  0  0
   18.9851   70.6689   -8.7530 C   0  0  0  0  0  0  0  0  0  0  0  0
   17.0689   70.0673   -9.0268 H   0  0  0  0  0  0  0  0  0  0  0  0
   22.4792   72.1655   -1.7376 O   0  0  0  0  0  0  0  0  0  0  0  0
   22.4884   73.1724   -0.4728 P   0  0  2  0  0  0  0  0  0  0  0  0
   20.9954   73.0186    0.1333 O   0  0  0  0  0  0  0  0  0  0  0  0
   22.8762   74.5827   -0.8113 O   0  0  0  0  0  0  0  0  0  0  0  0
   23.4441   72.4574    0.6125 O   0  0  0  0  0  0  0  0  0  0  0  0
   23.2779   71.6466    2.8316 O   0  0  0  0  0  0  0  0  0  0  0  0
   26.8468   73.7237    2.9606 O   0  0  0  0  0  0  0  0  0  0  0  0
   24.5372   74.8338    1.5579 O   0  0  0  0  0  0  0  0  0  0  0  0
   26.8521   70.8183    2.8609 O   0  0  0  0  0  0  0  0  0  0  0  0
   25.8182   72.9363    2.3606 C   0  0  2  0  0  0  0  0  0  0  0  0
   24.4937   73.6981    2.4139 C   0  0  2  0  0  0  0  0  0  0  0  0
   25.7098   71.6249    3.1420 C   0  0  1  0  0  0  0  0  0  0  0  0
   23.3292   72.8009    1.9922 C   0  0  1  0  0  0  0  0  0  0  0  0
   24.4559   70.8470    2.7536 C   0  0  1  0  0  0  0  0  0  0  0  0
   26.9338   74.5623    2.4807 H   0  0  0  0  0  0  0  0  0  0  0  0
   25.2740   75.4074    1.8197 H   0  0  0  0  0  0  0  0  0  0  0  0
   27.6571   71.3020    3.1034 H   0  0  0  0  0  0  0  0  0  0  0  0
   23.3894   70.1982    4.7394 O   0  0  0  0  0  0  0  0  0  0  0  0
   24.6142   68.6128    3.6506 O   0  0  0  0  0  0  0  0  0  0  0  0
   24.1847   69.7536    3.7350 C   0  0  0  0  0  0  0  0  0  0  0  0
  1  4  1  0
  1 24  1  0
  1  2  1  1
  1  3  2  0
 25 28  1  0
 25 24  1  0
 25 26  1  1
 25 27  2  0
  6 11  1  0
  6 12  1  0
 29 36  1  0
 29 37  1  0
  9  7  1  6
  7 13  1  0
 10  8  1  1
  8 14  1  0
  4  5  1  0
 36 28  1  6
 33 30  1  1
 30 38  1  0
 34 31  1  6
 31 39  1  0
 35 32  1  6
 32 40  1  0
 41 43  1  0
 15 19  2  0
 42 43  2  0
 16 22  2  0
 12 17  1  6
 17 19  1  0
 17 20  1  0
 18 19  1  0
 18 22  1  0
 18 23  1  0
  9 10  1  0
  9 11  1  0
 10 12  1  0
 11  5  1  6
 33 34  1  0
 33 35  1  0
 34 36  1  0
 35 37  1  0
 37 43  1  1
 20 21  2  0
 21 22  1  0
M  CHG  3   2  -1  26  -1  41  -1
M  END
>  <COMPND>  (3) 
    udp_gluA.pdb 

>  <AUTHOR>  (3) 
    GENERATED BY OPEN BABEL 3.1.1

>  <MASTER>  (3) 
        0    0    0    0    0    0    0    0   56    0   56    0

>  <minimizedAffinity>  (3) 
-8.14360

>  <CNNscore>  (3) 
0.8165864348

>  <CNNaffinity>  (3) 
4.9614458084

>  <CNN_VS>  (3) 
4.0514492989

>  <CNNaffinity_variance>  (3) 
0.1894890368

$$$$
4
     RDKit          3D

 43 45  0  0  0  0  0  0  0  0999 V2000
   20.9248   70.7135    0.6548 P   0  0  2  0  0  0  0  0  0  0  0  0
   19.9723   71.4296    1.7497 O   0  0  0  0  0  0  0  0  0  0  0  0
   20.8781   69.2136    0.6586 O   0  0  0  0  0  0  0  0  0  0  0  0
   22.3797   71.3718    0.9157 O   0  0  0  0  0  0  0  0  0  0  0  0
   23.3389   70.6258    1.6422 C   0  0  0  0  0  0  0  0  0  0  0  0
   24.3467   70.4994    3.8208 O   0  0  0  0  0  0  0  0  0  0  0  0
   22.1962   72.3854    4.7206 O   0  0  0  0  0  0  0  0  0  0  0  0
   24.3471   74.0344    4.4192 O   0  0  0  0  0  0  0  0  0  0  0  0
   22.8891   72.3339    3.4733 C   0  0  1  0  0  0  0  0  0  0  0  0
   24.2992   72.8609    3.6348 C   0  0  2  0  0  0  0  0  0  0  0  0
   23.1331   70.8703    3.1316 C   0  0  1  0  0  0  0  0  0  0  0  0
   25.0009   71.6867    4.2957 C   0  0  2  0  0  0  0  0  0  0  0  0
   22.0290   73.3109    4.9599 H   0  0  0  0  0  0  0  0  0  0  0  0
   23.8873   74.7523    3.9553 H   0  0  0  0  0  0  0  0  0  0  0  0
   26.9967   73.3409    5.4169 O   0  0  0  0  0  0  0  0  0  0  0  0
   30.3146   71.3407    2.9198 O   0  0  0  0  0  0  0  0  0  0  0  0
   26.3943   71.6195    3.9566 N   0  0  0  0  0  0  0  0  0  0  0  0
   28.6472   72.3438    4.1714 N   0  0  0  0  0  0  0  0  0  0  0  0
   27.3150   72.4962    4.5778 C   0  0  0  0  0  0  0  0  0  0  0  0
   26.8363   70.6927    3.0203 C   0  0  0  0  0  0  0  0  0  0  0  0
   28.1094   70.5593    2.6432 C   0  0  0  0  0  0  0  0  0  0  0  0
   29.1348   71.4375    3.2438 C   0  0  0  0  0  0  0  0  0  0  0  0
   29.3063   72.9445    4.5886 H   0  0  0  0  0  0  0  0  0  0  0  0
   20.4599   71.3981   -0.7338 O   0  0  0  0  0  0  0  0  0  0  0  0
   21.1302   71.3758   -2.2048 P   0  0  2  0  0  0  0  0  0  0  0  0
   21.9147   69.9601   -2.2324 O   0  0  0  0  0  0  0  0  0  0  0  0
   21.9929   72.5668   -2.5066 O   0  0  0  0  0  0  0  0  0  0  0  0
   19.8901   71.1738   -3.2166 O   0  0  0  0  0  0  0  0  0  0  0  0
   19.1087   69.1812   -4.2304 O   0  0  0  0  0  0  0  0  0  0  0  0
   18.1180   72.0136   -7.0702 O   0  0  0  0  0  0  0  0  0  0  0  0
   20.6966   72.1274   -5.7018 O   0  0  0  0  0  0  0  0  0  0  0  0
   16.0589   70.8801   -5.3595 O   0  0  0  0  0  0  0  0  0  0  0  0
   18.3497   71.5145   -5.7529 C   0  0  2  0  0  0  0  0  0  0  0  0
   19.7947   71.0287   -5.6365 C   0  0  2  0  0  0  0  0  0  0  0  0
   17.3780   70.3580   -5.5076 C   0  0  1  0  0  0  0  0  0  0  0  0
   20.0160   70.2803   -4.3213 C   0  0  1  0  0  0  0  0  0  0  0  0
   17.7410   69.5840   -4.2436 C   0  0  1  0  0  0  0  0  0  0  0  0
   18.7245   72.7496   -7.2486 H   0  0  0  0  0  0  0  0  0  0  0  0
   20.5615   72.6070   -6.5337 H   0  0  0  0  0  0  0  0  0  0  0  0
   15.8157   71.3752   -6.1574 H   0  0  0  0  0  0  0  0  0  0  0  0
   17.6827   67.3847   -3.4303 O   0  0  0  0  0  0  0  0  0  0  0  0
   15.9448   68.0534   -4.7463 O   0  0  0  0  0  0  0  0  0  0  0  0
   17.0077   68.2833   -4.1891 C   0  0  0  0  0  0  0  0  0  0  0  0
  1  4  1  0
  1 24  1  0
  1  2  1  1
  1  3  2  0
 25 28  1  0
 25 24  1  0
 25 26  1  1
 25 27  2  0
  6 11  1  0
  6 12  1  0
 29 36  1  0
 29 37  1  0
  9  7  1  1
  7 13  1  0
 10  8  1  1
  8 14  1  0
  4  5  1  0
 36 28  1  1
 33 30  1  6
 30 38  1  0
 34 31  1  1
 31 39  1  0
 35 32  1  1
 32 40  1  0
 41 43  1  0
 15 19  2  0
 42 43  2  0
 16 22  2  0
 12 17  1  6
 17 19  1  0
 17 20  1  0
 18 19  1  0
 18 22  1  0
 18 23  1  0
  9 10  1  0
  9 11  1  0
 10 12  1  0
 11  5  1  6
 33 34  1  0
 33 35  1  0
 34 36  1  0
 35 37  1  0
 37 43  1  6
 20 21  2  0
 21 22  1  0
M  CHG  3   2  -1  26  -1  41  -1
M  END
>  <COMPND>  (4) 
    udp_gluA.pdb 

>  <AUTHOR>  (4) 
    GENERATED BY OPEN BABEL 3.1.1

>  <MASTER>  (4) 
        0    0    0    0    0    0    0    0   56    0   56    0

>  <minimizedAffinity>  (4) 
-9.54494

>  <CNNscore>  (4) 
0.7531881332

>  <CNNaffinity>  (4) 
4.8492927551

>  <CNN_VS>  (4) 
3.6524298191

>  <CNNaffinity_variance>  (4) 
0.2773093581

$$$$
5
     RDKit          3D

 43 45  0  0  0  0  0  0  0  0999 V2000
   21.7330   72.1275   -1.2784 P   0  0  2  0  0  0  0  0  0  0  0  0
   20.7046   72.2626   -0.0362 O   0  0  0  0  0  0  0  0  0  0  0  0
   22.7868   73.1936   -1.3473 O   0  0  0  0  0  0  0  0  0  0  0  0
   20.7672   72.0095   -2.5712 O   0  0  0  0  0  0  0  0  0  0  0  0
   19.9714   70.8477   -2.7169 C   0  0  0  0  0  0  0  0  0  0  0  0
   18.2218   71.8689   -4.0106 O   0  0  0  0  0  0  0  0  0  0  0  0
   16.3066   70.5488   -2.1182 O   0  0  0  0  0  0  0  0  0  0  0  0
   16.2165   68.9106   -4.2963 O   0  0  0  0  0  0  0  0  0  0  0  0
   17.5515   70.0678   -2.6257 C   0  0  1  0  0  0  0  0  0  0  0  0
   17.4004   69.6474   -4.0723 C   0  0  2  0  0  0  0  0  0  0  0  0
   18.5027   71.2516   -2.7357 C   0  0  1  0  0  0  0  0  0  0  0  0
   17.4012   70.9855   -4.7915 C   0  0  2  0  0  0  0  0  0  0  0  0
   15.6822   69.8102   -2.0392 H   0  0  0  0  0  0  0  0  0  0  0  0
   16.2650   68.0675   -3.8179 H   0  0  0  0  0  0  0  0  0  0  0  0
   15.9238   70.2058   -7.0687 O   0  0  0  0  0  0  0  0  0  0  0  0
   19.5852   70.6723   -9.8293 O   0  0  0  0  0  0  0  0  0  0  0  0
   17.9435   70.8947   -6.1175 N   0  0  0  0  0  0  0  0  0  0  0  0
   17.7491   70.4379   -8.4413 N   0  0  0  0  0  0  0  0  0  0  0  0
   17.1160   70.4927   -7.1926 C   0  0  0  0  0  0  0  0  0  0  0  0
   19.2795   71.2033   -6.3431 C   0  0  0  0  0  0  0  0  0  0  0  0
   19.8687   71.1464   -7.5391 C   0  0  0  0  0  0  0  0  0  0  0  0
   19.0744   70.7346   -8.7150 C   0  0  0  0  0  0  0  0  0  0  0  0
   17.1937   70.1586   -9.2047 H   0  0  0  0  0  0  0  0  0  0  0  0
   22.3052   70.6247   -1.1140 O   0  0  0  0  0  0  0  0  0  0  0  0
   22.4546   69.6827    0.1914 P   0  0  2  0  0  0  0  0  0  0  0  0
   23.4017   68.4774   -0.3287 O   0  0  0  0  0  0  0  0  0  0  0  0
   21.1483   69.2332    0.7792 O   0  0  0  0  0  0  0  0  0  0  0  0
   23.3876   70.5271    1.2008 O   0  0  0  0  0  0  0  0  0  0  0  0
   24.6755   70.0116    3.1204 O   0  0  0  0  0  0  0  0  0  0  0  0
   22.9743   73.6201    4.1938 O   0  0  0  0  0  0  0  0  0  0  0  0
   21.3896   71.5862    2.8203 O   0  0  0  0  0  0  0  0  0  0  0  0
   25.7682   73.5031    3.3992 O   0  0  0  0  0  0  0  0  0  0  0  0
   23.5169   72.6506    3.2974 C   0  0  2  0  0  0  0  0  0  0  0  0
   22.6860   71.3691    3.3653 C   0  0  2  0  0  0  0  0  0  0  0  0
   24.9610   72.3717    3.7201 C   0  0  1  0  0  0  0  0  0  0  0  0
   23.3658   70.2349    2.5969 C   0  0  1  0  0  0  0  0  0  0  0  0
   25.5258   71.1499    3.0012 C   0  0  1  0  0  0  0  0  0  0  0  0
   22.0567   73.8132    3.9447 H   0  0  0  0  0  0  0  0  0  0  0  0
   20.9526   72.3048    3.3030 H   0  0  0  0  0  0  0  0  0  0  0  0
   25.4192   74.2876    3.8505 H   0  0  0  0  0  0  0  0  0  0  0  0
   27.1603   69.4765    3.1730 O   0  0  0  0  0  0  0  0  0  0  0  0
   27.4175   71.3207    4.4891 O   0  0  0  0  0  0  0  0  0  0  0  0
   26.7922   70.6920    3.6484 C   0  0  0  0  0  0  0  0  0  0  0  0
  1  4  1  0
  1 24  1  0
  1  2  1  1
  1  3  2  0
 25 28  1  0
 25 24  1  0
 25 26  1  6
 25 27  2  0
  6 11  1  0
  6 12  1  0
 29 36  1  0
 29 37  1  0
  9  7  1  6
  7 13  1  0
 10  8  1  1
  8 14  1  0
  4  5  1  0
 36 28  1  6
 33 30  1  1
 30 38  1  0
 34 31  1  6
 31 39  1  0
 35 32  1  6
 32 40  1  0
 41 43  1  0
 15 19  2  0
 42 43  2  0
 16 22  2  0
 12 17  1  6
 17 19  1  0
 17 20  1  0
 18 19  1  0
 18 22  1  0
 18 23  1  0
  9 10  1  0
  9 11  1  0
 10 12  1  0
 11  5  1  6
 33 34  1  0
 33 35  1  0
 34 36  1  0
 35 37  1  0
 37 43  1  1
 20 21  2  0
 21 22  1  0
M  CHG  3   2  -1  26  -1  41  -1
M  END
>  <COMPND>  (5) 
    udp_gluA.pdb 

>  <AUTHOR>  (5) 
    GENERATED BY OPEN BABEL 3.1.1

>  <MASTER>  (5) 
        0    0    0    0    0    0    0    0   56    0   56    0

>  <minimizedAffinity>  (5) 
-8.95972

>  <CNNscore>  (5) 
0.7517127395

>  <CNNaffinity>  (5) 
4.9025473595

>  <CNN_VS>  (5) 
3.6853072643

>  <CNNaffinity_variance>  (5) 
0.4190278947

$$$$
6
     RDKit          3D

 43 45  0  0  0  0  0  0  0  0999 V2000
   20.8793   70.3203    0.1779 P   0  0  2  0  0  0  0  0  0  0  0  0
   19.3313   70.7912    0.2090 O   0  0  0  0  0  0  0  0  0  0  0  0
   21.1378   68.9553    0.7449 O   0  0  0  0  0  0  0  0  0  0  0  0
   21.6704   71.5386    0.8906 O   0  0  0  0  0  0  0  0  0  0  0  0
   22.9090   71.2645    1.5192 C   0  0  0  0  0  0  0  0  0  0  0  0
   23.8839   70.7046    3.6437 O   0  0  0  0  0  0  0  0  0  0  0  0
   21.9079   72.6141    4.8440 O   0  0  0  0  0  0  0  0  0  0  0  0
   24.2028   74.0861    4.7919 O   0  0  0  0  0  0  0  0  0  0  0  0
   22.6029   72.6965    3.5996 C   0  0  1  0  0  0  0  0  0  0  0  0
   24.0540   73.0602    3.8327 C   0  0  2  0  0  0  0  0  0  0  0  0
   22.7148   71.2890    3.0298 C   0  0  1  0  0  0  0  0  0  0  0  0
   24.6402   71.7374    4.2955 C   0  0  2  0  0  0  0  0  0  0  0  0
   21.8241   73.5016    5.2274 H   0  0  0  0  0  0  0  0  0  0  0  0
   23.8142   74.9071    4.4501 H   0  0  0  0  0  0  0  0  0  0  0  0
   26.7826   72.8537    5.7587 O   0  0  0  0  0  0  0  0  0  0  0  0
   29.9100   71.1356    2.8412 O   0  0  0  0  0  0  0  0  0  0  0  0
   26.0242   71.5973    3.9407 N   0  0  0  0  0  0  0  0  0  0  0  0
   28.3381   71.9978    4.3036 N   0  0  0  0  0  0  0  0  0  0  0  0
   27.0229   72.1977    4.7433 C   0  0  0  0  0  0  0  0  0  0  0  0
   26.3804   70.8710    2.8109 C   0  0  0  0  0  0  0  0  0  0  0  0
   27.6384   70.6890    2.4045 C   0  0  0  0  0  0  0  0  0  0  0  0
   28.7417   71.2841    3.1868 C   0  0  0  0  0  0  0  0  0  0  0  0
   29.0507   72.4080    4.8451 H   0  0  0  0  0  0  0  0  0  0  0  0
   21.2787   70.4893   -1.3793 O   0  0  0  0  0  0  0  0  0  0  0  0
   20.8317   71.5894   -2.4764 P   0  0  2  0  0  0  0  0  0  0  0  0
   22.0389   71.5487   -3.5541 O   0  0  0  0  0  0  0  0  0  0  0  0
   20.5571   72.9510   -1.9066 O   0  0  0  0  0  0  0  0  0  0  0  0
   19.5798   70.9190   -3.2417 O   0  0  0  0  0  0  0  0  0  0  0  0
   17.8421   72.3353   -4.0059 O   0  0  0  0  0  0  0  0  0  0  0  0
   16.0584   68.6160   -4.2370 O   0  0  0  0  0  0  0  0  0  0  0  0
   17.7122   69.3247   -1.9355 O   0  0  0  0  0  0  0  0  0  0  0  0
   16.9773   69.9463   -6.6530 O   0  0  0  0  0  0  0  0  0  0  0  0
   17.1385   69.5483   -4.2822 C   0  0  2  0  0  0  0  0  0  0  0  0
   17.2707   70.2444   -2.9274 C   0  0  2  0  0  0  0  0  0  0  0  0
   16.8346   70.5715   -5.3789 C   0  0  1  0  0  0  0  0  0  0  0  0
   18.2608   71.4075   -3.0042 C   0  0  1  0  0  0  0  0  0  0  0  0
   17.7872   71.7615   -5.3101 C   0  0  1  0  0  0  0  0  0  0  0  0
   16.2295   67.9559   -3.5469 H   0  0  0  0  0  0  0  0  0  0  0  0
   17.0887   68.5840   -1.8816 H   0  0  0  0  0  0  0  0  0  0  0  0
   16.3764   69.1870   -6.7097 H   0  0  0  0  0  0  0  0  0  0  0  0
   15.9955   72.6861   -6.5085 O   0  0  0  0  0  0  0  0  0  0  0  0
   17.9459   73.8669   -6.4778 O   0  0  0  0  0  0  0  0  0  0  0  0
   17.2880   72.8901   -6.1523 C   0  0  0  0  0  0  0  0  0  0  0  0
  1  4  1  0
  1 24  1  0
  1  2  1  6
  1  3  2  0
 25 28  1  0
 25 24  1  0
 25 26  1  6
 25 27  2  0
  6 11  1  0
  6 12  1  0
 29 36  1  0
 29 37  1  0
  9  7  1  1
  7 13  1  0
 10  8  1  1
  8 14  1  0
  4  5  1  0
 36 28  1  6
 33 30  1  1
 30 38  1  0
 34 31  1  1
 31 39  1  0
 35 32  1  6
 32 40  1  0
 41 43  1  0
 15 19  2  0
 42 43  2  0
 16 22  2  0
 12 17  1  6
 17 19  1  0
 17 20  1  0
 18 19  1  0
 18 22  1  0
 18 23  1  0
  9 10  1  0
  9 11  1  0
 10 12  1  0
 11  5  1  6
 33 34  1  0
 33 35  1  0
 34 36  1  0
 35 37  1  0
 37 43  1  6
 20 21  2  0
 21 22  1  0
M  CHG  3   2  -1  26  -1  41  -1
M  END
>  <COMPND>  (6) 
    udp_gluA.pdb 

>  <AUTHOR>  (6) 
    GENERATED BY OPEN BABEL 3.1.1

>  <MASTER>  (6) 
        0    0    0    0    0    0    0    0   56    0   56    0

>  <minimizedAffinity>  (6) 
-8.56581

>  <CNNscore>  (6) 
0.7426735759

>  <CNNaffinity>  (6) 
4.6296429634

>  <CNN_VS>  (6) 
3.4383134842

>  <CNNaffinity_variance>  (6) 
0.1043658704

$$$$
7
     RDKit          3D

 43 45  0  0  0  0  0  0  0  0999 V2000
   22.2789   69.5978    0.0304 P   0  0  2  0  0  0  0  0  0  0  0  0
   20.8117   69.2801    0.6348 O   0  0  0  0  0  0  0  0  0  0  0  0
   23.0580   68.3927   -0.4083 O   0  0  0  0  0  0  0  0  0  0  0  0
   22.9785   70.5107    1.1685 O   0  0  0  0  0  0  0  0  0  0  0  0
   23.8783   69.8942    2.0712 C   0  0  0  0  0  0  0  0  0  0  0  0
   24.8617   70.3858    4.2087 O   0  0  0  0  0  0  0  0  0  0  0  0
   22.4651   72.1185    4.7043 O   0  0  0  0  0  0  0  0  0  0  0  0
   24.3803   73.9333    4.0153 O   0  0  0  0  0  0  0  0  0  0  0  0
   23.1770   71.8871    3.4885 C   0  0  1  0  0  0  0  0  0  0  0  0
   24.5014   72.6205    3.5089 C   0  0  2  0  0  0  0  0  0  0  0  0
   23.6197   70.4304    3.4733 C   0  0  1  0  0  0  0  0  0  0  0  0
   25.3441   71.7251    4.4010 C   0  0  2  0  0  0  0  0  0  0  0  0
   22.1721   73.0430    4.7369 H   0  0  0  0  0  0  0  0  0  0  0  0
   23.8355   74.4636    3.4119 H   0  0  0  0  0  0  0  0  0  0  0  0
   27.1482   73.6821    5.3453 O   0  0  0  0  0  0  0  0  0  0  0  0
   30.6727   71.8070    3.0420 O   0  0  0  0  0  0  0  0  0  0  0  0
   26.7387   71.7720    4.0639 N   0  0  0  0  0  0  0  0  0  0  0  0
   28.9016   72.7469    4.1964 N   0  0  0  0  0  0  0  0  0  0  0  0
   27.5584   72.7974    4.5918 C   0  0  0  0  0  0  0  0  0  0  0  0
   27.2813   70.8095    3.2212 C   0  0  0  0  0  0  0  0  0  0  0  0
   28.5636   70.7744    2.8533 C   0  0  0  0  0  0  0  0  0  0  0  0
   29.4874   71.8103    3.3602 C   0  0  0  0  0  0  0  0  0  0  0  0
   29.4915   73.4517    4.5496 H   0  0  0  0  0  0  0  0  0  0  0  0
   21.9645   70.6611   -1.1458 O   0  0  0  0  0  0  0  0  0  0  0  0
   21.4957   72.2070   -1.0816 P   0  0  2  0  0  0  0  0  0  0  0  0
   22.8943   73.0128   -0.9595 O   0  0  0  0  0  0  0  0  0  0  0  0
   20.5115   72.5072    0.0116 O   0  0  0  0  0  0  0  0  0  0  0  0
   20.9649   72.5358   -2.5691 O   0  0  0  0  0  0  0  0  0  0  0  0
   19.8389   71.4523   -4.3488 O   0  0  0  0  0  0  0  0  0  0  0  0
   23.0144   73.2187   -6.3146 O   0  0  0  0  0  0  0  0  0  0  0  0
   23.4132   71.9120   -3.7324 O   0  0  0  0  0  0  0  0  0  0  0  0
   20.3500   74.3626   -6.5240 O   0  0  0  0  0  0  0  0  0  0  0  0
   22.0058   73.1006   -5.3112 C   0  0  2  0  0  0  0  0  0  0  0  0
   22.2268   71.8160   -4.5122 C   0  0  2  0  0  0  0  0  0  0  0  0
   20.6450   73.0650   -6.0104 C   0  0  1  0  0  0  0  0  0  0  0  0
   21.0427   71.5377   -3.5852 C   0  0  1  0  0  0  0  0  0  0  0  0
   19.5341   72.6577   -5.0468 C   0  0  1  0  0  0  0  0  0  0  0  0
   23.8882   73.2431   -5.8938 H   0  0  0  0  0  0  0  0  0  0  0  0
   24.1686   72.0888   -4.3142 H   0  0  0  0  0  0  0  0  0  0  0  0
   21.0497   74.6337   -7.1387 H   0  0  0  0  0  0  0  0  0  0  0  0
   17.2584   72.1008   -4.9333 O   0  0  0  0  0  0  0  0  0  0  0  0
   18.1978   72.2202   -7.0075 O   0  0  0  0  0  0  0  0  0  0  0  0
   18.2873   72.3077   -5.7921 C   0  0  0  0  0  0  0  0  0  0  0  0
  1  4  1  0
  1 24  1  0
  1  2  1  1
  1  3  2  0
 25 28  1  0
 25 24  1  0
 25 26  1  1
 25 27  2  0
  6 11  1  0
  6 12  1  0
 29 36  1  0
 29 37  1  0
  9  7  1  1
  7 13  1  0
 10  8  1  1
  8 14  1  0
  4  5  1  0
 36 28  1  1
 33 30  1  6
 30 38  1  0
 34 31  1  1
 31 39  1  0
 35 32  1  1
 32 40  1  0
 41 43  1  0
 15 19  2  0
 42 43  2  0
 16 22  2  0
 12 17  1  6
 17 19  1  0
 17 20  1  0
 18 19  1  0
 18 22  1  0
 18 23  1  0
  9 10  1  0
  9 11  1  0
 10 12  1  0
 11  5  1  6
 33 34  1  0
 33 35  1  0
 34 36  1  0
 35 37  1  0
 37 43  1  6
 20 21  2  0
 21 22  1  0
M  CHG  3   2  -1  26  -1  41  -1
M  END
>  <COMPND>  (7) 
    udp_gluA.pdb 

>  <AUTHOR>  (7) 
    GENERATED BY OPEN BABEL 3.1.1

>  <MASTER>  (7) 
        0    0    0    0    0    0    0    0   56    0   56    0

>  <minimizedAffinity>  (7) 
-8.46777

>  <CNNscore>  (7) 
0.7290615439

>  <CNNaffinity>  (7) 
4.6637802124

>  <CNN_VS>  (7) 
3.4001827240

>  <CNNaffinity_variance>  (7) 
0.0426437855

$$$$
8
     RDKit          3D

 43 45  0  0  0  0  0  0  0  0999 V2000
   22.7987   70.4657   -2.3862 P   0  0  2  0  0  0  0  0  0  0  0  0
   23.7960   71.2001   -3.4278 O   0  0  0  0  0  0  0  0  0  0  0  0
   22.8406   68.9661   -2.4190 O   0  0  0  0  0  0  0  0  0  0  0  0
   21.3574   71.1351   -2.6906 O   0  0  0  0  0  0  0  0  0  0  0  0
   20.3050   70.3002   -3.1375 C   0  0  0  0  0  0  0  0  0  0  0  0
   18.8615   71.7935   -4.3474 O   0  0  0  0  0  0  0  0  0  0  0  0
   16.7118   70.9763   -2.4231 O   0  0  0  0  0  0  0  0  0  0  0  0
   16.1275   69.4920   -4.6347 O   0  0  0  0  0  0  0  0  0  0  0  0
   17.7677   70.1954   -2.9833 C   0  0  1  0  0  0  0  0  0  0  0  0
   17.4714   69.8768   -4.4335 C   0  0  2  0  0  0  0  0  0  0  0  0
   18.9992   71.0835   -3.0975 C   0  0  1  0  0  0  0  0  0  0  0  0
   17.8134   71.1878   -5.1207 C   0  0  2  0  0  0  0  0  0  0  0  0
   15.9140   70.4301   -2.3405 H   0  0  0  0  0  0  0  0  0  0  0  0
   15.9599   68.6521   -4.1781 H   0  0  0  0  0  0  0  0  0  0  0  0
   16.1323   70.6427   -7.3238 O   0  0  0  0  0  0  0  0  0  0  0  0
   19.6999   70.4731  -10.2371 O   0  0  0  0  0  0  0  0  0  0  0  0
   18.2765   70.9967   -6.4660 N   0  0  0  0  0  0  0  0  0  0  0  0
   17.9109   70.5577   -8.7725 N   0  0  0  0  0  0  0  0  0  0  0  0
   17.3491   70.7275   -7.5002 C   0  0  0  0  0  0  0  0  0  0  0  0
   19.6343   71.0782   -6.7503 C   0  0  0  0  0  0  0  0  0  0  0  0
   20.1547   70.9142   -7.9681 C   0  0  0  0  0  0  0  0  0  0  0  0
   19.2542   70.6288   -9.1043 C   0  0  0  0  0  0  0  0  0  0  0  0
   17.2852   70.3673   -9.5084 H   0  0  0  0  0  0  0  0  0  0  0  0
   23.2107   71.1199   -0.9667 O   0  0  0  0  0  0  0  0  0  0  0  0
   22.4386   72.1819   -0.0234 P   0  0  2  0  0  0  0  0  0  0  0  0
   21.0108   71.4682    0.2454 O   0  0  0  0  0  0  0  0  0  0  0  0
   22.3401   73.5631   -0.6035 O   0  0  0  0  0  0  0  0  0  0  0  0
   23.2058   72.1041    1.3936 O   0  0  0  0  0  0  0  0  0  0  0  0
   25.4354   72.3469    2.1547 O   0  0  0  0  0  0  0  0  0  0  0  0
   24.1803   69.0297    4.2735 O   0  0  0  0  0  0  0  0  0  0  0  0
   23.4819   69.3371    1.4535 O   0  0  0  0  0  0  0  0  0  0  0  0
   24.4043   71.6080    5.5976 O   0  0  0  0  0  0  0  0  0  0  0  0
   24.0335   70.2884    3.6161 C   0  0  2  0  0  0  0  0  0  0  0  0
   24.4259   70.1465    2.1453 C   0  0  2  0  0  0  0  0  0  0  0  0
   24.9474   71.2969    4.3159 C   0  0  1  0  0  0  0  0  0  0  0  0
   24.5025   71.5140    1.4651 C   0  0  1  0  0  0  0  0  0  0  0  0
   25.0711   72.5880    3.5120 C   0  0  1  0  0  0  0  0  0  0  0  0
   23.6087   68.3728    3.8458 H   0  0  0  0  0  0  0  0  0  0  0  0
   23.4280   68.4679    1.8800 H   0  0  0  0  0  0  0  0  0  0  0  0
   24.3203   70.7946    6.1193 H   0  0  0  0  0  0  0  0  0  0  0  0
   25.8659   74.0234    5.1881 O   0  0  0  0  0  0  0  0  0  0  0  0
   27.2833   73.5500    3.4659 O   0  0  0  0  0  0  0  0  0  0  0  0
   26.2015   73.4227    4.0196 C   0  0  0  0  0  0  0  0  0  0  0  0
  1  4  1  0
  1 24  1  0
  1  2  1  6
  1  3  2  0
 25 28  1  0
 25 24  1  0
 25 26  1  1
 25 27  2  0
  6 11  1  0
  6 12  1  0
 29 36  1  0
 29 37  1  0
  9  7  1  6
  7 13  1  0
 10  8  1  1
  8 14  1  0
  4  5  1  0
 36 28  1  1
 33 30  1  1
 30 38  1  0
 34 31  1  6
 31 39  1  0
 35 32  1  1
 32 40  1  0
 41 43  1  0
 15 19  2  0
 42 43  2  0
 16 22  2  0
 12 17  1  6
 17 19  1  0
 17 20  1  0
 18 19  1  0
 18 22  1  0
 18 23  1  0
  9 10  1  0
  9 11  1  0
 10 12  1  0
 11  5  1  6
 33 34  1  0
 33 35  1  0
 34 36  1  0
 35 37  1  0
 37 43  1  1
 20 21  2  0
 21 22  1  0
M  CHG  3   2  -1  26  -1  41  -1
M  END
>  <COMPND>  (8) 
    udp_gluA.pdb 

>  <AUTHOR>  (8) 
    GENERATED BY OPEN BABEL 3.1.1

>  <MASTER>  (8) 
        0    0    0    0    0    0    0    0   56    0   56    0

>  <minimizedAffinity>  (8) 
-8.18194

>  <CNNscore>  (8) 
0.6873924732

>  <CNNaffinity>  (8) 
4.6963205338

>  <CNN_VS>  (8) 
3.2282154560

>  <CNNaffinity_variance>  (8) 
0.1787612736

$$$$
9
     RDKit          3D

 43 45  0  0  0  0  0  0  0  0999 V2000
   20.9393   70.4140    0.2602 P   0  0  2  0  0  0  0  0  0  0  0  0
   19.5252   71.1163    0.6152 O   0  0  0  0  0  0  0  0  0  0  0  0
   21.0623   68.9826    0.6935 O   0  0  0  0  0  0  0  0  0  0  0  0
   22.0414   71.4298    0.8698 O   0  0  0  0  0  0  0  0  0  0  0  0
   23.1607   70.8867    1.5456 C   0  0  0  0  0  0  0  0  0  0  0  0
   24.1369   70.5511    3.7164 O   0  0  0  0  0  0  0  0  0  0  0  0
   22.0432   72.4357    4.7440 O   0  0  0  0  0  0  0  0  0  0  0  0
   24.2542   74.0249    4.5956 O   0  0  0  0  0  0  0  0  0  0  0  0
   22.7490   72.4587    3.5031 C   0  0  1  0  0  0  0  0  0  0  0  0
   24.1747   72.9201    3.7195 C   0  0  2  0  0  0  0  0  0  0  0  0
   22.9456   71.0192    3.0478 C   0  0  1  0  0  0  0  0  0  0  0  0
   24.8266   71.6725    4.2909 C   0  0  2  0  0  0  0  0  0  0  0  0
   21.9057   73.3446    5.0551 H   0  0  0  0  0  0  0  0  0  0  0  0
   23.8256   74.7935    4.1864 H   0  0  0  0  0  0  0  0  0  0  0  0
   26.8794   73.0616    5.6448 O   0  0  0  0  0  0  0  0  0  0  0  0
   30.1405   71.2511    2.9370 O   0  0  0  0  0  0  0  0  0  0  0  0
   26.2207   71.5824    3.9605 N   0  0  0  0  0  0  0  0  0  0  0  0
   28.5015   72.1593    4.2942 N   0  0  0  0  0  0  0  0  0  0  0  0
   27.1714   72.3217    4.7033 C   0  0  0  0  0  0  0  0  0  0  0  0
   26.6341   70.7682    2.9130 C   0  0  0  0  0  0  0  0  0  0  0  0
   27.9056   70.6235    2.5349 C   0  0  0  0  0  0  0  0  0  0  0  0
   28.9612   71.3619    3.2586 C   0  0  0  0  0  0  0  0  0  0  0  0
   29.1813   72.6656    4.7951 H   0  0  0  0  0  0  0  0  0  0  0  0
   21.0711   70.6488   -1.3336 O   0  0  0  0  0  0  0  0  0  0  0  0
   20.7225   71.9346   -2.2495 P   0  0  2  0  0  0  0  0  0  0  0  0
   22.0298   72.0823   -3.1926 O   0  0  0  0  0  0  0  0  0  0  0  0
   20.3794   73.1710   -1.4701 O   0  0  0  0  0  0  0  0  0  0  0  0
   19.5586   71.4254   -3.2438 O   0  0  0  0  0  0  0  0  0  0  0  0
   18.9985   69.3002   -4.1263 O   0  0  0  0  0  0  0  0  0  0  0  0
   18.1877   71.7806   -7.3291 O   0  0  0  0  0  0  0  0  0  0  0  0
   20.5880   72.1847   -5.7136 O   0  0  0  0  0  0  0  0  0  0  0  0
   16.0111   70.6907   -5.7400 O   0  0  0  0  0  0  0  0  0  0  0  0
   18.2960   71.4254   -5.9507 C   0  0  2  0  0  0  0  0  0  0  0  0
   19.7419   71.0436   -5.6326 C   0  0  2  0  0  0  0  0  0  0  0  0
   17.3634   70.2397   -5.6932 C   0  0  1  0  0  0  0  0  0  0  0  0
   19.8528   70.4397   -4.2320 C   0  0  1  0  0  0  0  0  0  0  0  0
   17.6220   69.6143   -4.3255 C   0  0  1  0  0  0  0  0  0  0  0  0
   18.7718   72.5323   -7.5163 H   0  0  0  0  0  0  0  0  0  0  0  0
   20.5224   72.5731   -6.5997 H   0  0  0  0  0  0  0  0  0  0  0  0
   15.8335   71.0911   -6.6055 H   0  0  0  0  0  0  0  0  0  0  0  0
   17.6619   67.4573   -3.4051 O   0  0  0  0  0  0  0  0  0  0  0  0
   15.9141   67.9707   -4.7766 O   0  0  0  0  0  0  0  0  0  0  0  0
   16.9547   68.2819   -4.2168 C   0  0  0  0  0  0  0  0  0  0  0  0
  1  4  1  0
  1 24  1  0
  1  2  1  1
  1  3  2  0
 25 28  1  0
 25 24  1  0
 25 26  1  6
 25 27  2  0
  6 11  1  0
  6 12  1  0
 29 36  1  0
 29 37  1  0
  9  7  1  1
  7 13  1  0
 10  8  1  1
  8 14  1  0
  4  5  1  0
 36 28  1  1
 33 30  1  6
 30 38  1  0
 34 31  1  1
 31 39  1  0
 35 32  1  1
 32 40  1  0
 41 43  1  0
 15 19  2  0
 42 43  2  0
 16 22  2  0
 12 17  1  6
 17 19  1  0
 17 20  1  0
 18 19  1  0
 18 22  1  0
 18 23  1  0
  9 10  1  0
  9 11  1  0
 10 12  1  0
 11  5  1  6
 33 34  1  0
 33 35  1  0
 34 36  1  0
 35 37  1  0
 37 43  1  6
 20 21  2  0
 21 22  1  0
M  CHG  3   2  -1  26  -1  41  -1
M  END
>  <COMPND>  (9) 
    udp_gluA.pdb 

>  <AUTHOR>  (9) 
    GENERATED BY OPEN BABEL 3.1.1

>  <MASTER>  (9) 
        0    0    0    0    0    0    0    0   56    0   56    0

>  <minimizedAffinity>  (9) 
-9.06526

>  <CNNscore>  (9) 
0.6794970632

>  <CNNaffinity>  (9) 
4.6902184486

>  <CNN_VS>  (9) 
3.1869895458

>  <CNNaffinity_variance>  (9) 
0.1259838939

$$$$
10
     RDKit          3D

 43 45  0  0  0  0  0  0  0  0999 V2000
   22.3772   69.3648   -0.2193 P   0  0  2  0  0  0  0  0  0  0  0  0
   21.1038   69.0166    0.7167 O   0  0  0  0  0  0  0  0  0  0  0  0
   23.1798   68.1775   -0.6645 O   0  0  0  0  0  0  0  0  0  0  0  0
   23.1860   70.4830    0.6252 O   0  0  0  0  0  0  0  0  0  0  0  0
   24.2780   70.0675    1.4249 C   0  0  0  0  0  0  0  0  0  0  0  0
   25.1355   70.1428    3.6691 O   0  0  0  0  0  0  0  0  0  0  0  0
   22.6095   71.5902    4.3872 O   0  0  0  0  0  0  0  0  0  0  0  0
   24.4259   73.6159    4.2056 O   0  0  0  0  0  0  0  0  0  0  0  0
   23.3858   71.6662    3.1913 C   0  0  1  0  0  0  0  0  0  0  0  0
   24.6560   72.4517    3.4400 C   0  0  2  0  0  0  0  0  0  0  0  0
   23.9254   70.2742    2.8923 C   0  0  1  0  0  0  0  0  0  0  0  0
   25.5185   71.4344    4.1674 C   0  0  2  0  0  0  0  0  0  0  0  0
   22.2540   72.4680    4.5987 H   0  0  0  0  0  0  0  0  0  0  0  0
   23.8726   74.2319    3.6992 H   0  0  0  0  0  0  0  0  0  0  0  0
   27.0967   73.3976    5.4449 O   0  0  0  0  0  0  0  0  0  0  0  0
   30.8846   72.0995    3.1621 O   0  0  0  0  0  0  0  0  0  0  0  0
   26.9198   71.6314    3.9257 N   0  0  0  0  0  0  0  0  0  0  0  0
   28.9816   72.7499    4.3059 N   0  0  0  0  0  0  0  0  0  0  0  0
   27.6201   72.6461    4.6200 C   0  0  0  0  0  0  0  0  0  0  0  0
   27.5861   70.8243    3.0116 C   0  0  0  0  0  0  0  0  0  0  0  0
   28.8843   70.9352    2.7228 C   0  0  0  0  0  0  0  0  0  0  0  0
   29.6883   71.9710    3.4040 C   0  0  0  0  0  0  0  0  0  0  0  0
   29.4897   73.4505    4.7753 H   0  0  0  0  0  0  0  0  0  0  0  0
   21.7201   70.2224   -1.4217 O   0  0  0  0  0  0  0  0  0  0  0  0
   20.8578   71.5897   -1.4020 P   0  0  2  0  0  0  0  0  0  0  0  0
   21.9401   72.7157   -1.8278 O   0  0  0  0  0  0  0  0  0  0  0  0
   20.1632   71.8611   -0.0990 O   0  0  0  0  0  0  0  0  0  0  0  0
   19.8725   71.4705   -2.6738 O   0  0  0  0  0  0  0  0  0  0  0  0
   19.2640   69.5365   -3.8978 O   0  0  0  0  0  0  0  0  0  0  0  0
   19.0375   72.4716   -6.7964 O   0  0  0  0  0  0  0  0  0  0  0  0
   21.2481   72.4437   -4.8867 O   0  0  0  0  0  0  0  0  0  0  0  0
   16.6081   71.3898   -5.6223 O   0  0  0  0  0  0  0  0  0  0  0  0
   18.9508   71.9337   -5.4769 C   0  0  2  0  0  0  0  0  0  0  0  0
   20.3143   71.3838   -5.0577 C   0  0  2  0  0  0  0  0  0  0  0  0
   17.9068   70.8149   -5.4900 C   0  0  1  0  0  0  0  0  0  0  0  0
   20.2087   70.5973   -3.7504 C   0  0  1  0  0  0  0  0  0  0  0  0
   17.9496   69.9979   -4.2018 C   0  0  1  0  0  0  0  0  0  0  0  0
   19.6953   73.1846   -6.8126 H   0  0  0  0  0  0  0  0  0  0  0  0
   21.3199   72.9472   -5.7123 H   0  0  0  0  0  0  0  0  0  0  0  0
   16.5676   71.9126   -6.4383 H   0  0  0  0  0  0  0  0  0  0  0  0
   17.5638   67.8183   -3.4260 O   0  0  0  0  0  0  0  0  0  0  0  0
   16.3077   68.5320   -5.1901 O   0  0  0  0  0  0  0  0  0  0  0  0
   17.1751   68.7292   -4.3524 C   0  0  0  0  0  0  0  0  0  0  0  0
  1  4  1  0
  1 24  1  0
  1  2  1  1
  1  3  2  0
 25 28  1  0
 25 24  1  0
 25 26  1  6
 25 27  2  0
  6 11  1  0
  6 12  1  0
 29 36  1  0
 29 37  1  0
  9  7  1  1
  7 13  1  0
 10  8  1  1
  8 14  1  0
  4  5  1  0
 36 28  1  1
 33 30  1  6
 30 38  1  0
 34 31  1  1
 31 39  1  0
 35 32  1  1
 32 40  1  0
 41 43  1  0
 15 19  2  0
 42 43  2  0
 16 22  2  0
 12 17  1  6
 17 19  1  0
 17 20  1  0
 18 19  1  0
 18 22  1  0
 18 23  1  0
  9 10  1  0
  9 11  1  0
 10 12  1  0
 11  5  1  6
 33 34  1  0
 33 35  1  0
 34 36  1  0
 35 37  1  0
 37 43  1  6
 20 21  2  0
 21 22  1  0
M  CHG  3   2  -1  26  -1  41  -1
M  END
>  <COMPND>  (10) 
    udp_gluA.pdb 

>  <AUTHOR>  (10) 
    GENERATED BY OPEN BABEL 3.1.1

>  <MASTER>  (10) 
        0    0    0    0    0    0    0    0   56    0   56    0

>  <minimizedAffinity>  (10) 
-8.97124

>  <CNNscore>  (10) 
0.6409569383

>  <CNNaffinity>  (10) 
4.6871709824

>  <CNN_VS>  (10) 
3.0042748451

>  <CNNaffinity_variance>  (10) 
0.0456308201

$$$$
11
     RDKit          3D

 43 45  0  0  0  0  0  0  0  0999 V2000
   22.4645   70.6194   -2.2072 P   0  0  2  0  0  0  0  0  0  0  0  0
   22.9220   72.0704   -2.7586 O   0  0  0  0  0  0  0  0  0  0  0  0
   23.2401   69.4589   -2.7580 O   0  0  0  0  0  0  0  0  0  0  0  0
   20.8689   70.5880   -2.4736 O   0  0  0  0  0  0  0  0  0  0  0  0
   20.2134   71.8005   -2.7972 C   0  0  0  0  0  0  0  0  0  0  0  0
   18.1010   71.9333   -3.9363 O   0  0  0  0  0  0  0  0  0  0  0  0
   17.0292   70.1664   -1.7636 O   0  0  0  0  0  0  0  0  0  0  0  0
   17.4115   68.4169   -3.8201 O   0  0  0  0  0  0  0  0  0  0  0  0
   18.3154   70.1577   -2.3833 C   0  0  1  0  0  0  0  0  0  0  0  0
   18.2221   69.5725   -3.7765 C   0  0  2  0  0  0  0  0  0  0  0  0
   18.7088   71.6005   -2.6694 C   0  0  1  0  0  0  0  0  0  0  0  0
   17.6339   70.7296   -4.5658 C   0  0  2  0  0  0  0  0  0  0  0  0
   16.7564   69.2552   -1.5712 H   0  0  0  0  0  0  0  0  0  0  0  0
   17.8290   67.7094   -3.3034 H   0  0  0  0  0  0  0  0  0  0  0  0
   15.9804   70.0102   -6.7395 O   0  0  0  0  0  0  0  0  0  0  0  0
   19.3548   70.7556   -9.7893 O   0  0  0  0  0  0  0  0  0  0  0  0
   18.0548   70.7268   -5.9383 N   0  0  0  0  0  0  0  0  0  0  0  0
   17.6629   70.3812   -8.2563 N   0  0  0  0  0  0  0  0  0  0  0  0
   17.1458   70.3484   -6.9546 C   0  0  0  0  0  0  0  0  0  0  0  0
   19.3532   71.0973   -6.2663 C   0  0  0  0  0  0  0  0  0  0  0  0
   19.8316   71.1237   -7.5118 C   0  0  0  0  0  0  0  0  0  0  0  0
   18.9469   70.7418   -8.6319 C   0  0  0  0  0  0  0  0  0  0  0  0
   17.0494   70.1198   -8.9806 H   0  0  0  0  0  0  0  0  0  0  0  0
   22.5617   70.7937   -0.6031 O   0  0  0  0  0  0  0  0  0  0  0  0
   22.2141   69.7698    0.5988 P   0  0  2  0  0  0  0  0  0  0  0  0
   23.3232   68.6038    0.4238 O   0  0  0  0  0  0  0  0  0  0  0  0
   20.7953   69.2788    0.5985 O   0  0  0  0  0  0  0  0  0  0  0  0
   22.6522   70.5503    1.9409 O   0  0  0  0  0  0  0  0  0  0  0  0
   22.5511   72.7435    2.8291 O   0  0  0  0  0  0  0  0  0  0  0  0
   26.4747   71.7045    3.5995 O   0  0  0  0  0  0  0  0  0  0  0  0
   25.2394   71.0296    1.0397 O   0  0  0  0  0  0  0  0  0  0  0  0
   24.5190   71.7161    5.7504 O   0  0  0  0  0  0  0  0  0  0  0  0
   25.0773   71.4752    3.4190 C   0  0  2  0  0  0  0  0  0  0  0  0
   24.6669   71.9001    2.0088 C   0  0  2  0  0  0  0  0  0  0  0  0
   24.3236   72.3008    4.4641 C   0  0  1  0  0  0  0  0  0  0  0  0
   23.1455   71.8859    1.8541 C   0  0  1  0  0  0  0  0  0  0  0  0
   22.8271   72.3411    4.1688 C   0  0  1  0  0  0  0  0  0  0  0  0
   26.9741   71.1899    2.9460 H   0  0  0  0  0  0  0  0  0  0  0  0
   26.2047   71.0335    1.1323 H   0  0  0  0  0  0  0  0  0  0  0  0
   25.4676   71.6844    5.9504 H   0  0  0  0  0  0  0  0  0  0  0  0
   23.0256   73.9542    5.8600 O   0  0  0  0  0  0  0  0  0  0  0  0
   20.9817   73.7255    4.8756 O   0  0  0  0  0  0  0  0  0  0  0  0
   22.1542   73.3985    4.9821 C   0  0  0  0  0  0  0  0  0  0  0  0
  1  4  1  0
  1 24  1  0
  1  2  1  6
  1  3  2  0
 25 28  1  0
 25 24  1  0
 25 26  1  6
 25 27  2  0
  6 11  1  0
  6 12  1  0
 29 36  1  0
 29 37  1  0
  9  7  1  6
  7 13  1  0
 10  8  1  1
  8 14  1  0
  4  5  1  0
 36 28  1  1
 33 30  1  6
 30 38  1  0
 34 31  1  6
 31 39  1  0
 35 32  1  1
 32 40  1  0
 41 43  1  0
 15 19  2  0
 42 43  2  0
 16 22  2  0
 12 17  1  6
 17 19  1  0
 17 20  1  0
 18 19  1  0
 18 22  1  0
 18 23  1  0
  9 10  1  0
  9 11  1  0
 10 12  1  0
 11  5  1  6
 33 34  1  0
 33 35  1  0
 34 36  1  0
 35 37  1  0
 37 43  1  1
 20 21  2  0
 21 22  1  0
M  CHG  3   2  -1  26  -1  41  -1
M  END
>  <COMPND>  (11) 
    udp_gluA.pdb 

>  <AUTHOR>  (11) 
    GENERATED BY OPEN BABEL 3.1.1

>  <MASTER>  (11) 
        0    0    0    0    0    0    0    0   56    0   56    0

>  <minimizedAffinity>  (11) 
-9.01560

>  <CNNscore>  (11) 
0.6178755164

>  <CNNaffinity>  (11) 
4.6965742111

>  <CNN_VS>  (11) 
2.9018981457

>  <CNNaffinity_variance>  (11) 
0.1548988521

$$$$
12
     RDKit          3D

 43 45  0  0  0  0  0  0  0  0999 V2000
   20.8942   70.8394   -0.2348 P   0  0  2  0  0  0  0  0  0  0  0  0
   21.8658   69.8692   -1.0913 O   0  0  0  0  0  0  0  0  0  0  0  0
   20.9845   72.2957   -0.5851 O   0  0  0  0  0  0  0  0  0  0  0  0
   21.2286   70.4646    1.3032 O   0  0  0  0  0  0  0  0  0  0  0  0
   22.5051   70.7965    1.8178 C   0  0  0  0  0  0  0  0  0  0  0  0
   23.5707   70.7087    3.9706 O   0  0  0  0  0  0  0  0  0  0  0  0
   21.6154   72.8185    4.8176 O   0  0  0  0  0  0  0  0  0  0  0  0
   23.8847   74.2591    4.3582 O   0  0  0  0  0  0  0  0  0  0  0  0
   22.2598   72.6377    3.5564 C   0  0  1  0  0  0  0  0  0  0  0  0
   23.7135   73.0513    3.6464 C   0  0  2  0  0  0  0  0  0  0  0  0
   22.3699   71.1417    3.2953 C   0  0  1  0  0  0  0  0  0  0  0  0
   24.3367   71.8612    4.3556 C   0  0  2  0  0  0  0  0  0  0  0  0
   21.5338   73.7669    5.0063 H   0  0  0  0  0  0  0  0  0  0  0  0
   23.4711   74.9860    3.8658 H   0  0  0  0  0  0  0  0  0  0  0  0
   26.5337   73.1347    5.5918 O   0  0  0  0  0  0  0  0  0  0  0  0
   29.5528   71.0015    2.8389 O   0  0  0  0  0  0  0  0  0  0  0  0
   25.7076   71.6568    3.9818 N   0  0  0  0  0  0  0  0  0  0  0  0
   28.0352   72.0718    4.2188 N   0  0  0  0  0  0  0  0  0  0  0  0
   26.7363   72.3459    4.6667 C   0  0  0  0  0  0  0  0  0  0  0  0
   26.0219   70.7816    2.9493 C   0  0  0  0  0  0  0  0  0  0  0  0
   27.2648   70.5304    2.5337 C   0  0  0  0  0  0  0  0  0  0  0  0
   28.3974   71.2102    3.1960 C   0  0  0  0  0  0  0  0  0  0  0  0
   28.7680   72.5414    4.6791 H   0  0  0  0  0  0  0  0  0  0  0  0
   19.4348   70.1819   -0.4600 O   0  0  0  0  0  0  0  0  0  0  0  0
   18.3120   70.4521   -1.5914 P   0  0  2  0  0  0  0  0  0  0  0  0
   17.3913   71.6078   -0.9303 O   0  0  0  0  0  0  0  0  0  0  0  0
   17.5563   69.2257   -2.0142 O   0  0  0  0  0  0  0  0  0  0  0  0
   19.1038   71.1951   -2.7846 O   0  0  0  0  0  0  0  0  0  0  0  0
   18.7672   70.0079   -4.8061 O   0  0  0  0  0  0  0  0  0  0  0  0
   21.3238   73.0194   -6.0154 O   0  0  0  0  0  0  0  0  0  0  0  0
   21.7606   71.6352   -3.4801 O   0  0  0  0  0  0  0  0  0  0  0  0
   18.4964   73.1520   -6.6778 O   0  0  0  0  0  0  0  0  0  0  0  0
   20.2851   72.4265   -5.2360 C   0  0  2  0  0  0  0  0  0  0  0  0
   20.8386   71.2180   -4.4804 C   0  0  2  0  0  0  0  0  0  0  0  0
   19.1682   71.9930   -6.1881 C   0  0  1  0  0  0  0  0  0  0  0  0
   19.7117   70.4234   -3.8188 C   0  0  1  0  0  0  0  0  0  0  0  0
   18.1505   71.1007   -5.4834 C   0  0  1  0  0  0  0  0  0  0  0  0
   22.0450   73.3027   -5.4314 H   0  0  0  0  0  0  0  0  0  0  0  0
   22.4782   72.1402   -3.8928 H   0  0  0  0  0  0  0  0  0  0  0  0
   19.1331   73.7285   -7.1285 H   0  0  0  0  0  0  0  0  0  0  0  0
   17.6836   70.6683   -7.7409 O   0  0  0  0  0  0  0  0  0  0  0  0
   16.2911   69.7372   -6.1940 O   0  0  0  0  0  0  0  0  0  0  0  0
   17.2627   70.4225   -6.4755 C   0  0  0  0  0  0  0  0  0  0  0  0
  1  4  1  0
  1 24  1  0
  1  2  1  6
  1  3  2  0
 25 28  1  0
 25 24  1  0
 25 26  1  1
 25 27  2  0
  6 11  1  0
  6 12  1  0
 29 36  1  0
 29 37  1  0
  9  7  1  1
  7 13  1  0
 10  8  1  1
  8 14  1  0
  4  5  1  0
 36 28  1  1
 33 30  1  6
 30 38  1  0
 34 31  1  1
 31 39  1  0
 35 32  1  1
 32 40  1  0
 41 43  1  0
 15 19  2  0
 42 43  2  0
 16 22  2  0
 12 17  1  6
 17 19  1  0
 17 20  1  0
 18 19  1  0
 18 22  1  0
 18 23  1  0
  9 10  1  0
  9 11  1  0
 10 12  1  0
 11  5  1  6
 33 34  1  0
 33 35  1  0
 34 36  1  0
 35 37  1  0
 37 43  1  6
 20 21  2  0
 21 22  1  0
M  CHG  3   2  -1  26  -1  41  -1
M  END
>  <COMPND>  (12) 
    udp_gluA.pdb 

>  <AUTHOR>  (12) 
    GENERATED BY OPEN BABEL 3.1.1

>  <MASTER>  (12) 
        0    0    0    0    0    0    0    0   56    0   56    0

>  <minimizedAffinity>  (12) 
-8.93727

>  <CNNscore>  (12) 
0.5976529121

>  <CNNaffinity>  (12) 
4.4816589355

>  <CNN_VS>  (12) 
2.6784765720

>  <CNNaffinity_variance>  (12) 
0.0142180445

$$$$
13
     RDKit          3D

 43 45  0  0  0  0  0  0  0  0999 V2000
   22.3578   70.0996    0.6389 P   0  0  2  0  0  0  0  0  0  0  0  0
   22.1145   71.4534    1.4915 O   0  0  0  0  0  0  0  0  0  0  0  0
   21.1841   69.1663    0.5833 O   0  0  0  0  0  0  0  0  0  0  0  0
   23.7160   69.4839    1.2668 O   0  0  0  0  0  0  0  0  0  0  0  0
   24.7823   70.3655    1.5670 C   0  0  0  0  0  0  0  0  0  0  0  0
   26.3985   70.1238    3.3298 O   0  0  0  0  0  0  0  0  0  0  0  0
   24.4121   71.5197    5.0897 O   0  0  0  0  0  0  0  0  0  0  0  0
   26.1751   73.5104    4.4852 O   0  0  0  0  0  0  0  0  0  0  0  0
   24.7050   71.7360    3.7091 C   0  0  1  0  0  0  0  0  0  0  0  0
   26.0302   72.4529    3.5604 C   0  0  2  0  0  0  0  0  0  0  0  0
   25.0012   70.3840    3.0744 C   0  0  1  0  0  0  0  0  0  0  0  0
   27.0249   71.3292    3.7966 C   0  0  2  0  0  0  0  0  0  0  0  0
   24.2195   72.3696    5.5166 H   0  0  0  0  0  0  0  0  0  0  0  0
   25.5200   74.2002    4.2928 H   0  0  0  0  0  0  0  0  0  0  0  0
   28.9641   73.2737    4.4562 O   0  0  0  0  0  0  0  0  0  0  0  0
   31.6997   71.9904    0.9757 O   0  0  0  0  0  0  0  0  0  0  0  0
   28.2532   71.5250    3.0796 N   0  0  0  0  0  0  0  0  0  0  0  0
   30.3243   72.6334    2.7215 N   0  0  0  0  0  0  0  0  0  0  0  0
   29.1593   72.5299    3.4931 C   0  0  0  0  0  0  0  0  0  0  0  0
   28.5505   70.7262    1.9821 C   0  0  0  0  0  0  0  0  0  0  0  0
   29.6651   70.8365    1.2566 C   0  0  0  0  0  0  0  0  0  0  0  0
   30.6639   71.8625    1.6214 C   0  0  0  0  0  0  0  0  0  0  0  0
   30.9694   73.3274    2.9888 H   0  0  0  0  0  0  0  0  0  0  0  0
   22.8426   70.6582   -0.7984 O   0  0  0  0  0  0  0  0  0  0  0  0
   22.8019   69.9847   -2.2675 P   0  0  2  0  0  0  0  0  0  0  0  0
   23.0989   68.4221   -1.9664 O   0  0  0  0  0  0  0  0  0  0  0  0
   23.7386   70.6123   -3.2588 O   0  0  0  0  0  0  0  0  0  0  0  0
   21.2470   70.0286   -2.6950 O   0  0  0  0  0  0  0  0  0  0  0  0
   20.5121   72.0484   -3.6898 O   0  0  0  0  0  0  0  0  0  0  0  0
   16.9330   70.1134   -2.9728 O   0  0  0  0  0  0  0  0  0  0  0  0
   19.0629   70.0763   -0.9736 O   0  0  0  0  0  0  0  0  0  0  0  0
   18.0119   70.2341   -5.6695 O   0  0  0  0  0  0  0  0  0  0  0  0
   18.3237   70.2094   -3.2806 C   0  0  2  0  0  0  0  0  0  0  0  0
   19.0555   70.9034   -2.1315 C   0  0  2  0  0  0  0  0  0  0  0  0
   18.4678   71.0204   -4.5703 C   0  0  1  0  0  0  0  0  0  0  0  0
   20.4982   71.2299   -2.5195 C   0  0  1  0  0  0  0  0  0  0  0  0
   19.9205   71.4141   -4.8215 C   0  0  1  0  0  0  0  0  0  0  0  0
   16.8168   69.6020   -2.1565 H   0  0  0  0  0  0  0  0  0  0  0  0
   18.1506   69.8650   -0.7219 H   0  0  0  0  0  0  0  0  0  0  0  0
   17.0884   69.9768   -5.5220 H   0  0  0  0  0  0  0  0  0  0  0  0
   18.7756   72.9215   -6.2065 O   0  0  0  0  0  0  0  0  0  0  0  0
   21.0480   72.8652   -6.3849 O   0  0  0  0  0  0  0  0  0  0  0  0
   20.0099   72.4649   -5.8798 C   0  0  0  0  0  0  0  0  0  0  0  0
  1  4  1  0
  1 24  1  0
  1  2  1  1
  1  3  2  0
 25 28  1  0
 25 24  1  0
 25 26  1  1
 25 27  2  0
  6 11  1  0
  6 12  1  0
 29 36  1  0
 29 37  1  0
  9  7  1  1
  7 13  1  0
 10  8  1  1
  8 14  1  0
  4  5  1  0
 36 28  1  6
 33 30  1  1
 30 38  1  0
 34 31  1  1
 31 39  1  0
 35 32  1  6
 32 40  1  0
 41 43  1  0
 15 19  2  0
 42 43  2  0
 16 22  2  0
 12 17  1  6
 17 19  1  0
 17 20  1  0
 18 19  1  0
 18 22  1  0
 18 23  1  0
  9 10  1  0
  9 11  1  0
 10 12  1  0
 11  5  1  6
 33 34  1  0
 33 35  1  0
 34 36  1  0
 35 37  1  0
 37 43  1  6
 20 21  2  0
 21 22  1  0
M  CHG  3   2  -1  26  -1  41  -1
M  END
>  <COMPND>  (13) 
    udp_gluA.pdb 

>  <AUTHOR>  (13) 
    GENERATED BY OPEN BABEL 3.1.1

>  <MASTER>  (13) 
        0    0    0    0    0    0    0    0   56    0   56    0

>  <minimizedAffinity>  (13) 
-8.83908

>  <CNNscore>  (13) 
0.5799330473

>  <CNNaffinity>  (13) 
4.8260335922

>  <CNN_VS>  (13) 
2.7987763882

>  <CNNaffinity_variance>  (13) 
0.2540048957

$$$$
14
     RDKit          3D

 43 45  0  0  0  0  0  0  0  0999 V2000
   21.8203   70.2629    0.3532 P   0  0  2  0  0  0  0  0  0  0  0  0
   21.8142   71.5682    1.3099 O   0  0  0  0  0  0  0  0  0  0  0  0
   20.4737   69.6443    0.1170 O   0  0  0  0  0  0  0  0  0  0  0  0
   22.9303   69.2952    1.0235 O   0  0  0  0  0  0  0  0  0  0  0  0
   24.1440   69.8686    1.4734 C   0  0  0  0  0  0  0  0  0  0  0  0
   25.6941   69.5753    3.2870 O   0  0  0  0  0  0  0  0  0  0  0  0
   23.3923   70.1898    5.1080 O   0  0  0  0  0  0  0  0  0  0  0  0
   24.7513   72.5532    5.0469 O   0  0  0  0  0  0  0  0  0  0  0  0
   23.6991   70.7339    3.8241 C   0  0  1  0  0  0  0  0  0  0  0  0
   24.8612   71.6988    3.9278 C   0  0  2  0  0  0  0  0  0  0  0  0
   24.2861   69.6189    2.9694 C   0  0  1  0  0  0  0  0  0  0  0  0
   26.0472   70.7546    4.0272 C   0  0  2  0  0  0  0  0  0  0  0  0
   23.0158   70.8839    5.6721 H   0  0  0  0  0  0  0  0  0  0  0  0
   23.9819   73.1343    4.9357 H   0  0  0  0  0  0  0  0  0  0  0  0
   27.5135   72.8683    5.1929 O   0  0  0  0  0  0  0  0  0  0  0  0
   30.6224   72.8310    1.7903 O   0  0  0  0  0  0  0  0  0  0  0  0
   27.2436   71.3167    3.4672 N   0  0  0  0  0  0  0  0  0  0  0  0
   29.0599   72.8484    3.4966 N   0  0  0  0  0  0  0  0  0  0  0  0
   27.9039   72.3767    4.1323 C   0  0  0  0  0  0  0  0  0  0  0  0
   27.7517   70.8176    2.2740 C   0  0  0  0  0  0  0  0  0  0  0  0
   28.8548   71.2774    1.6803 C   0  0  0  0  0  0  0  0  0  0  0  0
   29.6038   72.3848    2.3096 C   0  0  0  0  0  0  0  0  0  0  0  0
   29.5358   73.5876    3.9398 H   0  0  0  0  0  0  0  0  0  0  0  0
   22.5604   70.7949   -0.9817 O   0  0  0  0  0  0  0  0  0  0  0  0
   22.6164   70.1863   -2.4784 P   0  0  2  0  0  0  0  0  0  0  0  0
   23.1428   68.6738   -2.2432 O   0  0  0  0  0  0  0  0  0  0  0  0
   23.4469   70.9879   -3.4384 O   0  0  0  0  0  0  0  0  0  0  0  0
   21.0711   70.0173   -2.9095 O   0  0  0  0  0  0  0  0  0  0  0  0
   19.3748   70.4328   -4.5093 O   0  0  0  0  0  0  0  0  0  0  0  0
   18.2846   72.9821   -1.4465 O   0  0  0  0  0  0  0  0  0  0  0  0
   21.0884   72.7121   -2.2212 O   0  0  0  0  0  0  0  0  0  0  0  0
   16.8232   70.5057   -1.8737 O   0  0  0  0  0  0  0  0  0  0  0  0
   18.8475   71.8037   -2.0231 C   0  0  2  0  0  0  0  0  0  0  0  0
   19.9914   72.1893   -2.9614 C   0  0  2  0  0  0  0  0  0  0  0  0
   17.7428   71.0827   -2.7988 C   0  0  1  0  0  0  0  0  0  0  0  0
   20.4666   70.9812   -3.7699 C   0  0  1  0  0  0  0  0  0  0  0  0
   18.3124   69.9724   -3.6771 C   0  0  1  0  0  0  0  0  0  0  0  0
   18.9685   73.4570   -0.9484 H   0  0  0  0  0  0  0  0  0  0  0  0
   20.7940   73.4788   -1.7056 H   0  0  0  0  0  0  0  0  0  0  0  0
   16.4535   71.2019   -1.3085 H   0  0  0  0  0  0  0  0  0  0  0  0
   16.5067   68.5416   -4.1167 O   0  0  0  0  0  0  0  0  0  0  0  0
   17.1778   69.9185   -5.8057 O   0  0  0  0  0  0  0  0  0  0  0  0
   17.2939   69.5010   -4.6633 C   0  0  0  0  0  0  0  0  0  0  0  0
  1  4  1  0
  1 24  1  0
  1  2  1  1
  1  3  2  0
 25 28  1  0
 25 24  1  0
 25 26  1  1
 25 27  2  0
  6 11  1  0
  6 12  1  0
 29 36  1  0
 29 37  1  0
  9  7  1  1
  7 13  1  0
 10  8  1  1
  8 14  1  0
  4  5  1  0
 36 28  1  1
 33 30  1  6
 30 38  1  0
 34 31  1  1
 31 39  1  0
 35 32  1  1
 32 40  1  0
 41 43  1  0
 15 19  2  0
 42 43  2  0
 16 22  2  0
 12 17  1  6
 17 19  1  0
 17 20  1  0
 18 19  1  0
 18 22  1  0
 18 23  1  0
  9 10  1  0
  9 11  1  0
 10 12  1  0
 11  5  1  6
 33 34  1  0
 33 35  1  0
 34 36  1  0
 35 37  1  0
 37 43  1  6
 20 21  2  0
 21 22  1  0
M  CHG  3   2  -1  26  -1  41  -1
M  END
>  <COMPND>  (14) 
    udp_gluA.pdb 

>  <AUTHOR>  (14) 
    GENERATED BY OPEN BABEL 3.1.1

>  <MASTER>  (14) 
        0    0    0    0    0    0    0    0   56    0   56    0

>  <minimizedAffinity>  (14) 
-9.01020

>  <CNNscore>  (14) 
0.5490704775

>  <CNNaffinity>  (14) 
4.8421649933

>  <CNN_VS>  (14) 
2.6586897373

>  <CNNaffinity_variance>  (14) 
0.1306289136

$$$$
15
     RDKit          3D

 43 45  0  0  0  0  0  0  0  0999 V2000
   21.6996   70.2683   -0.4514 P   0  0  2  0  0  0  0  0  0  0  0  0
   22.6000   69.3223   -1.4070 O   0  0  0  0  0  0  0  0  0  0  0  0
   20.6423   69.5509    0.3355 O   0  0  0  0  0  0  0  0  0  0  0  0
   21.1693   71.4308   -1.4439 O   0  0  0  0  0  0  0  0  0  0  0  0
   20.5202   71.0514   -2.6436 C   0  0  0  0  0  0  0  0  0  0  0  0
   18.5211   71.8505   -3.7126 O   0  0  0  0  0  0  0  0  0  0  0  0
   17.0135   70.3041   -1.6323 O   0  0  0  0  0  0  0  0  0  0  0  0
   16.8723   68.6683   -3.8095 O   0  0  0  0  0  0  0  0  0  0  0  0
   18.2405   69.9801   -2.2866 C   0  0  1  0  0  0  0  0  0  0  0  0
   17.9753   69.5449   -3.7122 C   0  0  2  0  0  0  0  0  0  0  0  0
   19.0211   71.2718   -2.4877 C   0  0  1  0  0  0  0  0  0  0  0  0
   17.7295   70.8734   -4.4069 C   0  0  2  0  0  0  0  0  0  0  0  0
   16.4973   69.4943   -1.4930 H   0  0  0  0  0  0  0  0  0  0  0  0
   17.0784   67.8374   -3.3523 H   0  0  0  0  0  0  0  0  0  0  0  0
   16.0732   69.9990   -6.5208 O   0  0  0  0  0  0  0  0  0  0  0  0
   19.3387   70.8292   -9.6658 O   0  0  0  0  0  0  0  0  0  0  0  0
   18.1216   70.8505   -5.7877 N   0  0  0  0  0  0  0  0  0  0  0  0
   17.7016   70.4124   -8.0851 N   0  0  0  0  0  0  0  0  0  0  0  0
   17.2139   70.3924   -6.7717 C   0  0  0  0  0  0  0  0  0  0  0  0
   19.3911   71.2798   -6.1555 C   0  0  0  0  0  0  0  0  0  0  0  0
   19.8416   71.2931   -7.4115 C   0  0  0  0  0  0  0  0  0  0  0  0
   18.9560   70.8296   -8.4997 C   0  0  0  0  0  0  0  0  0  0  0  0
   17.0884   70.0961   -8.7874 H   0  0  0  0  0  0  0  0  0  0  0  0
   22.8046   71.0334    0.4467 O   0  0  0  0  0  0  0  0  0  0  0  0
   23.3020   70.7770    1.9635 P   0  0  2  0  0  0  0  0  0  0  0  0
   23.5940   69.1851    1.9929 O   0  0  0  0  0  0  0  0  0  0  0  0
   22.3400   71.2488    3.0151 O   0  0  0  0  0  0  0  0  0  0  0  0
   24.7616   71.4602    2.0365 O   0  0  0  0  0  0  0  0  0  0  0  0
   27.0390   70.8102    2.0351 O   0  0  0  0  0  0  0  0  0  0  0  0
   26.9187   73.4448    5.2151 O   0  0  0  0  0  0  0  0  0  0  0  0
   24.7713   71.5045    4.8175 O   0  0  0  0  0  0  0  0  0  0  0  0
   28.0882   74.2658    2.6834 O   0  0  0  0  0  0  0  0  0  0  0  0
   26.5385   72.9185    3.9437 C   0  0  2  0  0  0  0  0  0  0  0  0
   26.0096   71.4945    4.1167 C   0  0  2  0  0  0  0  0  0  0  0  0
   27.7748   72.9212    3.0418 C   0  0  1  0  0  0  0  0  0  0  0  0
   25.8089   70.8169    2.7605 C   0  0  1  0  0  0  0  0  0  0  0  0
   27.5352   72.1195    1.7657 C   0  0  1  0  0  0  0  0  0  0  0  0
   26.1487   73.4528    5.8053 H   0  0  0  0  0  0  0  0  0  0  0  0
   24.8912   71.9333    5.6790 H   0  0  0  0  0  0  0  0  0  0  0  0
   28.2428   74.7869    3.4868 H   0  0  0  0  0  0  0  0  0  0  0  0
   29.1360   72.8762    0.2273 O   0  0  0  0  0  0  0  0  0  0  0  0
   29.5085   70.8498    1.2041 O   0  0  0  0  0  0  0  0  0  0  0  0
   28.8235   71.8510    1.0582 C   0  0  0  0  0  0  0  0  0  0  0  0
  1  4  1  0
  1 24  1  0
  1  2  1  6
  1  3  2  0
 25 28  1  0
 25 24  1  0
 25 26  1  6
 25 27  2  0
  6 11  1  0
  6 12  1  0
 29 36  1  0
 29 37  1  0
  9  7  1  1
  7 13  1  0
 10  8  1  1
  8 14  1  0
  4  5  1  0
 36 28  1  6
 33 30  1  1
 30 38  1  0
 34 31  1  6
 31 39  1  0
 35 32  1  6
 32 40  1  0
 41 43  1  0
 15 19  2  0
 42 43  2  0
 16 22  2  0
 12 17  1  6
 17 19  1  0
 17 20  1  0
 18 19  1  0
 18 22  1  0
 18 23  1  0
  9 10  1  0
  9 11  1  0
 10 12  1  0
 11  5  1  6
 33 34  1  0
 33 35  1  0
 34 36  1  0
 35 37  1  0
 37 43  1  1
 20 21  2  0
 21 22  1  0
M  CHG  3   2  -1  26  -1  41  -1
M  END
>  <COMPND>  (15) 
    udp_gluA.pdb 

>  <AUTHOR>  (15) 
    GENERATED BY OPEN BABEL 3.1.1

>  <MASTER>  (15) 
        0    0    0    0    0    0    0    0   56    0   56    0

>  <minimizedAffinity>  (15) 
-8.95685

>  <CNNscore>  (15) 
0.5076242089

>  <CNNaffinity>  (15) 
4.8267536163

>  <CNN_VS>  (15) 
2.4501769543

>  <CNNaffinity_variance>  (15) 
0.4033338428

$$$$
16
     RDKit          3D

 43 45  0  0  0  0  0  0  0  0999 V2000
   22.5338   71.2928   -2.6434 P   0  0  2  0  0  0  0  0  0  0  0  0
   21.3217   70.2243   -2.7327 O   0  0  0  0  0  0  0  0  0  0  0  0
   23.7483   70.9423   -3.4521 O   0  0  0  0  0  0  0  0  0  0  0  0
   22.7763   71.4734   -1.0539 O   0  0  0  0  0  0  0  0  0  0  0  0
   23.3219   70.3887   -0.3256 C   0  0  0  0  0  0  0  0  0  0  0  0
   23.4296   69.7811    1.9975 O   0  0  0  0  0  0  0  0  0  0  0  0
   20.7630   71.1230    2.2804 O   0  0  0  0  0  0  0  0  0  0  0  0
   22.4822   73.0030    3.2530 O   0  0  0  0  0  0  0  0  0  0  0  0
   21.8724   71.4821    1.4565 C   0  0  1  0  0  0  0  0  0  0  0  0
   22.9760   72.0871    2.2981 C   0  0  2  0  0  0  0  0  0  0  0  0
   22.5207   70.1986    0.9559 C   0  0  1  0  0  0  0  0  0  0  0  0
   23.5976   70.8560    2.9354 C   0  0  2  0  0  0  0  0  0  0  0  0
   20.3326   71.9269    2.6121 H   0  0  0  0  0  0  0  0  0  0  0  0
   22.0971   73.7687    2.7976 H   0  0  0  0  0  0  0  0  0  0  0  0
   24.6441   71.8671    5.3559 O   0  0  0  0  0  0  0  0  0  0  0  0
   28.9849   71.4652    3.8592 O   0  0  0  0  0  0  0  0  0  0  0  0
   24.9973   71.0261    3.2050 N   0  0  0  0  0  0  0  0  0  0  0  0
   26.8050   71.6669    4.6078 N   0  0  0  0  0  0  0  0  0  0  0  0
   25.4180   71.5424    4.4534 C   0  0  0  0  0  0  0  0  0  0  0  0
   25.9363   70.6817    2.2403 C   0  0  0  0  0  0  0  0  0  0  0  0
   27.2551   70.8060    2.4021 C   0  0  0  0  0  0  0  0  0  0  0  0
   27.7777   71.3386    3.6774 C   0  0  0  0  0  0  0  0  0  0  0  0
   27.1219   72.0261    5.4680 H   0  0  0  0  0  0  0  0  0  0  0  0
   21.8237   72.6830   -3.0629 O   0  0  0  0  0  0  0  0  0  0  0  0
   21.2578   73.1984   -4.4869 P   0  0  2  0  0  0  0  0  0  0  0  0
   22.1036   72.3278   -5.5580 O   0  0  0  0  0  0  0  0  0  0  0  0
   21.3513   74.6836   -4.6856 O   0  0  0  0  0  0  0  0  0  0  0  0
   19.7603   72.6046   -4.5714 O   0  0  0  0  0  0  0  0  0  0  0  0
   19.0017   70.3699   -4.7712 O   0  0  0  0  0  0  0  0  0  0  0  0
   16.1093   72.4313   -6.8813 O   0  0  0  0  0  0  0  0  0  0  0  0
   18.9323   73.1233   -7.1755 O   0  0  0  0  0  0  0  0  0  0  0  0
   15.5348   71.4330   -4.2122 O   0  0  0  0  0  0  0  0  0  0  0  0
   17.0922   72.2403   -5.8638 C   0  0  2  0  0  0  0  0  0  0  0  0
   18.4499   71.9621   -6.5094 C   0  0  2  0  0  0  0  0  0  0  0  0
   16.6580   71.0511   -5.0041 C   0  0  1  0  0  0  0  0  0  0  0  0
   19.4752   71.5270   -5.4615 C   0  0  1  0  0  0  0  0  0  0  0  0
   17.7792   70.5975   -4.0736 C   0  0  1  0  0  0  0  0  0  0  0  0
   16.3641   73.1822   -7.4404 H   0  0  0  0  0  0  0  0  0  0  0  0
   18.2864   73.4051   -7.8418 H   0  0  0  0  0  0  0  0  0  0  0  0
   14.8141   71.7241   -4.7924 H   0  0  0  0  0  0  0  0  0  0  0  0
   16.6595   68.5501   -4.3104 O   0  0  0  0  0  0  0  0  0  0  0  0
   17.8947   68.8472   -2.4170 O   0  0  0  0  0  0  0  0  0  0  0  0
   17.4728   69.2576   -3.4877 C   0  0  0  0  0  0  0  0  0  0  0  0
  1  4  1  0
  1 24  1  0
  1  2  1  1
  1  3  2  0
 25 28  1  0
 25 24  1  0
 25 26  1  6
 25 27  2  0
  6 11  1  0
  6 12  1  0
 29 36  1  0
 29 37  1  0
  9  7  1  1
  7 13  1  0
 10  8  1  1
  8 14  1  0
  4  5  1  0
 36 28  1  1
 33 30  1  6
 30 38  1  0
 34 31  1  1
 31 39  1  0
 35 32  1  1
 32 40  1  0
 41 43  1  0
 15 19  2  0
 42 43  2  0
 16 22  2  0
 12 17  1  6
 17 19  1  0
 17 20  1  0
 18 19  1  0
 18 22  1  0
 18 23  1  0
  9 10  1  0
  9 11  1  0
 10 12  1  0
 11  5  1  6
 33 34  1  0
 33 35  1  0
 34 36  1  0
 35 37  1  0
 37 43  1  6
 20 21  2  0
 21 22  1  0
M  CHG  3   2  -1  26  -1  41  -1
M  END
>  <COMPND>  (16) 
    udp_gluA.pdb 

>  <AUTHOR>  (16) 
    GENERATED BY OPEN BABEL 3.1.1

>  <MASTER>  (16) 
        0    0    0    0    0    0    0    0   56    0   56    0

>  <minimizedAffinity>  (16) 
-8.21253

>  <CNNscore>  (16) 
0.5032913089

>  <CNNaffinity>  (16) 
4.7639331818

>  <CNN_VS>  (16) 
2.3976461887

>  <CNNaffinity_variance>  (16) 
0.0632666722

$$$$
17
     RDKit          3D

 43 45  0  0  0  0  0  0  0  0999 V2000
   22.5202   69.6380    0.1005 P   0  0  2  0  0  0  0  0  0  0  0  0
   22.9228   68.0839   -0.1032 O   0  0  0  0  0  0  0  0  0  0  0  0
   23.3768   70.6176   -0.6468 O   0  0  0  0  0  0  0  0  0  0  0  0
   22.4811   69.8219    1.7075 O   0  0  0  0  0  0  0  0  0  0  0  0
   23.7043   69.8031    2.4201 C   0  0  0  0  0  0  0  0  0  0  0  0
   24.8047   70.6208    4.3945 O   0  0  0  0  0  0  0  0  0  0  0  0
   22.3940   72.3591    4.7925 O   0  0  0  0  0  0  0  0  0  0  0  0
   24.2082   74.0919    3.7236 O   0  0  0  0  0  0  0  0  0  0  0  0
   23.0349   71.9671    3.5783 C   0  0  1  0  0  0  0  0  0  0  0  0
   24.3359   72.7219    3.4050 C   0  0  2  0  0  0  0  0  0  0  0  0
   23.5183   70.5329    3.7442 C   0  0  1  0  0  0  0  0  0  0  0  0
   25.2586   71.9832    4.3593 C   0  0  2  0  0  0  0  0  0  0  0  0
   22.0765   73.2725    4.7106 H   0  0  0  0  0  0  0  0  0  0  0  0
   23.6114   74.5175    3.0875 H   0  0  0  0  0  0  0  0  0  0  0  0
   27.2696   73.5876    5.5248 O   0  0  0  0  0  0  0  0  0  0  0  0
   30.4763   71.9982    2.6206 O   0  0  0  0  0  0  0  0  0  0  0  0
   26.6275   72.0082    3.9274 N   0  0  0  0  0  0  0  0  0  0  0  0
   28.8646   72.7952    4.0766 N   0  0  0  0  0  0  0  0  0  0  0  0
   27.5584   72.8501    4.5806 C   0  0  0  0  0  0  0  0  0  0  0  0
   27.0359   71.2044    2.8700 C   0  0  0  0  0  0  0  0  0  0  0  0
   28.2845   71.1628    2.4009 C   0  0  0  0  0  0  0  0  0  0  0  0
   29.3184   72.0127    3.0272 C   0  0  0  0  0  0  0  0  0  0  0  0
   29.5301   73.3742    4.5139 H   0  0  0  0  0  0  0  0  0  0  0  0
   20.9560   69.6640   -0.3064 O   0  0  0  0  0  0  0  0  0  0  0  0
   19.9866   70.8906   -0.7183 P   0  0  2  0  0  0  0  0  0  0  0  0
   18.5832   70.1566   -1.0528 O   0  0  0  0  0  0  0  0  0  0  0  0
   20.5169   71.7477   -1.8310 O   0  0  0  0  0  0  0  0  0  0  0  0
   19.7148   71.6789    0.6627 O   0  0  0  0  0  0  0  0  0  0  0  0
   17.8499   72.8109    1.5847 O   0  0  0  0  0  0  0  0  0  0  0  0
   20.9703   75.2700    2.7177 O   0  0  0  0  0  0  0  0  0  0  0  0
   20.8909   74.1196    0.0336 O   0  0  0  0  0  0  0  0  0  0  0  0
   19.7196   73.5091    4.6635 O   0  0  0  0  0  0  0  0  0  0  0  0
   20.3386   74.0313    2.3943 C   0  0  2  0  0  0  0  0  0  0  0  0
   19.8116   74.0848    0.9601 C   0  0  2  0  0  0  0  0  0  0  0  0
   19.1854   73.8177    3.3775 C   0  0  1  0  0  0  0  0  0  0  0  0
   18.9321   72.8714    0.6548 C   0  0  1  0  0  0  0  0  0  0  0  0
   18.2824   72.6696    2.9360 C   0  0  1  0  0  0  0  0  0  0  0  0
   21.7066   75.4271    2.1058 H   0  0  0  0  0  0  0  0  0  0  0  0
   21.4533   74.8869    0.2216 H   0  0  0  0  0  0  0  0  0  0  0  0
   20.2964   74.2320    4.9560 H   0  0  0  0  0  0  0  0  0  0  0  0
   16.0260   72.0337    3.0127 O   0  0  0  0  0  0  0  0  0  0  0  0
   16.8411   73.1934    4.7987 O   0  0  0  0  0  0  0  0  0  0  0  0
   16.9994   72.6793    3.7016 C   0  0  0  0  0  0  0  0  0  0  0  0
  1  4  1  0
  1 24  1  0
  1  2  1  1
  1  3  2  0
 25 28  1  0
 25 24  1  0
 25 26  1  6
 25 27  2  0
  6 11  1  0
  6 12  1  0
 29 36  1  0
 29 37  1  0
  9  7  1  1
  7 13  1  0
 10  8  1  1
  8 14  1  0
  4  5  1  0
 36 28  1  1
 33 30  1  1
 30 38  1  0
 34 31  1  6
 31 39  1  0
 35 32  1  1
 32 40  1  0
 41 43  1  0
 15 19  2  0
 42 43  2  0
 16 22  2  0
 12 17  1  6
 17 19  1  0
 17 20  1  0
 18 19  1  0
 18 22  1  0
 18 23  1  0
  9 10  1  0
  9 11  1  0
 10 12  1  0
 11  5  1  6
 33 34  1  0
 33 35  1  0
 34 36  1  0
 35 37  1  0
 37 43  1  1
 20 21  2  0
 21 22  1  0
M  CHG  3   2  -1  26  -1  41  -1
M  END
>  <COMPND>  (17) 
    udp_gluA.pdb 

>  <AUTHOR>  (17) 
    GENERATED BY OPEN BABEL 3.1.1

>  <MASTER>  (17) 
        0    0    0    0    0    0    0    0   56    0   56    0

>  <minimizedAffinity>  (17) 
-8.03374

>  <CNNscore>  (17) 
0.4692136049

>  <CNNaffinity>  (17) 
4.6301398277

>  <CNN_VS>  (17) 
2.1725246906

>  <CNNaffinity_variance>  (17) 
0.0461340174

$$$$
18
     RDKit          3D

 43 45  0  0  0  0  0  0  0  0999 V2000
   20.8767   71.3316   -0.4531 P   0  0  2  0  0  0  0  0  0  0  0  0
   19.8563   70.1173   -0.1323 O   0  0  0  0  0  0  0  0  0  0  0  0
   21.0693   72.3103    0.6681 O   0  0  0  0  0  0  0  0  0  0  0  0
   20.3187   71.9521   -1.8393 O   0  0  0  0  0  0  0  0  0  0  0  0
   19.7078   71.0804   -2.7728 C   0  0  0  0  0  0  0  0  0  0  0  0
   17.9816   71.9825   -4.1814 O   0  0  0  0  0  0  0  0  0  0  0  0
   16.0339   70.6467   -2.3337 O   0  0  0  0  0  0  0  0  0  0  0  0
   16.1145   68.9339   -4.4541 O   0  0  0  0  0  0  0  0  0  0  0  0
   17.3201   70.2022   -2.7658 C   0  0  1  0  0  0  0  0  0  0  0  0
   17.2553   69.7274   -4.2020 C   0  0  2  0  0  0  0  0  0  0  0  0
   18.2265   71.4208   -2.8738 C   0  0  1  0  0  0  0  0  0  0  0  0
   17.2358   71.0395   -4.9674 C   0  0  2  0  0  0  0  0  0  0  0  0
   15.4371   69.8854   -2.2574 H   0  0  0  0  0  0  0  0  0  0  0  0
   16.1745   68.1102   -3.9443 H   0  0  0  0  0  0  0  0  0  0  0  0
   15.8480   70.3387   -7.3252 O   0  0  0  0  0  0  0  0  0  0  0  0
   19.6709   70.6390   -9.8824 O   0  0  0  0  0  0  0  0  0  0  0  0
   17.8439   70.9272   -6.2630 N   0  0  0  0  0  0  0  0  0  0  0  0
   17.7535   70.4879   -8.5964 N   0  0  0  0  0  0  0  0  0  0  0  0
   17.0574   70.5687   -7.3832 C   0  0  0  0  0  0  0  0  0  0  0  0
   19.2032   71.1724   -6.4147 C   0  0  0  0  0  0  0  0  0  0  0  0
   19.8527   71.0915   -7.5776 C   0  0  0  0  0  0  0  0  0  0  0  0
   19.1043   70.7219   -8.7969 C   0  0  0  0  0  0  0  0  0  0  0  0
   17.2275   70.2380   -9.3902 H   0  0  0  0  0  0  0  0  0  0  0  0
   22.2218   70.5631   -0.9145 O   0  0  0  0  0  0  0  0  0  0  0  0
   23.2245   69.5942   -0.0961 P   0  0  2  0  0  0  0  0  0  0  0  0
   24.4889   69.4418   -1.0952 O   0  0  0  0  0  0  0  0  0  0  0  0
   22.6115   68.2913    0.3289 O   0  0  0  0  0  0  0  0  0  0  0  0
   23.7724   70.5040    1.1182 O   0  0  0  0  0  0  0  0  0  0  0  0
   25.2776   69.8610    2.8299 O   0  0  0  0  0  0  0  0  0  0  0  0
   23.0673   72.7989    4.7142 O   0  0  0  0  0  0  0  0  0  0  0  0
   21.7554   70.8250    3.0063 O   0  0  0  0  0  0  0  0  0  0  0  0
   25.7676   73.3657    3.7988 O   0  0  0  0  0  0  0  0  0  0  0  0
   23.6971   72.1480    3.6108 C   0  0  2  0  0  0  0  0  0  0  0  0
   23.1087   70.7474    3.4390 C   0  0  2  0  0  0  0  0  0  0  0  0
   25.1965   72.0630    3.9050 C   0  0  1  0  0  0  0  0  0  0  0  0
   23.9118   69.9378    2.4200 C   0  0  1  0  0  0  0  0  0  0  0  0
   25.9058   71.1378    2.9204 C   0  0  1  0  0  0  0  0  0  0  0  0
   22.1134   72.8643    4.5497 H   0  0  0  0  0  0  0  0  0  0  0  0
   21.2401   71.3377    3.6481 H   0  0  0  0  0  0  0  0  0  0  0  0
   25.3248   73.9645    4.4203 H   0  0  0  0  0  0  0  0  0  0  0  0
   27.4871   71.3069    4.6445 O   0  0  0  0  0  0  0  0  0  0  0  0
   28.1069   70.1605    2.7734 O   0  0  0  0  0  0  0  0  0  0  0  0
   27.2795   70.8024    3.4030 C   0  0  0  0  0  0  0  0  0  0  0  0
  1  4  1  0
  1 24  1  0
  1  2  1  1
  1  3  2  0
 25 28  1  0
 25 24  1  0
 25 26  1  6
 25 27  2  0
  6 11  1  0
  6 12  1  0
 29 36  1  0
 29 37  1  0
  9  7  1  6
  7 13  1  0
 10  8  1  1
  8 14  1  0
  4  5  1  0
 36 28  1  6
 33 30  1  1
 30 38  1  0
 34 31  1  6
 31 39  1  0
 35 32  1  6
 32 40  1  0
 41 43  1  0
 15 19  2  0
 42 43  2  0
 16 22  2  0
 12 17  1  6
 17 19  1  0
 17 20  1  0
 18 19  1  0
 18 22  1  0
 18 23  1  0
  9 10  1  0
  9 11  1  0
 10 12  1  0
 11  5  1  6
 33 34  1  0
 33 35  1  0
 34 36  1  0
 35 37  1  0
 37 43  1  1
 20 21  2  0
 21 22  1  0
M  CHG  3   2  -1  26  -1  41  -1
M  END
>  <COMPND>  (18) 
    udp_gluA.pdb 

>  <AUTHOR>  (18) 
    GENERATED BY OPEN BABEL 3.1.1

>  <MASTER>  (18) 
        0    0    0    0    0    0    0    0   56    0   56    0

>  <minimizedAffinity>  (18) 
-8.88775

>  <CNNscore>  (18) 
0.4577931762

>  <CNNaffinity>  (18) 
4.8045611382

>  <CNN_VS>  (18) 
2.1994953156

>  <CNNaffinity_variance>  (18) 
0.3562127054

$$$$
19
     RDKit          3D

 43 45  0  0  0  0  0  0  0  0999 V2000
   22.6041   73.1380   -3.5867 P   0  0  2  0  0  0  0  0  0  0  0  0
   24.0299   72.9053   -4.3159 O   0  0  0  0  0  0  0  0  0  0  0  0
   22.3710   74.5314   -3.0808 O   0  0  0  0  0  0  0  0  0  0  0  0
   22.5417   71.9664   -2.4725 O   0  0  0  0  0  0  0  0  0  0  0  0
   22.6103   72.3289   -1.1056 C   0  0  0  0  0  0  0  0  0  0  0  0
   21.8398   70.0550   -0.9897 O   0  0  0  0  0  0  0  0  0  0  0  0
   21.4164   70.5437    1.9384 O   0  0  0  0  0  0  0  0  0  0  0  0
   23.7720   69.1706    1.8980 O   0  0  0  0  0  0  0  0  0  0  0  0
   22.4450   71.0364    1.0795 C   0  0  1  0  0  0  0  0  0  0  0  0
   23.4332   69.9348    0.7597 C   0  0  2  0  0  0  0  0  0  0  0  0
   21.8258   71.3145   -0.2834 C   0  0  1  0  0  0  0  0  0  0  0  0
   22.6791   69.1277   -0.2833 C   0  0  2  0  0  0  0  0  0  0  0  0
   21.7881   70.3587    2.8155 H   0  0  0  0  0  0  0  0  0  0  0  0
   24.2504   69.7289    2.5315 H   0  0  0  0  0  0  0  0  0  0  0  0
   22.9927   66.3306   -0.5169 O   0  0  0  0  0  0  0  0  0  0  0  0
   26.0776   66.7765   -3.9122 O   0  0  0  0  0  0  0  0  0  0  0  0
   23.5575   68.4859   -1.2199 N   0  0  0  0  0  0  0  0  0  0  0  0
   24.5296   66.5554   -2.2070 N   0  0  0  0  0  0  0  0  0  0  0  0
   23.6411   67.0738   -1.2558 C   0  0  0  0  0  0  0  0  0  0  0  0
   24.3226   69.2524   -2.0906 C   0  0  0  0  0  0  0  0  0  0  0  0
   25.1650   68.7438   -2.9919 C   0  0  0  0  0  0  0  0  0  0  0  0
   25.3121   67.2770   -3.0939 C   0  0  0  0  0  0  0  0  0  0  0  0
   24.6065   65.5747   -2.2494 H   0  0  0  0  0  0  0  0  0  0  0  0
   21.5422   72.6389   -4.6986 O   0  0  0  0  0  0  0  0  0  0  0  0
   21.1409   73.2589   -6.1367 P   0  0  2  0  0  0  0  0  0  0  0  0
   22.1660   72.5275   -7.1538 O   0  0  0  0  0  0  0  0  0  0  0  0
   21.1787   74.7587   -6.1929 O   0  0  0  0  0  0  0  0  0  0  0  0
   19.7019   72.6124   -6.4740 O   0  0  0  0  0  0  0  0  0  0  0  0
   19.4159   70.4462   -5.5604 O   0  0  0  0  0  0  0  0  0  0  0  0
   16.0477   70.8129   -7.9244 O   0  0  0  0  0  0  0  0  0  0  0  0
   18.6444   71.7368   -8.8929 O   0  0  0  0  0  0  0  0  0  0  0  0
   15.8390   71.0735   -5.0366 O   0  0  0  0  0  0  0  0  0  0  0  0
   17.1024   71.2714   -7.0786 C   0  0  2  0  0  0  0  0  0  0  0  0
   18.4513   70.9504   -7.7228 C   0  0  2  0  0  0  0  0  0  0  0  0
   16.9726   70.5571   -5.7314 C   0  0  1  0  0  0  0  0  0  0  0  0
   19.5999   71.2164   -6.7488 C   0  0  1  0  0  0  0  0  0  0  0  0
   18.2124   70.7684   -4.8671 C   0  0  1  0  0  0  0  0  0  0  0  0
   16.1098   71.2533   -8.7866 H   0  0  0  0  0  0  0  0  0  0  0  0
   17.9190   71.5732   -9.5153 H   0  0  0  0  0  0  0  0  0  0  0  0
   15.0432   70.9454   -5.5760 H   0  0  0  0  0  0  0  0  0  0  0  0
   19.1930   70.1528   -2.8273 O   0  0  0  0  0  0  0  0  0  0  0  0
   17.4670   68.8677   -3.5814 O   0  0  0  0  0  0  0  0  0  0  0  0
   18.2240   69.8175   -3.7148 C   0  0  0  0  0  0  0  0  0  0  0  0
  1  4  1  0
  1 24  1  0
  1  2  1  6
  1  3  2  0
 25 28  1  0
 25 24  1  0
 25 26  1  6
 25 27  2  0
  6 11  1  0
  6 12  1  0
 29 36  1  0
 29 37  1  0
  9  7  1  1
  7 13  1  0
 10  8  1  1
  8 14  1  0
  4  5  1  0
 36 28  1  1
 33 30  1  6
 30 38  1  0
 34 31  1  6
 31 39  1  0
 35 32  1  1
 32 40  1  0
 41 43  1  0
 15 19  2  0
 42 43  2  0
 16 22  2  0
 12 17  1  6
 17 19  1  0
 17 20  1  0
 18 19  1  0
 18 22  1  0
 18 23  1  0
  9 10  1  0
  9 11  1  0
 10 12  1  0
 11  5  1  6
 33 34  1  0
 33 35  1  0
 34 36  1  0
 35 37  1  0
 37 43  1  1
 20 21  2  0
 21 22  1  0
M  CHG  3   2  -1  26  -1  41  -1
M  END
>  <COMPND>  (19) 
    udp_gluA.pdb 

>  <AUTHOR>  (19) 
    GENERATED BY OPEN BABEL 3.1.1

>  <MASTER>  (19) 
        0    0    0    0    0    0    0    0   56    0   56    0

>  <minimizedAffinity>  (19) 
-9.25960

>  <CNNscore>  (19) 
0.3956845105

>  <CNNaffinity>  (19) 
4.3987421989

>  <CNN_VS>  (19) 
1.7405141592

>  <CNNaffinity_variance>  (19) 
0.7158297300

$$$$
20
     RDKit          3D

 43 45  0  0  0  0  0  0  0  0999 V2000
   22.8045   72.8043   -3.2500 P   0  0  2  0  0  0  0  0  0  0  0  0
   23.6157   71.5197   -3.8074 O   0  0  0  0  0  0  0  0  0  0  0  0
   23.5910   74.0817   -3.2098 O   0  0  0  0  0  0  0  0  0  0  0  0
   22.2076   72.3018   -1.8326 O   0  0  0  0  0  0  0  0  0  0  0  0
   23.1127   71.8762   -0.8306 C   0  0  0  0  0  0  0  0  0  0  0  0
   23.2484   70.5082    1.1412 O   0  0  0  0  0  0  0  0  0  0  0  0
   20.4444   69.6508    0.5133 O   0  0  0  0  0  0  0  0  0  0  0  0
   20.0751   71.5005    2.4827 O   0  0  0  0  0  0  0  0  0  0  0  0
   21.0606   70.9264    0.3353 C   0  0  1  0  0  0  0  0  0  0  0  0
   21.2245   71.6203    1.6709 C   0  0  2  0  0  0  0  0  0  0  0  0
   22.5062   70.6955   -0.0833 C   0  0  1  0  0  0  0  0  0  0  0  0
   22.4295   70.9019    2.2538 C   0  0  2  0  0  0  0  0  0  0  0  0
   19.5197   69.7726    0.7811 H   0  0  0  0  0  0  0  0  0  0  0  0
   19.3361   71.9745    2.0688 H   0  0  0  0  0  0  0  0  0  0  0  0
   23.4619   70.0867    4.7530 O   0  0  0  0  0  0  0  0  0  0  0  0
   25.3705   74.2122    5.5157 O   0  0  0  0  0  0  0  0  0  0  0  0
   23.1998   71.7428    3.1259 N   0  0  0  0  0  0  0  0  0  0  0  0
   24.4106   72.1425    5.1310 N   0  0  0  0  0  0  0  0  0  0  0  0
   23.6713   71.2359    4.3600 C   0  0  0  0  0  0  0  0  0  0  0  0
   23.4822   73.0520    2.7559 C   0  0  0  0  0  0  0  0  0  0  0  0
   24.1883   73.9043    3.5013 C   0  0  0  0  0  0  0  0  0  0  0  0
   24.7168   73.4540    4.8057 C   0  0  0  0  0  0  0  0  0  0  0  0
   24.7478   71.8131    5.9953 H   0  0  0  0  0  0  0  0  0  0  0  0
   21.4973   72.8481   -4.1998 O   0  0  0  0  0  0  0  0  0  0  0  0
   21.2691   73.4982   -5.6623 P   0  0  2  0  0  0  0  0  0  0  0  0
   22.5535   72.9814   -6.5012 O   0  0  0  0  0  0  0  0  0  0  0  0
   21.0957   74.9894   -5.6532 O   0  0  0  0  0  0  0  0  0  0  0  0
   20.0229   72.6830   -6.2827 O   0  0  0  0  0  0  0  0  0  0  0  0
   19.0182   70.6498   -5.6002 O   0  0  0  0  0  0  0  0  0  0  0  0
   18.5452   70.4862   -9.7011 O   0  0  0  0  0  0  0  0  0  0  0  0
   21.0557   71.4215   -8.5361 O   0  0  0  0  0  0  0  0  0  0  0  0
   16.2804   71.1286   -7.9955 O   0  0  0  0  0  0  0  0  0  0  0  0
   18.6510   71.1188   -8.4257 C   0  0  2  0  0  0  0  0  0  0  0  0
   20.0095   70.7934   -7.8042 C   0  0  2  0  0  0  0  0  0  0  0  0
   17.5203   70.5901   -7.5403 C   0  0  1  0  0  0  0  0  0  0  0  0
   20.0708   71.2589   -6.3488 C   0  0  1  0  0  0  0  0  0  0  0  0
   17.7205   70.9919   -6.0819 C   0  0  1  0  0  0  0  0  0  0  0  0
   19.2539   70.8067  -10.2810 H   0  0  0  0  0  0  0  0  0  0  0  0
   21.0225   71.1309   -9.4607 H   0  0  0  0  0  0  0  0  0  0  0  0
   16.1410   70.8802   -8.9227 H   0  0  0  0  0  0  0  0  0  0  0  0
   16.2780   69.1568   -5.8511 O   0  0  0  0  0  0  0  0  0  0  0  0
   16.5835   70.4768   -4.0171 O   0  0  0  0  0  0  0  0  0  0  0  0
   16.8139   70.2109   -5.1873 C   0  0  0  0  0  0  0  0  0  0  0  0
  1  4  1  0
  1 24  1  0
  1  2  1  6
  1  3  2  0
 25 28  1  0
 25 24  1  0
 25 26  1  6
 25 27  2  0
  6 11  1  0
  6 12  1  0
 29 36  1  0
 29 37  1  0
  9  7  1  1
  7 13  1  0
 10  8  1  1
  8 14  1  0
  4  5  1  0
 36 28  1  6
 33 30  1  6
 30 38  1  0
 34 31  1  6
 31 39  1  0
 35 32  1  6
 32 40  1  0
 41 43  1  0
 15 19  2  0
 42 43  2  0
 16 22  2  0
 12 17  1  1
 17 19  1  0
 17 20  1  0
 18 19  1  0
 18 22  1  0
 18 23  1  0
  9 10  1  0
  9 11  1  0
 10 12  1  0
 11  5  1  1
 33 34  1  0
 33 35  1  0
 34 36  1  0
 35 37  1  0
 37 43  1  1
 20 21  2  0
 21 22  1  0
M  CHG  3   2  -1  26  -1  41  -1
M  END
>  <COMPND>  (20) 
    udp_gluA.pdb 

>  <AUTHOR>  (20) 
    GENERATED BY OPEN BABEL 3.1.1

>  <MASTER>  (20) 
        0    0    0    0    0    0    0    0   56    0   56    0

>  <minimizedAffinity>  (20) 
-9.31724

>  <CNNscore>  (20) 
0.3833224177

>  <CNNaffinity>  (20) 
4.1773347855

>  <CNN_VS>  (20) 
1.6012660265

>  <CNNaffinity_variance>  (20) 
0.0923383161

$$$$
21
     RDKit          3D

 43 45  0  0  0  0  0  0  0  0999 V2000
   22.6160   72.5823   -3.1539 P   0  0  2  0  0  0  0  0  0  0  0  0
   22.8190   74.1012   -3.6739 O   0  0  0  0  0  0  0  0  0  0  0  0
   23.4392   71.5521   -3.8701 O   0  0  0  0  0  0  0  0  0  0  0  0
   21.0138   72.3637   -3.2089 O   0  0  0  0  0  0  0  0  0  0  0  0
   20.4798   71.1486   -2.7159 C   0  0  0  0  0  0  0  0  0  0  0  0
   18.4460   71.8402   -3.7943 O   0  0  0  0  0  0  0  0  0  0  0  0
   17.0122   70.2337   -1.7075 O   0  0  0  0  0  0  0  0  0  0  0  0
   16.9582   68.5792   -3.8744 O   0  0  0  0  0  0  0  0  0  0  0  0
   18.2555   69.9671   -2.3569 C   0  0  1  0  0  0  0  0  0  0  0  0
   18.0159   69.5103   -3.7804 C   0  0  2  0  0  0  0  0  0  0  0  0
   18.9712   71.2949   -2.5646 C   0  0  1  0  0  0  0  0  0  0  0  0
   17.7059   70.8205   -4.4841 C   0  0  2  0  0  0  0  0  0  0  0  0
   16.5367   69.4001   -1.5640 H   0  0  0  0  0  0  0  0  0  0  0  0
   17.2043   67.7625   -3.4114 H   0  0  0  0  0  0  0  0  0  0  0  0
   16.0501   69.9785   -6.6115 O   0  0  0  0  0  0  0  0  0  0  0  0
   19.3310   70.8171   -9.7383 O   0  0  0  0  0  0  0  0  0  0  0  0
   18.1021   70.8085   -5.8638 N   0  0  0  0  0  0  0  0  0  0  0  0
   17.6861   70.3960   -8.1667 N   0  0  0  0  0  0  0  0  0  0  0  0
   17.1943   70.3665   -6.8551 C   0  0  0  0  0  0  0  0  0  0  0  0
   19.3756   71.2326   -6.2235 C   0  0  0  0  0  0  0  0  0  0  0  0
   19.8300   71.2551   -7.4780 C   0  0  0  0  0  0  0  0  0  0  0  0
   18.9446   70.8085   -8.5734 C   0  0  0  0  0  0  0  0  0  0  0  0
   17.0729   70.0909   -8.8739 H   0  0  0  0  0  0  0  0  0  0  0  0
   22.9127   72.6985   -1.5692 O   0  0  0  0  0  0  0  0  0  0  0  0
   22.8204   73.9595   -0.5618 P   0  0  2  0  0  0  0  0  0  0  0  0
   21.2427   74.3217   -0.5662 O   0  0  0  0  0  0  0  0  0  0  0  0
   23.7191   75.1056   -0.9258 O   0  0  0  0  0  0  0  0  0  0  0  0
   23.0907   73.3353    0.9010 O   0  0  0  0  0  0  0  0  0  0  0  0
   21.6881   71.4331    1.0550 O   0  0  0  0  0  0  0  0  0  0  0  0
   23.7216   71.2711    4.6475 O   0  0  0  0  0  0  0  0  0  0  0  0
   22.7373   73.8212    3.6168 O   0  0  0  0  0  0  0  0  0  0  0  0
   24.4258   69.4556    2.4890 O   0  0  0  0  0  0  0  0  0  0  0  0
   23.5471   71.5620    3.2609 C   0  0  2  0  0  0  0  0  0  0  0  0
   22.3910   72.5471    3.0863 C   0  0  2  0  0  0  0  0  0  0  0  0
   23.2414   70.2489    2.5370 C   0  0  1  0  0  0  0  0  0  0  0  0
   22.0251   72.7051    1.6098 C   0  0  1  0  0  0  0  0  0  0  0  0
   22.7631   70.4979    1.1095 C   0  0  1  0  0  0  0  0  0  0  0  0
   23.9169   72.0910    5.1281 H   0  0  0  0  0  0  0  0  0  0  0  0
   22.9709   73.7283    4.5534 H   0  0  0  0  0  0  0  0  0  0  0  0
   24.7408   69.2900    3.3914 H   0  0  0  0  0  0  0  0  0  0  0  0
   20.8072   69.3116    0.5910 O   0  0  0  0  0  0  0  0  0  0  0  0
   22.7933   68.3270    0.0571 O   0  0  0  0  0  0  0  0  0  0  0  0
   22.1609   69.2603    0.5283 C   0  0  0  0  0  0  0  0  0  0  0  0
  1  4  1  0
  1 24  1  0
  1  2  1  6
  1  3  2  0
 25 28  1  0
 25 24  1  0
 25 26  1  1
 25 27  2  0
  6 11  1  0
  6 12  1  0
 29 36  1  0
 29 37  1  0
  9  7  1  6
  7 13  1  0
 10  8  1  1
  8 14  1  0
  4  5  1  0
 36 28  1  6
 33 30  1  1
 30 38  1  0
 34 31  1  6
 31 39  1  0
 35 32  1  6
 32 40  1  0
 41 43  1  0
 15 19  2  0
 42 43  2  0
 16 22  2  0
 12 17  1  6
 17 19  1  0
 17 20  1  0
 18 19  1  0
 18 22  1  0
 18 23  1  0
  9 10  1  0
  9 11  1  0
 10 12  1  0
 11  5  1  6
 33 34  1  0
 33 35  1  0
 34 36  1  0
 35 37  1  0
 37 43  1  1
 20 21  2  0
 21 22  1  0
M  CHG  3   2  -1  26  -1  41  -1
M  END
>  <COMPND>  (21) 
    udp_gluA.pdb 

>  <AUTHOR>  (21) 
    GENERATED BY OPEN BABEL 3.1.1

>  <MASTER>  (21) 
        0    0    0    0    0    0    0    0   56    0   56    0

>  <minimizedAffinity>  (21) 
-8.78967

>  <CNNscore>  (21) 
0.8536115885

>  <CNNaffinity>  (21) 
4.9492959976

>  <CNN_VS>  (21) 
4.2247762680

>  <CNNaffinity_variance>  (21) 
0.0759010389

$$$$
22
     RDKit          3D

 43 45  0  0  0  0  0  0  0  0999 V2000
   22.1709   69.6411    0.0671 P   0  0  2  0  0  0  0  0  0  0  0  0
   20.5792   69.6036    0.3569 O   0  0  0  0  0  0  0  0  0  0  0  0
   22.8052   68.3004   -0.1610 O   0  0  0  0  0  0  0  0  0  0  0  0
   22.7700   70.5012    1.2997 O   0  0  0  0  0  0  0  0  0  0  0  0
   23.6251   69.8535    2.2237 C   0  0  0  0  0  0  0  0  0  0  0  0
   24.6731   70.3925    4.3186 O   0  0  0  0  0  0  0  0  0  0  0  0
   22.3783   72.2687    4.7713 O   0  0  0  0  0  0  0  0  0  0  0  0
   24.3701   73.9473    3.9647 O   0  0  0  0  0  0  0  0  0  0  0  0
   23.0539   71.9441    3.5561 C   0  0  1  0  0  0  0  0  0  0  0  0
   24.4142   72.6078    3.5194 C   0  0  2  0  0  0  0  0  0  0  0  0
   23.4212   70.4672    3.6028 C   0  0  1  0  0  0  0  0  0  0  0  0
   25.2270   71.7124    4.4389 C   0  0  2  0  0  0  0  0  0  0  0  0
   22.1336   73.2077    4.7647 H   0  0  0  0  0  0  0  0  0  0  0  0
   23.8417   74.4765    3.3460 H   0  0  0  0  0  0  0  0  0  0  0  0
   27.1634   73.5658    5.3288 O   0  0  0  0  0  0  0  0  0  0  0  0
   30.5249   71.4562    2.9849 O   0  0  0  0  0  0  0  0  0  0  0  0
   26.6155   71.6709    4.0766 N   0  0  0  0  0  0  0  0  0  0  0  0
   28.8355   72.5139    4.1598 N   0  0  0  0  0  0  0  0  0  0  0  0
   27.5054   72.6500    4.5783 C   0  0  0  0  0  0  0  0  0  0  0  0
   27.0832   70.6686    3.2355 C   0  0  0  0  0  0  0  0  0  0  0  0
   28.3540   70.5518    2.8454 C   0  0  0  0  0  0  0  0  0  0  0  0
   29.3480   71.5349    3.3240 C   0  0  0  0  0  0  0  0  0  0  0  0
   29.4734   73.1851    4.4944 H   0  0  0  0  0  0  0  0  0  0  0  0
   22.2888   70.6626   -1.1800 O   0  0  0  0  0  0  0  0  0  0  0  0
   21.7614   72.1799   -1.3628 P   0  0  2  0  0  0  0  0  0  0  0  0
   22.9167   73.0614   -0.6497 O   0  0  0  0  0  0  0  0  0  0  0  0
   20.3801   72.4206   -0.8261 O   0  0  0  0  0  0  0  0  0  0  0  0
   21.9303   72.4850   -2.9378 O   0  0  0  0  0  0  0  0  0  0  0  0
   22.3877   74.5168   -4.0656 O   0  0  0  0  0  0  0  0  0  0  0  0
   19.9888   72.5590   -6.8005 O   0  0  0  0  0  0  0  0  0  0  0  0
   19.3407   72.4996   -3.9526 O   0  0  0  0  0  0  0  0  0  0  0  0
   22.8590   72.7235   -7.2316 O   0  0  0  0  0  0  0  0  0  0  0  0
   20.9557   72.6643   -5.7555 C   0  0  2  0  0  0  0  0  0  0  0  0
   20.3238   73.3437   -4.5403 C   0  0  2  0  0  0  0  0  0  0  0  0
   22.1294   73.4950   -6.2793 C   0  0  1  0  0  0  0  0  0  0  0  0
   21.3829   73.6810   -3.4899 C   0  0  1  0  0  0  0  0  0  0  0  0
   23.0745   73.8974   -5.1508 C   0  0  1  0  0  0  0  0  0  0  0  0
   19.2333   72.0350   -6.4906 H   0  0  0  0  0  0  0  0  0  0  0  0
   18.6656   72.2813   -4.6136 H   0  0  0  0  0  0  0  0  0  0  0  0
   22.2688   72.4608   -7.9552 H   0  0  0  0  0  0  0  0  0  0  0  0
   24.3775   75.7575   -4.5644 O   0  0  0  0  0  0  0  0  0  0  0  0
   24.4163   75.1076   -6.7497 O   0  0  0  0  0  0  0  0  0  0  0  0
   24.0175   74.9641   -5.6036 C   0  0  0  0  0  0  0  0  0  0  0  0
  1  4  1  0
  1 24  1  0
  1  2  1  1
  1  3  2  0
 25 28  1  0
 25 24  1  0
 25 26  1  1
 25 27  2  0
  6 11  1  0
  6 12  1  0
 29 36  1  0
 29 37  1  0
  9  7  1  1
  7 13  1  0
 10  8  1  1
  8 14  1  0
  4  5  1  0
 36 28  1  6
 33 30  1  6
 30 38  1  0
 34 31  1  1
 31 39  1  0
 35 32  1  6
 32 40  1  0
 41 43  1  0
 15 19  2  0
 42 43  2  0
 16 22  2  0
 12 17  1  6
 17 19  1  0
 17 20  1  0
 18 19  1  0
 18 22  1  0
 18 23  1  0
  9 10  1  0
  9 11  1  0
 10 12  1  0
 11  5  1  6
 33 34  1  0
 33 35  1  0
 34 36  1  0
 35 37  1  0
 37 43  1  6
 20 21  2  0
 21 22  1  0
M  CHG  3   2  -1  26  -1  41  -1
M  END
>  <COMPND>  (22) 
    udp_gluA.pdb 

>  <AUTHOR>  (22) 
    GENERATED BY OPEN BABEL 3.1.1

>  <MASTER>  (22) 
        0    0    0    0    0    0    0    0   56    0   56    0

>  <minimizedAffinity>  (22) 
-7.87715

>  <CNNscore>  (22) 
0.8123295903

>  <CNNaffinity>  (22) 
4.5526018143

>  <CNN_VS>  (22) 
3.6982131004

>  <CNNaffinity_variance>  (22) 
0.1348565519

$$$$
23
     RDKit          3D

 43 45  0  0  0  0  0  0  0  0999 V2000
   21.4071   70.5792    0.0855 P   0  0  2  0  0  0  0  0  0  0  0  0
   20.3085   71.7579   -0.0644 O   0  0  0  0  0  0  0  0  0  0  0  0
   20.8618   69.2598    0.5477 O   0  0  0  0  0  0  0  0  0  0  0  0
   22.5529   71.2329    1.0224 O   0  0  0  0  0  0  0  0  0  0  0  0
   23.3539   70.3721    1.8111 C   0  0  0  0  0  0  0  0  0  0  0  0
   24.3812   70.4175    3.9837 O   0  0  0  0  0  0  0  0  0  0  0  0
   22.2070   72.3282    4.7668 O   0  0  0  0  0  0  0  0  0  0  0  0
   24.3276   73.9857    4.3290 O   0  0  0  0  0  0  0  0  0  0  0  0
   22.8905   72.1990    3.5200 C   0  0  1  0  0  0  0  0  0  0  0  0
   24.2929   72.7587    3.6306 C   0  0  2  0  0  0  0  0  0  0  0  0
   23.1561   70.7189    3.2811 C   0  0  1  0  0  0  0  0  0  0  0  0
   25.0194   71.6460    4.3669 C   0  0  2  0  0  0  0  0  0  0  0  0
   22.0263   73.2656    4.9412 H   0  0  0  0  0  0  0  0  0  0  0  0
   23.8522   74.6613    3.8194 H   0  0  0  0  0  0  0  0  0  0  0  0
   27.0494   73.1655    5.6105 O   0  0  0  0  0  0  0  0  0  0  0  0
   30.3241   71.3004    2.9568 O   0  0  0  0  0  0  0  0  0  0  0  0
   26.4109   71.5772    4.0206 N   0  0  0  0  0  0  0  0  0  0  0  0
   28.6783   72.2359    4.2869 N   0  0  0  0  0  0  0  0  0  0  0  0
   27.3498   72.3831    4.7069 C   0  0  0  0  0  0  0  0  0  0  0  0
   26.8332   70.7181    3.0133 C   0  0  0  0  0  0  0  0  0  0  0  0
   28.1031   70.5886    2.6242 C   0  0  0  0  0  0  0  0  0  0  0  0
   29.1467   71.3956    3.2899 C   0  0  0  0  0  0  0  0  0  0  0  0
   29.3499   72.7882    4.7487 H   0  0  0  0  0  0  0  0  0  0  0  0
   22.1049   70.5460   -1.3722 O   0  0  0  0  0  0  0  0  0  0  0  0
   22.4102   71.7298   -2.4300 P   0  0  2  0  0  0  0  0  0  0  0  0
   23.4769   71.0545   -3.4431 O   0  0  0  0  0  0  0  0  0  0  0  0
   22.8786   73.0107   -1.8025 O   0  0  0  0  0  0  0  0  0  0  0  0
   21.0555   71.8646   -3.2956 O   0  0  0  0  0  0  0  0  0  0  0  0
   19.7291   70.0065   -3.9260 O   0  0  0  0  0  0  0  0  0  0  0  0
   18.6180   72.8244   -6.7354 O   0  0  0  0  0  0  0  0  0  0  0  0
   21.4217   72.5177   -5.9743 O   0  0  0  0  0  0  0  0  0  0  0  0
   16.8430   72.1923   -4.5217 O   0  0  0  0  0  0  0  0  0  0  0  0
   19.0563   72.3594   -5.4589 C   0  0  2  0  0  0  0  0  0  0  0  0
   20.3828   71.6150   -5.6132 C   0  0  2  0  0  0  0  0  0  0  0  0
   17.9818   71.4225   -4.9024 C   0  0  1  0  0  0  0  0  0  0  0  0
   20.7675   70.9073   -4.3132 C   0  0  1  0  0  0  0  0  0  0  0  0
   18.4860   70.6602   -3.6803 C   0  0  1  0  0  0  0  0  0  0  0  0
   19.2852   73.4217   -7.1087 H   0  0  0  0  0  0  0  0  0  0  0  0
   21.1842   72.9705   -6.7983 H   0  0  0  0  0  0  0  0  0  0  0  0
   16.5124   72.6825   -5.2905 H   0  0  0  0  0  0  0  0  0  0  0  0
   17.7818   69.0986   -2.0782 O   0  0  0  0  0  0  0  0  0  0  0  0
   16.7426   69.0478   -4.1071 O   0  0  0  0  0  0  0  0  0  0  0  0
   17.5711   69.5269   -3.3474 C   0  0  0  0  0  0  0  0  0  0  0  0
  1  4  1  0
  1 24  1  0
  1  2  1  6
  1  3  2  0
 25 28  1  0
 25 24  1  0
 25 26  1  6
 25 27  2  0
  6 11  1  0
  6 12  1  0
 29 36  1  0
 29 37  1  0
  9  7  1  1
  7 13  1  0
 10  8  1  1
  8 14  1  0
  4  5  1  0
 36 28  1  1
 33 30  1  6
 30 38  1  0
 34 31  1  1
 31 39  1  0
 35 32  1  1
 32 40  1  0
 41 43  1  0
 15 19  2  0
 42 43  2  0
 16 22  2  0
 12 17  1  6
 17 19  1  0
 17 20  1  0
 18 19  1  0
 18 22  1  0
 18 23  1  0
  9 10  1  0
  9 11  1  0
 10 12  1  0
 11  5  1  6
 33 34  1  0
 33 35  1  0
 34 36  1  0
 35 37  1  0
 37 43  1  6
 20 21  2  0
 21 22  1  0
M  CHG  3   2  -1  26  -1  41  -1
M  END
>  <COMPND>  (23) 
    udp_gluA.pdb 

>  <AUTHOR>  (23) 
    GENERATED BY OPEN BABEL 3.1.1

>  <MASTER>  (23) 
        0    0    0    0    0    0    0    0   56    0   56    0

>  <minimizedAffinity>  (23) 
-9.14502

>  <CNNscore>  (23) 
0.7374894619

>  <CNNaffinity>  (23) 
4.9235868454

>  <CNN_VS>  (23) 
3.6310935020

>  <CNNaffinity_variance>  (23) 
0.3148722053

$$$$
24
     RDKit          3D

 43 45  0  0  0  0  0  0  0  0999 V2000
   20.6447   70.8879    0.5696 P   0  0  2  0  0  0  0  0  0  0  0  0
   19.5940   71.5544    1.6044 O   0  0  0  0  0  0  0  0  0  0  0  0
   20.7467   69.3927    0.6455 O   0  0  0  0  0  0  0  0  0  0  0  0
   22.0188   71.7002    0.8341 O   0  0  0  0  0  0  0  0  0  0  0  0
   23.0823   71.0344    1.4899 C   0  0  0  0  0  0  0  0  0  0  0  0
   24.0444   70.5983    3.6491 O   0  0  0  0  0  0  0  0  0  0  0  0
   21.9880   72.4880    4.7407 O   0  0  0  0  0  0  0  0  0  0  0  0
   24.2327   74.0341    4.6561 O   0  0  0  0  0  0  0  0  0  0  0  0
   22.6979   72.5416    3.5031 C   0  0  1  0  0  0  0  0  0  0  0  0
   24.1324   72.9642    3.7396 C   0  0  2  0  0  0  0  0  0  0  0  0
   22.8654   71.1160    2.9955 C   0  0  1  0  0  0  0  0  0  0  0  0
   24.7560   71.6829    4.2661 C   0  0  2  0  0  0  0  0  0  0  0  0
   21.8689   73.3875    5.0847 H   0  0  0  0  0  0  0  0  0  0  0  0
   23.8218   74.8263    4.2745 H   0  0  0  0  0  0  0  0  0  0  0  0
   26.8399   72.9128    5.7225 O   0  0  0  0  0  0  0  0  0  0  0  0
   30.0635   71.2018    2.9075 O   0  0  0  0  0  0  0  0  0  0  0  0
   26.1489   71.5753    3.9359 N   0  0  0  0  0  0  0  0  0  0  0  0
   28.4434   72.0603    4.3185 N   0  0  0  0  0  0  0  0  0  0  0  0
   27.1160   72.2326    4.7326 C   0  0  0  0  0  0  0  0  0  0  0  0
   26.5448   70.8248    2.8355 C   0  0  0  0  0  0  0  0  0  0  0  0
   27.8139   70.6697    2.4533 C   0  0  0  0  0  0  0  0  0  0  0  0
   28.8861   71.3243    3.2313 C   0  0  0  0  0  0  0  0  0  0  0  0
   29.1344   72.5101    4.8564 H   0  0  0  0  0  0  0  0  0  0  0  0
   20.1555   71.4577   -0.8617 O   0  0  0  0  0  0  0  0  0  0  0  0
   20.9010   71.5076   -2.2954 P   0  0  2  0  0  0  0  0  0  0  0  0
   21.7418   70.1246   -2.3233 O   0  0  0  0  0  0  0  0  0  0  0  0
   21.7300   72.7398   -2.5158 O   0  0  0  0  0  0  0  0  0  0  0  0
   19.7238   71.2904   -3.3767 O   0  0  0  0  0  0  0  0  0  0  0  0
   19.0156   69.2184   -4.2792 O   0  0  0  0  0  0  0  0  0  0  0  0
   17.9844   71.8457   -7.2961 O   0  0  0  0  0  0  0  0  0  0  0  0
   20.5383   72.1179   -5.9041 O   0  0  0  0  0  0  0  0  0  0  0  0
   15.9344   70.7549   -5.5471 O   0  0  0  0  0  0  0  0  0  0  0  0
   18.2113   71.4331   -5.9484 C   0  0  2  0  0  0  0  0  0  0  0  0
   19.6680   70.9986   -5.7845 C   0  0  2  0  0  0  0  0  0  0  0  0
   17.2702   70.2647   -5.6467 C   0  0  1  0  0  0  0  0  0  0  0  0
   19.8918   70.3368   -4.4242 C   0  0  1  0  0  0  0  0  0  0  0  0
   17.6371   69.5785   -4.3340 C   0  0  1  0  0  0  0  0  0  0  0  0
   18.5716   72.5875   -7.5105 H   0  0  0  0  0  0  0  0  0  0  0  0
   20.4015   72.5429   -6.7649 H   0  0  0  0  0  0  0  0  0  0  0  0
   15.6885   71.1942   -6.3762 H   0  0  0  0  0  0  0  0  0  0  0  0
   17.5940   67.4554   -3.3380 O   0  0  0  0  0  0  0  0  0  0  0  0
   15.9229   67.9484   -4.8089 O   0  0  0  0  0  0  0  0  0  0  0  0
   16.9413   68.2621   -4.2110 C   0  0  0  0  0  0  0  0  0  0  0  0
  1  4  1  0
  1 24  1  0
  1  2  1  1
  1  3  2  0
 25 28  1  0
 25 24  1  0
 25 26  1  1
 25 27  2  0
  6 11  1  0
  6 12  1  0
 29 36  1  0
 29 37  1  0
  9  7  1  1
  7 13  1  0
 10  8  1  1
  8 14  1  0
  4  5  1  0
 36 28  1  1
 33 30  1  6
 30 38  1  0
 34 31  1  1
 31 39  1  0
 35 32  1  1
 32 40  1  0
 41 43  1  0
 15 19  2  0
 42 43  2  0
 16 22  2  0
 12 17  1  6
 17 19  1  0
 17 20  1  0
 18 19  1  0
 18 22  1  0
 18 23  1  0
  9 10  1  0
  9 11  1  0
 10 12  1  0
 11  5  1  6
 33 34  1  0
 33 35  1  0
 34 36  1  0
 35 37  1  0
 37 43  1  6
 20 21  2  0
 21 22  1  0
M  CHG  3   2  -1  26  -1  41  -1
M  END
>  <COMPND>  (24) 
    udp_gluA.pdb 

>  <AUTHOR>  (24) 
    GENERATED BY OPEN BABEL 3.1.1

>  <MASTER>  (24) 
        0    0    0    0    0    0    0    0   56    0   56    0

>  <minimizedAffinity>  (24) 
-8.93189

>  <CNNscore>  (24) 
0.6473684907

>  <CNNaffinity>  (24) 
4.6092500687

>  <CNN_VS>  (24) 
2.9838831425

>  <CNNaffinity_variance>  (24) 
0.1379773915

$$$$
25
     RDKit          3D

 43 45  0  0  0  0  0  0  0  0999 V2000
   22.2119   69.5632   -0.3603 P   0  0  2  0  0  0  0  0  0  0  0  0
   21.0767   69.1351    0.7107 O   0  0  0  0  0  0  0  0  0  0  0  0
   23.0395   68.4305   -0.8932 O   0  0  0  0  0  0  0  0  0  0  0  0
   23.0311   70.7390    0.3909 O   0  0  0  0  0  0  0  0  0  0  0  0
   24.1770   70.3892    1.1452 C   0  0  0  0  0  0  0  0  0  0  0  0
   25.0205   70.1291    3.3810 O   0  0  0  0  0  0  0  0  0  0  0  0
   22.5564   71.5820    4.2803 O   0  0  0  0  0  0  0  0  0  0  0  0
   24.4629   73.5297    4.3703 O   0  0  0  0  0  0  0  0  0  0  0  0
   23.3441   71.7798    3.1060 C   0  0  1  0  0  0  0  0  0  0  0  0
   24.6463   72.4674    3.4580 C   0  0  2  0  0  0  0  0  0  0  0  0
   23.8231   70.4164    2.6266 C   0  0  1  0  0  0  0  0  0  0  0  0
   25.4572   71.3251    4.0459 C   0  0  2  0  0  0  0  0  0  0  0  0
   22.2390   72.4395    4.6054 H   0  0  0  0  0  0  0  0  0  0  0  0
   23.9414   74.2314    3.9488 H   0  0  0  0  0  0  0  0  0  0  0  0
   27.0792   73.1586    5.4545 O   0  0  0  0  0  0  0  0  0  0  0  0
   30.8565   71.8666    3.1508 O   0  0  0  0  0  0  0  0  0  0  0  0
   26.8676   71.4886    3.8343 N   0  0  0  0  0  0  0  0  0  0  0  0
   28.9588   72.5141    4.3050 N   0  0  0  0  0  0  0  0  0  0  0  0
   27.5901   72.4382    4.5948 C   0  0  0  0  0  0  0  0  0  0  0  0
   27.5209   70.7130    2.8842 C   0  0  0  0  0  0  0  0  0  0  0  0
   28.8261   70.7966    2.6193 C   0  0  0  0  0  0  0  0  0  0  0  0
   29.6531   71.7646    3.3692 C   0  0  0  0  0  0  0  0  0  0  0  0
   29.4824   73.1695    4.8204 H   0  0  0  0  0  0  0  0  0  0  0  0
   21.3688   70.3666   -1.4812 O   0  0  0  0  0  0  0  0  0  0  0  0
   20.2115   71.4864   -1.3387 P   0  0  2  0  0  0  0  0  0  0  0  0
   20.9832   72.8635   -1.6971 O   0  0  0  0  0  0  0  0  0  0  0  0
   19.5219   71.4930   -0.0051 O   0  0  0  0  0  0  0  0  0  0  0  0
   19.2347   71.2279   -2.5963 O   0  0  0  0  0  0  0  0  0  0  0  0
   18.8815   69.2294   -3.8171 O   0  0  0  0  0  0  0  0  0  0  0  0
   18.2276   72.1074   -6.7081 O   0  0  0  0  0  0  0  0  0  0  0  0
   20.4417   72.3795   -4.8218 O   0  0  0  0  0  0  0  0  0  0  0  0
   15.9803   70.7054   -5.5103 O   0  0  0  0  0  0  0  0  0  0  0  0
   18.2288   71.5624   -5.3887 C   0  0  2  0  0  0  0  0  0  0  0  0
   19.6588   71.2026   -4.9849 C   0  0  2  0  0  0  0  0  0  0  0  0
   17.3463   70.3121   -5.3926 C   0  0  1  0  0  0  0  0  0  0  0  0
   19.6749   70.4087   -3.6778 C   0  0  1  0  0  0  0  0  0  0  0  0
   17.5134   69.5082   -4.1064 C   0  0  1  0  0  0  0  0  0  0  0  0
   18.7822   72.9031   -6.7300 H   0  0  0  0  0  0  0  0  0  0  0  0
   20.4357   72.8883   -5.6474 H   0  0  0  0  0  0  0  0  0  0  0  0
   15.8604   71.2181   -6.3249 H   0  0  0  0  0  0  0  0  0  0  0  0
   17.6173   67.2375   -3.5280 O   0  0  0  0  0  0  0  0  0  0  0  0
   15.9323   67.8792   -4.9237 O   0  0  0  0  0  0  0  0  0  0  0  0
   16.9168   68.1461   -4.2510 C   0  0  0  0  0  0  0  0  0  0  0  0
  1  4  1  0
  1 24  1  0
  1  2  1  1
  1  3  2  0
 25 28  1  0
 25 24  1  0
 25 26  1  6
 25 27  2  0
  6 11  1  0
  6 12  1  0
 29 36  1  0
 29 37  1  0
  9  7  1  1
  7 13  1  0
 10  8  1  1
  8 14  1  0
  4  5  1  0
 36 28  1  1
 33 30  1  6
 30 38  1  0
 34 31  1  1
 31 39  1  0
 35 32  1  1
 32 40  1  0
 41 43  1  0
 15 19  2  0
 42 43  2  0
 16 22  2  0
 12 17  1  6
 17 19  1  0
 17 20  1  0
 18 19  1  0
 18 22  1  0
 18 23  1  0
  9 10  1  0
  9 11  1  0
 10 12  1  0
 11  5  1  6
 33 34  1  0
 33 35  1  0
 34 36  1  0
 35 37  1  0
 37 43  1  6
 20 21  2  0
 21 22  1  0
M  CHG  3   2  -1  26  -1  41  -1
M  END
>  <COMPND>  (25) 
    udp_gluA.pdb 

>  <AUTHOR>  (25) 
    GENERATED BY OPEN BABEL 3.1.1

>  <MASTER>  (25) 
        0    0    0    0    0    0    0    0   56    0   56    0

>  <minimizedAffinity>  (25) 
-9.26732

>  <CNNscore>  (25) 
0.6327397227

>  <CNNaffinity>  (25) 
4.6593699455

>  <CNN_VS>  (25) 
2.9481685162

>  <CNNaffinity_variance>  (25) 
0.0199380182

$$$$
26
     RDKit          3D

 43 45  0  0  0  0  0  0  0  0999 V2000
   22.3896   71.4535   -3.0981 P   0  0  2  0  0  0  0  0  0  0  0  0
   22.5892   72.0971   -1.6268 O   0  0  0  0  0  0  0  0  0  0  0  0
   23.3282   71.9708   -4.1485 O   0  0  0  0  0  0  0  0  0  0  0  0
   20.8136   71.6586   -3.4015 O   0  0  0  0  0  0  0  0  0  0  0  0
   19.9062   70.6623   -2.9674 C   0  0  0  0  0  0  0  0  0  0  0  0
   18.3070   71.8577   -4.3058 O   0  0  0  0  0  0  0  0  0  0  0  0
   16.2182   70.7661   -2.4520 O   0  0  0  0  0  0  0  0  0  0  0  0
   15.9999   69.1319   -4.6240 O   0  0  0  0  0  0  0  0  0  0  0  0
   17.4146   70.1496   -2.9285 C   0  0  1  0  0  0  0  0  0  0  0  0
   17.2513   69.7378   -4.3762 C   0  0  2  0  0  0  0  0  0  0  0  0
   18.4908   71.2226   -3.0219 C   0  0  1  0  0  0  0  0  0  0  0  0
   17.4132   71.0629   -5.1013 C   0  0  2  0  0  0  0  0  0  0  0  0
   15.5158   70.0999   -2.3839 H   0  0  0  0  0  0  0  0  0  0  0  0
   15.9460   68.2919   -4.1407 H   0  0  0  0  0  0  0  0  0  0  0  0
   15.9281   70.3301   -7.3890 O   0  0  0  0  0  0  0  0  0  0  0  0
   19.6619   70.4848  -10.0869 O   0  0  0  0  0  0  0  0  0  0  0  0
   17.9721   70.9045   -6.4141 N   0  0  0  0  0  0  0  0  0  0  0  0
   17.7893   70.4068   -8.7304 N   0  0  0  0  0  0  0  0  0  0  0  0
   17.1389   70.5335   -7.4958 C   0  0  0  0  0  0  0  0  0  0  0  0
   19.3297   71.1175   -6.6203 C   0  0  0  0  0  0  0  0  0  0  0  0
   19.9353   70.9930   -7.8029 C   0  0  0  0  0  0  0  0  0  0  0  0
   19.1364   70.6075   -8.9846 C   0  0  0  0  0  0  0  0  0  0  0  0
   17.2303   70.1473   -9.4981 H   0  0  0  0  0  0  0  0  0  0  0  0
   22.5020   69.8655   -2.8178 O   0  0  0  0  0  0  0  0  0  0  0  0
   23.5422   69.0178   -1.9162 P   0  0  2  0  0  0  0  0  0  0  0  0
   24.9832   69.4302   -2.5276 O   0  0  0  0  0  0  0  0  0  0  0  0
   23.2786   67.5399   -1.8973 O   0  0  0  0  0  0  0  0  0  0  0  0
   23.4977   69.7244   -0.4666 O   0  0  0  0  0  0  0  0  0  0  0  0
   23.7031   69.0044    1.7803 O   0  0  0  0  0  0  0  0  0  0  0  0
   20.5745   71.6900    2.0407 O   0  0  0  0  0  0  0  0  0  0  0  0
   20.7314   69.8111   -0.1908 O   0  0  0  0  0  0  0  0  0  0  0  0
   23.2201   72.4354    2.9873 O   0  0  0  0  0  0  0  0  0  0  0  0
   21.7944   71.1562    1.5258 C   0  0  2  0  0  0  0  0  0  0  0  0
   21.5461   69.7521    0.9743 C   0  0  2  0  0  0  0  0  0  0  0  0
   22.8092   71.1069    2.6702 C   0  0  1  0  0  0  0  0  0  0  0  0
   22.8646   69.0602    0.6255 C   0  0  1  0  0  0  0  0  0  0  0  0
   24.0421   70.2934    2.2867 C   0  0  1  0  0  0  0  0  0  0  0  0
   19.9142   71.7308    1.3311 H   0  0  0  0  0  0  0  0  0  0  0  0
   19.8931   70.2491    0.0232 H   0  0  0  0  0  0  0  0  0  0  0  0
   22.4447   72.9638    3.2329 H   0  0  0  0  0  0  0  0  0  0  0  0
   24.8599   68.6402    3.7357 O   0  0  0  0  0  0  0  0  0  0  0  0
   25.4612   70.7959    4.1722 O   0  0  0  0  0  0  0  0  0  0  0  0
   24.8634   69.9745    3.4933 C   0  0  0  0  0  0  0  0  0  0  0  0
  1  4  1  0
  1 24  1  0
  1  2  1  1
  1  3  2  0
 25 28  1  0
 25 24  1  0
 25 26  1  6
 25 27  2  0
  6 11  1  0
  6 12  1  0
 29 36  1  0
 29 37  1  0
  9  7  1  6
  7 13  1  0
 10  8  1  1
  8 14  1  0
  4  5  1  0
 36 28  1  6
 33 30  1  1
 30 38  1  0
 34 31  1  6
 31 39  1  0
 35 32  1  6
 32 40  1  0
 41 43  1  0
 15 19  2  0
 42 43  2  0
 16 22  2  0
 12 17  1  6
 17 19  1  0
 17 20  1  0
 18 19  1  0
 18 22  1  0
 18 23  1  0
  9 10  1  0
  9 11  1  0
 10 12  1  0
 11  5  1  6
 33 34  1  0
 33 35  1  0
 34 36  1  0
 35 37  1  0
 37 43  1  1
 20 21  2  0
 21 22  1  0
M  CHG  3   2  -1  26  -1  41  -1
M  END
>  <COMPND>  (26) 
    udp_gluA.pdb 

>  <AUTHOR>  (26) 
    GENERATED BY OPEN BABEL 3.1.1

>  <MASTER>  (26) 
        0    0    0    0    0    0    0    0   56    0   56    0

>  <minimizedAffinity>  (26) 
-9.26774

>  <CNNscore>  (26) 
0.6312373877

>  <CNNaffinity>  (26) 
4.6388235092

>  <CNN_VS>  (26) 
2.9281988144

>  <CNNaffinity_variance>  (26) 
0.0719879717

$$$$
27
     RDKit          3D

 43 45  0  0  0  0  0  0  0  0999 V2000
   22.6498   69.8979    0.2070 P   0  0  2  0  0  0  0  0  0  0  0  0
   23.3751   68.5463   -0.3088 O   0  0  0  0  0  0  0  0  0  0  0  0
   23.2940   71.1752   -0.2462 O   0  0  0  0  0  0  0  0  0  0  0  0
   22.5428   69.6946    1.8086 O   0  0  0  0  0  0  0  0  0  0  0  0
   23.7213   69.8092    2.5848 C   0  0  0  0  0  0  0  0  0  0  0  0
   24.6331   70.7578    4.5964 O   0  0  0  0  0  0  0  0  0  0  0  0
   22.1546   72.4422    4.7041 O   0  0  0  0  0  0  0  0  0  0  0  0
   24.0069   74.1714    3.6966 O   0  0  0  0  0  0  0  0  0  0  0  0
   22.9037   72.0083    3.5687 C   0  0  1  0  0  0  0  0  0  0  0  0
   24.1951   72.7914    3.4624 C   0  0  2  0  0  0  0  0  0  0  0  0
   23.4078   70.5992    3.8489 C   0  0  1  0  0  0  0  0  0  0  0  0
   25.0539   72.1294    4.5264 C   0  0  2  0  0  0  0  0  0  0  0  0
   21.8221   73.3405    4.5485 H   0  0  0  0  0  0  0  0  0  0  0  0
   23.4544   74.5465    2.9924 H   0  0  0  0  0  0  0  0  0  0  0  0
   26.7973   74.2201    5.2786 O   0  0  0  0  0  0  0  0  0  0  0  0
   30.4021   72.1913    3.2454 O   0  0  0  0  0  0  0  0  0  0  0  0
   26.4528   72.1729    4.2068 N   0  0  0  0  0  0  0  0  0  0  0  0
   28.5908   73.2081    4.2644 N   0  0  0  0  0  0  0  0  0  0  0  0
   27.2402   73.2689    4.6320 C   0  0  0  0  0  0  0  0  0  0  0  0
   27.0311   71.1380    3.4821 C   0  0  0  0  0  0  0  0  0  0  0  0
   28.3201   71.0940    3.1392 C   0  0  0  0  0  0  0  0  0  0  0  0
   29.2116   72.2007    3.5438 C   0  0  0  0  0  0  0  0  0  0  0  0
   29.1586   73.9610    4.5474 H   0  0  0  0  0  0  0  0  0  0  0  0
   21.1232   69.7016   -0.2870 O   0  0  0  0  0  0  0  0  0  0  0  0
   20.0440   70.7664   -0.8483 P   0  0  2  0  0  0  0  0  0  0  0  0
   20.0540   71.9309    0.2761 O   0  0  0  0  0  0  0  0  0  0  0  0
   18.6881   70.1828   -1.1222 O   0  0  0  0  0  0  0  0  0  0  0  0
   20.7573   71.4340   -2.1321 O   0  0  0  0  0  0  0  0  0  0  0  0
   20.1597   70.3026   -4.1251 O   0  0  0  0  0  0  0  0  0  0  0  0
   22.9503   73.0188   -5.5047 O   0  0  0  0  0  0  0  0  0  0  0  0
   23.3954   71.5807   -3.0010 O   0  0  0  0  0  0  0  0  0  0  0  0
   20.1178   73.4676   -5.9807 O   0  0  0  0  0  0  0  0  0  0  0  0
   21.9053   72.5404   -4.6578 C   0  0  2  0  0  0  0  0  0  0  0  0
   22.3694   71.2739   -3.9380 C   0  0  2  0  0  0  0  0  0  0  0  0
   20.6874   72.2386   -5.5339 C   0  0  1  0  0  0  0  0  0  0  0  0
   21.2070   70.6054   -3.2026 C   0  0  1  0  0  0  0  0  0  0  0  0
   19.6252   71.4607   -4.7625 C   0  0  1  0  0  0  0  0  0  0  0  0
   23.7350   73.2172   -4.9697 H   0  0  0  0  0  0  0  0  0  0  0  0
   24.1361   72.0054   -3.4608 H   0  0  0  0  0  0  0  0  0  0  0  0
   20.7837   73.9726   -6.4731 H   0  0  0  0  0  0  0  0  0  0  0  0
   17.6768   70.1781   -5.0075 O   0  0  0  0  0  0  0  0  0  0  0  0
   18.5985   71.0426   -6.9055 O   0  0  0  0  0  0  0  0  0  0  0  0
   18.6048   70.8906   -5.6931 C   0  0  0  0  0  0  0  0  0  0  0  0
  1  4  1  0
  1 24  1  0
  1  2  1  6
  1  3  2  0
 25 28  1  0
 25 24  1  0
 25 26  1  1
 25 27  2  0
  6 11  1  0
  6 12  1  0
 29 36  1  0
 29 37  1  0
  9  7  1  1
  7 13  1  0
 10  8  1  1
  8 14  1  0
  4  5  1  0
 36 28  1  1
 33 30  1  6
 30 38  1  0
 34 31  1  1
 31 39  1  0
 35 32  1  1
 32 40  1  0
 41 43  1  0
 15 19  2  0
 42 43  2  0
 16 22  2  0
 12 17  1  6
 17 19  1  0
 17 20  1  0
 18 19  1  0
 18 22  1  0
 18 23  1  0
  9 10  1  0
  9 11  1  0
 10 12  1  0
 11  5  1  6
 33 34  1  0
 33 35  1  0
 34 36  1  0
 35 37  1  0
 37 43  1  6
 20 21  2  0
 21 22  1  0
M  CHG  3   2  -1  26  -1  41  -1
M  END
>  <COMPND>  (27) 
    udp_gluA.pdb 

>  <AUTHOR>  (27) 
    GENERATED BY OPEN BABEL 3.1.1

>  <MASTER>  (27) 
        0    0    0    0    0    0    0    0   56    0   56    0

>  <minimizedAffinity>  (27) 
-8.30508

>  <CNNscore>  (27) 
0.5988089442

>  <CNNaffinity>  (27) 
4.6942729950

>  <CNN_VS>  (27) 
2.8109726906

>  <CNNaffinity_variance>  (27) 
0.3499704897

$$$$
28
     RDKit          3D

 43 45  0  0  0  0  0  0  0  0999 V2000
   22.2522   69.5015    0.1528 P   0  0  2  0  0  0  0  0  0  0  0  0
   20.7226   69.3495    0.6590 O   0  0  0  0  0  0  0  0  0  0  0  0
   22.9609   68.2072   -0.1197 O   0  0  0  0  0  0  0  0  0  0  0  0
   22.9365   70.4566    1.2652 O   0  0  0  0  0  0  0  0  0  0  0  0
   23.7446   69.8606    2.2633 C   0  0  0  0  0  0  0  0  0  0  0  0
   24.6858   70.5455    4.3663 O   0  0  0  0  0  0  0  0  0  0  0  0
   22.3089   72.3547    4.6289 O   0  0  0  0  0  0  0  0  0  0  0  0
   24.2714   74.0636    3.8135 O   0  0  0  0  0  0  0  0  0  0  0  0
   23.0452   71.9939    3.4600 C   0  0  1  0  0  0  0  0  0  0  0  0
   24.3814   72.7056    3.4417 C   0  0  2  0  0  0  0  0  0  0  0  0
   23.4625   70.5362    3.5990 C   0  0  1  0  0  0  0  0  0  0  0  0
   25.1869   71.8898    4.4384 C   0  0  2  0  0  0  0  0  0  0  0  0
   22.0315   73.2823    4.5631 H   0  0  0  0  0  0  0  0  0  0  0  0
   23.7503   74.5400    3.1475 H   0  0  0  0  0  0  0  0  0  0  0  0
   27.0096   73.8822    5.2657 O   0  0  0  0  0  0  0  0  0  0  0  0
   30.5463   71.7577    3.2110 O   0  0  0  0  0  0  0  0  0  0  0  0
   26.5897   71.8821    4.1336 N   0  0  0  0  0  0  0  0  0  0  0  0
   28.7692   72.8227    4.2407 N   0  0  0  0  0  0  0  0  0  0  0  0
   27.4185   72.9312    4.5970 C   0  0  0  0  0  0  0  0  0  0  0  0
   27.1313   70.8437    3.3856 C   0  0  0  0  0  0  0  0  0  0  0  0
   28.4208   70.7540    3.0540 C   0  0  0  0  0  0  0  0  0  0  0  0
   29.3542   71.8098    3.4981 C   0  0  0  0  0  0  0  0  0  0  0  0
   29.3654   73.5424    4.5502 H   0  0  0  0  0  0  0  0  0  0  0  0
   22.1151   70.4769   -1.1288 O   0  0  0  0  0  0  0  0  0  0  0  0
   21.2614   71.8328   -1.3443 P   0  0  2  0  0  0  0  0  0  0  0  0
   22.2533   72.7580   -2.2276 O   0  0  0  0  0  0  0  0  0  0  0  0
   20.7897   72.4725   -0.0706 O   0  0  0  0  0  0  0  0  0  0  0  0
   20.0805   71.4157   -2.3611 O   0  0  0  0  0  0  0  0  0  0  0  0
   19.1242   72.5956   -4.1785 O   0  0  0  0  0  0  0  0  0  0  0  0
   15.8795   70.4713   -2.7547 O   0  0  0  0  0  0  0  0  0  0  0  0
   17.7373   71.7555   -0.9017 O   0  0  0  0  0  0  0  0  0  0  0  0
   17.2254   69.6228   -5.1878 O   0  0  0  0  0  0  0  0  0  0  0  0
   17.2582   70.7100   -3.0379 C   0  0  2  0  0  0  0  0  0  0  0  0
   17.7196   71.9717   -2.3080 C   0  0  2  0  0  0  0  0  0  0  0  0
   17.4066   70.8861   -4.5508 C   0  0  1  0  0  0  0  0  0  0  0  0
   19.1182   72.3879   -2.7655 C   0  0  1  0  0  0  0  0  0  0  0  0
   18.7875   71.4229   -4.9164 C   0  0  1  0  0  0  0  0  0  0  0  0
   15.7608   70.3563   -1.7987 H   0  0  0  0  0  0  0  0  0  0  0  0
   16.8530   71.4908   -0.6045 H   0  0  0  0  0  0  0  0  0  0  0  0
   16.3502   69.2700   -4.9631 H   0  0  0  0  0  0  0  0  0  0  0  0
   20.0767   71.8641   -6.8255 O   0  0  0  0  0  0  0  0  0  0  0  0
   17.8369   72.2671   -6.9670 O   0  0  0  0  0  0  0  0  0  0  0  0
   18.8139   71.8985   -6.3325 C   0  0  0  0  0  0  0  0  0  0  0  0
  1  4  1  0
  1 24  1  0
  1  2  1  1
  1  3  2  0
 25 28  1  0
 25 24  1  0
 25 26  1  6
 25 27  2  0
  6 11  1  0
  6 12  1  0
 29 36  1  0
 29 37  1  0
  9  7  1  1
  7 13  1  0
 10  8  1  1
  8 14  1  0
  4  5  1  0
 36 28  1  6
 33 30  1  6
 30 38  1  0
 34 31  1  1
 31 39  1  0
 35 32  1  6
 32 40  1  0
 41 43  1  0
 15 19  2  0
 42 43  2  0
 16 22  2  0
 12 17  1  6
 17 19  1  0
 17 20  1  0
 18 19  1  0
 18 22  1  0
 18 23  1  0
  9 10  1  0
  9 11  1  0
 10 12  1  0
 11  5  1  6
 33 34  1  0
 33 35  1  0
 34 36  1  0
 35 37  1  0
 37 43  1  6
 20 21  2  0
 21 22  1  0
M  CHG  3   2  -1  26  -1  41  -1
M  END
>  <COMPND>  (28) 
    udp_gluA.pdb 

>  <AUTHOR>  (28) 
    GENERATED BY OPEN BABEL 3.1.1

>  <MASTER>  (28) 
        0    0    0    0    0    0    0    0   56    0   56    0

>  <minimizedAffinity>  (28) 
-8.02453

>  <CNNscore>  (28) 
0.5984463096

>  <CNNaffinity>  (28) 
4.5391740799

>  <CNN_VS>  (28) 
2.7164518833

>  <CNNaffinity_variance>  (28) 
0.1069316491

$$$$
29
     RDKit          3D

 43 45  0  0  0  0  0  0  0  0999 V2000
   21.2201   70.5451   -0.4068 P   0  0  2  0  0  0  0  0  0  0  0  0
   20.7007   69.3875    0.5977 O   0  0  0  0  0  0  0  0  0  0  0  0
   21.9714   70.0511   -1.6082 O   0  0  0  0  0  0  0  0  0  0  0  0
   22.0279   71.5626    0.5576 O   0  0  0  0  0  0  0  0  0  0  0  0
   23.1801   71.0868    1.2289 C   0  0  0  0  0  0  0  0  0  0  0  0
   24.0612   70.4961    3.3858 O   0  0  0  0  0  0  0  0  0  0  0  0
   21.9332   72.2693    4.5342 O   0  0  0  0  0  0  0  0  0  0  0  0
   24.1549   73.8452    4.6621 O   0  0  0  0  0  0  0  0  0  0  0  0
   22.6914   72.4279    3.3348 C   0  0  1  0  0  0  0  0  0  0  0  0
   24.1084   72.8487    3.6624 C   0  0  2  0  0  0  0  0  0  0  0  0
   22.9015   71.0483    2.7260 C   0  0  1  0  0  0  0  0  0  0  0  0
   24.7303   71.5382    4.1137 C   0  0  2  0  0  0  0  0  0  0  0  0
   21.7862   73.1378    4.9414 H   0  0  0  0  0  0  0  0  0  0  0  0
   23.7473   74.6595    4.3262 H   0  0  0  0  0  0  0  0  0  0  0  0
   26.7296   72.7376    5.7076 O   0  0  0  0  0  0  0  0  0  0  0  0
   30.0953   71.2275    2.9445 O   0  0  0  0  0  0  0  0  0  0  0  0
   26.1369   71.4741    3.8339 N   0  0  0  0  0  0  0  0  0  0  0  0
   28.4039   71.9852    4.3293 N   0  0  0  0  0  0  0  0  0  0  0  0
   27.0582   72.1112    4.6984 C   0  0  0  0  0  0  0  0  0  0  0  0
   26.5910   70.7851    2.7159 C   0  0  0  0  0  0  0  0  0  0  0  0
   27.8769   70.6736    2.3772 C   0  0  0  0  0  0  0  0  0  0  0  0
   28.9039   71.3111    3.2270 C   0  0  0  0  0  0  0  0  0  0  0  0
   29.0639   72.4222    4.9148 H   0  0  0  0  0  0  0  0  0  0  0  0
   19.8684   71.3633   -0.7475 O   0  0  0  0  0  0  0  0  0  0  0  0
   18.5817   70.9627   -1.6407 P   0  0  2  0  0  0  0  0  0  0  0  0
   17.4170   71.9285   -1.0654 O   0  0  0  0  0  0  0  0  0  0  0  0
   18.2430   69.5004   -1.6115 O   0  0  0  0  0  0  0  0  0  0  0  0
   18.9056   71.5457   -3.1096 O   0  0  0  0  0  0  0  0  0  0  0  0
   18.1782   70.4105   -5.0568 O   0  0  0  0  0  0  0  0  0  0  0  0
   21.1530   72.8478   -6.5663 O   0  0  0  0  0  0  0  0  0  0  0  0
   21.5290   71.4505   -4.0285 O   0  0  0  0  0  0  0  0  0  0  0  0
   18.3576   73.5138   -7.0060 O   0  0  0  0  0  0  0  0  0  0  0  0
   20.0895   72.4813   -5.6872 C   0  0  2  0  0  0  0  0  0  0  0  0
   20.4631   71.2021   -4.9377 C   0  0  2  0  0  0  0  0  0  0  0  0
   18.8339   72.2555   -6.5324 C   0  0  1  0  0  0  0  0  0  0  0  0
   19.2649   70.6527   -4.1623 C   0  0  1  0  0  0  0  0  0  0  0  0
   17.7274   71.5898   -5.7194 C   0  0  1  0  0  0  0  0  0  0  0  0
   21.9617   72.9964   -6.0514 H   0  0  0  0  0  0  0  0  0  0  0  0
   22.2926   71.7996   -4.5137 H   0  0  0  0  0  0  0  0  0  0  0  0
   19.0525   73.9480   -7.5250 H   0  0  0  0  0  0  0  0  0  0  0  0
   16.4637   69.7474   -6.4335 O   0  0  0  0  0  0  0  0  0  0  0  0
   16.0063   71.7605   -7.4016 O   0  0  0  0  0  0  0  0  0  0  0  0
   16.6455   71.0790   -6.6143 C   0  0  0  0  0  0  0  0  0  0  0  0
  1  4  1  0
  1 24  1  0
  1  2  1  1
  1  3  2  0
 25 28  1  0
 25 24  1  0
 25 26  1  1
 25 27  2  0
  6 11  1  0
  6 12  1  0
 29 36  1  0
 29 37  1  0
  9  7  1  1
  7 13  1  0
 10  8  1  1
  8 14  1  0
  4  5  1  0
 36 28  1  1
 33 30  1  6
 30 38  1  0
 34 31  1  1
 31 39  1  0
 35 32  1  1
 32 40  1  0
 41 43  1  0
 15 19  2  0
 42 43  2  0
 16 22  2  0
 12 17  1  6
 17 19  1  0
 17 20  1  0
 18 19  1  0
 18 22  1  0
 18 23  1  0
  9 10  1  0
  9 11  1  0
 10 12  1  0
 11  5  1  6
 33 34  1  0
 33 35  1  0
 34 36  1  0
 35 37  1  0
 37 43  1  6
 20 21  2  0
 21 22  1  0
M  CHG  3   2  -1  26  -1  41  -1
M  END
>  <COMPND>  (29) 
    udp_gluA.pdb 

>  <AUTHOR>  (29) 
    GENERATED BY OPEN BABEL 3.1.1

>  <MASTER>  (29) 
        0    0    0    0    0    0    0    0   56    0   56    0

>  <minimizedAffinity>  (29) 
-9.00021

>  <CNNscore>  (29) 
0.5619258285

>  <CNNaffinity>  (29) 
4.4336581230

>  <CNN_VS>  (29) 
2.4913871288

>  <CNNaffinity_variance>  (29) 
0.0089918813

$$$$
30
     RDKit          3D

 43 45  0  0  0  0  0  0  0  0999 V2000
   22.3667   69.3943    0.1924 P   0  0  2  0  0  0  0  0  0  0  0  0
   20.8124   69.2643    0.6240 O   0  0  0  0  0  0  0  0  0  0  0  0
   23.0694   68.0899   -0.0454 O   0  0  0  0  0  0  0  0  0  0  0  0
   23.0097   70.3404    1.3366 O   0  0  0  0  0  0  0  0  0  0  0  0
   23.8459   69.7474    2.3132 C   0  0  0  0  0  0  0  0  0  0  0  0
   24.8181   70.4506    4.3959 O   0  0  0  0  0  0  0  0  0  0  0  0
   22.3850   72.1696    4.7373 O   0  0  0  0  0  0  0  0  0  0  0  0
   24.2611   73.9552    3.8841 O   0  0  0  0  0  0  0  0  0  0  0  0
   23.1019   71.8447    3.5461 C   0  0  1  0  0  0  0  0  0  0  0  0
   24.4104   72.6049    3.4980 C   0  0  2  0  0  0  0  0  0  0  0  0
   23.5756   70.4023    3.6616 C   0  0  1  0  0  0  0  0  0  0  0  0
   25.2718   71.8117    4.4659 C   0  0  2  0  0  0  0  0  0  0  0  0
   22.0723   73.0869    4.6868 H   0  0  0  0  0  0  0  0  0  0  0  0
   23.7053   74.4171    3.2363 H   0  0  0  0  0  0  0  0  0  0  0  0
   27.0431   73.8619    5.2631 O   0  0  0  0  0  0  0  0  0  0  0  0
   30.5972   71.8851    3.0942 O   0  0  0  0  0  0  0  0  0  0  0  0
   26.6652   71.8577    4.1236 N   0  0  0  0  0  0  0  0  0  0  0  0
   28.8113   72.8759    4.1812 N   0  0  0  0  0  0  0  0  0  0  0  0
   27.4678   72.9322    4.5746 C   0  0  0  0  0  0  0  0  0  0  0  0
   27.2234   70.8462    3.3514 C   0  0  0  0  0  0  0  0  0  0  0  0
   28.5058   70.8063    2.9846 C   0  0  0  0  0  0  0  0  0  0  0  0
   29.4122   71.8915    3.4136 C   0  0  0  0  0  0  0  0  0  0  0  0
   29.3894   73.6142    4.4815 H   0  0  0  0  0  0  0  0  0  0  0  0
   22.3056   70.3706   -1.0944 O   0  0  0  0  0  0  0  0  0  0  0  0
   21.2416   71.5150   -1.5089 P   0  0  2  0  0  0  0  0  0  0  0  0
   19.9837   70.6648   -2.0702 O   0  0  0  0  0  0  0  0  0  0  0  0
   21.7777   72.5347   -2.4716 O   0  0  0  0  0  0  0  0  0  0  0  0
   20.7281   72.1238   -0.1060 O   0  0  0  0  0  0  0  0  0  0  0  0
   18.7381   73.2258    0.5534 O   0  0  0  0  0  0  0  0  0  0  0  0
   21.5907   75.2614    2.7413 O   0  0  0  0  0  0  0  0  0  0  0  0
   22.0945   74.5457   -0.0459 O   0  0  0  0  0  0  0  0  0  0  0  0
   19.8704   73.3123    4.0423 O   0  0  0  0  0  0  0  0  0  0  0  0
   21.0112   74.1335    2.0855 C   0  0  2  0  0  0  0  0  0  0  0  0
   20.8304   74.4429    0.5992 C   0  0  2  0  0  0  0  0  0  0  0  0
   19.6566   73.8509    2.7390 C   0  0  1  0  0  0  0  0  0  0  0  0
   20.0066   73.3543   -0.0900 C   0  0  1  0  0  0  0  0  0  0  0  0
   18.8433   72.8491    1.9245 C   0  0  1  0  0  0  0  0  0  0  0  0
   22.4527   75.4598    2.3426 H   0  0  0  0  0  0  0  0  0  0  0  0
   22.6226   75.2345    0.3865 H   0  0  0  0  0  0  0  0  0  0  0  0
   20.3871   73.9403    4.5709 H   0  0  0  0  0  0  0  0  0  0  0  0
   16.6246   72.2697    1.4315 O   0  0  0  0  0  0  0  0  0  0  0  0
   17.0187   73.2533    3.4505 O   0  0  0  0  0  0  0  0  0  0  0  0
   17.4196   72.8289    2.3771 C   0  0  0  0  0  0  0  0  0  0  0  0
  1  4  1  0
  1 24  1  0
  1  2  1  1
  1  3  2  0
 25 28  1  0
 25 24  1  0
 25 26  1  6
 25 27  2  0
  6 11  1  0
  6 12  1  0
 29 36  1  0
 29 37  1  0
  9  7  1  1
  7 13  1  0
 10  8  1  1
  8 14  1  0
  4  5  1  0
 36 28  1  1
 33 30  1  1
 30 38  1  0
 34 31  1  6
 31 39  1  0
 35 32  1  1
 32 40  1  0
 41 43  1  0
 15 19  2  0
 42 43  2  0
 16 22  2  0
 12 17  1  6
 17 19  1  0
 17 20  1  0
 18 19  1  0
 18 22  1  0
 18 23  1  0
  9 10  1  0
  9 11  1  0
 10 12  1  0
 11  5  1  6
 33 34  1  0
 33 35  1  0
 34 36  1  0
 35 37  1  0
 37 43  1  1
 20 21  2  0
 21 22  1  0
M  CHG  3   2  -1  26  -1  41  -1
M  END
>  <COMPND>  (30) 
    udp_gluA.pdb 

>  <AUTHOR>  (30) 
    GENERATED BY OPEN BABEL 3.1.1

>  <MASTER>  (30) 
        0    0    0    0    0    0    0    0   56    0   56    0

>  <minimizedAffinity>  (30) 
-7.24098

>  <CNNscore>  (30) 
0.5332637429

>  <CNNaffinity>  (30) 
4.4027996063

>  <CNN_VS>  (30) 
2.3478534222

>  <CNNaffinity_variance>  (30) 
0.1226447001

$$$$
31
     RDKit          3D

 43 45  0  0  0  0  0  0  0  0999 V2000
   21.1149   75.2082   -3.7747 P   0  0  2  0  0  0  0  0  0  0  0  0
   21.1676   76.4036   -2.6851 O   0  0  0  0  0  0  0  0  0  0  0  0
   21.1860   75.6523   -5.2063 O   0  0  0  0  0  0  0  0  0  0  0  0
   19.7951   74.3668   -3.3648 O   0  0  0  0  0  0  0  0  0  0  0  0
   18.7880   74.1710   -4.3405 C   0  0  0  0  0  0  0  0  0  0  0  0
   17.2910   72.4230   -5.0340 O   0  0  0  0  0  0  0  0  0  0  0  0
   17.5798   71.3287   -2.2572 O   0  0  0  0  0  0  0  0  0  0  0  0
   19.2479   69.7291   -3.7046 O   0  0  0  0  0  0  0  0  0  0  0  0
   18.5522   71.9737   -3.0800 C   0  0  1  0  0  0  0  0  0  0  0  0
   19.0128   71.0386   -4.1782 C   0  0  2  0  0  0  0  0  0  0  0  0
   17.8479   73.0691   -3.8688 C   0  0  1  0  0  0  0  0  0  0  0  0
   17.8534   71.1070   -5.1574 C   0  0  2  0  0  0  0  0  0  0  0  0
   18.0064   70.6246   -1.7434 H   0  0  0  0  0  0  0  0  0  0  0  0
   19.9951   69.7385   -3.0852 H   0  0  0  0  0  0  0  0  0  0  0  0
   16.1572   70.2078   -7.2289 O   0  0  0  0  0  0  0  0  0  0  0  0
   19.5624   70.3602  -10.3313 O   0  0  0  0  0  0  0  0  0  0  0  0
   18.2706   70.9030   -6.5158 N   0  0  0  0  0  0  0  0  0  0  0  0
   17.8550   70.2836   -8.7719 N   0  0  0  0  0  0  0  0  0  0  0  0
   17.3396   70.4487   -7.4795 C   0  0  0  0  0  0  0  0  0  0  0  0
   19.5875   71.1537   -6.8819 C   0  0  0  0  0  0  0  0  0  0  0  0
   20.0640   70.9918   -8.1178 C   0  0  0  0  0  0  0  0  0  0  0  0
   19.1567   70.5192   -9.1840 C   0  0  0  0  0  0  0  0  0  0  0  0
   17.2261   69.9661   -9.4596 H   0  0  0  0  0  0  0  0  0  0  0  0
   22.3225   74.2396   -3.3095 O   0  0  0  0  0  0  0  0  0  0  0  0
   23.0003   72.9643   -4.0361 P   0  0  2  0  0  0  0  0  0  0  0  0
   24.4861   73.4931   -4.4009 O   0  0  0  0  0  0  0  0  0  0  0  0
   22.2248   72.4403   -5.2099 O   0  0  0  0  0  0  0  0  0  0  0  0
   23.2288   71.8925   -2.8523 O   0  0  0  0  0  0  0  0  0  0  0  0
   22.6007   69.6333   -2.5197 O   0  0  0  0  0  0  0  0  0  0  0  0
   22.0774   71.2165    1.2602 O   0  0  0  0  0  0  0  0  0  0  0  0
   21.2283   72.7111   -1.1019 O   0  0  0  0  0  0  0  0  0  0  0  0
   24.3857   69.5457    0.6847 O   0  0  0  0  0  0  0  0  0  0  0  0
   22.6797   71.0905   -0.0280 C   0  0  2  0  0  0  0  0  0  0  0  0
   21.6308   71.3463   -1.1105 C   0  0  2  0  0  0  0  0  0  0  0  0
   23.2377   69.6710   -0.1523 C   0  0  1  0  0  0  0  0  0  0  0  0
   22.1774   70.9970   -2.4954 C   0  0  1  0  0  0  0  0  0  0  0  0
   23.6448   69.3563   -1.5889 C   0  0  1  0  0  0  0  0  0  0  0  0
   21.7156   72.1109    1.3621 H   0  0  0  0  0  0  0  0  0  0  0  0
   20.8806   72.9397   -0.2260 H   0  0  0  0  0  0  0  0  0  0  0  0
   24.1402   69.7436    1.6020 H   0  0  0  0  0  0  0  0  0  0  0  0
   24.7102   67.6591   -2.8079 O   0  0  0  0  0  0  0  0  0  0  0  0
   23.3785   67.0145   -1.0728 O   0  0  0  0  0  0  0  0  0  0  0  0
   23.8727   67.8905   -1.7667 C   0  0  0  0  0  0  0  0  0  0  0  0
  1  4  1  0
  1 24  1  0
  1  2  1  1
  1  3  2  0
 25 28  1  0
 25 24  1  0
 25 26  1  6
 25 27  2  0
  6 11  1  0
  6 12  1  0
 29 36  1  0
 29 37  1  0
  9  7  1  1
  7 13  1  0
 10  8  1  1
  8 14  1  0
  4  5  1  0
 36 28  1  1
 33 30  1  1
 30 38  1  0
 34 31  1  6
 31 39  1  0
 35 32  1  1
 32 40  1  0
 41 43  1  0
 15 19  2  0
 42 43  2  0
 16 22  2  0
 12 17  1  6
 17 19  1  0
 17 20  1  0
 18 19  1  0
 18 22  1  0
 18 23  1  0
  9 10  1  0
  9 11  1  0
 10 12  1  0
 11  5  1  6
 33 34  1  0
 33 35  1  0
 34 36  1  0
 35 37  1  0
 37 43  1  1
 20 21  2  0
 21 22  1  0
M  CHG  3   2  -1  26  -1  41  -1
M  END
>  <COMPND>  (31) 
    udp_gluA.pdb 

>  <AUTHOR>  (31) 
    GENERATED BY OPEN BABEL 3.1.1

>  <MASTER>  (31) 
        0    0    0    0    0    0    0    0   56    0   56    0

>  <minimizedAffinity>  (31) 
-7.88310

>  <CNNscore>  (31) 
0.5150225759

>  <CNNaffinity>  (31) 
4.6728224754

>  <CNN_VS>  (31) 
2.4066090584

>  <CNNaffinity_variance>  (31) 
0.0529406182

$$$$
32
     RDKit          3D

 43 45  0  0  0  0  0  0  0  0999 V2000
   21.1944   72.4986   -1.8842 P   0  0  2  0  0  0  0  0  0  0  0  0
   22.8078   72.6081   -1.9460 O   0  0  0  0  0  0  0  0  0  0  0  0
   20.6299   71.1892   -2.3519 O   0  0  0  0  0  0  0  0  0  0  0  0
   20.6851   73.8093   -2.6846 O   0  0  0  0  0  0  0  0  0  0  0  0
   19.4156   73.7687   -3.3101 C   0  0  0  0  0  0  0  0  0  0  0  0
   19.5141   72.5779   -5.3957 O   0  0  0  0  0  0  0  0  0  0  0  0
   19.0336   75.2264   -6.7170 O   0  0  0  0  0  0  0  0  0  0  0  0
   16.5674   74.0655   -6.7952 O   0  0  0  0  0  0  0  0  0  0  0  0
   18.5102   74.7213   -5.4884 C   0  0  1  0  0  0  0  0  0  0  0  0
   17.4476   73.6778   -5.7610 C   0  0  2  0  0  0  0  0  0  0  0  0
   19.6005   73.8979   -4.8166 C   0  0  1  0  0  0  0  0  0  0  0  0
   18.2843   72.4645   -6.1293 C   0  0  2  0  0  0  0  0  0  0  0  0
   18.3548   75.7561   -7.1646 H   0  0  0  0  0  0  0  0  0  0  0  0
   16.0576   74.8412   -6.5120 H   0  0  0  0  0  0  0  0  0  0  0  0
   16.1623   71.2987   -7.5835 O   0  0  0  0  0  0  0  0  0  0  0  0
   15.8999   67.7230   -4.6870 O   0  0  0  0  0  0  0  0  0  0  0  0
   17.6429   71.2293   -5.7775 N   0  0  0  0  0  0  0  0  0  0  0  0
   16.0330   69.5194   -6.1389 N   0  0  0  0  0  0  0  0  0  0  0  0
   16.5859   70.7306   -6.5751 C   0  0  0  0  0  0  0  0  0  0  0  0
   18.0624   70.5250   -4.6555 C   0  0  0  0  0  0  0  0  0  0  0  0
   17.5257   69.3717   -4.2524 C   0  0  0  0  0  0  0  0  0  0  0  0
   16.4157   68.7826   -5.0297 C   0  0  0  0  0  0  0  0  0  0  0  0
   15.2942   69.1534   -6.6770 H   0  0  0  0  0  0  0  0  0  0  0  0
   20.8647   72.8623   -0.3441 O   0  0  0  0  0  0  0  0  0  0  0  0
   21.3899   74.0666    0.5979 P   0  0  2  0  0  0  0  0  0  0  0  0
   20.0292   74.6329    1.2674 O   0  0  0  0  0  0  0  0  0  0  0  0
   22.2022   75.1031   -0.1231 O   0  0  0  0  0  0  0  0  0  0  0  0
   22.1638   73.3320    1.8079 O   0  0  0  0  0  0  0  0  0  0  0  0
   21.3492   71.1082    1.8168 O   0  0  0  0  0  0  0  0  0  0  0  0
   24.2140   70.9661    4.7902 O   0  0  0  0  0  0  0  0  0  0  0  0
   22.4133   73.2566    4.5770 O   0  0  0  0  0  0  0  0  0  0  0  0
   24.7565   69.7975    2.1842 O   0  0  0  0  0  0  0  0  0  0  0  0
   23.6244   71.4119    3.5689 C   0  0  2  0  0  0  0  0  0  0  0  0
   22.2600   72.0383    3.8580 C   0  0  2  0  0  0  0  0  0  0  0  0
   23.4690   70.1992    2.6485 C   0  0  1  0  0  0  0  0  0  0  0  0
   21.5004   72.3180    2.5604 C   0  0  1  0  0  0  0  0  0  0  0  0
   22.5948   70.5247    1.4409 C   0  0  1  0  0  0  0  0  0  0  0  0
   24.3224   71.7200    5.3912 H   0  0  0  0  0  0  0  0  0  0  0  0
   22.8947   73.0866    5.4014 H   0  0  0  0  0  0  0  0  0  0  0  0
   25.3229   69.5876    2.9432 H   0  0  0  0  0  0  0  0  0  0  0  0
   20.8311   69.2219    0.6080 O   0  0  0  0  0  0  0  0  0  0  0  0
   22.9449   68.4167    0.3206 O   0  0  0  0  0  0  0  0  0  0  0  0
   22.1803   69.2755    0.7339 C   0  0  0  0  0  0  0  0  0  0  0  0
  1  4  1  0
  1 24  1  0
  1  2  1  1
  1  3  2  0
 25 28  1  0
 25 24  1  0
 25 26  1  1
 25 27  2  0
  6 11  1  0
  6 12  1  0
 29 36  1  0
 29 37  1  0
  9  7  1  6
  7 13  1  0
 10  8  1  6
  8 14  1  0
  4  5  1  0
 36 28  1  6
 33 30  1  1
 30 38  1  0
 34 31  1  6
 31 39  1  0
 35 32  1  6
 32 40  1  0
 41 43  1  0
 15 19  2  0
 42 43  2  0
 16 22  2  0
 12 17  1  1
 17 19  1  0
 17 20  1  0
 18 19  1  0
 18 22  1  0
 18 23  1  0
  9 10  1  0
  9 11  1  0
 10 12  1  0
 11  5  1  1
 33 34  1  0
 33 35  1  0
 34 36  1  0
 35 37  1  0
 37 43  1  1
 20 21  2  0
 21 22  1  0
M  CHG  3   2  -1  26  -1  41  -1
M  END
>  <COMPND>  (32) 
    udp_gluA.pdb 

>  <AUTHOR>  (32) 
    GENERATED BY OPEN BABEL 3.1.1

>  <MASTER>  (32) 
        0    0    0    0    0    0    0    0   56    0   56    0

>  <minimizedAffinity>  (32) 
-7.94516

>  <CNNscore>  (32) 
0.4953760803

>  <CNNaffinity>  (32) 
4.3626413345

>  <CNN_VS>  (32) 
2.1611480713

>  <CNNaffinity_variance>  (32) 
0.1112412587

$$$$
33
     RDKit          3D

 43 45  0  0  0  0  0  0  0  0999 V2000
   20.5628   70.9107    0.5696 P   0  0  2  0  0  0  0  0  0  0  0  0
   19.6038   71.5519    1.7045 O   0  0  0  0  0  0  0  0  0  0  0  0
   20.7288   69.4214    0.6479 O   0  0  0  0  0  0  0  0  0  0  0  0
   21.9256   71.7762    0.6783 O   0  0  0  0  0  0  0  0  0  0  0  0
   23.0441   71.1978    1.3256 C   0  0  0  0  0  0  0  0  0  0  0  0
   23.9593   70.6218    3.4723 O   0  0  0  0  0  0  0  0  0  0  0  0
   21.9108   72.4768    4.6360 O   0  0  0  0  0  0  0  0  0  0  0  0
   24.1789   73.9898    4.6817 O   0  0  0  0  0  0  0  0  0  0  0  0
   22.6443   72.5912    3.4164 C   0  0  1  0  0  0  0  0  0  0  0  0
   24.0802   72.9768    3.7026 C   0  0  2  0  0  0  0  0  0  0  0  0
   22.8003   71.1950    2.8293 C   0  0  1  0  0  0  0  0  0  0  0  0
   24.6750   71.6573    4.1643 C   0  0  2  0  0  0  0  0  0  0  0  0
   21.7984   73.3565    5.0298 H   0  0  0  0  0  0  0  0  0  0  0  0
   23.7868   74.8092    4.3399 H   0  0  0  0  0  0  0  0  0  0  0  0
   26.7483   72.7826    5.7173 O   0  0  0  0  0  0  0  0  0  0  0  0
   29.9994   71.1723    2.8746 O   0  0  0  0  0  0  0  0  0  0  0  0
   26.0721   71.5474    3.8530 N   0  0  0  0  0  0  0  0  0  0  0  0
   28.3655   71.9804    4.2995 N   0  0  0  0  0  0  0  0  0  0  0  0
   27.0333   72.1498    4.6989 C   0  0  0  0  0  0  0  0  0  0  0  0
   26.4780   70.8483    2.7227 C   0  0  0  0  0  0  0  0  0  0  0  0
   27.7516   70.6953    2.3550 C   0  0  0  0  0  0  0  0  0  0  0  0
   28.8180   71.2945    3.1839 C   0  0  0  0  0  0  0  0  0  0  0  0
   29.0526   72.3926    4.8716 H   0  0  0  0  0  0  0  0  0  0  0  0
   19.9029   71.4433   -0.8065 O   0  0  0  0  0  0  0  0  0  0  0  0
   18.5265   71.0365   -1.5506 P   0  0  2  0  0  0  0  0  0  0  0  0
   17.4072   71.8881   -0.7492 O   0  0  0  0  0  0  0  0  0  0  0  0
   18.2644   69.5590   -1.5959 O   0  0  0  0  0  0  0  0  0  0  0  0
   18.6185   71.7448   -2.9971 O   0  0  0  0  0  0  0  0  0  0  0  0
   18.3255   70.3786   -4.9094 O   0  0  0  0  0  0  0  0  0  0  0  0
   19.9133   73.8142   -6.5659 O   0  0  0  0  0  0  0  0  0  0  0  0
   20.9835   72.7434   -4.0674 O   0  0  0  0  0  0  0  0  0  0  0  0
   17.0764   73.2401   -6.8366 O   0  0  0  0  0  0  0  0  0  0  0  0
   19.1532   73.0496   -5.6302 C   0  0  2  0  0  0  0  0  0  0  0  0
   20.0704   72.0568   -4.9156 C   0  0  2  0  0  0  0  0  0  0  0  0
   18.0623   72.3050   -6.4032 C   0  0  1  0  0  0  0  0  0  0  0  0
   19.2590   71.0681   -4.0772 C   0  0  1  0  0  0  0  0  0  0  0  0
   17.3849   71.2497   -5.5337 C   0  0  1  0  0  0  0  0  0  0  0  0
   20.6129   74.2962   -6.0974 H   0  0  0  0  0  0  0  0  0  0  0  0
   21.5015   73.3727   -4.5928 H   0  0  0  0  0  0  0  0  0  0  0  0
   17.4946   73.9174   -7.3909 H   0  0  0  0  0  0  0  0  0  0  0  0
   16.3959   70.8210   -7.6169 O   0  0  0  0  0  0  0  0  0  0  0  0
   16.1165   69.2485   -5.9895 O   0  0  0  0  0  0  0  0  0  0  0  0
   16.5683   70.3184   -6.3692 C   0  0  0  0  0  0  0  0  0  0  0  0
  1  4  1  0
  1 24  1  0
  1  2  1  1
  1  3  2  0
 25 28  1  0
 25 24  1  0
 25 26  1  1
 25 27  2  0
  6 11  1  0
  6 12  1  0
 29 36  1  0
 29 37  1  0
  9  7  1  1
  7 13  1  0
 10  8  1  1
  8 14  1  0
  4  5  1  0
 36 28  1  1
 33 30  1  6
 30 38  1  0
 34 31  1  1
 31 39  1  0
 35 32  1  1
 32 40  1  0
 41 43  1  0
 15 19  2  0
 42 43  2  0
 16 22  2  0
 12 17  1  6
 17 19  1  0
 17 20  1  0
 18 19  1  0
 18 22  1  0
 18 23  1  0
  9 10  1  0
  9 11  1  0
 10 12  1  0
 11  5  1  6
 33 34  1  0
 33 35  1  0
 34 36  1  0
 35 37  1  0
 37 43  1  6
 20 21  2  0
 21 22  1  0
M  CHG  3   2  -1  26  -1  41  -1
M  END
>  <COMPND>  (33) 
    udp_gluA.pdb 

>  <AUTHOR>  (33) 
    GENERATED BY OPEN BABEL 3.1.1

>  <MASTER>  (33) 
        0    0    0    0    0    0    0    0   56    0   56    0

>  <minimizedAffinity>  (33) 
-8.58581

>  <CNNscore>  (33) 
0.4852547348

>  <CNNaffinity>  (33) 
4.4655408859

>  <CNN_VS>  (33) 
2.1669249535

>  <CNNaffinity_variance>  (33) 
0.0444099344

$$$$
34
     RDKit          3D

 43 45  0  0  0  0  0  0  0  0999 V2000
   21.6690   71.5931   -1.8148 P   0  0  2  0  0  0  0  0  0  0  0  0
   20.3951   72.5703   -1.6121 O   0  0  0  0  0  0  0  0  0  0  0  0
   21.3819   70.1317   -1.6318 O   0  0  0  0  0  0  0  0  0  0  0  0
   22.7961   72.2158   -0.8350 O   0  0  0  0  0  0  0  0  0  0  0  0
   22.3751   72.9042    0.3283 C   0  0  0  0  0  0  0  0  0  0  0  0
   22.5963   71.0132    1.7956 O   0  0  0  0  0  0  0  0  0  0  0  0
   19.9035   71.7715    2.8752 O   0  0  0  0  0  0  0  0  0  0  0  0
   21.6026   72.7514    4.7697 O   0  0  0  0  0  0  0  0  0  0  0  0
   20.9669   72.6123    2.4269 C   0  0  1  0  0  0  0  0  0  0  0  0
   22.0849   72.6327    3.4477 C   0  0  2  0  0  0  0  0  0  0  0  0
   21.6332   71.9335    1.2380 C   0  0  1  0  0  0  0  0  0  0  0  0
   22.7694   71.3007    3.1923 C   0  0  2  0  0  0  0  0  0  0  0  0
   19.4626   72.1844    3.6346 H   0  0  0  0  0  0  0  0  0  0  0  0
   21.1759   73.6159    4.8818 H   0  0  0  0  0  0  0  0  0  0  0  0
   24.4924   69.0673    3.0525 O   0  0  0  0  0  0  0  0  0  0  0  0
   28.1374   71.5677    4.3587 O   0  0  0  0  0  0  0  0  0  0  0  0
   24.1731   71.3399    3.4905 N   0  0  0  0  0  0  0  0  0  0  0  0
   26.3060   70.3146    3.7042 N   0  0  0  0  0  0  0  0  0  0  0  0
   24.9493   70.1612    3.3895 C   0  0  0  0  0  0  0  0  0  0  0  0
   24.7671   72.5355    3.8761 C   0  0  0  0  0  0  0  0  0  0  0  0
   26.0616   72.6661    4.1728 C   0  0  0  0  0  0  0  0  0  0  0  0
   26.9422   71.4822    4.0931 C   0  0  0  0  0  0  0  0  0  0  0  0
   26.8662   69.5073    3.6431 H   0  0  0  0  0  0  0  0  0  0  0  0
   22.2043   71.9952   -3.2861 O   0  0  0  0  0  0  0  0  0  0  0  0
   21.5976   72.9992   -4.3986 P   0  0  2  0  0  0  0  0  0  0  0  0
   22.5743   72.7760   -5.6700 O   0  0  0  0  0  0  0  0  0  0  0  0
   21.4882   74.4264   -3.9458 O   0  0  0  0  0  0  0  0  0  0  0  0
   20.1983   72.3268   -4.8371 O   0  0  0  0  0  0  0  0  0  0  0  0
   19.4943   70.0969   -4.4615 O   0  0  0  0  0  0  0  0  0  0  0  0
   17.4373   71.0579   -7.9131 O   0  0  0  0  0  0  0  0  0  0  0  0
   20.2262   71.8610   -7.5790 O   0  0  0  0  0  0  0  0  0  0  0  0
   16.0462   70.9700   -5.3620 O   0  0  0  0  0  0  0  0  0  0  0  0
   18.0536   71.3101   -6.6503 C   0  0  2  0  0  0  0  0  0  0  0  0
   19.5385   70.9538   -6.7253 C   0  0  2  0  0  0  0  0  0  0  0  0
   17.3513   70.4462   -5.6004 C   0  0  1  0  0  0  0  0  0  0  0  0
   20.1808   70.9913   -5.3380 C   0  0  1  0  0  0  0  0  0  0  0  0
   18.1208   70.4353   -4.2827 C   0  0  1  0  0  0  0  0  0  0  0  0
   17.8673   71.5961   -8.5962 H   0  0  0  0  0  0  0  0  0  0  0  0
   19.8236   71.8426   -8.4611 H   0  0  0  0  0  0  0  0  0  0  0  0
   15.5460   70.9825   -6.1929 H   0  0  0  0  0  0  0  0  0  0  0  0
   16.7524   68.5450   -4.0463 O   0  0  0  0  0  0  0  0  0  0  0  0
   17.9485   69.1984   -2.2183 O   0  0  0  0  0  0  0  0  0  0  0  0
   17.6217   69.3495   -3.3859 C   0  0  0  0  0  0  0  0  0  0  0  0
  1  4  1  0
  1 24  1  0
  1  2  1  1
  1  3  2  0
 25 28  1  0
 25 24  1  0
 25 26  1  6
 25 27  2  0
  6 11  1  0
  6 12  1  0
 29 36  1  0
 29 37  1  0
  9  7  1  1
  7 13  1  0
 10  8  1  1
  8 14  1  0
  4  5  1  0
 36 28  1  1
 33 30  1  6
 30 38  1  0
 34 31  1  6
 31 39  1  0
 35 32  1  1
 32 40  1  0
 41 43  1  0
 15 19  2  0
 42 43  2  0
 16 22  2  0
 12 17  1  6
 17 19  1  0
 17 20  1  0
 18 19  1  0
 18 22  1  0
 18 23  1  0
  9 10  1  0
  9 11  1  0
 10 12  1  0
 11  5  1  6
 33 34  1  0
 33 35  1  0
 34 36  1  0
 35 37  1  0
 37 43  1  1
 20 21  2  0
 21 22  1  0
M  CHG  3   2  -1  26  -1  41  -1
M  END
>  <COMPND>  (34) 
    udp_gluA.pdb 

>  <AUTHOR>  (34) 
    GENERATED BY OPEN BABEL 3.1.1

>  <MASTER>  (34) 
        0    0    0    0    0    0    0    0   56    0   56    0

>  <minimizedAffinity>  (34) 
-8.30000

>  <CNNscore>  (34) 
0.4665727019

>  <CNNaffinity>  (34) 
4.5483179092

>  <CNN_VS>  (34) 
2.1221208572

>  <CNNaffinity_variance>  (34) 
0.5351940393

$$$$
35
     RDKit          3D

 43 45  0  0  0  0  0  0  0  0999 V2000
   17.3679   70.1881   -3.4504 P   0  0  2  0  0  0  0  0  0  0  0  0
   17.9746   68.8850   -2.7069 O   0  0  0  0  0  0  0  0  0  0  0  0
   15.9680   70.5513   -3.0503 O   0  0  0  0  0  0  0  0  0  0  0  0
   17.5913   69.8776   -5.0225 O   0  0  0  0  0  0  0  0  0  0  0  0
   16.4946   70.0317   -5.9046 C   0  0  0  0  0  0  0  0  0  0  0  0
   15.9794   71.6491   -7.6064 O   0  0  0  0  0  0  0  0  0  0  0  0
   18.9010   71.5962   -8.2793 O   0  0  0  0  0  0  0  0  0  0  0  0
   18.6702   73.8789   -6.8055 O   0  0  0  0  0  0  0  0  0  0  0  0
   18.2651   71.4898   -7.0055 C   0  0  1  0  0  0  0  0  0  0  0  0
   17.7428   72.8411   -6.5658 C   0  0  2  0  0  0  0  0  0  0  0  0
   16.9792   70.6950   -7.1874 C   0  0  1  0  0  0  0  0  0  0  0  0
   16.4818   72.9791   -7.4017 C   0  0  2  0  0  0  0  0  0  0  0  0
   19.7253   72.1003   -8.1885 H   0  0  0  0  0  0  0  0  0  0  0  0
   19.4548   73.7461   -6.2498 H   0  0  0  0  0  0  0  0  0  0  0  0
   14.5152   74.4939   -8.7486 O   0  0  0  0  0  0  0  0  0  0  0  0
   12.6631   75.9506   -4.7874 O   0  0  0  0  0  0  0  0  0  0  0  0
   15.4734   73.7635   -6.7469 N   0  0  0  0  0  0  0  0  0  0  0  0
   13.5952   75.2188   -6.7744 N   0  0  0  0  0  0  0  0  0  0  0  0
   14.5324   74.4878   -7.5163 C   0  0  0  0  0  0  0  0  0  0  0  0
   15.4224   73.8087   -5.3590 C   0  0  0  0  0  0  0  0  0  0  0  0
   14.5230   74.5099   -4.6660 C   0  0  0  0  0  0  0  0  0  0  0  0
   13.5049   75.2952   -5.3940 C   0  0  0  0  0  0  0  0  0  0  0  0
   12.9310   75.7328   -7.2882 H   0  0  0  0  0  0  0  0  0  0  0  0
   18.4728   71.3277   -3.1445 O   0  0  0  0  0  0  0  0  0  0  0  0
   20.0390   71.4194   -3.5344 P   0  0  2  0  0  0  0  0  0  0  0  0
   20.1417   72.8288   -4.3240 O   0  0  0  0  0  0  0  0  0  0  0  0
   20.5513   70.2387   -4.3075 O   0  0  0  0  0  0  0  0  0  0  0  0
   20.7949   71.6814   -2.1335 O   0  0  0  0  0  0  0  0  0  0  0  0
   21.0324   70.0215   -0.4609 O   0  0  0  0  0  0  0  0  0  0  0  0
   21.4939   73.4940    1.7292 O   0  0  0  0  0  0  0  0  0  0  0  0
   19.4336   73.3070   -0.3334 O   0  0  0  0  0  0  0  0  0  0  0  0
   23.8112   71.8697    1.0637 O   0  0  0  0  0  0  0  0  0  0  0  0
   21.5878   72.6590    0.5751 C   0  0  2  0  0  0  0  0  0  0  0  0
   20.1891   72.2053    0.1565 C   0  0  2  0  0  0  0  0  0  0  0  0
   22.4541   71.4500    0.9354 C   0  0  1  0  0  0  0  0  0  0  0  0
   20.2646   71.1309   -0.9292 C   0  0  1  0  0  0  0  0  0  0  0  0
   22.3772   70.3696   -0.1395 C   0  0  1  0  0  0  0  0  0  0  0  0
   20.9478   74.2692    1.5241 H   0  0  0  0  0  0  0  0  0  0  0  0
   19.3819   73.9927    0.3503 H   0  0  0  0  0  0  0  0  0  0  0  0
   23.8739   72.5576    1.7448 H   0  0  0  0  0  0  0  0  0  0  0  0
   23.4445   69.2335    1.6132 O   0  0  0  0  0  0  0  0  0  0  0  0
   22.9628   68.0323   -0.2641 O   0  0  0  0  0  0  0  0  0  0  0  0
   22.9465   69.0820    0.3610 C   0  0  0  0  0  0  0  0  0  0  0  0
  1  4  1  0
  1 24  1  0
  1  2  1  1
  1  3  2  0
 25 28  1  0
 25 24  1  0
 25 26  1  6
 25 27  2  0
  6 11  1  0
  6 12  1  0
 29 36  1  0
 29 37  1  0
  9  7  1  6
  7 13  1  0
 10  8  1  6
  8 14  1  0
  4  5  1  0
 36 28  1  6
 33 30  1  1
 30 38  1  0
 34 31  1  6
 31 39  1  0
 35 32  1  6
 32 40  1  0
 41 43  1  0
 15 19  2  0
 42 43  2  0
 16 22  2  0
 12 17  1  1
 17 19  1  0
 17 20  1  0
 18 19  1  0
 18 22  1  0
 18 23  1  0
  9 10  1  0
  9 11  1  0
 10 12  1  0
 11  5  1  1
 33 34  1  0
 33 35  1  0
 34 36  1  0
 35 37  1  0
 37 43  1  1
 20 21  2  0
 21 22  1  0
M  CHG  3   2  -1  26  -1  41  -1
M  END
>  <COMPND>  (35) 
    udp_gluA.pdb 

>  <AUTHOR>  (35) 
    GENERATED BY OPEN BABEL 3.1.1

>  <MASTER>  (35) 
        0    0    0    0    0    0    0    0   56    0   56    0

>  <minimizedAffinity>  (35) 
-7.61329

>  <CNNscore>  (35) 
0.4072770178

>  <CNNaffinity>  (35) 
4.2956972122

>  <CNN_VS>  (35) 
1.7495387793

>  <CNNaffinity_variance>  (35) 
0.1450677216

$$$$
36
     RDKit          3D

 43 45  0  0  0  0  0  0  0  0999 V2000
   22.8093   72.6802   -3.3233 P   0  0  2  0  0  0  0  0  0  0  0  0
   23.6418   71.3558   -3.7380 O   0  0  0  0  0  0  0  0  0  0  0  0
   23.5851   73.9629   -3.3900 O   0  0  0  0  0  0  0  0  0  0  0  0
   22.1862   72.3103   -1.8766 O   0  0  0  0  0  0  0  0  0  0  0  0
   23.0714   71.9588   -0.8291 C   0  0  0  0  0  0  0  0  0  0  0  0
   23.3113   70.5332    1.0913 O   0  0  0  0  0  0  0  0  0  0  0  0
   20.4910   69.6615    0.5645 O   0  0  0  0  0  0  0  0  0  0  0  0
   20.1919   71.4458    2.6048 O   0  0  0  0  0  0  0  0  0  0  0  0
   21.0847   70.9493    0.3983 C   0  0  1  0  0  0  0  0  0  0  0  0
   21.3018   71.6041    1.7460 C   0  0  2  0  0  0  0  0  0  0  0  0
   22.5122   70.7487   -0.0921 C   0  0  1  0  0  0  0  0  0  0  0  0
   22.5398   70.8830    2.2513 C   0  0  2  0  0  0  0  0  0  0  0  0
   19.5781   69.7639    0.8774 H   0  0  0  0  0  0  0  0  0  0  0  0
   19.4299   71.9232    2.2396 H   0  0  0  0  0  0  0  0  0  0  0  0
   23.4108   70.1199    4.8273 O   0  0  0  0  0  0  0  0  0  0  0  0
   25.6052   74.1218    5.4702 O   0  0  0  0  0  0  0  0  0  0  0  0
   23.3399   71.7061    3.1134 N   0  0  0  0  0  0  0  0  0  0  0  0
   24.5020   72.1142    5.1455 N   0  0  0  0  0  0  0  0  0  0  0  0
   23.7237   71.2283    4.3888 C   0  0  0  0  0  0  0  0  0  0  0  0
   23.7372   72.9696    2.6932 C   0  0  0  0  0  0  0  0  0  0  0  0
   24.4791   73.8026    3.4256 C   0  0  0  0  0  0  0  0  0  0  0  0
   24.9215   73.3804    4.7708 C   0  0  0  0  0  0  0  0  0  0  0  0
   24.7797   71.8045    6.0378 H   0  0  0  0  0  0  0  0  0  0  0  0
   21.5223   72.6201   -4.2994 O   0  0  0  0  0  0  0  0  0  0  0  0
   21.1560   73.4681   -5.6262 P   0  0  2  0  0  0  0  0  0  0  0  0
   22.4408   73.2324   -6.5822 O   0  0  0  0  0  0  0  0  0  0  0  0
   20.8355   74.9115   -5.3657 O   0  0  0  0  0  0  0  0  0  0  0  0
   19.9670   72.6347   -6.3293 O   0  0  0  0  0  0  0  0  0  0  0  0
   19.0168   70.5743   -5.6501 O   0  0  0  0  0  0  0  0  0  0  0  0
   18.5097   70.4239   -9.7474 O   0  0  0  0  0  0  0  0  0  0  0  0
   21.0082   71.4112   -8.5998 O   0  0  0  0  0  0  0  0  0  0  0  0
   16.2464   71.0025   -8.0172 O   0  0  0  0  0  0  0  0  0  0  0  0
   18.6124   71.0512   -8.4692 C   0  0  2  0  0  0  0  0  0  0  0  0
   19.9839   70.7543   -7.8622 C   0  0  2  0  0  0  0  0  0  0  0  0
   17.5028   70.4908   -7.5767 C   0  0  1  0  0  0  0  0  0  0  0  0
   20.0478   71.2125   -6.4045 C   0  0  1  0  0  0  0  0  0  0  0  0
   17.7070   70.8886   -6.1178 C   0  0  1  0  0  0  0  0  0  0  0  0
   19.2052   70.7645  -10.3318 H   0  0  0  0  0  0  0  0  0  0  0  0
   20.9733   71.1254   -9.5258 H   0  0  0  0  0  0  0  0  0  0  0  0
   16.1042   70.7564   -8.9446 H   0  0  0  0  0  0  0  0  0  0  0  0
   16.7870   70.6219   -3.9768 O   0  0  0  0  0  0  0  0  0  0  0  0
   16.2224   69.0728   -5.5518 O   0  0  0  0  0  0  0  0  0  0  0  0
   16.8274   70.0811   -5.2197 C   0  0  0  0  0  0  0  0  0  0  0  0
  1  4  1  0
  1 24  1  0
  1  2  1  6
  1  3  2  0
 25 28  1  0
 25 24  1  0
 25 26  1  6
 25 27  2  0
  6 11  1  0
  6 12  1  0
 29 36  1  0
 29 37  1  0
  9  7  1  1
  7 13  1  0
 10  8  1  1
  8 14  1  0
  4  5  1  0
 36 28  1  6
 33 30  1  6
 30 38  1  0
 34 31  1  6
 31 39  1  0
 35 32  1  6
 32 40  1  0
 41 43  1  0
 15 19  2  0
 42 43  2  0
 16 22  2  0
 12 17  1  1
 17 19  1  0
 17 20  1  0
 18 19  1  0
 18 22  1  0
 18 23  1  0
  9 10  1  0
  9 11  1  0
 10 12  1  0
 11  5  1  1
 33 34  1  0
 33 35  1  0
 34 36  1  0
 35 37  1  0
 37 43  1  1
 20 21  2  0
 21 22  1  0
M  CHG  3   2  -1  26  -1  41  -1
M  END
>  <COMPND>  (36) 
    udp_gluA.pdb 

>  <AUTHOR>  (36) 
    GENERATED BY OPEN BABEL 3.1.1

>  <MASTER>  (36) 
        0    0    0    0    0    0    0    0   56    0   56    0

>  <minimizedAffinity>  (36) 
-9.06494

>  <CNNscore>  (36) 
0.3996899128

>  <CNNaffinity>  (36) 
4.2055850029

>  <CNN_VS>  (36) 
1.6809298992

>  <CNNaffinity_variance>  (36) 
0.1033388525

$$$$
37
     RDKit          3D

 43 45  0  0  0  0  0  0  0  0999 V2000
   22.4921   72.9577   -2.7848 P   0  0  2  0  0  0  0  0  0  0  0  0
   23.3220   71.6078   -3.1136 O   0  0  0  0  0  0  0  0  0  0  0  0
   23.3037   74.2198   -2.7992 O   0  0  0  0  0  0  0  0  0  0  0  0
   21.7400   72.6218   -1.3921 O   0  0  0  0  0  0  0  0  0  0  0  0
   22.5180   72.5031   -0.2151 C   0  0  0  0  0  0  0  0  0  0  0  0
   22.8028   70.5767    1.1940 O   0  0  0  0  0  0  0  0  0  0  0  0
   20.2463   71.4036    2.5251 O   0  0  0  0  0  0  0  0  0  0  0  0
   22.1421   72.2875    4.2747 O   0  0  0  0  0  0  0  0  0  0  0  0
   21.2942   72.2169    1.9969 C   0  0  1  0  0  0  0  0  0  0  0  0
   22.4993   72.1791    2.9126 C   0  0  2  0  0  0  0  0  0  0  0  0
   21.8268   71.5399    0.7414 C   0  0  1  0  0  0  0  0  0  0  0  0
   23.1106   70.8302    2.5740 C   0  0  2  0  0  0  0  0  0  0  0  0
   19.8902   71.8159    3.3281 H   0  0  0  0  0  0  0  0  0  0  0  0
   21.7581   73.1635    4.4395 H   0  0  0  0  0  0  0  0  0  0  0  0
   24.5728   68.6400    3.5946 O   0  0  0  0  0  0  0  0  0  0  0  0
   28.5759   70.8876    3.1856 O   0  0  0  0  0  0  0  0  0  0  0  0
   24.5359   70.8160    2.7448 N   0  0  0  0  0  0  0  0  0  0  0  0
   26.5651   69.7619    3.3908 N   0  0  0  0  0  0  0  0  0  0  0  0
   25.1729   69.6651    3.2660 C   0  0  0  0  0  0  0  0  0  0  0  0
   25.2873   71.9318    2.3963 C   0  0  0  0  0  0  0  0  0  0  0  0
   26.6136   72.0091    2.5209 C   0  0  0  0  0  0  0  0  0  0  0  0
   27.3558   70.8500    3.0585 C   0  0  0  0  0  0  0  0  0  0  0  0
   27.0306   68.9738    3.7535 H   0  0  0  0  0  0  0  0  0  0  0  0
   21.2906   72.9173   -3.8654 O   0  0  0  0  0  0  0  0  0  0  0  0
   21.1970   73.4994   -5.3708 P   0  0  2  0  0  0  0  0  0  0  0  0
   22.5282   72.9101   -6.0786 O   0  0  0  0  0  0  0  0  0  0  0  0
   21.0660   74.9931   -5.4464 O   0  0  0  0  0  0  0  0  0  0  0  0
   19.9807   72.6855   -6.0494 O   0  0  0  0  0  0  0  0  0  0  0  0
   19.0301   70.5746   -5.5496 O   0  0  0  0  0  0  0  0  0  0  0  0
   18.6812   70.7007   -9.6643 O   0  0  0  0  0  0  0  0  0  0  0  0
   21.1222   71.6304   -8.3559 O   0  0  0  0  0  0  0  0  0  0  0  0
   16.3469   71.1382   -7.9878 O   0  0  0  0  0  0  0  0  0  0  0  0
   18.7277   71.2399   -8.3433 C   0  0  2  0  0  0  0  0  0  0  0  0
   20.0785   70.9149   -7.7051 C   0  0  2  0  0  0  0  0  0  0  0  0
   17.5917   70.6092   -7.5348 C   0  0  1  0  0  0  0  0  0  0  0  0
   20.0814   71.2727   -6.2182 C   0  0  1  0  0  0  0  0  0  0  0  0
   17.7354   70.9079   -6.0453 C   0  0  1  0  0  0  0  0  0  0  0  0
   19.3944   71.0871  -10.1967 H   0  0  0  0  0  0  0  0  0  0  0  0
   21.1260   71.4084   -9.2999 H   0  0  0  0  0  0  0  0  0  0  0  0
   16.2431   70.9550   -8.9347 H   0  0  0  0  0  0  0  0  0  0  0  0
   16.7471   70.4796   -3.9617 O   0  0  0  0  0  0  0  0  0  0  0  0
   16.2448   69.0492   -5.6649 O   0  0  0  0  0  0  0  0  0  0  0  0
   16.8320   70.0325   -5.2392 C   0  0  0  0  0  0  0  0  0  0  0  0
  1  4  1  0
  1 24  1  0
  1  2  1  6
  1  3  2  0
 25 28  1  0
 25 24  1  0
 25 26  1  6
 25 27  2  0
  6 11  1  0
  6 12  1  0
 29 36  1  0
 29 37  1  0
  9  7  1  1
  7 13  1  0
 10  8  1  1
  8 14  1  0
  4  5  1  0
 36 28  1  6
 33 30  1  6
 30 38  1  0
 34 31  1  6
 31 39  1  0
 35 32  1  6
 32 40  1  0
 41 43  1  0
 15 19  2  0
 42 43  2  0
 16 22  2  0
 12 17  1  6
 17 19  1  0
 17 20  1  0
 18 19  1  0
 18 22  1  0
 18 23  1  0
  9 10  1  0
  9 11  1  0
 10 12  1  0
 11  5  1  6
 33 34  1  0
 33 35  1  0
 34 36  1  0
 35 37  1  0
 37 43  1  1
 20 21  2  0
 21 22  1  0
M  CHG  3   2  -1  26  -1  41  -1
M  END
>  <COMPND>  (37) 
    udp_gluA.pdb 

>  <AUTHOR>  (37) 
    GENERATED BY OPEN BABEL 3.1.1

>  <MASTER>  (37) 
        0    0    0    0    0    0    0    0   56    0   56    0

>  <minimizedAffinity>  (37) 
-8.52015

>  <CNNscore>  (37) 
0.3979243338

>  <CNNaffinity>  (37) 
4.3816137314

>  <CNN_VS>  (37) 
1.7435507774

>  <CNNaffinity_variance>  (37) 
0.0178317912

$$$$
38
     RDKit          3D

 43 45  0  0  0  0  0  0  0  0999 V2000
   20.8600   73.3137   -1.9153 P   0  0  2  0  0  0  0  0  0  0  0  0
   20.5602   74.8119   -1.3822 O   0  0  0  0  0  0  0  0  0  0  0  0
   19.7158   72.3523   -1.7801 O   0  0  0  0  0  0  0  0  0  0  0  0
   22.2235   72.8951   -1.1513 O   0  0  0  0  0  0  0  0  0  0  0  0
   22.3483   73.2009    0.2255 C   0  0  0  0  0  0  0  0  0  0  0  0
   22.6122   71.0356    1.2353 O   0  0  0  0  0  0  0  0  0  0  0  0
   20.2006   71.7157    2.8825 O   0  0  0  0  0  0  0  0  0  0  0  0
   22.2549   72.1732    4.6165 O   0  0  0  0  0  0  0  0  0  0  0  0
   21.2572   72.5647    2.4340 C   0  0  1  0  0  0  0  0  0  0  0  0
   22.5154   72.3033    3.2346 C   0  0  2  0  0  0  0  0  0  0  0  0
   21.6663   72.1091    1.0399 C   0  0  1  0  0  0  0  0  0  0  0  0
   23.0237   71.0145    2.6114 C   0  0  2  0  0  0  0  0  0  0  0  0
   19.9223   71.9874    3.7716 H   0  0  0  0  0  0  0  0  0  0  0  0
   21.9341   73.0198    4.9662 H   0  0  0  0  0  0  0  0  0  0  0  0
   24.4111   68.7872    3.6558 O   0  0  0  0  0  0  0  0  0  0  0  0
   28.5119   70.7017    2.7832 O   0  0  0  0  0  0  0  0  0  0  0  0
   24.4539   70.9046    2.6693 N   0  0  0  0  0  0  0  0  0  0  0  0
   26.4522   69.7433    3.2211 N   0  0  0  0  0  0  0  0  0  0  0  0
   25.0511   69.7431    3.2136 C   0  0  0  0  0  0  0  0  0  0  0  0
   25.2490   71.9383    2.1894 C   0  0  0  0  0  0  0  0  0  0  0  0
   26.5833   71.9240    2.2032 C   0  0  0  0  0  0  0  0  0  0  0  0
   27.2858   70.7474    2.7559 C   0  0  0  0  0  0  0  0  0  0  0  0
   26.8907   68.9460    3.5971 H   0  0  0  0  0  0  0  0  0  0  0  0
   21.3557   73.5612   -3.4338 O   0  0  0  0  0  0  0  0  0  0  0  0
   21.6236   72.5246   -4.6452 P   0  0  2  0  0  0  0  0  0  0  0  0
   22.0702   71.1696   -3.8805 O   0  0  0  0  0  0  0  0  0  0  0  0
   22.6103   73.0124   -5.6661 O   0  0  0  0  0  0  0  0  0  0  0  0
   20.1582   72.1957   -5.2341 O   0  0  0  0  0  0  0  0  0  0  0  0
   19.1700   70.1277   -4.6376 O   0  0  0  0  0  0  0  0  0  0  0  0
   16.7775   71.3256   -7.7854 O   0  0  0  0  0  0  0  0  0  0  0  0
   19.6771   71.6561   -7.9199 O   0  0  0  0  0  0  0  0  0  0  0  0
   15.8109   71.5442   -5.0525 O   0  0  0  0  0  0  0  0  0  0  0  0
   17.6180   71.5053   -6.6456 C   0  0  2  0  0  0  0  0  0  0  0  0
   18.9948   70.9018   -6.9247 C   0  0  2  0  0  0  0  0  0  0  0  0
   16.9596   70.8015   -5.4569 C   0  0  1  0  0  0  0  0  0  0  0  0
   19.8455   70.8689   -5.6543 C   0  0  1  0  0  0  0  0  0  0  0  0
   17.9152   70.6977   -4.2718 C   0  0  1  0  0  0  0  0  0  0  0  0
   17.1759   71.7645   -8.5535 H   0  0  0  0  0  0  0  0  0  0  0  0
   19.1428   71.6814   -8.7287 H   0  0  0  0  0  0  0  0  0  0  0  0
   15.1946   71.6178   -5.7979 H   0  0  0  0  0  0  0  0  0  0  0  0
   16.4016   70.3036   -2.5239 O   0  0  0  0  0  0  0  0  0  0  0  0
   17.8000   68.5952   -3.0938 O   0  0  0  0  0  0  0  0  0  0  0  0
   17.3945   69.7368   -3.2530 C   0  0  0  0  0  0  0  0  0  0  0  0
  1  4  1  0
  1 24  1  0
  1  2  1  1
  1  3  2  0
 25 28  1  0
 25 24  1  0
 25 26  1  1
 25 27  2  0
  6 11  1  0
  6 12  1  0
 29 36  1  0
 29 37  1  0
  9  7  1  1
  7 13  1  0
 10  8  1  1
  8 14  1  0
  4  5  1  0
 36 28  1  1
 33 30  1  6
 30 38  1  0
 34 31  1  6
 31 39  1  0
 35 32  1  1
 32 40  1  0
 41 43  1  0
 15 19  2  0
 42 43  2  0
 16 22  2  0
 12 17  1  6
 17 19  1  0
 17 20  1  0
 18 19  1  0
 18 22  1  0
 18 23  1  0
  9 10  1  0
  9 11  1  0
 10 12  1  0
 11  5  1  1
 33 34  1  0
 33 35  1  0
 34 36  1  0
 35 37  1  0
 37 43  1  1
 20 21  2  0
 21 22  1  0
M  CHG  3   2  -1  26  -1  41  -1
M  END
>  <COMPND>  (38) 
    udp_gluA.pdb 

>  <AUTHOR>  (38) 
    GENERATED BY OPEN BABEL 3.1.1

>  <MASTER>  (38) 
        0    0    0    0    0    0    0    0   56    0   56    0

>  <minimizedAffinity>  (38) 
-8.11305

>  <CNNscore>  (38) 
0.3801167011

>  <CNNaffinity>  (38) 
4.3020243645

>  <CNN_VS>  (38) 
1.6352713108

>  <CNNaffinity_variance>  (38) 
0.2144468576

$$$$
39
     RDKit          3D

 43 45  0  0  0  0  0  0  0  0999 V2000
   21.1603   70.7258    0.6025 P   0  0  2  0  0  0  0  0  0  0  0  0
   19.8076   71.4933    1.0495 O   0  0  0  0  0  0  0  0  0  0  0  0
   21.0234   69.2396    0.4465 O   0  0  0  0  0  0  0  0  0  0  0  0
   22.2618   71.2206    1.6795 O   0  0  0  0  0  0  0  0  0  0  0  0
   23.5837   70.7256    1.5707 C   0  0  0  0  0  0  0  0  0  0  0  0
   25.4388   70.3175    3.0437 O   0  0  0  0  0  0  0  0  0  0  0  0
   23.3998   69.9839    5.2168 O   0  0  0  0  0  0  0  0  0  0  0  0
   24.3186   72.5153    5.6454 O   0  0  0  0  0  0  0  0  0  0  0  0
   23.3957   70.8775    4.1033 C   0  0  1  0  0  0  0  0  0  0  0  0
   24.3825   72.0030    4.3309 C   0  0  2  0  0  0  0  0  0  0  0  0
   24.0102   70.1503    2.9151 C   0  0  1  0  0  0  0  0  0  0  0  0
   25.7086   71.3251    4.0313 C   0  0  2  0  0  0  0  0  0  0  0  0
   23.0116   70.4264    5.9883 H   0  0  0  0  0  0  0  0  0  0  0  0
   23.4558   72.9368    5.7865 H   0  0  0  0  0  0  0  0  0  0  0  0
   27.2288   73.1045    5.6122 O   0  0  0  0  0  0  0  0  0  0  0  0
   29.4297   74.7859    1.9281 O   0  0  0  0  0  0  0  0  0  0  0  0
   26.6860   72.2389    3.5111 N   0  0  0  0  0  0  0  0  0  0  0  0
   28.3228   73.9409    3.7757 N   0  0  0  0  0  0  0  0  0  0  0  0
   27.3950   73.0904    4.3911 C   0  0  0  0  0  0  0  0  0  0  0  0
   26.9351   72.2843    2.1448 C   0  0  0  0  0  0  0  0  0  0  0  0
   27.8227   73.1003    1.5729 C   0  0  0  0  0  0  0  0  0  0  0  0
   28.6050   74.0228    2.4217 C   0  0  0  0  0  0  0  0  0  0  0  0
   28.8272   74.5446    4.3678 H   0  0  0  0  0  0  0  0  0  0  0  0
   21.5927   71.5073   -0.7447 O   0  0  0  0  0  0  0  0  0  0  0  0
   21.0593   71.3765   -2.2653 P   0  0  2  0  0  0  0  0  0  0  0  0
   21.6095   69.9257   -2.7267 O   0  0  0  0  0  0  0  0  0  0  0  0
   21.4714   72.5079   -3.1619 O   0  0  0  0  0  0  0  0  0  0  0  0
   19.4642   71.1810   -2.1241 O   0  0  0  0  0  0  0  0  0  0  0  0
   18.3894   72.2454   -3.9464 O   0  0  0  0  0  0  0  0  0  0  0  0
   15.1680   70.8411   -1.7741 O   0  0  0  0  0  0  0  0  0  0  0  0
   17.4509   72.0591   -0.4178 O   0  0  0  0  0  0  0  0  0  0  0  0
   15.9828   69.4889   -4.2151 O   0  0  0  0  0  0  0  0  0  0  0  0
   16.5023   70.8291   -2.2815 C   0  0  2  0  0  0  0  0  0  0  0  0
   17.2352   72.0905   -1.8239 C   0  0  2  0  0  0  0  0  0  0  0  0
   16.4268   70.7822   -3.8093 C   0  0  1  0  0  0  0  0  0  0  0  0
   18.5840   72.2268   -2.5317 C   0  0  1  0  0  0  0  0  0  0  0  0
   17.7887   71.0513   -4.4429 C   0  0  1  0  0  0  0  0  0  0  0  0
   15.1909   70.8709   -0.8046 H   0  0  0  0  0  0  0  0  0  0  0  0
   16.5991   71.9724    0.0377 H   0  0  0  0  0  0  0  0  0  0  0  0
   15.1169   69.3051   -3.8185 H   0  0  0  0  0  0  0  0  0  0  0  0
   16.9725   72.4867   -6.1087 O   0  0  0  0  0  0  0  0  0  0  0  0
   18.0817   70.6177   -6.7982 O   0  0  0  0  0  0  0  0  0  0  0  0
   17.6483   71.3290   -5.9042 C   0  0  0  0  0  0  0  0  0  0  0  0
  1  4  1  0
  1 24  1  0
  1  2  1  1
  1  3  2  0
 25 28  1  0
 25 24  1  0
 25 26  1  6
 25 27  2  0
  6 11  1  0
  6 12  1  0
 29 36  1  0
 29 37  1  0
  9  7  1  1
  7 13  1  0
 10  8  1  1
  8 14  1  0
  4  5  1  0
 36 28  1  6
 33 30  1  1
 30 38  1  0
 34 31  1  1
 31 39  1  0
 35 32  1  1
 32 40  1  0
 41 43  1  0
 15 19  2  0
 42 43  2  0
 16 22  2  0
 12 17  1  6
 17 19  1  0
 17 20  1  0
 18 19  1  0
 18 22  1  0
 18 23  1  0
  9 10  1  0
  9 11  1  0
 10 12  1  0
 11  5  1  6
 33 34  1  0
 33 35  1  0
 34 36  1  0
 35 37  1  0
 37 43  1  6
 20 21  2  0
 21 22  1  0
M  CHG  3   2  -1  26  -1  41  -1
M  END
>  <COMPND>  (39) 
    udp_gluA.pdb 

>  <AUTHOR>  (39) 
    GENERATED BY OPEN BABEL 3.1.1

>  <MASTER>  (39) 
        0    0    0    0    0    0    0    0   56    0   56    0

>  <minimizedAffinity>  (39) 
-7.69237

>  <CNNscore>  (39) 
0.3612710536

>  <CNNaffinity>  (39) 
4.2858839035

>  <CNN_VS>  (39) 
1.5483658314

>  <CNNaffinity_variance>  (39) 
0.0441904850

$$$$
40
     RDKit          3D

 43 45  0  0  0  0  0  0  0  0999 V2000
   20.7079   71.5024   -2.2028 P   0  0  2  0  0  0  0  0  0  0  0  0
   21.4160   70.0813   -2.5157 O   0  0  0  0  0  0  0  0  0  0  0  0
   19.2966   71.4103   -1.7013 O   0  0  0  0  0  0  0  0  0  0  0  0
   20.9152   72.3483   -3.5664 O   0  0  0  0  0  0  0  0  0  0  0  0
   20.1270   73.5067   -3.7699 C   0  0  0  0  0  0  0  0  0  0  0  0
   19.6683   72.4905   -5.8994 O   0  0  0  0  0  0  0  0  0  0  0  0
   19.1052   75.2634   -6.8921 O   0  0  0  0  0  0  0  0  0  0  0  0
   16.6038   74.2569   -6.4847 O   0  0  0  0  0  0  0  0  0  0  0  0
   18.8326   74.6885   -5.6139 C   0  0  1  0  0  0  0  0  0  0  0  0
   17.6609   73.7343   -5.7076 C   0  0  2  0  0  0  0  0  0  0  0  0
   19.9804   73.7504   -5.2664 C   0  0  1  0  0  0  0  0  0  0  0  0
   18.3010   72.5098   -6.3391 C   0  0  2  0  0  0  0  0  0  0  0  0
   18.3853   75.8668   -7.1357 H   0  0  0  0  0  0  0  0  0  0  0  0
   16.2296   75.0344   -6.0403 H   0  0  0  0  0  0  0  0  0  0  0  0
   16.0570   71.3801   -7.6294 O   0  0  0  0  0  0  0  0  0  0  0  0
   15.9379   67.8205   -4.7039 O   0  0  0  0  0  0  0  0  0  0  0  0
   17.6635   71.2885   -5.9355 N   0  0  0  0  0  0  0  0  0  0  0  0
   15.9992   69.6088   -6.1705 N   0  0  0  0  0  0  0  0  0  0  0  0
   16.5419   70.8076   -6.6516 C   0  0  0  0  0  0  0  0  0  0  0  0
   18.1500   70.5802   -4.8434 C   0  0  0  0  0  0  0  0  0  0  0  0
   17.6221   69.4389   -4.3967 C   0  0  0  0  0  0  0  0  0  0  0  0
   16.4475   68.8687   -5.0884 C   0  0  0  0  0  0  0  0  0  0  0  0
   15.2164   69.2553   -6.6516 H   0  0  0  0  0  0  0  0  0  0  0  0
   21.7420   72.2054   -1.1784 O   0  0  0  0  0  0  0  0  0  0  0  0
   21.6194   72.5234    0.4019 P   0  0  2  0  0  0  0  0  0  0  0  0
   21.1849   71.0977    1.0336 O   0  0  0  0  0  0  0  0  0  0  0  0
   20.6897   73.6551    0.7320 O   0  0  0  0  0  0  0  0  0  0  0  0
   23.1400   72.7408    0.8949 O   0  0  0  0  0  0  0  0  0  0  0  0
   23.3374   72.0089    3.1387 O   0  0  0  0  0  0  0  0  0  0  0  0
   27.1496   73.4039    2.3709 O   0  0  0  0  0  0  0  0  0  0  0  0
   24.8132   74.8934    1.4450 O   0  0  0  0  0  0  0  0  0  0  0  0
   26.6274   70.5449    2.4351 O   0  0  0  0  0  0  0  0  0  0  0  0
   25.8918   72.8074    2.0543 C   0  0  2  0  0  0  0  0  0  0  0  0
   24.7661   73.7981    2.3521 C   0  0  2  0  0  0  0  0  0  0  0  0
   25.7353   71.5501    2.9127 C   0  0  1  0  0  0  0  0  0  0  0  0
   23.3990   73.1212    2.2451 C   0  0  1  0  0  0  0  0  0  0  0  0
   24.3105   71.0072    2.8509 C   0  0  1  0  0  0  0  0  0  0  0  0
   27.2711   74.2050    1.8373 H   0  0  0  0  0  0  0  0  0  0  0  0
   25.6781   75.3274    1.5075 H   0  0  0  0  0  0  0  0  0  0  0  0
   27.5378   70.8778    2.4691 H   0  0  0  0  0  0  0  0  0  0  0  0
   24.6595   68.8138    3.6050 O   0  0  0  0  0  0  0  0  0  0  0  0
   23.4601   70.2011    4.9600 O   0  0  0  0  0  0  0  0  0  0  0  0
   24.0806   69.9970    3.9274 C   0  0  0  0  0  0  0  0  0  0  0  0
  1  4  1  0
  1 24  1  0
  1  2  1  6
  1  3  2  0
 25 28  1  0
 25 24  1  0
 25 26  1  1
 25 27  2  0
  6 11  1  0
  6 12  1  0
 29 36  1  0
 29 37  1  0
  9  7  1  6
  7 13  1  0
 10  8  1  6
  8 14  1  0
  4  5  1  0
 36 28  1  6
 33 30  1  1
 30 38  1  0
 34 31  1  6
 31 39  1  0
 35 32  1  6
 32 40  1  0
 41 43  1  0
 15 19  2  0
 42 43  2  0
 16 22  2  0
 12 17  1  1
 17 19  1  0
 17 20  1  0
 18 19  1  0
 18 22  1  0
 18 23  1  0
  9 10  1  0
  9 11  1  0
 10 12  1  0
 11  5  1  1
 33 34  1  0
 33 35  1  0
 34 36  1  0
 35 37  1  0
 37 43  1  1
 20 21  2  0
 21 22  1  0
M  CHG  3   2  -1  26  -1  41  -1
M  END
>  <COMPND>  (40) 
    udp_gluA.pdb 

>  <AUTHOR>  (40) 
    GENERATED BY OPEN BABEL 3.1.1

>  <MASTER>  (40) 
        0    0    0    0    0    0    0    0   56    0   56    0

>  <minimizedAffinity>  (40) 
-7.55837

>  <CNNscore>  (40) 
0.3522073925

>  <CNNaffinity>  (40) 
4.1513319016

>  <CNN_VS>  (40) 
1.4621298313

>  <CNNaffinity_variance>  (40) 
0.0368869044

$$$$
41
     RDKit          3D

 43 45  0  0  0  0  0  0  0  0999 V2000
   24.0601   70.3838    1.8554 P   0  0  2  0  0  0  0  0  0  0  0  0
   22.9449   71.4655    2.3084 O   0  0  0  0  0  0  0  0  0  0  0  0
   24.1180   69.1430    2.6973 O   0  0  0  0  0  0  0  0  0  0  0  0
   25.4277   71.2449    1.7781 O   0  0  0  0  0  0  0  0  0  0  0  0
   26.5976   70.7104    2.3698 C   0  0  0  0  0  0  0  0  0  0  0  0
   28.5040   71.3140    3.7037 O   0  0  0  0  0  0  0  0  0  0  0  0
   27.3044   74.0587    3.8419 O   0  0  0  0  0  0  0  0  0  0  0  0
   29.2316   74.3461    1.9342 O   0  0  0  0  0  0  0  0  0  0  0  0
   27.2998   73.1239    2.7628 C   0  0  1  0  0  0  0  0  0  0  0  0
   28.6670   73.0643    2.1151 C   0  0  2  0  0  0  0  0  0  0  0  0
   27.1654   71.7265    3.3524 C   0  0  1  0  0  0  0  0  0  0  0  0
   29.4478   72.2157    3.1042 C   0  0  2  0  0  0  0  0  0  0  0  0
   27.3894   74.9590    3.4899 H   0  0  0  0  0  0  0  0  0  0  0  0
   28.6988   74.8469    1.2960 H   0  0  0  0  0  0  0  0  0  0  0  0
   32.1288   72.1294    3.9882 O   0  0  0  0  0  0  0  0  0  0  0  0
   33.3453   69.2525    0.5989 O   0  0  0  0  0  0  0  0  0  0  0  0
   30.4859   71.4523    2.4714 N   0  0  0  0  0  0  0  0  0  0  0  0
   32.7324   70.6975    2.2987 N   0  0  0  0  0  0  0  0  0  0  0  0
   31.8001   71.4779    2.9951 C   0  0  0  0  0  0  0  0  0  0  0  0
   30.1977   70.6884    1.3469 C   0  0  0  0  0  0  0  0  0  0  0  0
   31.0970   69.9496    0.6939 C   0  0  0  0  0  0  0  0  0  0  0  0
   32.4936   69.9219    1.1757 C   0  0  0  0  0  0  0  0  0  0  0  0
   33.6546   70.7010    2.6433 H   0  0  0  0  0  0  0  0  0  0  0  0
   23.7046   70.1260    0.2998 O   0  0  0  0  0  0  0  0  0  0  0  0
   22.7171   69.0541   -0.3998 P   0  0  2  0  0  0  0  0  0  0  0  0
   21.5077   68.9141    0.6670 O   0  0  0  0  0  0  0  0  0  0  0  0
   23.3760   67.7545   -0.7617 O   0  0  0  0  0  0  0  0  0  0  0  0
   22.0701   69.8468   -1.6470 O   0  0  0  0  0  0  0  0  0  0  0  0
   22.2410   72.1150   -2.3068 O   0  0  0  0  0  0  0  0  0  0  0  0
   18.3770   71.1973   -3.4448 O   0  0  0  0  0  0  0  0  0  0  0  0
   19.4280   70.2631   -0.8841 O   0  0  0  0  0  0  0  0  0  0  0  0
   20.4781   71.3980   -5.4438 O   0  0  0  0  0  0  0  0  0  0  0  0
   19.7575   70.9368   -3.1914 C   0  0  2  0  0  0  0  0  0  0  0  0
   20.0700   71.2178   -1.7214 C   0  0  2  0  0  0  0  0  0  0  0  0
   20.5853   71.8524   -4.0960 C   0  0  1  0  0  0  0  0  0  0  0  0
   21.5768   71.1727   -1.4640 C   0  0  1  0  0  0  0  0  0  0  0  0
   22.0578   71.8480   -3.6954 C   0  0  1  0  0  0  0  0  0  0  0  0
   17.8313   70.6266   -2.8809 H   0  0  0  0  0  0  0  0  0  0  0  0
   18.4716   70.2861   -1.0424 H   0  0  0  0  0  0  0  0  0  0  0  0
   19.5457   71.3959   -5.7111 H   0  0  0  0  0  0  0  0  0  0  0  0
   21.9351   73.9733   -4.6802 O   0  0  0  0  0  0  0  0  0  0  0  0
   23.9923   72.9965   -4.5671 O   0  0  0  0  0  0  0  0  0  0  0  0
   22.7897   72.9726   -4.3527 C   0  0  0  0  0  0  0  0  0  0  0  0
  1  4  1  0
  1 24  1  0
  1  2  1  1
  1  3  2  0
 25 28  1  0
 25 24  1  0
 25 26  1  1
 25 27  2  0
  6 11  1  0
  6 12  1  0
 29 36  1  0
 29 37  1  0
  9  7  1  1
  7 13  1  0
 10  8  1  1
  8 14  1  0
  4  5  1  0
 36 28  1  6
 33 30  1  1
 30 38  1  0
 34 31  1  1
 31 39  1  0
 35 32  1  6
 32 40  1  0
 41 43  1  0
 15 19  2  0
 42 43  2  0
 16 22  2  0
 12 17  1  6
 17 19  1  0
 17 20  1  0
 18 19  1  0
 18 22  1  0
 18 23  1  0
  9 10  1  0
  9 11  1  0
 10 12  1  0
 11  5  1  6
 33 34  1  0
 33 35  1  0
 34 36  1  0
 35 37  1  0
 37 43  1  6
 20 21  2  0
 21 22  1  0
M  CHG  3   2  -1  26  -1  41  -1
M  END
>  <COMPND>  (41) 
    udp_gluA.pdb 

>  <AUTHOR>  (41) 
    GENERATED BY OPEN BABEL 3.1.1

>  <MASTER>  (41) 
        0    0    0    0    0    0    0    0   56    0   56    0

>  <minimizedAffinity>  (41) 
-9.10092

>  <CNNscore>  (41) 
0.8247890472

>  <CNNaffinity>  (41) 
5.0028328896

>  <CNN_VS>  (41) 
4.1262817383

>  <CNNaffinity_variance>  (41) 
0.1536496282

$$$$
42
     RDKit          3D

 43 45  0  0  0  0  0  0  0  0999 V2000
   23.9820   70.3891    2.4454 P   0  0  2  0  0  0  0  0  0  0  0  0
   23.4813   71.1862    3.7617 O   0  0  0  0  0  0  0  0  0  0  0  0
   24.0045   68.8947    2.5800 O   0  0  0  0  0  0  0  0  0  0  0  0
   25.3985   71.0836    2.0860 O   0  0  0  0  0  0  0  0  0  0  0  0
   26.5678   70.6041    2.7242 C   0  0  0  0  0  0  0  0  0  0  0  0
   28.5208   71.3777    3.8926 O   0  0  0  0  0  0  0  0  0  0  0  0
   27.2164   74.0778    3.9036 O   0  0  0  0  0  0  0  0  0  0  0  0
   29.0165   74.2939    1.8666 O   0  0  0  0  0  0  0  0  0  0  0  0
   27.1891   73.0651    2.8975 C   0  0  1  0  0  0  0  0  0  0  0  0
   28.5179   73.0088    2.1741 C   0  0  2  0  0  0  0  0  0  0  0  0
   27.1480   71.7118    3.5941 C   0  0  1  0  0  0  0  0  0  0  0  0
   29.3896   72.2670    3.1730 C   0  0  2  0  0  0  0  0  0  0  0  0
   27.2429   74.9517    3.4826 H   0  0  0  0  0  0  0  0  0  0  0  0
   28.4271   74.7249    1.2272 H   0  0  0  0  0  0  0  0  0  0  0  0
   32.0702   72.1528    4.0551 O   0  0  0  0  0  0  0  0  0  0  0  0
   33.2601   69.2837    0.6498 O   0  0  0  0  0  0  0  0  0  0  0  0
   30.4207   71.4980    2.5356 N   0  0  0  0  0  0  0  0  0  0  0  0
   32.6605   70.7248    2.3576 N   0  0  0  0  0  0  0  0  0  0  0  0
   31.7353   71.5094    3.0586 C   0  0  0  0  0  0  0  0  0  0  0  0
   30.1254   70.7427    1.4072 C   0  0  0  0  0  0  0  0  0  0  0  0
   31.0179   69.9996    0.7498 C   0  0  0  0  0  0  0  0  0  0  0  0
   32.4144   69.9573    1.2306 C   0  0  0  0  0  0  0  0  0  0  0  0
   33.5829   70.7185    2.7017 H   0  0  0  0  0  0  0  0  0  0  0  0
   23.0003   70.9462    1.2884 O   0  0  0  0  0  0  0  0  0  0  0  0
   21.4787   70.5541    0.9078 P   0  0  2  0  0  0  0  0  0  0  0  0
   20.6094   71.2791    2.0649 O   0  0  0  0  0  0  0  0  0  0  0  0
   21.2356   69.0777    0.7852 O   0  0  0  0  0  0  0  0  0  0  0  0
   21.1608   71.3983   -0.4296 O   0  0  0  0  0  0  0  0  0  0  0  0
   21.2739   70.4128   -2.5802 O   0  0  0  0  0  0  0  0  0  0  0  0
   21.5728   74.4336   -3.4812 O   0  0  0  0  0  0  0  0  0  0  0  0
   23.0219   73.3144   -1.2049 O   0  0  0  0  0  0  0  0  0  0  0  0
   19.0805   73.0138   -3.9536 O   0  0  0  0  0  0  0  0  0  0  0  0
   21.1421   73.2931   -2.7385 C   0  0  2  0  0  0  0  0  0  0  0  0
   22.3607   72.5426   -2.2007 C   0  0  2  0  0  0  0  0  0  0  0  0
   20.3352   72.3941   -3.6779 C   0  0  1  0  0  0  0  0  0  0  0  0
   21.9529   71.1972   -1.5988 C   0  0  1  0  0  0  0  0  0  0  0  0
   20.0768   71.0257   -3.0539 C   0  0  1  0  0  0  0  0  0  0  0  0
   22.0879   75.0196   -2.9046 H   0  0  0  0  0  0  0  0  0  0  0  0
   23.2833   74.1696   -1.5799 H   0  0  0  0  0  0  0  0  0  0  0  0
   19.2308   73.8857   -4.3509 H   0  0  0  0  0  0  0  0  0  0  0  0
   19.8911   70.4918   -5.3303 O   0  0  0  0  0  0  0  0  0  0  0  0
   18.9988   69.0152   -3.8395 O   0  0  0  0  0  0  0  0  0  0  0  0
   19.5883   70.0577   -4.0818 C   0  0  0  0  0  0  0  0  0  0  0  0
  1  4  1  0
  1 24  1  0
  1  2  1  1
  1  3  2  0
 25 28  1  0
 25 24  1  0
 25 26  1  1
 25 27  2  0
  6 11  1  0
  6 12  1  0
 29 36  1  0
 29 37  1  0
  9  7  1  1
  7 13  1  0
 10  8  1  1
  8 14  1  0
  4  5  1  0
 36 28  1  1
 33 30  1  6
 30 38  1  0
 34 31  1  1
 31 39  1  0
 35 32  1  1
 32 40  1  0
 41 43  1  0
 15 19  2  0
 42 43  2  0
 16 22  2  0
 12 17  1  6
 17 19  1  0
 17 20  1  0
 18 19  1  0
 18 22  1  0
 18 23  1  0
  9 10  1  0
  9 11  1  0
 10 12  1  0
 11  5  1  6
 33 34  1  0
 33 35  1  0
 34 36  1  0
 35 37  1  0
 37 43  1  6
 20 21  2  0
 21 22  1  0
M  CHG  3   2  -1  26  -1  41  -1
M  END
>  <COMPND>  (42) 
    udp_gluA.pdb 

>  <AUTHOR>  (42) 
    GENERATED BY OPEN BABEL 3.1.1

>  <MASTER>  (42) 
        0    0    0    0    0    0    0    0   56    0   56    0

>  <minimizedAffinity>  (42) 
-8.72501

>  <CNNscore>  (42) 
0.7861771584

>  <CNNaffinity>  (42) 
4.9132051468

>  <CNN_VS>  (42) 
3.8626496792

>  <CNNaffinity_variance>  (42) 
0.2914483845

$$$$
43
     RDKit          3D

 43 45  0  0  0  0  0  0  0  0999 V2000
   22.8619   69.6759   -2.0687 P   0  0  2  0  0  0  0  0  0  0  0  0
   23.7535   70.6408   -3.0136 O   0  0  0  0  0  0  0  0  0  0  0  0
   23.2661   68.2308   -2.0779 O   0  0  0  0  0  0  0  0  0  0  0  0
   21.3404   69.9828   -2.5257 O   0  0  0  0  0  0  0  0  0  0  0  0
   21.0809   71.1636   -3.2626 C   0  0  0  0  0  0  0  0  0  0  0  0
   19.1192   72.1162   -4.2735 O   0  0  0  0  0  0  0  0  0  0  0  0
   17.5933   70.9502   -1.9705 O   0  0  0  0  0  0  0  0  0  0  0  0
   17.0981   69.1699   -3.9758 O   0  0  0  0  0  0  0  0  0  0  0  0
   18.7214   70.4210   -2.6676 C   0  0  1  0  0  0  0  0  0  0  0  0
   18.3024   69.9057   -4.0281 C   0  0  2  0  0  0  0  0  0  0  0  0
   19.6344   71.5830   -3.0343 C   0  0  1  0  0  0  0  0  0  0  0  0
   18.1675   71.1922   -4.8248 C   0  0  2  0  0  0  0  0  0  0  0  0
   16.9954   70.2262   -1.7257 H   0  0  0  0  0  0  0  0  0  0  0  0
   17.2360   68.3605   -3.4582 H   0  0  0  0  0  0  0  0  0  0  0  0
   16.2554   70.4138   -6.7521 O   0  0  0  0  0  0  0  0  0  0  0  0
   19.3714   70.5063  -10.1471 O   0  0  0  0  0  0  0  0  0  0  0  0
   18.4520   71.0055   -6.2194 N   0  0  0  0  0  0  0  0  0  0  0  0
   17.8094   70.4596   -8.4410 N   0  0  0  0  0  0  0  0  0  0  0  0
   17.4196   70.6131   -7.1040 C   0  0  0  0  0  0  0  0  0  0  0  0
   19.7400   71.2120   -6.6983 C   0  0  0  0  0  0  0  0  0  0  0  0
   20.0962   71.0619   -7.9755 C   0  0  0  0  0  0  0  0  0  0  0  0
   19.0775   70.6529   -8.9646 C   0  0  0  0  0  0  0  0  0  0  0  0
   17.1083   70.1850   -9.0753 H   0  0  0  0  0  0  0  0  0  0  0  0
   22.9588   70.3931   -0.6234 O   0  0  0  0  0  0  0  0  0  0  0  0
   22.3359   69.9803    0.8103 P   0  0  2  0  0  0  0  0  0  0  0  0
   23.5262   69.1260    1.4986 O   0  0  0  0  0  0  0  0  0  0  0  0
   21.0237   69.2558    0.7259 O   0  0  0  0  0  0  0  0  0  0  0  0
   22.2872   71.3584    1.6474 O   0  0  0  0  0  0  0  0  0  0  0  0
   20.4488   72.5664    0.7698 O   0  0  0  0  0  0  0  0  0  0  0  0
   21.6957   75.0417    3.8335 O   0  0  0  0  0  0  0  0  0  0  0  0
   23.6482   73.7431    2.0911 O   0  0  0  0  0  0  0  0  0  0  0  0
   19.3106   73.4109    4.1542 O   0  0  0  0  0  0  0  0  0  0  0  0
   21.4768   73.7957    3.1720 C   0  0  2  0  0  0  0  0  0  0  0  0
   22.2461   73.7756    1.8509 C   0  0  2  0  0  0  0  0  0  0  0  0
   19.9748   73.6540    2.9155 C   0  0  1  0  0  0  0  0  0  0  0  0
   21.8566   72.5594    1.0095 C   0  0  1  0  0  0  0  0  0  0  0  0
   19.6784   72.4955    1.9675 C   0  0  1  0  0  0  0  0  0  0  0  0
   22.6437   75.1537    4.0069 H   0  0  0  0  0  0  0  0  0  0  0  0
   23.9023   74.5119    2.6248 H   0  0  0  0  0  0  0  0  0  0  0  0
   19.4913   74.1410    4.7667 H   0  0  0  0  0  0  0  0  0  0  0  0
   18.2494   72.8801    0.1478 O   0  0  0  0  0  0  0  0  0  0  0  0
   17.2756   72.3676    2.1448 O   0  0  0  0  0  0  0  0  0  0  0  0
   18.2725   72.5662    1.4668 C   0  0  0  0  0  0  0  0  0  0  0  0
  1  4  1  0
  1 24  1  0
  1  2  1  6
  1  3  2  0
 25 28  1  0
 25 24  1  0
 25 26  1  1
 25 27  2  0
  6 11  1  0
  6 12  1  0
 29 36  1  0
 29 37  1  0
  9  7  1  1
  7 13  1  0
 10  8  1  1
  8 14  1  0
  4  5  1  0
 36 28  1  1
 33 30  1  6
 30 38  1  0
 34 31  1  1
 31 39  1  0
 35 32  1  1
 32 40  1  0
 41 43  1  0
 15 19  2  0
 42 43  2  0
 16 22  2  0
 12 17  1  6
 17 19  1  0
 17 20  1  0
 18 19  1  0
 18 22  1  0
 18 23  1  0
  9 10  1  0
  9 11  1  0
 10 12  1  0
 11  5  1  6
 33 34  1  0
 33 35  1  0
 34 36  1  0
 35 37  1  0
 37 43  1  6
 20 21  2  0
 21 22  1  0
M  CHG  3   2  -1  26  -1  41  -1
M  END
>  <COMPND>  (43) 
    udp_gluA.pdb 

>  <AUTHOR>  (43) 
    GENERATED BY OPEN BABEL 3.1.1

>  <MASTER>  (43) 
        0    0    0    0    0    0    0    0   56    0   56    0

>  <minimizedAffinity>  (43) 
-8.46672

>  <CNNscore>  (43) 
0.7386083603

>  <CNNaffinity>  (43) 
4.9947624207

>  <CNN_VS>  (43) 
3.6891732216

>  <CNNaffinity_variance>  (43) 
0.2479763329

$$$$
44
     RDKit          3D

 43 45  0  0  0  0  0  0  0  0999 V2000
   20.7860   70.7727    0.5238 P   0  0  2  0  0  0  0  0  0  0  0  0
   19.8022   71.5079    1.5776 O   0  0  0  0  0  0  0  0  0  0  0  0
   20.8013   69.2747    0.6102 O   0  0  0  0  0  0  0  0  0  0  0  0
   22.2117   71.5040    0.7481 O   0  0  0  0  0  0  0  0  0  0  0  0
   23.2261   70.8076    1.4485 C   0  0  0  0  0  0  0  0  0  0  0  0
   24.1732   70.5087    3.6374 O   0  0  0  0  0  0  0  0  0  0  0  0
   22.0488   72.3883    4.6097 O   0  0  0  0  0  0  0  0  0  0  0  0
   24.2481   73.9946    4.4725 O   0  0  0  0  0  0  0  0  0  0  0  0
   22.7724   72.4013    3.3790 C   0  0  1  0  0  0  0  0  0  0  0  0
   24.1908   72.8778    3.6099 C   0  0  2  0  0  0  0  0  0  0  0  0
   22.9878   70.9577    2.9455 C   0  0  1  0  0  0  0  0  0  0  0  0
   24.8449   71.6435    4.2070 C   0  0  2  0  0  0  0  0  0  0  0  0
   21.8990   73.2999    4.9067 H   0  0  0  0  0  0  0  0  0  0  0  0
   23.8191   74.7541    4.0470 H   0  0  0  0  0  0  0  0  0  0  0  0
   26.8749   72.9925    5.6337 O   0  0  0  0  0  0  0  0  0  0  0  0
   30.1809   71.2545    2.9330 O   0  0  0  0  0  0  0  0  0  0  0  0
   26.2444   71.5612    3.8981 N   0  0  0  0  0  0  0  0  0  0  0  0
   28.5194   72.1264    4.2866 N   0  0  0  0  0  0  0  0  0  0  0  0
   27.1826   72.2787    4.6773 C   0  0  0  0  0  0  0  0  0  0  0  0
   26.6752   70.7759    2.8358 C   0  0  0  0  0  0  0  0  0  0  0  0
   27.9529   70.6404    2.4755 C   0  0  0  0  0  0  0  0  0  0  0  0
   28.9964   71.3575    3.2374 C   0  0  0  0  0  0  0  0  0  0  0  0
   29.1908   72.6180    4.8129 H   0  0  0  0  0  0  0  0  0  0  0  0
   20.2963   71.3601   -0.9003 O   0  0  0  0  0  0  0  0  0  0  0  0
   21.0589   71.4711   -2.3215 P   0  0  2  0  0  0  0  0  0  0  0  0
   21.8172   70.0464   -2.4467 O   0  0  0  0  0  0  0  0  0  0  0  0
   21.9612   72.6648   -2.4445 O   0  0  0  0  0  0  0  0  0  0  0  0
   19.8827   71.4046   -3.4235 O   0  0  0  0  0  0  0  0  0  0  0  0
   19.1777   69.3358   -4.3357 O   0  0  0  0  0  0  0  0  0  0  0  0
   17.7554   72.0182   -7.1374 O   0  0  0  0  0  0  0  0  0  0  0  0
   20.4172   72.3557   -5.9819 O   0  0  0  0  0  0  0  0  0  0  0  0
   15.9287   70.7762   -5.2475 O   0  0  0  0  0  0  0  0  0  0  0  0
   18.1268   71.5693   -5.8341 C   0  0  2  0  0  0  0  0  0  0  0  0
   19.6092   71.1950   -5.8250 C   0  0  2  0  0  0  0  0  0  0  0  0
   17.2679   70.3501   -5.4912 C   0  0  1  0  0  0  0  0  0  0  0  0
   19.9890   70.4967   -4.5185 C   0  0  1  0  0  0  0  0  0  0  0  0
   17.7865   69.6355   -4.2466 C   0  0  1  0  0  0  0  0  0  0  0  0
   18.2884   72.7926   -7.3770 H   0  0  0  0  0  0  0  0  0  0  0  0
   20.1813   72.8039   -6.8089 H   0  0  0  0  0  0  0  0  0  0  0  0
   15.5868   71.2327   -6.0321 H   0  0  0  0  0  0  0  0  0  0  0  0
   16.2124   68.0996   -5.0618 O   0  0  0  0  0  0  0  0  0  0  0  0
   17.4577   67.4570   -3.2631 O   0  0  0  0  0  0  0  0  0  0  0  0
   17.1606   68.2857   -4.1103 C   0  0  0  0  0  0  0  0  0  0  0  0
  1  4  1  0
  1 24  1  0
  1  2  1  1
  1  3  2  0
 25 28  1  0
 25 24  1  0
 25 26  1  6
 25 27  2  0
  6 11  1  0
  6 12  1  0
 29 36  1  0
 29 37  1  0
  9  7  1  1
  7 13  1  0
 10  8  1  1
  8 14  1  0
  4  5  1  0
 36 28  1  1
 33 30  1  6
 30 38  1  0
 34 31  1  1
 31 39  1  0
 35 32  1  1
 32 40  1  0
 41 43  1  0
 15 19  2  0
 42 43  2  0
 16 22  2  0
 12 17  1  6
 17 19  1  0
 17 20  1  0
 18 19  1  0
 18 22  1  0
 18 23  1  0
  9 10  1  0
  9 11  1  0
 10 12  1  0
 11  5  1  6
 33 34  1  0
 33 35  1  0
 34 36  1  0
 35 37  1  0
 37 43  1  6
 20 21  2  0
 21 22  1  0
M  CHG  3   2  -1  26  -1  41  -1
M  END
>  <COMPND>  (44) 
    udp_gluA.pdb 

>  <AUTHOR>  (44) 
    GENERATED BY OPEN BABEL 3.1.1

>  <MASTER>  (44) 
        0    0    0    0    0    0    0    0   56    0   56    0

>  <minimizedAffinity>  (44) 
-8.73564

>  <CNNscore>  (44) 
0.6979010701

>  <CNNaffinity>  (44) 
4.7745180130

>  <CNN_VS>  (44) 
3.3321411610

>  <CNNaffinity_variance>  (44) 
0.1610734016

$$$$
45
     RDKit          3D

 43 45  0  0  0  0  0  0  0  0999 V2000
   22.0506   69.9934   -0.4251 P   0  0  2  0  0  0  0  0  0  0  0  0
   21.0734   69.2555    0.6330 O   0  0  0  0  0  0  0  0  0  0  0  0
   22.6741   69.0900   -1.4483 O   0  0  0  0  0  0  0  0  0  0  0  0
   23.0845   70.8158    0.5091 O   0  0  0  0  0  0  0  0  0  0  0  0
   24.0136   70.0888    1.2919 C   0  0  0  0  0  0  0  0  0  0  0  0
   24.8611   70.0273    3.5404 O   0  0  0  0  0  0  0  0  0  0  0  0
   22.4300   71.6088    4.3019 O   0  0  0  0  0  0  0  0  0  0  0  0
   24.3749   73.5176    4.2004 O   0  0  0  0  0  0  0  0  0  0  0  0
   23.2165   71.6774    3.1122 C   0  0  1  0  0  0  0  0  0  0  0  0
   24.5335   72.3692    3.3937 C   0  0  2  0  0  0  0  0  0  0  0  0
   23.6665   70.2650    2.7646 C   0  0  1  0  0  0  0  0  0  0  0  0
   25.3241   71.2725    4.0866 C   0  0  2  0  0  0  0  0  0  0  0  0
   22.1309   72.4997    4.5439 H   0  0  0  0  0  0  0  0  0  0  0  0
   23.8656   74.1860    3.7147 H   0  0  0  0  0  0  0  0  0  0  0  0
   27.0202   73.0757    5.4461 O   0  0  0  0  0  0  0  0  0  0  0  0
   30.7276   71.6238    3.1244 O   0  0  0  0  0  0  0  0  0  0  0  0
   26.7366   71.3867    3.8570 N   0  0  0  0  0  0  0  0  0  0  0  0
   28.8649   72.3515    4.2877 N   0  0  0  0  0  0  0  0  0  0  0  0
   27.4978   72.3249    4.5935 C   0  0  0  0  0  0  0  0  0  0  0  0
   27.3538   70.5745    2.9134 C   0  0  0  0  0  0  0  0  0  0  0  0
   28.6579   70.6114    2.6331 C   0  0  0  0  0  0  0  0  0  0  0  0
   29.5241   71.5644    3.3575 C   0  0  0  0  0  0  0  0  0  0  0  0
   29.4151   72.9982    4.7862 H   0  0  0  0  0  0  0  0  0  0  0  0
   21.1101   71.1566   -1.0376 O   0  0  0  0  0  0  0  0  0  0  0  0
   19.5232   71.1867   -1.3448 P   0  0  2  0  0  0  0  0  0  0  0  0
   19.0294   72.5408   -0.6079 O   0  0  0  0  0  0  0  0  0  0  0  0
   18.7898   69.9480   -0.9185 O   0  0  0  0  0  0  0  0  0  0  0  0
   19.4175   71.5186   -2.9200 O   0  0  0  0  0  0  0  0  0  0  0  0
   18.9998   69.3976   -3.8877 O   0  0  0  0  0  0  0  0  0  0  0  0
   18.5368   71.9092   -7.1351 O   0  0  0  0  0  0  0  0  0  0  0  0
   20.7212   72.3257   -5.2405 O   0  0  0  0  0  0  0  0  0  0  0  0
   16.2040   70.7670   -5.8295 O   0  0  0  0  0  0  0  0  0  0  0  0
   18.4859   71.5370   -5.7578 C   0  0  2  0  0  0  0  0  0  0  0  0
   19.8895   71.1716   -5.2743 C   0  0  2  0  0  0  0  0  0  0  0  0
   17.5482   70.3347   -5.6272 C   0  0  1  0  0  0  0  0  0  0  0  0
   19.8426   70.5505   -3.8775 C   0  0  1  0  0  0  0  0  0  0  0  0
   17.6520   69.6947   -4.2458 C   0  0  1  0  0  0  0  0  0  0  0  0
   19.1271   72.6716   -7.2426 H   0  0  0  0  0  0  0  0  0  0  0  0
   20.7553   72.7250   -6.1236 H   0  0  0  0  0  0  0  0  0  0  0  0
   16.1244   71.1764   -6.7052 H   0  0  0  0  0  0  0  0  0  0  0  0
   17.7045   67.4821   -3.4691 O   0  0  0  0  0  0  0  0  0  0  0  0
   15.9667   68.0679   -4.8241 O   0  0  0  0  0  0  0  0  0  0  0  0
   16.9977   68.3516   -4.2329 C   0  0  0  0  0  0  0  0  0  0  0  0
  1  4  1  0
  1 24  1  0
  1  2  1  1
  1  3  2  0
 25 28  1  0
 25 24  1  0
 25 26  1  1
 25 27  2  0
  6 11  1  0
  6 12  1  0
 29 36  1  0
 29 37  1  0
  9  7  1  1
  7 13  1  0
 10  8  1  1
  8 14  1  0
  4  5  1  0
 36 28  1  1
 33 30  1  6
 30 38  1  0
 34 31  1  1
 31 39  1  0
 35 32  1  1
 32 40  1  0
 41 43  1  0
 15 19  2  0
 42 43  2  0
 16 22  2  0
 12 17  1  6
 17 19  1  0
 17 20  1  0
 18 19  1  0
 18 22  1  0
 18 23  1  0
  9 10  1  0
  9 11  1  0
 10 12  1  0
 11  5  1  6
 33 34  1  0
 33 35  1  0
 34 36  1  0
 35 37  1  0
 37 43  1  6
 20 21  2  0
 21 22  1  0
M  CHG  3   2  -1  26  -1  41  -1
M  END
>  <COMPND>  (45) 
    udp_gluA.pdb 

>  <AUTHOR>  (45) 
    GENERATED BY OPEN BABEL 3.1.1

>  <MASTER>  (45) 
        0    0    0    0    0    0    0    0   56    0   56    0

>  <minimizedAffinity>  (45) 
-9.32797

>  <CNNscore>  (45) 
0.6812073588

>  <CNNaffinity>  (45) 
4.5729074478

>  <CNN_VS>  (45) 
3.1150982380

>  <CNNaffinity_variance>  (45) 
0.0257512480

$$$$
46
     RDKit          3D

 43 45  0  0  0  0  0  0  0  0999 V2000
   20.7855   70.4029    0.1085 P   0  0  2  0  0  0  0  0  0  0  0  0
   19.2253   70.8171    0.2228 O   0  0  0  0  0  0  0  0  0  0  0  0
   21.1233   69.0482    0.6586 O   0  0  0  0  0  0  0  0  0  0  0  0
   21.5686   71.6492    0.7802 O   0  0  0  0  0  0  0  0  0  0  0  0
   22.8110   71.4049    1.4136 C   0  0  0  0  0  0  0  0  0  0  0  0
   23.7498   70.7348    3.5225 O   0  0  0  0  0  0  0  0  0  0  0  0
   21.8025   72.6356    4.7821 O   0  0  0  0  0  0  0  0  0  0  0  0
   24.1293   74.0571    4.8157 O   0  0  0  0  0  0  0  0  0  0  0  0
   22.5130   72.7548    3.5494 C   0  0  1  0  0  0  0  0  0  0  0  0
   23.9689   73.0760    3.8126 C   0  0  2  0  0  0  0  0  0  0  0  0
   22.6005   71.3703    2.9219 C   0  0  1  0  0  0  0  0  0  0  0  0
   24.5210   71.7222    4.2251 C   0  0  2  0  0  0  0  0  0  0  0  0
   21.7338   73.5079    5.2017 H   0  0  0  0  0  0  0  0  0  0  0  0
   23.7626   74.9003    4.5049 H   0  0  0  0  0  0  0  0  0  0  0  0
   26.6728   72.6667    5.7917 O   0  0  0  0  0  0  0  0  0  0  0  0
   29.7922   71.0681    2.7988 O   0  0  0  0  0  0  0  0  0  0  0  0
   25.9055   71.5664    3.8788 N   0  0  0  0  0  0  0  0  0  0  0  0
   28.2244   71.8705    4.2991 N   0  0  0  0  0  0  0  0  0  0  0  0
   26.9091   72.0779    4.7351 C   0  0  0  0  0  0  0  0  0  0  0  0
   26.2574   70.9121    2.7045 C   0  0  0  0  0  0  0  0  0  0  0  0
   27.5155   70.7220    2.3022 C   0  0  0  0  0  0  0  0  0  0  0  0
   28.6238   71.2266    3.1391 C   0  0  0  0  0  0  0  0  0  0  0  0
   28.9404   72.2197    4.8776 H   0  0  0  0  0  0  0  0  0  0  0  0
   21.0950   70.5860   -1.4675 O   0  0  0  0  0  0  0  0  0  0  0  0
   20.6405   71.7330   -2.5121 P   0  0  2  0  0  0  0  0  0  0  0  0
   21.8742   71.7901   -3.5585 O   0  0  0  0  0  0  0  0  0  0  0  0
   20.3094   73.0510   -1.8739 O   0  0  0  0  0  0  0  0  0  0  0  0
   19.4293   71.0701   -3.3464 O   0  0  0  0  0  0  0  0  0  0  0  0
   17.5446   72.3440   -4.0054 O   0  0  0  0  0  0  0  0  0  0  0  0
   16.0904   68.4869   -4.2812 O   0  0  0  0  0  0  0  0  0  0  0  0
   17.7624   69.2810   -2.0211 O   0  0  0  0  0  0  0  0  0  0  0  0
   16.7937   69.9568   -6.6886 O   0  0  0  0  0  0  0  0  0  0  0  0
   17.0810   69.5133   -4.3380 C   0  0  2  0  0  0  0  0  0  0  0  0
   17.2031   70.1829   -2.9689 C   0  0  2  0  0  0  0  0  0  0  0  0
   16.6453   70.5332   -5.3924 C   0  0  1  0  0  0  0  0  0  0  0  0
   18.0823   71.4317   -3.0472 C   0  0  1  0  0  0  0  0  0  0  0  0
   17.4906   71.8018   -5.3230 C   0  0  1  0  0  0  0  0  0  0  0  0
   16.3459   67.8270   -3.6175 H   0  0  0  0  0  0  0  0  0  0  0  0
   17.2096   68.4861   -1.9665 H   0  0  0  0  0  0  0  0  0  0  0  0
   16.2608   69.1484   -6.7459 H   0  0  0  0  0  0  0  0  0  0  0  0
   17.3692   74.1054   -5.7475 O   0  0  0  0  0  0  0  0  0  0  0  0
   16.0072   72.7487   -6.9736 O   0  0  0  0  0  0  0  0  0  0  0  0
   16.8610   72.9025   -6.1132 C   0  0  0  0  0  0  0  0  0  0  0  0
  1  4  1  0
  1 24  1  0
  1  2  1  6
  1  3  2  0
 25 28  1  0
 25 24  1  0
 25 26  1  6
 25 27  2  0
  6 11  1  0
  6 12  1  0
 29 36  1  0
 29 37  1  0
  9  7  1  1
  7 13  1  0
 10  8  1  1
  8 14  1  0
  4  5  1  0
 36 28  1  6
 33 30  1  1
 30 38  1  0
 34 31  1  1
 31 39  1  0
 35 32  1  6
 32 40  1  0
 41 43  1  0
 15 19  2  0
 42 43  2  0
 16 22  2  0
 12 17  1  6
 17 19  1  0
 17 20  1  0
 18 19  1  0
 18 22  1  0
 18 23  1  0
  9 10  1  0
  9 11  1  0
 10 12  1  0
 11  5  1  6
 33 34  1  0
 33 35  1  0
 34 36  1  0
 35 37  1  0
 37 43  1  6
 20 21  2  0
 21 22  1  0
M  CHG  3   2  -1  26  -1  41  -1
M  END
>  <COMPND>  (46) 
    udp_gluA.pdb 

>  <AUTHOR>  (46) 
    GENERATED BY OPEN BABEL 3.1.1

>  <MASTER>  (46) 
        0    0    0    0    0    0    0    0   56    0   56    0

>  <minimizedAffinity>  (46) 
-8.51694

>  <CNNscore>  (46) 
0.6769593954

>  <CNNaffinity>  (46) 
4.5592470169

>  <CNN_VS>  (46) 
3.0864250660

>  <CNNaffinity_variance>  (46) 
0.1434377134

$$$$
47
     RDKit          3D

 43 45  0  0  0  0  0  0  0  0999 V2000
   21.0853   70.3763    0.3242 P   0  0  2  0  0  0  0  0  0  0  0  0
   19.9185   71.2246    1.0576 O   0  0  0  0  0  0  0  0  0  0  0  0
   21.2130   68.9515    0.7774 O   0  0  0  0  0  0  0  0  0  0  0  0
   22.4059   71.2930    0.5076 O   0  0  0  0  0  0  0  0  0  0  0  0
   23.5045   70.7602    1.2243 C   0  0  0  0  0  0  0  0  0  0  0  0
   24.3723   70.3764    3.4327 O   0  0  0  0  0  0  0  0  0  0  0  0
   22.1416   72.1250    4.4114 O   0  0  0  0  0  0  0  0  0  0  0  0
   24.2834   73.8123    4.4529 O   0  0  0  0  0  0  0  0  0  0  0  0
   22.9137   72.2300    3.2150 C   0  0  1  0  0  0  0  0  0  0  0  0
   24.3028   72.7426    3.5310 C   0  0  2  0  0  0  0  0  0  0  0  0
   23.2002   70.8205    2.7156 C   0  0  1  0  0  0  0  0  0  0  0  0
   24.9775   71.5014    4.0895 C   0  0  2  0  0  0  0  0  0  0  0  0
   21.9460   73.0134    4.7494 H   0  0  0  0  0  0  0  0  0  0  0  0
   23.8440   74.5783    4.0502 H   0  0  0  0  0  0  0  0  0  0  0  0
   26.9087   72.7255    5.7475 O   0  0  0  0  0  0  0  0  0  0  0  0
   30.3711   71.3750    3.0213 O   0  0  0  0  0  0  0  0  0  0  0  0
   26.3905   71.4850    3.8367 N   0  0  0  0  0  0  0  0  0  0  0  0
   28.6312   72.0526    4.3876 N   0  0  0  0  0  0  0  0  0  0  0  0
   27.2754   72.1307    4.7323 C   0  0  0  0  0  0  0  0  0  0  0  0
   26.8867   70.8338    2.7139 C   0  0  0  0  0  0  0  0  0  0  0  0
   28.1817   70.7677    2.3986 C   0  0  0  0  0  0  0  0  0  0  0  0
   29.1725   71.4172    3.2817 C   0  0  0  0  0  0  0  0  0  0  0  0
   29.2663   72.4964    4.9950 H   0  0  0  0  0  0  0  0  0  0  0  0
   20.7334   70.5553   -1.2433 O   0  0  0  0  0  0  0  0  0  0  0  0
   20.6628   71.8774   -2.1710 P   0  0  2  0  0  0  0  0  0  0  0  0
   22.0834   71.8612   -2.9468 O   0  0  0  0  0  0  0  0  0  0  0  0
   20.3848   73.1451   -1.4163 O   0  0  0  0  0  0  0  0  0  0  0  0
   19.5742   71.5223   -3.3074 O   0  0  0  0  0  0  0  0  0  0  0  0
   19.0158   69.3820   -4.1538 O   0  0  0  0  0  0  0  0  0  0  0  0
   18.1901   71.8089   -7.3936 O   0  0  0  0  0  0  0  0  0  0  0  0
   20.5945   72.2438   -5.7923 O   0  0  0  0  0  0  0  0  0  0  0  0
   16.0206   70.7403   -5.7805 O   0  0  0  0  0  0  0  0  0  0  0  0
   18.3033   71.4761   -6.0100 C   0  0  2  0  0  0  0  0  0  0  0  0
   19.7510   71.1024   -5.6903 C   0  0  2  0  0  0  0  0  0  0  0  0
   17.3740   70.2928   -5.7306 C   0  0  1  0  0  0  0  0  0  0  0  0
   19.8674   70.5214   -4.2805 C   0  0  1  0  0  0  0  0  0  0  0  0
   17.6381   69.6900   -4.3539 C   0  0  1  0  0  0  0  0  0  0  0  0
   18.7721   72.5587   -7.5947 H   0  0  0  0  0  0  0  0  0  0  0  0
   20.5253   72.6178   -6.6843 H   0  0  0  0  0  0  0  0  0  0  0  0
   15.8396   71.1263   -6.6518 H   0  0  0  0  0  0  0  0  0  0  0  0
   17.6383   67.5781   -3.3334 O   0  0  0  0  0  0  0  0  0  0  0  0
   15.9692   68.0125   -4.8249 O   0  0  0  0  0  0  0  0  0  0  0  0
   16.9739   68.3582   -4.2216 C   0  0  0  0  0  0  0  0  0  0  0  0
  1  4  1  0
  1 24  1  0
  1  2  1  1
  1  3  2  0
 25 28  1  0
 25 24  1  0
 25 26  1  6
 25 27  2  0
  6 11  1  0
  6 12  1  0
 29 36  1  0
 29 37  1  0
  9  7  1  1
  7 13  1  0
 10  8  1  1
  8 14  1  0
  4  5  1  0
 36 28  1  1
 33 30  1  6
 30 38  1  0
 34 31  1  1
 31 39  1  0
 35 32  1  1
 32 40  1  0
 41 43  1  0
 15 19  2  0
 42 43  2  0
 16 22  2  0
 12 17  1  6
 17 19  1  0
 17 20  1  0
 18 19  1  0
 18 22  1  0
 18 23  1  0
  9 10  1  0
  9 11  1  0
 10 12  1  0
 11  5  1  6
 33 34  1  0
 33 35  1  0
 34 36  1  0
 35 37  1  0
 37 43  1  6
 20 21  2  0
 21 22  1  0
M  CHG  3   2  -1  26  -1  41  -1
M  END
>  <COMPND>  (47) 
    udp_gluA.pdb 

>  <AUTHOR>  (47) 
    GENERATED BY OPEN BABEL 3.1.1

>  <MASTER>  (47) 
        0    0    0    0    0    0    0    0   56    0   56    0

>  <minimizedAffinity>  (47) 
-9.14890

>  <CNNscore>  (47) 
0.6666218042

>  <CNNaffinity>  (47) 
4.7836027145

>  <CNN_VS>  (47) 
3.1888539791

>  <CNNaffinity_variance>  (47) 
0.2379696369

$$$$
48
     RDKit          3D

 43 45  0  0  0  0  0  0  0  0999 V2000
   21.5277   70.3214   -0.5356 P   0  0  2  0  0  0  0  0  0  0  0  0
   22.4016   69.2582   -1.3869 O   0  0  0  0  0  0  0  0  0  0  0  0
   20.4027   69.7251    0.2585 O   0  0  0  0  0  0  0  0  0  0  0  0
   21.1027   71.4375   -1.6273 O   0  0  0  0  0  0  0  0  0  0  0  0
   20.4598   71.0116   -2.8146 C   0  0  0  0  0  0  0  0  0  0  0  0
   18.4884   71.8290   -3.9204 O   0  0  0  0  0  0  0  0  0  0  0  0
   16.9282   70.3263   -1.8471 O   0  0  0  0  0  0  0  0  0  0  0  0
   16.7940   68.6707   -4.0097 O   0  0  0  0  0  0  0  0  0  0  0  0
   18.1595   69.9775   -2.4801 C   0  0  1  0  0  0  0  0  0  0  0  0
   17.9084   69.5319   -3.9051 C   0  0  2  0  0  0  0  0  0  0  0  0
   18.9620   71.2555   -2.6827 C   0  0  1  0  0  0  0  0  0  0  0  0
   17.6924   70.8567   -4.6165 C   0  0  2  0  0  0  0  0  0  0  0  0
   16.3980   69.5256   -1.7072 H   0  0  0  0  0  0  0  0  0  0  0  0
   16.9811   67.8415   -3.5413 H   0  0  0  0  0  0  0  0  0  0  0  0
   16.0377   70.0328   -6.7518 O   0  0  0  0  0  0  0  0  0  0  0  0
   19.3772   70.7330   -9.8504 O   0  0  0  0  0  0  0  0  0  0  0  0
   18.1040   70.8140   -5.9911 N   0  0  0  0  0  0  0  0  0  0  0  0
   17.7028   70.3814   -8.2929 N   0  0  0  0  0  0  0  0  0  0  0  0
   17.1953   70.3844   -6.9870 C   0  0  0  0  0  0  0  0  0  0  0  0
   19.3933   71.1963   -6.3413 C   0  0  0  0  0  0  0  0  0  0  0  0
   19.8626   71.1882   -7.5905 C   0  0  0  0  0  0  0  0  0  0  0  0
   18.9774   70.7519   -8.6902 C   0  0  0  0  0  0  0  0  0  0  0  0
   17.0893   70.0841   -9.0032 H   0  0  0  0  0  0  0  0  0  0  0  0
   22.6452   71.0847    0.3483 O   0  0  0  0  0  0  0  0  0  0  0  0
   23.7607   70.5153    1.3707 P   0  0  2  0  0  0  0  0  0  0  0  0
   25.1125   70.5147    0.4802 O   0  0  0  0  0  0  0  0  0  0  0  0
   23.4187   69.1850    1.9767 O   0  0  0  0  0  0  0  0  0  0  0  0
   23.9787   71.7024    2.4410 O   0  0  0  0  0  0  0  0  0  0  0  0
   24.9187   71.5605    4.6102 O   0  0  0  0  0  0  0  0  0  0  0  0
   22.2964   74.7245    5.0357 O   0  0  0  0  0  0  0  0  0  0  0  0
   21.5075   72.3370    3.5485 O   0  0  0  0  0  0  0  0  0  0  0  0
   25.1529   75.2165    4.8135 O   0  0  0  0  0  0  0  0  0  0  0  0
   23.2092   73.8725    4.3437 C   0  0  2  0  0  0  0  0  0  0  0  0
   22.6776   72.4390    4.3517 C   0  0  2  0  0  0  0  0  0  0  0  0
   24.5591   73.9435    5.0612 C   0  0  1  0  0  0  0  0  0  0  0  0
   23.7300   71.4623    3.8250 C   0  0  1  0  0  0  0  0  0  0  0  0
   25.5103   72.8572    4.5675 C   0  0  1  0  0  0  0  0  0  0  0  0
   21.4313   74.6955    4.5976 H   0  0  0  0  0  0  0  0  0  0  0  0
   20.8356   72.9542    3.8769 H   0  0  0  0  0  0  0  0  0  0  0  0
   24.5574   75.9168    5.1230 H   0  0  0  0  0  0  0  0  0  0  0  0
   27.5465   73.7523    5.3118 O   0  0  0  0  0  0  0  0  0  0  0  0
   26.8460   71.8122    6.2837 O   0  0  0  0  0  0  0  0  0  0  0  0
   26.6822   72.7217    5.4842 C   0  0  0  0  0  0  0  0  0  0  0  0
  1  4  1  0
  1 24  1  0
  1  2  1  6
  1  3  2  0
 25 28  1  0
 25 24  1  0
 25 26  1  6
 25 27  2  0
  6 11  1  0
  6 12  1  0
 29 36  1  0
 29 37  1  0
  9  7  1  6
  7 13  1  0
 10  8  1  1
  8 14  1  0
  4  5  1  0
 36 28  1  6
 33 30  1  1
 30 38  1  0
 34 31  1  6
 31 39  1  0
 35 32  1  6
 32 40  1  0
 41 43  1  0
 15 19  2  0
 42 43  2  0
 16 22  2  0
 12 17  1  6
 17 19  1  0
 17 20  1  0
 18 19  1  0
 18 22  1  0
 18 23  1  0
  9 10  1  0
  9 11  1  0
 10 12  1  0
 11  5  1  6
 33 34  1  0
 33 35  1  0
 34 36  1  0
 35 37  1  0
 37 43  1  1
 20 21  2  0
 21 22  1  0
M  CHG  3   2  -1  26  -1  41  -1
M  END
>  <COMPND>  (48) 
    udp_gluA.pdb 

>  <AUTHOR>  (48) 
    GENERATED BY OPEN BABEL 3.1.1

>  <MASTER>  (48) 
        0    0    0    0    0    0    0    0   56    0   56    0

>  <minimizedAffinity>  (48) 
-8.24421

>  <CNNscore>  (48) 
0.6632930636

>  <CNNaffinity>  (48) 
4.5351805687

>  <CNN_VS>  (48) 
3.0081539154

>  <CNNaffinity_variance>  (48) 
0.1987655312

$$$$
49
     RDKit          3D

 43 45  0  0  0  0  0  0  0  0999 V2000
   21.7076   70.2620   -0.4104 P   0  0  2  0  0  0  0  0  0  0  0  0
   21.0295   69.2387    0.6440 O   0  0  0  0  0  0  0  0  0  0  0  0
   22.2656   69.6203   -1.6468 O   0  0  0  0  0  0  0  0  0  0  0  0
   22.7641   71.0988    0.4848 O   0  0  0  0  0  0  0  0  0  0  0  0
   23.8981   70.4247    0.9986 C   0  0  0  0  0  0  0  0  0  0  0  0
   25.0114   69.9109    3.0660 O   0  0  0  0  0  0  0  0  0  0  0  0
   22.6162   71.0882    4.4329 O   0  0  0  0  0  0  0  0  0  0  0  0
   24.4408   73.1092    4.5826 O   0  0  0  0  0  0  0  0  0  0  0  0
   23.2500   71.4874    3.2174 C   0  0  1  0  0  0  0  0  0  0  0  0
   24.5564   72.1925    3.5145 C   0  0  2  0  0  0  0  0  0  0  0  0
   23.7223   70.2307    2.4992 C   0  0  1  0  0  0  0  0  0  0  0  0
   25.4763   71.0281    3.8401 C   0  0  2  0  0  0  0  0  0  0  0  0
   22.3059   71.8745    4.9095 H   0  0  0  0  0  0  0  0  0  0  0  0
   23.8454   73.8313    4.3258 H   0  0  0  0  0  0  0  0  0  0  0  0
   27.2336   72.5949    5.4000 O   0  0  0  0  0  0  0  0  0  0  0  0
   30.7021   71.9949    2.4245 O   0  0  0  0  0  0  0  0  0  0  0  0
   26.8439   71.2975    3.4965 N   0  0  0  0  0  0  0  0  0  0  0  0
   28.9591   72.2954    3.9161 N   0  0  0  0  0  0  0  0  0  0  0  0
   27.6415   72.0969    4.3490 C   0  0  0  0  0  0  0  0  0  0  0  0
   27.3821   70.7713    2.3285 C   0  0  0  0  0  0  0  0  0  0  0  0
   28.6400   70.9691    1.9291 C   0  0  0  0  0  0  0  0  0  0  0  0
   29.5395   71.7936    2.7624 C   0  0  0  0  0  0  0  0  0  0  0  0
   29.5331   72.8504    4.4921 H   0  0  0  0  0  0  0  0  0  0  0  0
   20.5305   71.3361   -0.6820 O   0  0  0  0  0  0  0  0  0  0  0  0
   19.0854   71.1714   -1.3880 P   0  0  2  0  0  0  0  0  0  0  0  0
   18.2205   72.3801   -0.7466 O   0  0  0  0  0  0  0  0  0  0  0  0
   18.4691   69.8128   -1.2196 O   0  0  0  0  0  0  0  0  0  0  0  0
   19.3264   71.6120   -2.9211 O   0  0  0  0  0  0  0  0  0  0  0  0
   18.6910   70.2342   -4.7397 O   0  0  0  0  0  0  0  0  0  0  0  0
   21.4934   72.7085   -6.4983 O   0  0  0  0  0  0  0  0  0  0  0  0
   21.9546   71.6092   -3.8313 O   0  0  0  0  0  0  0  0  0  0  0  0
   18.6601   73.1259   -6.9978 O   0  0  0  0  0  0  0  0  0  0  0  0
   20.4541   72.3596   -5.5839 C   0  0  2  0  0  0  0  0  0  0  0  0
   20.9134   71.1939   -4.7077 C   0  0  2  0  0  0  0  0  0  0  0  0
   19.2219   71.9599   -6.3985 C   0  0  1  0  0  0  0  0  0  0  0  0
   19.7532   70.6434   -3.8772 C   0  0  1  0  0  0  0  0  0  0  0  0
   18.1612   71.3043   -5.5189 C   0  0  1  0  0  0  0  0  0  0  0  0
   22.2870   72.9661   -6.0032 H   0  0  0  0  0  0  0  0  0  0  0  0
   22.6940   71.9599   -4.3515 H   0  0  0  0  0  0  0  0  0  0  0  0
   19.3252   73.5528   -7.5603 H   0  0  0  0  0  0  0  0  0  0  0  0
   16.4955   69.6578   -5.6454 O   0  0  0  0  0  0  0  0  0  0  0  0
   16.8659   70.9084   -7.5156 O   0  0  0  0  0  0  0  0  0  0  0  0
   17.1227   70.6289   -6.3542 C   0  0  0  0  0  0  0  0  0  0  0  0
  1  4  1  0
  1 24  1  0
  1  2  1  1
  1  3  2  0
 25 28  1  0
 25 24  1  0
 25 26  1  1
 25 27  2  0
  6 11  1  0
  6 12  1  0
 29 36  1  0
 29 37  1  0
  9  7  1  1
  7 13  1  0
 10  8  1  1
  8 14  1  0
  4  5  1  0
 36 28  1  1
 33 30  1  6
 30 38  1  0
 34 31  1  1
 31 39  1  0
 35 32  1  1
 32 40  1  0
 41 43  1  0
 15 19  2  0
 42 43  2  0
 16 22  2  0
 12 17  1  6
 17 19  1  0
 17 20  1  0
 18 19  1  0
 18 22  1  0
 18 23  1  0
  9 10  1  0
  9 11  1  0
 10 12  1  0
 11  5  1  6
 33 34  1  0
 33 35  1  0
 34 36  1  0
 35 37  1  0
 37 43  1  6
 20 21  2  0
 21 22  1  0
M  CHG  3   2  -1  26  -1  41  -1
M  END
>  <COMPND>  (49) 
    udp_gluA.pdb 

>  <AUTHOR>  (49) 
    GENERATED BY OPEN BABEL 3.1.1

>  <MASTER>  (49) 
        0    0    0    0    0    0    0    0   56    0   56    0

>  <minimizedAffinity>  (49) 
-8.76732

>  <CNNscore>  (49) 
0.6553743482

>  <CNNaffinity>  (49) 
4.5770287514

>  <CNN_VS>  (49) 
2.9996671677

>  <CNNaffinity_variance>  (49) 
0.0037431594

$$$$
50
     RDKit          3D

 43 45  0  0  0  0  0  0  0  0999 V2000
   20.4070   73.6438   -1.0003 P   0  0  2  0  0  0  0  0  0  0  0  0
   20.1513   74.6774    0.2184 O   0  0  0  0  0  0  0  0  0  0  0  0
   21.2439   74.1829   -2.1232 O   0  0  0  0  0  0  0  0  0  0  0  0
   18.9216   73.1474   -1.4068 O   0  0  0  0  0  0  0  0  0  0  0  0
   18.7786   72.2809   -2.5174 C   0  0  0  0  0  0  0  0  0  0  0  0
   17.1695   72.4278   -4.2969 O   0  0  0  0  0  0  0  0  0  0  0  0
   15.3059   70.9328   -2.4848 O   0  0  0  0  0  0  0  0  0  0  0  0
   16.1868   68.9820   -4.1744 O   0  0  0  0  0  0  0  0  0  0  0  0
   16.7182   70.7939   -2.6424 C   0  0  1  0  0  0  0  0  0  0  0  0
   17.0334   70.0888   -3.9446 C   0  0  2  0  0  0  0  0  0  0  0  0
   17.3028   72.1794   -2.8806 C   0  0  1  0  0  0  0  0  0  0  0  0
   16.8327   71.1996   -4.9613 C   0  0  2  0  0  0  0  0  0  0  0  0
   14.9100   70.0602   -2.3314 H   0  0  0  0  0  0  0  0  0  0  0  0
   16.3530   68.3027   -3.5014 H   0  0  0  0  0  0  0  0  0  0  0  0
   15.8870   70.6482   -7.5648 O   0  0  0  0  0  0  0  0  0  0  0  0
   20.1537   70.6315   -9.3082 O   0  0  0  0  0  0  0  0  0  0  0  0
   17.6745   71.0462   -6.1139 N   0  0  0  0  0  0  0  0  0  0  0  0
   18.0130   70.6394   -8.4304 N   0  0  0  0  0  0  0  0  0  0  0  0
   17.0989   70.7702   -7.3767 C   0  0  0  0  0  0  0  0  0  0  0  0
   19.0528   71.1707   -5.9877 C   0  0  0  0  0  0  0  0  0  0  0  0
   19.9113   71.0436   -7.0014 C   0  0  0  0  0  0  0  0  0  0  0  0
   19.3917   70.7540   -8.3540 C   0  0  0  0  0  0  0  0  0  0  0  0
   17.6361   70.4451   -9.3190 H   0  0  0  0  0  0  0  0  0  0  0  0
   21.0308   72.3519   -0.2557 O   0  0  0  0  0  0  0  0  0  0  0  0
   20.3960   71.3511    0.8439 P   0  0  2  0  0  0  0  0  0  0  0  0
   20.0769   70.0151   -0.0126 O   0  0  0  0  0  0  0  0  0  0  0  0
   19.2125   71.9128    1.5773 O   0  0  0  0  0  0  0  0  0  0  0  0
   21.6371   70.9418    1.7897 O   0  0  0  0  0  0  0  0  0  0  0  0
   23.4913   72.4100    1.9134 O   0  0  0  0  0  0  0  0  0  0  0  0
   25.0510   68.9472    3.5395 O   0  0  0  0  0  0  0  0  0  0  0  0
   23.3424   68.8329    1.1726 O   0  0  0  0  0  0  0  0  0  0  0  0
   24.3252   71.1714    5.2649 O   0  0  0  0  0  0  0  0  0  0  0  0
   24.0335   69.9020    3.2379 C   0  0  2  0  0  0  0  0  0  0  0  0
   23.8838   70.0287    1.7217 C   0  0  2  0  0  0  0  0  0  0  0  0
   24.4489   71.2436    3.8458 C   0  0  1  0  0  0  0  0  0  0  0  0
   22.9717   71.2012    1.3581 C   0  0  1  0  0  0  0  0  0  0  0  0
   23.5692   72.3820    3.3368 C   0  0  1  0  0  0  0  0  0  0  0  0
   24.8088   68.0864    3.1630 H   0  0  0  0  0  0  0  0  0  0  0  0
   23.9160   68.0847    1.3997 H   0  0  0  0  0  0  0  0  0  0  0  0
   24.8802   70.4505    5.6015 H   0  0  0  0  0  0  0  0  0  0  0  0
   24.5576   74.3527    2.5362 O   0  0  0  0  0  0  0  0  0  0  0  0
   24.3073   74.1576    4.7941 O   0  0  0  0  0  0  0  0  0  0  0  0
   24.1744   73.7078    3.6659 C   0  0  0  0  0  0  0  0  0  0  0  0
  1  4  1  0
  1 24  1  0
  1  2  1  1
  1  3  2  0
 25 28  1  0
 25 24  1  0
 25 26  1  6
 25 27  2  0
  6 11  1  0
  6 12  1  0
 29 36  1  0
 29 37  1  0
  9  7  1  6
  7 13  1  0
 10  8  1  6
  8 14  1  0
  4  5  1  0
 36 28  1  1
 33 30  1  6
 30 38  1  0
 34 31  1  1
 31 39  1  0
 35 32  1  1
 32 40  1  0
 41 43  1  0
 15 19  2  0
 42 43  2  0
 16 22  2  0
 12 17  1  6
 17 19  1  0
 17 20  1  0
 18 19  1  0
 18 22  1  0
 18 23  1  0
  9 10  1  0
  9 11  1  0
 10 12  1  0
 11  5  1  6
 33 34  1  0
 33 35  1  0
 34 36  1  0
 35 37  1  0
 37 43  1  6
 20 21  2  0
 21 22  1  0
M  CHG  3   2  -1  26  -1  41  -1
M  END
>  <COMPND>  (50) 
    udp_gluA.pdb 

>  <AUTHOR>  (50) 
    GENERATED BY OPEN BABEL 3.1.1

>  <MASTER>  (50) 
        0    0    0    0    0    0    0    0   56    0   56    0

>  <minimizedAffinity>  (50) 
-8.28472

>  <CNNscore>  (50) 
0.6486132145

>  <CNNaffinity>  (50) 
4.7677979469

>  <CNN_VS>  (50) 
3.0924568176

>  <CNNaffinity_variance>  (50) 
0.1276213825

$$$$
51
     RDKit          3D

 43 45  0  0  0  0  0  0  0  0999 V2000
   24.2334   70.1458    3.4133 P   0  0  2  0  0  0  0  0  0  0  0  0
   23.4519   70.2178    4.8285 O   0  0  0  0  0  0  0  0  0  0  0  0
   23.9964   68.8932    2.6217 O   0  0  0  0  0  0  0  0  0  0  0  0
   25.7739   70.4490    3.8043 O   0  0  0  0  0  0  0  0  0  0  0  0
   26.5951   71.1066    2.8568 C   0  0  0  0  0  0  0  0  0  0  0  0
   28.6366   71.9275    3.8243 O   0  0  0  0  0  0  0  0  0  0  0  0
   27.4821   74.6723    3.4711 O   0  0  0  0  0  0  0  0  0  0  0  0
   29.1998   74.4725    1.3626 O   0  0  0  0  0  0  0  0  0  0  0  0
   27.3557   73.5239    2.6321 C   0  0  1  0  0  0  0  0  0  0  0  0
   28.6464   73.2802    1.8792 C   0  0  2  0  0  0  0  0  0  0  0  0
   27.2721   72.2951    3.5273 C   0  0  1  0  0  0  0  0  0  0  0  0
   29.5198   72.6452    2.9477 C   0  0  2  0  0  0  0  0  0  0  0  0
   27.5373   75.4701    2.9215 H   0  0  0  0  0  0  0  0  0  0  0  0
   28.6070   74.8376    0.6864 H   0  0  0  0  0  0  0  0  0  0  0  0
   32.1550   72.3262    3.9122 O   0  0  0  0  0  0  0  0  0  0  0  0
   33.1119   69.0996    0.7630 O   0  0  0  0  0  0  0  0  0  0  0  0
   30.4786   71.7288    2.3985 N   0  0  0  0  0  0  0  0  0  0  0  0
   32.6294   70.7202    2.3422 N   0  0  0  0  0  0  0  0  0  0  0  0
   31.7762   71.6461    2.9567 C   0  0  0  0  0  0  0  0  0  0  0  0
   30.1303   70.9237    1.3208 C   0  0  0  0  0  0  0  0  0  0  0  0
   30.9544   70.0457    0.7458 C   0  0  0  0  0  0  0  0  0  0  0  0
   32.3287   69.8981    1.2682 C   0  0  0  0  0  0  0  0  0  0  0  0
   33.5388   70.6462    2.7121 H   0  0  0  0  0  0  0  0  0  0  0  0
   23.7715   71.5071    2.6740 O   0  0  0  0  0  0  0  0  0  0  0  0
   22.3749   71.9090    1.9659 P   0  0  2  0  0  0  0  0  0  0  0  0
   22.4579   73.5230    1.8739 O   0  0  0  0  0  0  0  0  0  0  0  0
   21.1552   71.3918    2.6721 O   0  0  0  0  0  0  0  0  0  0  0  0
   22.5294   71.4058    0.4410 O   0  0  0  0  0  0  0  0  0  0  0  0
   20.7222   70.2402   -0.5511 O   0  0  0  0  0  0  0  0  0  0  0  0
   23.8092   69.3817   -3.1590 O   0  0  0  0  0  0  0  0  0  0  0  0
   24.2560   69.3451   -0.2722 O   0  0  0  0  0  0  0  0  0  0  0  0
   21.7773   71.3268   -3.8931 O   0  0  0  0  0  0  0  0  0  0  0  0
   23.0751   70.1718   -2.2237 C   0  0  2  0  0  0  0  0  0  0  0  0
   22.9775   69.4284   -0.8913 C   0  0  2  0  0  0  0  0  0  0  0  0
   21.6790   70.4134   -2.8019 C   0  0  1  0  0  0  0  0  0  0  0  0
   22.0089   70.1339    0.0591 C   0  0  1  0  0  0  0  0  0  0  0  0
   20.7371   71.0028   -1.7559 C   0  0  1  0  0  0  0  0  0  0  0  0
   24.7002   69.2152   -2.8129 H   0  0  0  0  0  0  0  0  0  0  0  0
   24.8756   68.8988   -0.8698 H   0  0  0  0  0  0  0  0  0  0  0  0
   22.3741   70.9636   -4.5659 H   0  0  0  0  0  0  0  0  0  0  0  0
   18.6502   69.9510   -1.5562 O   0  0  0  0  0  0  0  0  0  0  0  0
   18.8196   71.6466   -3.0712 O   0  0  0  0  0  0  0  0  0  0  0  0
   19.3182   70.9283   -2.2177 C   0  0  0  0  0  0  0  0  0  0  0  0
  1  4  1  0
  1 24  1  0
  1  2  1  1
  1  3  2  0
 25 28  1  0
 25 24  1  0
 25 26  1  6
 25 27  2  0
  6 11  1  0
  6 12  1  0
 29 36  1  0
 29 37  1  0
  9  7  1  1
  7 13  1  0
 10  8  1  1
  8 14  1  0
  4  5  1  0
 36 28  1  6
 33 30  1  6
 30 38  1  0
 34 31  1  1
 31 39  1  0
 35 32  1  6
 32 40  1  0
 41 43  1  0
 15 19  2  0
 42 43  2  0
 16 22  2  0
 12 17  1  6
 17 19  1  0
 17 20  1  0
 18 19  1  0
 18 22  1  0
 18 23  1  0
  9 10  1  0
  9 11  1  0
 10 12  1  0
 11  5  1  6
 33 34  1  0
 33 35  1  0
 34 36  1  0
 35 37  1  0
 37 43  1  6
 20 21  2  0
 21 22  1  0
M  CHG  3   2  -1  26  -1  41  -1
M  END
>  <COMPND>  (51) 
    udp_gluA.pdb 

>  <AUTHOR>  (51) 
    GENERATED BY OPEN BABEL 3.1.1

>  <MASTER>  (51) 
        0    0    0    0    0    0    0    0   56    0   56    0

>  <minimizedAffinity>  (51) 
-8.68275

>  <CNNscore>  (51) 
0.6418282986

>  <CNNaffinity>  (51) 
4.6313123703

>  <CNN_VS>  (51) 
2.9725072384

>  <CNNaffinity_variance>  (51) 
0.0548063144

$$$$
52
     RDKit          3D

 43 45  0  0  0  0  0  0  0  0999 V2000
   22.6149   71.7677   -3.2352 P   0  0  2  0  0  0  0  0  0  0  0  0
   23.1754   72.9205   -2.2475 O   0  0  0  0  0  0  0  0  0  0  0  0
   22.4416   72.1879   -4.6653 O   0  0  0  0  0  0  0  0  0  0  0  0
   21.2797   71.2352   -2.4926 O   0  0  0  0  0  0  0  0  0  0  0  0
   20.3788   70.4223   -3.2221 C   0  0  0  0  0  0  0  0  0  0  0  0
   18.7174   71.7214   -4.3753 O   0  0  0  0  0  0  0  0  0  0  0  0
   16.7510   70.6186   -2.3982 O   0  0  0  0  0  0  0  0  0  0  0  0
   16.2998   69.0839   -4.6066 O   0  0  0  0  0  0  0  0  0  0  0  0
   17.8826   69.9858   -2.9961 C   0  0  1  0  0  0  0  0  0  0  0  0
   17.5874   69.6399   -4.4402 C   0  0  2  0  0  0  0  0  0  0  0  0
   18.9837   71.0280   -3.1369 C   0  0  1  0  0  0  0  0  0  0  0  0
   17.7348   70.9884   -5.1241 C   0  0  2  0  0  0  0  0  0  0  0  0
   16.0342   69.9723   -2.2980 H   0  0  0  0  0  0  0  0  0  0  0  0
   16.2569   68.2266   -4.1536 H   0  0  0  0  0  0  0  0  0  0  0  0
   16.0170   70.6224   -7.3358 O   0  0  0  0  0  0  0  0  0  0  0  0
   19.5482   70.5376  -10.2967 O   0  0  0  0  0  0  0  0  0  0  0  0
   18.1786   70.8676   -6.4840 N   0  0  0  0  0  0  0  0  0  0  0  0
   17.7774   70.5795   -8.8082 N   0  0  0  0  0  0  0  0  0  0  0  0
   17.2337   70.6861   -7.5214 C   0  0  0  0  0  0  0  0  0  0  0  0
   19.5350   70.9309   -6.7790 C   0  0  0  0  0  0  0  0  0  0  0  0
   20.0382   70.8278   -8.0107 C   0  0  0  0  0  0  0  0  0  0  0  0
   19.1186   70.6356   -9.1512 C   0  0  0  0  0  0  0  0  0  0  0  0
   17.1392   70.4506   -9.5467 H   0  0  0  0  0  0  0  0  0  0  0  0
   23.6625   70.5572   -3.0114 O   0  0  0  0  0  0  0  0  0  0  0  0
   23.6897   69.3653   -1.9194 P   0  0  2  0  0  0  0  0  0  0  0  0
   25.2715   69.0973   -1.7038 O   0  0  0  0  0  0  0  0  0  0  0  0
   22.9047   68.1486   -2.3161 O   0  0  0  0  0  0  0  0  0  0  0  0
   23.2032   70.0575   -0.5458 O   0  0  0  0  0  0  0  0  0  0  0  0
   23.5526   69.1286    1.6046 O   0  0  0  0  0  0  0  0  0  0  0  0
   20.3053   71.5941    2.2713 O   0  0  0  0  0  0  0  0  0  0  0  0
   20.4524   69.9601   -0.1459 O   0  0  0  0  0  0  0  0  0  0  0  0
   22.9510   72.3888    3.1767 O   0  0  0  0  0  0  0  0  0  0  0  0
   21.5251   71.1842    1.6533 C   0  0  2  0  0  0  0  0  0  0  0  0
   21.3238   69.8306    0.9715 C   0  0  2  0  0  0  0  0  0  0  0  0
   22.5947   71.0777    2.7426 C   0  0  1  0  0  0  0  0  0  0  0  0
   22.6582   69.2526    0.4981 C   0  0  1  0  0  0  0  0  0  0  0  0
   23.8482   70.3775    2.2259 C   0  0  1  0  0  0  0  0  0  0  0  0
   19.6106   71.6685    1.5981 H   0  0  0  0  0  0  0  0  0  0  0  0
   19.6038   70.3266    0.1472 H   0  0  0  0  0  0  0  0  0  0  0  0
   22.1618   72.8453    3.5079 H   0  0  0  0  0  0  0  0  0  0  0  0
   24.0886   70.0904    4.5414 O   0  0  0  0  0  0  0  0  0  0  0  0
   25.9013   69.6187    3.2411 O   0  0  0  0  0  0  0  0  0  0  0  0
   24.7417   69.9859    3.3576 C   0  0  0  0  0  0  0  0  0  0  0  0
  1  4  1  0
  1 24  1  0
  1  2  1  1
  1  3  2  0
 25 28  1  0
 25 24  1  0
 25 26  1  1
 25 27  2  0
  6 11  1  0
  6 12  1  0
 29 36  1  0
 29 37  1  0
  9  7  1  6
  7 13  1  0
 10  8  1  1
  8 14  1  0
  4  5  1  0
 36 28  1  6
 33 30  1  1
 30 38  1  0
 34 31  1  6
 31 39  1  0
 35 32  1  6
 32 40  1  0
 41 43  1  0
 15 19  2  0
 42 43  2  0
 16 22  2  0
 12 17  1  6
 17 19  1  0
 17 20  1  0
 18 19  1  0
 18 22  1  0
 18 23  1  0
  9 10  1  0
  9 11  1  0
 10 12  1  0
 11  5  1  6
 33 34  1  0
 33 35  1  0
 34 36  1  0
 35 37  1  0
 37 43  1  1
 20 21  2  0
 21 22  1  0
M  CHG  3   2  -1  26  -1  41  -1
M  END
>  <COMPND>  (52) 
    udp_gluA.pdb 

>  <AUTHOR>  (52) 
    GENERATED BY OPEN BABEL 3.1.1

>  <MASTER>  (52) 
        0    0    0    0    0    0    0    0   56    0   56    0

>  <minimizedAffinity>  (52) 
-8.94246

>  <CNNscore>  (52) 
0.6390531659

>  <CNNaffinity>  (52) 
4.6495146751

>  <CNN_VS>  (52) 
2.9712870121

>  <CNNaffinity_variance>  (52) 
0.0314037353

$$$$
53
     RDKit          3D

 43 45  0  0  0  0  0  0  0  0999 V2000
   21.9082   71.1608   -2.1028 P   0  0  2  0  0  0  0  0  0  0  0  0
   22.6700   72.4427   -2.7314 O   0  0  0  0  0  0  0  0  0  0  0  0
   21.8720   69.9489   -2.9869 O   0  0  0  0  0  0  0  0  0  0  0  0
   20.4682   71.7463   -1.6539 O   0  0  0  0  0  0  0  0  0  0  0  0
   19.6634   72.3831   -2.6292 C   0  0  0  0  0  0  0  0  0  0  0  0
   17.6192   71.9694   -3.8241 O   0  0  0  0  0  0  0  0  0  0  0  0
   16.9064   70.1050   -1.5865 O   0  0  0  0  0  0  0  0  0  0  0  0
   17.7546   68.3983   -3.5368 O   0  0  0  0  0  0  0  0  0  0  0  0
   18.1814   70.3660   -2.1737 C   0  0  1  0  0  0  0  0  0  0  0  0
   18.2752   69.7111   -3.5355 C   0  0  2  0  0  0  0  0  0  0  0  0
   18.2417   71.8458   -2.5270 C   0  0  1  0  0  0  0  0  0  0  0  0
   17.4647   70.6623   -4.3994 C   0  0  2  0  0  0  0  0  0  0  0  0
   16.8442   69.1653   -1.3523 H   0  0  0  0  0  0  0  0  0  0  0  0
   18.3052   67.8316   -2.9731 H   0  0  0  0  0  0  0  0  0  0  0  0
   15.8799   69.9745   -6.6336 O   0  0  0  0  0  0  0  0  0  0  0  0
   19.3302   70.8187   -9.5708 O   0  0  0  0  0  0  0  0  0  0  0  0
   17.9237   70.6935   -5.7593 N   0  0  0  0  0  0  0  0  0  0  0  0
   17.6001   70.3947   -8.0943 N   0  0  0  0  0  0  0  0  0  0  0  0
   17.0474   70.3286   -6.8086 C   0  0  0  0  0  0  0  0  0  0  0  0
   19.2270   71.0835   -6.0427 C   0  0  0  0  0  0  0  0  0  0  0  0
   19.7396   71.1417   -7.2734 C   0  0  0  0  0  0  0  0  0  0  0  0
   18.8903   70.7757   -8.4259 C   0  0  0  0  0  0  0  0  0  0  0  0
   17.0097   70.1433   -8.8410 H   0  0  0  0  0  0  0  0  0  0  0  0
   22.6675   70.9430   -0.6925 O   0  0  0  0  0  0  0  0  0  0  0  0
   22.5373   69.7707    0.4131 P   0  0  2  0  0  0  0  0  0  0  0  0
   23.5740   68.6459   -0.1166 O   0  0  0  0  0  0  0  0  0  0  0  0
   21.1364   69.2721    0.6200 O   0  0  0  0  0  0  0  0  0  0  0  0
   23.2345   70.3763    1.7358 O   0  0  0  0  0  0  0  0  0  0  0  0
   23.0336   72.5841    2.5691 O   0  0  0  0  0  0  0  0  0  0  0  0
   26.7582   71.4882    3.9814 O   0  0  0  0  0  0  0  0  0  0  0  0
   25.9430   70.7965    1.2627 O   0  0  0  0  0  0  0  0  0  0  0  0
   24.4791   71.5667    5.7843 O   0  0  0  0  0  0  0  0  0  0  0  0
   25.4046   71.2808    3.5782 C   0  0  2  0  0  0  0  0  0  0  0  0
   25.2377   71.6914    2.1150 C   0  0  2  0  0  0  0  0  0  0  0  0
   24.5073   72.1352    4.4765 C   0  0  1  0  0  0  0  0  0  0  0  0
   23.7618   71.7016    1.7145 C   0  0  1  0  0  0  0  0  0  0  0  0
   23.0799   72.1972    3.9407 C   0  0  1  0  0  0  0  0  0  0  0  0
   27.3470   70.9551    3.4243 H   0  0  0  0  0  0  0  0  0  0  0  0
   26.8802   70.7849    1.5114 H   0  0  0  0  0  0  0  0  0  0  0  0
   25.3817   71.5213    6.1367 H   0  0  0  0  0  0  0  0  0  0  0  0
   21.1912   73.5878    3.9110 O   0  0  0  0  0  0  0  0  0  0  0  0
   22.6217   73.8138    5.6722 O   0  0  0  0  0  0  0  0  0  0  0  0
   22.3046   73.2785    4.6206 C   0  0  0  0  0  0  0  0  0  0  0  0
  1  4  1  0
  1 24  1  0
  1  2  1  6
  1  3  2  0
 25 28  1  0
 25 24  1  0
 25 26  1  6
 25 27  2  0
  6 11  1  0
  6 12  1  0
 29 36  1  0
 29 37  1  0
  9  7  1  6
  7 13  1  0
 10  8  1  1
  8 14  1  0
  4  5  1  0
 36 28  1  1
 33 30  1  1
 30 38  1  0
 34 31  1  6
 31 39  1  0
 35 32  1  1
 32 40  1  0
 41 43  1  0
 15 19  2  0
 42 43  2  0
 16 22  2  0
 12 17  1  6
 17 19  1  0
 17 20  1  0
 18 19  1  0
 18 22  1  0
 18 23  1  0
  9 10  1  0
  9 11  1  0
 10 12  1  0
 11  5  1  6
 33 34  1  0
 33 35  1  0
 34 36  1  0
 35 37  1  0
 37 43  1  1
 20 21  2  0
 21 22  1  0
M  CHG  3   2  -1  26  -1  41  -1
M  END
>  <COMPND>  (53) 
    udp_gluA.pdb 

>  <AUTHOR>  (53) 
    GENERATED BY OPEN BABEL 3.1.1

>  <MASTER>  (53) 
        0    0    0    0    0    0    0    0   56    0   56    0

>  <minimizedAffinity>  (53) 
-9.01531

>  <CNNscore>  (53) 
0.5562682748

>  <CNNaffinity>  (53) 
4.6427040100

>  <CNN_VS>  (53) 
2.5825889111

>  <CNNaffinity_variance>  (53) 
0.1123726219

$$$$
54
     RDKit          3D

 43 45  0  0  0  0  0  0  0  0999 V2000
   20.4267   71.1822    0.5689 P   0  0  2  0  0  0  0  0  0  0  0  0
   21.3376   72.1307   -0.3742 O   0  0  0  0  0  0  0  0  0  0  0  0
   19.5070   71.9129    1.5027 O   0  0  0  0  0  0  0  0  0  0  0  0
   21.4952   70.1893    1.2692 O   0  0  0  0  0  0  0  0  0  0  0  0
   22.7045   70.7365    1.7618 C   0  0  0  0  0  0  0  0  0  0  0  0
   23.7351   70.6366    3.9310 O   0  0  0  0  0  0  0  0  0  0  0  0
   21.7250   72.6951    4.7755 O   0  0  0  0  0  0  0  0  0  0  0  0
   23.9731   74.1861    4.3766 O   0  0  0  0  0  0  0  0  0  0  0  0
   22.3940   72.5459    3.5230 C   0  0  1  0  0  0  0  0  0  0  0  0
   23.8375   72.9862    3.6442 C   0  0  2  0  0  0  0  0  0  0  0  0
   22.5377   71.0565    3.2417 C   0  0  1  0  0  0  0  0  0  0  0  0
   24.4719   71.7977    4.3462 C   0  0  2  0  0  0  0  0  0  0  0  0
   21.6216   73.6387    4.9768 H   0  0  0  0  0  0  0  0  0  0  0  0
   23.5536   74.9122    3.8880 H   0  0  0  0  0  0  0  0  0  0  0  0
   26.6167   73.1503    5.5898 O   0  0  0  0  0  0  0  0  0  0  0  0
   29.7290   71.0592    2.9092 O   0  0  0  0  0  0  0  0  0  0  0  0
   25.8526   71.6255    3.9930 N   0  0  0  0  0  0  0  0  0  0  0  0
   28.1647   72.1083    4.2528 N   0  0  0  0  0  0  0  0  0  0  0  0
   26.8529   72.3533    4.6799 C   0  0  0  0  0  0  0  0  0  0  0  0
   26.2042   70.7435    2.9785 C   0  0  0  0  0  0  0  0  0  0  0  0
   27.4589   70.5204    2.5826 C   0  0  0  0  0  0  0  0  0  0  0  0
   28.5636   71.2413    3.2484 C   0  0  0  0  0  0  0  0  0  0  0  0
   28.8783   72.6049    4.7149 H   0  0  0  0  0  0  0  0  0  0  0  0
   19.6810   70.2210   -0.4955 O   0  0  0  0  0  0  0  0  0  0  0  0
   18.4770   70.5186   -1.5327 P   0  0  2  0  0  0  0  0  0  0  0  0
   17.6153   71.6639   -0.7803 O   0  0  0  0  0  0  0  0  0  0  0  0
   17.6849   69.3040   -1.9215 O   0  0  0  0  0  0  0  0  0  0  0  0
   19.1799   71.2830   -2.7672 O   0  0  0  0  0  0  0  0  0  0  0  0
   19.0212   70.1798   -4.8570 O   0  0  0  0  0  0  0  0  0  0  0  0
   21.7625   73.1577   -5.6845 O   0  0  0  0  0  0  0  0  0  0  0  0
   21.9039   71.6709   -3.1738 O   0  0  0  0  0  0  0  0  0  0  0  0
   19.0214   73.3959   -6.6229 O   0  0  0  0  0  0  0  0  0  0  0  0
   20.6352   72.5674   -5.0374 C   0  0  2  0  0  0  0  0  0  0  0  0
   21.0784   71.3169   -4.2774 C   0  0  2  0  0  0  0  0  0  0  0  0
   19.6105   72.2010   -6.1133 C   0  0  1  0  0  0  0  0  0  0  0  0
   19.8704   70.5319   -3.7642 C   0  0  1  0  0  0  0  0  0  0  0  0
   18.5043   71.3136   -5.5500 C   0  0  1  0  0  0  0  0  0  0  0  0
   22.4273   73.3988   -5.0203 H   0  0  0  0  0  0  0  0  0  0  0  0
   22.6722   72.1695   -3.4922 H   0  0  0  0  0  0  0  0  0  0  0  0
   19.7149   73.9697   -6.9844 H   0  0  0  0  0  0  0  0  0  0  0  0
   18.3479   70.8274   -7.8393 O   0  0  0  0  0  0  0  0  0  0  0  0
   16.6229   70.1487   -6.5116 O   0  0  0  0  0  0  0  0  0  0  0  0
   17.7054   70.6977   -6.6521 C   0  0  0  0  0  0  0  0  0  0  0  0
  1  4  1  0
  1 24  1  0
  1  2  1  6
  1  3  2  0
 25 28  1  0
 25 24  1  0
 25 26  1  1
 25 27  2  0
  6 11  1  0
  6 12  1  0
 29 36  1  0
 29 37  1  0
  9  7  1  1
  7 13  1  0
 10  8  1  1
  8 14  1  0
  4  5  1  0
 36 28  1  1
 33 30  1  6
 30 38  1  0
 34 31  1  1
 31 39  1  0
 35 32  1  1
 32 40  1  0
 41 43  1  0
 15 19  2  0
 42 43  2  0
 16 22  2  0
 12 17  1  6
 17 19  1  0
 17 20  1  0
 18 19  1  0
 18 22  1  0
 18 23  1  0
  9 10  1  0
  9 11  1  0
 10 12  1  0
 11  5  1  6
 33 34  1  0
 33 35  1  0
 34 36  1  0
 35 37  1  0
 37 43  1  6
 20 21  2  0
 21 22  1  0
M  CHG  3   2  -1  26  -1  41  -1
M  END
>  <COMPND>  (54) 
    udp_gluA.pdb 

>  <AUTHOR>  (54) 
    GENERATED BY OPEN BABEL 3.1.1

>  <MASTER>  (54) 
        0    0    0    0    0    0    0    0   56    0   56    0

>  <minimizedAffinity>  (54) 
-8.22803

>  <CNNscore>  (54) 
0.5401507020

>  <CNNaffinity>  (54) 
4.3362035751

>  <CNN_VS>  (54) 
2.3422033787

>  <CNNaffinity_variance>  (54) 
0.1607532799

$$$$
55
     RDKit          3D

 43 45  0  0  0  0  0  0  0  0999 V2000
   22.6878   72.1621   -2.9397 P   0  0  2  0  0  0  0  0  0  0  0  0
   23.7280   72.3009   -4.1716 O   0  0  0  0  0  0  0  0  0  0  0  0
   22.7667   73.2578   -1.9174 O   0  0  0  0  0  0  0  0  0  0  0  0
   22.9410   70.6636   -2.3844 O   0  0  0  0  0  0  0  0  0  0  0  0
   23.6640   70.5028   -1.1778 C   0  0  0  0  0  0  0  0  0  0  0  0
   23.7309   69.2374    0.8647 O   0  0  0  0  0  0  0  0  0  0  0  0
   20.7349   69.2311    0.7408 O   0  0  0  0  0  0  0  0  0  0  0  0
   21.2514   71.1846    2.5720 O   0  0  0  0  0  0  0  0  0  0  0  0
   21.6528   70.2564    0.3607 C   0  0  1  0  0  0  0  0  0  0  0  0
   22.2324   70.9231    1.5903 C   0  0  2  0  0  0  0  0  0  0  0  0
   22.8785   69.5880   -0.2469 C   0  0  1  0  0  0  0  0  0  0  0  0
   23.2600   69.9021    2.0479 C   0  0  2  0  0  0  0  0  0  0  0  0
   19.9433   69.6339    1.1318 H   0  0  0  0  0  0  0  0  0  0  0  0
   20.6214   71.8404    2.2328 H   0  0  0  0  0  0  0  0  0  0  0  0
   23.3503   70.4539    4.8162 O   0  0  0  0  0  0  0  0  0  0  0  0
   27.5906   72.2341    4.5086 O   0  0  0  0  0  0  0  0  0  0  0  0
   24.3753   70.5093    2.7175 N   0  0  0  0  0  0  0  0  0  0  0  0
   25.4618   71.3409    4.6602 N   0  0  0  0  0  0  0  0  0  0  0  0
   24.3193   70.7434    4.1118 C   0  0  0  0  0  0  0  0  0  0  0  0
   25.5083   70.8643    1.9955 C   0  0  0  0  0  0  0  0  0  0  0  0
   26.5896   71.4330    2.5322 C   0  0  0  0  0  0  0  0  0  0  0  0
   26.6119   71.7125    3.9830 C   0  0  0  0  0  0  0  0  0  0  0  0
   25.4454   71.5157    5.6290 H   0  0  0  0  0  0  0  0  0  0  0  0
   21.2584   72.0372   -3.6839 O   0  0  0  0  0  0  0  0  0  0  0  0
   20.2259   73.1708   -4.1964 P   0  0  2  0  0  0  0  0  0  0  0  0
   21.2004   74.3829   -4.6453 O   0  0  0  0  0  0  0  0  0  0  0  0
   19.1841   73.5566   -3.1866 O   0  0  0  0  0  0  0  0  0  0  0  0
   19.6343   72.5900   -5.5803 O   0  0  0  0  0  0  0  0  0  0  0  0
   18.8368   70.3685   -5.3851 O   0  0  0  0  0  0  0  0  0  0  0  0
   18.5847   70.9973   -9.4605 O   0  0  0  0  0  0  0  0  0  0  0  0
   20.9124   71.9269   -7.9599 O   0  0  0  0  0  0  0  0  0  0  0  0
   16.1814   71.0433   -7.8256 O   0  0  0  0  0  0  0  0  0  0  0  0
   18.5556   71.3639   -8.0811 C   0  0  2  0  0  0  0  0  0  0  0  0
   19.9107   71.0592   -7.4420 C   0  0  2  0  0  0  0  0  0  0  0  0
   17.4512   70.5530   -7.3994 C   0  0  1  0  0  0  0  0  0  0  0  0
   19.8479   71.2219   -5.9226 C   0  0  1  0  0  0  0  0  0  0  0  0
   17.5333   70.6672   -5.8800 C   0  0  1  0  0  0  0  0  0  0  0  0
   19.2793   71.5001   -9.9144 H   0  0  0  0  0  0  0  0  0  0  0  0
   20.9575   71.8291   -8.9237 H   0  0  0  0  0  0  0  0  0  0  0  0
   16.1163   70.9764   -8.7910 H   0  0  0  0  0  0  0  0  0  0  0  0
   16.7324   69.7534   -3.8737 O   0  0  0  0  0  0  0  0  0  0  0  0
   16.0200   68.7892   -5.8133 O   0  0  0  0  0  0  0  0  0  0  0  0
   16.6797   69.6316   -5.2233 C   0  0  0  0  0  0  0  0  0  0  0  0
  1  4  1  0
  1 24  1  0
  1  2  1  6
  1  3  2  0
 25 28  1  0
 25 24  1  0
 25 26  1  6
 25 27  2  0
  6 11  1  0
  6 12  1  0
 29 36  1  0
 29 37  1  0
  9  7  1  1
  7 13  1  0
 10  8  1  1
  8 14  1  0
  4  5  1  0
 36 28  1  6
 33 30  1  6
 30 38  1  0
 34 31  1  6
 31 39  1  0
 35 32  1  6
 32 40  1  0
 41 43  1  0
 15 19  2  0
 42 43  2  0
 16 22  2  0
 12 17  1  6
 17 19  1  0
 17 20  1  0
 18 19  1  0
 18 22  1  0
 18 23  1  0
  9 10  1  0
  9 11  1  0
 10 12  1  0
 11  5  1  6
 33 34  1  0
 33 35  1  0
 34 36  1  0
 35 37  1  0
 37 43  1  1
 20 21  2  0
 21 22  1  0
M  CHG  3   2  -1  26  -1  41  -1
M  END
>  <COMPND>  (55) 
    udp_gluA.pdb 

>  <AUTHOR>  (55) 
    GENERATED BY OPEN BABEL 3.1.1

>  <MASTER>  (55) 
        0    0    0    0    0    0    0    0   56    0   56    0

>  <minimizedAffinity>  (55) 
-9.39256

>  <CNNscore>  (55) 
0.5079075098

>  <CNNaffinity>  (55) 
4.5088934898

>  <CNN_VS>  (55) 
2.2901008129

>  <CNNaffinity_variance>  (55) 
0.0873010531

$$$$
56
     RDKit          3D

 43 45  0  0  0  0  0  0  0  0999 V2000
   21.1279   70.3621    0.2515 P   0  0  2  0  0  0  0  0  0  0  0  0
   20.3219   71.3696    1.2283 O   0  0  0  0  0  0  0  0  0  0  0  0
   21.1516   68.9299    0.6988 O   0  0  0  0  0  0  0  0  0  0  0  0
   22.5735   71.0667    0.0739 O   0  0  0  0  0  0  0  0  0  0  0  0
   23.0121   71.9708    1.0713 C   0  0  0  0  0  0  0  0  0  0  0  0
   24.7472   72.3571    2.6892 O   0  0  0  0  0  0  0  0  0  0  0  0
   24.9017   69.3748    2.9604 O   0  0  0  0  0  0  0  0  0  0  0  0
   23.4483   70.0979    5.1515 O   0  0  0  0  0  0  0  0  0  0  0  0
   23.7603   70.2045    2.7424 C   0  0  1  0  0  0  0  0  0  0  0  0
   23.3932   70.9360    4.0161 C   0  0  2  0  0  0  0  0  0  0  0  0
   24.1783   71.3476    1.8276 C   0  0  1  0  0  0  0  0  0  0  0  0
   24.4333   72.0426    4.0552 C   0  0  2  0  0  0  0  0  0  0  0  0
   24.6592   68.6371    3.5423 H   0  0  0  0  0  0  0  0  0  0  0  0
   22.7670   69.4104    5.0791 H   0  0  0  0  0  0  0  0  0  0  0  0
   26.0865   73.9731    5.2869 O   0  0  0  0  0  0  0  0  0  0  0  0
   22.4687   76.5450    6.5283 O   0  0  0  0  0  0  0  0  0  0  0  0
   23.9498   73.2264    4.7077 N   0  0  0  0  0  0  0  0  0  0  0  0
   24.2830   75.2517    5.9049 N   0  0  0  0  0  0  0  0  0  0  0  0
   24.8643   74.1321    5.2953 C   0  0  0  0  0  0  0  0  0  0  0  0
   22.5847   73.4814    4.7594 C   0  0  0  0  0  0  0  0  0  0  0  0
   22.0456   74.5530    5.3440 C   0  0  0  0  0  0  0  0  0  0  0  0
   22.9318   75.5481    5.9824 C   0  0  0  0  0  0  0  0  0  0  0  0
   24.8996   75.8955    6.3227 H   0  0  0  0  0  0  0  0  0  0  0  0
   20.4251   70.6079   -1.1832 O   0  0  0  0  0  0  0  0  0  0  0  0
   20.7319   71.6907   -2.3438 P   0  0  2  0  0  0  0  0  0  0  0  0
   22.1136   71.1541   -2.9944 O   0  0  0  0  0  0  0  0  0  0  0  0
   20.7862   73.1115   -1.8616 O   0  0  0  0  0  0  0  0  0  0  0  0
   19.6140   71.4090   -3.4723 O   0  0  0  0  0  0  0  0  0  0  0  0
   18.9855   69.2768   -4.2894 O   0  0  0  0  0  0  0  0  0  0  0  0
   18.0173   71.7181   -7.4786 O   0  0  0  0  0  0  0  0  0  0  0  0
   20.5088   72.1218   -6.0075 O   0  0  0  0  0  0  0  0  0  0  0  0
   15.9243   70.6732   -5.7528 O   0  0  0  0  0  0  0  0  0  0  0  0
   18.2002   71.3820   -6.1032 C   0  0  2  0  0  0  0  0  0  0  0  0
   19.6583   70.9905   -5.8616 C   0  0  2  0  0  0  0  0  0  0  0  0
   17.2730   70.2095   -5.7756 C   0  0  1  0  0  0  0  0  0  0  0  0
   19.8428   70.4060   -4.4605 C   0  0  1  0  0  0  0  0  0  0  0  0
   17.6028   69.6016   -4.4154 C   0  0  1  0  0  0  0  0  0  0  0  0
   18.5967   72.4611   -7.7098 H   0  0  0  0  0  0  0  0  0  0  0  0
   20.3967   72.4979   -6.8943 H   0  0  0  0  0  0  0  0  0  0  0  0
   15.7017   71.0627   -6.6128 H   0  0  0  0  0  0  0  0  0  0  0  0
   17.6393   67.4833   -3.4089 O   0  0  0  0  0  0  0  0  0  0  0  0
   15.8854   67.9488   -4.7895 O   0  0  0  0  0  0  0  0  0  0  0  0
   16.9307   68.2776   -4.2490 C   0  0  0  0  0  0  0  0  0  0  0  0
  1  4  1  0
  1 24  1  0
  1  2  1  1
  1  3  2  0
 25 28  1  0
 25 24  1  0
 25 26  1  6
 25 27  2  0
  6 11  1  0
  6 12  1  0
 29 36  1  0
 29 37  1  0
  9  7  1  1
  7 13  1  0
 10  8  1  1
  8 14  1  0
  4  5  1  0
 36 28  1  1
 33 30  1  6
 30 38  1  0
 34 31  1  1
 31 39  1  0
 35 32  1  1
 32 40  1  0
 41 43  1  0
 15 19  2  0
 42 43  2  0
 16 22  2  0
 12 17  1  6
 17 19  1  0
 17 20  1  0
 18 19  1  0
 18 22  1  0
 18 23  1  0
  9 10  1  0
  9 11  1  0
 10 12  1  0
 11  5  1  1
 33 34  1  0
 33 35  1  0
 34 36  1  0
 35 37  1  0
 37 43  1  6
 20 21  2  0
 21 22  1  0
M  CHG  3   2  -1  26  -1  41  -1
M  END
>  <COMPND>  (56) 
    udp_gluA.pdb 

>  <AUTHOR>  (56) 
    GENERATED BY OPEN BABEL 3.1.1

>  <MASTER>  (56) 
        0    0    0    0    0    0    0    0   56    0   56    0

>  <minimizedAffinity>  (56) 
-8.91370

>  <CNNscore>  (56) 
0.4697149992

>  <CNNaffinity>  (56) 
4.4900007248

>  <CNN_VS>  (56) 
2.1090207100

>  <CNNaffinity_variance>  (56) 
0.1226442456

$$$$
57
     RDKit          3D

 43 45  0  0  0  0  0  0  0  0999 V2000
   27.1420   72.8196    4.2086 P   0  0  2  0  0  0  0  0  0  0  0  0
   27.3971   71.3890    4.9208 O   0  0  0  0  0  0  0  0  0  0  0  0
   26.8919   73.9606    5.1505 O   0  0  0  0  0  0  0  0  0  0  0  0
   25.9635   72.5178    3.1418 O   0  0  0  0  0  0  0  0  0  0  0  0
   24.6989   73.1220    3.3425 C   0  0  0  0  0  0  0  0  0  0  0  0
   22.4926   72.1764    3.2187 O   0  0  0  0  0  0  0  0  0  0  0  0
   23.6006   69.8597    4.7669 O   0  0  0  0  0  0  0  0  0  0  0  0
   23.5624   68.9057    2.2126 O   0  0  0  0  0  0  0  0  0  0  0  0
   24.2271   70.6576    3.7622 C   0  0  1  0  0  0  0  0  0  0  0  0
   23.6832   70.3009    2.3950 C   0  0  2  0  0  0  0  0  0  0  0  0
   23.7449   72.0917    3.9327 C   0  0  1  0  0  0  0  0  0  0  0  0
   22.3392   71.0092    2.3957 C   0  0  2  0  0  0  0  0  0  0  0  0
   23.8934   68.9388    4.6781 H   0  0  0  0  0  0  0  0  0  0  0  0
   24.4445   68.5011    2.2195 H   0  0  0  0  0  0  0  0  0  0  0  0
   20.8658   69.3912    0.6102 O   0  0  0  0  0  0  0  0  0  0  0  0
   20.8373   72.6721   -2.6269 O   0  0  0  0  0  0  0  0  0  0  0  0
   21.9334   71.4156    1.0800 N   0  0  0  0  0  0  0  0  0  0  0  0
   20.8539   71.0265   -1.0007 N   0  0  0  0  0  0  0  0  0  0  0  0
   21.1960   70.5266    0.2627 C   0  0  0  0  0  0  0  0  0  0  0  0
   22.2639   72.6817    0.6124 C   0  0  0  0  0  0  0  0  0  0  0  0
   21.9307   73.1441   -0.5943 C   0  0  0  0  0  0  0  0  0  0  0  0
   21.1604   72.2777   -1.5105 C   0  0  0  0  0  0  0  0  0  0  0  0
   20.3421   70.4249   -1.5885 H   0  0  0  0  0  0  0  0  0  0  0  0
   28.4460   72.9950    3.2696 O   0  0  0  0  0  0  0  0  0  0  0  0
   28.8302   72.3229    1.8503 P   0  0  2  0  0  0  0  0  0  0  0  0
   28.3122   73.4137    0.7722 O   0  0  0  0  0  0  0  0  0  0  0  0
   28.2723   70.9434    1.6512 O   0  0  0  0  0  0  0  0  0  0  0  0
   30.4393   72.4113    1.7778 O   0  0  0  0  0  0  0  0  0  0  0  0
   31.9876   70.6192    1.8008 O   0  0  0  0  0  0  0  0  0  0  0  0
   34.2045   73.6673    3.4928 O   0  0  0  0  0  0  0  0  0  0  0  0
   31.4054   73.2834    4.2359 O   0  0  0  0  0  0  0  0  0  0  0  0
   34.6914   72.8622    0.7422 O   0  0  0  0  0  0  0  0  0  0  0  0
   33.2179   73.0952    2.6341 C   0  0  2  0  0  0  0  0  0  0  0  0
   32.1734   72.3593    3.4738 C   0  0  2  0  0  0  0  0  0  0  0  0
   33.9225   72.1208    1.6875 C   0  0  1  0  0  0  0  0  0  0  0  0
   31.2330   71.5437    2.5853 C   0  0  1  0  0  0  0  0  0  0  0  0
   32.9189   71.2567    0.9294 C   0  0  1  0  0  0  0  0  0  0  0  0
   33.7799   74.2901    4.1036 H   0  0  0  0  0  0  0  0  0  0  0  0
   31.9959   73.8046    4.8018 H   0  0  0  0  0  0  0  0  0  0  0  0
   35.3340   73.4166    1.2118 H   0  0  0  0  0  0  0  0  0  0  0  0
   33.0368   68.9314    0.6456 O   0  0  0  0  0  0  0  0  0  0  0  0
   34.5429   70.1975   -0.5066 O   0  0  0  0  0  0  0  0  0  0  0  0
   33.6033   70.1044    0.2690 C   0  0  0  0  0  0  0  0  0  0  0  0
  1  4  1  0
  1 24  1  0
  1  2  1  1
  1  3  2  0
 25 28  1  0
 25 24  1  0
 25 26  1  6
 25 27  2  0
  6 11  1  0
  6 12  1  0
 29 36  1  0
 29 37  1  0
  9  7  1  1
  7 13  1  0
 10  8  1  1
  8 14  1  0
  4  5  1  0
 36 28  1  6
 33 30  1  1
 30 38  1  0
 34 31  1  6
 31 39  1  0
 35 32  1  6
 32 40  1  0
 41 43  1  0
 15 19  2  0
 42 43  2  0
 16 22  2  0
 12 17  1  6
 17 19  1  0
 17 20  1  0
 18 19  1  0
 18 22  1  0
 18 23  1  0
  9 10  1  0
  9 11  1  0
 10 12  1  0
 11  5  1  6
 33 34  1  0
 33 35  1  0
 34 36  1  0
 35 37  1  0
 37 43  1  1
 20 21  2  0
 21 22  1  0
M  CHG  3   2  -1  26  -1  41  -1
M  END
>  <COMPND>  (57) 
    udp_gluA.pdb 

>  <AUTHOR>  (57) 
    GENERATED BY OPEN BABEL 3.1.1

>  <MASTER>  (57) 
        0    0    0    0    0    0    0    0   56    0   56    0

>  <minimizedAffinity>  (57) 
-8.29815

>  <CNNscore>  (57) 
0.4323570728

>  <CNNaffinity>  (57) 
4.4478006363

>  <CNN_VS>  (57) 
1.9230380058

>  <CNNaffinity_variance>  (57) 
0.0789279193

$$$$
58
     RDKit          3D

 43 45  0  0  0  0  0  0  0  0999 V2000
   20.7729   70.7622    0.3769 P   0  0  2  0  0  0  0  0  0  0  0  0
   19.8333   71.5406    1.4400 O   0  0  0  0  0  0  0  0  0  0  0  0
   20.8383   69.2742    0.5597 O   0  0  0  0  0  0  0  0  0  0  0  0
   22.1871   71.5436    0.4633 O   0  0  0  0  0  0  0  0  0  0  0  0
   22.3085   72.6235    1.3707 C   0  0  0  0  0  0  0  0  0  0  0  0
   23.6659   71.2588    2.8105 O   0  0  0  0  0  0  0  0  0  0  0  0
   22.2819   72.6199    5.0959 O   0  0  0  0  0  0  0  0  0  0  0  0
   24.6731   73.9260    4.9844 O   0  0  0  0  0  0  0  0  0  0  0  0
   22.6765   73.1533    3.8317 C   0  0  1  0  0  0  0  0  0  0  0  0
   24.1767   73.3536    3.7925 C   0  0  2  0  0  0  0  0  0  0  0  0
   22.4720   72.0708    2.7807 C   0  0  1  0  0  0  0  0  0  0  0  0
   24.6783   71.9369    3.5710 C   0  0  2  0  0  0  0  0  0  0  0  0
   22.4035   73.2936    5.7837 H   0  0  0  0  0  0  0  0  0  0  0  0
   24.3253   74.8271    5.0796 H   0  0  0  0  0  0  0  0  0  0  0  0
   26.3807   69.6880    3.4263 O   0  0  0  0  0  0  0  0  0  0  0  0
   29.3927   71.9126    0.7388 O   0  0  0  0  0  0  0  0  0  0  0  0
   25.9136   71.9009    2.8405 N   0  0  0  0  0  0  0  0  0  0  0  0
   27.8797   70.7984    2.0888 N   0  0  0  0  0  0  0  0  0  0  0  0
   26.6947   70.7211    2.8323 C   0  0  0  0  0  0  0  0  0  0  0  0
   26.3390   73.0241    2.1415 C   0  0  0  0  0  0  0  0  0  0  0  0
   27.4709   73.0826    1.4372 C   0  0  0  0  0  0  0  0  0  0  0  0
   28.3451   71.8928    1.3778 C   0  0  0  0  0  0  0  0  0  0  0  0
   28.4413   69.9900    2.0699 H   0  0  0  0  0  0  0  0  0  0  0  0
   20.1802   71.2400   -1.0491 O   0  0  0  0  0  0  0  0  0  0  0  0
   18.7287   71.0149   -1.7244 P   0  0  2  0  0  0  0  0  0  0  0  0
   17.8158   72.1559   -1.0281 O   0  0  0  0  0  0  0  0  0  0  0  0
   18.1921   69.6202   -1.5802 O   0  0  0  0  0  0  0  0  0  0  0  0
   18.9058   71.5097   -3.2496 O   0  0  0  0  0  0  0  0  0  0  0  0
   18.2514   70.1692   -5.0892 O   0  0  0  0  0  0  0  0  0  0  0  0
   20.9175   72.7819   -6.8593 O   0  0  0  0  0  0  0  0  0  0  0  0
   21.5009   71.6164   -4.2448 O   0  0  0  0  0  0  0  0  0  0  0  0
   18.0578   73.1262   -7.2526 O   0  0  0  0  0  0  0  0  0  0  0  0
   19.9205   72.3731   -5.9229 C   0  0  2  0  0  0  0  0  0  0  0  0
   20.4438   71.1959   -5.0995 C   0  0  2  0  0  0  0  0  0  0  0  0
   18.6741   71.9604   -6.7091 C   0  0  1  0  0  0  0  0  0  0  0  0
   19.3292   70.5845   -4.2494 C   0  0  1  0  0  0  0  0  0  0  0  0
   17.6637   71.2456   -5.8165 C   0  0  1  0  0  0  0  0  0  0  0  0
   21.7192   73.0488   -6.3825 H   0  0  0  0  0  0  0  0  0  0  0  0
   22.2115   72.0056   -4.7776 H   0  0  0  0  0  0  0  0  0  0  0  0
   18.6905   73.5905   -7.8227 H   0  0  0  0  0  0  0  0  0  0  0  0
   16.2927   69.3636   -6.0986 O   0  0  0  0  0  0  0  0  0  0  0  0
   16.1192   71.0197   -7.6562 O   0  0  0  0  0  0  0  0  0  0  0  0
   16.6186   70.5642   -6.6383 C   0  0  0  0  0  0  0  0  0  0  0  0
  1  4  1  0
  1 24  1  0
  1  2  1  1
  1  3  2  0
 25 28  1  0
 25 24  1  0
 25 26  1  1
 25 27  2  0
  6 11  1  0
  6 12  1  0
 29 36  1  0
 29 37  1  0
  9  7  1  1
  7 13  1  0
 10  8  1  1
  8 14  1  0
  4  5  1  0
 36 28  1  1
 33 30  1  6
 30 38  1  0
 34 31  1  1
 31 39  1  0
 35 32  1  1
 32 40  1  0
 41 43  1  0
 15 19  2  0
 42 43  2  0
 16 22  2  0
 12 17  1  6
 17 19  1  0
 17 20  1  0
 18 19  1  0
 18 22  1  0
 18 23  1  0
  9 10  1  0
  9 11  1  0
 10 12  1  0
 11  5  1  6
 33 34  1  0
 33 35  1  0
 34 36  1  0
 35 37  1  0
 37 43  1  6
 20 21  2  0
 21 22  1  0
M  CHG  3   2  -1  26  -1  41  -1
M  END
>  <COMPND>  (58) 
    udp_gluA.pdb 

>  <AUTHOR>  (58) 
    GENERATED BY OPEN BABEL 3.1.1

>  <MASTER>  (58) 
        0    0    0    0    0    0    0    0   56    0   56    0

>  <minimizedAffinity>  (58) 
-8.17564

>  <CNNscore>  (58) 
0.4273701012

>  <CNNaffinity>  (58) 
4.3831357956

>  <CNN_VS>  (58) 
1.8732211590

>  <CNNaffinity_variance>  (58) 
0.1759106666

$$$$
59
     RDKit          3D

 43 45  0  0  0  0  0  0  0  0999 V2000
   22.7667   72.8114   -3.2689 P   0  0  2  0  0  0  0  0  0  0  0  0
   23.6252   71.5429   -3.7912 O   0  0  0  0  0  0  0  0  0  0  0  0
   23.5170   74.1103   -3.2272 O   0  0  0  0  0  0  0  0  0  0  0  0
   22.1512   72.3100   -1.8590 O   0  0  0  0  0  0  0  0  0  0  0  0
   23.0442   71.9632   -0.8165 C   0  0  0  0  0  0  0  0  0  0  0  0
   23.2204   70.6323    1.1772 O   0  0  0  0  0  0  0  0  0  0  0  0
   20.4516   69.6650    0.5527 O   0  0  0  0  0  0  0  0  0  0  0  0
   20.0078   71.5311    2.4909 O   0  0  0  0  0  0  0  0  0  0  0  0
   21.0225   70.9589    0.3566 C   0  0  1  0  0  0  0  0  0  0  0  0
   21.1557   71.6793    1.6816 C   0  0  2  0  0  0  0  0  0  0  0  0
   22.4772   70.7735   -0.0528 C   0  0  1  0  0  0  0  0  0  0  0  0
   22.3832   71.0139    2.2803 C   0  0  2  0  0  0  0  0  0  0  0  0
   19.5220   69.7577    0.8150 H   0  0  0  0  0  0  0  0  0  0  0  0
   19.2542   71.9716    2.0669 H   0  0  0  0  0  0  0  0  0  0  0  0
   23.4083   70.2842    4.8088 O   0  0  0  0  0  0  0  0  0  0  0  0
   25.1909   74.4782    5.4994 O   0  0  0  0  0  0  0  0  0  0  0  0
   23.1190   71.8955    3.1418 N   0  0  0  0  0  0  0  0  0  0  0  0
   24.2943   72.3741    5.1508 N   0  0  0  0  0  0  0  0  0  0  0  0
   23.5900   71.4299    4.3923 C   0  0  0  0  0  0  0  0  0  0  0  0
   23.3689   73.2037    2.7455 C   0  0  0  0  0  0  0  0  0  0  0  0
   24.0419   74.0921    3.4794 C   0  0  0  0  0  0  0  0  0  0  0  0
   24.5673   73.6862    4.7994 C   0  0  0  0  0  0  0  0  0  0  0  0
   24.6303   72.0737    6.0262 H   0  0  0  0  0  0  0  0  0  0  0  0
   21.4810   72.8076   -4.2486 O   0  0  0  0  0  0  0  0  0  0  0  0
   21.2554   73.4689   -5.7064 P   0  0  2  0  0  0  0  0  0  0  0  0
   22.5506   72.9737   -6.5416 O   0  0  0  0  0  0  0  0  0  0  0  0
   21.0662   74.9581   -5.6845 O   0  0  0  0  0  0  0  0  0  0  0  0
   20.0219   72.6466   -6.3425 O   0  0  0  0  0  0  0  0  0  0  0  0
   19.0334   70.6142   -5.6343 O   0  0  0  0  0  0  0  0  0  0  0  0
   18.5139   70.4200   -9.7282 O   0  0  0  0  0  0  0  0  0  0  0  0
   21.0338   71.3735   -8.5989 O   0  0  0  0  0  0  0  0  0  0  0  0
   16.2663   71.0653   -8.0011 O   0  0  0  0  0  0  0  0  0  0  0  0
   18.6318   71.0620   -8.4586 C   0  0  2  0  0  0  0  0  0  0  0  0
   19.9987   70.7463   -7.8506 C   0  0  2  0  0  0  0  0  0  0  0  0
   17.5135   70.5350   -7.5565 C   0  0  1  0  0  0  0  0  0  0  0  0
   20.0749   71.2223   -6.3992 C   0  0  1  0  0  0  0  0  0  0  0  0
   17.7289   70.9478   -6.1034 C   0  0  1  0  0  0  0  0  0  0  0  0
   19.2145   70.7393  -10.3185 H   0  0  0  0  0  0  0  0  0  0  0  0
   20.9912   71.0762   -9.5210 H   0  0  0  0  0  0  0  0  0  0  0  0
   16.1172   70.8099   -8.9249 H   0  0  0  0  0  0  0  0  0  0  0  0
   16.6535   70.8292   -4.0223 O   0  0  0  0  0  0  0  0  0  0  0  0
   16.3330   69.0882   -5.4593 O   0  0  0  0  0  0  0  0  0  0  0  0
   16.8359   70.1694   -5.1929 C   0  0  0  0  0  0  0  0  0  0  0  0
  1  4  1  0
  1 24  1  0
  1  2  1  6
  1  3  2  0
 25 28  1  0
 25 24  1  0
 25 26  1  6
 25 27  2  0
  6 11  1  0
  6 12  1  0
 29 36  1  0
 29 37  1  0
  9  7  1  1
  7 13  1  0
 10  8  1  1
  8 14  1  0
  4  5  1  0
 36 28  1  6
 33 30  1  6
 30 38  1  0
 34 31  1  6
 31 39  1  0
 35 32  1  6
 32 40  1  0
 41 43  1  0
 15 19  2  0
 42 43  2  0
 16 22  2  0
 12 17  1  1
 17 19  1  0
 17 20  1  0
 18 19  1  0
 18 22  1  0
 18 23  1  0
  9 10  1  0
  9 11  1  0
 10 12  1  0
 11  5  1  1
 33 34  1  0
 33 35  1  0
 34 36  1  0
 35 37  1  0
 37 43  1  1
 20 21  2  0
 21 22  1  0
M  CHG  3   2  -1  26  -1  41  -1
M  END
>  <COMPND>  (59) 
    udp_gluA.pdb 

>  <AUTHOR>  (59) 
    GENERATED BY OPEN BABEL 3.1.1

>  <MASTER>  (59) 
        0    0    0    0    0    0    0    0   56    0   56    0

>  <minimizedAffinity>  (59) 
-9.23314

>  <CNNscore>  (59) 
0.3902314007

>  <CNNaffinity>  (59) 
4.1720933914

>  <CNN_VS>  (59) 
1.6280817986

>  <CNNaffinity_variance>  (59) 
0.0871888399

$$$$
60
     RDKit          3D

 43 45  0  0  0  0  0  0  0  0999 V2000
   20.8934   72.7741   -0.4535 P   0  0  2  0  0  0  0  0  0  0  0  0
   19.8443   72.5013    0.7482 O   0  0  0  0  0  0  0  0  0  0  0  0
   22.0459   73.6669   -0.0979 O   0  0  0  0  0  0  0  0  0  0  0  0
   19.9616   73.2824   -1.6747 O   0  0  0  0  0  0  0  0  0  0  0  0
   19.7167   72.3971   -2.7521 C   0  0  0  0  0  0  0  0  0  0  0  0
   17.6592   71.9495   -3.9115 O   0  0  0  0  0  0  0  0  0  0  0  0
   17.0117   70.0815   -1.6570 O   0  0  0  0  0  0  0  0  0  0  0  0
   17.8525   68.3816   -3.6165 O   0  0  0  0  0  0  0  0  0  0  0  0
   18.2726   70.3597   -2.2662 C   0  0  1  0  0  0  0  0  0  0  0  0
   18.3534   69.7021   -3.6276 C   0  0  2  0  0  0  0  0  0  0  0  0
   18.3050   71.8391   -2.6246 C   0  0  1  0  0  0  0  0  0  0  0  0
   17.5146   70.6385   -4.4804 C   0  0  2  0  0  0  0  0  0  0  0  0
   16.9675   69.1417   -1.4191 H   0  0  0  0  0  0  0  0  0  0  0  0
   18.4208   67.8250   -3.0605 H   0  0  0  0  0  0  0  0  0  0  0  0
   15.8838   69.9808   -6.6905 O   0  0  0  0  0  0  0  0  0  0  0  0
   19.2918   70.8037   -9.6826 O   0  0  0  0  0  0  0  0  0  0  0  0
   17.9502   70.6724   -5.8479 N   0  0  0  0  0  0  0  0  0  0  0  0
   17.5830   70.3903   -8.1785 N   0  0  0  0  0  0  0  0  0  0  0  0
   17.0519   70.3230   -6.8838 C   0  0  0  0  0  0  0  0  0  0  0  0
   19.2526   71.0497   -6.1518 C   0  0  0  0  0  0  0  0  0  0  0  0
   19.7444   71.1092   -7.3909 C   0  0  0  0  0  0  0  0  0  0  0  0
   18.8713   70.7591   -8.5304 C   0  0  0  0  0  0  0  0  0  0  0  0
   16.9770   70.1496   -8.9162 H   0  0  0  0  0  0  0  0  0  0  0  0
   21.3139   71.2828   -0.9137 O   0  0  0  0  0  0  0  0  0  0  0  0
   21.9686   70.0605   -0.0824 P   0  0  2  0  0  0  0  0  0  0  0  0
   22.7570   69.2203   -1.2194 O   0  0  0  0  0  0  0  0  0  0  0  0
   20.9795   69.2539    0.7082 O   0  0  0  0  0  0  0  0  0  0  0  0
   23.1334   70.7434    0.8004 O   0  0  0  0  0  0  0  0  0  0  0  0
   24.8516   69.9978    2.2500 O   0  0  0  0  0  0  0  0  0  0  0  0
   23.3459   73.2364    4.3267 O   0  0  0  0  0  0  0  0  0  0  0  0
   21.5427   71.3620    2.9965 O   0  0  0  0  0  0  0  0  0  0  0  0
   25.8764   73.4579    2.9131 O   0  0  0  0  0  0  0  0  0  0  0  0
   23.6904   72.4773    3.1678 C   0  0  2  0  0  0  0  0  0  0  0  0
   22.9367   71.1472    3.1845 C   0  0  2  0  0  0  0  0  0  0  0  0
   25.2010   72.2335    3.1940 C   0  0  1  0  0  0  0  0  0  0  0  0
   23.4494   70.2141    2.0867 C   0  0  1  0  0  0  0  0  0  0  0  0
   25.6162   71.1975    2.1535 C   0  0  1  0  0  0  0  0  0  0  0  0
   22.3902   73.4036    4.3316 H   0  0  0  0  0  0  0  0  0  0  0  0
   21.2108   71.9535    3.6895 H   0  0  0  0  0  0  0  0  0  0  0  0
   25.6207   74.1260    3.5682 H   0  0  0  0  0  0  0  0  0  0  0  0
   27.8175   71.0450    1.3581 O   0  0  0  0  0  0  0  0  0  0  0  0
   27.3857   70.1368    3.4046 O   0  0  0  0  0  0  0  0  0  0  0  0
   27.0122   70.7264    2.4016 C   0  0  0  0  0  0  0  0  0  0  0  0
  1  4  1  0
  1 24  1  0
  1  2  1  1
  1  3  2  0
 25 28  1  0
 25 24  1  0
 25 26  1  6
 25 27  2  0
  6 11  1  0
  6 12  1  0
 29 36  1  0
 29 37  1  0
  9  7  1  6
  7 13  1  0
 10  8  1  1
  8 14  1  0
  4  5  1  0
 36 28  1  6
 33 30  1  1
 30 38  1  0
 34 31  1  6
 31 39  1  0
 35 32  1  6
 32 40  1  0
 41 43  1  0
 15 19  2  0
 42 43  2  0
 16 22  2  0
 12 17  1  6
 17 19  1  0
 17 20  1  0
 18 19  1  0
 18 22  1  0
 18 23  1  0
  9 10  1  0
  9 11  1  0
 10 12  1  0
 11  5  1  6
 33 34  1  0
 33 35  1  0
 34 36  1  0
 35 37  1  0
 37 43  1  1
 20 21  2  0
 21 22  1  0
M  CHG  3   2  -1  26  -1  41  -1
M  END
>  <COMPND>  (60) 
    udp_gluA.pdb 

>  <AUTHOR>  (60) 
    GENERATED BY OPEN BABEL 3.1.1

>  <MASTER>  (60) 
        0    0    0    0    0    0    0    0   56    0   56    0

>  <minimizedAffinity>  (60) 
-8.60007

>  <CNNscore>  (60) 
0.3785390854

>  <CNNaffinity>  (60) 
4.8126611710

>  <CNN_VS>  (60) 
1.8217803240

>  <CNNaffinity_variance>  (60) 
0.2545041442

$$$$
61
     RDKit          3D

 43 45  0  0  0  0  0  0  0  0999 V2000
   22.5789   70.5864   -2.6151 P   0  0  2  0  0  0  0  0  0  0  0  0
   23.6676   71.3723   -3.5185 O   0  0  0  0  0  0  0  0  0  0  0  0
   22.8860   69.1382   -2.3700 O   0  0  0  0  0  0  0  0  0  0  0  0
   21.1706   70.8913   -3.3511 O   0  0  0  0  0  0  0  0  0  0  0  0
   20.0993   69.9849   -3.1629 C   0  0  0  0  0  0  0  0  0  0  0  0
   18.6922   71.5506   -4.3232 O   0  0  0  0  0  0  0  0  0  0  0  0
   16.4849   70.6182   -2.5203 O   0  0  0  0  0  0  0  0  0  0  0  0
   15.9714   69.2728   -4.8360 O   0  0  0  0  0  0  0  0  0  0  0  0
   17.5586   69.8725   -3.0944 C   0  0  1  0  0  0  0  0  0  0  0  0
   17.3078   69.6437   -4.5699 C   0  0  2  0  0  0  0  0  0  0  0  0
   18.7919   70.7652   -3.1155 C   0  0  1  0  0  0  0  0  0  0  0  0
   17.6694   70.9942   -5.1644 C   0  0  2  0  0  0  0  0  0  0  0  0
   15.6856   70.0685   -2.4962 H   0  0  0  0  0  0  0  0  0  0  0  0
   15.7907   68.4066   -4.4372 H   0  0  0  0  0  0  0  0  0  0  0  0
   16.0505   70.7034   -7.4602 O   0  0  0  0  0  0  0  0  0  0  0  0
   19.7151   70.5877  -10.2533 O   0  0  0  0  0  0  0  0  0  0  0  0
   18.1743   70.8858   -6.5038 N   0  0  0  0  0  0  0  0  0  0  0  0
   17.8772   70.6450   -8.8491 N   0  0  0  0  0  0  0  0  0  0  0  0
   17.2757   70.7427   -7.5874 C   0  0  0  0  0  0  0  0  0  0  0  0
   19.5442   70.9233   -6.7338 C   0  0  0  0  0  0  0  0  0  0  0  0
   20.1027   70.8291   -7.9421 C   0  0  0  0  0  0  0  0  0  0  0  0
   19.2340   70.6765   -9.1277 C   0  0  0  0  0  0  0  0  0  0  0  0
   17.2720   70.5427   -9.6188 H   0  0  0  0  0  0  0  0  0  0  0  0
   22.4942   71.4923   -1.2790 O   0  0  0  0  0  0  0  0  0  0  0  0
   21.4072   71.5202   -0.0827 P   0  0  2  0  0  0  0  0  0  0  0  0
   20.8720   69.9933   -0.0336 O   0  0  0  0  0  0  0  0  0  0  0  0
   20.3273   72.5487   -0.2558 O   0  0  0  0  0  0  0  0  0  0  0  0
   22.2825   71.6884    1.2619 O   0  0  0  0  0  0  0  0  0  0  0  0
   24.3012   72.6775    2.0072 O   0  0  0  0  0  0  0  0  0  0  0  0
   24.6705   68.8240    3.4500 O   0  0  0  0  0  0  0  0  0  0  0  0
   23.6285   69.3059    0.7636 O   0  0  0  0  0  0  0  0  0  0  0  0
   23.9946   70.9996    5.2557 O   0  0  0  0  0  0  0  0  0  0  0  0
   23.9756   70.0084    3.0598 C   0  0  2  0  0  0  0  0  0  0  0  0
   24.2426   70.2949    1.5819 C   0  0  2  0  0  0  0  0  0  0  0  0
   24.4847   71.1625    3.9262 C   0  0  1  0  0  0  0  0  0  0  0  0
   23.7068   71.6716    1.1861 C   0  0  1  0  0  0  0  0  0  0  0  0
   24.0096   72.5110    3.3929 C   0  0  1  0  0  0  0  0  0  0  0  0
   24.3634   68.0768    2.9127 H   0  0  0  0  0  0  0  0  0  0  0  0
   23.9637   68.4298    1.0096 H   0  0  0  0  0  0  0  0  0  0  0  0
   24.2898   70.1450    5.6067 H   0  0  0  0  0  0  0  0  0  0  0  0
   25.2796   74.4595    3.0898 O   0  0  0  0  0  0  0  0  0  0  0  0
   24.9045   73.7858    5.2356 O   0  0  0  0  0  0  0  0  0  0  0  0
   24.7657   73.6303    4.0317 C   0  0  0  0  0  0  0  0  0  0  0  0
  1  4  1  0
  1 24  1  0
  1  2  1  6
  1  3  2  0
 25 28  1  0
 25 24  1  0
 25 26  1  1
 25 27  2  0
  6 11  1  0
  6 12  1  0
 29 36  1  0
 29 37  1  0
  9  7  1  6
  7 13  1  0
 10  8  1  1
  8 14  1  0
  4  5  1  0
 36 28  1  1
 33 30  1  1
 30 38  1  0
 34 31  1  6
 31 39  1  0
 35 32  1  1
 32 40  1  0
 41 43  1  0
 15 19  2  0
 42 43  2  0
 16 22  2  0
 12 17  1  6
 17 19  1  0
 17 20  1  0
 18 19  1  0
 18 22  1  0
 18 23  1  0
  9 10  1  0
  9 11  1  0
 10 12  1  0
 11  5  1  6
 33 34  1  0
 33 35  1  0
 34 36  1  0
 35 37  1  0
 37 43  1  1
 20 21  2  0
 21 22  1  0
M  CHG  3   2  -1  26  -1  41  -1
M  END
>  <COMPND>  (61) 
    udp_gluA.pdb 

>  <AUTHOR>  (61) 
    GENERATED BY OPEN BABEL 3.1.1

>  <MASTER>  (61) 
        0    0    0    0    0    0    0    0   56    0   56    0

>  <minimizedAffinity>  (61) 
-8.43319

>  <CNNscore>  (61) 
0.7672024369

>  <CNNaffinity>  (61) 
5.0150303841

>  <CNN_VS>  (61) 
3.8475434780

>  <CNNaffinity_variance>  (61) 
0.2251737863

$$$$
62
     RDKit          3D

 43 45  0  0  0  0  0  0  0  0999 V2000
   21.0081   70.3991    0.3739 P   0  0  2  0  0  0  0  0  0  0  0  0
   19.9872   71.2733    1.2752 O   0  0  0  0  0  0  0  0  0  0  0  0
   21.1532   68.9651    0.7915 O   0  0  0  0  0  0  0  0  0  0  0  0
   22.3705   71.2720    0.3730 O   0  0  0  0  0  0  0  0  0  0  0  0
   23.5110   70.7459    1.0265 C   0  0  0  0  0  0  0  0  0  0  0  0
   24.4545   70.2533    3.1817 O   0  0  0  0  0  0  0  0  0  0  0  0
   22.2352   71.9136    4.3261 O   0  0  0  0  0  0  0  0  0  0  0  0
   24.3562   73.6261    4.3935 O   0  0  0  0  0  0  0  0  0  0  0  0
   22.9668   72.0952    3.1136 C   0  0  1  0  0  0  0  0  0  0  0  0
   24.3589   72.6093    3.4134 C   0  0  2  0  0  0  0  0  0  0  0  0
   23.2544   70.7196    2.5278 C   0  0  1  0  0  0  0  0  0  0  0  0
   25.0667   71.3488    3.8805 C   0  0  2  0  0  0  0  0  0  0  0  0
   22.0397   72.7791    4.7190 H   0  0  0  0  0  0  0  0  0  0  0  0
   23.8945   74.4069    4.0480 H   0  0  0  0  0  0  0  0  0  0  0  0
   27.0418   72.4544    5.5697 O   0  0  0  0  0  0  0  0  0  0  0  0
   30.4237   71.3605    2.6353 O   0  0  0  0  0  0  0  0  0  0  0  0
   26.4709   71.3664    3.5825 N   0  0  0  0  0  0  0  0  0  0  0  0
   28.7242   71.9094    4.1061 N   0  0  0  0  0  0  0  0  0  0  0  0
   27.3797   71.9466    4.4988 C   0  0  0  0  0  0  0  0  0  0  0  0
   26.9350   70.8122    2.3957 C   0  0  0  0  0  0  0  0  0  0  0  0
   28.2196   70.7841    2.0353 C   0  0  0  0  0  0  0  0  0  0  0  0
   29.2338   71.3701    2.9361 C   0  0  0  0  0  0  0  0  0  0  0  0
   29.3754   72.3092    4.7269 H   0  0  0  0  0  0  0  0  0  0  0  0
   20.4406   70.6098   -1.1249 O   0  0  0  0  0  0  0  0  0  0  0  0
   20.8281   71.6889   -2.2647 P   0  0  2  0  0  0  0  0  0  0  0  0
   22.1957   71.0904   -2.8908 O   0  0  0  0  0  0  0  0  0  0  0  0
   20.9427   73.0995   -1.7637 O   0  0  0  0  0  0  0  0  0  0  0  0
   19.7238   71.4768   -3.4214 O   0  0  0  0  0  0  0  0  0  0  0  0
   19.0734   69.3609   -4.2633 O   0  0  0  0  0  0  0  0  0  0  0  0
   18.0744   71.8570   -7.4001 O   0  0  0  0  0  0  0  0  0  0  0  0
   20.5876   72.2253   -5.9571 O   0  0  0  0  0  0  0  0  0  0  0  0
   15.9997   70.7951   -5.6625 O   0  0  0  0  0  0  0  0  0  0  0  0
   18.2742   71.4983   -6.0328 C   0  0  2  0  0  0  0  0  0  0  0  0
   19.7334   71.0959   -5.8174 C   0  0  2  0  0  0  0  0  0  0  0  0
   17.3456   70.3252   -5.7111 C   0  0  1  0  0  0  0  0  0  0  0  0
   19.9340   70.4885   -4.4282 C   0  0  1  0  0  0  0  0  0  0  0  0
   17.6908   69.6943   -4.3652 C   0  0  1  0  0  0  0  0  0  0  0  0
   18.6544   72.6007   -7.6275 H   0  0  0  0  0  0  0  0  0  0  0  0
   20.4653   72.6159   -6.8362 H   0  0  0  0  0  0  0  0  0  0  0  0
   15.7674   71.1992   -6.5132 H   0  0  0  0  0  0  0  0  0  0  0  0
   17.6930   67.5857   -3.3379 O   0  0  0  0  0  0  0  0  0  0  0  0
   15.9895   68.0359   -4.7852 O   0  0  0  0  0  0  0  0  0  0  0  0
   17.0143   68.3712   -4.2105 C   0  0  0  0  0  0  0  0  0  0  0  0
  1  4  1  0
  1 24  1  0
  1  2  1  1
  1  3  2  0
 25 28  1  0
 25 24  1  0
 25 26  1  6
 25 27  2  0
  6 11  1  0
  6 12  1  0
 29 36  1  0
 29 37  1  0
  9  7  1  1
  7 13  1  0
 10  8  1  1
  8 14  1  0
  4  5  1  0
 36 28  1  1
 33 30  1  6
 30 38  1  0
 34 31  1  1
 31 39  1  0
 35 32  1  1
 32 40  1  0
 41 43  1  0
 15 19  2  0
 42 43  2  0
 16 22  2  0
 12 17  1  6
 17 19  1  0
 17 20  1  0
 18 19  1  0
 18 22  1  0
 18 23  1  0
  9 10  1  0
  9 11  1  0
 10 12  1  0
 11  5  1  6
 33 34  1  0
 33 35  1  0
 34 36  1  0
 35 37  1  0
 37 43  1  6
 20 21  2  0
 21 22  1  0
M  CHG  3   2  -1  26  -1  41  -1
M  END
>  <COMPND>  (62) 
    udp_gluA.pdb 

>  <AUTHOR>  (62) 
    GENERATED BY OPEN BABEL 3.1.1

>  <MASTER>  (62) 
        0    0    0    0    0    0    0    0   56    0   56    0

>  <minimizedAffinity>  (62) 
-9.17826

>  <CNNscore>  (62) 
0.7136553526

>  <CNNaffinity>  (62) 
4.8787527084

>  <CNN_VS>  (62) 
3.4817478657

>  <CNNaffinity_variance>  (62) 
0.0480366498

$$$$
63
     RDKit          3D

 43 45  0  0  0  0  0  0  0  0999 V2000
   20.8232   70.7836    0.6630 P   0  0  2  0  0  0  0  0  0  0  0  0
   19.8609   71.4732    1.7664 O   0  0  0  0  0  0  0  0  0  0  0  0
   20.8254   69.2830    0.6736 O   0  0  0  0  0  0  0  0  0  0  0  0
   22.2588   71.4900    0.9036 O   0  0  0  0  0  0  0  0  0  0  0  0
   23.2535   70.7753    1.6137 C   0  0  0  0  0  0  0  0  0  0  0  0
   24.2308   70.5472    3.7979 O   0  0  0  0  0  0  0  0  0  0  0  0
   22.1237   72.4628    4.7369 O   0  0  0  0  0  0  0  0  0  0  0  0
   24.3237   74.0586    4.5155 O   0  0  0  0  0  0  0  0  0  0  0  0
   22.8299   72.4333    3.4963 C   0  0  1  0  0  0  0  0  0  0  0  0
   24.2523   72.9140    3.6914 C   0  0  2  0  0  0  0  0  0  0  0  0
   23.0366   70.9756    3.1081 C   0  0  1  0  0  0  0  0  0  0  0  0
   24.9125   71.6987    4.3200 C   0  0  2  0  0  0  0  0  0  0  0  0
   21.9797   73.3841    5.0055 H   0  0  0  0  0  0  0  0  0  0  0  0
   23.8901   74.8046    4.0711 H   0  0  0  0  0  0  0  0  0  0  0  0
   26.9501   73.1961    5.5780 O   0  0  0  0  0  0  0  0  0  0  0  0
   30.2300   71.2501    2.9897 O   0  0  0  0  0  0  0  0  0  0  0  0
   26.3074   71.6030    3.9944 N   0  0  0  0  0  0  0  0  0  0  0  0
   28.5816   72.2262    4.2870 N   0  0  0  0  0  0  0  0  0  0  0  0
   27.2499   72.3998    4.6863 C   0  0  0  0  0  0  0  0  0  0  0  0
   26.7294   70.7271    3.0017 C   0  0  0  0  0  0  0  0  0  0  0  0
   28.0023   70.5724    2.6321 C   0  0  0  0  0  0  0  0  0  0  0  0
   29.0498   71.3683    3.3049 C   0  0  0  0  0  0  0  0  0  0  0  0
   29.2559   72.7717    4.7530 H   0  0  0  0  0  0  0  0  0  0  0  0
   20.3197   71.4464   -0.7226 O   0  0  0  0  0  0  0  0  0  0  0  0
   20.9507   71.4039   -2.2105 P   0  0  2  0  0  0  0  0  0  0  0  0
   21.8101   70.0321   -2.2086 O   0  0  0  0  0  0  0  0  0  0  0  0
   21.7389   72.6269   -2.5802 O   0  0  0  0  0  0  0  0  0  0  0  0
   19.6968   71.0975   -3.1782 O   0  0  0  0  0  0  0  0  0  0  0  0
   18.9815   69.1049   -4.2398 O   0  0  0  0  0  0  0  0  0  0  0  0
   17.9617   71.9636   -7.0427 O   0  0  0  0  0  0  0  0  0  0  0  0
   20.5159   72.1168   -5.6331 O   0  0  0  0  0  0  0  0  0  0  0  0
   15.9067   70.7473   -5.3847 O   0  0  0  0  0  0  0  0  0  0  0  0
   18.1863   71.4462   -5.7312 C   0  0  2  0  0  0  0  0  0  0  0  0
   19.6413   70.9948   -5.6015 C   0  0  2  0  0  0  0  0  0  0  0  0
   17.2407   70.2614   -5.5219 C   0  0  1  0  0  0  0  0  0  0  0  0
   19.8618   70.2280   -4.2968 C   0  0  1  0  0  0  0  0  0  0  0  0
   17.6043   69.4734   -4.2667 C   0  0  1  0  0  0  0  0  0  0  0  0
   18.5518   72.7177   -7.1984 H   0  0  0  0  0  0  0  0  0  0  0  0
   20.3810   72.6082   -6.4581 H   0  0  0  0  0  0  0  0  0  0  0  0
   15.6629   71.2509   -6.1771 H   0  0  0  0  0  0  0  0  0  0  0  0
   17.5548   67.2781   -3.4423 O   0  0  0  0  0  0  0  0  0  0  0  0
   15.8828   67.8926   -4.8656 O   0  0  0  0  0  0  0  0  0  0  0  0
   16.9036   68.1540   -4.2470 C   0  0  0  0  0  0  0  0  0  0  0  0
  1  4  1  0
  1 24  1  0
  1  2  1  1
  1  3  2  0
 25 28  1  0
 25 24  1  0
 25 26  1  1
 25 27  2  0
  6 11  1  0
  6 12  1  0
 29 36  1  0
 29 37  1  0
  9  7  1  1
  7 13  1  0
 10  8  1  1
  8 14  1  0
  4  5  1  0
 36 28  1  1
 33 30  1  6
 30 38  1  0
 34 31  1  1
 31 39  1  0
 35 32  1  1
 32 40  1  0
 41 43  1  0
 15 19  2  0
 42 43  2  0
 16 22  2  0
 12 17  1  6
 17 19  1  0
 17 20  1  0
 18 19  1  0
 18 22  1  0
 18 23  1  0
  9 10  1  0
  9 11  1  0
 10 12  1  0
 11  5  1  6
 33 34  1  0
 33 35  1  0
 34 36  1  0
 35 37  1  0
 37 43  1  6
 20 21  2  0
 21 22  1  0
M  CHG  3   2  -1  26  -1  41  -1
M  END
>  <COMPND>  (63) 
    udp_gluA.pdb 

>  <AUTHOR>  (63) 
    GENERATED BY OPEN BABEL 3.1.1

>  <MASTER>  (63) 
        0    0    0    0    0    0    0    0   56    0   56    0

>  <minimizedAffinity>  (63) 
-9.04748

>  <CNNscore>  (63) 
0.7048884034

>  <CNNaffinity>  (63) 
4.6014399529

>  <CNN_VS>  (63) 
3.2435016632

>  <CNNaffinity_variance>  (63) 
0.1480860859

$$$$
64
     RDKit          3D

 43 45  0  0  0  0  0  0  0  0999 V2000
   20.8342   70.3606    0.1138 P   0  0  2  0  0  0  0  0  0  0  0  0
   19.2753   70.7883    0.1893 O   0  0  0  0  0  0  0  0  0  0  0  0
   21.1497   69.0117    0.6907 O   0  0  0  0  0  0  0  0  0  0  0  0
   21.6129   71.6108    0.7835 O   0  0  0  0  0  0  0  0  0  0  0  0
   22.8584   71.3727    1.4133 C   0  0  0  0  0  0  0  0  0  0  0  0
   23.8093   70.7134    3.5201 O   0  0  0  0  0  0  0  0  0  0  0  0
   21.8490   72.5983    4.7833 O   0  0  0  0  0  0  0  0  0  0  0  0
   24.1632   74.0404    4.8084 O   0  0  0  0  0  0  0  0  0  0  0  0
   22.5547   72.7223    3.5484 C   0  0  1  0  0  0  0  0  0  0  0  0
   24.0086   73.0568    3.8068 C   0  0  2  0  0  0  0  0  0  0  0  0
   22.6527   71.3380    2.9222 C   0  0  1  0  0  0  0  0  0  0  0  0
   24.5739   71.7084    4.2192 C   0  0  2  0  0  0  0  0  0  0  0  0
   21.7738   73.4704    5.2022 H   0  0  0  0  0  0  0  0  0  0  0  0
   23.7881   74.8799    4.4978 H   0  0  0  0  0  0  0  0  0  0  0  0
   26.7224   72.6584    5.7870 O   0  0  0  0  0  0  0  0  0  0  0  0
   29.8464   71.1003    2.7774 O   0  0  0  0  0  0  0  0  0  0  0  0
   25.9586   71.5645    3.8690 N   0  0  0  0  0  0  0  0  0  0  0  0
   28.2762   71.8824    4.2861 N   0  0  0  0  0  0  0  0  0  0  0  0
   26.9605   72.0778    4.7262 C   0  0  0  0  0  0  0  0  0  0  0  0
   26.3125   70.9200    2.6899 C   0  0  0  0  0  0  0  0  0  0  0  0
   27.5710   70.7412    2.2837 C   0  0  0  0  0  0  0  0  0  0  0  0
   28.6776   71.2484    3.1213 C   0  0  0  0  0  0  0  0  0  0  0  0
   28.9910   72.2330    4.8652 H   0  0  0  0  0  0  0  0  0  0  0  0
   21.1780   70.5180   -1.4577 O   0  0  0  0  0  0  0  0  0  0  0  0
   20.7357   71.6405   -2.5338 P   0  0  2  0  0  0  0  0  0  0  0  0
   21.9551   71.6331   -3.5984 O   0  0  0  0  0  0  0  0  0  0  0  0
   20.4453   72.9865   -1.9355 O   0  0  0  0  0  0  0  0  0  0  0  0
   19.4971   70.9799   -3.3288 O   0  0  0  0  0  0  0  0  0  0  0  0
   17.7001   72.3453   -4.0466 O   0  0  0  0  0  0  0  0  0  0  0  0
   16.0343   68.5719   -4.2804 O   0  0  0  0  0  0  0  0  0  0  0  0
   17.7075   69.3136   -2.0034 O   0  0  0  0  0  0  0  0  0  0  0  0
   16.8634   69.9534   -6.7001 O   0  0  0  0  0  0  0  0  0  0  0  0
   17.0825   69.5395   -4.3367 C   0  0  2  0  0  0  0  0  0  0  0  0
   17.2176   70.2273   -2.9780 C   0  0  2  0  0  0  0  0  0  0  0  0
   16.7246   70.5620   -5.4176 C   0  0  1  0  0  0  0  0  0  0  0  0
   18.1677   71.4227   -3.0620 C   0  0  1  0  0  0  0  0  0  0  0  0
   17.6392   71.7819   -5.3551 C   0  0  1  0  0  0  0  0  0  0  0  0
   16.2398   67.9115   -3.6000 H   0  0  0  0  0  0  0  0  0  0  0  0
   17.1096   68.5523   -1.9450 H   0  0  0  0  0  0  0  0  0  0  0  0
   16.2866   69.1754   -6.7530 H   0  0  0  0  0  0  0  0  0  0  0  0
   15.9637   72.5091   -6.8266 O   0  0  0  0  0  0  0  0  0  0  0  0
   17.5742   74.0191   -6.2563 O   0  0  0  0  0  0  0  0  0  0  0  0
   17.0876   72.9011   -6.1769 C   0  0  0  0  0  0  0  0  0  0  0  0
  1  4  1  0
  1 24  1  0
  1  2  1  6
  1  3  2  0
 25 28  1  0
 25 24  1  0
 25 26  1  6
 25 27  2  0
  6 11  1  0
  6 12  1  0
 29 36  1  0
 29 37  1  0
  9  7  1  1
  7 13  1  0
 10  8  1  1
  8 14  1  0
  4  5  1  0
 36 28  1  6
 33 30  1  1
 30 38  1  0
 34 31  1  1
 31 39  1  0
 35 32  1  6
 32 40  1  0
 41 43  1  0
 15 19  2  0
 42 43  2  0
 16 22  2  0
 12 17  1  6
 17 19  1  0
 17 20  1  0
 18 19  1  0
 18 22  1  0
 18 23  1  0
  9 10  1  0
  9 11  1  0
 10 12  1  0
 11  5  1  6
 33 34  1  0
 33 35  1  0
 34 36  1  0
 35 37  1  0
 37 43  1  6
 20 21  2  0
 21 22  1  0
M  CHG  3   2  -1  26  -1  41  -1
M  END
>  <COMPND>  (64) 
    udp_gluA.pdb 

>  <AUTHOR>  (64) 
    GENERATED BY OPEN BABEL 3.1.1

>  <MASTER>  (64) 
        0    0    0    0    0    0    0    0   56    0   56    0

>  <minimizedAffinity>  (64) 
-8.59861

>  <CNNscore>  (64) 
0.6970432401

>  <CNNaffinity>  (64) 
4.6236243248

>  <CNN_VS>  (64) 
3.2228660583

>  <CNNaffinity_variance>  (64) 
0.1107196808

$$$$
65
     RDKit          3D

 43 45  0  0  0  0  0  0  0  0999 V2000
   22.6524   70.4841   -2.4377 P   0  0  2  0  0  0  0  0  0  0  0  0
   23.7794   71.0341   -3.4605 O   0  0  0  0  0  0  0  0  0  0  0  0
   22.7626   69.0267   -2.0976 O   0  0  0  0  0  0  0  0  0  0  0  0
   21.2563   70.9441   -3.1140 O   0  0  0  0  0  0  0  0  0  0  0  0
   20.1842   70.0200   -3.1470 C   0  0  0  0  0  0  0  0  0  0  0  0
   18.7404   71.5657   -4.2890 O   0  0  0  0  0  0  0  0  0  0  0  0
   16.5725   70.6107   -2.4506 O   0  0  0  0  0  0  0  0  0  0  0  0
   16.0402   69.2536   -4.7552 O   0  0  0  0  0  0  0  0  0  0  0  0
   17.6464   69.8767   -3.0394 C   0  0  1  0  0  0  0  0  0  0  0  0
   17.3759   69.6414   -4.5104 C   0  0  2  0  0  0  0  0  0  0  0  0
   18.8682   70.7843   -3.0813 C   0  0  1  0  0  0  0  0  0  0  0  0
   17.7118   70.9948   -5.1133 C   0  0  2  0  0  0  0  0  0  0  0  0
   15.7805   70.0512   -2.4131 H   0  0  0  0  0  0  0  0  0  0  0  0
   15.8763   68.3862   -4.3518 H   0  0  0  0  0  0  0  0  0  0  0  0
   16.0599   70.7157   -7.3870 O   0  0  0  0  0  0  0  0  0  0  0  0
   19.6845   70.5994  -10.2318 O   0  0  0  0  0  0  0  0  0  0  0  0
   18.1975   70.8894   -6.4601 N   0  0  0  0  0  0  0  0  0  0  0  0
   17.8668   70.6570   -8.8016 N   0  0  0  0  0  0  0  0  0  0  0  0
   17.2834   70.7522   -7.5314 C   0  0  0  0  0  0  0  0  0  0  0  0
   19.5641   70.9240   -6.7092 C   0  0  0  0  0  0  0  0  0  0  0  0
   20.1053   70.8323   -7.9256 C   0  0  0  0  0  0  0  0  0  0  0  0
   19.2196   70.6859   -9.0993 C   0  0  0  0  0  0  0  0  0  0  0  0
   17.2505   70.5588   -9.5631 H   0  0  0  0  0  0  0  0  0  0  0  0
   22.7905   71.4827   -1.1742 O   0  0  0  0  0  0  0  0  0  0  0  0
   21.7620   71.8256    0.0250 P   0  0  2  0  0  0  0  0  0  0  0  0
   20.9061   70.4604    0.1800 O   0  0  0  0  0  0  0  0  0  0  0  0
   20.9305   73.0536   -0.2090 O   0  0  0  0  0  0  0  0  0  0  0  0
   22.6816   71.8822    1.3493 O   0  0  0  0  0  0  0  0  0  0  0  0
   24.8710   72.5106    1.9979 O   0  0  0  0  0  0  0  0  0  0  0  0
   24.5309   68.7642    3.7059 O   0  0  0  0  0  0  0  0  0  0  0  0
   23.5323   69.2566    1.0050 O   0  0  0  0  0  0  0  0  0  0  0  0
   24.3314   71.1459    5.3608 O   0  0  0  0  0  0  0  0  0  0  0  0
   24.0664   70.0316    3.2411 C   0  0  2  0  0  0  0  0  0  0  0  0
   24.3454   70.1611    1.7435 C   0  0  2  0  0  0  0  0  0  0  0  0
   24.8095   71.1213    4.0172 C   0  0  1  0  0  0  0  0  0  0  0  0
   24.0738   71.5855    1.2576 C   0  0  1  0  0  0  0  0  0  0  0  0
   24.5884   72.4972    3.3955 C   0  0  1  0  0  0  0  0  0  0  0  0
   24.0725   68.0561    3.2267 H   0  0  0  0  0  0  0  0  0  0  0  0
   23.6993   68.3508    1.3083 H   0  0  0  0  0  0  0  0  0  0  0  0
   24.4661   70.2759    5.7679 H   0  0  0  0  0  0  0  0  0  0  0  0
   26.2521   74.0870    2.9416 O   0  0  0  0  0  0  0  0  0  0  0  0
   25.7174   73.7369    5.1303 O   0  0  0  0  0  0  0  0  0  0  0  0
   25.5613   73.4896    3.9440 C   0  0  0  0  0  0  0  0  0  0  0  0
  1  4  1  0
  1 24  1  0
  1  2  1  6
  1  3  2  0
 25 28  1  0
 25 24  1  0
 25 26  1  1
 25 27  2  0
  6 11  1  0
  6 12  1  0
 29 36  1  0
 29 37  1  0
  9  7  1  6
  7 13  1  0
 10  8  1  1
  8 14  1  0
  4  5  1  0
 36 28  1  1
 33 30  1  1
 30 38  1  0
 34 31  1  6
 31 39  1  0
 35 32  1  1
 32 40  1  0
 41 43  1  0
 15 19  2  0
 42 43  2  0
 16 22  2  0
 12 17  1  6
 17 19  1  0
 17 20  1  0
 18 19  1  0
 18 22  1  0
 18 23  1  0
  9 10  1  0
  9 11  1  0
 10 12  1  0
 11  5  1  6
 33 34  1  0
 33 35  1  0
 34 36  1  0
 35 37  1  0
 37 43  1  1
 20 21  2  0
 21 22  1  0
M  CHG  3   2  -1  26  -1  41  -1
M  END
>  <COMPND>  (65) 
    udp_gluA.pdb 

>  <AUTHOR>  (65) 
    GENERATED BY OPEN BABEL 3.1.1

>  <MASTER>  (65) 
        0    0    0    0    0    0    0    0   56    0   56    0

>  <minimizedAffinity>  (65) 
-8.37011

>  <CNNscore>  (65) 
0.6967702508

>  <CNNaffinity>  (65) 
5.0030097961

>  <CNN_VS>  (65) 
3.4859483242

>  <CNNaffinity_variance>  (65) 
0.2637909055

$$$$
66
     RDKit          3D

 43 45  0  0  0  0  0  0  0  0999 V2000
   21.5626   73.2167   -1.2378 P   0  0  2  0  0  0  0  0  0  0  0  0
   21.5280   74.1061    0.1137 O   0  0  0  0  0  0  0  0  0  0  0  0
   22.7221   73.4939   -2.1492 O   0  0  0  0  0  0  0  0  0  0  0  0
   20.0946   73.4329   -1.8829 O   0  0  0  0  0  0  0  0  0  0  0  0
   19.7619   72.7204   -3.0603 C   0  0  0  0  0  0  0  0  0  0  0  0
   17.7244   72.0553   -4.1485 O   0  0  0  0  0  0  0  0  0  0  0  0
   17.2712   70.2576   -1.7918 O   0  0  0  0  0  0  0  0  0  0  0  0
   18.2064   68.5329   -3.6857 O   0  0  0  0  0  0  0  0  0  0  0  0
   18.4940   70.6029   -2.4429 C   0  0  1  0  0  0  0  0  0  0  0  0
   18.6004   69.8863   -3.7724 C   0  0  2  0  0  0  0  0  0  0  0  0
   18.4018   72.0605   -2.8731 C   0  0  1  0  0  0  0  0  0  0  0  0
   17.6735   70.7102   -4.6498 C   0  0  2  0  0  0  0  0  0  0  0  0
   17.3064   69.3303   -1.5077 H   0  0  0  0  0  0  0  0  0  0  0  0
   18.8278   68.0510   -3.1168 H   0  0  0  0  0  0  0  0  0  0  0  0
   15.9866   70.0221   -6.8079 O   0  0  0  0  0  0  0  0  0  0  0  0
   19.3346   70.7429   -9.8927 O   0  0  0  0  0  0  0  0  0  0  0  0
   18.0785   70.7095   -6.0271 N   0  0  0  0  0  0  0  0  0  0  0  0
   17.6560   70.3808   -8.3421 N   0  0  0  0  0  0  0  0  0  0  0  0
   17.1535   70.3474   -7.0347 C   0  0  0  0  0  0  0  0  0  0  0  0
   19.3776   71.0661   -6.3681 C   0  0  0  0  0  0  0  0  0  0  0  0
   19.8419   71.0933   -7.6189 C   0  0  0  0  0  0  0  0  0  0  0  0
   18.9397   70.7279   -8.7307 C   0  0  0  0  0  0  0  0  0  0  0  0
   17.0310   70.1306   -9.0606 H   0  0  0  0  0  0  0  0  0  0  0  0
   21.4938   71.7021   -0.6774 O   0  0  0  0  0  0  0  0  0  0  0  0
   20.7819   71.0884    0.6380 P   0  0  2  0  0  0  0  0  0  0  0  0
   20.7110   69.5038    0.3149 O   0  0  0  0  0  0  0  0  0  0  0  0
   19.4569   71.7120    0.9687 O   0  0  0  0  0  0  0  0  0  0  0  0
   21.8916   71.2174    1.8018 O   0  0  0  0  0  0  0  0  0  0  0  0
   23.9046   72.4432    2.0342 O   0  0  0  0  0  0  0  0  0  0  0  0
   24.9070   68.8402    3.7897 O   0  0  0  0  0  0  0  0  0  0  0  0
   23.3528   68.9010    1.3168 O   0  0  0  0  0  0  0  0  0  0  0  0
   24.3589   71.1669    5.4441 O   0  0  0  0  0  0  0  0  0  0  0  0
   24.0397   69.9099    3.4135 C   0  0  2  0  0  0  0  0  0  0  0  0
   24.0047   70.0286    1.8897 C   0  0  2  0  0  0  0  0  0  0  0  0
   24.5813   71.1989    4.0355 C   0  0  1  0  0  0  0  0  0  0  0  0
   23.2732   71.2999    1.4566 C   0  0  1  0  0  0  0  0  0  0  0  0
   23.8870   72.4298    3.4599 C   0  0  1  0  0  0  0  0  0  0  0  0
   24.5826   68.0104    3.4057 H   0  0  0  0  0  0  0  0  0  0  0  0
   23.8116   68.0907    1.5876 H   0  0  0  0  0  0  0  0  0  0  0  0
   24.7956   70.3880    5.8228 H   0  0  0  0  0  0  0  0  0  0  0  0
   25.3480   74.1243    2.7559 O   0  0  0  0  0  0  0  0  0  0  0  0
   24.6048   74.2202    4.9093 O   0  0  0  0  0  0  0  0  0  0  0  0
   24.6324   73.6746    3.8164 C   0  0  0  0  0  0  0  0  0  0  0  0
  1  4  1  0
  1 24  1  0
  1  2  1  1
  1  3  2  0
 25 28  1  0
 25 24  1  0
 25 26  1  6
 25 27  2  0
  6 11  1  0
  6 12  1  0
 29 36  1  0
 29 37  1  0
  9  7  1  6
  7 13  1  0
 10  8  1  1
  8 14  1  0
  4  5  1  0
 36 28  1  1
 33 30  1  6
 30 38  1  0
 34 31  1  6
 31 39  1  0
 35 32  1  1
 32 40  1  0
 41 43  1  0
 15 19  2  0
 42 43  2  0
 16 22  2  0
 12 17  1  6
 17 19  1  0
 17 20  1  0
 18 19  1  0
 18 22  1  0
 18 23  1  0
  9 10  1  0
  9 11  1  0
 10 12  1  0
 11  5  1  6
 33 34  1  0
 33 35  1  0
 34 36  1  0
 35 37  1  0
 37 43  1  1
 20 21  2  0
 21 22  1  0
M  CHG  3   2  -1  26  -1  41  -1
M  END
>  <COMPND>  (66) 
    udp_gluA.pdb 

>  <AUTHOR>  (66) 
    GENERATED BY OPEN BABEL 3.1.1

>  <MASTER>  (66) 
        0    0    0    0    0    0    0    0   56    0   56    0

>  <minimizedAffinity>  (66) 
-8.90174

>  <CNNscore>  (66) 
0.6913858652

>  <CNNaffinity>  (66) 
4.9169030190

>  <CNN_VS>  (66) 
3.3994772434

>  <CNNaffinity_variance>  (66) 
0.0378834680

$$$$
67
     RDKit          3D

 43 45  0  0  0  0  0  0  0  0999 V2000
   24.7115   71.0613    3.9311 P   0  0  2  0  0  0  0  0  0  0  0  0
   24.4854   71.9546    5.2614 O   0  0  0  0  0  0  0  0  0  0  0  0
   23.7985   69.8776    3.8001 O   0  0  0  0  0  0  0  0  0  0  0  0
   26.2948   70.7286    3.9510 O   0  0  0  0  0  0  0  0  0  0  0  0
   27.1295   71.3555    2.9946 C   0  0  0  0  0  0  0  0  0  0  0  0
   29.2658   72.0412    3.8570 O   0  0  0  0  0  0  0  0  0  0  0  0
   28.2153   74.8460    3.7125 O   0  0  0  0  0  0  0  0  0  0  0  0
   29.7782   74.6795    1.4841 O   0  0  0  0  0  0  0  0  0  0  0  0
   27.9817   73.7471    2.8314 C   0  0  1  0  0  0  0  0  0  0  0  0
   29.2071   73.4873    1.9811 C   0  0  2  0  0  0  0  0  0  0  0  0
   27.9025   72.4799    3.6718 C   0  0  1  0  0  0  0  0  0  0  0  0
   30.1201   72.7639    2.9564 C   0  0  2  0  0  0  0  0  0  0  0  0
   28.2698   75.6672    3.1983 H   0  0  0  0  0  0  0  0  0  0  0  0
   29.1588   75.1022    0.8679 H   0  0  0  0  0  0  0  0  0  0  0  0
   32.9333   72.7818    3.2059 O   0  0  0  0  0  0  0  0  0  0  0  0
   33.3883   69.1586    0.3935 O   0  0  0  0  0  0  0  0  0  0  0  0
   30.9980   71.8367    2.3004 N   0  0  0  0  0  0  0  0  0  0  0  0
   33.1573   70.9779    1.8042 N   0  0  0  0  0  0  0  0  0  0  0  0
   32.3966   71.9322    2.4924 C   0  0  0  0  0  0  0  0  0  0  0  0
   30.4726   70.8461    1.4796 C   0  0  0  0  0  0  0  0  0  0  0  0
   31.2104   69.9435    0.8302 C   0  0  0  0  0  0  0  0  0  0  0  0
   32.6805   69.9744    0.9763 C   0  0  0  0  0  0  0  0  0  0  0  0
   34.1338   71.0256    1.9206 H   0  0  0  0  0  0  0  0  0  0  0  0
   24.5830   72.1459    2.7395 O   0  0  0  0  0  0  0  0  0  0  0  0
   23.3550   72.4911    1.7463 P   0  0  2  0  0  0  0  0  0  0  0  0
   23.7367   73.9599    1.1828 O   0  0  0  0  0  0  0  0  0  0  0  0
   22.0009   72.4082    2.3893 O   0  0  0  0  0  0  0  0  0  0  0  0
   23.5590   71.5057    0.4855 O   0  0  0  0  0  0  0  0  0  0  0  0
   22.1146   71.3132   -1.3816 O   0  0  0  0  0  0  0  0  0  0  0  0
   23.8810   67.5795   -1.2969 O   0  0  0  0  0  0  0  0  0  0  0  0
   23.0200   68.8669    1.1801 O   0  0  0  0  0  0  0  0  0  0  0  0
   24.7056   69.5393   -3.2795 O   0  0  0  0  0  0  0  0  0  0  0  0
   23.8120   68.9931   -1.1096 C   0  0  2  0  0  0  0  0  0  0  0  0
   22.6895   69.3248   -0.1260 C   0  0  2  0  0  0  0  0  0  0  0  0
   23.5354   69.6374   -2.4698 C   0  0  1  0  0  0  0  0  0  0  0  0
   22.4339   70.8317   -0.0756 C   0  0  1  0  0  0  0  0  0  0  0  0
   23.1657   71.1107   -2.3235 C   0  0  1  0  0  0  0  0  0  0  0  0
   24.0560   67.1485   -0.4455 H   0  0  0  0  0  0  0  0  0  0  0  0
   23.1838   67.9114    1.1555 H   0  0  0  0  0  0  0  0  0  0  0  0
   24.9517   68.6065   -3.3803 H   0  0  0  0  0  0  0  0  0  0  0  0
   23.5415   72.2397   -4.3448 O   0  0  0  0  0  0  0  0  0  0  0  0
   21.4105   71.5485   -3.9201 O   0  0  0  0  0  0  0  0  0  0  0  0
   22.5844   71.6404   -3.5939 C   0  0  0  0  0  0  0  0  0  0  0  0
  1  4  1  0
  1 24  1  0
  1  2  1  1
  1  3  2  0
 25 28  1  0
 25 24  1  0
 25 26  1  6
 25 27  2  0
  6 11  1  0
  6 12  1  0
 29 36  1  0
 29 37  1  0
  9  7  1  1
  7 13  1  0
 10  8  1  1
  8 14  1  0
  4  5  1  0
 36 28  1  6
 33 30  1  6
 30 38  1  0
 34 31  1  1
 31 39  1  0
 35 32  1  6
 32 40  1  0
 41 43  1  0
 15 19  2  0
 42 43  2  0
 16 22  2  0
 12 17  1  6
 17 19  1  0
 17 20  1  0
 18 19  1  0
 18 22  1  0
 18 23  1  0
  9 10  1  0
  9 11  1  0
 10 12  1  0
 11  5  1  6
 33 34  1  0
 33 35  1  0
 34 36  1  0
 35 37  1  0
 37 43  1  6
 20 21  2  0
 21 22  1  0
M  CHG  3   2  -1  26  -1  41  -1
M  END
>  <COMPND>  (67) 
    udp_gluA.pdb 

>  <AUTHOR>  (67) 
    GENERATED BY OPEN BABEL 3.1.1

>  <MASTER>  (67) 
        0    0    0    0    0    0    0    0   56    0   56    0

>  <minimizedAffinity>  (67) 
-8.79526

>  <CNNscore>  (67) 
0.6809858084

>  <CNNaffinity>  (67) 
4.7487998009

>  <CNN_VS>  (67) 
3.2338652611

>  <CNNaffinity_variance>  (67) 
0.0731645301

$$$$
68
     RDKit          3D

 43 45  0  0  0  0  0  0  0  0999 V2000
   24.2474   70.2845    1.7497 P   0  0  2  0  0  0  0  0  0  0  0  0
   23.0533   71.3702    1.8690 O   0  0  0  0  0  0  0  0  0  0  0  0
   24.0988   69.0796    2.6318 O   0  0  0  0  0  0  0  0  0  0  0  0
   25.5907   71.1581    1.9740 O   0  0  0  0  0  0  0  0  0  0  0  0
   26.6421   70.5973    2.7386 C   0  0  0  0  0  0  0  0  0  0  0  0
   28.6164   71.3246    3.9008 O   0  0  0  0  0  0  0  0  0  0  0  0
   27.3454   74.0394    3.9776 O   0  0  0  0  0  0  0  0  0  0  0  0
   29.1267   74.2733    1.9262 O   0  0  0  0  0  0  0  0  0  0  0  0
   27.2952   73.0468    2.9526 C   0  0  1  0  0  0  0  0  0  0  0  0
   28.6156   72.9886    2.2142 C   0  0  2  0  0  0  0  0  0  0  0  0
   27.2448   71.6809    3.6234 C   0  0  1  0  0  0  0  0  0  0  0  0
   29.4885   72.2171    3.1893 C   0  0  2  0  0  0  0  0  0  0  0  0
   27.3781   74.9209    3.5732 H   0  0  0  0  0  0  0  0  0  0  0  0
   28.5360   74.7237    1.3015 H   0  0  0  0  0  0  0  0  0  0  0  0
   32.1938   72.1167    3.9941 O   0  0  0  0  0  0  0  0  0  0  0  0
   33.2950   69.2338    0.5706 O   0  0  0  0  0  0  0  0  0  0  0  0
   30.5034   71.4483    2.5263 N   0  0  0  0  0  0  0  0  0  0  0  0
   32.7399   70.6818    2.2876 N   0  0  0  0  0  0  0  0  0  0  0  0
   31.8326   71.4670    3.0111 C   0  0  0  0  0  0  0  0  0  0  0  0
   30.1784   70.6861    1.4108 C   0  0  0  0  0  0  0  0  0  0  0  0
   31.0541   69.9426    0.7318 C   0  0  0  0  0  0  0  0  0  0  0  0
   32.4641   69.9075    1.1722 C   0  0  0  0  0  0  0  0  0  0  0  0
   33.6719   70.6804    2.6050 H   0  0  0  0  0  0  0  0  0  0  0  0
   24.2855   69.9595    0.1667 O   0  0  0  0  0  0  0  0  0  0  0  0
   23.1950   69.2589   -0.7996 P   0  0  2  0  0  0  0  0  0  0  0  0
   22.9216   67.8359   -0.0781 O   0  0  0  0  0  0  0  0  0  0  0  0
   23.6222   69.1526   -2.2349 O   0  0  0  0  0  0  0  0  0  0  0  0
   21.8393   70.1014   -0.5652 O   0  0  0  0  0  0  0  0  0  0  0  0
   20.0302   70.5195   -2.0353 O   0  0  0  0  0  0  0  0  0  0  0  0
   20.1048   73.9849    0.2125 O   0  0  0  0  0  0  0  0  0  0  0  0
   22.5927   72.7741   -0.7249 O   0  0  0  0  0  0  0  0  0  0  0  0
   18.0641   71.9728    0.7004 O   0  0  0  0  0  0  0  0  0  0  0  0
   20.2735   72.5894   -0.0367 C   0  0  2  0  0  0  0  0  0  0  0  0
   21.2931   72.3895   -1.1584 C   0  0  2  0  0  0  0  0  0  0  0  0
   18.9150   72.0141   -0.4435 C   0  0  1  0  0  0  0  0  0  0  0  0
   21.3305   70.9288   -1.6098 C   0  0  1  0  0  0  0  0  0  0  0  0
   19.0531   70.6000   -1.0001 C   0  0  1  0  0  0  0  0  0  0  0  0
   20.9554   74.3722    0.4728 H   0  0  0  0  0  0  0  0  0  0  0  0
   22.5762   73.6998   -0.4368 H   0  0  0  0  0  0  0  0  0  0  0  0
   17.9681   72.8667    1.0645 H   0  0  0  0  0  0  0  0  0  0  0  0
   18.0803   69.3951   -2.7618 O   0  0  0  0  0  0  0  0  0  0  0  0
   16.6675   70.4854   -1.3425 O   0  0  0  0  0  0  0  0  0  0  0  0
   17.7974   70.1766   -1.6903 C   0  0  0  0  0  0  0  0  0  0  0  0
  1  4  1  0
  1 24  1  0
  1  2  1  6
  1  3  2  0
 25 28  1  0
 25 24  1  0
 25 26  1  1
 25 27  2  0
  6 11  1  0
  6 12  1  0
 29 36  1  0
 29 37  1  0
  9  7  1  1
  7 13  1  0
 10  8  1  1
  8 14  1  0
  4  5  1  0
 36 28  1  1
 33 30  1  6
 30 38  1  0
 34 31  1  1
 31 39  1  0
 35 32  1  1
 32 40  1  0
 41 43  1  0
 15 19  2  0
 42 43  2  0
 16 22  2  0
 12 17  1  6
 17 19  1  0
 17 20  1  0
 18 19  1  0
 18 22  1  0
 18 23  1  0
  9 10  1  0
  9 11  1  0
 10 12  1  0
 11  5  1  6
 33 34  1  0
 33 35  1  0
 34 36  1  0
 35 37  1  0
 37 43  1  6
 20 21  2  0
 21 22  1  0
M  CHG  3   2  -1  26  -1  41  -1
M  END
>  <COMPND>  (68) 
    udp_gluA.pdb 

>  <AUTHOR>  (68) 
    GENERATED BY OPEN BABEL 3.1.1

>  <MASTER>  (68) 
        0    0    0    0    0    0    0    0   56    0   56    0

>  <minimizedAffinity>  (68) 
-9.07238

>  <CNNscore>  (68) 
0.6587514281

>  <CNNaffinity>  (68) 
4.8069133759

>  <CNN_VS>  (68) 
3.1665611267

>  <CNNaffinity_variance>  (68) 
0.1265013069

$$$$
69
     RDKit          3D

 43 45  0  0  0  0  0  0  0  0999 V2000
   20.7946   70.8141   -0.5835 P   0  0  2  0  0  0  0  0  0  0  0  0
   20.3986   69.6988    0.5203 O   0  0  0  0  0  0  0  0  0  0  0  0
   20.7294   72.2336   -0.1014 O   0  0  0  0  0  0  0  0  0  0  0  0
   19.8531   70.4583   -1.8504 O   0  0  0  0  0  0  0  0  0  0  0  0
   19.6220   71.4603   -2.8235 C   0  0  0  0  0  0  0  0  0  0  0  0
   17.8497   72.1566   -4.2904 O   0  0  0  0  0  0  0  0  0  0  0  0
   15.9828   70.8034   -2.3733 O   0  0  0  0  0  0  0  0  0  0  0  0
   16.1965   68.9767   -4.3867 O   0  0  0  0  0  0  0  0  0  0  0  0
   17.2996   70.4229   -2.7730 C   0  0  1  0  0  0  0  0  0  0  0  0
   17.2787   69.8599   -4.1783 C   0  0  2  0  0  0  0  0  0  0  0  0
   18.1218   71.6920   -2.9504 C   0  0  1  0  0  0  0  0  0  0  0  0
   17.1761   71.1196   -5.0212 C   0  0  2  0  0  0  0  0  0  0  0  0
   15.4386   70.0089   -2.2537 H   0  0  0  0  0  0  0  0  0  0  0  0
   16.3084   68.1909   -3.8281 H   0  0  0  0  0  0  0  0  0  0  0  0
   15.8384   70.2623   -7.3562 O   0  0  0  0  0  0  0  0  0  0  0  0
   19.6727   70.5901   -9.8930 O   0  0  0  0  0  0  0  0  0  0  0  0
   17.8007   70.9721   -6.3053 N   0  0  0  0  0  0  0  0  0  0  0  0
   17.7496   70.4254   -8.6172 N   0  0  0  0  0  0  0  0  0  0  0  0
   17.0390   70.5346   -7.4146 C   0  0  0  0  0  0  0  0  0  0  0  0
   19.1514   71.2608   -6.4568 C   0  0  0  0  0  0  0  0  0  0  0  0
   19.8149   71.1521   -7.6096 C   0  0  0  0  0  0  0  0  0  0  0  0
   19.0928   70.7005   -8.8170 C   0  0  0  0  0  0  0  0  0  0  0  0
   17.2410   70.1206   -9.4032 H   0  0  0  0  0  0  0  0  0  0  0  0
   22.2589   70.3359   -1.0733 O   0  0  0  0  0  0  0  0  0  0  0  0
   23.3833   69.4372   -0.3374 P   0  0  2  0  0  0  0  0  0  0  0  0
   24.5476   69.3130   -1.4552 O   0  0  0  0  0  0  0  0  0  0  0  0
   22.8787   68.1208    0.1787 O   0  0  0  0  0  0  0  0  0  0  0  0
   24.0058   70.4053    0.7930 O   0  0  0  0  0  0  0  0  0  0  0  0
   25.3786   69.8690    2.6469 O   0  0  0  0  0  0  0  0  0  0  0  0
   23.2486   73.1033    4.0859 O   0  0  0  0  0  0  0  0  0  0  0  0
   21.9147   71.0313    2.5169 O   0  0  0  0  0  0  0  0  0  0  0  0
   26.0219   73.4260    3.2762 O   0  0  0  0  0  0  0  0  0  0  0  0
   23.8963   72.3064    3.0941 C   0  0  2  0  0  0  0  0  0  0  0  0
   23.2365   70.9286    3.0336 C   0  0  2  0  0  0  0  0  0  0  0  0
   25.3706   72.1740    3.4826 C   0  0  1  0  0  0  0  0  0  0  0  0
   24.0431   69.9740    2.1522 C   0  0  1  0  0  0  0  0  0  0  0  0
   26.0751   71.1132    2.6418 C   0  0  1  0  0  0  0  0  0  0  0  0
   22.3102   73.2012    3.8600 H   0  0  0  0  0  0  0  0  0  0  0  0
   21.3973   71.6357    3.0712 H   0  0  0  0  0  0  0  0  0  0  0  0
   25.5830   74.1100    3.8057 H   0  0  0  0  0  0  0  0  0  0  0  0
   27.5292   71.2992    4.4728 O   0  0  0  0  0  0  0  0  0  0  0  0
   28.2524   70.0749    2.6904 O   0  0  0  0  0  0  0  0  0  0  0  0
   27.3994   70.7588    3.2359 C   0  0  0  0  0  0  0  0  0  0  0  0
  1  4  1  0
  1 24  1  0
  1  2  1  1
  1  3  2  0
 25 28  1  0
 25 24  1  0
 25 26  1  6
 25 27  2  0
  6 11  1  0
  6 12  1  0
 29 36  1  0
 29 37  1  0
  9  7  1  6
  7 13  1  0
 10  8  1  1
  8 14  1  0
  4  5  1  0
 36 28  1  6
 33 30  1  1
 30 38  1  0
 34 31  1  6
 31 39  1  0
 35 32  1  6
 32 40  1  0
 41 43  1  0
 15 19  2  0
 42 43  2  0
 16 22  2  0
 12 17  1  6
 17 19  1  0
 17 20  1  0
 18 19  1  0
 18 22  1  0
 18 23  1  0
  9 10  1  0
  9 11  1  0
 10 12  1  0
 11  5  1  6
 33 34  1  0
 33 35  1  0
 34 36  1  0
 35 37  1  0
 37 43  1  1
 20 21  2  0
 21 22  1  0
M  CHG  3   2  -1  26  -1  41  -1
M  END
>  <COMPND>  (69) 
    udp_gluA.pdb 

>  <AUTHOR>  (69) 
    GENERATED BY OPEN BABEL 3.1.1

>  <MASTER>  (69) 
        0    0    0    0    0    0    0    0   56    0   56    0

>  <minimizedAffinity>  (69) 
-8.74211

>  <CNNscore>  (69) 
0.6466326118

>  <CNNaffinity>  (69) 
4.7406148911

>  <CNN_VS>  (69) 
3.0654361248

>  <CNNaffinity_variance>  (69) 
0.3824478090

$$$$
70
     RDKit          3D

 43 45  0  0  0  0  0  0  0  0999 V2000
   22.5448   71.3488   -2.8240 P   0  0  2  0  0  0  0  0  0  0  0  0
   22.7784   72.1713   -1.4501 O   0  0  0  0  0  0  0  0  0  0  0  0
   23.5034   71.6782   -3.9305 O   0  0  0  0  0  0  0  0  0  0  0  0
   20.9792   71.5855   -3.1571 O   0  0  0  0  0  0  0  0  0  0  0  0
   20.0640   70.5408   -2.8822 C   0  0  0  0  0  0  0  0  0  0  0  0
   18.4293   71.7788   -4.1363 O   0  0  0  0  0  0  0  0  0  0  0  0
   16.3947   70.6460   -2.2472 O   0  0  0  0  0  0  0  0  0  0  0  0
   16.0995   69.0724   -4.4546 O   0  0  0  0  0  0  0  0  0  0  0  0
   17.5723   70.0377   -2.7780 C   0  0  1  0  0  0  0  0  0  0  0  0
   17.3611   69.6660   -4.2304 C   0  0  2  0  0  0  0  0  0  0  0  0
   18.6504   71.1083   -2.8766 C   0  0  1  0  0  0  0  0  0  0  0  0
   17.5067   71.0097   -4.9241 C   0  0  2  0  0  0  0  0  0  0  0  0
   15.6915   69.9812   -2.1749 H   0  0  0  0  0  0  0  0  0  0  0  0
   16.0567   68.2198   -3.9927 H   0  0  0  0  0  0  0  0  0  0  0  0
   15.9630   70.2633   -7.1683 O   0  0  0  0  0  0  0  0  0  0  0  0
   19.5926   70.5621   -9.9933 O   0  0  0  0  0  0  0  0  0  0  0  0
   18.0229   70.8847   -6.2578 N   0  0  0  0  0  0  0  0  0  0  0  0
   17.7724   70.4119   -8.5730 N   0  0  0  0  0  0  0  0  0  0  0  0
   17.1629   70.5035   -7.3148 C   0  0  0  0  0  0  0  0  0  0  0  0
   19.3657   71.1400   -6.5086 C   0  0  0  0  0  0  0  0  0  0  0  0
   19.9322   71.0486   -7.7134 C   0  0  0  0  0  0  0  0  0  0  0  0
   19.1033   70.6552   -8.8716 C   0  0  0  0  0  0  0  0  0  0  0  0
   17.1941   70.1461   -9.3242 H   0  0  0  0  0  0  0  0  0  0  0  0
   22.5835   69.8083   -2.3358 O   0  0  0  0  0  0  0  0  0  0  0  0
   23.7173   68.9756   -1.5391 P   0  0  2  0  0  0  0  0  0  0  0  0
   25.0464   69.2124   -2.4323 O   0  0  0  0  0  0  0  0  0  0  0  0
   23.3747   67.5318   -1.3110 O   0  0  0  0  0  0  0  0  0  0  0  0
   23.9762   69.8233   -0.1911 O   0  0  0  0  0  0  0  0  0  0  0  0
   24.4723   69.6768    2.1200 O   0  0  0  0  0  0  0  0  0  0  0  0
   20.7891   71.5475    2.1677 O   0  0  0  0  0  0  0  0  0  0  0  0
   21.2946   69.3188    0.3479 O   0  0  0  0  0  0  0  0  0  0  0  0
   23.2095   73.0779    2.6682 O   0  0  0  0  0  0  0  0  0  0  0  0
   22.0751   71.2149    1.6447 C   0  0  2  0  0  0  0  0  0  0  0  0
   22.1578   69.7063    1.4106 C   0  0  2  0  0  0  0  0  0  0  0  0
   23.1283   71.6538    2.6645 C   0  0  1  0  0  0  0  0  0  0  0  0
   23.5875   69.2831    1.0705 C   0  0  1  0  0  0  0  0  0  0  0  0
   24.5037   71.0877    2.3236 C   0  0  1  0  0  0  0  0  0  0  0  0
   20.1035   71.2778    1.5364 H   0  0  0  0  0  0  0  0  0  0  0  0
   20.3857   69.5846    0.5568 H   0  0  0  0  0  0  0  0  0  0  0  0
   22.3404   73.4508    2.8836 H   0  0  0  0  0  0  0  0  0  0  0  0
   26.7072   70.9231    3.1104 O   0  0  0  0  0  0  0  0  0  0  0  0
   25.1189   71.6005    4.5996 O   0  0  0  0  0  0  0  0  0  0  0  0
   25.4407   71.2394    3.4775 C   0  0  0  0  0  0  0  0  0  0  0  0
  1  4  1  0
  1 24  1  0
  1  2  1  1
  1  3  2  0
 25 28  1  0
 25 24  1  0
 25 26  1  6
 25 27  2  0
  6 11  1  0
  6 12  1  0
 29 36  1  0
 29 37  1  0
  9  7  1  6
  7 13  1  0
 10  8  1  1
  8 14  1  0
  4  5  1  0
 36 28  1  6
 33 30  1  1
 30 38  1  0
 34 31  1  6
 31 39  1  0
 35 32  1  6
 32 40  1  0
 41 43  1  0
 15 19  2  0
 42 43  2  0
 16 22  2  0
 12 17  1  6
 17 19  1  0
 17 20  1  0
 18 19  1  0
 18 22  1  0
 18 23  1  0
  9 10  1  0
  9 11  1  0
 10 12  1  0
 11  5  1  6
 33 34  1  0
 33 35  1  0
 34 36  1  0
 35 37  1  0
 37 43  1  1
 20 21  2  0
 21 22  1  0
M  CHG  3   2  -1  26  -1  41  -1
M  END
>  <COMPND>  (70) 
    udp_gluA.pdb 

>  <AUTHOR>  (70) 
    GENERATED BY OPEN BABEL 3.1.1

>  <MASTER>  (70) 
        0    0    0    0    0    0    0    0   56    0   56    0

>  <minimizedAffinity>  (70) 
-8.95587

>  <CNNscore>  (70) 
0.6372338533

>  <CNNaffinity>  (70) 
4.7327966690

>  <CNN_VS>  (70) 
3.0158982277

>  <CNNaffinity_variance>  (70) 
0.1585865468

$$$$
71
     RDKit          3D

 43 45  0  0  0  0  0  0  0  0999 V2000
   24.1177   70.3926    1.9677 P   0  0  2  0  0  0  0  0  0  0  0  0
   23.0049   71.3618    2.6320 O   0  0  0  0  0  0  0  0  0  0  0  0
   24.1248   68.9855    2.4890 O   0  0  0  0  0  0  0  0  0  0  0  0
   25.5013   71.2133    2.1415 O   0  0  0  0  0  0  0  0  0  0  0  0
   26.5640   70.6043    2.8516 C   0  0  0  0  0  0  0  0  0  0  0  0
   28.5575   71.2469    4.0309 O   0  0  0  0  0  0  0  0  0  0  0  0
   27.3134   73.9643    4.2754 O   0  0  0  0  0  0  0  0  0  0  0  0
   29.0747   74.2981    2.2206 O   0  0  0  0  0  0  0  0  0  0  0  0
   27.2427   73.0318    3.1965 C   0  0  1  0  0  0  0  0  0  0  0  0
   28.5546   73.0038    2.4412 C   0  0  2  0  0  0  0  0  0  0  0  0
   27.1864   71.6306    3.7895 C   0  0  1  0  0  0  0  0  0  0  0  0
   29.4304   72.1705    3.3612 C   0  0  2  0  0  0  0  0  0  0  0  0
   27.3502   74.8670    3.9212 H   0  0  0  0  0  0  0  0  0  0  0  0
   28.4817   74.7884    1.6291 H   0  0  0  0  0  0  0  0  0  0  0  0
   32.1549   72.0485    4.0953 O   0  0  0  0  0  0  0  0  0  0  0  0
   33.1793   69.3040    0.5369 O   0  0  0  0  0  0  0  0  0  0  0  0
   30.4308   71.4315    2.6444 N   0  0  0  0  0  0  0  0  0  0  0  0
   32.6627   70.6825    2.3218 N   0  0  0  0  0  0  0  0  0  0  0  0
   31.7714   71.4360    3.0970 C   0  0  0  0  0  0  0  0  0  0  0  0
   30.0804   70.7118    1.5085 C   0  0  0  0  0  0  0  0  0  0  0  0
   30.9412   69.9982    0.7800 C   0  0  0  0  0  0  0  0  0  0  0  0
   32.3616   69.9511    1.1843 C   0  0  0  0  0  0  0  0  0  0  0  0
   33.6021   70.6721    2.6160 H   0  0  0  0  0  0  0  0  0  0  0  0
   23.8143   70.5229    0.3854 O   0  0  0  0  0  0  0  0  0  0  0  0
   22.7859   69.7184   -0.5680 P   0  0  2  0  0  0  0  0  0  0  0  0
   21.5310   69.4203    0.4101 O   0  0  0  0  0  0  0  0  0  0  0  0
   23.3719   68.4956   -1.2124 O   0  0  0  0  0  0  0  0  0  0  0  0
   22.2389   70.8254   -1.6062 O   0  0  0  0  0  0  0  0  0  0  0  0
   20.5618   69.9424   -3.0263 O   0  0  0  0  0  0  0  0  0  0  0  0
   21.1136   73.7134   -4.6209 O   0  0  0  0  0  0  0  0  0  0  0  0
   23.4069   72.1119   -3.7780 O   0  0  0  0  0  0  0  0  0  0  0  0
   18.7689   73.1435   -2.9996 O   0  0  0  0  0  0  0  0  0  0  0  0
   21.0684   72.7292   -3.5878 C   0  0  2  0  0  0  0  0  0  0  0  0
   22.0763   71.6208   -3.8924 C   0  0  2  0  0  0  0  0  0  0  0  0
   19.6489   72.1593   -3.5394 C   0  0  1  0  0  0  0  0  0  0  0  0
   21.8972   70.4405   -2.9365 C   0  0  1  0  0  0  0  0  0  0  0  0
   19.5795   70.9107   -2.6650 C   0  0  1  0  0  0  0  0  0  0  0  0
   22.0065   74.0897   -4.6703 H   0  0  0  0  0  0  0  0  0  0  0  0
   23.5275   72.8612   -4.3817 H   0  0  0  0  0  0  0  0  0  0  0  0
   18.8038   73.9435   -3.5469 H   0  0  0  0  0  0  0  0  0  0  0  0
   17.6759   70.6252   -4.0054 O   0  0  0  0  0  0  0  0  0  0  0  0
   17.8534   69.3036   -2.1558 O   0  0  0  0  0  0  0  0  0  0  0  0
   18.2937   70.1815   -2.8827 C   0  0  0  0  0  0  0  0  0  0  0  0
  1  4  1  0
  1 24  1  0
  1  2  1  1
  1  3  2  0
 25 28  1  0
 25 24  1  0
 25 26  1  1
 25 27  2  0
  6 11  1  0
  6 12  1  0
 29 36  1  0
 29 37  1  0
  9  7  1  1
  7 13  1  0
 10  8  1  1
  8 14  1  0
  4  5  1  0
 36 28  1  1
 33 30  1  6
 30 38  1  0
 34 31  1  1
 31 39  1  0
 35 32  1  1
 32 40  1  0
 41 43  1  0
 15 19  2  0
 42 43  2  0
 16 22  2  0
 12 17  1  6
 17 19  1  0
 17 20  1  0
 18 19  1  0
 18 22  1  0
 18 23  1  0
  9 10  1  0
  9 11  1  0
 10 12  1  0
 11  5  1  6
 33 34  1  0
 33 35  1  0
 34 36  1  0
 35 37  1  0
 37 43  1  6
 20 21  2  0
 21 22  1  0
M  CHG  3   2  -1  26  -1  41  -1
M  END
>  <COMPND>  (71) 
    udp_gluA.pdb 

>  <AUTHOR>  (71) 
    GENERATED BY OPEN BABEL 3.1.1

>  <MASTER>  (71) 
        0    0    0    0    0    0    0    0   56    0   56    0

>  <minimizedAffinity>  (71) 
-9.02188

>  <CNNscore>  (71) 
0.6354054213

>  <CNNaffinity>  (71) 
4.8084211349

>  <CNN_VS>  (71) 
3.0552968979

>  <CNNaffinity_variance>  (71) 
0.0331183411

$$$$
72
     RDKit          3D

 43 45  0  0  0  0  0  0  0  0999 V2000
   21.5461   70.3530   -0.3822 P   0  0  2  0  0  0  0  0  0  0  0  0
   20.8726   69.2715    0.6156 O   0  0  0  0  0  0  0  0  0  0  0  0
   22.2000   69.7699   -1.6005 O   0  0  0  0  0  0  0  0  0  0  0  0
   22.5088   71.2250    0.5825 O   0  0  0  0  0  0  0  0  0  0  0  0
   23.4894   70.5495    1.3485 C   0  0  0  0  0  0  0  0  0  0  0  0
   24.3513   70.3675    3.5849 O   0  0  0  0  0  0  0  0  0  0  0  0
   22.0972   72.1688    4.4010 O   0  0  0  0  0  0  0  0  0  0  0  0
   24.2203   73.8774    4.3043 O   0  0  0  0  0  0  0  0  0  0  0  0
   22.8735   72.1788    3.2028 C   0  0  1  0  0  0  0  0  0  0  0  0
   24.2555   72.7324    3.4782 C   0  0  2  0  0  0  0  0  0  0  0  0
   23.1777   70.7348    2.8280 C   0  0  1  0  0  0  0  0  0  0  0  0
   24.9412   71.5517    4.1443 C   0  0  2  0  0  0  0  0  0  0  0  0
   21.8905   73.0807    4.6604 H   0  0  0  0  0  0  0  0  0  0  0  0
   23.7743   74.6008    3.8354 H   0  0  0  0  0  0  0  0  0  0  0  0
   26.8224   73.1554    5.5103 O   0  0  0  0  0  0  0  0  0  0  0  0
   30.3421   71.3832    3.1196 O   0  0  0  0  0  0  0  0  0  0  0  0
   26.3555   71.5295    3.8987 N   0  0  0  0  0  0  0  0  0  0  0  0
   28.5735   72.2719    4.3176 N   0  0  0  0  0  0  0  0  0  0  0  0
   27.2140   72.3754    4.6401 C   0  0  0  0  0  0  0  0  0  0  0  0
   26.8788   70.6763    2.9348 C   0  0  0  0  0  0  0  0  0  0  0  0
   28.1770   70.5888    2.6387 C   0  0  0  0  0  0  0  0  0  0  0  0
   29.1413   71.4392    3.3669 C   0  0  0  0  0  0  0  0  0  0  0  0
   29.1905   72.8526    4.8191 H   0  0  0  0  0  0  0  0  0  0  0  0
   20.3272   71.3683   -0.6930 O   0  0  0  0  0  0  0  0  0  0  0  0
   18.9344   71.1443   -1.4825 P   0  0  2  0  0  0  0  0  0  0  0  0
   17.9632   72.2724   -0.8465 O   0  0  0  0  0  0  0  0  0  0  0  0
   18.3961   69.7454   -1.3971 O   0  0  0  0  0  0  0  0  0  0  0  0
   19.2273   71.6585   -2.9833 O   0  0  0  0  0  0  0  0  0  0  0  0
   18.7819   70.2718   -4.8508 O   0  0  0  0  0  0  0  0  0  0  0  0
   21.3861   73.0437   -6.4641 O   0  0  0  0  0  0  0  0  0  0  0  0
   21.8700   71.9279   -3.8079 O   0  0  0  0  0  0  0  0  0  0  0  0
   18.5423   73.2021   -7.0458 O   0  0  0  0  0  0  0  0  0  0  0  0
   20.3580   72.5752   -5.5915 C   0  0  2  0  0  0  0  0  0  0  0  0
   20.9002   71.4372   -4.7264 C   0  0  2  0  0  0  0  0  0  0  0  0
   19.1948   72.0803   -6.4540 C   0  0  1  0  0  0  0  0  0  0  0  0
   19.7736   70.7587   -3.9459 C   0  0  1  0  0  0  0  0  0  0  0  0
   18.1757   71.3055   -5.6235 C   0  0  1  0  0  0  0  0  0  0  0  0
   22.1361   73.3633   -5.9381 H   0  0  0  0  0  0  0  0  0  0  0  0
   22.5877   72.3600   -4.2963 H   0  0  0  0  0  0  0  0  0  0  0  0
   19.1801   73.7039   -7.5771 H   0  0  0  0  0  0  0  0  0  0  0  0
   17.6582   70.5813   -7.7935 O   0  0  0  0  0  0  0  0  0  0  0  0
   16.2165   69.9911   -6.1285 O   0  0  0  0  0  0  0  0  0  0  0  0
   17.2323   70.5553   -6.5063 C   0  0  0  0  0  0  0  0  0  0  0  0
  1  4  1  0
  1 24  1  0
  1  2  1  1
  1  3  2  0
 25 28  1  0
 25 24  1  0
 25 26  1  1
 25 27  2  0
  6 11  1  0
  6 12  1  0
 29 36  1  0
 29 37  1  0
  9  7  1  1
  7 13  1  0
 10  8  1  1
  8 14  1  0
  4  5  1  0
 36 28  1  1
 33 30  1  6
 30 38  1  0
 34 31  1  1
 31 39  1  0
 35 32  1  1
 32 40  1  0
 41 43  1  0
 15 19  2  0
 42 43  2  0
 16 22  2  0
 12 17  1  6
 17 19  1  0
 17 20  1  0
 18 19  1  0
 18 22  1  0
 18 23  1  0
  9 10  1  0
  9 11  1  0
 10 12  1  0
 11  5  1  6
 33 34  1  0
 33 35  1  0
 34 36  1  0
 35 37  1  0
 37 43  1  6
 20 21  2  0
 21 22  1  0
M  CHG  3   2  -1  26  -1  41  -1
M  END
>  <COMPND>  (72) 
    udp_gluA.pdb 

>  <AUTHOR>  (72) 
    GENERATED BY OPEN BABEL 3.1.1

>  <MASTER>  (72) 
        0    0    0    0    0    0    0    0   56    0   56    0

>  <minimizedAffinity>  (72) 
-8.84336

>  <CNNscore>  (72) 
0.6336680055

>  <CNNaffinity>  (72) 
4.4515476227

>  <CNN_VS>  (72) 
2.8208034039

>  <CNNaffinity_variance>  (72) 
0.0051956526

$$$$
73
     RDKit          3D

 43 45  0  0  0  0  0  0  0  0999 V2000
   23.7663   70.4644    2.6091 P   0  0  2  0  0  0  0  0  0  0  0  0
   23.1025   70.9159    4.0142 O   0  0  0  0  0  0  0  0  0  0  0  0
   23.9049   68.9821    2.4212 O   0  0  0  0  0  0  0  0  0  0  0  0
   25.1420   71.3132    2.5388 O   0  0  0  0  0  0  0  0  0  0  0  0
   25.0736   72.7225    2.6557 C   0  0  0  0  0  0  0  0  0  0  0  0
   26.8221   72.3085    4.2523 O   0  0  0  0  0  0  0  0  0  0  0  0
   26.1957   75.0224    5.3630 O   0  0  0  0  0  0  0  0  0  0  0  0
   28.4230   75.4926    3.8616 O   0  0  0  0  0  0  0  0  0  0  0  0
   26.1763   74.5743    4.0075 C   0  0  1  0  0  0  0  0  0  0  0  0
   27.5894   74.4156    3.4877 C   0  0  2  0  0  0  0  0  0  0  0  0
   25.6690   73.1387    3.9946 C   0  0  1  0  0  0  0  0  0  0  0  0
   28.0127   73.1012    4.1209 C   0  0  2  0  0  0  0  0  0  0  0  0
   26.5165   75.9376    5.3968 H   0  0  0  0  0  0  0  0  0  0  0  0
   28.1124   76.3059    3.4327 H   0  0  0  0  0  0  0  0  0  0  0  0
   30.8090   73.4791    4.2431 O   0  0  0  0  0  0  0  0  0  0  0  0
   31.5639   70.3038    0.9887 O   0  0  0  0  0  0  0  0  0  0  0  0
   28.9632   72.3865    3.3168 N   0  0  0  0  0  0  0  0  0  0  0  0
   31.1822   71.8980    2.6214 N   0  0  0  0  0  0  0  0  0  0  0  0
   30.3462   72.6518    3.4555 C   0  0  0  0  0  0  0  0  0  0  0  0
   28.5235   71.4346    2.4050 C   0  0  0  0  0  0  0  0  0  0  0  0
   29.3325   70.7239    1.6168 C   0  0  0  0  0  0  0  0  0  0  0  0
   30.7919   70.9408    1.6989 C   0  0  0  0  0  0  0  0  0  0  0  0
   32.1492   72.0666    2.6985 H   0  0  0  0  0  0  0  0  0  0  0  0
   22.8307   71.1974    1.5136 O   0  0  0  0  0  0  0  0  0  0  0  0
   21.3614   70.8236    0.9521 P   0  0  2  0  0  0  0  0  0  0  0  0
   20.3709   71.4016    2.0945 O   0  0  0  0  0  0  0  0  0  0  0  0
   21.1709   69.3658    0.6482 O   0  0  0  0  0  0  0  0  0  0  0  0
   21.1438   71.8046   -0.3099 O   0  0  0  0  0  0  0  0  0  0  0  0
   19.8358   70.4207   -1.7181 O   0  0  0  0  0  0  0  0  0  0  0  0
   19.4971   74.0867   -3.5925 O   0  0  0  0  0  0  0  0  0  0  0  0
   22.0699   73.1980   -2.5318 O   0  0  0  0  0  0  0  0  0  0  0  0
   17.2847   73.0400   -2.0238 O   0  0  0  0  0  0  0  0  0  0  0  0
   19.6442   73.1980   -2.4850 C   0  0  2  0  0  0  0  0  0  0  0  0
   20.9186   72.3713   -2.6581 C   0  0  2  0  0  0  0  0  0  0  0  0
   18.4178   72.2836   -2.4463 C   0  0  1  0  0  0  0  0  0  0  0  0
   20.9914   71.2536   -1.6168 C   0  0  1  0  0  0  0  0  0  0  0  0
   18.6187   71.1229   -1.4762 C   0  0  1  0  0  0  0  0  0  0  0  0
   20.2651   74.6778   -3.6373 H   0  0  0  0  0  0  0  0  0  0  0  0
   22.0302   73.9095   -3.1894 H   0  0  0  0  0  0  0  0  0  0  0  0
   17.1459   73.7820   -2.6329 H   0  0  0  0  0  0  0  0  0  0  0  0
   16.3888   70.4656   -1.1643 O   0  0  0  0  0  0  0  0  0  0  0  0
   17.7629   69.0025   -2.2462 O   0  0  0  0  0  0  0  0  0  0  0  0
   17.5777   70.0715   -1.6841 C   0  0  0  0  0  0  0  0  0  0  0  0
  1  4  1  0
  1 24  1  0
  1  2  1  1
  1  3  2  0
 25 28  1  0
 25 24  1  0
 25 26  1  1
 25 27  2  0
  6 11  1  0
  6 12  1  0
 29 36  1  0
 29 37  1  0
  9  7  1  1
  7 13  1  0
 10  8  1  1
  8 14  1  0
  4  5  1  0
 36 28  1  1
 33 30  1  6
 30 38  1  0
 34 31  1  1
 31 39  1  0
 35 32  1  1
 32 40  1  0
 41 43  1  0
 15 19  2  0
 42 43  2  0
 16 22  2  0
 12 17  1  6
 17 19  1  0
 17 20  1  0
 18 19  1  0
 18 22  1  0
 18 23  1  0
  9 10  1  0
  9 11  1  0
 10 12  1  0
 11  5  1  6
 33 34  1  0
 33 35  1  0
 34 36  1  0
 35 37  1  0
 37 43  1  6
 20 21  2  0
 21 22  1  0
M  CHG  3   2  -1  26  -1  41  -1
M  END
>  <COMPND>  (73) 
    udp_gluA.pdb 

>  <AUTHOR>  (73) 
    GENERATED BY OPEN BABEL 3.1.1

>  <MASTER>  (73) 
        0    0    0    0    0    0    0    0   56    0   56    0

>  <minimizedAffinity>  (73) 
-7.80131

>  <CNNscore>  (73) 
0.5955880880

>  <CNNaffinity>  (73) 
4.6104612350

>  <CNN_VS>  (73) 
2.7459356785

>  <CNNaffinity_variance>  (73) 
0.1400268376

$$$$
74
     RDKit          3D

 43 45  0  0  0  0  0  0  0  0999 V2000
   20.6340   70.8912   -0.1366 P   0  0  2  0  0  0  0  0  0  0  0  0
   20.6696   69.3989    0.4884 O   0  0  0  0  0  0  0  0  0  0  0  0
   21.5307   71.1036   -1.3210 O   0  0  0  0  0  0  0  0  0  0  0  0
   20.9108   71.8519    1.1355 O   0  0  0  0  0  0  0  0  0  0  0  0
   22.2122   71.8779    1.6926 C   0  0  0  0  0  0  0  0  0  0  0  0
   23.2065   71.0270    3.7088 O   0  0  0  0  0  0  0  0  0  0  0  0
   21.5924   73.0974    5.1578 O   0  0  0  0  0  0  0  0  0  0  0  0
   24.0696   74.2331    5.0615 O   0  0  0  0  0  0  0  0  0  0  0  0
   22.2256   73.1762    3.8805 C   0  0  1  0  0  0  0  0  0  0  0  0
   23.7242   73.3143    4.0461 C   0  0  2  0  0  0  0  0  0  0  0  0
   22.1032   71.8143    3.2107 C   0  0  1  0  0  0  0  0  0  0  0  0
   24.1370   71.8910    4.3803 C   0  0  2  0  0  0  0  0  0  0  0  0
   21.6577   73.9561    5.6050 H   0  0  0  0  0  0  0  0  0  0  0  0
   23.7861   75.1241    4.8013 H   0  0  0  0  0  0  0  0  0  0  0  0
   26.4852   72.4534    5.8453 O   0  0  0  0  0  0  0  0  0  0  0  0
   29.1814   70.6762    2.5565 O   0  0  0  0  0  0  0  0  0  0  0  0
   25.4657   71.5859    3.9305 N   0  0  0  0  0  0  0  0  0  0  0  0
   27.8259   71.5686    4.2055 N   0  0  0  0  0  0  0  0  0  0  0  0
   26.5779   71.9102    4.7429 C   0  0  0  0  0  0  0  0  0  0  0  0
   25.6570   70.9712    2.6990 C   0  0  0  0  0  0  0  0  0  0  0  0
   26.8528   70.6516    2.2002 C   0  0  0  0  0  0  0  0  0  0  0  0
   28.0665   70.9572    2.9857 C   0  0  0  0  0  0  0  0  0  0  0  0
   28.6153   71.7865    4.7520 H   0  0  0  0  0  0  0  0  0  0  0  0
   19.0619   71.1235   -0.4321 O   0  0  0  0  0  0  0  0  0  0  0  0
   18.1475   70.7093   -1.6994 P   0  0  2  0  0  0  0  0  0  0  0  0
   16.8838   71.7147   -1.5881 O   0  0  0  0  0  0  0  0  0  0  0  0
   17.7785   69.2547   -1.7432 O   0  0  0  0  0  0  0  0  0  0  0  0
   18.9703   71.2302   -2.9855 O   0  0  0  0  0  0  0  0  0  0  0  0
   18.1151   70.1402   -4.9063 O   0  0  0  0  0  0  0  0  0  0  0  0
   21.1127   72.4745   -6.5291 O   0  0  0  0  0  0  0  0  0  0  0  0
   21.5454   71.0424   -4.0199 O   0  0  0  0  0  0  0  0  0  0  0  0
   18.3286   73.2507   -6.8406 O   0  0  0  0  0  0  0  0  0  0  0  0
   20.0755   72.1415   -5.6065 C   0  0  2  0  0  0  0  0  0  0  0  0
   20.4318   70.8427   -4.8828 C   0  0  2  0  0  0  0  0  0  0  0  0
   18.7762   71.9712   -6.3969 C   0  0  1  0  0  0  0  0  0  0  0  0
   19.2484   70.3330   -4.0590 C   0  0  1  0  0  0  0  0  0  0  0  0
   17.6815   71.3415   -5.5404 C   0  0  1  0  0  0  0  0  0  0  0  0
   21.9484   72.5876   -6.0493 H   0  0  0  0  0  0  0  0  0  0  0  0
   22.2999   71.3660   -4.5359 H   0  0  0  0  0  0  0  0  0  0  0  0
   19.0164   73.6624   -7.3868 H   0  0  0  0  0  0  0  0  0  0  0  0
   15.9850   71.9244   -7.0516 O   0  0  0  0  0  0  0  0  0  0  0  0
   16.1612   69.7230   -6.4841 O   0  0  0  0  0  0  0  0  0  0  0  0
   16.5426   70.8800   -6.3902 C   0  0  0  0  0  0  0  0  0  0  0  0
  1  4  1  0
  1 24  1  0
  1  2  1  1
  1  3  2  0
 25 28  1  0
 25 24  1  0
 25 26  1  1
 25 27  2  0
  6 11  1  0
  6 12  1  0
 29 36  1  0
 29 37  1  0
  9  7  1  1
  7 13  1  0
 10  8  1  1
  8 14  1  0
  4  5  1  0
 36 28  1  1
 33 30  1  6
 30 38  1  0
 34 31  1  1
 31 39  1  0
 35 32  1  1
 32 40  1  0
 41 43  1  0
 15 19  2  0
 42 43  2  0
 16 22  2  0
 12 17  1  6
 17 19  1  0
 17 20  1  0
 18 19  1  0
 18 22  1  0
 18 23  1  0
  9 10  1  0
  9 11  1  0
 10 12  1  0
 11  5  1  6
 33 34  1  0
 33 35  1  0
 34 36  1  0
 35 37  1  0
 37 43  1  6
 20 21  2  0
 21 22  1  0
M  CHG  3   2  -1  26  -1  41  -1
M  END
>  <COMPND>  (74) 
    udp_gluA.pdb 

>  <AUTHOR>  (74) 
    GENERATED BY OPEN BABEL 3.1.1

>  <MASTER>  (74) 
        0    0    0    0    0    0    0    0   56    0   56    0

>  <minimizedAffinity>  (74) 
-8.34102

>  <CNNscore>  (74) 
0.5796113610

>  <CNNaffinity>  (74) 
4.3925132751

>  <CNN_VS>  (74) 
2.5459506512

>  <CNNaffinity_variance>  (74) 
0.1515004039

$$$$
75
     RDKit          3D

 43 45  0  0  0  0  0  0  0  0999 V2000
   22.3312   69.3601   -0.2767 P   0  0  2  0  0  0  0  0  0  0  0  0
   21.0558   69.1141    0.6886 O   0  0  0  0  0  0  0  0  0  0  0  0
   23.1066   68.1247   -0.6292 O   0  0  0  0  0  0  0  0  0  0  0  0
   23.1675   70.5244    0.4737 O   0  0  0  0  0  0  0  0  0  0  0  0
   24.3243   70.1617    1.2051 C   0  0  0  0  0  0  0  0  0  0  0  0
   25.2121   69.9850    3.4318 O   0  0  0  0  0  0  0  0  0  0  0  0
   22.5877   71.0945    4.3661 O   0  0  0  0  0  0  0  0  0  0  0  0
   24.2261   73.2718    4.4705 O   0  0  0  0  0  0  0  0  0  0  0  0
   23.3337   71.4076    3.1897 C   0  0  1  0  0  0  0  0  0  0  0  0
   24.5385   72.2538    3.5428 C   0  0  2  0  0  0  0  0  0  0  0  0
   23.9817   70.1241    2.6888 C   0  0  1  0  0  0  0  0  0  0  0  0
   25.4953   71.2191    4.1101 C   0  0  2  0  0  0  0  0  0  0  0  0
   22.1643   71.8994    4.7047 H   0  0  0  0  0  0  0  0  0  0  0  0
   23.6148   73.9052    4.0619 H   0  0  0  0  0  0  0  0  0  0  0  0
   26.8708   73.2447    5.5178 O   0  0  0  0  0  0  0  0  0  0  0  0
   30.7719   72.4671    3.1895 O   0  0  0  0  0  0  0  0  0  0  0  0
   26.8709   71.5669    3.8919 N   0  0  0  0  0  0  0  0  0  0  0  0
   28.8122   72.8562    4.3561 N   0  0  0  0  0  0  0  0  0  0  0  0
   27.4669   72.6005    4.6526 C   0  0  0  0  0  0  0  0  0  0  0  0
   27.6149   70.8869    2.9354 C   0  0  0  0  0  0  0  0  0  0  0  0
   28.8964   71.1418    2.6641 C   0  0  0  0  0  0  0  0  0  0  0  0
   29.5935   72.2074    3.4137 C   0  0  0  0  0  0  0  0  0  0  0  0
   29.2481   73.5729    4.8714 H   0  0  0  0  0  0  0  0  0  0  0  0
   21.6857   70.1336   -1.5408 O   0  0  0  0  0  0  0  0  0  0  0  0
   20.8230   71.4984   -1.6224 P   0  0  2  0  0  0  0  0  0  0  0  0
   21.8305   72.5293   -2.3591 O   0  0  0  0  0  0  0  0  0  0  0  0
   20.3053   71.9799   -0.2980 O   0  0  0  0  0  0  0  0  0  0  0  0
   19.6787   71.1944   -2.7181 O   0  0  0  0  0  0  0  0  0  0  0  0
   19.0771   69.2332   -3.9018 O   0  0  0  0  0  0  0  0  0  0  0  0
   18.4286   72.1620   -6.7425 O   0  0  0  0  0  0  0  0  0  0  0  0
   20.7963   72.2548   -5.0338 O   0  0  0  0  0  0  0  0  0  0  0  0
   16.1780   70.9363   -5.3703 O   0  0  0  0  0  0  0  0  0  0  0  0
   18.4892   71.6147   -5.4254 C   0  0  2  0  0  0  0  0  0  0  0  0
   19.9137   71.1431   -5.1322 C   0  0  2  0  0  0  0  0  0  0  0  0
   17.5141   70.4372   -5.3573 C   0  0  1  0  0  0  0  0  0  0  0  0
   19.9686   70.3465   -3.8279 C   0  0  1  0  0  0  0  0  0  0  0  0
   17.7168   69.6189   -4.0854 C   0  0  1  0  0  0  0  0  0  0  0  0
   19.0404   72.9121   -6.8096 H   0  0  0  0  0  0  0  0  0  0  0  0
   20.7663   72.7649   -5.8579 H   0  0  0  0  0  0  0  0  0  0  0  0
   16.0359   71.4592   -6.1748 H   0  0  0  0  0  0  0  0  0  0  0  0
   17.6639   67.3554   -3.4728 O   0  0  0  0  0  0  0  0  0  0  0  0
   15.9733   68.1129   -4.8022 O   0  0  0  0  0  0  0  0  0  0  0  0
   17.0062   68.3079   -4.1792 C   0  0  0  0  0  0  0  0  0  0  0  0
  1  4  1  0
  1 24  1  0
  1  2  1  1
  1  3  2  0
 25 28  1  0
 25 24  1  0
 25 26  1  6
 25 27  2  0
  6 11  1  0
  6 12  1  0
 29 36  1  0
 29 37  1  0
  9  7  1  1
  7 13  1  0
 10  8  1  1
  8 14  1  0
  4  5  1  0
 36 28  1  1
 33 30  1  6
 30 38  1  0
 34 31  1  1
 31 39  1  0
 35 32  1  1
 32 40  1  0
 41 43  1  0
 15 19  2  0
 42 43  2  0
 16 22  2  0
 12 17  1  6
 17 19  1  0
 17 20  1  0
 18 19  1  0
 18 22  1  0
 18 23  1  0
  9 10  1  0
  9 11  1  0
 10 12  1  0
 11  5  1  6
 33 34  1  0
 33 35  1  0
 34 36  1  0
 35 37  1  0
 37 43  1  6
 20 21  2  0
 21 22  1  0
M  CHG  3   2  -1  26  -1  41  -1
M  END
>  <COMPND>  (75) 
    udp_gluA.pdb 

>  <AUTHOR>  (75) 
    GENERATED BY OPEN BABEL 3.1.1

>  <MASTER>  (75) 
        0    0    0    0    0    0    0    0   56    0   56    0

>  <minimizedAffinity>  (75) 
-9.54679

>  <CNNscore>  (75) 
0.5779334903

>  <CNNaffinity>  (75) 
4.8345246315

>  <CNN_VS>  (75) 
2.7940337658

>  <CNNaffinity_variance>  (75) 
0.2637952566

$$$$
76
     RDKit          3D

 43 45  0  0  0  0  0  0  0  0999 V2000
   24.1822   70.0307    3.3921 P   0  0  2  0  0  0  0  0  0  0  0  0
   23.6113   70.7906    4.7019 O   0  0  0  0  0  0  0  0  0  0  0  0
   24.5480   68.5908    3.6041 O   0  0  0  0  0  0  0  0  0  0  0  0
   25.3780   70.9908    2.8762 O   0  0  0  0  0  0  0  0  0  0  0  0
   26.7113   70.6459    3.2044 C   0  0  0  0  0  0  0  0  0  0  0  0
   28.7556   71.5034    4.1336 O   0  0  0  0  0  0  0  0  0  0  0  0
   27.4277   74.1917    4.0944 O   0  0  0  0  0  0  0  0  0  0  0  0
   29.0282   74.2855    1.8886 O   0  0  0  0  0  0  0  0  0  0  0  0
   27.3183   73.1161    3.1618 C   0  0  1  0  0  0  0  0  0  0  0  0
   28.5748   73.0203    2.3225 C   0  0  2  0  0  0  0  0  0  0  0  0
   27.3573   71.8104    3.9440 C   0  0  1  0  0  0  0  0  0  0  0  0
   29.5437   72.3490    3.2808 C   0  0  2  0  0  0  0  0  0  0  0  0
   27.4052   75.0368    3.6180 H   0  0  0  0  0  0  0  0  0  0  0  0
   28.3771   74.6713    1.2809 H   0  0  0  0  0  0  0  0  0  0  0  0
   32.2661   72.1847    4.0145 O   0  0  0  0  0  0  0  0  0  0  0  0
   33.1978   69.2358    0.5969 O   0  0  0  0  0  0  0  0  0  0  0  0
   30.5197   71.5459    2.6000 N   0  0  0  0  0  0  0  0  0  0  0  0
   32.7277   70.7169    2.3110 N   0  0  0  0  0  0  0  0  0  0  0  0
   31.8615   71.5341    3.0491 C   0  0  0  0  0  0  0  0  0  0  0  0
   30.1446   70.7805    1.5026 C   0  0  0  0  0  0  0  0  0  0  0  0
   30.9817   70.0063    0.8093 C   0  0  0  0  0  0  0  0  0  0  0  0
   32.4016   69.9382    1.2125 C   0  0  0  0  0  0  0  0  0  0  0  0
   33.6676   70.6940    2.6035 H   0  0  0  0  0  0  0  0  0  0  0  0
   23.0205   70.2758    2.2952 O   0  0  0  0  0  0  0  0  0  0  0  0
   22.0609   71.5500    2.0321 P   0  0  2  0  0  0  0  0  0  0  0  0
   23.0184   72.8104    2.3711 O   0  0  0  0  0  0  0  0  0  0  0  0
   20.7757   71.5236    2.8077 O   0  0  0  0  0  0  0  0  0  0  0  0
   21.8753   71.5988    0.4304 O   0  0  0  0  0  0  0  0  0  0  0  0
   23.6568   70.6730   -0.8259 O   0  0  0  0  0  0  0  0  0  0  0  0
   21.4498   72.5625   -3.7631 O   0  0  0  0  0  0  0  0  0  0  0  0
   21.9051   73.8617   -1.1865 O   0  0  0  0  0  0  0  0  0  0  0  0
   21.3387   69.6706   -3.4876 O   0  0  0  0  0  0  0  0  0  0  0  0
   21.6572   71.8615   -2.5369 C   0  0  2  0  0  0  0  0  0  0  0  0
   22.5698   72.6829   -1.6259 C   0  0  2  0  0  0  0  0  0  0  0  0
   22.3057   70.5149   -2.8658 C   0  0  1  0  0  0  0  0  0  0  0  0
   22.9998   71.8689   -0.4047 C   0  0  1  0  0  0  0  0  0  0  0  0
   22.8206   69.8224   -1.6073 C   0  0  1  0  0  0  0  0  0  0  0  0
   21.0385   73.4216   -3.5791 H   0  0  0  0  0  0  0  0  0  0  0  0
   21.6293   74.3829   -1.9564 H   0  0  0  0  0  0  0  0  0  0  0  0
   21.0029   70.0999   -4.2899 H   0  0  0  0  0  0  0  0  0  0  0  0
   24.7126   69.1069   -2.7946 O   0  0  0  0  0  0  0  0  0  0  0  0
   23.6114   67.5436   -1.5526 O   0  0  0  0  0  0  0  0  0  0  0  0
   23.7293   68.6898   -1.9591 C   0  0  0  0  0  0  0  0  0  0  0  0
  1  4  1  0
  1 24  1  0
  1  2  1  1
  1  3  2  0
 25 28  1  0
 25 24  1  0
 25 26  1  1
 25 27  2  0
  6 11  1  0
  6 12  1  0
 29 36  1  0
 29 37  1  0
  9  7  1  1
  7 13  1  0
 10  8  1  1
  8 14  1  0
  4  5  1  0
 36 28  1  6
 33 30  1  6
 30 38  1  0
 34 31  1  1
 31 39  1  0
 35 32  1  1
 32 40  1  0
 41 43  1  0
 15 19  2  0
 42 43  2  0
 16 22  2  0
 12 17  1  6
 17 19  1  0
 17 20  1  0
 18 19  1  0
 18 22  1  0
 18 23  1  0
  9 10  1  0
  9 11  1  0
 10 12  1  0
 11  5  1  6
 33 34  1  0
 33 35  1  0
 34 36  1  0
 35 37  1  0
 37 43  1  6
 20 21  2  0
 21 22  1  0
M  CHG  3   2  -1  26  -1  41  -1
M  END
>  <COMPND>  (76) 
    udp_gluA.pdb 

>  <AUTHOR>  (76) 
    GENERATED BY OPEN BABEL 3.1.1

>  <MASTER>  (76) 
        0    0    0    0    0    0    0    0   56    0   56    0

>  <minimizedAffinity>  (76) 
-8.91244

>  <CNNscore>  (76) 
0.5279658437

>  <CNNaffinity>  (76) 
4.6830716133

>  <CNN_VS>  (76) 
2.4725017548

>  <CNNaffinity_variance>  (76) 
0.0892376527

$$$$
77
     RDKit          3D

 43 45  0  0  0  0  0  0  0  0999 V2000
   22.3322   69.3951   -0.0054 P   0  0  2  0  0  0  0  0  0  0  0  0
   20.8609   69.3491    0.6668 O   0  0  0  0  0  0  0  0  0  0  0  0
   23.0056   68.0617   -0.1480 O   0  0  0  0  0  0  0  0  0  0  0  0
   23.1282   70.4934    0.8767 O   0  0  0  0  0  0  0  0  0  0  0  0
   24.0773   70.0404    1.8246 C   0  0  0  0  0  0  0  0  0  0  0  0
   24.8055   70.5125    4.0661 O   0  0  0  0  0  0  0  0  0  0  0  0
   22.2209   71.9968    4.3944 O   0  0  0  0  0  0  0  0  0  0  0  0
   24.0131   74.0077    3.9698 O   0  0  0  0  0  0  0  0  0  0  0  0
   23.0621   71.8903    3.2457 C   0  0  1  0  0  0  0  0  0  0  0  0
   24.3040   72.7376    3.4251 C   0  0  2  0  0  0  0  0  0  0  0  0
   23.6392   70.4816    3.2151 C   0  0  1  0  0  0  0  0  0  0  0  0
   25.1397   71.8785    4.3586 C   0  0  2  0  0  0  0  0  0  0  0  0
   21.8405   72.8886    4.4354 H   0  0  0  0  0  0  0  0  0  0  0  0
   23.4798   74.5160    3.3380 H   0  0  0  0  0  0  0  0  0  0  0  0
   26.6227   74.0386    5.4127 O   0  0  0  0  0  0  0  0  0  0  0  0
   30.5425   72.4996    3.5390 O   0  0  0  0  0  0  0  0  0  0  0  0
   26.5492   72.0668    4.1617 N   0  0  0  0  0  0  0  0  0  0  0  0
   28.5734   73.2706    4.4777 N   0  0  0  0  0  0  0  0  0  0  0  0
   27.1986   73.1859    4.7344 C   0  0  0  0  0  0  0  0  0  0  0  0
   27.2733   71.1489    3.4106 C   0  0  0  0  0  0  0  0  0  0  0  0
   28.5834   71.2430    3.1747 C   0  0  0  0  0  0  0  0  0  0  0  0
   29.3368   72.3832    3.7364 C   0  0  0  0  0  0  0  0  0  0  0  0
   29.0469   74.0423    4.8643 H   0  0  0  0  0  0  0  0  0  0  0  0
   22.0701   70.1696   -1.3998 O   0  0  0  0  0  0  0  0  0  0  0  0
   20.8686   71.1481   -1.8609 P   0  0  2  0  0  0  0  0  0  0  0  0
   20.9610   72.3707   -0.8040 O   0  0  0  0  0  0  0  0  0  0  0  0
   19.5233   70.4844   -1.9227 O   0  0  0  0  0  0  0  0  0  0  0  0
   21.3685   71.7795   -3.2587 O   0  0  0  0  0  0  0  0  0  0  0  0
   21.8908   73.9552   -4.0348 O   0  0  0  0  0  0  0  0  0  0  0  0
   19.8377   72.3836   -7.2571 O   0  0  0  0  0  0  0  0  0  0  0  0
   18.8988   71.9136   -4.5309 O   0  0  0  0  0  0  0  0  0  0  0  0
   22.7323   72.6349   -7.3531 O   0  0  0  0  0  0  0  0  0  0  0  0
   20.6879   72.3484   -6.1108 C   0  0  2  0  0  0  0  0  0  0  0  0
   19.9168   72.8420   -4.8864 C   0  0  2  0  0  0  0  0  0  0  0  0
   21.8891   73.2562   -6.3849 C   0  0  1  0  0  0  0  0  0  0  0  0
   20.8524   73.0366   -3.6924 C   0  0  1  0  0  0  0  0  0  0  0  0
   22.7016   73.5030   -5.1170 C   0  0  1  0  0  0  0  0  0  0  0  0
   19.0672   71.8138   -7.1059 H   0  0  0  0  0  0  0  0  0  0  0  0
   18.3016   71.7852   -5.2840 H   0  0  0  0  0  0  0  0  0  0  0  0
   22.2271   72.4722   -8.1650 H   0  0  0  0  0  0  0  0  0  0  0  0
   23.9466   75.2276   -4.1285 O   0  0  0  0  0  0  0  0  0  0  0  0
   24.1283   74.9766   -6.3876 O   0  0  0  0  0  0  0  0  0  0  0  0
   23.6602   74.6321   -5.3128 C   0  0  0  0  0  0  0  0  0  0  0  0
  1  4  1  0
  1 24  1  0
  1  2  1  1
  1  3  2  0
 25 28  1  0
 25 24  1  0
 25 26  1  1
 25 27  2  0
  6 11  1  0
  6 12  1  0
 29 36  1  0
 29 37  1  0
  9  7  1  1
  7 13  1  0
 10  8  1  1
  8 14  1  0
  4  5  1  0
 36 28  1  6
 33 30  1  6
 30 38  1  0
 34 31  1  1
 31 39  1  0
 35 32  1  6
 32 40  1  0
 41 43  1  0
 15 19  2  0
 42 43  2  0
 16 22  2  0
 12 17  1  6
 17 19  1  0
 17 20  1  0
 18 19  1  0
 18 22  1  0
 18 23  1  0
  9 10  1  0
  9 11  1  0
 10 12  1  0
 11  5  1  6
 33 34  1  0
 33 35  1  0
 34 36  1  0
 35 37  1  0
 37 43  1  6
 20 21  2  0
 21 22  1  0
M  CHG  3   2  -1  26  -1  41  -1
M  END
>  <COMPND>  (77) 
    udp_gluA.pdb 

>  <AUTHOR>  (77) 
    GENERATED BY OPEN BABEL 3.1.1

>  <MASTER>  (77) 
        0    0    0    0    0    0    0    0   56    0   56    0

>  <minimizedAffinity>  (77) 
-8.17133

>  <CNNscore>  (77) 
0.4864940047

>  <CNNaffinity>  (77) 
4.4541292191

>  <CNN_VS>  (77) 
2.1669070721

>  <CNNaffinity_variance>  (77) 
0.4867101610

$$$$
78
     RDKit          3D

 43 45  0  0  0  0  0  0  0  0999 V2000
   22.2989   72.2569   -2.9852 P   0  0  2  0  0  0  0  0  0  0  0  0
   23.5501   71.6877   -3.8393 O   0  0  0  0  0  0  0  0  0  0  0  0
   21.9699   73.7005   -3.2290 O   0  0  0  0  0  0  0  0  0  0  0  0
   22.6621   71.8673   -1.4574 O   0  0  0  0  0  0  0  0  0  0  0  0
   23.5008   70.7505   -1.2255 C   0  0  0  0  0  0  0  0  0  0  0  0
   23.6717   69.3439    0.7161 O   0  0  0  0  0  0  0  0  0  0  0  0
   20.6736   69.2911    0.7122 O   0  0  0  0  0  0  0  0  0  0  0  0
   21.2349   71.1180    2.6573 O   0  0  0  0  0  0  0  0  0  0  0  0
   21.5590   70.3578    0.3706 C   0  0  1  0  0  0  0  0  0  0  0  0
   22.1785   70.9455    1.6208 C   0  0  2  0  0  0  0  0  0  0  0  0
   22.7688   69.7572   -0.3323 C   0  0  1  0  0  0  0  0  0  0  0  0
   23.2399   69.9136    1.9620 C   0  0  2  0  0  0  0  0  0  0  0  0
   19.8928   69.6503    1.1627 H   0  0  0  0  0  0  0  0  0  0  0  0
   20.5813   71.7846    2.3919 H   0  0  0  0  0  0  0  0  0  0  0  0
   23.3766   70.4035    4.7401 O   0  0  0  0  0  0  0  0  0  0  0  0
   27.6347   72.1365    4.4098 O   0  0  0  0  0  0  0  0  0  0  0  0
   24.3723   70.4919    2.6284 N   0  0  0  0  0  0  0  0  0  0  0  0
   25.4968   71.2671    4.5728 N   0  0  0  0  0  0  0  0  0  0  0  0
   24.3391   70.6962    4.0281 C   0  0  0  0  0  0  0  0  0  0  0  0
   25.4993   70.8484    1.8979 C   0  0  0  0  0  0  0  0  0  0  0  0
   26.5954   71.3916    2.4311 C   0  0  0  0  0  0  0  0  0  0  0  0
   26.6419   71.6389    3.8872 C   0  0  0  0  0  0  0  0  0  0  0  0
   25.4965   71.4208    5.5452 H   0  0  0  0  0  0  0  0  0  0  0  0
   21.1103   71.2243   -3.3509 O   0  0  0  0  0  0  0  0  0  0  0  0
   19.5555   71.1959   -2.9086 P   0  0  2  0  0  0  0  0  0  0  0  0
   19.3639   72.6074   -2.1396 O   0  0  0  0  0  0  0  0  0  0  0  0
   19.1676   69.9928   -2.0987 O   0  0  0  0  0  0  0  0  0  0  0  0
   18.7347   71.3683   -4.2867 O   0  0  0  0  0  0  0  0  0  0  0  0
   19.5633   71.7750   -6.4678 O   0  0  0  0  0  0  0  0  0  0  0  0
   15.8810   73.6432   -6.6053 O   0  0  0  0  0  0  0  0  0  0  0  0
   17.5849   73.9005   -4.2463 O   0  0  0  0  0  0  0  0  0  0  0  0
   16.2652   71.0770   -7.9161 O   0  0  0  0  0  0  0  0  0  0  0  0
   16.8288   72.6600   -6.1893 C   0  0  2  0  0  0  0  0  0  0  0  0
   18.0021   73.3447   -5.4879 C   0  0  2  0  0  0  0  0  0  0  0  0
   17.3145   71.9146   -7.4345 C   0  0  1  0  0  0  0  0  0  0  0  0
   19.1401   72.3553   -5.2334 C   0  0  1  0  0  0  0  0  0  0  0  0
   18.5295   71.0451   -7.1247 C   0  0  1  0  0  0  0  0  0  0  0  0
   15.5584   74.1297   -5.8305 H   0  0  0  0  0  0  0  0  0  0  0  0
   16.8627   74.5291   -4.4003 H   0  0  0  0  0  0  0  0  0  0  0  0
   15.4857   71.6182   -8.1169 H   0  0  0  0  0  0  0  0  0  0  0  0
   20.4610   71.0558   -8.4554 O   0  0  0  0  0  0  0  0  0  0  0  0
   18.6656   69.8879   -9.2375 O   0  0  0  0  0  0  0  0  0  0  0  0
   19.1900   70.5883   -8.3846 C   0  0  0  0  0  0  0  0  0  0  0  0
  1  4  1  0
  1 24  1  0
  1  2  1  6
  1  3  2  0
 25 28  1  0
 25 24  1  0
 25 26  1  1
 25 27  2  0
  6 11  1  0
  6 12  1  0
 29 36  1  0
 29 37  1  0
  9  7  1  1
  7 13  1  0
 10  8  1  1
  8 14  1  0
  4  5  1  0
 36 28  1  1
 33 30  1  6
 30 38  1  0
 34 31  1  1
 31 39  1  0
 35 32  1  1
 32 40  1  0
 41 43  1  0
 15 19  2  0
 42 43  2  0
 16 22  2  0
 12 17  1  6
 17 19  1  0
 17 20  1  0
 18 19  1  0
 18 22  1  0
 18 23  1  0
  9 10  1  0
  9 11  1  0
 10 12  1  0
 11  5  1  6
 33 34  1  0
 33 35  1  0
 34 36  1  0
 35 37  1  0
 37 43  1  6
 20 21  2  0
 21 22  1  0
M  CHG  3   2  -1  26  -1  41  -1
M  END
>  <COMPND>  (78) 
    udp_gluA.pdb 

>  <AUTHOR>  (78) 
    GENERATED BY OPEN BABEL 3.1.1

>  <MASTER>  (78) 
        0    0    0    0    0    0    0    0   56    0   56    0

>  <minimizedAffinity>  (78) 
-8.39326

>  <CNNscore>  (78) 
0.4609113336

>  <CNNaffinity>  (78) 
4.4819788933

>  <CNN_VS>  (78) 
2.0657949448

>  <CNNaffinity_variance>  (78) 
0.0202212539

$$$$
79
     RDKit          3D

 43 45  0  0  0  0  0  0  0  0999 V2000
   22.4136   69.3660    0.2710 P   0  0  2  0  0  0  0  0  0  0  0  0
   20.8538   69.2314    0.6806 O   0  0  0  0  0  0  0  0  0  0  0  0
   23.0622   68.0907   -0.1816 O   0  0  0  0  0  0  0  0  0  0  0  0
   23.0917   70.0824    1.5535 O   0  0  0  0  0  0  0  0  0  0  0  0
   22.6630   71.3850    1.9055 C   0  0  0  0  0  0  0  0  0  0  0  0
   23.7690   70.8725    3.9772 O   0  0  0  0  0  0  0  0  0  0  0  0
   21.9864   72.9360    5.2243 O   0  0  0  0  0  0  0  0  0  0  0  0
   24.3398   74.2815    4.9295 O   0  0  0  0  0  0  0  0  0  0  0  0
   22.5874   72.9249    3.9293 C   0  0  1  0  0  0  0  0  0  0  0  0
   24.0681   73.2221    4.0360 C   0  0  2  0  0  0  0  0  0  0  0  0
   22.5863   71.4888    3.4233 C   0  0  1  0  0  0  0  0  0  0  0  0
   24.6226   71.8928    4.5192 C   0  0  2  0  0  0  0  0  0  0  0  0
   21.9757   73.8434    5.5684 H   0  0  0  0  0  0  0  0  0  0  0  0
   23.9669   75.1054    4.5771 H   0  0  0  0  0  0  0  0  0  0  0  0
   26.9260   72.9101    5.7983 O   0  0  0  0  0  0  0  0  0  0  0  0
   29.7297   70.9517    2.7083 O   0  0  0  0  0  0  0  0  0  0  0  0
   25.9668   71.6641    4.0702 N   0  0  0  0  0  0  0  0  0  0  0  0
   28.3201   71.9345    4.2575 N   0  0  0  0  0  0  0  0  0  0  0  0
   27.0539   72.2207    4.7847 C   0  0  0  0  0  0  0  0  0  0  0  0
   26.1979   70.8953    2.9360 C   0  0  0  0  0  0  0  0  0  0  0  0
   27.4105   70.6312    2.4456 C   0  0  0  0  0  0  0  0  0  0  0  0
   28.6000   71.1759    3.1325 C   0  0  0  0  0  0  0  0  0  0  0  0
   29.0925   72.3129    4.7367 H   0  0  0  0  0  0  0  0  0  0  0  0
   22.3977   70.5432   -0.8366 O   0  0  0  0  0  0  0  0  0  0  0  0
   22.3319   70.4810   -2.4507 P   0  0  2  0  0  0  0  0  0  0  0  0
   23.0387   69.0662   -2.7955 O   0  0  0  0  0  0  0  0  0  0  0  0
   22.9491   71.6644   -3.1382 O   0  0  0  0  0  0  0  0  0  0  0  0
   20.7714   70.2495   -2.7882 O   0  0  0  0  0  0  0  0  0  0  0  0
   19.3177   71.4780   -4.1977 O   0  0  0  0  0  0  0  0  0  0  0  0
   16.7300   70.1734   -1.2533 O   0  0  0  0  0  0  0  0  0  0  0  0
   19.3879   71.1650   -0.5558 O   0  0  0  0  0  0  0  0  0  0  0  0
   16.7246   68.9033   -3.8682 O   0  0  0  0  0  0  0  0  0  0  0  0
   17.8649   70.1013   -2.1163 C   0  0  2  0  0  0  0  0  0  0  0  0
   18.7921   71.2857   -1.8423 C   0  0  2  0  0  0  0  0  0  0  0  0
   17.3634   70.1411   -3.5615 C   0  0  1  0  0  0  0  0  0  0  0  0
   19.8967   71.3710   -2.8966 C   0  0  1  0  0  0  0  0  0  0  0  0
   18.5115   70.3541   -4.5439 C   0  0  1  0  0  0  0  0  0  0  0  0
   17.0242   70.1497   -0.3291 H   0  0  0  0  0  0  0  0  0  0  0  0
   18.6927   71.1101    0.1181 H   0  0  0  0  0  0  0  0  0  0  0  0
   15.9919   68.7556   -3.2500 H   0  0  0  0  0  0  0  0  0  0  0  0
   16.6491   70.9055   -5.8588 O   0  0  0  0  0  0  0  0  0  0  0  0
   18.6751   70.8353   -6.9025 O   0  0  0  0  0  0  0  0  0  0  0  0
   17.9916   70.7181   -5.8965 C   0  0  0  0  0  0  0  0  0  0  0  0
  1  4  1  0
  1 24  1  0
  1  2  1  1
  1  3  2  0
 25 28  1  0
 25 24  1  0
 25 26  1  6
 25 27  2  0
  6 11  1  0
  6 12  1  0
 29 36  1  0
 29 37  1  0
  9  7  1  1
  7 13  1  0
 10  8  1  1
  8 14  1  0
  4  5  1  0
 36 28  1  6
 33 30  1  1
 30 38  1  0
 34 31  1  1
 31 39  1  0
 35 32  1  6
 32 40  1  0
 41 43  1  0
 15 19  2  0
 42 43  2  0
 16 22  2  0
 12 17  1  6
 17 19  1  0
 17 20  1  0
 18 19  1  0
 18 22  1  0
 18 23  1  0
  9 10  1  0
  9 11  1  0
 10 12  1  0
 11  5  1  6
 33 34  1  0
 33 35  1  0
 34 36  1  0
 35 37  1  0
 37 43  1  6
 20 21  2  0
 21 22  1  0
M  CHG  3   2  -1  26  -1  41  -1
M  END
>  <COMPND>  (79) 
    udp_gluA.pdb 

>  <AUTHOR>  (79) 
    GENERATED BY OPEN BABEL 3.1.1

>  <MASTER>  (79) 
        0    0    0    0    0    0    0    0   56    0   56    0

>  <minimizedAffinity>  (79) 
-8.54457

>  <CNNscore>  (79) 
0.4514949620

>  <CNNaffinity>  (79) 
4.4050593376

>  <CNN_VS>  (79) 
1.9888621569

>  <CNNaffinity_variance>  (79) 
0.1980333030

$$$$
80
     RDKit          3D

 43 45  0  0  0  0  0  0  0  0999 V2000
   22.3265   69.3746   -0.2479 P   0  0  2  0  0  0  0  0  0  0  0  0
   21.0983   69.1021    0.7700 O   0  0  0  0  0  0  0  0  0  0  0  0
   23.1044   68.1538   -0.6433 O   0  0  0  0  0  0  0  0  0  0  0  0
   23.1770   70.5463    0.4743 O   0  0  0  0  0  0  0  0  0  0  0  0
   24.3496   70.1914    1.1839 C   0  0  0  0  0  0  0  0  0  0  0  0
   25.2773   70.0221    3.3949 O   0  0  0  0  0  0  0  0  0  0  0  0
   22.6495   71.0811    4.3771 O   0  0  0  0  0  0  0  0  0  0  0  0
   24.2506   73.2869    4.4634 O   0  0  0  0  0  0  0  0  0  0  0  0
   23.3702   71.4120    3.1898 C   0  0  1  0  0  0  0  0  0  0  0  0
   24.5655   72.2781    3.5264 C   0  0  2  0  0  0  0  0  0  0  0  0
   24.0324   70.1421    2.6730 C   0  0  1  0  0  0  0  0  0  0  0  0
   25.5498   71.2585    4.0735 C   0  0  2  0  0  0  0  0  0  0  0  0
   22.2177   71.8770    4.7260 H   0  0  0  0  0  0  0  0  0  0  0  0
   23.6214   73.9108    4.0675 H   0  0  0  0  0  0  0  0  0  0  0  0
   26.9484   73.2215    5.5455 O   0  0  0  0  0  0  0  0  0  0  0  0
   30.7855   72.6080    3.0667 O   0  0  0  0  0  0  0  0  0  0  0  0
   26.9152   71.6315    3.8340 N   0  0  0  0  0  0  0  0  0  0  0  0
   28.8579   72.9148    4.3089 N   0  0  0  0  0  0  0  0  0  0  0  0
   27.5243   72.6299    4.6305 C   0  0  0  0  0  0  0  0  0  0  0  0
   27.6365   71.0105    2.8216 C   0  0  0  0  0  0  0  0  0  0  0  0
   28.9070   71.2927    2.5269 C   0  0  0  0  0  0  0  0  0  0  0  0
   29.6167   72.3246    3.3111 C   0  0  0  0  0  0  0  0  0  0  0  0
   29.3026   73.6079    4.8484 H   0  0  0  0  0  0  0  0  0  0  0  0
   21.6148   70.1468   -1.4768 O   0  0  0  0  0  0  0  0  0  0  0  0
   20.5097   71.3267   -1.4916 P   0  0  2  0  0  0  0  0  0  0  0  0
   21.3907   72.6551   -1.7732 O   0  0  0  0  0  0  0  0  0  0  0  0
   19.6659   71.3956   -0.2517 O   0  0  0  0  0  0  0  0  0  0  0  0
   19.6791   71.0924   -2.8545 O   0  0  0  0  0  0  0  0  0  0  0  0
   19.4063   72.1108   -4.9753 O   0  0  0  0  0  0  0  0  0  0  0  0
   15.4862   71.4658   -3.8419 O   0  0  0  0  0  0  0  0  0  0  0  0
   17.4434   72.4507   -1.9097 O   0  0  0  0  0  0  0  0  0  0  0  0
   16.7309   69.7505   -5.8317 O   0  0  0  0  0  0  0  0  0  0  0  0
   16.8857   71.1919   -3.9073 C   0  0  2  0  0  0  0  0  0  0  0  0
   17.6651   72.3651   -3.3126 C   0  0  2  0  0  0  0  0  0  0  0  0
   17.2608   70.9945   -5.3778 C   0  0  1  0  0  0  0  0  0  0  0  0
   19.1646   72.2132   -3.5715 C   0  0  1  0  0  0  0  0  0  0  0  0
   18.7746   70.9790   -5.5693 C   0  0  1  0  0  0  0  0  0  0  0  0
   15.2246   71.5949   -2.9166 H   0  0  0  0  0  0  0  0  0  0  0  0
   16.4938   72.5470   -1.7381 H   0  0  0  0  0  0  0  0  0  0  0  0
   15.7680   69.7473   -5.7151 H   0  0  0  0  0  0  0  0  0  0  0  0
   20.3612   71.6636   -7.1554 O   0  0  0  0  0  0  0  0  0  0  0  0
   18.4115   70.7851   -7.9467 O   0  0  0  0  0  0  0  0  0  0  0  0
   19.1279   71.1176   -7.0144 C   0  0  0  0  0  0  0  0  0  0  0  0
  1  4  1  0
  1 24  1  0
  1  2  1  1
  1  3  2  0
 25 28  1  0
 25 24  1  0
 25 26  1  6
 25 27  2  0
  6 11  1  0
  6 12  1  0
 29 36  1  0
 29 37  1  0
  9  7  1  1
  7 13  1  0
 10  8  1  1
  8 14  1  0
  4  5  1  0
 36 28  1  1
 33 30  1  6
 30 38  1  0
 34 31  1  1
 31 39  1  0
 35 32  1  1
 32 40  1  0
 41 43  1  0
 15 19  2  0
 42 43  2  0
 16 22  2  0
 12 17  1  6
 17 19  1  0
 17 20  1  0
 18 19  1  0
 18 22  1  0
 18 23  1  0
  9 10  1  0
  9 11  1  0
 10 12  1  0
 11  5  1  6
 33 34  1  0
 33 35  1  0
 34 36  1  0
 35 37  1  0
 37 43  1  6
 20 21  2  0
 21 22  1  0
M  CHG  3   2  -1  26  -1  41  -1
M  END
>  <COMPND>  (80) 
    udp_gluA.pdb 

>  <AUTHOR>  (80) 
    GENERATED BY OPEN BABEL 3.1.1

>  <MASTER>  (80) 
        0    0    0    0    0    0    0    0   56    0   56    0

>  <minimizedAffinity>  (80) 
-8.16636

>  <CNNscore>  (80) 
0.4317336679

>  <CNNaffinity>  (80) 
4.5094976425

>  <CNN_VS>  (80) 
1.9469019175

>  <CNNaffinity_variance>  (80) 
0.0623170137

$$$$
81
     RDKit          3D

 43 45  0  0  0  0  0  0  0  0999 V2000
   22.6717   73.0680   -3.5359 P   0  0  2  0  0  0  0  0  0  0  0  0
   22.5183   74.6537   -3.8207 O   0  0  0  0  0  0  0  0  0  0  0  0
   23.7627   72.3879   -4.3098 O   0  0  0  0  0  0  0  0  0  0  0  0
   21.1796   72.4859   -3.7654 O   0  0  0  0  0  0  0  0  0  0  0  0
   20.6927   71.5021   -2.8713 C   0  0  0  0  0  0  0  0  0  0  0  0
   18.6401   72.1589   -3.9359 O   0  0  0  0  0  0  0  0  0  0  0  0
   17.2409   70.7647   -1.6798 O   0  0  0  0  0  0  0  0  0  0  0  0
   17.0722   68.9431   -3.7021 O   0  0  0  0  0  0  0  0  0  0  0  0
   18.4542   70.4135   -2.3454 C   0  0  1  0  0  0  0  0  0  0  0  0
   18.1547   69.8501   -3.7184 C   0  0  2  0  0  0  0  0  0  0  0  0
   19.1941   71.7005   -2.6836 C   0  0  1  0  0  0  0  0  0  0  0  0
   17.8523   71.1072   -4.5160 C   0  0  2  0  0  0  0  0  0  0  0  0
   16.7506   69.9584   -1.4537 H   0  0  0  0  0  0  0  0  0  0  0  0
   17.3144   68.1600   -3.1824 H   0  0  0  0  0  0  0  0  0  0  0  0
   16.1380   70.0496   -6.4957 O   0  0  0  0  0  0  0  0  0  0  0  0
   19.2929   70.6418   -9.8033 O   0  0  0  0  0  0  0  0  0  0  0  0
   18.2003   70.9735   -5.9024 N   0  0  0  0  0  0  0  0  0  0  0  0
   17.7113   70.3446   -8.1410 N   0  0  0  0  0  0  0  0  0  0  0  0
   17.2661   70.4294   -6.8153 C   0  0  0  0  0  0  0  0  0  0  0  0
   19.4529   71.3803   -6.3454 C   0  0  0  0  0  0  0  0  0  0  0  0
   19.8629   71.2933   -7.6123 C   0  0  0  0  0  0  0  0  0  0  0  0
   18.9477   70.7354   -8.6293 C   0  0  0  0  0  0  0  0  0  0  0  0
   17.0792   69.9671   -8.7946 H   0  0  0  0  0  0  0  0  0  0  0  0
   22.8441   73.0028   -1.9300 O   0  0  0  0  0  0  0  0  0  0  0  0
   22.7519   74.1599   -0.8047 P   0  0  2  0  0  0  0  0  0  0  0  0
   21.1677   74.4856   -0.7382 O   0  0  0  0  0  0  0  0  0  0  0  0
   23.6181   75.3552   -1.0781 O   0  0  0  0  0  0  0  0  0  0  0  0
   23.0712   73.4056    0.5851 O   0  0  0  0  0  0  0  0  0  0  0  0
   21.6500   71.5289    0.8451 O   0  0  0  0  0  0  0  0  0  0  0  0
   23.7222   71.5158    4.4192 O   0  0  0  0  0  0  0  0  0  0  0  0
   22.7538   74.0247    3.2781 O   0  0  0  0  0  0  0  0  0  0  0  0
   24.3823   69.5914    2.3426 O   0  0  0  0  0  0  0  0  0  0  0  0
   23.5351   71.7421    3.0221 C   0  0  2  0  0  0  0  0  0  0  0  0
   22.3878   72.7307    2.8130 C   0  0  2  0  0  0  0  0  0  0  0  0
   23.2071   70.3994    2.3653 C   0  0  1  0  0  0  0  0  0  0  0  0
   22.0070   72.8222    1.3346 C   0  0  1  0  0  0  0  0  0  0  0  0
   22.7154   70.5854    0.9327 C   0  0  1  0  0  0  0  0  0  0  0  0
   23.9317   72.3555    4.8577 H   0  0  0  0  0  0  0  0  0  0  0  0
   22.9970   73.9741    4.2154 H   0  0  0  0  0  0  0  0  0  0  0  0
   24.7056   69.4655    3.2484 H   0  0  0  0  0  0  0  0  0  0  0  0
   20.7415   69.4350    0.4015 O   0  0  0  0  0  0  0  0  0  0  0  0
   22.7101   68.3370    0.0573 O   0  0  0  0  0  0  0  0  0  0  0  0
   22.0933   69.3282    0.4180 C   0  0  0  0  0  0  0  0  0  0  0  0
  1  4  1  0
  1 24  1  0
  1  2  1  6
  1  3  2  0
 25 28  1  0
 25 24  1  0
 25 26  1  1
 25 27  2  0
  6 11  1  0
  6 12  1  0
 29 36  1  0
 29 37  1  0
  9  7  1  6
  7 13  1  0
 10  8  1  1
  8 14  1  0
  4  5  1  0
 36 28  1  6
 33 30  1  1
 30 38  1  0
 34 31  1  6
 31 39  1  0
 35 32  1  6
 32 40  1  0
 41 43  1  0
 15 19  2  0
 42 43  2  0
 16 22  2  0
 12 17  1  6
 17 19  1  0
 17 20  1  0
 18 19  1  0
 18 22  1  0
 18 23  1  0
  9 10  1  0
  9 11  1  0
 10 12  1  0
 11  5  1  6
 33 34  1  0
 33 35  1  0
 34 36  1  0
 35 37  1  0
 37 43  1  1
 20 21  2  0
 21 22  1  0
M  CHG  3   2  -1  26  -1  41  -1
M  END
>  <COMPND>  (81) 
    udp_gluA.pdb 

>  <AUTHOR>  (81) 
    GENERATED BY OPEN BABEL 3.1.1

>  <MASTER>  (81) 
        0    0    0    0    0    0    0    0   56    0   56    0

>  <minimizedAffinity>  (81) 
-8.43145

>  <CNNscore>  (81) 
0.8529945016

>  <CNNaffinity>  (81) 
4.8987007141

>  <CNN_VS>  (81) 
4.1785645485

>  <CNNaffinity_variance>  (81) 
0.0648390427

$$$$
82
     RDKit          3D

 43 45  0  0  0  0  0  0  0  0999 V2000
   22.4144   71.1780   -2.3469 P   0  0  2  0  0  0  0  0  0  0  0  0
   23.2537   72.4878   -2.7931 O   0  0  0  0  0  0  0  0  0  0  0  0
   22.9680   69.8729   -2.8388 O   0  0  0  0  0  0  0  0  0  0  0  0
   20.8985   71.5143   -2.8017 O   0  0  0  0  0  0  0  0  0  0  0  0
   19.9494   70.4639   -2.8203 C   0  0  0  0  0  0  0  0  0  0  0  0
   18.3806   71.7664   -4.0931 O   0  0  0  0  0  0  0  0  0  0  0  0
   16.2652   70.6331   -2.2953 O   0  0  0  0  0  0  0  0  0  0  0  0
   16.0060   69.1191   -4.5485 O   0  0  0  0  0  0  0  0  0  0  0  0
   17.4458   70.0124   -2.8046 C   0  0  1  0  0  0  0  0  0  0  0  0
   17.2722   69.6800   -4.2714 C   0  0  2  0  0  0  0  0  0  0  0  0
   18.5485   71.0615   -2.8440 C   0  0  1  0  0  0  0  0  0  0  0  0
   17.4672   71.0363   -4.9274 C   0  0  2  0  0  0  0  0  0  0  0  0
   15.5463   69.9821   -2.2608 H   0  0  0  0  0  0  0  0  0  0  0  0
   15.9311   68.2570   -4.1091 H   0  0  0  0  0  0  0  0  0  0  0  0
   15.9508   70.5557   -7.2611 O   0  0  0  0  0  0  0  0  0  0  0  0
   19.7013   70.6552   -9.9385 O   0  0  0  0  0  0  0  0  0  0  0  0
   18.0219   70.9319   -6.2473 N   0  0  0  0  0  0  0  0  0  0  0  0
   17.8203   70.6047   -8.5922 N   0  0  0  0  0  0  0  0  0  0  0  0
   17.1727   70.6886   -7.3526 C   0  0  0  0  0  0  0  0  0  0  0  0
   19.3913   71.0717   -6.4372 C   0  0  0  0  0  0  0  0  0  0  0  0
   19.9941   70.9893   -7.6249 C   0  0  0  0  0  0  0  0  0  0  0  0
   19.1788   70.7362   -8.8309 C   0  0  0  0  0  0  0  0  0  0  0  0
   17.2501   70.4338   -9.3764 H   0  0  0  0  0  0  0  0  0  0  0  0
   22.3508   71.3187   -0.7378 O   0  0  0  0  0  0  0  0  0  0  0  0
   22.0994   70.2136    0.4151 P   0  0  2  0  0  0  0  0  0  0  0  0
   23.4277   69.2916    0.3397 O   0  0  0  0  0  0  0  0  0  0  0  0
   20.8115   69.4557    0.2713 O   0  0  0  0  0  0  0  0  0  0  0  0
   22.2464   71.0269    1.8006 O   0  0  0  0  0  0  0  0  0  0  0  0
   22.6239   73.3585    1.9747 O   0  0  0  0  0  0  0  0  0  0  0  0
   24.1587   71.9885    5.5574 O   0  0  0  0  0  0  0  0  0  0  0  0
   24.6691   70.5349    3.0752 O   0  0  0  0  0  0  0  0  0  0  0  0
   21.5785   73.3261    5.4916 O   0  0  0  0  0  0  0  0  0  0  0  0
   23.2809   71.9908    4.4315 C   0  0  2  0  0  0  0  0  0  0  0  0
   24.0956   71.8351    3.1471 C   0  0  2  0  0  0  0  0  0  0  0  0
   22.5247   73.3212    4.4242 C   0  0  1  0  0  0  0  0  0  0  0  0
   23.2208   72.0626    1.9135 C   0  0  1  0  0  0  0  0  0  0  0  0
   21.7783   73.5305    3.1098 C   0  0  1  0  0  0  0  0  0  0  0  0
   24.6502   71.1524    5.5827 H   0  0  0  0  0  0  0  0  0  0  0  0
   25.2252   70.3837    3.8551 H   0  0  0  0  0  0  0  0  0  0  0  0
   22.0407   73.1937    6.3340 H   0  0  0  0  0  0  0  0  0  0  0  0
   20.1585   75.1405    3.6443 O   0  0  0  0  0  0  0  0  0  0  0  0
   21.9151   75.8193    2.3588 O   0  0  0  0  0  0  0  0  0  0  0  0
   21.3236   74.9475    2.9778 C   0  0  0  0  0  0  0  0  0  0  0  0
  1  4  1  0
  1 24  1  0
  1  2  1  6
  1  3  2  0
 25 28  1  0
 25 24  1  0
 25 26  1  1
 25 27  2  0
  6 11  1  0
  6 12  1  0
 29 36  1  0
 29 37  1  0
  9  7  1  6
  7 13  1  0
 10  8  1  1
  8 14  1  0
  4  5  1  0
 36 28  1  1
 33 30  1  1
 30 38  1  0
 34 31  1  6
 31 39  1  0
 35 32  1  1
 32 40  1  0
 41 43  1  0
 15 19  2  0
 42 43  2  0
 16 22  2  0
 12 17  1  6
 17 19  1  0
 17 20  1  0
 18 19  1  0
 18 22  1  0
 18 23  1  0
  9 10  1  0
  9 11  1  0
 10 12  1  0
 11  5  1  6
 33 34  1  0
 33 35  1  0
 34 36  1  0
 35 37  1  0
 37 43  1  1
 20 21  2  0
 21 22  1  0
M  CHG  3   2  -1  26  -1  41  -1
M  END
>  <COMPND>  (82) 
    udp_gluA.pdb 

>  <AUTHOR>  (82) 
    GENERATED BY OPEN BABEL 3.1.1

>  <MASTER>  (82) 
        0    0    0    0    0    0    0    0   56    0   56    0

>  <minimizedAffinity>  (82) 
-7.74664

>  <CNNscore>  (82) 
0.7973245382

>  <CNNaffinity>  (82) 
4.8622007370

>  <CNN_VS>  (82) 
3.8767518997

>  <CNNaffinity_variance>  (82) 
0.0724168420

$$$$
83
     RDKit          3D

 43 45  0  0  0  0  0  0  0  0999 V2000
   21.5722   73.1368   -1.0865 P   0  0  2  0  0  0  0  0  0  0  0  0
   21.1443   73.9883    0.2215 O   0  0  0  0  0  0  0  0  0  0  0  0
   22.9070   73.4984   -1.6690 O   0  0  0  0  0  0  0  0  0  0  0  0
   20.3061   73.2914   -2.0820 O   0  0  0  0  0  0  0  0  0  0  0  0
   19.9990   72.2211   -2.9565 C   0  0  0  0  0  0  0  0  0  0  0  0
   17.8986   72.0789   -4.1165 O   0  0  0  0  0  0  0  0  0  0  0  0
   16.9744   70.3505   -1.8471 O   0  0  0  0  0  0  0  0  0  0  0  0
   17.5507   68.5255   -3.7897 O   0  0  0  0  0  0  0  0  0  0  0  0
   18.2635   70.4295   -2.4560 C   0  0  1  0  0  0  0  0  0  0  0  0
   18.2452   69.7550   -3.8113 C   0  0  2  0  0  0  0  0  0  0  0  0
   18.5192   71.8838   -2.8273 C   0  0  1  0  0  0  0  0  0  0  0  0
   17.5582   70.7996   -4.6742 C   0  0  2  0  0  0  0  0  0  0  0  0
   16.7886   69.4303   -1.6011 H   0  0  0  0  0  0  0  0  0  0  0  0
   18.0279   67.8945   -3.2275 H   0  0  0  0  0  0  0  0  0  0  0  0
   15.9130   70.0722   -6.8515 O   0  0  0  0  0  0  0  0  0  0  0  0
   19.3412   70.6631   -9.8752 O   0  0  0  0  0  0  0  0  0  0  0  0
   17.9951   70.7549   -6.0410 N   0  0  0  0  0  0  0  0  0  0  0  0
   17.6223   70.3662   -8.3553 N   0  0  0  0  0  0  0  0  0  0  0  0
   17.0891   70.3762   -7.0596 C   0  0  0  0  0  0  0  0  0  0  0  0
   19.3064   71.0853   -6.3610 C   0  0  0  0  0  0  0  0  0  0  0  0
   19.8000   71.0712   -7.6008 C   0  0  0  0  0  0  0  0  0  0  0  0
   18.9193   70.6860   -8.7229 C   0  0  0  0  0  0  0  0  0  0  0  0
   17.0110   70.1038   -9.0811 H   0  0  0  0  0  0  0  0  0  0  0  0
   21.4510   71.6069   -0.5792 O   0  0  0  0  0  0  0  0  0  0  0  0
   20.7817   70.9799    0.7522 P   0  0  2  0  0  0  0  0  0  0  0  0
   20.7932   69.3883    0.4575 O   0  0  0  0  0  0  0  0  0  0  0  0
   19.4275   71.5380    1.0820 O   0  0  0  0  0  0  0  0  0  0  0  0
   21.8907   71.1886    1.9049 O   0  0  0  0  0  0  0  0  0  0  0  0
   23.8616   72.4802    2.1426 O   0  0  0  0  0  0  0  0  0  0  0  0
   25.0078   68.8815    3.8169 O   0  0  0  0  0  0  0  0  0  0  0  0
   23.4276   68.9353    1.3604 O   0  0  0  0  0  0  0  0  0  0  0  0
   24.3949   71.1547    5.5221 O   0  0  0  0  0  0  0  0  0  0  0  0
   24.0997   69.9269    3.4702 C   0  0  2  0  0  0  0  0  0  0  0  0
   24.0451   70.0739    1.9494 C   0  0  2  0  0  0  0  0  0  0  0  0
   24.6019   71.2220    4.1125 C   0  0  1  0  0  0  0  0  0  0  0  0
   23.2650   71.3267    1.5485 C   0  0  1  0  0  0  0  0  0  0  0  0
   23.8589   72.4385    3.5679 C   0  0  1  0  0  0  0  0  0  0  0  0
   24.7090   68.0483    3.4196 H   0  0  0  0  0  0  0  0  0  0  0  0
   23.9173   68.1367    1.6109 H   0  0  0  0  0  0  0  0  0  0  0  0
   24.8626   70.3845    5.8812 H   0  0  0  0  0  0  0  0  0  0  0  0
   24.0326   74.7599    3.2806 O   0  0  0  0  0  0  0  0  0  0  0  0
   25.4899   73.7799    4.7349 O   0  0  0  0  0  0  0  0  0  0  0  0
   24.5636   73.7017    3.9418 C   0  0  0  0  0  0  0  0  0  0  0  0
  1  4  1  0
  1 24  1  0
  1  2  1  1
  1  3  2  0
 25 28  1  0
 25 24  1  0
 25 26  1  6
 25 27  2  0
  6 11  1  0
  6 12  1  0
 29 36  1  0
 29 37  1  0
  9  7  1  6
  7 13  1  0
 10  8  1  1
  8 14  1  0
  4  5  1  0
 36 28  1  1
 33 30  1  6
 30 38  1  0
 34 31  1  6
 31 39  1  0
 35 32  1  1
 32 40  1  0
 41 43  1  0
 15 19  2  0
 42 43  2  0
 16 22  2  0
 12 17  1  6
 17 19  1  0
 17 20  1  0
 18 19  1  0
 18 22  1  0
 18 23  1  0
  9 10  1  0
  9 11  1  0
 10 12  1  0
 11  5  1  6
 33 34  1  0
 33 35  1  0
 34 36  1  0
 35 37  1  0
 37 43  1  1
 20 21  2  0
 21 22  1  0
M  CHG  3   2  -1  26  -1  41  -1
M  END
>  <COMPND>  (83) 
    udp_gluA.pdb 

>  <AUTHOR>  (83) 
    GENERATED BY OPEN BABEL 3.1.1

>  <MASTER>  (83) 
        0    0    0    0    0    0    0    0   56    0   56    0

>  <minimizedAffinity>  (83) 
-8.58316

>  <CNNscore>  (83) 
0.7417677641

>  <CNNaffinity>  (83) 
4.9244842529

>  <CNN_VS>  (83) 
3.6528236866

>  <CNNaffinity_variance>  (83) 
0.0795661807

$$$$
84
     RDKit          3D

 43 45  0  0  0  0  0  0  0  0999 V2000
   23.9735   70.1991    2.8642 P   0  0  2  0  0  0  0  0  0  0  0  0
   23.2885   70.9535    4.1214 O   0  0  0  0  0  0  0  0  0  0  0  0
   24.2406   68.7371    3.0715 O   0  0  0  0  0  0  0  0  0  0  0  0
   25.2678   71.1084    2.5238 O   0  0  0  0  0  0  0  0  0  0  0  0
   26.5353   70.6812    2.9880 C   0  0  0  0  0  0  0  0  0  0  0  0
   28.5416   71.4506    4.0653 O   0  0  0  0  0  0  0  0  0  0  0  0
   27.2673   74.1648    4.0865 O   0  0  0  0  0  0  0  0  0  0  0  0
   28.9864   74.3301    1.9762 O   0  0  0  0  0  0  0  0  0  0  0  0
   27.1889   73.1375    3.0981 C   0  0  1  0  0  0  0  0  0  0  0  0
   28.4870   73.0555    2.3232 C   0  0  2  0  0  0  0  0  0  0  0  0
   27.1615   71.7954    3.8167 C   0  0  1  0  0  0  0  0  0  0  0  0
   29.3902   72.3191    3.2979 C   0  0  2  0  0  0  0  0  0  0  0  0
   27.2861   75.0319    3.6512 H   0  0  0  0  0  0  0  0  0  0  0  0
   28.3765   74.7579    1.3542 H   0  0  0  0  0  0  0  0  0  0  0  0
   32.0910   72.1470    4.1057 O   0  0  0  0  0  0  0  0  0  0  0  0
   33.1253   69.2572    0.6672 O   0  0  0  0  0  0  0  0  0  0  0  0
   30.3867   71.5291    2.6319 N   0  0  0  0  0  0  0  0  0  0  0  0
   32.6038   70.7087    2.3917 N   0  0  0  0  0  0  0  0  0  0  0  0
   31.7152   71.5120    3.1185 C   0  0  0  0  0  0  0  0  0  0  0  0
   30.0444   70.7815    1.5116 C   0  0  0  0  0  0  0  0  0  0  0  0
   30.9025   70.0204    0.8295 C   0  0  0  0  0  0  0  0  0  0  0  0
   32.3105   69.9479    1.2716 C   0  0  0  0  0  0  0  0  0  0  0  0
   33.5350   70.6824    2.7103 H   0  0  0  0  0  0  0  0  0  0  0  0
   22.9643   70.5332    1.6466 O   0  0  0  0  0  0  0  0  0  0  0  0
   22.4656   69.6289    0.4027 P   0  0  2  0  0  0  0  0  0  0  0  0
   20.9116   69.3421    0.7535 O   0  0  0  0  0  0  0  0  0  0  0  0
   23.2858   68.3927    0.1723 O   0  0  0  0  0  0  0  0  0  0  0  0
   22.4196   70.6449   -0.8495 O   0  0  0  0  0  0  0  0  0  0  0  0
   20.5927   70.7245   -2.3545 O   0  0  0  0  0  0  0  0  0  0  0  0
   23.6080   72.4359   -4.6012 O   0  0  0  0  0  0  0  0  0  0  0  0
   24.1398   70.0781   -2.9604 O   0  0  0  0  0  0  0  0  0  0  0  0
   21.5408   74.1048   -3.4211 O   0  0  0  0  0  0  0  0  0  0  0  0
   22.8958   72.1126   -3.4069 C   0  0  2  0  0  0  0  0  0  0  0  0
   22.8430   70.5940   -3.2378 C   0  0  2  0  0  0  0  0  0  0  0  0
   21.4815   72.6838   -3.5304 C   0  0  1  0  0  0  0  0  0  0  0  0
   21.8977   70.2026   -2.1011 C   0  0  1  0  0  0  0  0  0  0  0  0
   20.5665   72.1480   -2.4330 C   0  0  1  0  0  0  0  0  0  0  0  0
   24.5100   72.0828   -4.5456 H   0  0  0  0  0  0  0  0  0  0  0  0
   24.7449   70.3229   -3.6774 H   0  0  0  0  0  0  0  0  0  0  0  0
   22.1203   74.4584   -4.1139 H   0  0  0  0  0  0  0  0  0  0  0  0
   18.9564   72.5798   -4.0831 O   0  0  0  0  0  0  0  0  0  0  0  0
   18.2421   72.5395   -1.9181 O   0  0  0  0  0  0  0  0  0  0  0  0
   19.1351   72.4404   -2.7461 C   0  0  0  0  0  0  0  0  0  0  0  0
  1  4  1  0
  1 24  1  0
  1  2  1  1
  1  3  2  0
 25 28  1  0
 25 24  1  0
 25 26  1  1
 25 27  2  0
  6 11  1  0
  6 12  1  0
 29 36  1  0
 29 37  1  0
  9  7  1  1
  7 13  1  0
 10  8  1  1
  8 14  1  0
  4  5  1  0
 36 28  1  1
 33 30  1  6
 30 38  1  0
 34 31  1  1
 31 39  1  0
 35 32  1  1
 32 40  1  0
 41 43  1  0
 15 19  2  0
 42 43  2  0
 16 22  2  0
 12 17  1  6
 17 19  1  0
 17 20  1  0
 18 19  1  0
 18 22  1  0
 18 23  1  0
  9 10  1  0
  9 11  1  0
 10 12  1  0
 11  5  1  6
 33 34  1  0
 33 35  1  0
 34 36  1  0
 35 37  1  0
 37 43  1  6
 20 21  2  0
 21 22  1  0
M  CHG  3   2  -1  26  -1  41  -1
M  END
>  <COMPND>  (84) 
    udp_gluA.pdb 

>  <AUTHOR>  (84) 
    GENERATED BY OPEN BABEL 3.1.1

>  <MASTER>  (84) 
        0    0    0    0    0    0    0    0   56    0   56    0

>  <minimizedAffinity>  (84) 
-9.17350

>  <CNNscore>  (84) 
0.7257627249

>  <CNNaffinity>  (84) 
4.8145351410

>  <CNN_VS>  (84) 
3.4942102432

>  <CNNaffinity_variance>  (84) 
0.1139547601

$$$$
85
     RDKit          3D

 43 45  0  0  0  0  0  0  0  0999 V2000
   20.9013   70.3116    0.1155 P   0  0  2  0  0  0  0  0  0  0  0  0
   19.3361   70.7213    0.0834 O   0  0  0  0  0  0  0  0  0  0  0  0
   21.1971   68.9895    0.7607 O   0  0  0  0  0  0  0  0  0  0  0  0
   21.6255   71.5961    0.7815 O   0  0  0  0  0  0  0  0  0  0  0  0
   22.8775   71.4126    1.4167 C   0  0  0  0  0  0  0  0  0  0  0  0
   23.8197   70.7420    3.5239 O   0  0  0  0  0  0  0  0  0  0  0  0
   21.8641   72.6311    4.7881 O   0  0  0  0  0  0  0  0  0  0  0  0
   24.1844   74.0631    4.8244 O   0  0  0  0  0  0  0  0  0  0  0  0
   22.5737   72.7563    3.5556 C   0  0  1  0  0  0  0  0  0  0  0  0
   24.0283   73.0836    3.8191 C   0  0  2  0  0  0  0  0  0  0  0  0
   22.6675   71.3736    2.9250 C   0  0  1  0  0  0  0  0  0  0  0  0
   24.5866   71.7313    4.2285 C   0  0  2  0  0  0  0  0  0  0  0  0
   21.7915   73.5021    5.2097 H   0  0  0  0  0  0  0  0  0  0  0  0
   23.8137   74.9053    4.5156 H   0  0  0  0  0  0  0  0  0  0  0  0
   26.7336   72.7057    5.7834 O   0  0  0  0  0  0  0  0  0  0  0  0
   29.8605   71.1034    2.8003 O   0  0  0  0  0  0  0  0  0  0  0  0
   25.9717   71.5826    3.8816 N   0  0  0  0  0  0  0  0  0  0  0  0
   28.2889   71.9076    4.2957 N   0  0  0  0  0  0  0  0  0  0  0  0
   26.9727   72.1092    4.7318 C   0  0  0  0  0  0  0  0  0  0  0  0
   26.3267   70.9205    2.7127 C   0  0  0  0  0  0  0  0  0  0  0  0
   27.5856   70.7360    2.3103 C   0  0  0  0  0  0  0  0  0  0  0  0
   28.6914   71.2562    3.1410 C   0  0  0  0  0  0  0  0  0  0  0  0
   29.0031   72.2672    4.8700 H   0  0  0  0  0  0  0  0  0  0  0  0
   21.3354   70.4147   -1.4382 O   0  0  0  0  0  0  0  0  0  0  0  0
   20.9141   71.4678   -2.5902 P   0  0  2  0  0  0  0  0  0  0  0  0
   22.1040   71.3216   -3.6779 O   0  0  0  0  0  0  0  0  0  0  0  0
   20.6977   72.8685   -2.0950 O   0  0  0  0  0  0  0  0  0  0  0  0
   19.6280   70.8031   -3.3019 O   0  0  0  0  0  0  0  0  0  0  0  0
   17.9312   72.2856   -4.0316 O   0  0  0  0  0  0  0  0  0  0  0  0
   16.0278   68.6291   -4.3057 O   0  0  0  0  0  0  0  0  0  0  0  0
   17.7194   69.2493   -2.0061 O   0  0  0  0  0  0  0  0  0  0  0  0
   16.9720   69.9664   -6.7080 O   0  0  0  0  0  0  0  0  0  0  0  0
   17.1369   69.5271   -4.3448 C   0  0  2  0  0  0  0  0  0  0  0  0
   17.3007   70.1978   -2.9807 C   0  0  2  0  0  0  0  0  0  0  0  0
   16.8582   70.5761   -5.4236 C   0  0  1  0  0  0  0  0  0  0  0  0
   18.3270   71.3296   -3.0472 C   0  0  1  0  0  0  0  0  0  0  0  0
   17.8490   71.7340   -5.3439 C   0  0  1  0  0  0  0  0  0  0  0  0
   16.1825   67.9533   -3.6270 H   0  0  0  0  0  0  0  0  0  0  0  0
   17.0729   68.5281   -1.9588 H   0  0  0  0  0  0  0  0  0  0  0  0
   16.3467   69.2276   -6.7718 H   0  0  0  0  0  0  0  0  0  0  0  0
   17.7103   72.7170   -7.4689 O   0  0  0  0  0  0  0  0  0  0  0  0
   16.7795   73.8619   -5.7306 O   0  0  0  0  0  0  0  0  0  0  0  0
   17.3802   72.8907   -6.1652 C   0  0  0  0  0  0  0  0  0  0  0  0
  1  4  1  0
  1 24  1  0
  1  2  1  6
  1  3  2  0
 25 28  1  0
 25 24  1  0
 25 26  1  6
 25 27  2  0
  6 11  1  0
  6 12  1  0
 29 36  1  0
 29 37  1  0
  9  7  1  1
  7 13  1  0
 10  8  1  1
  8 14  1  0
  4  5  1  0
 36 28  1  6
 33 30  1  1
 30 38  1  0
 34 31  1  1
 31 39  1  0
 35 32  1  6
 32 40  1  0
 41 43  1  0
 15 19  2  0
 42 43  2  0
 16 22  2  0
 12 17  1  6
 17 19  1  0
 17 20  1  0
 18 19  1  0
 18 22  1  0
 18 23  1  0
  9 10  1  0
  9 11  1  0
 10 12  1  0
 11  5  1  6
 33 34  1  0
 33 35  1  0
 34 36  1  0
 35 37  1  0
 37 43  1  6
 20 21  2  0
 21 22  1  0
M  CHG  3   2  -1  26  -1  41  -1
M  END
>  <COMPND>  (85) 
    udp_gluA.pdb 

>  <AUTHOR>  (85) 
    GENERATED BY OPEN BABEL 3.1.1

>  <MASTER>  (85) 
        0    0    0    0    0    0    0    0   56    0   56    0

>  <minimizedAffinity>  (85) 
-8.62806

>  <CNNscore>  (85) 
0.6827656031

>  <CNNaffinity>  (85) 
4.6016240120

>  <CNN_VS>  (85) 
3.1418306828

>  <CNNaffinity_variance>  (85) 
0.1059255749

$$$$
86
     RDKit          3D

 43 45  0  0  0  0  0  0  0  0999 V2000
   22.5771   69.5280    0.2526 P   0  0  2  0  0  0  0  0  0  0  0  0
   21.0407   69.2551    0.6815 O   0  0  0  0  0  0  0  0  0  0  0  0
   23.3103   68.3294   -0.2742 O   0  0  0  0  0  0  0  0  0  0  0  0
   23.2258   70.2308    1.5577 O   0  0  0  0  0  0  0  0  0  0  0  0
   24.6070   70.0468    1.8085 C   0  0  0  0  0  0  0  0  0  0  0  0
   26.2944   70.1491    3.5172 O   0  0  0  0  0  0  0  0  0  0  0  0
   24.2178   71.4728    5.2280 O   0  0  0  0  0  0  0  0  0  0  0  0
   25.7225   73.5822    4.3780 O   0  0  0  0  0  0  0  0  0  0  0  0
   24.4408   71.5919    3.8228 C   0  0  1  0  0  0  0  0  0  0  0  0
   25.6704   72.4344    3.5568 C   0  0  2  0  0  0  0  0  0  0  0  0
   24.8693   70.2284    3.2979 C   0  0  1  0  0  0  0  0  0  0  0  0
   26.7936   71.4543    3.8496 C   0  0  2  0  0  0  0  0  0  0  0  0
   23.9429   72.3319    5.5860 H   0  0  0  0  0  0  0  0  0  0  0  0
   24.9874   74.1745    4.1528 H   0  0  0  0  0  0  0  0  0  0  0  0
   28.7601   73.3669    4.5215 O   0  0  0  0  0  0  0  0  0  0  0  0
   31.2597   72.3809    0.7767 O   0  0  0  0  0  0  0  0  0  0  0  0
   27.9685   71.7179    3.0680 N   0  0  0  0  0  0  0  0  0  0  0  0
   30.0027   72.8747    2.6552 N   0  0  0  0  0  0  0  0  0  0  0  0
   28.8940   72.6998    3.4939 C   0  0  0  0  0  0  0  0  0  0  0  0
   28.1955   71.0072    1.8957 C   0  0  0  0  0  0  0  0  0  0  0  0
   29.2570   71.1850    1.1067 C   0  0  0  0  0  0  0  0  0  0  0  0
   30.2714   72.1926    1.4796 C   0  0  0  0  0  0  0  0  0  0  0  0
   30.6599   73.5544    2.9300 H   0  0  0  0  0  0  0  0  0  0  0  0
   22.4495   70.7531   -0.7941 O   0  0  0  0  0  0  0  0  0  0  0  0
   22.3539   70.7647   -2.4079 P   0  0  2  0  0  0  0  0  0  0  0  0
   23.1822   69.4418   -2.8370 O   0  0  0  0  0  0  0  0  0  0  0  0
   22.8423   72.0336   -3.0446 O   0  0  0  0  0  0  0  0  0  0  0  0
   20.8149   70.4036   -2.7294 O   0  0  0  0  0  0  0  0  0  0  0  0
   19.2838   71.4990   -4.1665 O   0  0  0  0  0  0  0  0  0  0  0  0
   16.7749   70.0158   -1.2385 O   0  0  0  0  0  0  0  0  0  0  0  0
   19.3362   71.2240   -0.5212 O   0  0  0  0  0  0  0  0  0  0  0  0
   16.9022   68.7269   -3.8411 O   0  0  0  0  0  0  0  0  0  0  0  0
   17.9220   70.0278   -2.0882 C   0  0  2  0  0  0  0  0  0  0  0  0
   18.7478   71.2853   -1.8153 C   0  0  2  0  0  0  0  0  0  0  0  0
   17.4359   70.0148   -3.5392 C   0  0  1  0  0  0  0  0  0  0  0  0
   19.8542   71.4501   -2.8582 C   0  0  1  0  0  0  0  0  0  0  0  0
   18.5746   70.3109   -4.5109 C   0  0  1  0  0  0  0  0  0  0  0  0
   17.0592   70.0239   -0.3109 H   0  0  0  0  0  0  0  0  0  0  0  0
   18.6398   71.1191    0.1455 H   0  0  0  0  0  0  0  0  0  0  0  0
   16.1766   68.5262   -3.2295 H   0  0  0  0  0  0  0  0  0  0  0  0
   19.0291   71.0907   -6.6758 O   0  0  0  0  0  0  0  0  0  0  0  0
   16.8821   70.4707   -6.2230 O   0  0  0  0  0  0  0  0  0  0  0  0
   18.0430   70.6203   -5.8725 C   0  0  0  0  0  0  0  0  0  0  0  0
  1  4  1  0
  1 24  1  0
  1  2  1  1
  1  3  2  0
 25 28  1  0
 25 24  1  0
 25 26  1  6
 25 27  2  0
  6 11  1  0
  6 12  1  0
 29 36  1  0
 29 37  1  0
  9  7  1  1
  7 13  1  0
 10  8  1  1
  8 14  1  0
  4  5  1  0
 36 28  1  6
 33 30  1  1
 30 38  1  0
 34 31  1  1
 31 39  1  0
 35 32  1  6
 32 40  1  0
 41 43  1  0
 15 19  2  0
 42 43  2  0
 16 22  2  0
 12 17  1  6
 17 19  1  0
 17 20  1  0
 18 19  1  0
 18 22  1  0
 18 23  1  0
  9 10  1  0
  9 11  1  0
 10 12  1  0
 11  5  1  6
 33 34  1  0
 33 35  1  0
 34 36  1  0
 35 37  1  0
 37 43  1  6
 20 21  2  0
 21 22  1  0
M  CHG  3   2  -1  26  -1  41  -1
M  END
>  <COMPND>  (86) 
    udp_gluA.pdb 

>  <AUTHOR>  (86) 
    GENERATED BY OPEN BABEL 3.1.1

>  <MASTER>  (86) 
        0    0    0    0    0    0    0    0   56    0   56    0

>  <minimizedAffinity>  (86) 
-8.40828

>  <CNNscore>  (86) 
0.6682141423

>  <CNNaffinity>  (86) 
4.7615933418

>  <CNN_VS>  (86) 
3.1817641258

>  <CNNaffinity_variance>  (86) 
0.0394608453

$$$$
87
     RDKit          3D

 43 45  0  0  0  0  0  0  0  0999 V2000
   19.3129   72.4920    0.2920 P   0  0  2  0  0  0  0  0  0  0  0  0
   17.7614   72.3444    0.7280 O   0  0  0  0  0  0  0  0  0  0  0  0
   20.1005   73.4950    1.0829 O   0  0  0  0  0  0  0  0  0  0  0  0
   19.2450   72.7522   -1.3035 O   0  0  0  0  0  0  0  0  0  0  0  0
   18.8816   71.6764   -2.1491 C   0  0  0  0  0  0  0  0  0  0  0  0
   17.3922   72.2851   -3.9349 O   0  0  0  0  0  0  0  0  0  0  0  0
   15.2548   70.8594   -2.3887 O   0  0  0  0  0  0  0  0  0  0  0  0
   15.9258   69.0338   -4.3000 O   0  0  0  0  0  0  0  0  0  0  0  0
   16.6387   70.5362   -2.5261 C   0  0  1  0  0  0  0  0  0  0  0  0
   16.9096   69.9657   -3.9021 C   0  0  2  0  0  0  0  0  0  0  0  0
   17.4243   71.8400   -2.5615 C   0  0  1  0  0  0  0  0  0  0  0  0
   16.9150   71.2152   -4.7662 C   0  0  2  0  0  0  0  0  0  0  0  0
   14.7325   70.0420   -2.3638 H   0  0  0  0  0  0  0  0  0  0  0  0
   15.9631   68.2567   -3.7197 H   0  0  0  0  0  0  0  0  0  0  0  0
   16.1205   70.1488   -7.2578 O   0  0  0  0  0  0  0  0  0  0  0  0
   20.3109   70.7802   -9.0704 O   0  0  0  0  0  0  0  0  0  0  0  0
   17.7781   71.0892   -5.9064 N   0  0  0  0  0  0  0  0  0  0  0  0
   18.2086   70.4634   -8.1579 N   0  0  0  0  0  0  0  0  0  0  0  0
   17.2801   70.5397   -7.1114 C   0  0  0  0  0  0  0  0  0  0  0  0
   19.1004   71.5087   -5.8250 C   0  0  0  0  0  0  0  0  0  0  0  0
   19.9735   71.4296   -6.8311 C   0  0  0  0  0  0  0  0  0  0  0  0
   19.5336   70.8668   -8.1246 C   0  0  0  0  0  0  0  0  0  0  0  0
   17.8856   70.0823   -9.0063 H   0  0  0  0  0  0  0  0  0  0  0  0
   19.8632   70.9753    0.3897 O   0  0  0  0  0  0  0  0  0  0  0  0
   21.3709   70.3953    0.4541 P   0  0  2  0  0  0  0  0  0  0  0  0
   22.0916   71.0969   -0.8143 O   0  0  0  0  0  0  0  0  0  0  0  0
   21.4543   68.8963    0.4616 O   0  0  0  0  0  0  0  0  0  0  0  0
   22.0293   71.1089    1.7425 O   0  0  0  0  0  0  0  0  0  0  0  0
   23.1587   73.0541    2.4839 O   0  0  0  0  0  0  0  0  0  0  0  0
   25.8870   70.0933    3.4103 O   0  0  0  0  0  0  0  0  0  0  0  0
   24.4423   70.0341    0.8718 O   0  0  0  0  0  0  0  0  0  0  0  0
   24.2914   71.3161    5.5102 O   0  0  0  0  0  0  0  0  0  0  0  0
   24.5890   70.6538    3.2129 C   0  0  2  0  0  0  0  0  0  0  0  0
   24.4550   71.1384    1.7690 C   0  0  2  0  0  0  0  0  0  0  0  0
   24.4268   71.8249    4.1846 C   0  0  1  0  0  0  0  0  0  0  0  0
   23.1713   71.9480    1.5806 C   0  0  1  0  0  0  0  0  0  0  0  0
   23.1914   72.6569    3.8529 C   0  0  1  0  0  0  0  0  0  0  0  0
   26.0129   69.3471    2.8032 H   0  0  0  0  0  0  0  0  0  0  0  0
   25.2539   69.5158    0.9862 H   0  0  0  0  0  0  0  0  0  0  0  0
   25.0713   70.7844    5.7337 H   0  0  0  0  0  0  0  0  0  0  0  0
   22.7815   73.8092    5.8544 O   0  0  0  0  0  0  0  0  0  0  0  0
   23.5879   75.0239    4.1012 O   0  0  0  0  0  0  0  0  0  0  0  0
   23.2198   73.9618    4.5802 C   0  0  0  0  0  0  0  0  0  0  0  0
  1  4  1  0
  1 24  1  0
  1  2  1  1
  1  3  2  0
 25 28  1  0
 25 24  1  0
 25 26  1  6
 25 27  2  0
  6 11  1  0
  6 12  1  0
 29 36  1  0
 29 37  1  0
  9  7  1  6
  7 13  1  0
 10  8  1  6
  8 14  1  0
  4  5  1  0
 36 28  1  1
 33 30  1  6
 30 38  1  0
 34 31  1  6
 31 39  1  0
 35 32  1  1
 32 40  1  0
 41 43  1  0
 15 19  2  0
 42 43  2  0
 16 22  2  0
 12 17  1  6
 17 19  1  0
 17 20  1  0
 18 19  1  0
 18 22  1  0
 18 23  1  0
  9 10  1  0
  9 11  1  0
 10 12  1  0
 11  5  1  6
 33 34  1  0
 33 35  1  0
 34 36  1  0
 35 37  1  0
 37 43  1  1
 20 21  2  0
 21 22  1  0
M  CHG  3   2  -1  26  -1  41  -1
M  END
>  <COMPND>  (87) 
    udp_gluA.pdb 

>  <AUTHOR>  (87) 
    GENERATED BY OPEN BABEL 3.1.1

>  <MASTER>  (87) 
        0    0    0    0    0    0    0    0   56    0   56    0

>  <minimizedAffinity>  (87) 
-7.84386

>  <CNNscore>  (87) 
0.6674432755

>  <CNNaffinity>  (87) 
4.6177945137

>  <CNN_VS>  (87) 
3.0821158886

>  <CNNaffinity_variance>  (87) 
0.2406777143

$$$$
88
     RDKit          3D

 43 45  0  0  0  0  0  0  0  0999 V2000
   20.7573   70.8508   -0.6259 P   0  0  2  0  0  0  0  0  0  0  0  0
   20.2564   69.7856    0.4847 O   0  0  0  0  0  0  0  0  0  0  0  0
   20.7909   72.2784   -0.1648 O   0  0  0  0  0  0  0  0  0  0  0  0
   19.8162   70.5481   -1.9068 O   0  0  0  0  0  0  0  0  0  0  0  0
   19.5662   71.5965   -2.8250 C   0  0  0  0  0  0  0  0  0  0  0  0
   17.7842   72.2214   -4.3121 O   0  0  0  0  0  0  0  0  0  0  0  0
   15.9430   70.8521   -2.3817 O   0  0  0  0  0  0  0  0  0  0  0  0
   16.2151   68.9981   -4.3628 O   0  0  0  0  0  0  0  0  0  0  0  0
   17.2715   70.4995   -2.7684 C   0  0  1  0  0  0  0  0  0  0  0  0
   17.2728   69.9127   -4.1640 C   0  0  2  0  0  0  0  0  0  0  0  0
   18.0612   71.7866   -2.9632 C   0  0  1  0  0  0  0  0  0  0  0  0
   17.1418   71.1550   -5.0286 C   0  0  2  0  0  0  0  0  0  0  0  0
   15.4191   70.0457   -2.2513 H   0  0  0  0  0  0  0  0  0  0  0  0
   16.3444   68.2250   -3.7904 H   0  0  0  0  0  0  0  0  0  0  0  0
   15.8312   70.2562   -7.3634 O   0  0  0  0  0  0  0  0  0  0  0  0
   19.6779   70.6078   -9.8780 O   0  0  0  0  0  0  0  0  0  0  0  0
   17.7769   71.0024   -6.3070 N   0  0  0  0  0  0  0  0  0  0  0  0
   17.7486   70.4312   -8.6133 N   0  0  0  0  0  0  0  0  0  0  0  0
   17.0285   70.5435   -7.4167 C   0  0  0  0  0  0  0  0  0  0  0  0
   19.1248   71.3071   -6.4525 C   0  0  0  0  0  0  0  0  0  0  0  0
   19.7974   71.1951   -7.5996 C   0  0  0  0  0  0  0  0  0  0  0  0
   19.0894   70.7217   -8.8070 C   0  0  0  0  0  0  0  0  0  0  0  0
   17.2493   70.1117   -9.3994 H   0  0  0  0  0  0  0  0  0  0  0  0
   22.1902   70.2557   -1.0792 O   0  0  0  0  0  0  0  0  0  0  0  0
   23.3101   69.4368   -0.2491 P   0  0  2  0  0  0  0  0  0  0  0  0
   24.6035   69.4904   -1.2209 O   0  0  0  0  0  0  0  0  0  0  0  0
   22.8915   68.0507    0.1475 O   0  0  0  0  0  0  0  0  0  0  0  0
   23.6895   70.4011    0.9873 O   0  0  0  0  0  0  0  0  0  0  0  0
   25.1602   69.7851    2.7386 O   0  0  0  0  0  0  0  0  0  0  0  0
   22.9180   72.7569    4.5300 O   0  0  0  0  0  0  0  0  0  0  0  0
   21.6366   70.7561    2.8301 O   0  0  0  0  0  0  0  0  0  0  0  0
   25.6365   73.3050    3.6580 O   0  0  0  0  0  0  0  0  0  0  0  0
   23.5682   72.0868    3.4501 C   0  0  2  0  0  0  0  0  0  0  0  0
   22.9811   70.6842    3.2904 C   0  0  2  0  0  0  0  0  0  0  0  0
   25.0615   72.0049    3.7748 C   0  0  1  0  0  0  0  0  0  0  0  0
   23.8027   69.8566    2.3009 C   0  0  1  0  0  0  0  0  0  0  0  0
   25.7884   71.0625    2.8199 C   0  0  1  0  0  0  0  0  0  0  0  0
   21.9676   72.8206    4.3458 H   0  0  0  0  0  0  0  0  0  0  0  0
   21.1097   71.2801    3.4531 H   0  0  0  0  0  0  0  0  0  0  0  0
   25.1826   73.9147    4.2606 H   0  0  0  0  0  0  0  0  0  0  0  0
   27.3178   71.2149    4.5917 O   0  0  0  0  0  0  0  0  0  0  0  0
   28.0048   70.1147    2.7163 O   0  0  0  0  0  0  0  0  0  0  0  0
   27.1519   70.7336    3.3348 C   0  0  0  0  0  0  0  0  0  0  0  0
  1  4  1  0
  1 24  1  0
  1  2  1  1
  1  3  2  0
 25 28  1  0
 25 24  1  0
 25 26  1  6
 25 27  2  0
  6 11  1  0
  6 12  1  0
 29 36  1  0
 29 37  1  0
  9  7  1  6
  7 13  1  0
 10  8  1  1
  8 14  1  0
  4  5  1  0
 36 28  1  6
 33 30  1  1
 30 38  1  0
 34 31  1  6
 31 39  1  0
 35 32  1  6
 32 40  1  0
 41 43  1  0
 15 19  2  0
 42 43  2  0
 16 22  2  0
 12 17  1  6
 17 19  1  0
 17 20  1  0
 18 19  1  0
 18 22  1  0
 18 23  1  0
  9 10  1  0
  9 11  1  0
 10 12  1  0
 11  5  1  6
 33 34  1  0
 33 35  1  0
 34 36  1  0
 35 37  1  0
 37 43  1  1
 20 21  2  0
 21 22  1  0
M  CHG  3   2  -1  26  -1  41  -1
M  END
>  <COMPND>  (88) 
    udp_gluA.pdb 

>  <AUTHOR>  (88) 
    GENERATED BY OPEN BABEL 3.1.1

>  <MASTER>  (88) 
        0    0    0    0    0    0    0    0   56    0   56    0

>  <minimizedAffinity>  (88) 
-8.93323

>  <CNNscore>  (88) 
0.6557884216

>  <CNNaffinity>  (88) 
4.9459066391

>  <CNN_VS>  (88) 
3.2434682846

>  <CNNaffinity_variance>  (88) 
0.4899483323

$$$$
89
     RDKit          3D

 43 45  0  0  0  0  0  0  0  0999 V2000
   22.0047   69.9596   -0.1434 P   0  0  2  0  0  0  0  0  0  0  0  0
   20.4253   69.8465    0.1908 O   0  0  0  0  0  0  0  0  0  0  0  0
   22.6737   68.6615   -0.4887 O   0  0  0  0  0  0  0  0  0  0  0  0
   22.6159   70.7481    1.1304 O   0  0  0  0  0  0  0  0  0  0  0  0
   23.4957   70.0547    1.9962 C   0  0  0  0  0  0  0  0  0  0  0  0
   24.5337   70.3929    4.1377 O   0  0  0  0  0  0  0  0  0  0  0  0
   22.2852   72.2895    4.7199 O   0  0  0  0  0  0  0  0  0  0  0  0
   24.3309   73.9718    4.0710 O   0  0  0  0  0  0  0  0  0  0  0  0
   22.9659   72.0457    3.4887 C   0  0  1  0  0  0  0  0  0  0  0  0
   24.3439   72.6721    3.5187 C   0  0  2  0  0  0  0  0  0  0  0  0
   23.2926   70.5602    3.4187 C   0  0  1  0  0  0  0  0  0  0  0  0
   25.1216   71.6828    4.3700 C   0  0  2  0  0  0  0  0  0  0  0  0
   22.0661   73.2324    4.7874 H   0  0  0  0  0  0  0  0  0  0  0  0
   23.8241   74.5638    3.4924 H   0  0  0  0  0  0  0  0  0  0  0  0
   27.0952   73.4100    5.4179 O   0  0  0  0  0  0  0  0  0  0  0  0
   30.4271   71.3975    2.9497 O   0  0  0  0  0  0  0  0  0  0  0  0
   26.5125   71.6322    4.0184 N   0  0  0  0  0  0  0  0  0  0  0  0
   28.7526   72.4067    4.1868 N   0  0  0  0  0  0  0  0  0  0  0  0
   27.4218   72.5457    4.6023 C   0  0  0  0  0  0  0  0  0  0  0  0
   26.9635   70.6853    3.1069 C   0  0  0  0  0  0  0  0  0  0  0  0
   28.2352   70.5649    2.7208 C   0  0  0  0  0  0  0  0  0  0  0  0
   29.2489   71.4813    3.2829 C   0  0  0  0  0  0  0  0  0  0  0  0
   29.4038   73.0329    4.5781 H   0  0  0  0  0  0  0  0  0  0  0  0
   22.0489   71.0723   -1.3150 O   0  0  0  0  0  0  0  0  0  0  0  0
   22.2961   70.9290   -2.9062 P   0  0  2  0  0  0  0  0  0  0  0  0
   21.1265   69.9115   -3.3721 O   0  0  0  0  0  0  0  0  0  0  0  0
   23.6827   70.4886   -3.2768 O   0  0  0  0  0  0  0  0  0  0  0  0
   21.8612   72.3569   -3.5182 O   0  0  0  0  0  0  0  0  0  0  0  0
   20.7383   72.9792   -5.5085 O   0  0  0  0  0  0  0  0  0  0  0  0
   23.4885   76.0355   -5.1041 O   0  0  0  0  0  0  0  0  0  0  0  0
   24.2637   73.2673   -4.5836 O   0  0  0  0  0  0  0  0  0  0  0  0
   20.6921   76.4935   -4.4551 O   0  0  0  0  0  0  0  0  0  0  0  0
   22.5901   75.0225   -4.6516 C   0  0  2  0  0  0  0  0  0  0  0  0
   23.0386   73.6634   -5.1894 C   0  0  2  0  0  0  0  0  0  0  0  0
   21.1915   75.3648   -5.1701 C   0  0  1  0  0  0  0  0  0  0  0  0
   21.9807   72.5923   -4.9200 C   0  0  1  0  0  0  0  0  0  0  0  0
   20.2255   74.1993   -4.9781 C   0  0  1  0  0  0  0  0  0  0  0  0
   24.3840   75.8390   -4.7867 H   0  0  0  0  0  0  0  0  0  0  0  0
   24.9394   73.9426   -4.7503 H   0  0  0  0  0  0  0  0  0  0  0  0
   21.2979   77.2423   -4.5690 H   0  0  0  0  0  0  0  0  0  0  0  0
   18.3781   73.2246   -6.0452 O   0  0  0  0  0  0  0  0  0  0  0  0
   18.5437   75.4974   -6.1217 O   0  0  0  0  0  0  0  0  0  0  0  0
   18.9759   74.4102   -5.7695 C   0  0  0  0  0  0  0  0  0  0  0  0
  1  4  1  0
  1 24  1  0
  1  2  1  1
  1  3  2  0
 25 28  1  0
 25 24  1  0
 25 26  1  6
 25 27  2  0
  6 11  1  0
  6 12  1  0
 29 36  1  0
 29 37  1  0
  9  7  1  1
  7 13  1  0
 10  8  1  1
  8 14  1  0
  4  5  1  0
 36 28  1  1
 33 30  1  6
 30 38  1  0
 34 31  1  1
 31 39  1  0
 35 32  1  1
 32 40  1  0
 41 43  1  0
 15 19  2  0
 42 43  2  0
 16 22  2  0
 12 17  1  6
 17 19  1  0
 17 20  1  0
 18 19  1  0
 18 22  1  0
 18 23  1  0
  9 10  1  0
  9 11  1  0
 10 12  1  0
 11  5  1  6
 33 34  1  0
 33 35  1  0
 34 36  1  0
 35 37  1  0
 37 43  1  6
 20 21  2  0
 21 22  1  0
M  CHG  3   2  -1  26  -1  41  -1
M  END
>  <COMPND>  (89) 
    udp_gluA.pdb 

>  <AUTHOR>  (89) 
    GENERATED BY OPEN BABEL 3.1.1

>  <MASTER>  (89) 
        0    0    0    0    0    0    0    0   56    0   56    0

>  <minimizedAffinity>  (89) 
-8.39805

>  <CNNscore>  (89) 
0.6431797743

>  <CNNaffinity>  (89) 
4.5572094917

>  <CNN_VS>  (89) 
2.9311048985

>  <CNNaffinity_variance>  (89) 
0.0797318965

$$$$
90
     RDKit          3D

 43 45  0  0  0  0  0  0  0  0999 V2000
   22.5239   69.7449   -0.1285 P   0  0  2  0  0  0  0  0  0  0  0  0
   22.6213   68.1327   -0.0274 O   0  0  0  0  0  0  0  0  0  0  0  0
   23.5632   70.3891   -0.9982 O   0  0  0  0  0  0  0  0  0  0  0  0
   22.5001   70.2302    1.4149 O   0  0  0  0  0  0  0  0  0  0  0  0
   23.5943   69.8916    2.2470 C   0  0  0  0  0  0  0  0  0  0  0  0
   24.6421   70.4677    4.3322 O   0  0  0  0  0  0  0  0  0  0  0  0
   22.3295   72.3264    4.7670 O   0  0  0  0  0  0  0  0  0  0  0  0
   24.3024   74.0146    3.9340 O   0  0  0  0  0  0  0  0  0  0  0  0
   23.0055   71.9933    3.5543 C   0  0  1  0  0  0  0  0  0  0  0  0
   24.3589   72.6700    3.5056 C   0  0  2  0  0  0  0  0  0  0  0  0
   23.3877   70.5208    3.6188 C   0  0  1  0  0  0  0  0  0  0  0  0
   25.1829   71.7945    4.4343 C   0  0  2  0  0  0  0  0  0  0  0  0
   22.0754   73.2628    4.7491 H   0  0  0  0  0  0  0  0  0  0  0  0
   23.7672   74.5305    3.3100 H   0  0  0  0  0  0  0  0  0  0  0  0
   27.1127   73.6490    5.3362 O   0  0  0  0  0  0  0  0  0  0  0  0
   30.4790   71.5745    2.9679 O   0  0  0  0  0  0  0  0  0  0  0  0
   26.5708   71.7624    4.0690 N   0  0  0  0  0  0  0  0  0  0  0  0
   28.7873   72.6146    4.1550 N   0  0  0  0  0  0  0  0  0  0  0  0
   27.4573   72.7411    4.5773 C   0  0  0  0  0  0  0  0  0  0  0  0
   27.0413   70.7694    3.2185 C   0  0  0  0  0  0  0  0  0  0  0  0
   28.3119   70.6617    2.8250 C   0  0  0  0  0  0  0  0  0  0  0  0
   29.3024   71.6450    3.3100 C   0  0  0  0  0  0  0  0  0  0  0  0
   29.4228   73.2858    4.4941 H   0  0  0  0  0  0  0  0  0  0  0  0
   20.9996   69.9869   -0.6090 O   0  0  0  0  0  0  0  0  0  0  0  0
   20.0454   71.2872   -0.4978 P   0  0  2  0  0  0  0  0  0  0  0  0
   21.0541   72.5140   -0.8105 O   0  0  0  0  0  0  0  0  0  0  0  0
   19.3147   71.4049    0.8084 O   0  0  0  0  0  0  0  0  0  0  0  0
   19.0894   71.2054   -1.7947 O   0  0  0  0  0  0  0  0  0  0  0  0
   18.9196   69.5356   -3.4657 O   0  0  0  0  0  0  0  0  0  0  0  0
   18.0516   72.9599   -5.6079 O   0  0  0  0  0  0  0  0  0  0  0  0
   20.2158   72.9494   -3.6456 O   0  0  0  0  0  0  0  0  0  0  0  0
   15.9201   71.1361   -4.8454 O   0  0  0  0  0  0  0  0  0  0  0  0
   18.0862   72.1168   -4.4564 C   0  0  2  0  0  0  0  0  0  0  0  0
   19.5376   71.7868   -4.1071 C   0  0  2  0  0  0  0  0  0  0  0  0
   17.3134   70.8371   -4.7838 C   0  0  1  0  0  0  0  0  0  0  0  0
   19.6083   70.7070   -3.0264 C   0  0  1  0  0  0  0  0  0  0  0  0
   17.5357   69.7647   -3.7212 C   0  0  1  0  0  0  0  0  0  0  0  0
   18.5366   73.7796   -5.4233 H   0  0  0  0  0  0  0  0  0  0  0  0
   20.1746   73.6388   -4.3263 H   0  0  0  0  0  0  0  0  0  0  0  0
   15.7650   71.8175   -5.5180 H   0  0  0  0  0  0  0  0  0  0  0  0
   17.6502   67.4319   -3.5061 O   0  0  0  0  0  0  0  0  0  0  0  0
   16.2460   68.2618   -5.0994 O   0  0  0  0  0  0  0  0  0  0  0  0
   17.0586   68.4334   -4.2032 C   0  0  0  0  0  0  0  0  0  0  0  0
  1  4  1  0
  1 24  1  0
  1  2  1  1
  1  3  2  0
 25 28  1  0
 25 24  1  0
 25 26  1  6
 25 27  2  0
  6 11  1  0
  6 12  1  0
 29 36  1  0
 29 37  1  0
  9  7  1  1
  7 13  1  0
 10  8  1  1
  8 14  1  0
  4  5  1  0
 36 28  1  1
 33 30  1  6
 30 38  1  0
 34 31  1  1
 31 39  1  0
 35 32  1  1
 32 40  1  0
 41 43  1  0
 15 19  2  0
 42 43  2  0
 16 22  2  0
 12 17  1  6
 17 19  1  0
 17 20  1  0
 18 19  1  0
 18 22  1  0
 18 23  1  0
  9 10  1  0
  9 11  1  0
 10 12  1  0
 11  5  1  6
 33 34  1  0
 33 35  1  0
 34 36  1  0
 35 37  1  0
 37 43  1  6
 20 21  2  0
 21 22  1  0
M  CHG  3   2  -1  26  -1  41  -1
M  END
>  <COMPND>  (90) 
    udp_gluA.pdb 

>  <AUTHOR>  (90) 
    GENERATED BY OPEN BABEL 3.1.1

>  <MASTER>  (90) 
        0    0    0    0    0    0    0    0   56    0   56    0

>  <minimizedAffinity>  (90) 
-8.46019

>  <CNNscore>  (90) 
0.6206071973

>  <CNNaffinity>  (90) 
4.6753344536

>  <CNN_VS>  (90) 
2.9015462399

>  <CNNaffinity_variance>  (90) 
0.2310715169

$$$$
91
     RDKit          3D

 43 45  0  0  0  0  0  0  0  0999 V2000
   21.5174   70.3715   -0.2504 P   0  0  2  0  0  0  0  0  0  0  0  0
   20.7890   69.2666    0.6811 O   0  0  0  0  0  0  0  0  0  0  0  0
   22.2439   69.8170   -1.4406 O   0  0  0  0  0  0  0  0  0  0  0  0
   22.4189   71.2227    0.7892 O   0  0  0  0  0  0  0  0  0  0  0  0
   23.4095   70.5434    1.5387 C   0  0  0  0  0  0  0  0  0  0  0  0
   24.3512   70.4156    3.7465 O   0  0  0  0  0  0  0  0  0  0  0  0
   22.1488   72.2668    4.5914 O   0  0  0  0  0  0  0  0  0  0  0  0
   24.2856   73.9461    4.3672 O   0  0  0  0  0  0  0  0  0  0  0  0
   22.8805   72.2329    3.3658 C   0  0  1  0  0  0  0  0  0  0  0  0
   24.2777   72.7774    3.5743 C   0  0  2  0  0  0  0  0  0  0  0  0
   23.1546   70.7751    3.0225 C   0  0  1  0  0  0  0  0  0  0  0  0
   24.9745   71.6082    4.2491 C   0  0  2  0  0  0  0  0  0  0  0  0
   21.9619   73.1883    4.8314 H   0  0  0  0  0  0  0  0  0  0  0  0
   23.8308   74.6610    3.8940 H   0  0  0  0  0  0  0  0  0  0  0  0
   26.9292   73.1887    5.5364 O   0  0  0  0  0  0  0  0  0  0  0  0
   30.3313   71.3467    3.0312 O   0  0  0  0  0  0  0  0  0  0  0  0
   26.3784   71.5617    3.9528 N   0  0  0  0  0  0  0  0  0  0  0  0
   28.6217   72.2705    4.2867 N   0  0  0  0  0  0  0  0  0  0  0  0
   27.2765   72.3978    4.6574 C   0  0  0  0  0  0  0  0  0  0  0  0
   26.8527   70.6948    2.9758 C   0  0  0  0  0  0  0  0  0  0  0  0
   28.1379   70.5847    2.6336 C   0  0  0  0  0  0  0  0  0  0  0  0
   29.1413   71.4235    3.3213 C   0  0  0  0  0  0  0  0  0  0  0  0
   29.2656   72.8439    4.7621 H   0  0  0  0  0  0  0  0  0  0  0  0
   20.3163   71.3918   -0.6099 O   0  0  0  0  0  0  0  0  0  0  0  0
   18.8895   71.1409   -1.3275 P   0  0  2  0  0  0  0  0  0  0  0  0
   17.9270   72.2406   -0.6314 O   0  0  0  0  0  0  0  0  0  0  0  0
   18.3893   69.7289   -1.2266 O   0  0  0  0  0  0  0  0  0  0  0  0
   19.0912   71.6734   -2.8368 O   0  0  0  0  0  0  0  0  0  0  0  0
   18.8814   70.3764   -4.8074 O   0  0  0  0  0  0  0  0  0  0  0  0
   21.4751   73.3504   -6.0305 O   0  0  0  0  0  0  0  0  0  0  0  0
   21.7792   72.1084   -3.4039 O   0  0  0  0  0  0  0  0  0  0  0  0
   18.6889   73.4131   -6.8577 O   0  0  0  0  0  0  0  0  0  0  0  0
   20.3991   72.7871   -5.2803 C   0  0  2  0  0  0  0  0  0  0  0  0
   20.9196   71.6274   -4.4308 C   0  0  2  0  0  0  0  0  0  0  0  0
   19.3423   72.2901   -6.2692 C   0  0  1  0  0  0  0  0  0  0  0  0
   19.7642   70.8554   -3.7921 C   0  0  1  0  0  0  0  0  0  0  0  0
   18.2943   71.4240   -5.5762 C   0  0  1  0  0  0  0  0  0  0  0  0
   22.1591   73.6732   -5.4229 H   0  0  0  0  0  0  0  0  0  0  0  0
   22.5145   72.5995   -3.8020 H   0  0  0  0  0  0  0  0  0  0  0  0
   19.3449   73.9726   -7.3021 H   0  0  0  0  0  0  0  0  0  0  0  0
   18.0050   70.8035   -7.8195 O   0  0  0  0  0  0  0  0  0  0  0  0
   16.4562   70.0518   -6.3244 O   0  0  0  0  0  0  0  0  0  0  0  0
   17.4709   70.6833   -6.5789 C   0  0  0  0  0  0  0  0  0  0  0  0
  1  4  1  0
  1 24  1  0
  1  2  1  1
  1  3  2  0
 25 28  1  0
 25 24  1  0
 25 26  1  1
 25 27  2  0
  6 11  1  0
  6 12  1  0
 29 36  1  0
 29 37  1  0
  9  7  1  1
  7 13  1  0
 10  8  1  1
  8 14  1  0
  4  5  1  0
 36 28  1  1
 33 30  1  6
 30 38  1  0
 34 31  1  1
 31 39  1  0
 35 32  1  1
 32 40  1  0
 41 43  1  0
 15 19  2  0
 42 43  2  0
 16 22  2  0
 12 17  1  6
 17 19  1  0
 17 20  1  0
 18 19  1  0
 18 22  1  0
 18 23  1  0
  9 10  1  0
  9 11  1  0
 10 12  1  0
 11  5  1  6
 33 34  1  0
 33 35  1  0
 34 36  1  0
 35 37  1  0
 37 43  1  6
 20 21  2  0
 21 22  1  0
M  CHG  3   2  -1  26  -1  41  -1
M  END
>  <COMPND>  (91) 
    udp_gluA.pdb 

>  <AUTHOR>  (91) 
    GENERATED BY OPEN BABEL 3.1.1

>  <MASTER>  (91) 
        0    0    0    0    0    0    0    0   56    0   56    0

>  <minimizedAffinity>  (91) 
-8.95935

>  <CNNscore>  (91) 
0.6118047237

>  <CNNaffinity>  (91) 
4.4237489700

>  <CNN_VS>  (91) 
2.7064704895

>  <CNNaffinity_variance>  (91) 
0.0044020391

$$$$
92
     RDKit          3D

 43 45  0  0  0  0  0  0  0  0999 V2000
   20.7149   70.7689    0.4709 P   0  0  2  0  0  0  0  0  0  0  0  0
   19.7109   71.4842    1.5194 O   0  0  0  0  0  0  0  0  0  0  0  0
   20.8153   69.2778    0.6064 O   0  0  0  0  0  0  0  0  0  0  0  0
   22.1015   71.5849    0.6423 O   0  0  0  0  0  0  0  0  0  0  0  0
   23.1738   70.9603    1.3238 C   0  0  0  0  0  0  0  0  0  0  0  0
   24.0865   70.5286    3.5051 O   0  0  0  0  0  0  0  0  0  0  0  0
   21.9727   72.3801    4.5518 O   0  0  0  0  0  0  0  0  0  0  0  0
   24.1939   73.9619    4.5325 O   0  0  0  0  0  0  0  0  0  0  0  0
   22.7135   72.4511    3.3332 C   0  0  1  0  0  0  0  0  0  0  0  0
   24.1345   72.8952    3.6088 C   0  0  2  0  0  0  0  0  0  0  0  0
   22.9167   71.0309    2.8236 C   0  0  1  0  0  0  0  0  0  0  0  0
   24.7645   71.6212    4.1454 C   0  0  2  0  0  0  0  0  0  0  0  0
   21.8304   73.2759    4.8967 H   0  0  0  0  0  0  0  0  0  0  0  0
   23.7805   74.7494    4.1440 H   0  0  0  0  0  0  0  0  0  0  0  0
   26.8004   72.7476    5.7463 O   0  0  0  0  0  0  0  0  0  0  0  0
   30.1119   71.2375    2.9184 O   0  0  0  0  0  0  0  0  0  0  0  0
   26.1671   71.5373    3.8509 N   0  0  0  0  0  0  0  0  0  0  0  0
   28.4477   71.9953    4.3358 N   0  0  0  0  0  0  0  0  0  0  0  0
   27.1080   72.1379    4.7204 C   0  0  0  0  0  0  0  0  0  0  0  0
   26.5979   70.8652    2.7136 C   0  0  0  0  0  0  0  0  0  0  0  0
   27.8784   70.7376    2.3602 C   0  0  0  0  0  0  0  0  0  0  0  0
   28.9249   71.3368    3.2140 C   0  0  0  0  0  0  0  0  0  0  0  0
   29.1211   72.4068    4.9244 H   0  0  0  0  0  0  0  0  0  0  0  0
   20.1674   71.2794   -0.9617 O   0  0  0  0  0  0  0  0  0  0  0  0
   18.7519   71.0380   -1.7045 P   0  0  2  0  0  0  0  0  0  0  0  0
   17.7906   72.1593   -1.0419 O   0  0  0  0  0  0  0  0  0  0  0  0
   18.2309   69.6342   -1.5955 O   0  0  0  0  0  0  0  0  0  0  0  0
   18.9906   71.5481   -3.2162 O   0  0  0  0  0  0  0  0  0  0  0  0
   18.3222   70.1949   -5.0413 O   0  0  0  0  0  0  0  0  0  0  0  0
   20.9420   72.8225   -6.8580 O   0  0  0  0  0  0  0  0  0  0  0  0
   21.5708   71.6723   -4.2472 O   0  0  0  0  0  0  0  0  0  0  0  0
   18.0745   73.1417   -7.2133 O   0  0  0  0  0  0  0  0  0  0  0  0
   19.9614   72.4092   -5.9064 C   0  0  2  0  0  0  0  0  0  0  0  0
   20.5057   71.2397   -5.0857 C   0  0  2  0  0  0  0  0  0  0  0  0
   18.7079   71.9831   -6.6738 C   0  0  1  0  0  0  0  0  0  0  0  0
   19.4080   70.6225   -4.2181 C   0  0  1  0  0  0  0  0  0  0  0  0
   17.7158   71.2636   -5.7647 C   0  0  1  0  0  0  0  0  0  0  0  0
   21.7479   73.0979   -6.3932 H   0  0  0  0  0  0  0  0  0  0  0  0
   22.2708   72.0653   -4.7912 H   0  0  0  0  0  0  0  0  0  0  0  0
   18.6954   73.6089   -7.7938 H   0  0  0  0  0  0  0  0  0  0  0  0
   16.3117   69.3979   -5.9867 O   0  0  0  0  0  0  0  0  0  0  0  0
   16.1836   70.9950   -7.6091 O   0  0  0  0  0  0  0  0  0  0  0  0
   16.6651   70.5703   -6.5695 C   0  0  0  0  0  0  0  0  0  0  0  0
  1  4  1  0
  1 24  1  0
  1  2  1  1
  1  3  2  0
 25 28  1  0
 25 24  1  0
 25 26  1  1
 25 27  2  0
  6 11  1  0
  6 12  1  0
 29 36  1  0
 29 37  1  0
  9  7  1  1
  7 13  1  0
 10  8  1  1
  8 14  1  0
  4  5  1  0
 36 28  1  1
 33 30  1  6
 30 38  1  0
 34 31  1  1
 31 39  1  0
 35 32  1  1
 32 40  1  0
 41 43  1  0
 15 19  2  0
 42 43  2  0
 16 22  2  0
 12 17  1  6
 17 19  1  0
 17 20  1  0
 18 19  1  0
 18 22  1  0
 18 23  1  0
  9 10  1  0
  9 11  1  0
 10 12  1  0
 11  5  1  6
 33 34  1  0
 33 35  1  0
 34 36  1  0
 35 37  1  0
 37 43  1  6
 20 21  2  0
 21 22  1  0
M  CHG  3   2  -1  26  -1  41  -1
M  END
>  <COMPND>  (92) 
    udp_gluA.pdb 

>  <AUTHOR>  (92) 
    GENERATED BY OPEN BABEL 3.1.1

>  <MASTER>  (92) 
        0    0    0    0    0    0    0    0   56    0   56    0

>  <minimizedAffinity>  (92) 
-8.69673

>  <CNNscore>  (92) 
0.6102878451

>  <CNNaffinity>  (92) 
4.4947900772

>  <CNN_VS>  (92) 
2.7431156635

>  <CNNaffinity_variance>  (92) 
0.1376077235

$$$$
93
     RDKit          3D

 43 45  0  0  0  0  0  0  0  0999 V2000
   22.0202   69.7010    0.3243 P   0  0  2  0  0  0  0  0  0  0  0  0
   20.4039   69.6888    0.2436 O   0  0  0  0  0  0  0  0  0  0  0  0
   22.6698   68.3521    0.2232 O   0  0  0  0  0  0  0  0  0  0  0  0
   22.3355   70.5333    1.6755 O   0  0  0  0  0  0  0  0  0  0  0  0
   23.4242   70.1243    2.4829 C   0  0  0  0  0  0  0  0  0  0  0  0
   24.5776   70.6719    4.5195 O   0  0  0  0  0  0  0  0  0  0  0  0
   22.3872   72.6610    5.0064 O   0  0  0  0  0  0  0  0  0  0  0  0
   24.4171   74.2260    4.0756 O   0  0  0  0  0  0  0  0  0  0  0  0
   22.9990   72.2738    3.7758 C   0  0  1  0  0  0  0  0  0  0  0  0
   24.3846   72.8743    3.6676 C   0  0  2  0  0  0  0  0  0  0  0  0
   23.3026   70.7836    3.8507 C   0  0  1  0  0  0  0  0  0  0  0  0
   25.1932   71.9683    4.5804 C   0  0  2  0  0  0  0  0  0  0  0  0
   22.1839   73.6096    4.9823 H   0  0  0  0  0  0  0  0  0  0  0  0
   23.8882   74.7615    3.4629 H   0  0  0  0  0  0  0  0  0  0  0  0
   27.2541   73.7229    5.3869 O   0  0  0  0  0  0  0  0  0  0  0  0
   30.4120   71.4365    2.9285 O   0  0  0  0  0  0  0  0  0  0  0  0
   26.5630   71.8547    4.1661 N   0  0  0  0  0  0  0  0  0  0  0  0
   28.8248   72.5831    4.1609 N   0  0  0  0  0  0  0  0  0  0  0  0
   27.5201   72.7884    4.6287 C   0  0  0  0  0  0  0  0  0  0  0  0
   26.9466   70.8270    3.3130 C   0  0  0  0  0  0  0  0  0  0  0  0
   28.1941   70.6441    2.8758 C   0  0  0  0  0  0  0  0  0  0  0  0
   29.2544   71.5764    3.3114 C   0  0  0  0  0  0  0  0  0  0  0  0
   29.5083   73.2218    4.4677 H   0  0  0  0  0  0  0  0  0  0  0  0
   22.4341   70.7370   -0.8455 O   0  0  0  0  0  0  0  0  0  0  0  0
   22.3754   70.5990   -2.4552 P   0  0  2  0  0  0  0  0  0  0  0  0
   22.8106   69.0609   -2.7106 O   0  0  0  0  0  0  0  0  0  0  0  0
   23.2094   71.6078   -3.1905 O   0  0  0  0  0  0  0  0  0  0  0  0
   20.8029   70.6420   -2.8127 O   0  0  0  0  0  0  0  0  0  0  0  0
   19.4316   69.3558   -4.2529 O   0  0  0  0  0  0  0  0  0  0  0  0
   17.8287   73.1348   -4.7191 O   0  0  0  0  0  0  0  0  0  0  0  0
   20.7237   72.7563   -4.6180 O   0  0  0  0  0  0  0  0  0  0  0  0
   16.4429   71.1506   -3.1088 O   0  0  0  0  0  0  0  0  0  0  0  0
   18.4745   72.0703   -4.0208 C   0  0  2  0  0  0  0  0  0  0  0  0
   19.7745   71.7030   -4.7369 C   0  0  2  0  0  0  0  0  0  0  0  0
   17.5221   70.8726   -3.9991 C   0  0  1  0  0  0  0  0  0  0  0  0
   20.3760   70.4226   -4.1560 C   0  0  1  0  0  0  0  0  0  0  0  0
   18.2303   69.6062   -3.5267 C   0  0  1  0  0  0  0  0  0  0  0  0
   18.4153   73.9071   -4.7457 H   0  0  0  0  0  0  0  0  0  0  0  0
   20.3484   73.5720   -4.9845 H   0  0  0  0  0  0  0  0  0  0  0  0
   15.9839   71.9545   -3.3982 H   0  0  0  0  0  0  0  0  0  0  0  0
   16.2767   68.7369   -4.4908 O   0  0  0  0  0  0  0  0  0  0  0  0
   17.6966   67.2534   -3.4998 O   0  0  0  0  0  0  0  0  0  0  0  0
   17.4037   68.3961   -3.8180 C   0  0  0  0  0  0  0  0  0  0  0  0
  1  4  1  0
  1 24  1  0
  1  2  1  6
  1  3  2  0
 25 28  1  0
 25 24  1  0
 25 26  1  1
 25 27  2  0
  6 11  1  0
  6 12  1  0
 29 36  1  0
 29 37  1  0
  9  7  1  1
  7 13  1  0
 10  8  1  1
  8 14  1  0
  4  5  1  0
 36 28  1  1
 33 30  1  6
 30 38  1  0
 34 31  1  1
 31 39  1  0
 35 32  1  1
 32 40  1  0
 41 43  1  0
 15 19  2  0
 42 43  2  0
 16 22  2  0
 12 17  1  6
 17 19  1  0
 17 20  1  0
 18 19  1  0
 18 22  1  0
 18 23  1  0
  9 10  1  0
  9 11  1  0
 10 12  1  0
 11  5  1  6
 33 34  1  0
 33 35  1  0
 34 36  1  0
 35 37  1  0
 37 43  1  6
 20 21  2  0
 21 22  1  0
M  CHG  3   2  -1  26  -1  41  -1
M  END
>  <COMPND>  (93) 
    udp_gluA.pdb 

>  <AUTHOR>  (93) 
    GENERATED BY OPEN BABEL 3.1.1

>  <MASTER>  (93) 
        0    0    0    0    0    0    0    0   56    0   56    0

>  <minimizedAffinity>  (93) 
-8.61438

>  <CNNscore>  (93) 
0.5540612340

>  <CNNaffinity>  (93) 
4.5231766701

>  <CNN_VS>  (93) 
2.5061168671

>  <CNNaffinity_variance>  (93) 
0.1180345193

$$$$
94
     RDKit          3D

 43 45  0  0  0  0  0  0  0  0999 V2000
   22.8375   72.8135   -4.0549 P   0  0  2  0  0  0  0  0  0  0  0  0
   23.4973   74.1939   -3.5274 O   0  0  0  0  0  0  0  0  0  0  0  0
   22.8586   72.6298   -5.5441 O   0  0  0  0  0  0  0  0  0  0  0  0
   21.3741   72.7939   -3.3652 O   0  0  0  0  0  0  0  0  0  0  0  0
   20.3253   73.5165   -3.9837 C   0  0  0  0  0  0  0  0  0  0  0  0
   18.2403   72.6555   -4.8137 O   0  0  0  0  0  0  0  0  0  0  0  0
   17.9708   71.2735   -2.1663 O   0  0  0  0  0  0  0  0  0  0  0  0
   18.8261   69.2662   -3.8019 O   0  0  0  0  0  0  0  0  0  0  0  0
   19.1439   71.5184   -2.9425 C   0  0  1  0  0  0  0  0  0  0  0  0
   19.1846   70.5902   -4.1379 C   0  0  2  0  0  0  0  0  0  0  0  0
   18.9939   72.8821   -3.6029 C   0  0  1  0  0  0  0  0  0  0  0  0
   18.1881   71.2448   -5.0795 C   0  0  2  0  0  0  0  0  0  0  0  0
   18.0434   70.4074   -1.7345 H   0  0  0  0  0  0  0  0  0  0  0  0
   19.4913   68.8936   -3.2015 H   0  0  0  0  0  0  0  0  0  0  0  0
   16.3061   70.5106   -7.0532 O   0  0  0  0  0  0  0  0  0  0  0  0
   19.5295   70.3997  -10.3458 O   0  0  0  0  0  0  0  0  0  0  0  0
   18.5084   71.0178   -6.4604 N   0  0  0  0  0  0  0  0  0  0  0  0
   17.9135   70.4551   -8.6910 N   0  0  0  0  0  0  0  0  0  0  0  0
   17.4885   70.6524   -7.3706 C   0  0  0  0  0  0  0  0  0  0  0  0
   19.8187   71.1588   -6.9008 C   0  0  0  0  0  0  0  0  0  0  0  0
   20.2085   70.9676   -8.1626 C   0  0  0  0  0  0  0  0  0  0  0  0
   19.2048   70.5829   -9.1765 C   0  0  0  0  0  0  0  0  0  0  0  0
   17.2216   70.1981   -9.3426 H   0  0  0  0  0  0  0  0  0  0  0  0
   23.6452   71.6853   -3.2258 O   0  0  0  0  0  0  0  0  0  0  0  0
   23.1482   70.2990   -2.5588 P   0  0  2  0  0  0  0  0  0  0  0  0
   24.4452   69.3394   -2.6901 O   0  0  0  0  0  0  0  0  0  0  0  0
   21.8977   69.7355   -3.1693 O   0  0  0  0  0  0  0  0  0  0  0  0
   23.0373   70.6202   -0.9818 O   0  0  0  0  0  0  0  0  0  0  0  0
   23.7250   69.3378    0.8868 O   0  0  0  0  0  0  0  0  0  0  0  0
   20.4017   71.2849    2.3808 O   0  0  0  0  0  0  0  0  0  0  0  0
   20.3745   70.1674   -0.3182 O   0  0  0  0  0  0  0  0  0  0  0  0
   23.0685   72.1580    3.1402 O   0  0  0  0  0  0  0  0  0  0  0  0
   21.5633   71.1278    1.5660 C   0  0  2  0  0  0  0  0  0  0  0  0
   21.3861   69.9163    0.6504 C   0  0  2  0  0  0  0  0  0  0  0  0
   22.7656   70.9247    2.4907 C   0  0  1  0  0  0  0  0  0  0  0  0
   22.6924   69.5790   -0.0698 C   0  0  1  0  0  0  0  0  0  0  0  0
   23.9962   70.4682    1.7124 C   0  0  1  0  0  0  0  0  0  0  0  0
   19.6246   71.4154    1.8147 H   0  0  0  0  0  0  0  0  0  0  0  0
   19.5428   70.3823    0.1317 H   0  0  0  0  0  0  0  0  0  0  0  0
   22.2933   72.4596    3.6391 H   0  0  0  0  0  0  0  0  0  0  0  0
   24.6038   68.8853    3.3331 O   0  0  0  0  0  0  0  0  0  0  0  0
   26.1692   70.4413    2.7607 O   0  0  0  0  0  0  0  0  0  0  0  0
   25.0522   69.9609    2.6396 C   0  0  0  0  0  0  0  0  0  0  0  0
  1  4  1  0
  1 24  1  0
  1  2  1  6
  1  3  2  0
 25 28  1  0
 25 24  1  0
 25 26  1  1
 25 27  2  0
  6 11  1  0
  6 12  1  0
 29 36  1  0
 29 37  1  0
  9  7  1  1
  7 13  1  0
 10  8  1  1
  8 14  1  0
  4  5  1  0
 36 28  1  6
 33 30  1  1
 30 38  1  0
 34 31  1  6
 31 39  1  0
 35 32  1  6
 32 40  1  0
 41 43  1  0
 15 19  2  0
 42 43  2  0
 16 22  2  0
 12 17  1  6
 17 19  1  0
 17 20  1  0
 18 19  1  0
 18 22  1  0
 18 23  1  0
  9 10  1  0
  9 11  1  0
 10 12  1  0
 11  5  1  6
 33 34  1  0
 33 35  1  0
 34 36  1  0
 35 37  1  0
 37 43  1  1
 20 21  2  0
 21 22  1  0
M  CHG  3   2  -1  26  -1  41  -1
M  END
>  <COMPND>  (94) 
    udp_gluA.pdb 

>  <AUTHOR>  (94) 
    GENERATED BY OPEN BABEL 3.1.1

>  <MASTER>  (94) 
        0    0    0    0    0    0    0    0   56    0   56    0

>  <minimizedAffinity>  (94) 
-9.19245

>  <CNNscore>  (94) 
0.5160911083

>  <CNNaffinity>  (94) 
4.6076059341

>  <CNN_VS>  (94) 
2.3779444695

>  <CNNaffinity_variance>  (94) 
0.0281436052

$$$$
95
     RDKit          3D

 43 45  0  0  0  0  0  0  0  0999 V2000
   22.3905   69.3886    0.3714 P   0  0  2  0  0  0  0  0  0  0  0  0
   20.7940   69.2797    0.6125 O   0  0  0  0  0  0  0  0  0  0  0  0
   23.0488   68.1226   -0.0931 O   0  0  0  0  0  0  0  0  0  0  0  0
   22.9517   70.0044    1.7584 O   0  0  0  0  0  0  0  0  0  0  0  0
   22.6503   71.3520    2.0707 C   0  0  0  0  0  0  0  0  0  0  0  0
   23.7834   70.9124    4.1445 O   0  0  0  0  0  0  0  0  0  0  0  0
   22.0181   73.0203    5.3411 O   0  0  0  0  0  0  0  0  0  0  0  0
   24.3679   74.3526    4.9677 O   0  0  0  0  0  0  0  0  0  0  0  0
   22.6019   72.9627    4.0394 C   0  0  1  0  0  0  0  0  0  0  0  0
   24.0840   73.2624    4.1160 C   0  0  2  0  0  0  0  0  0  0  0  0
   22.5937   71.5096    3.5848 C   0  0  1  0  0  0  0  0  0  0  0  0
   24.6444   71.9506    4.6386 C   0  0  2  0  0  0  0  0  0  0  0  0
   22.0122   73.9392    5.6529 H   0  0  0  0  0  0  0  0  0  0  0  0
   23.9906   75.1637    4.5913 H   0  0  0  0  0  0  0  0  0  0  0  0
   26.9360   73.2742    5.6251 O   0  0  0  0  0  0  0  0  0  0  0  0
   29.7283   70.9283    2.8066 O   0  0  0  0  0  0  0  0  0  0  0  0
   25.9825   71.7051    4.1804 N   0  0  0  0  0  0  0  0  0  0  0  0
   28.3244   72.1053    4.2197 N   0  0  0  0  0  0  0  0  0  0  0  0
   27.0640   72.4244    4.7418 C   0  0  0  0  0  0  0  0  0  0  0  0
   26.2133   70.7604    3.1878 C   0  0  0  0  0  0  0  0  0  0  0  0
   27.4205   70.4671    2.7004 C   0  0  0  0  0  0  0  0  0  0  0  0
   28.6038   71.1743    3.2323 C   0  0  0  0  0  0  0  0  0  0  0  0
   29.0927   72.5946    4.5935 H   0  0  0  0  0  0  0  0  0  0  0  0
   22.5186   70.6302   -0.6556 O   0  0  0  0  0  0  0  0  0  0  0  0
   22.3531   70.7001   -2.2623 P   0  0  2  0  0  0  0  0  0  0  0  0
   23.1025   69.3581   -2.7700 O   0  0  0  0  0  0  0  0  0  0  0  0
   22.8688   71.9676   -2.8799 O   0  0  0  0  0  0  0  0  0  0  0  0
   20.7870   70.4161   -2.5252 O   0  0  0  0  0  0  0  0  0  0  0  0
   19.3559   71.5946   -3.9991 O   0  0  0  0  0  0  0  0  0  0  0  0
   16.6907   70.2261   -1.1546 O   0  0  0  0  0  0  0  0  0  0  0  0
   19.2875   71.2995   -0.3556 O   0  0  0  0  0  0  0  0  0  0  0  0
   16.8290   68.9452   -3.7605 O   0  0  0  0  0  0  0  0  0  0  0  0
   17.8613   70.1842   -1.9705 C   0  0  2  0  0  0  0  0  0  0  0  0
   18.7412   71.3968   -1.6658 C   0  0  2  0  0  0  0  0  0  0  0  0
   17.4179   70.2028   -3.4351 C   0  0  1  0  0  0  0  0  0  0  0  0
   19.8845   71.5106   -2.6751 C   0  0  1  0  0  0  0  0  0  0  0  0
   18.5980   70.4457   -4.3714 C   0  0  1  0  0  0  0  0  0  0  0  0
   16.9478   70.2152   -0.2191 H   0  0  0  0  0  0  0  0  0  0  0  0
   18.5675   71.2268    0.2899 H   0  0  0  0  0  0  0  0  0  0  0  0
   16.0765   68.7784   -3.1716 H   0  0  0  0  0  0  0  0  0  0  0  0
   16.8014   71.0925   -5.7336 O   0  0  0  0  0  0  0  0  0  0  0  0
   18.8223   70.7978   -6.7478 O   0  0  0  0  0  0  0  0  0  0  0  0
   18.1229   70.7882   -5.7459 C   0  0  0  0  0  0  0  0  0  0  0  0
  1  4  1  0
  1 24  1  0
  1  2  1  1
  1  3  2  0
 25 28  1  0
 25 24  1  0
 25 26  1  6
 25 27  2  0
  6 11  1  0
  6 12  1  0
 29 36  1  0
 29 37  1  0
  9  7  1  1
  7 13  1  0
 10  8  1  1
  8 14  1  0
  4  5  1  0
 36 28  1  6
 33 30  1  1
 30 38  1  0
 34 31  1  1
 31 39  1  0
 35 32  1  6
 32 40  1  0
 41 43  1  0
 15 19  2  0
 42 43  2  0
 16 22  2  0
 12 17  1  6
 17 19  1  0
 17 20  1  0
 18 19  1  0
 18 22  1  0
 18 23  1  0
  9 10  1  0
  9 11  1  0
 10 12  1  0
 11  5  1  6
 33 34  1  0
 33 35  1  0
 34 36  1  0
 35 37  1  0
 37 43  1  6
 20 21  2  0
 21 22  1  0
M  CHG  3   2  -1  26  -1  41  -1
M  END
>  <COMPND>  (95) 
    udp_gluA.pdb 

>  <AUTHOR>  (95) 
    GENERATED BY OPEN BABEL 3.1.1

>  <MASTER>  (95) 
        0    0    0    0    0    0    0    0   56    0   56    0

>  <minimizedAffinity>  (95) 
-9.05153

>  <CNNscore>  (95) 
0.4962327480

>  <CNNaffinity>  (95) 
4.6252031326

>  <CNN_VS>  (95) 
2.2951772213

>  <CNNaffinity_variance>  (95) 
0.1796770990

$$$$
96
     RDKit          3D

 43 45  0  0  0  0  0  0  0  0999 V2000
   22.6590   72.4770   -3.4346 P   0  0  2  0  0  0  0  0  0  0  0  0
   24.0575   72.6970   -4.2186 O   0  0  0  0  0  0  0  0  0  0  0  0
   22.2689   73.5924   -2.5096 O   0  0  0  0  0  0  0  0  0  0  0  0
   22.8228   71.0206   -2.7492 O   0  0  0  0  0  0  0  0  0  0  0  0
   23.3846   70.9431   -1.4519 C   0  0  0  0  0  0  0  0  0  0  0  0
   23.4232   69.4324    0.4173 O   0  0  0  0  0  0  0  0  0  0  0  0
   20.4306   69.6198    0.3923 O   0  0  0  0  0  0  0  0  0  0  0  0
   21.1155   71.2969    2.4304 O   0  0  0  0  0  0  0  0  0  0  0  0
   21.4015   70.6280    0.1103 C   0  0  1  0  0  0  0  0  0  0  0  0
   22.0530   71.1013    1.3924 C   0  0  2  0  0  0  0  0  0  0  0  0
   22.5667   69.9683   -0.6145 C   0  0  1  0  0  0  0  0  0  0  0  0
   23.0253   69.9721    1.6877 C   0  0  2  0  0  0  0  0  0  0  0  0
   19.6762   70.0174    0.8554 H   0  0  0  0  0  0  0  0  0  0  0  0
   20.5198   72.0260    2.1949 H   0  0  0  0  0  0  0  0  0  0  0  0
   23.1519   70.3748    4.4802 O   0  0  0  0  0  0  0  0  0  0  0  0
   27.5589   71.7086    4.2720 O   0  0  0  0  0  0  0  0  0  0  0  0
   24.1933   70.4241    2.3894 N   0  0  0  0  0  0  0  0  0  0  0  0
   25.3464   71.0397    4.3737 N   0  0  0  0  0  0  0  0  0  0  0  0
   24.1515   70.5942    3.7935 C   0  0  0  0  0  0  0  0  0  0  0  0
   25.3630   70.6921    1.6888 C   0  0  0  0  0  0  0  0  0  0  0  0
   26.4942   71.1160    2.2558 C   0  0  0  0  0  0  0  0  0  0  0  0
   26.5347   71.3201    3.7187 C   0  0  0  0  0  0  0  0  0  0  0  0
   25.3411   71.1675    5.3499 H   0  0  0  0  0  0  0  0  0  0  0  0
   21.6109   72.1987   -4.6333 O   0  0  0  0  0  0  0  0  0  0  0  0
   21.1997   73.0964   -5.9135 P   0  0  2  0  0  0  0  0  0  0  0  0
   22.2130   72.5824   -7.0664 O   0  0  0  0  0  0  0  0  0  0  0  0
   21.2430   74.5767   -5.6670 O   0  0  0  0  0  0  0  0  0  0  0  0
   19.7553   72.5340   -6.3606 O   0  0  0  0  0  0  0  0  0  0  0  0
   19.3943   70.3930   -5.4146 O   0  0  0  0  0  0  0  0  0  0  0  0
   15.9949   70.8815   -7.7111 O   0  0  0  0  0  0  0  0  0  0  0  0
   18.6081   71.6786   -8.7456 O   0  0  0  0  0  0  0  0  0  0  0  0
   15.8606   71.1838   -4.8229 O   0  0  0  0  0  0  0  0  0  0  0  0
   17.0868   71.3025   -6.8935 C   0  0  2  0  0  0  0  0  0  0  0  0
   18.4060   70.9149   -7.5622 C   0  0  2  0  0  0  0  0  0  0  0  0
   16.9551   70.6100   -5.5352 C   0  0  1  0  0  0  0  0  0  0  0  0
   19.5861   71.1409   -6.6160 C   0  0  1  0  0  0  0  0  0  0  0  0
   18.2213   70.7761   -4.7000 C   0  0  1  0  0  0  0  0  0  0  0  0
   16.0576   71.3088   -8.5798 H   0  0  0  0  0  0  0  0  0  0  0  0
   17.8628   71.5402   -9.3505 H   0  0  0  0  0  0  0  0  0  0  0  0
   15.0484   71.0849   -5.3438 H   0  0  0  0  0  0  0  0  0  0  0  0
   17.3347   68.8285   -3.7397 O   0  0  0  0  0  0  0  0  0  0  0  0
   18.9093   69.9571   -2.5373 O   0  0  0  0  0  0  0  0  0  0  0  0
   18.2162   69.8387   -3.5366 C   0  0  0  0  0  0  0  0  0  0  0  0
  1  4  1  0
  1 24  1  0
  1  2  1  6
  1  3  2  0
 25 28  1  0
 25 24  1  0
 25 26  1  6
 25 27  2  0
  6 11  1  0
  6 12  1  0
 29 36  1  0
 29 37  1  0
  9  7  1  1
  7 13  1  0
 10  8  1  1
  8 14  1  0
  4  5  1  0
 36 28  1  1
 33 30  1  6
 30 38  1  0
 34 31  1  6
 31 39  1  0
 35 32  1  1
 32 40  1  0
 41 43  1  0
 15 19  2  0
 42 43  2  0
 16 22  2  0
 12 17  1  6
 17 19  1  0
 17 20  1  0
 18 19  1  0
 18 22  1  0
 18 23  1  0
  9 10  1  0
  9 11  1  0
 10 12  1  0
 11  5  1  1
 33 34  1  0
 33 35  1  0
 34 36  1  0
 35 37  1  0
 37 43  1  1
 20 21  2  0
 21 22  1  0
M  CHG  3   2  -1  26  -1  41  -1
M  END
>  <COMPND>  (96) 
    udp_gluA.pdb 

>  <AUTHOR>  (96) 
    GENERATED BY OPEN BABEL 3.1.1

>  <MASTER>  (96) 
        0    0    0    0    0    0    0    0   56    0   56    0

>  <minimizedAffinity>  (96) 
-9.09510

>  <CNNscore>  (96) 
0.4585253298

>  <CNNaffinity>  (96) 
4.4474983215

>  <CNN_VS>  (96) 
2.0392906666

>  <CNNaffinity_variance>  (96) 
0.0821665972

$$$$
97
     RDKit          3D

 43 45  0  0  0  0  0  0  0  0999 V2000
   22.3206   69.8440   -0.1516 P   0  0  2  0  0  0  0  0  0  0  0  0
   20.7981   69.6399    0.3575 O   0  0  0  0  0  0  0  0  0  0  0  0
   23.0189   68.5871   -0.5812 O   0  0  0  0  0  0  0  0  0  0  0  0
   23.0262   70.6635    1.0519 O   0  0  0  0  0  0  0  0  0  0  0  0
   24.3897   70.4083    1.3352 C   0  0  0  0  0  0  0  0  0  0  0  0
   25.8882   70.1308    3.1940 O   0  0  0  0  0  0  0  0  0  0  0  0
   23.4332   69.9516    4.9065 O   0  0  0  0  0  0  0  0  0  0  0  0
   24.2632   72.5159    5.3212 O   0  0  0  0  0  0  0  0  0  0  0  0
   23.6723   70.7557    3.7512 C   0  0  1  0  0  0  0  0  0  0  0  0
   24.5988   71.9032    4.0938 C   0  0  2  0  0  0  0  0  0  0  0  0
   24.5175   69.9429    2.7800 C   0  0  1  0  0  0  0  0  0  0  0  0
   25.9522   71.2143    4.1348 C   0  0  2  0  0  0  0  0  0  0  0  0
   22.8948   70.4499    5.5418 H   0  0  0  0  0  0  0  0  0  0  0  0
   23.3938   72.9403    5.2436 H   0  0  0  0  0  0  0  0  0  0  0  0
   27.1280   73.1150    5.8615 O   0  0  0  0  0  0  0  0  0  0  0  0
   30.0637   74.5301    2.6022 O   0  0  0  0  0  0  0  0  0  0  0  0
   27.0254   72.0924    3.7634 N   0  0  0  0  0  0  0  0  0  0  0  0
   28.5883   73.8187    4.2363 N   0  0  0  0  0  0  0  0  0  0  0  0
   27.5443   73.0110    4.7062 C   0  0  0  0  0  0  0  0  0  0  0  0
   27.5537   72.0374    2.4793 C   0  0  0  0  0  0  0  0  0  0  0  0
   28.5489   72.8137    2.0460 C   0  0  0  0  0  0  0  0  0  0  0  0
   29.1467   73.8011    2.9684 C   0  0  0  0  0  0  0  0  0  0  0  0
   28.9645   74.4675    4.8741 H   0  0  0  0  0  0  0  0  0  0  0  0
   22.1690   70.9599   -1.3112 O   0  0  0  0  0  0  0  0  0  0  0  0
   22.3079   70.8467   -2.9179 P   0  0  2  0  0  0  0  0  0  0  0  0
   21.8101   69.3377   -3.2268 O   0  0  0  0  0  0  0  0  0  0  0  0
   23.6784   71.1651   -3.4415 O   0  0  0  0  0  0  0  0  0  0  0  0
   21.1340   71.7894   -3.4976 O   0  0  0  0  0  0  0  0  0  0  0  0
   19.1406   71.3517   -4.6992 O   0  0  0  0  0  0  0  0  0  0  0  0
   20.4230   74.8670   -6.4502 O   0  0  0  0  0  0  0  0  0  0  0  0
   22.3295   72.7450   -5.8200 O   0  0  0  0  0  0  0  0  0  0  0  0
   18.2099   74.8982   -4.5655 O   0  0  0  0  0  0  0  0  0  0  0  0
   20.2534   73.9249   -5.3911 C   0  0  2  0  0  0  0  0  0  0  0  0
   20.9147   72.6005   -5.7735 C   0  0  2  0  0  0  0  0  0  0  0  0
   18.7521   73.7261   -5.1710 C   0  0  1  0  0  0  0  0  0  0  0  0
   20.5590   71.5018   -4.7709 C   0  0  1  0  0  0  0  0  0  0  0  0
   18.4758   72.5339   -4.2594 C   0  0  1  0  0  0  0  0  0  0  0  0
   21.3697   75.0092   -6.6081 H   0  0  0  0  0  0  0  0  0  0  0  0
   22.5623   73.4408   -6.4541 H   0  0  0  0  0  0  0  0  0  0  0  0
   18.3792   75.6645   -5.1357 H   0  0  0  0  0  0  0  0  0  0  0  0
   16.3097   72.8741   -3.4266 O   0  0  0  0  0  0  0  0  0  0  0  0
   16.5624   71.2974   -5.0542 O   0  0  0  0  0  0  0  0  0  0  0  0
   17.0335   72.1476   -4.3138 C   0  0  0  0  0  0  0  0  0  0  0  0
  1  4  1  0
  1 24  1  0
  1  2  1  1
  1  3  2  0
 25 28  1  0
 25 24  1  0
 25 26  1  1
 25 27  2  0
  6 11  1  0
  6 12  1  0
 29 36  1  0
 29 37  1  0
  9  7  1  1
  7 13  1  0
 10  8  1  1
  8 14  1  0
  4  5  1  0
 36 28  1  1
 33 30  1  6
 30 38  1  0
 34 31  1  1
 31 39  1  0
 35 32  1  1
 32 40  1  0
 41 43  1  0
 15 19  2  0
 42 43  2  0
 16 22  2  0
 12 17  1  6
 17 19  1  0
 17 20  1  0
 18 19  1  0
 18 22  1  0
 18 23  1  0
  9 10  1  0
  9 11  1  0
 10 12  1  0
 11  5  1  6
 33 34  1  0
 33 35  1  0
 34 36  1  0
 35 37  1  0
 37 43  1  6
 20 21  2  0
 21 22  1  0
M  CHG  3   2  -1  26  -1  41  -1
M  END
>  <COMPND>  (97) 
    udp_gluA.pdb 

>  <AUTHOR>  (97) 
    GENERATED BY OPEN BABEL 3.1.1

>  <MASTER>  (97) 
        0    0    0    0    0    0    0    0   56    0   56    0

>  <minimizedAffinity>  (97) 
-7.89341

>  <CNNscore>  (97) 
0.4408560693

>  <CNNaffinity>  (97) 
4.5663118362

>  <CNN_VS>  (97) 
2.0130863190

>  <CNNaffinity_variance>  (97) 
0.0963074267

$$$$
98
     RDKit          3D

 43 45  0  0  0  0  0  0  0  0999 V2000
   22.2490   69.5484   -0.0809 P   0  0  2  0  0  0  0  0  0  0  0  0
   20.9939   69.1271    0.8497 O   0  0  0  0  0  0  0  0  0  0  0  0
   23.0856   68.4038   -0.5726 O   0  0  0  0  0  0  0  0  0  0  0  0
   23.0280   70.6614    0.7980 O   0  0  0  0  0  0  0  0  0  0  0  0
   24.3950   70.4493    1.0996 C   0  0  0  0  0  0  0  0  0  0  0  0
   25.8733   70.1556    2.9720 O   0  0  0  0  0  0  0  0  0  0  0  0
   23.3997   69.8594    4.6407 O   0  0  0  0  0  0  0  0  0  0  0  0
   24.1538   72.4311    5.1444 O   0  0  0  0  0  0  0  0  0  0  0  0
   23.6336   70.7042    3.5137 C   0  0  1  0  0  0  0  0  0  0  0  0
   24.5236   71.8650    3.9045 C   0  0  2  0  0  0  0  0  0  0  0  0
   24.5145   69.9440    2.5316 C   0  0  1  0  0  0  0  0  0  0  0  0
   25.8944   71.2115    3.9456 C   0  0  2  0  0  0  0  0  0  0  0  0
   22.8389   70.3237    5.2823 H   0  0  0  0  0  0  0  0  0  0  0  0
   23.2745   72.8344    5.0663 H   0  0  0  0  0  0  0  0  0  0  0  0
   27.0959   72.9858    5.7854 O   0  0  0  0  0  0  0  0  0  0  0  0
   29.9311   74.6858    2.5736 O   0  0  0  0  0  0  0  0  0  0  0  0
   26.9487   72.1287    3.6169 N   0  0  0  0  0  0  0  0  0  0  0  0
   28.5061   73.8315    4.1838 N   0  0  0  0  0  0  0  0  0  0  0  0
   27.4829   72.9772    4.6153 C   0  0  0  0  0  0  0  0  0  0  0  0
   27.4438   72.1803    2.3196 C   0  0  0  0  0  0  0  0  0  0  0  0
   28.4195   72.9999    1.9233 C   0  0  0  0  0  0  0  0  0  0  0  0
   29.0314   73.9195    2.9047 C   0  0  0  0  0  0  0  0  0  0  0  0
   28.8923   74.4332    4.8607 H   0  0  0  0  0  0  0  0  0  0  0  0
   21.5567   70.4265   -1.2481 O   0  0  0  0  0  0  0  0  0  0  0  0
   20.0630   71.0317   -1.3768 P   0  0  2  0  0  0  0  0  0  0  0  0
   20.1555   72.4227   -0.5541 O   0  0  0  0  0  0  0  0  0  0  0  0
   18.9803   70.1049   -0.9049 O   0  0  0  0  0  0  0  0  0  0  0  0
   19.9346   71.4798   -2.9212 O   0  0  0  0  0  0  0  0  0  0  0  0
   19.2836   69.4777   -4.0060 O   0  0  0  0  0  0  0  0  0  0  0  0
   18.9436   72.2380   -7.0610 O   0  0  0  0  0  0  0  0  0  0  0  0
   21.2245   72.3207   -5.2375 O   0  0  0  0  0  0  0  0  0  0  0  0
   16.5618   71.2284   -5.7349 O   0  0  0  0  0  0  0  0  0  0  0  0
   18.9074   71.7785   -5.7099 C   0  0  2  0  0  0  0  0  0  0  0  0
   20.2866   71.2531   -5.3109 C   0  0  2  0  0  0  0  0  0  0  0  0
   17.8654   70.6615   -5.6181 C   0  0  1  0  0  0  0  0  0  0  0  0
   20.2315   70.5447   -3.9567 C   0  0  1  0  0  0  0  0  0  0  0  0
   17.9579   69.9214   -4.2868 C   0  0  1  0  0  0  0  0  0  0  0  0
   19.5992   72.9484   -7.1437 H   0  0  0  0  0  0  0  0  0  0  0  0
   21.2644   72.7749   -6.0934 H   0  0  0  0  0  0  0  0  0  0  0  0
   16.4897   71.7026   -6.5780 H   0  0  0  0  0  0  0  0  0  0  0  0
   17.6379   67.7723   -3.4032 O   0  0  0  0  0  0  0  0  0  0  0  0
   16.2564   68.4159   -5.0992 O   0  0  0  0  0  0  0  0  0  0  0  0
   17.1802   68.6465   -4.3335 C   0  0  0  0  0  0  0  0  0  0  0  0
  1  4  1  0
  1 24  1  0
  1  2  1  1
  1  3  2  0
 25 28  1  0
 25 24  1  0
 25 26  1  1
 25 27  2  0
  6 11  1  0
  6 12  1  0
 29 36  1  0
 29 37  1  0
  9  7  1  1
  7 13  1  0
 10  8  1  1
  8 14  1  0
  4  5  1  0
 36 28  1  1
 33 30  1  6
 30 38  1  0
 34 31  1  1
 31 39  1  0
 35 32  1  1
 32 40  1  0
 41 43  1  0
 15 19  2  0
 42 43  2  0
 16 22  2  0
 12 17  1  6
 17 19  1  0
 17 20  1  0
 18 19  1  0
 18 22  1  0
 18 23  1  0
  9 10  1  0
  9 11  1  0
 10 12  1  0
 11  5  1  6
 33 34  1  0
 33 35  1  0
 34 36  1  0
 35 37  1  0
 37 43  1  6
 20 21  2  0
 21 22  1  0
M  CHG  3   2  -1  26  -1  41  -1
M  END
>  <COMPND>  (98) 
    udp_gluA.pdb 

>  <AUTHOR>  (98) 
    GENERATED BY OPEN BABEL 3.1.1

>  <MASTER>  (98) 
        0    0    0    0    0    0    0    0   56    0   56    0

>  <minimizedAffinity>  (98) 
-9.24411

>  <CNNscore>  (98) 
0.4330492318

>  <CNNaffinity>  (98) 
4.5101041794

>  <CNN_VS>  (98) 
1.9530971050

>  <CNNaffinity_variance>  (98) 
0.0174667723

$$$$
99
     RDKit          3D

 43 45  0  0  0  0  0  0  0  0999 V2000
   17.5341   72.3095   -0.0422 P   0  0  2  0  0  0  0  0  0  0  0  0
   17.9527   73.8725   -0.0125 O   0  0  0  0  0  0  0  0  0  0  0  0
   16.1259   72.0226    0.3895 O   0  0  0  0  0  0  0  0  0  0  0  0
   18.6948   71.5800    0.8172 O   0  0  0  0  0  0  0  0  0  0  0  0
   19.8962   72.2863    1.0671 C   0  0  0  0  0  0  0  0  0  0  0  0
   22.2385   72.2729    0.5277 O   0  0  0  0  0  0  0  0  0  0  0  0
   21.5820   70.1108   -1.4435 O   0  0  0  0  0  0  0  0  0  0  0  0
   22.6136   68.7096    0.6562 O   0  0  0  0  0  0  0  0  0  0  0  0
   21.0211   70.3588   -0.1541 C   0  0  1  0  0  0  0  0  0  0  0  0
   21.9968   69.9504    0.9292 C   0  0  2  0  0  0  0  0  0  0  0  0
   20.9410   71.8666    0.0412 C   0  0  1  0  0  0  0  0  0  0  0  0
   22.9812   71.1075    0.9196 C   0  0  2  0  0  0  0  0  0  0  0  0
   21.6432   69.1536   -1.5912 H   0  0  0  0  0  0  0  0  0  0  0  0
   21.9456   68.0057    0.6740 H   0  0  0  0  0  0  0  0  0  0  0  0
   25.2646   72.7075    1.3697 O   0  0  0  0  0  0  0  0  0  0  0  0
   25.1421   71.9257    5.9104 O   0  0  0  0  0  0  0  0  0  0  0  0
   23.5672   71.3391    2.2094 N   0  0  0  0  0  0  0  0  0  0  0  0
   25.2020   72.3157    3.6307 N   0  0  0  0  0  0  0  0  0  0  0  0
   24.7143   72.1592    2.3266 C   0  0  0  0  0  0  0  0  0  0  0  0
   23.0061   70.7589    3.3405 C   0  0  0  0  0  0  0  0  0  0  0  0
   23.4822   70.9174    4.5770 C   0  0  0  0  0  0  0  0  0  0  0  0
   24.6788   71.7586    4.7863 C   0  0  0  0  0  0  0  0  0  0  0  0
   26.0012   72.8808    3.7371 H   0  0  0  0  0  0  0  0  0  0  0  0
   17.8757   71.8711   -1.5600 O   0  0  0  0  0  0  0  0  0  0  0  0
   17.5027   70.5335   -2.3879 P   0  0  2  0  0  0  0  0  0  0  0  0
   15.9128   70.6909   -2.6481 O   0  0  0  0  0  0  0  0  0  0  0  0
   17.8937   69.2561   -1.7029 O   0  0  0  0  0  0  0  0  0  0  0  0
   18.1758   70.7487   -3.8381 O   0  0  0  0  0  0  0  0  0  0  0  0
   19.3107   72.6109   -4.7620 O   0  0  0  0  0  0  0  0  0  0  0  0
   17.4209   71.0446   -8.0852 O   0  0  0  0  0  0  0  0  0  0  0  0
   16.0179   71.2193   -5.5287 O   0  0  0  0  0  0  0  0  0  0  0  0
   20.2743   70.6406   -7.7034 O   0  0  0  0  0  0  0  0  0  0  0  0
   18.0654   71.0031   -6.8121 C   0  0  2  0  0  0  0  0  0  0  0  0
   17.2691   71.8368   -5.8079 C   0  0  2  0  0  0  0  0  0  0  0  0
   19.4759   71.5733   -6.9773 C   0  0  1  0  0  0  0  0  0  0  0  0
   18.0442   72.0053   -4.5003 C   0  0  1  0  0  0  0  0  0  0  0  0
   20.1348   71.8304   -5.6251 C   0  0  1  0  0  0  0  0  0  0  0  0
   16.5226   70.6871   -8.0048 H   0  0  0  0  0  0  0  0  0  0  0  0
   15.5210   71.1091   -6.3541 H   0  0  0  0  0  0  0  0  0  0  0  0
   19.8658   70.4681   -8.5661 H   0  0  0  0  0  0  0  0  0  0  0  0
   21.8489   73.0352   -4.5708 O   0  0  0  0  0  0  0  0  0  0  0  0
   21.8465   73.0091   -6.8508 O   0  0  0  0  0  0  0  0  0  0  0  0
   21.3544   72.6790   -5.7822 C   0  0  0  0  0  0  0  0  0  0  0  0
  1  4  1  0
  1 24  1  0
  1  2  1  6
  1  3  2  0
 25 28  1  0
 25 24  1  0
 25 26  1  6
 25 27  2  0
  6 11  1  0
  6 12  1  0
 29 36  1  0
 29 37  1  0
  9  7  1  6
  7 13  1  0
 10  8  1  6
  8 14  1  0
  4  5  1  0
 36 28  1  6
 33 30  1  6
 30 38  1  0
 34 31  1  1
 31 39  1  0
 35 32  1  6
 32 40  1  0
 41 43  1  0
 15 19  2  0
 42 43  2  0
 16 22  2  0
 12 17  1  1
 17 19  1  0
 17 20  1  0
 18 19  1  0
 18 22  1  0
 18 23  1  0
  9 10  1  0
  9 11  1  0
 10 12  1  0
 11  5  1  1
 33 34  1  0
 33 35  1  0
 34 36  1  0
 35 37  1  0
 37 43  1  6
 20 21  2  0
 21 22  1  0
M  CHG  3   2  -1  26  -1  41  -1
M  END
>  <COMPND>  (99) 
    udp_gluA.pdb 

>  <AUTHOR>  (99) 
    GENERATED BY OPEN BABEL 3.1.1

>  <MASTER>  (99) 
        0    0    0    0    0    0    0    0   56    0   56    0

>  <minimizedAffinity>  (99) 
-7.64947

>  <CNNscore>  (99) 
0.4183222950

>  <CNNaffinity>  (99) 
4.2260947227

>  <CNN_VS>  (99) 
1.7678695917

>  <CNNaffinity_variance>  (99) 
0.3443533480

$$$$
100
     RDKit          3D

 43 45  0  0  0  0  0  0  0  0999 V2000
   21.9563   70.4115   -1.3522 P   0  0  2  0  0  0  0  0  0  0  0  0
   20.5493   70.0727   -0.6279 O   0  0  0  0  0  0  0  0  0  0  0  0
   22.6181   69.2461   -2.0272 O   0  0  0  0  0  0  0  0  0  0  0  0
   22.8234   71.1387   -0.1957 O   0  0  0  0  0  0  0  0  0  0  0  0
   23.6634   70.3433    0.6205 C   0  0  0  0  0  0  0  0  0  0  0  0
   24.2364   70.0237    2.9329 O   0  0  0  0  0  0  0  0  0  0  0  0
   21.7867   71.6314    3.5696 O   0  0  0  0  0  0  0  0  0  0  0  0
   23.7927   73.4510    3.8873 O   0  0  0  0  0  0  0  0  0  0  0  0
   22.7103   71.7805    2.4910 C   0  0  1  0  0  0  0  0  0  0  0  0
   24.0071   72.3811    2.9906 C   0  0  2  0  0  0  0  0  0  0  0  0
   23.1507   70.3900    2.0541 C   0  0  1  0  0  0  0  0  0  0  0  0
   24.6730   71.1872    3.6533 C   0  0  2  0  0  0  0  0  0  0  0  0
   21.4911   72.5069    3.8659 H   0  0  0  0  0  0  0  0  0  0  0  0
   23.3672   74.1861    3.4177 H   0  0  0  0  0  0  0  0  0  0  0  0
   26.2731   72.5485    5.5409 O   0  0  0  0  0  0  0  0  0  0  0  0
   30.1602   71.3976    3.3478 O   0  0  0  0  0  0  0  0  0  0  0  0
   26.1057   71.2593    3.5996 N   0  0  0  0  0  0  0  0  0  0  0  0
   28.2075   71.9749    4.4462 N   0  0  0  0  0  0  0  0  0  0  0  0
   26.8146   71.9690    4.5976 C   0  0  0  0  0  0  0  0  0  0  0  0
   26.7937   70.6307    2.5689 C   0  0  0  0  0  0  0  0  0  0  0  0
   28.1217   70.6450    2.4380 C   0  0  0  0  0  0  0  0  0  0  0  0
   28.9367   71.3651    3.4382 C   0  0  0  0  0  0  0  0  0  0  0  0
   28.7225   72.4643    5.1278 H   0  0  0  0  0  0  0  0  0  0  0  0
   21.5716   71.6320   -2.3396 O   0  0  0  0  0  0  0  0  0  0  0  0
   20.1974   72.4664   -2.5104 P   0  0  2  0  0  0  0  0  0  0  0  0
   20.5691   73.5637   -3.6409 O   0  0  0  0  0  0  0  0  0  0  0  0
   19.6685   73.0501   -1.2323 O   0  0  0  0  0  0  0  0  0  0  0  0
   19.1886   71.4468   -3.2487 O   0  0  0  0  0  0  0  0  0  0  0  0
   17.0920   72.3096   -3.9335 O   0  0  0  0  0  0  0  0  0  0  0  0
   16.4848   68.2393   -4.2958 O   0  0  0  0  0  0  0  0  0  0  0  0
   17.9081   69.3245   -1.9869 O   0  0  0  0  0  0  0  0  0  0  0  0
   16.9116   69.8676   -6.6659 O   0  0  0  0  0  0  0  0  0  0  0  0
   17.2390   69.4512   -4.3155 C   0  0  2  0  0  0  0  0  0  0  0  0
   17.1909   70.1064   -2.9350 C   0  0  2  0  0  0  0  0  0  0  0  0
   16.6201   70.3764   -5.3657 C   0  0  1  0  0  0  0  0  0  0  0  0
   17.7900   71.5129   -2.9757 C   0  0  1  0  0  0  0  0  0  0  0  0
   17.1789   71.7923   -5.2594 C   0  0  1  0  0  0  0  0  0  0  0  0
   16.8599   67.6355   -3.6354 H   0  0  0  0  0  0  0  0  0  0  0  0
   17.5334   68.4306   -1.9560 H   0  0  0  0  0  0  0  0  0  0  0  0
   16.5613   68.9667   -6.7466 H   0  0  0  0  0  0  0  0  0  0  0  0
   16.1707   73.9076   -5.3632 O   0  0  0  0  0  0  0  0  0  0  0  0
   15.8901   72.5323   -7.1601 O   0  0  0  0  0  0  0  0  0  0  0  0
   16.3482   72.7511   -6.0487 C   0  0  0  0  0  0  0  0  0  0  0  0
  1  4  1  0
  1 24  1  0
  1  2  1  1
  1  3  2  0
 25 28  1  0
 25 24  1  0
 25 26  1  6
 25 27  2  0
  6 11  1  0
  6 12  1  0
 29 36  1  0
 29 37  1  0
  9  7  1  1
  7 13  1  0
 10  8  1  1
  8 14  1  0
  4  5  1  0
 36 28  1  6
 33 30  1  1
 30 38  1  0
 34 31  1  1
 31 39  1  0
 35 32  1  6
 32 40  1  0
 41 43  1  0
 15 19  2  0
 42 43  2  0
 16 22  2  0
 12 17  1  6
 17 19  1  0
 17 20  1  0
 18 19  1  0
 18 22  1  0
 18 23  1  0
  9 10  1  0
  9 11  1  0
 10 12  1  0
 11  5  1  6
 33 34  1  0
 33 35  1  0
 34 36  1  0
 35 37  1  0
 37 43  1  6
 20 21  2  0
 21 22  1  0
M  CHG  3   2  -1  26  -1  41  -1
M  END
>  <COMPND>  (100) 
    udp_gluA.pdb 

>  <AUTHOR>  (100) 
    GENERATED BY OPEN BABEL 3.1.1

>  <MASTER>  (100) 
        0    0    0    0    0    0    0    0   56    0   56    0

>  <minimizedAffinity>  (100) 
-7.62346

>  <CNNscore>  (100) 
0.4160962701

>  <CNNaffinity>  (100) 
4.3856391907

>  <CNN_VS>  (100) 
1.8248480558

>  <CNNaffinity_variance>  (100) 
0.0137665542

$$$$
101
     RDKit          3D

 43 45  0  0  0  0  0  0  0  0999 V2000
   21.0371   71.5180   -2.3718 P   0  0  2  0  0  0  0  0  0  0  0  0
   21.3329   72.9514   -1.6813 O   0  0  0  0  0  0  0  0  0  0  0  0
   21.7435   71.2847   -3.6750 O   0  0  0  0  0  0  0  0  0  0  0  0
   19.4219   71.4378   -2.4240 O   0  0  0  0  0  0  0  0  0  0  0  0
   18.6923   72.6317   -2.6399 C   0  0  0  0  0  0  0  0  0  0  0  0
   17.0396   72.3964   -4.3693 O   0  0  0  0  0  0  0  0  0  0  0  0
   15.4721   70.7750   -2.3931 O   0  0  0  0  0  0  0  0  0  0  0  0
   16.6058   68.8601   -3.9691 O   0  0  0  0  0  0  0  0  0  0  0  0
   16.8848   70.8421   -2.5886 C   0  0  1  0  0  0  0  0  0  0  0  0
   17.2757   70.0974   -3.8475 C   0  0  2  0  0  0  0  0  0  0  0  0
   17.2421   72.2788   -2.9444 C   0  0  1  0  0  0  0  0  0  0  0  0
   16.8821   71.0846   -4.9330 C   0  0  2  0  0  0  0  0  0  0  0  0
   15.2198   69.8662   -2.1647 H   0  0  0  0  0  0  0  0  0  0  0  0
   16.8906   68.2668   -3.2558 H   0  0  0  0  0  0  0  0  0  0  0  0
   15.9080   70.6245   -7.5437 O   0  0  0  0  0  0  0  0  0  0  0  0
   20.1543   70.6831   -9.3352 O   0  0  0  0  0  0  0  0  0  0  0  0
   17.7110   70.9753   -6.1000 N   0  0  0  0  0  0  0  0  0  0  0  0
   18.0239   70.6531   -8.4333 N   0  0  0  0  0  0  0  0  0  0  0  0
   17.1217   70.7431   -7.3652 C   0  0  0  0  0  0  0  0  0  0  0  0
   19.0903   71.0993   -5.9851 C   0  0  0  0  0  0  0  0  0  0  0  0
   19.9375   71.0112   -7.0124 C   0  0  0  0  0  0  0  0  0  0  0  0
   19.4030   70.7689   -8.3685 C   0  0  0  0  0  0  0  0  0  0  0  0
   17.6372   70.4897   -9.3239 H   0  0  0  0  0  0  0  0  0  0  0  0
   21.4156   70.4672   -1.2032 O   0  0  0  0  0  0  0  0  0  0  0  0
   21.0955   70.4815    0.3814 P   0  0  2  0  0  0  0  0  0  0  0  0
   21.0849   68.9102    0.7707 O   0  0  0  0  0  0  0  0  0  0  0  0
   19.8403   71.2183    0.7495 O   0  0  0  0  0  0  0  0  0  0  0  0
   22.4370   71.0612    1.0647 O   0  0  0  0  0  0  0  0  0  0  0  0
   24.1933   70.2408    2.4254 O   0  0  0  0  0  0  0  0  0  0  0  0
   23.2982   73.8236    4.2775 O   0  0  0  0  0  0  0  0  0  0  0  0
   21.1611   72.0786    3.3170 O   0  0  0  0  0  0  0  0  0  0  0  0
   25.6807   73.5887    2.6286 O   0  0  0  0  0  0  0  0  0  0  0  0
   23.4316   72.9224    3.1784 C   0  0  2  0  0  0  0  0  0  0  0  0
   22.5319   71.7065    3.4014 C   0  0  2  0  0  0  0  0  0  0  0  0
   24.8977   72.4917    3.0953 C   0  0  1  0  0  0  0  0  0  0  0  0
   22.8171   70.6177    2.3660 C   0  0  1  0  0  0  0  0  0  0  0  0
   25.0803   71.3191    2.1360 C   0  0  1  0  0  0  0  0  0  0  0  0
   22.3743   74.1109    4.3501 H   0  0  0  0  0  0  0  0  0  0  0  0
   20.9732   72.7695    3.9711 H   0  0  0  0  0  0  0  0  0  0  0  0
   25.5733   74.3418    3.2303 H   0  0  0  0  0  0  0  0  0  0  0  0
   27.2669   71.0963    1.3173 O   0  0  0  0  0  0  0  0  0  0  0  0
   26.7426   69.9400    3.2113 O   0  0  0  0  0  0  0  0  0  0  0  0
   26.4289   70.6991    2.3067 C   0  0  0  0  0  0  0  0  0  0  0  0
  1  4  1  0
  1 24  1  0
  1  2  1  1
  1  3  2  0
 25 28  1  0
 25 24  1  0
 25 26  1  1
 25 27  2  0
  6 11  1  0
  6 12  1  0
 29 36  1  0
 29 37  1  0
  9  7  1  6
  7 13  1  0
 10  8  1  6
  8 14  1  0
  4  5  1  0
 36 28  1  6
 33 30  1  1
 30 38  1  0
 34 31  1  6
 31 39  1  0
 35 32  1  6
 32 40  1  0
 41 43  1  0
 15 19  2  0
 42 43  2  0
 16 22  2  0
 12 17  1  6
 17 19  1  0
 17 20  1  0
 18 19  1  0
 18 22  1  0
 18 23  1  0
  9 10  1  0
  9 11  1  0
 10 12  1  0
 11  5  1  6
 33 34  1  0
 33 35  1  0
 34 36  1  0
 35 37  1  0
 37 43  1  1
 20 21  2  0
 21 22  1  0
M  CHG  3   2  -1  26  -1  41  -1
M  END
>  <COMPND>  (101) 
    udp_gluA.pdb 

>  <AUTHOR>  (101) 
    GENERATED BY OPEN BABEL 3.1.1

>  <MASTER>  (101) 
        0    0    0    0    0    0    0    0   56    0   56    0

>  <minimizedAffinity>  (101) 
-8.41226

>  <CNNscore>  (101) 
0.7812302709

>  <CNNaffinity>  (101) 
4.9864659309

>  <CNN_VS>  (101) 
3.8955781460

>  <CNNaffinity_variance>  (101) 
0.1841139495

$$$$
102
     RDKit          3D

 43 45  0  0  0  0  0  0  0  0999 V2000
   21.8324   72.2164   -1.1505 P   0  0  2  0  0  0  0  0  0  0  0  0
   20.8548   72.3635    0.1308 O   0  0  0  0  0  0  0  0  0  0  0  0
   22.9587   73.2066   -1.2050 O   0  0  0  0  0  0  0  0  0  0  0  0
   20.8219   72.2314   -2.4140 O   0  0  0  0  0  0  0  0  0  0  0  0
   20.1479   71.0339   -2.7549 C   0  0  0  0  0  0  0  0  0  0  0  0
   18.2454   71.8497   -3.9767 O   0  0  0  0  0  0  0  0  0  0  0  0
   16.5649   70.3577   -1.9914 O   0  0  0  0  0  0  0  0  0  0  0  0
   16.5537   68.6934   -4.1515 O   0  0  0  0  0  0  0  0  0  0  0  0
   17.8303   70.0046   -2.5504 C   0  0  1  0  0  0  0  0  0  0  0  0
   17.6617   69.5534   -3.9858 C   0  0  2  0  0  0  0  0  0  0  0  0
   18.6454   71.2806   -2.7112 C   0  0  1  0  0  0  0  0  0  0  0  0
   17.4896   70.8757   -4.7138 C   0  0  2  0  0  0  0  0  0  0  0  0
   16.0262   69.5584   -1.8793 H   0  0  0  0  0  0  0  0  0  0  0  0
   16.7119   67.8659   -3.6696 H   0  0  0  0  0  0  0  0  0  0  0  0
   15.9491   70.0810   -6.9436 O   0  0  0  0  0  0  0  0  0  0  0  0
   19.4758   70.7262   -9.8403 O   0  0  0  0  0  0  0  0  0  0  0  0
   17.9802   70.8267   -6.0621 N   0  0  0  0  0  0  0  0  0  0  0  0
   17.7074   70.4021   -8.3840 N   0  0  0  0  0  0  0  0  0  0  0  0
   17.1243   70.4130   -7.1101 C   0  0  0  0  0  0  0  0  0  0  0  0
   19.2940   71.1873   -6.3356 C   0  0  0  0  0  0  0  0  0  0  0  0
   19.8356   71.1719   -7.5551 C   0  0  0  0  0  0  0  0  0  0  0  0
   19.0091   70.7512   -8.7054 C   0  0  0  0  0  0  0  0  0  0  0  0
   17.1315   70.1156   -9.1295 H   0  0  0  0  0  0  0  0  0  0  0  0
   22.2982   70.6703   -1.0759 O   0  0  0  0  0  0  0  0  0  0  0  0
   22.5034   69.6834    0.1880 P   0  0  2  0  0  0  0  0  0  0  0  0
   23.5255   68.5636   -0.3794 O   0  0  0  0  0  0  0  0  0  0  0  0
   21.2266   69.1276    0.7491 O   0  0  0  0  0  0  0  0  0  0  0  0
   23.3794   70.5395    1.2378 O   0  0  0  0  0  0  0  0  0  0  0  0
   24.6739   70.0607    3.1624 O   0  0  0  0  0  0  0  0  0  0  0  0
   22.6692   73.4801    4.3271 O   0  0  0  0  0  0  0  0  0  0  0  0
   21.2766   71.3760    2.8548 O   0  0  0  0  0  0  0  0  0  0  0  0
   25.4757   73.6164    3.5817 O   0  0  0  0  0  0  0  0  0  0  0  0
   23.3028   72.5901    3.4082 C   0  0  2  0  0  0  0  0  0  0  0  0
   22.5774   71.2443    3.4163 C   0  0  2  0  0  0  0  0  0  0  0  0
   24.7578   72.4131    3.8482 C   0  0  1  0  0  0  0  0  0  0  0  0
   23.3589   70.1967    2.6223 C   0  0  1  0  0  0  0  0  0  0  0  0
   25.4311   71.2672    3.0985 C   0  0  1  0  0  0  0  0  0  0  0  0
   21.7431   73.6077    4.0676 H   0  0  0  0  0  0  0  0  0  0  0  0
   20.7752   72.0394    3.3536 H   0  0  0  0  0  0  0  0  0  0  0  0
   25.0573   74.3537    4.0530 H   0  0  0  0  0  0  0  0  0  0  0  0
   27.2304   69.7655    3.1923 O   0  0  0  0  0  0  0  0  0  0  0  0
   27.2490   71.5045    4.6670 O   0  0  0  0  0  0  0  0  0  0  0  0
   26.7198   70.8896    3.7533 C   0  0  0  0  0  0  0  0  0  0  0  0
  1  4  1  0
  1 24  1  0
  1  2  1  1
  1  3  2  0
 25 28  1  0
 25 24  1  0
 25 26  1  6
 25 27  2  0
  6 11  1  0
  6 12  1  0
 29 36  1  0
 29 37  1  0
  9  7  1  6
  7 13  1  0
 10  8  1  1
  8 14  1  0
  4  5  1  0
 36 28  1  6
 33 30  1  1
 30 38  1  0
 34 31  1  6
 31 39  1  0
 35 32  1  6
 32 40  1  0
 41 43  1  0
 15 19  2  0
 42 43  2  0
 16 22  2  0
 12 17  1  6
 17 19  1  0
 17 20  1  0
 18 19  1  0
 18 22  1  0
 18 23  1  0
  9 10  1  0
  9 11  1  0
 10 12  1  0
 11  5  1  6
 33 34  1  0
 33 35  1  0
 34 36  1  0
 35 37  1  0
 37 43  1  1
 20 21  2  0
 21 22  1  0
M  CHG  3   2  -1  26  -1  41  -1
M  END
>  <COMPND>  (102) 
    udp_gluA.pdb 

>  <AUTHOR>  (102) 
    GENERATED BY OPEN BABEL 3.1.1

>  <MASTER>  (102) 
        0    0    0    0    0    0    0    0   56    0   56    0

>  <minimizedAffinity>  (102) 
-8.81116

>  <CNNscore>  (102) 
0.7629241943

>  <CNNaffinity>  (102) 
4.9338660240

>  <CNN_VS>  (102) 
3.7641658783

>  <CNNaffinity_variance>  (102) 
0.4317464828

$$$$
103
     RDKit          3D

 43 45  0  0  0  0  0  0  0  0999 V2000
   20.9591   70.6441    0.6680 P   0  0  2  0  0  0  0  0  0  0  0  0
   19.9876   71.3424    1.7577 O   0  0  0  0  0  0  0  0  0  0  0  0
   20.9796   69.1441    0.7066 O   0  0  0  0  0  0  0  0  0  0  0  0
   22.3858   71.3723    0.8963 O   0  0  0  0  0  0  0  0  0  0  0  0
   23.3957   70.6748    1.6020 C   0  0  0  0  0  0  0  0  0  0  0  0
   24.3857   70.4667    3.7825 O   0  0  0  0  0  0  0  0  0  0  0  0
   22.2362   72.3295    4.7318 O   0  0  0  0  0  0  0  0  0  0  0  0
   24.3965   73.9782    4.5058 O   0  0  0  0  0  0  0  0  0  0  0  0
   22.9387   72.3190    3.4889 C   0  0  1  0  0  0  0  0  0  0  0  0
   24.3498   72.8335    3.6800 C   0  0  2  0  0  0  0  0  0  0  0  0
   23.1792   70.8673    3.0975 C   0  0  1  0  0  0  0  0  0  0  0  0
   25.0412   71.6334    4.3043 C   0  0  2  0  0  0  0  0  0  0  0  0
   22.0711   73.2466    5.0025 H   0  0  0  0  0  0  0  0  0  0  0  0
   23.9435   74.7142    4.0641 H   0  0  0  0  0  0  0  0  0  0  0  0
   27.0527   73.1416    5.5911 O   0  0  0  0  0  0  0  0  0  0  0  0
   30.3631   71.3171    2.9537 O   0  0  0  0  0  0  0  0  0  0  0  0
   26.4368   71.5719    3.9739 N   0  0  0  0  0  0  0  0  0  0  0  0
   28.6994   72.2322    4.2756 N   0  0  0  0  0  0  0  0  0  0  0  0
   27.3656   72.3712    4.6814 C   0  0  0  0  0  0  0  0  0  0  0  0
   26.8732   70.7265    2.9611 C   0  0  0  0  0  0  0  0  0  0  0  0
   28.1479   70.6047    2.5857 C   0  0  0  0  0  0  0  0  0  0  0  0
   29.1816   71.4054    3.2738 C   0  0  0  0  0  0  0  0  0  0  0  0
   29.3642   72.7801    4.7523 H   0  0  0  0  0  0  0  0  0  0  0  0
   20.4488   71.2748   -0.7301 O   0  0  0  0  0  0  0  0  0  0  0  0
   21.1524   71.3414   -2.1840 P   0  0  2  0  0  0  0  0  0  0  0  0
   21.9327   69.9266   -2.2825 O   0  0  0  0  0  0  0  0  0  0  0  0
   22.0257   72.5449   -2.3910 O   0  0  0  0  0  0  0  0  0  0  0  0
   19.9351   71.2090   -3.2343 O   0  0  0  0  0  0  0  0  0  0  0  0
   19.1311   69.2211   -4.2398 O   0  0  0  0  0  0  0  0  0  0  0  0
   18.1465   72.0568   -7.0784 O   0  0  0  0  0  0  0  0  0  0  0  0
   20.7343   72.1515   -5.7261 O   0  0  0  0  0  0  0  0  0  0  0  0
   16.0886   70.9433   -5.3533 O   0  0  0  0  0  0  0  0  0  0  0  0
   18.3821   71.5581   -5.7617 C   0  0  2  0  0  0  0  0  0  0  0  0
   19.8237   71.0605   -5.6533 C   0  0  2  0  0  0  0  0  0  0  0  0
   17.4024   70.4100   -5.5085 C   0  0  1  0  0  0  0  0  0  0  0  0
   20.0469   70.3125   -4.3382 C   0  0  1  0  0  0  0  0  0  0  0  0
   17.7667   69.6352   -4.2454 C   0  0  1  0  0  0  0  0  0  0  0  0
   18.7579   72.7874   -7.2619 H   0  0  0  0  0  0  0  0  0  0  0  0
   20.5981   72.6309   -6.5580 H   0  0  0  0  0  0  0  0  0  0  0  0
   15.8446   71.4390   -6.1504 H   0  0  0  0  0  0  0  0  0  0  0  0
   17.6250   67.4832   -3.3233 O   0  0  0  0  0  0  0  0  0  0  0  0
   16.0101   68.0831   -4.8169 O   0  0  0  0  0  0  0  0  0  0  0  0
   17.0230   68.3408   -4.1841 C   0  0  0  0  0  0  0  0  0  0  0  0
  1  4  1  0
  1 24  1  0
  1  2  1  1
  1  3  2  0
 25 28  1  0
 25 24  1  0
 25 26  1  1
 25 27  2  0
  6 11  1  0
  6 12  1  0
 29 36  1  0
 29 37  1  0
  9  7  1  1
  7 13  1  0
 10  8  1  1
  8 14  1  0
  4  5  1  0
 36 28  1  1
 33 30  1  6
 30 38  1  0
 34 31  1  1
 31 39  1  0
 35 32  1  1
 32 40  1  0
 41 43  1  0
 15 19  2  0
 42 43  2  0
 16 22  2  0
 12 17  1  6
 17 19  1  0
 17 20  1  0
 18 19  1  0
 18 22  1  0
 18 23  1  0
  9 10  1  0
  9 11  1  0
 10 12  1  0
 11  5  1  6
 33 34  1  0
 33 35  1  0
 34 36  1  0
 35 37  1  0
 37 43  1  6
 20 21  2  0
 21 22  1  0
M  CHG  3   2  -1  26  -1  41  -1
M  END
>  <COMPND>  (103) 
    udp_gluA.pdb 

>  <AUTHOR>  (103) 
    GENERATED BY OPEN BABEL 3.1.1

>  <MASTER>  (103) 
        0    0    0    0    0    0    0    0   56    0   56    0

>  <minimizedAffinity>  (103) 
-8.98101

>  <CNNscore>  (103) 
0.7437834144

>  <CNNaffinity>  (103) 
4.6404910088

>  <CNN_VS>  (103) 
3.4515202045

>  <CNNaffinity_variance>  (103) 
0.0529087782

$$$$
104
     RDKit          3D

 43 45  0  0  0  0  0  0  0  0999 V2000
   21.8731   72.1564   -1.1930 P   0  0  2  0  0  0  0  0  0  0  0  0
   20.8746   72.3741    0.0617 O   0  0  0  0  0  0  0  0  0  0  0  0
   23.0364   73.1027   -1.2485 O   0  0  0  0  0  0  0  0  0  0  0  0
   20.8910   72.1741   -2.4787 O   0  0  0  0  0  0  0  0  0  0  0  0
   20.1910   70.9893   -2.8112 C   0  0  0  0  0  0  0  0  0  0  0  0
   18.2991   71.8435   -4.0231 O   0  0  0  0  0  0  0  0  0  0  0  0
   16.5991   70.3859   -2.0289 O   0  0  0  0  0  0  0  0  0  0  0  0
   16.5428   68.7222   -4.1887 O   0  0  0  0  0  0  0  0  0  0  0  0
   17.8541   70.0072   -2.5945 C   0  0  1  0  0  0  0  0  0  0  0  0
   17.6688   69.5596   -4.0289 C   0  0  2  0  0  0  0  0  0  0  0  0
   18.6941   71.2664   -2.7597 C   0  0  1  0  0  0  0  0  0  0  0  0
   17.5198   70.8850   -4.7562 C   0  0  2  0  0  0  0  0  0  0  0  0
   16.0448   69.5977   -1.9139 H   0  0  0  0  0  0  0  0  0  0  0  0
   16.6867   67.8917   -3.7076 H   0  0  0  0  0  0  0  0  0  0  0  0
   15.9519   70.1220   -6.9778 O   0  0  0  0  0  0  0  0  0  0  0  0
   19.4758   70.6952   -9.8929 O   0  0  0  0  0  0  0  0  0  0  0  0
   18.0023   70.8261   -6.1070 N   0  0  0  0  0  0  0  0  0  0  0  0
   17.7087   70.4072   -8.4274 N   0  0  0  0  0  0  0  0  0  0  0  0
   17.1327   70.4300   -7.1505 C   0  0  0  0  0  0  0  0  0  0  0  0
   19.3218   71.1598   -6.3873 C   0  0  0  0  0  0  0  0  0  0  0  0
   19.8565   71.1334   -7.6097 C   0  0  0  0  0  0  0  0  0  0  0  0
   19.0156   70.7297   -8.7557 C   0  0  0  0  0  0  0  0  0  0  0  0
   17.1233   70.1326   -9.1699 H   0  0  0  0  0  0  0  0  0  0  0  0
   22.2792   70.5969   -1.0674 O   0  0  0  0  0  0  0  0  0  0  0  0
   22.4684   69.6505    0.2296 P   0  0  2  0  0  0  0  0  0  0  0  0
   23.4998   68.5154   -0.2881 O   0  0  0  0  0  0  0  0  0  0  0  0
   21.1847   69.1102    0.7903 O   0  0  0  0  0  0  0  0  0  0  0  0
   23.3284   70.5409    1.2640 O   0  0  0  0  0  0  0  0  0  0  0  0
   24.6573   70.0833    3.1703 O   0  0  0  0  0  0  0  0  0  0  0  0
   22.6521   73.4995    4.3436 O   0  0  0  0  0  0  0  0  0  0  0  0
   21.2477   71.3769    2.9095 O   0  0  0  0  0  0  0  0  0  0  0  0
   25.4451   73.6466    3.5510 O   0  0  0  0  0  0  0  0  0  0  0  0
   23.2757   72.6066    3.4207 C   0  0  2  0  0  0  0  0  0  0  0  0
   22.5583   71.2567    3.4504 C   0  0  2  0  0  0  0  0  0  0  0  0
   24.7387   72.4411    3.8379 C   0  0  1  0  0  0  0  0  0  0  0  0
   23.3328   70.2079    2.6511 C   0  0  1  0  0  0  0  0  0  0  0  0
   25.4062   71.2937    3.0853 C   0  0  1  0  0  0  0  0  0  0  0  0
   21.7211   73.6199    4.0985 H   0  0  0  0  0  0  0  0  0  0  0  0
   20.7507   72.0410    3.4118 H   0  0  0  0  0  0  0  0  0  0  0  0
   25.0302   74.3848    4.0239 H   0  0  0  0  0  0  0  0  0  0  0  0
   27.2191   69.8071    3.1553 O   0  0  0  0  0  0  0  0  0  0  0  0
   27.2456   71.5496    4.6257 O   0  0  0  0  0  0  0  0  0  0  0  0
   26.7078   70.9282    3.7214 C   0  0  0  0  0  0  0  0  0  0  0  0
  1  4  1  0
  1 24  1  0
  1  2  1  1
  1  3  2  0
 25 28  1  0
 25 24  1  0
 25 26  1  6
 25 27  2  0
  6 11  1  0
  6 12  1  0
 29 36  1  0
 29 37  1  0
  9  7  1  6
  7 13  1  0
 10  8  1  1
  8 14  1  0
  4  5  1  0
 36 28  1  6
 33 30  1  1
 30 38  1  0
 34 31  1  6
 31 39  1  0
 35 32  1  6
 32 40  1  0
 41 43  1  0
 15 19  2  0
 42 43  2  0
 16 22  2  0
 12 17  1  6
 17 19  1  0
 17 20  1  0
 18 19  1  0
 18 22  1  0
 18 23  1  0
  9 10  1  0
  9 11  1  0
 10 12  1  0
 11  5  1  6
 33 34  1  0
 33 35  1  0
 34 36  1  0
 35 37  1  0
 37 43  1  1
 20 21  2  0
 21 22  1  0
M  CHG  3   2  -1  26  -1  41  -1
M  END
>  <COMPND>  (104) 
    udp_gluA.pdb 

>  <AUTHOR>  (104) 
    GENERATED BY OPEN BABEL 3.1.1

>  <MASTER>  (104) 
        0    0    0    0    0    0    0    0   56    0   56    0

>  <minimizedAffinity>  (104) 
-8.51673

>  <CNNscore>  (104) 
0.7044828534

>  <CNNaffinity>  (104) 
4.7474846840

>  <CNN_VS>  (104) 
3.3445215225

>  <CNNaffinity_variance>  (104) 
0.2047056407

$$$$
105
     RDKit          3D

 43 45  0  0  0  0  0  0  0  0999 V2000
   21.2089   70.6994    0.8308 P   0  0  2  0  0  0  0  0  0  0  0  0
   20.1819   71.3641    1.8901 O   0  0  0  0  0  0  0  0  0  0  0  0
   20.9890   69.2388    0.5663 O   0  0  0  0  0  0  0  0  0  0  0  0
   22.6690   71.0978    1.4030 O   0  0  0  0  0  0  0  0  0  0  0  0
   23.3106   70.2076    2.2976 C   0  0  0  0  0  0  0  0  0  0  0  0
   24.4660   70.5580    4.3761 O   0  0  0  0  0  0  0  0  0  0  0  0
   22.3327   72.5680    5.0088 O   0  0  0  0  0  0  0  0  0  0  0  0
   24.4148   74.1392    4.2132 O   0  0  0  0  0  0  0  0  0  0  0  0
   22.9410   72.2604    3.7542 C   0  0  1  0  0  0  0  0  0  0  0  0
   24.3446   72.8254    3.6997 C   0  0  2  0  0  0  0  0  0  0  0  0
   23.1995   70.7605    3.7126 C   0  0  1  0  0  0  0  0  0  0  0  0
   25.1196   71.8263    4.5418 C   0  0  2  0  0  0  0  0  0  0  0  0
   22.1580   73.5213    5.0587 H   0  0  0  0  0  0  0  0  0  0  0  0
   23.9062   74.7370    3.6423 H   0  0  0  0  0  0  0  0  0  0  0  0
   27.2097   73.5108    5.4196 O   0  0  0  0  0  0  0  0  0  0  0  0
   30.3322   71.2650    2.8798 O   0  0  0  0  0  0  0  0  0  0  0  0
   26.4882   71.7041    4.1258 N   0  0  0  0  0  0  0  0  0  0  0  0
   28.7627   72.3913    4.1530 N   0  0  0  0  0  0  0  0  0  0  0  0
   27.4608   72.6018    4.6261 C   0  0  0  0  0  0  0  0  0  0  0  0
   26.8554   70.7036    3.2341 C   0  0  0  0  0  0  0  0  0  0  0  0
   28.1005   70.5154    2.7924 C   0  0  0  0  0  0  0  0  0  0  0  0
   29.1763   71.4108    3.2658 C   0  0  0  0  0  0  0  0  0  0  0  0
   29.4568   73.0052    4.4857 H   0  0  0  0  0  0  0  0  0  0  0  0
   21.0560   71.6494   -0.4680 O   0  0  0  0  0  0  0  0  0  0  0  0
   19.9229   72.7327   -0.8632 P   0  0  2  0  0  0  0  0  0  0  0  0
   20.7678   73.8989   -1.6024 O   0  0  0  0  0  0  0  0  0  0  0  0
   19.0951   73.2085    0.2954 O   0  0  0  0  0  0  0  0  0  0  0  0
   19.0791   72.0298   -2.0449 O   0  0  0  0  0  0  0  0  0  0  0  0
   17.5148   70.6784   -0.8892 O   0  0  0  0  0  0  0  0  0  0  0  0
   16.2643   70.2516   -4.8035 O   0  0  0  0  0  0  0  0  0  0  0  0
   19.1100   70.2061   -4.1447 O   0  0  0  0  0  0  0  0  0  0  0  0
   14.7796   71.9555   -2.9749 O   0  0  0  0  0  0  0  0  0  0  0  0
   16.8397   70.9279   -3.6857 C   0  0  2  0  0  0  0  0  0  0  0  0
   18.0580   70.1495   -3.1883 C   0  0  2  0  0  0  0  0  0  0  0  0
   15.7779   71.0135   -2.5869 C   0  0  1  0  0  0  0  0  0  0  0  0
   18.5623   70.7133   -1.8592 C   0  0  1  0  0  0  0  0  0  0  0  0
   16.3837   71.4632   -1.2606 C   0  0  1  0  0  0  0  0  0  0  0  0
   16.9210   70.1853   -5.5146 H   0  0  0  0  0  0  0  0  0  0  0  0
   18.7969   69.8501   -4.9906 H   0  0  0  0  0  0  0  0  0  0  0  0
   14.3862   71.6809   -3.8179 H   0  0  0  0  0  0  0  0  0  0  0  0
   14.4664   70.3471   -0.4994 O   0  0  0  0  0  0  0  0  0  0  0  0
   15.5004   71.7555    0.9656 O   0  0  0  0  0  0  0  0  0  0  0  0
   15.4292   71.2298   -0.1351 C   0  0  0  0  0  0  0  0  0  0  0  0
  1  4  1  0
  1 24  1  0
  1  2  1  1
  1  3  2  0
 25 28  1  0
 25 24  1  0
 25 26  1  6
 25 27  2  0
  6 11  1  0
  6 12  1  0
 29 36  1  0
 29 37  1  0
  9  7  1  1
  7 13  1  0
 10  8  1  1
  8 14  1  0
  4  5  1  0
 36 28  1  6
 33 30  1  6
 30 38  1  0
 34 31  1  6
 31 39  1  0
 35 32  1  6
 32 40  1  0
 41 43  1  0
 15 19  2  0
 42 43  2  0
 16 22  2  0
 12 17  1  6
 17 19  1  0
 17 20  1  0
 18 19  1  0
 18 22  1  0
 18 23  1  0
  9 10  1  0
  9 11  1  0
 10 12  1  0
 11  5  1  6
 33 34  1  0
 33 35  1  0
 34 36  1  0
 35 37  1  0
 37 43  1  1
 20 21  2  0
 21 22  1  0
M  CHG  3   2  -1  26  -1  41  -1
M  END
>  <COMPND>  (105) 
    udp_gluA.pdb 

>  <AUTHOR>  (105) 
    GENERATED BY OPEN BABEL 3.1.1

>  <MASTER>  (105) 
        0    0    0    0    0    0    0    0   56    0   56    0

>  <minimizedAffinity>  (105) 
-8.17731

>  <CNNscore>  (105) 
0.6842031479

>  <CNNaffinity>  (105) 
4.6476869583

>  <CNN_VS>  (105) 
3.1799621582

>  <CNNaffinity_variance>  (105) 
0.0331205539

$$$$
106
     RDKit          3D

 43 45  0  0  0  0  0  0  0  0999 V2000
   21.0783   70.5562    0.6427 P   0  0  2  0  0  0  0  0  0  0  0  0
   20.1323   71.2982    1.7259 O   0  0  0  0  0  0  0  0  0  0  0  0
   21.0719   69.0574    0.7172 O   0  0  0  0  0  0  0  0  0  0  0  0
   22.5206   71.2631    0.8377 O   0  0  0  0  0  0  0  0  0  0  0  0
   23.5233   70.5672    1.5551 C   0  0  0  0  0  0  0  0  0  0  0  0
   24.4876   70.3720    3.7482 O   0  0  0  0  0  0  0  0  0  0  0  0
   22.2878   72.1874    4.6739 O   0  0  0  0  0  0  0  0  0  0  0  0
   24.4167   73.8806    4.4824 O   0  0  0  0  0  0  0  0  0  0  0  0
   23.0072   72.1954    3.4406 C   0  0  1  0  0  0  0  0  0  0  0  0
   24.4047   72.7379    3.6526 C   0  0  2  0  0  0  0  0  0  0  0  0
   23.2826   70.7503    3.0481 C   0  0  1  0  0  0  0  0  0  0  0  0
   25.1119   71.5502    4.2825 C   0  0  2  0  0  0  0  0  0  0  0  0
   22.1003   73.1000    4.9451 H   0  0  0  0  0  0  0  0  0  0  0  0
   23.9548   74.6086    4.0369 H   0  0  0  0  0  0  0  0  0  0  0  0
   27.0507   73.2174    5.4817 O   0  0  0  0  0  0  0  0  0  0  0  0
   30.4583   71.3407    3.0098 O   0  0  0  0  0  0  0  0  0  0  0  0
   26.5129   71.5183    3.9710 N   0  0  0  0  0  0  0  0  0  0  0  0
   28.7459   72.2818    4.2487 N   0  0  0  0  0  0  0  0  0  0  0  0
   27.4029   72.3985    4.6307 C   0  0  0  0  0  0  0  0  0  0  0  0
   26.9925   70.6220    3.0235 C   0  0  0  0  0  0  0  0  0  0  0  0
   28.2755   70.5224    2.6700 C   0  0  0  0  0  0  0  0  0  0  0  0
   29.2705   71.4067    3.3114 C   0  0  0  0  0  0  0  0  0  0  0  0
   29.3842   72.8857    4.6929 H   0  0  0  0  0  0  0  0  0  0  0  0
   20.5636   71.1626   -0.7645 O   0  0  0  0  0  0  0  0  0  0  0  0
   21.1493   71.0103   -2.2636 P   0  0  2  0  0  0  0  0  0  0  0  0
   22.0438   69.6640   -2.1762 O   0  0  0  0  0  0  0  0  0  0  0  0
   21.8936   72.2162   -2.7594 O   0  0  0  0  0  0  0  0  0  0  0  0
   19.8746   70.5947   -3.1607 O   0  0  0  0  0  0  0  0  0  0  0  0
   18.3377   72.2516   -3.8689 O   0  0  0  0  0  0  0  0  0  0  0  0
   16.1544   68.7883   -4.4225 O   0  0  0  0  0  0  0  0  0  0  0  0
   17.7917   69.1400   -2.0288 O   0  0  0  0  0  0  0  0  0  0  0  0
   17.3065   70.1679   -6.7073 O   0  0  0  0  0  0  0  0  0  0  0  0
   17.3340   69.5905   -4.3684 C   0  0  2  0  0  0  0  0  0  0  0  0
   17.4940   70.1711   -2.9631 C   0  0  2  0  0  0  0  0  0  0  0  0
   17.1885   70.7155   -5.3956 C   0  0  1  0  0  0  0  0  0  0  0  0
   18.6115   71.2145   -2.9261 C   0  0  1  0  0  0  0  0  0  0  0  0
   18.2664   71.7799   -5.2126 C   0  0  1  0  0  0  0  0  0  0  0  0
   16.2241   68.0665   -3.7779 H   0  0  0  0  0  0  0  0  0  0  0  0
   17.0869   68.4742   -2.0471 H   0  0  0  0  0  0  0  0  0  0  0  0
   16.6260   69.4889   -6.8367 H   0  0  0  0  0  0  0  0  0  0  0  0
   16.6842   72.9230   -6.5130 O   0  0  0  0  0  0  0  0  0  0  0  0
   18.6673   73.9784   -6.1222 O   0  0  0  0  0  0  0  0  0  0  0  0
   17.9295   73.0142   -5.9840 C   0  0  0  0  0  0  0  0  0  0  0  0
  1  4  1  0
  1 24  1  0
  1  2  1  1
  1  3  2  0
 25 28  1  0
 25 24  1  0
 25 26  1  1
 25 27  2  0
  6 11  1  0
  6 12  1  0
 29 36  1  0
 29 37  1  0
  9  7  1  1
  7 13  1  0
 10  8  1  1
  8 14  1  0
  4  5  1  0
 36 28  1  6
 33 30  1  1
 30 38  1  0
 34 31  1  1
 31 39  1  0
 35 32  1  6
 32 40  1  0
 41 43  1  0
 15 19  2  0
 42 43  2  0
 16 22  2  0
 12 17  1  6
 17 19  1  0
 17 20  1  0
 18 19  1  0
 18 22  1  0
 18 23  1  0
  9 10  1  0
  9 11  1  0
 10 12  1  0
 11  5  1  6
 33 34  1  0
 33 35  1  0
 34 36  1  0
 35 37  1  0
 37 43  1  6
 20 21  2  0
 21 22  1  0
M  CHG  3   2  -1  26  -1  41  -1
M  END
>  <COMPND>  (106) 
    udp_gluA.pdb 

>  <AUTHOR>  (106) 
    GENERATED BY OPEN BABEL 3.1.1

>  <MASTER>  (106) 
        0    0    0    0    0    0    0    0   56    0   56    0

>  <minimizedAffinity>  (106) 
-9.07784

>  <CNNscore>  (106) 
0.6684775352

>  <CNNaffinity>  (106) 
4.8180203438

>  <CNN_VS>  (106) 
3.2207384109

>  <CNNaffinity_variance>  (106) 
0.3317437172

$$$$
107
     RDKit          3D

 43 45  0  0  0  0  0  0  0  0999 V2000
   22.5313   71.2610   -2.8990 P   0  0  2  0  0  0  0  0  0  0  0  0
   22.6192   72.0992   -1.5175 O   0  0  0  0  0  0  0  0  0  0  0  0
   23.5589   71.6279   -3.9291 O   0  0  0  0  0  0  0  0  0  0  0  0
   20.9881   71.4263   -3.3561 O   0  0  0  0  0  0  0  0  0  0  0  0
   20.0486   70.4576   -2.9277 C   0  0  0  0  0  0  0  0  0  0  0  0
   18.4796   71.7691   -4.1911 O   0  0  0  0  0  0  0  0  0  0  0  0
   16.3772   70.6955   -2.3421 O   0  0  0  0  0  0  0  0  0  0  0  0
   16.0540   69.1562   -4.5697 O   0  0  0  0  0  0  0  0  0  0  0  0
   17.5384   70.0483   -2.8630 C   0  0  1  0  0  0  0  0  0  0  0  0
   17.3339   69.6994   -4.3220 C   0  0  2  0  0  0  0  0  0  0  0  0
   18.6575   71.0782   -2.9356 C   0  0  1  0  0  0  0  0  0  0  0  0
   17.5400   71.0434   -4.9996 C   0  0  2  0  0  0  0  0  0  0  0  0
   15.6485   70.0572   -2.2865 H   0  0  0  0  0  0  0  0  0  0  0  0
   15.9725   68.3014   -4.1174 H   0  0  0  0  0  0  0  0  0  0  0  0
   15.9717   70.5985   -7.3059 O   0  0  0  0  0  0  0  0  0  0  0  0
   19.6804   70.5559  -10.0423 O   0  0  0  0  0  0  0  0  0  0  0  0
   18.0699   70.9121   -6.3273 N   0  0  0  0  0  0  0  0  0  0  0  0
   17.8204   70.5767   -8.6664 N   0  0  0  0  0  0  0  0  0  0  0  0
   17.1956   70.6900   -7.4175 C   0  0  0  0  0  0  0  0  0  0  0  0
   19.4400   71.0051   -6.5396 C   0  0  0  0  0  0  0  0  0  0  0  0
   20.0208   70.8951   -7.7359 C   0  0  0  0  0  0  0  0  0  0  0  0
   19.1785   70.6614   -8.9273 C   0  0  0  0  0  0  0  0  0  0  0  0
   17.2324   70.4198   -9.4404 H   0  0  0  0  0  0  0  0  0  0  0  0
   22.5992   69.7260   -2.3971 O   0  0  0  0  0  0  0  0  0  0  0  0
   23.7336   68.9311   -1.5633 P   0  0  2  0  0  0  0  0  0  0  0  0
   25.0788   69.1960   -2.4238 O   0  0  0  0  0  0  0  0  0  0  0  0
   23.4238   67.4806   -1.3307 O   0  0  0  0  0  0  0  0  0  0  0  0
   23.9342   69.7971   -0.2171 O   0  0  0  0  0  0  0  0  0  0  0  0
   24.3345   69.5065    2.0990 O   0  0  0  0  0  0  0  0  0  0  0  0
   21.0682   72.0361    2.1212 O   0  0  0  0  0  0  0  0  0  0  0  0
   21.1926   69.7947    0.2518 O   0  0  0  0  0  0  0  0  0  0  0  0
   23.7193   73.0710    2.7140 O   0  0  0  0  0  0  0  0  0  0  0  0
   22.2818   71.4793    1.6162 C   0  0  2  0  0  0  0  0  0  0  0  0
   22.0857   69.9880    1.3425 C   0  0  2  0  0  0  0  0  0  0  0  0
   23.3722   71.6883    2.6695 C   0  0  1  0  0  0  0  0  0  0  0  0
   23.4187   69.3108    1.0209 C   0  0  1  0  0  0  0  0  0  0  0  0
   24.6251   70.8812    2.3419 C   0  0  1  0  0  0  0  0  0  0  0  0
   20.3605   71.9150    1.4686 H   0  0  0  0  0  0  0  0  0  0  0  0
   20.3448   70.2220    0.4490 H   0  0  0  0  0  0  0  0  0  0  0  0
   22.9305   73.5959    2.9214 H   0  0  0  0  0  0  0  0  0  0  0  0
   26.6273   70.0585    3.2453 O   0  0  0  0  0  0  0  0  0  0  0  0
   25.3543   71.3955    4.5836 O   0  0  0  0  0  0  0  0  0  0  0  0
   25.5439   70.8269    3.5188 C   0  0  0  0  0  0  0  0  0  0  0  0
  1  4  1  0
  1 24  1  0
  1  2  1  1
  1  3  2  0
 25 28  1  0
 25 24  1  0
 25 26  1  6
 25 27  2  0
  6 11  1  0
  6 12  1  0
 29 36  1  0
 29 37  1  0
  9  7  1  6
  7 13  1  0
 10  8  1  1
  8 14  1  0
  4  5  1  0
 36 28  1  6
 33 30  1  1
 30 38  1  0
 34 31  1  6
 31 39  1  0
 35 32  1  6
 32 40  1  0
 41 43  1  0
 15 19  2  0
 42 43  2  0
 16 22  2  0
 12 17  1  6
 17 19  1  0
 17 20  1  0
 18 19  1  0
 18 22  1  0
 18 23  1  0
  9 10  1  0
  9 11  1  0
 10 12  1  0
 11  5  1  6
 33 34  1  0
 33 35  1  0
 34 36  1  0
 35 37  1  0
 37 43  1  1
 20 21  2  0
 21 22  1  0
M  CHG  3   2  -1  26  -1  41  -1
M  END
>  <COMPND>  (107) 
    udp_gluA.pdb 

>  <AUTHOR>  (107) 
    GENERATED BY OPEN BABEL 3.1.1

>  <MASTER>  (107) 
        0    0    0    0    0    0    0    0   56    0   56    0

>  <minimizedAffinity>  (107) 
-9.23662

>  <CNNscore>  (107) 
0.6645056009

>  <CNNaffinity>  (107) 
4.7946500778

>  <CNN_VS>  (107) 
3.1860718727

>  <CNNaffinity_variance>  (107) 
0.0738117397

$$$$
108
     RDKit          3D

 43 45  0  0  0  0  0  0  0  0999 V2000
   20.2497   70.7599   -0.0654 P   0  0  2  0  0  0  0  0  0  0  0  0
   20.8045   69.3494    0.5019 O   0  0  0  0  0  0  0  0  0  0  0  0
   19.3555   71.5134    0.8751 O   0  0  0  0  0  0  0  0  0  0  0  0
   19.5995   70.3746   -1.4960 O   0  0  0  0  0  0  0  0  0  0  0  0
   19.4431   71.3954   -2.4645 C   0  0  0  0  0  0  0  0  0  0  0  0
   17.7757   72.1375   -4.0287 O   0  0  0  0  0  0  0  0  0  0  0  0
   15.7746   70.7822   -2.2538 O   0  0  0  0  0  0  0  0  0  0  0  0
   16.0912   68.9824   -4.2778 O   0  0  0  0  0  0  0  0  0  0  0  0
   17.1090   70.3894   -2.5759 C   0  0  1  0  0  0  0  0  0  0  0  0
   17.1693   69.8474   -3.9883 C   0  0  2  0  0  0  0  0  0  0  0  0
   17.9569   71.6496   -2.6817 C   0  0  1  0  0  0  0  0  0  0  0  0
   17.1361   71.1207   -4.8164 C   0  0  2  0  0  0  0  0  0  0  0  0
   15.2138   69.9936   -2.1809 H   0  0  0  0  0  0  0  0  0  0  0  0
   16.1575   68.1870   -3.7255 H   0  0  0  0  0  0  0  0  0  0  0  0
   15.9660   70.1941   -7.2141 O   0  0  0  0  0  0  0  0  0  0  0  0
   19.9261   70.6345   -9.5310 O   0  0  0  0  0  0  0  0  0  0  0  0
   17.8384   70.9834   -6.0609 N   0  0  0  0  0  0  0  0  0  0  0  0
   17.9397   70.4134   -8.3655 N   0  0  0  0  0  0  0  0  0  0  0  0
   17.1577   70.5085   -7.2068 C   0  0  0  0  0  0  0  0  0  0  0  0
   19.1847   71.3187   -6.1382 C   0  0  0  0  0  0  0  0  0  0  0  0
   19.9169   71.2228   -7.2498 C   0  0  0  0  0  0  0  0  0  0  0  0
   19.2817   70.7342   -8.4912 C   0  0  0  0  0  0  0  0  0  0  0  0
   17.4882   70.0832   -9.1757 H   0  0  0  0  0  0  0  0  0  0  0  0
   21.6025   71.5416   -0.4798 O   0  0  0  0  0  0  0  0  0  0  0  0
   22.1857   72.9751   -0.0121 P   0  0  2  0  0  0  0  0  0  0  0  0
   20.8523   73.8738    0.1744 O   0  0  0  0  0  0  0  0  0  0  0  0
   23.2011   73.5622   -0.9493 O   0  0  0  0  0  0  0  0  0  0  0  0
   22.7236   72.7283    1.4886 O   0  0  0  0  0  0  0  0  0  0  0  0
   24.9169   73.0902    2.3058 O   0  0  0  0  0  0  0  0  0  0  0  0
   23.5824   70.0698    4.7886 O   0  0  0  0  0  0  0  0  0  0  0  0
   23.0068   69.9961    1.9255 O   0  0  0  0  0  0  0  0  0  0  0  0
   23.7391   72.8022    5.7687 O   0  0  0  0  0  0  0  0  0  0  0  0
   23.4599   71.2294    3.9650 C   0  0  2  0  0  0  0  0  0  0  0  0
   23.9167   70.8984    2.5440 C   0  0  2  0  0  0  0  0  0  0  0  0
   24.3388   72.3298    4.5638 C   0  0  1  0  0  0  0  0  0  0  0  0
   24.0181   72.1649    1.6929 C   0  0  1  0  0  0  0  0  0  0  0  0
   24.4928   73.5047    3.6024 C   0  0  1  0  0  0  0  0  0  0  0  0
   23.0324   69.3569    4.4274 H   0  0  0  0  0  0  0  0  0  0  0  0
   22.9374   69.1902    2.4604 H   0  0  0  0  0  0  0  0  0  0  0  0
   23.6353   72.0640    6.3893 H   0  0  0  0  0  0  0  0  0  0  0  0
   26.5524   74.5008    3.0851 O   0  0  0  0  0  0  0  0  0  0  0  0
   25.6400   74.9928    5.1160 O   0  0  0  0  0  0  0  0  0  0  0  0
   25.5970   74.4096    4.0432 C   0  0  0  0  0  0  0  0  0  0  0  0
  1  4  1  0
  1 24  1  0
  1  2  1  1
  1  3  2  0
 25 28  1  0
 25 24  1  0
 25 26  1  1
 25 27  2  0
  6 11  1  0
  6 12  1  0
 29 36  1  0
 29 37  1  0
  9  7  1  6
  7 13  1  0
 10  8  1  6
  8 14  1  0
  4  5  1  0
 36 28  1  1
 33 30  1  1
 30 38  1  0
 34 31  1  6
 31 39  1  0
 35 32  1  1
 32 40  1  0
 41 43  1  0
 15 19  2  0
 42 43  2  0
 16 22  2  0
 12 17  1  6
 17 19  1  0
 17 20  1  0
 18 19  1  0
 18 22  1  0
 18 23  1  0
  9 10  1  0
  9 11  1  0
 10 12  1  0
 11  5  1  6
 33 34  1  0
 33 35  1  0
 34 36  1  0
 35 37  1  0
 37 43  1  1
 20 21  2  0
 21 22  1  0
M  CHG  3   2  -1  26  -1  41  -1
M  END
>  <COMPND>  (108) 
    udp_gluA.pdb 

>  <AUTHOR>  (108) 
    GENERATED BY OPEN BABEL 3.1.1

>  <MASTER>  (108) 
        0    0    0    0    0    0    0    0   56    0   56    0

>  <minimizedAffinity>  (108) 
-8.43222

>  <CNNscore>  (108) 
0.6611077189

>  <CNNaffinity>  (108) 
4.8418307304

>  <CNN_VS>  (108) 
3.2009716034

>  <CNNaffinity_variance>  (108) 
0.1155997068

$$$$
109
     RDKit          3D

 43 45  0  0  0  0  0  0  0  0999 V2000
   20.7395   70.7768    0.5401 P   0  0  2  0  0  0  0  0  0  0  0  0
   19.7359   71.4848    1.5938 O   0  0  0  0  0  0  0  0  0  0  0  0
   20.8105   69.2812    0.6397 O   0  0  0  0  0  0  0  0  0  0  0  0
   22.1387   71.5620    0.7485 O   0  0  0  0  0  0  0  0  0  0  0  0
   23.1839   70.9080    1.4444 C   0  0  0  0  0  0  0  0  0  0  0  0
   24.1034   70.5437    3.6352 O   0  0  0  0  0  0  0  0  0  0  0  0
   21.9880   72.4208    4.6318 O   0  0  0  0  0  0  0  0  0  0  0  0
   24.2055   74.0063    4.5594 O   0  0  0  0  0  0  0  0  0  0  0  0
   22.7254   72.4571    3.4097 C   0  0  1  0  0  0  0  0  0  0  0  0
   24.1461   72.9123    3.6681 C   0  0  2  0  0  0  0  0  0  0  0  0
   22.9306   71.0227    2.9421 C   0  0  1  0  0  0  0  0  0  0  0  0
   24.7805   71.6563    4.2408 C   0  0  2  0  0  0  0  0  0  0  0  0
   21.8445   73.3262    4.9502 H   0  0  0  0  0  0  0  0  0  0  0  0
   23.7892   74.7809    4.1487 H   0  0  0  0  0  0  0  0  0  0  0  0
   26.8017   73.0160    5.6700 O   0  0  0  0  0  0  0  0  0  0  0  0
   30.1264   71.2388    3.0182 O   0  0  0  0  0  0  0  0  0  0  0  0
   26.1824   71.5669    3.9452 N   0  0  0  0  0  0  0  0  0  0  0  0
   28.4556   72.1304    4.3472 N   0  0  0  0  0  0  0  0  0  0  0  0
   27.1157   72.2906    4.7244 C   0  0  0  0  0  0  0  0  0  0  0  0
   26.6204   70.7684    2.8956 C   0  0  0  0  0  0  0  0  0  0  0  0
   27.9008   70.6255    2.5481 C   0  0  0  0  0  0  0  0  0  0  0  0
   28.9396   71.3484    3.3110 C   0  0  0  0  0  0  0  0  0  0  0  0
   29.1236   72.6261    4.8738 H   0  0  0  0  0  0  0  0  0  0  0  0
   20.2197   71.3328   -0.8859 O   0  0  0  0  0  0  0  0  0  0  0  0
   20.9615   71.4379   -2.3185 P   0  0  2  0  0  0  0  0  0  0  0  0
   21.7748   70.0418   -2.4172 O   0  0  0  0  0  0  0  0  0  0  0  0
   21.8138   72.6630   -2.4821 O   0  0  0  0  0  0  0  0  0  0  0  0
   19.7768   71.2967   -3.4043 O   0  0  0  0  0  0  0  0  0  0  0  0
   19.1026   69.2001   -4.2754 O   0  0  0  0  0  0  0  0  0  0  0  0
   17.6940   71.8012   -7.1596 O   0  0  0  0  0  0  0  0  0  0  0  0
   20.3370   72.1909   -5.9777 O   0  0  0  0  0  0  0  0  0  0  0  0
   15.8534   70.5881   -5.2645 O   0  0  0  0  0  0  0  0  0  0  0  0
   18.0520   71.3872   -5.8411 C   0  0  2  0  0  0  0  0  0  0  0  0
   19.5374   71.0270   -5.8034 C   0  0  2  0  0  0  0  0  0  0  0  0
   17.1995   70.1687   -5.4802 C   0  0  1  0  0  0  0  0  0  0  0  0
   19.9059   70.3637   -4.4756 C   0  0  1  0  0  0  0  0  0  0  0  0
   17.7077   69.4890   -4.2120 C   0  0  1  0  0  0  0  0  0  0  0  0
   18.2232   72.5746   -7.4107 H   0  0  0  0  0  0  0  0  0  0  0  0
   20.1083   72.6170   -6.8182 H   0  0  0  0  0  0  0  0  0  0  0  0
   15.5179   71.0225   -6.0643 H   0  0  0  0  0  0  0  0  0  0  0  0
   16.0327   67.9916   -4.8854 O   0  0  0  0  0  0  0  0  0  0  0  0
   17.4841   67.2750   -3.2795 O   0  0  0  0  0  0  0  0  0  0  0  0
   17.0920   68.1372   -4.0515 C   0  0  0  0  0  0  0  0  0  0  0  0
  1  4  1  0
  1 24  1  0
  1  2  1  1
  1  3  2  0
 25 28  1  0
 25 24  1  0
 25 26  1  6
 25 27  2  0
  6 11  1  0
  6 12  1  0
 29 36  1  0
 29 37  1  0
  9  7  1  1
  7 13  1  0
 10  8  1  1
  8 14  1  0
  4  5  1  0
 36 28  1  1
 33 30  1  6
 30 38  1  0
 34 31  1  1
 31 39  1  0
 35 32  1  1
 32 40  1  0
 41 43  1  0
 15 19  2  0
 42 43  2  0
 16 22  2  0
 12 17  1  6
 17 19  1  0
 17 20  1  0
 18 19  1  0
 18 22  1  0
 18 23  1  0
  9 10  1  0
  9 11  1  0
 10 12  1  0
 11  5  1  6
 33 34  1  0
 33 35  1  0
 34 36  1  0
 35 37  1  0
 37 43  1  6
 20 21  2  0
 21 22  1  0
M  CHG  3   2  -1  26  -1  41  -1
M  END
>  <COMPND>  (109) 
    udp_gluA.pdb 

>  <AUTHOR>  (109) 
    GENERATED BY OPEN BABEL 3.1.1

>  <MASTER>  (109) 
        0    0    0    0    0    0    0    0   56    0   56    0

>  <minimizedAffinity>  (109) 
-8.90465

>  <CNNscore>  (109) 
0.6485360265

>  <CNNaffinity>  (109) 
4.5797772408

>  <CNN_VS>  (109) 
2.9701504707

>  <CNNaffinity_variance>  (109) 
0.1662896276

$$$$
110
     RDKit          3D

 43 45  0  0  0  0  0  0  0  0999 V2000
   21.9073   71.0543   -2.0436 P   0  0  2  0  0  0  0  0  0  0  0  0
   22.7792   72.2799   -2.6405 O   0  0  0  0  0  0  0  0  0  0  0  0
   21.8048   69.8545   -2.9391 O   0  0  0  0  0  0  0  0  0  0  0  0
   20.5033   71.7426   -1.6277 O   0  0  0  0  0  0  0  0  0  0  0  0
   19.7099   72.3276   -2.6440 C   0  0  0  0  0  0  0  0  0  0  0  0
   17.6496   71.9328   -3.8174 O   0  0  0  0  0  0  0  0  0  0  0  0
   16.9510   70.0610   -1.5814 O   0  0  0  0  0  0  0  0  0  0  0  0
   17.7661   68.3594   -3.5501 O   0  0  0  0  0  0  0  0  0  0  0  0
   18.2207   70.3173   -2.1819 C   0  0  1  0  0  0  0  0  0  0  0  0
   18.2948   69.6690   -3.5481 C   0  0  2  0  0  0  0  0  0  0  0  0
   18.2862   71.7986   -2.5282 C   0  0  1  0  0  0  0  0  0  0  0  0
   17.4804   70.6297   -4.3977 C   0  0  2  0  0  0  0  0  0  0  0  0
   16.8857   69.1206   -1.3513 H   0  0  0  0  0  0  0  0  0  0  0  0
   18.3196   67.7865   -2.9958 H   0  0  0  0  0  0  0  0  0  0  0  0
   15.8926   69.8817   -6.6103 O   0  0  0  0  0  0  0  0  0  0  0  0
   19.2857   70.8059   -9.5897 O   0  0  0  0  0  0  0  0  0  0  0  0
   17.9238   70.6652   -5.7626 N   0  0  0  0  0  0  0  0  0  0  0  0
   17.5844   70.3417   -8.0920 N   0  0  0  0  0  0  0  0  0  0  0  0
   17.0474   70.2682   -6.8000 C   0  0  0  0  0  0  0  0  0  0  0  0
   19.2122   71.0908   -6.0624 C   0  0  0  0  0  0  0  0  0  0  0  0
   19.7098   71.1556   -7.2989 C   0  0  0  0  0  0  0  0  0  0  0  0
   18.8594   70.7578   -8.4398 C   0  0  0  0  0  0  0  0  0  0  0  0
   16.9936   70.0685   -8.8307 H   0  0  0  0  0  0  0  0  0  0  0  0
   22.6099   70.7706   -0.6158 O   0  0  0  0  0  0  0  0  0  0  0  0
   22.1927   69.7841    0.5952 P   0  0  2  0  0  0  0  0  0  0  0  0
   23.2411   68.5591    0.4522 O   0  0  0  0  0  0  0  0  0  0  0  0
   20.7502   69.3683    0.5816 O   0  0  0  0  0  0  0  0  0  0  0  0
   22.6532   70.5601    1.9324 O   0  0  0  0  0  0  0  0  0  0  0  0
   22.7514   72.7817    2.7475 O   0  0  0  0  0  0  0  0  0  0  0  0
   26.5008   71.3566    3.7371 O   0  0  0  0  0  0  0  0  0  0  0  0
   25.3147   70.7275    1.1425 O   0  0  0  0  0  0  0  0  0  0  0  0
   24.4641   71.6538    5.7900 O   0  0  0  0  0  0  0  0  0  0  0  0
   25.0961   71.2719    3.4966 C   0  0  2  0  0  0  0  0  0  0  0  0
   24.7976   71.6880    2.0560 C   0  0  2  0  0  0  0  0  0  0  0  0
   24.3908   72.2101    4.4786 C   0  0  1  0  0  0  0  0  0  0  0  0
   23.2920   71.8313    1.8288 C   0  0  1  0  0  0  0  0  0  0  0  0
   22.9221   72.3998    4.1106 C   0  0  1  0  0  0  0  0  0  0  0  0
   26.9699   70.7686    3.1243 H   0  0  0  0  0  0  0  0  0  0  0  0
   26.2697   70.6313    1.2812 H   0  0  0  0  0  0  0  0  0  0  0  0
   25.3937   71.5278    6.0363 H   0  0  0  0  0  0  0  0  0  0  0  0
   21.3533   74.1433    4.1302 O   0  0  0  0  0  0  0  0  0  0  0  0
   22.6774   73.9148    5.9724 O   0  0  0  0  0  0  0  0  0  0  0  0
   22.3325   73.5514    4.8579 C   0  0  0  0  0  0  0  0  0  0  0  0
  1  4  1  0
  1 24  1  0
  1  2  1  6
  1  3  2  0
 25 28  1  0
 25 24  1  0
 25 26  1  6
 25 27  2  0
  6 11  1  0
  6 12  1  0
 29 36  1  0
 29 37  1  0
  9  7  1  6
  7 13  1  0
 10  8  1  1
  8 14  1  0
  4  5  1  0
 36 28  1  1
 33 30  1  1
 30 38  1  0
 34 31  1  6
 31 39  1  0
 35 32  1  1
 32 40  1  0
 41 43  1  0
 15 19  2  0
 42 43  2  0
 16 22  2  0
 12 17  1  6
 17 19  1  0
 17 20  1  0
 18 19  1  0
 18 22  1  0
 18 23  1  0
  9 10  1  0
  9 11  1  0
 10 12  1  0
 11  5  1  6
 33 34  1  0
 33 35  1  0
 34 36  1  0
 35 37  1  0
 37 43  1  1
 20 21  2  0
 21 22  1  0
M  CHG  3   2  -1  26  -1  41  -1
M  END
>  <COMPND>  (110) 
    udp_gluA.pdb 

>  <AUTHOR>  (110) 
    GENERATED BY OPEN BABEL 3.1.1

>  <MASTER>  (110) 
        0    0    0    0    0    0    0    0   56    0   56    0

>  <minimizedAffinity>  (110) 
-9.24000

>  <CNNscore>  (110) 
0.6431263685

>  <CNNaffinity>  (110) 
4.7021307945

>  <CNN_VS>  (110) 
3.0240643024

>  <CNNaffinity_variance>  (110) 
0.1114166602

$$$$
111
     RDKit          3D

 43 45  0  0  0  0  0  0  0  0999 V2000
   20.8688   70.9852    0.0777 P   0  0  2  0  0  0  0  0  0  0  0  0
   19.6336   72.0206    0.2228 O   0  0  0  0  0  0  0  0  0  0  0  0
   20.5293   69.5506    0.3581 O   0  0  0  0  0  0  0  0  0  0  0  0
   22.0260   71.6280    1.0081 O   0  0  0  0  0  0  0  0  0  0  0  0
   22.8622   70.7561    1.7463 C   0  0  0  0  0  0  0  0  0  0  0  0
   23.8989   70.6310    3.9114 O   0  0  0  0  0  0  0  0  0  0  0  0
   21.8645   72.6484    4.7963 O   0  0  0  0  0  0  0  0  0  0  0  0
   24.0924   74.1749    4.4194 O   0  0  0  0  0  0  0  0  0  0  0  0
   22.5325   72.5300    3.5400 C   0  0  1  0  0  0  0  0  0  0  0  0
   23.9706   72.9865    3.6660 C   0  0  2  0  0  0  0  0  0  0  0  0
   22.6946   71.0477    3.2320 C   0  0  1  0  0  0  0  0  0  0  0  0
   24.6216   71.7939    4.3456 C   0  0  2  0  0  0  0  0  0  0  0  0
   21.7495   73.5869    5.0145 H   0  0  0  0  0  0  0  0  0  0  0  0
   23.6627   74.9041    3.9446 H   0  0  0  0  0  0  0  0  0  0  0  0
   26.7565   73.1114    5.6431 O   0  0  0  0  0  0  0  0  0  0  0  0
   29.8843   71.1505    2.8834 O   0  0  0  0  0  0  0  0  0  0  0  0
   26.0037   71.6458    3.9866 N   0  0  0  0  0  0  0  0  0  0  0  0
   28.3122   72.1343    4.2667 N   0  0  0  0  0  0  0  0  0  0  0  0
   26.9986   72.3528    4.7024 C   0  0  0  0  0  0  0  0  0  0  0  0
   26.3618   70.8072    2.9381 C   0  0  0  0  0  0  0  0  0  0  0  0
   27.6182   70.6090    2.5344 C   0  0  0  0  0  0  0  0  0  0  0  0
   28.7176   71.3108    3.2289 C   0  0  0  0  0  0  0  0  0  0  0  0
   29.0220   72.6173    4.7485 H   0  0  0  0  0  0  0  0  0  0  0  0
   21.4068   71.2695   -1.4198 O   0  0  0  0  0  0  0  0  0  0  0  0
   20.7259   72.0483   -2.6622 P   0  0  2  0  0  0  0  0  0  0  0  0
   21.8288   71.9040   -3.8383 O   0  0  0  0  0  0  0  0  0  0  0  0
   20.3278   73.4636   -2.3581 O   0  0  0  0  0  0  0  0  0  0  0  0
   19.5095   71.0954   -3.1255 O   0  0  0  0  0  0  0  0  0  0  0  0
   17.7141   72.4440   -3.8784 O   0  0  0  0  0  0  0  0  0  0  0  0
   16.1331   68.6469   -4.2655 O   0  0  0  0  0  0  0  0  0  0  0  0
   17.7045   69.3635   -1.9094 O   0  0  0  0  0  0  0  0  0  0  0  0
   17.0252   70.1028   -6.6182 O   0  0  0  0  0  0  0  0  0  0  0  0
   17.1633   69.6350   -4.2588 C   0  0  2  0  0  0  0  0  0  0  0  0
   17.2337   70.2916   -2.8798 C   0  0  2  0  0  0  0  0  0  0  0  0
   16.8263   70.6769   -5.3278 C   0  0  1  0  0  0  0  0  0  0  0  0
   18.1624   71.5064   -2.8990 C   0  0  1  0  0  0  0  0  0  0  0  0
   17.7136   71.9120   -5.2013 C   0  0  1  0  0  0  0  0  0  0  0  0
   16.3259   67.9739   -3.5938 H   0  0  0  0  0  0  0  0  0  0  0  0
   17.1200   68.5900   -1.8920 H   0  0  0  0  0  0  0  0  0  0  0  0
   16.4662   69.3157   -6.7116 H   0  0  0  0  0  0  0  0  0  0  0  0
   17.4077   72.8346   -7.3359 O   0  0  0  0  0  0  0  0  0  0  0  0
   16.5914   74.0166   -5.5652 O   0  0  0  0  0  0  0  0  0  0  0  0
   17.1713   73.0405   -6.0166 C   0  0  0  0  0  0  0  0  0  0  0  0
  1  4  1  0
  1 24  1  0
  1  2  1  6
  1  3  2  0
 25 28  1  0
 25 24  1  0
 25 26  1  6
 25 27  2  0
  6 11  1  0
  6 12  1  0
 29 36  1  0
 29 37  1  0
  9  7  1  1
  7 13  1  0
 10  8  1  1
  8 14  1  0
  4  5  1  0
 36 28  1  6
 33 30  1  1
 30 38  1  0
 34 31  1  1
 31 39  1  0
 35 32  1  6
 32 40  1  0
 41 43  1  0
 15 19  2  0
 42 43  2  0
 16 22  2  0
 12 17  1  6
 17 19  1  0
 17 20  1  0
 18 19  1  0
 18 22  1  0
 18 23  1  0
  9 10  1  0
  9 11  1  0
 10 12  1  0
 11  5  1  6
 33 34  1  0
 33 35  1  0
 34 36  1  0
 35 37  1  0
 37 43  1  6
 20 21  2  0
 21 22  1  0
M  CHG  3   2  -1  26  -1  41  -1
M  END
>  <COMPND>  (111) 
    udp_gluA.pdb 

>  <AUTHOR>  (111) 
    GENERATED BY OPEN BABEL 3.1.1

>  <MASTER>  (111) 
        0    0    0    0    0    0    0    0   56    0   56    0

>  <minimizedAffinity>  (111) 
-8.10174

>  <CNNscore>  (111) 
0.6087242365

>  <CNNaffinity>  (111) 
4.4288816452

>  <CNN_VS>  (111) 
2.6959676743

>  <CNNaffinity_variance>  (111) 
0.1012913957

$$$$
112
     RDKit          3D

 43 45  0  0  0  0  0  0  0  0999 V2000
   21.0802   70.6432   -0.3665 P   0  0  2  0  0  0  0  0  0  0  0  0
   20.6137   69.4454    0.6166 O   0  0  0  0  0  0  0  0  0  0  0  0
   21.8378   70.2040   -1.5850 O   0  0  0  0  0  0  0  0  0  0  0  0
   21.8587   71.6690    0.6131 O   0  0  0  0  0  0  0  0  0  0  0  0
   23.0234   71.2159    1.2786 C   0  0  0  0  0  0  0  0  0  0  0  0
   23.9184   70.6313    3.4315 O   0  0  0  0  0  0  0  0  0  0  0  0
   21.8533   72.4751    4.5837 O   0  0  0  0  0  0  0  0  0  0  0  0
   24.1170   73.9936    4.6601 O   0  0  0  0  0  0  0  0  0  0  0  0
   22.5989   72.5976    3.3722 C   0  0  1  0  0  0  0  0  0  0  0  0
   24.0307   72.9854    3.6749 C   0  0  2  0  0  0  0  0  0  0  0  0
   22.7645   71.2049    2.7797 C   0  0  1  0  0  0  0  0  0  0  0  0
   24.6243   71.6651    4.1359 C   0  0  2  0  0  0  0  0  0  0  0  0
   21.7347   73.3525    4.9809 H   0  0  0  0  0  0  0  0  0  0  0  0
   23.7262   74.8137    4.3185 H   0  0  0  0  0  0  0  0  0  0  0  0
   26.6804   72.7602    5.7327 O   0  0  0  0  0  0  0  0  0  0  0  0
   29.9627   71.2016    2.8969 O   0  0  0  0  0  0  0  0  0  0  0  0
   26.0248   71.5603    3.8382 N   0  0  0  0  0  0  0  0  0  0  0  0
   28.3132   71.9838    4.3183 N   0  0  0  0  0  0  0  0  0  0  0  0
   26.9766   72.1463    4.7059 C   0  0  0  0  0  0  0  0  0  0  0  0
   26.4431   70.8823    2.6997 C   0  0  0  0  0  0  0  0  0  0  0  0
   27.7207   70.7355    2.3435 C   0  0  0  0  0  0  0  0  0  0  0  0
   28.7779   71.3187    3.1952 C   0  0  0  0  0  0  0  0  0  0  0  0
   28.9939   72.3849    4.9056 H   0  0  0  0  0  0  0  0  0  0  0  0
   19.6957   71.4176   -0.6772 O   0  0  0  0  0  0  0  0  0  0  0  0
   18.4614   71.0364   -1.6492 P   0  0  2  0  0  0  0  0  0  0  0  0
   17.2868   72.0402   -1.1664 O   0  0  0  0  0  0  0  0  0  0  0  0
   18.0830   69.5838   -1.6232 O   0  0  0  0  0  0  0  0  0  0  0  0
   18.8978   71.5887   -3.1008 O   0  0  0  0  0  0  0  0  0  0  0  0
   18.1619   70.3456   -4.9775 O   0  0  0  0  0  0  0  0  0  0  0  0
   20.9852   72.8386   -6.6751 O   0  0  0  0  0  0  0  0  0  0  0  0
   21.4947   71.5634   -4.0966 O   0  0  0  0  0  0  0  0  0  0  0  0
   18.1524   73.3708   -7.0536 O   0  0  0  0  0  0  0  0  0  0  0  0
   19.9646   72.4652   -5.7494 C   0  0  2  0  0  0  0  0  0  0  0  0
   20.4137   71.2344   -4.9615 C   0  0  2  0  0  0  0  0  0  0  0  0
   18.6952   72.1536   -6.5452 C   0  0  1  0  0  0  0  0  0  0  0  0
   19.2632   70.6686   -4.1277 C   0  0  1  0  0  0  0  0  0  0  0  0
   17.6422   71.4772   -5.6722 C   0  0  1  0  0  0  0  0  0  0  0  0
   21.8018   73.0412   -6.1920 H   0  0  0  0  0  0  0  0  0  0  0  0
   22.2282   71.9232   -4.6190 H   0  0  0  0  0  0  0  0  0  0  0  0
   18.8128   73.8114   -7.6109 H   0  0  0  0  0  0  0  0  0  0  0  0
   16.0376   71.8183   -7.3486 O   0  0  0  0  0  0  0  0  0  0  0  0
   16.1843   69.7235   -6.4600 O   0  0  0  0  0  0  0  0  0  0  0  0
   16.5570   70.8860   -6.5119 C   0  0  0  0  0  0  0  0  0  0  0  0
  1  4  1  0
  1 24  1  0
  1  2  1  1
  1  3  2  0
 25 28  1  0
 25 24  1  0
 25 26  1  1
 25 27  2  0
  6 11  1  0
  6 12  1  0
 29 36  1  0
 29 37  1  0
  9  7  1  1
  7 13  1  0
 10  8  1  1
  8 14  1  0
  4  5  1  0
 36 28  1  1
 33 30  1  6
 30 38  1  0
 34 31  1  1
 31 39  1  0
 35 32  1  1
 32 40  1  0
 41 43  1  0
 15 19  2  0
 42 43  2  0
 16 22  2  0
 12 17  1  6
 17 19  1  0
 17 20  1  0
 18 19  1  0
 18 22  1  0
 18 23  1  0
  9 10  1  0
  9 11  1  0
 10 12  1  0
 11  5  1  6
 33 34  1  0
 33 35  1  0
 34 36  1  0
 35 37  1  0
 37 43  1  6
 20 21  2  0
 21 22  1  0
M  CHG  3   2  -1  26  -1  41  -1
M  END
>  <COMPND>  (112) 
    udp_gluA.pdb 

>  <AUTHOR>  (112) 
    GENERATED BY OPEN BABEL 3.1.1

>  <MASTER>  (112) 
        0    0    0    0    0    0    0    0   56    0   56    0

>  <minimizedAffinity>  (112) 
-8.33749

>  <CNNscore>  (112) 
0.6041824818

>  <CNNaffinity>  (112) 
4.3864812851

>  <CNN_VS>  (112) 
2.6502351761

>  <CNNaffinity_variance>  (112) 
0.0880228430

$$$$
113
     RDKit          3D

 43 45  0  0  0  0  0  0  0  0999 V2000
   21.2432   70.6916   -0.2144 P   0  0  2  0  0  0  0  0  0  0  0  0
   22.1970   69.7358   -1.1064 O   0  0  0  0  0  0  0  0  0  0  0  0
   21.3905   72.1608   -0.4817 O   0  0  0  0  0  0  0  0  0  0  0  0
   21.5349   70.2214    1.3061 O   0  0  0  0  0  0  0  0  0  0  0  0
   22.8028   70.5034    1.8696 C   0  0  0  0  0  0  0  0  0  0  0  0
   23.8233   70.5866    4.0443 O   0  0  0  0  0  0  0  0  0  0  0  0
   21.7484   72.6384    4.7345 O   0  0  0  0  0  0  0  0  0  0  0  0
   23.9539   74.1641    4.2403 O   0  0  0  0  0  0  0  0  0  0  0  0
   22.4288   72.4218    3.4981 C   0  0  1  0  0  0  0  0  0  0  0  0
   23.8580   72.9123    3.5934 C   0  0  2  0  0  0  0  0  0  0  0  0
   22.6180   70.9212    3.3227 C   0  0  1  0  0  0  0  0  0  0  0  0
   24.5230   71.7954    4.3796 C   0  0  2  0  0  0  0  0  0  0  0  0
   21.6161   73.5903    4.8687 H   0  0  0  0  0  0  0  0  0  0  0  0
   23.5161   74.8414    3.7003 H   0  0  0  0  0  0  0  0  0  0  0  0
   26.6188   73.3027    5.5252 O   0  0  0  0  0  0  0  0  0  0  0  0
   29.8079   71.1146    3.0180 O   0  0  0  0  0  0  0  0  0  0  0  0
   25.9103   71.6401    4.0445 N   0  0  0  0  0  0  0  0  0  0  0  0
   28.2051   72.2121    4.2746 N   0  0  0  0  0  0  0  0  0  0  0  0
   26.8842   72.4477    4.6781 C   0  0  0  0  0  0  0  0  0  0  0  0
   26.2941   70.6961    3.0998 C   0  0  0  0  0  0  0  0  0  0  0  0
   27.5572   70.4830    2.7256 C   0  0  0  0  0  0  0  0  0  0  0  0
   28.6357   71.2854    3.3391 C   0  0  0  0  0  0  0  0  0  0  0  0
   28.9006   72.7637    4.7004 H   0  0  0  0  0  0  0  0  0  0  0  0
   19.7666   70.0998   -0.5008 O   0  0  0  0  0  0  0  0  0  0  0  0
   18.5412   70.6833   -1.3792 P   0  0  2  0  0  0  0  0  0  0  0  0
   18.0639   71.9786   -0.5337 O   0  0  0  0  0  0  0  0  0  0  0  0
   17.4513   69.6879   -1.6535 O   0  0  0  0  0  0  0  0  0  0  0  0
   19.2385   71.2935   -2.6998 O   0  0  0  0  0  0  0  0  0  0  0  0
   18.7374   70.0314   -4.6402 O   0  0  0  0  0  0  0  0  0  0  0  0
   21.5089   72.7323   -6.0866 O   0  0  0  0  0  0  0  0  0  0  0  0
   21.9009   71.4566   -3.4879 O   0  0  0  0  0  0  0  0  0  0  0  0
   18.6848   73.0792   -6.6824 O   0  0  0  0  0  0  0  0  0  0  0  0
   20.4469   72.2780   -5.2477 C   0  0  2  0  0  0  0  0  0  0  0  0
   20.9156   71.0686   -4.4383 C   0  0  2  0  0  0  0  0  0  0  0  0
   19.2675   71.8938   -6.1441 C   0  0  1  0  0  0  0  0  0  0  0  0
   19.7446   70.4150   -3.7033 C   0  0  1  0  0  0  0  0  0  0  0  0
   18.1980   71.1357   -5.3632 C   0  0  1  0  0  0  0  0  0  0  0  0
   22.2697   72.9821   -5.5387 H   0  0  0  0  0  0  0  0  0  0  0  0
   22.6468   71.8723   -3.9474 H   0  0  0  0  0  0  0  0  0  0  0  0
   19.3552   73.5711   -7.1818 H   0  0  0  0  0  0  0  0  0  0  0  0
   16.5523   69.4911   -5.6602 O   0  0  0  0  0  0  0  0  0  0  0  0
   17.0494   70.8018   -7.4586 O   0  0  0  0  0  0  0  0  0  0  0  0
   17.2243   70.4856   -6.2913 C   0  0  0  0  0  0  0  0  0  0  0  0
  1  4  1  0
  1 24  1  0
  1  2  1  6
  1  3  2  0
 25 28  1  0
 25 24  1  0
 25 26  1  1
 25 27  2  0
  6 11  1  0
  6 12  1  0
 29 36  1  0
 29 37  1  0
  9  7  1  1
  7 13  1  0
 10  8  1  1
  8 14  1  0
  4  5  1  0
 36 28  1  1
 33 30  1  6
 30 38  1  0
 34 31  1  1
 31 39  1  0
 35 32  1  1
 32 40  1  0
 41 43  1  0
 15 19  2  0
 42 43  2  0
 16 22  2  0
 12 17  1  6
 17 19  1  0
 17 20  1  0
 18 19  1  0
 18 22  1  0
 18 23  1  0
  9 10  1  0
  9 11  1  0
 10 12  1  0
 11  5  1  6
 33 34  1  0
 33 35  1  0
 34 36  1  0
 35 37  1  0
 37 43  1  6
 20 21  2  0
 21 22  1  0
M  CHG  3   2  -1  26  -1  41  -1
M  END
>  <COMPND>  (113) 
    udp_gluA.pdb 

>  <AUTHOR>  (113) 
    GENERATED BY OPEN BABEL 3.1.1

>  <MASTER>  (113) 
        0    0    0    0    0    0    0    0   56    0   56    0

>  <minimizedAffinity>  (113) 
-8.79039

>  <CNNscore>  (113) 
0.5836896300

>  <CNNaffinity>  (113) 
4.4995889664

>  <CNN_VS>  (113) 
2.6263635159

>  <CNNaffinity_variance>  (113) 
0.0109446626

$$$$
114
     RDKit          3D

 43 45  0  0  0  0  0  0  0  0999 V2000
   22.0874   69.4623   -0.0340 P   0  0  2  0  0  0  0  0  0  0  0  0
   20.8404   69.5242    0.9956 O   0  0  0  0  0  0  0  0  0  0  0  0
   22.7299   68.1132   -0.1706 O   0  0  0  0  0  0  0  0  0  0  0  0
   23.0600   70.6567    0.4616 O   0  0  0  0  0  0  0  0  0  0  0  0
   24.2588   70.3175    1.1341 C   0  0  0  0  0  0  0  0  0  0  0  0
   25.2253   69.9766    3.3083 O   0  0  0  0  0  0  0  0  0  0  0  0
   22.6519   71.0464    4.4150 O   0  0  0  0  0  0  0  0  0  0  0  0
   24.3219   73.1935    4.6084 O   0  0  0  0  0  0  0  0  0  0  0  0
   23.3584   71.4327    3.2360 C   0  0  1  0  0  0  0  0  0  0  0  0
   24.5864   72.2393    3.6013 C   0  0  2  0  0  0  0  0  0  0  0  0
   23.9704   70.1803    2.6235 C   0  0  1  0  0  0  0  0  0  0  0  0
   25.5495   71.1574    4.0594 C   0  0  2  0  0  0  0  0  0  0  0  0
   22.2520   71.8302    4.8242 H   0  0  0  0  0  0  0  0  0  0  0  0
   23.7044   73.8603    4.2678 H   0  0  0  0  0  0  0  0  0  0  0  0
   26.9987   73.0745    5.5430 O   0  0  0  0  0  0  0  0  0  0  0  0
   30.8051   72.4094    3.0304 O   0  0  0  0  0  0  0  0  0  0  0  0
   26.9207   71.5048    3.8143 N   0  0  0  0  0  0  0  0  0  0  0  0
   28.8928   72.7421    4.2895 N   0  0  0  0  0  0  0  0  0  0  0  0
   27.5559   72.4813    4.6174 C   0  0  0  0  0  0  0  0  0  0  0  0
   27.6220   70.8803    2.7900 C   0  0  0  0  0  0  0  0  0  0  0  0
   28.8961   71.1394    2.4895 C   0  0  0  0  0  0  0  0  0  0  0  0
   29.6324   72.1475    3.2800 C   0  0  0  0  0  0  0  0  0  0  0  0
   29.3556   73.4198    4.8335 H   0  0  0  0  0  0  0  0  0  0  0  0
   21.4581   70.0501   -1.4019 O   0  0  0  0  0  0  0  0  0  0  0  0
   20.8591   71.5101   -1.7532 P   0  0  2  0  0  0  0  0  0  0  0  0
   22.0603   72.2136   -2.5794 O   0  0  0  0  0  0  0  0  0  0  0  0
   20.3925   72.2884   -0.5572 O   0  0  0  0  0  0  0  0  0  0  0  0
   19.7162   71.2289   -2.8565 O   0  0  0  0  0  0  0  0  0  0  0  0
   19.0913   69.2391   -3.9787 O   0  0  0  0  0  0  0  0  0  0  0  0
   18.4056   72.0942   -6.8850 O   0  0  0  0  0  0  0  0  0  0  0  0
   20.8001   72.2249   -5.2165 O   0  0  0  0  0  0  0  0  0  0  0  0
   16.1737   70.9115   -5.4461 O   0  0  0  0  0  0  0  0  0  0  0  0
   18.4854   71.5814   -5.5551 C   0  0  2  0  0  0  0  0  0  0  0  0
   19.9132   71.1135   -5.2718 C   0  0  2  0  0  0  0  0  0  0  0  0
   17.5086   70.4090   -5.4408 C   0  0  1  0  0  0  0  0  0  0  0  0
   19.9866   70.3513   -3.9481 C   0  0  1  0  0  0  0  0  0  0  0  0
   17.7291   69.6238   -4.1512 C   0  0  1  0  0  0  0  0  0  0  0  0
   19.0181   72.8404   -6.9814 H   0  0  0  0  0  0  0  0  0  0  0  0
   20.7584   72.7132   -6.0532 H   0  0  0  0  0  0  0  0  0  0  0  0
   16.0203   71.4135   -6.2617 H   0  0  0  0  0  0  0  0  0  0  0  0
   17.6583   67.3881   -3.4454 O   0  0  0  0  0  0  0  0  0  0  0  0
   15.9881   68.0961   -4.8269 O   0  0  0  0  0  0  0  0  0  0  0  0
   17.0139   68.3129   -4.1993 C   0  0  0  0  0  0  0  0  0  0  0  0
  1  4  1  0
  1 24  1  0
  1  2  1  1
  1  3  2  0
 25 28  1  0
 25 24  1  0
 25 26  1  6
 25 27  2  0
  6 11  1  0
  6 12  1  0
 29 36  1  0
 29 37  1  0
  9  7  1  1
  7 13  1  0
 10  8  1  1
  8 14  1  0
  4  5  1  0
 36 28  1  1
 33 30  1  6
 30 38  1  0
 34 31  1  1
 31 39  1  0
 35 32  1  1
 32 40  1  0
 41 43  1  0
 15 19  2  0
 42 43  2  0
 16 22  2  0
 12 17  1  6
 17 19  1  0
 17 20  1  0
 18 19  1  0
 18 22  1  0
 18 23  1  0
  9 10  1  0
  9 11  1  0
 10 12  1  0
 11  5  1  6
 33 34  1  0
 33 35  1  0
 34 36  1  0
 35 37  1  0
 37 43  1  6
 20 21  2  0
 21 22  1  0
M  CHG  3   2  -1  26  -1  41  -1
M  END
>  <COMPND>  (114) 
    udp_gluA.pdb 

>  <AUTHOR>  (114) 
    GENERATED BY OPEN BABEL 3.1.1

>  <MASTER>  (114) 
        0    0    0    0    0    0    0    0   56    0   56    0

>  <minimizedAffinity>  (114) 
-9.21958

>  <CNNscore>  (114) 
0.5475766659

>  <CNNaffinity>  (114) 
4.8066468239

>  <CNN_VS>  (114) 
2.6320075989

>  <CNNaffinity_variance>  (114) 
0.0418450683

$$$$
115
     RDKit          3D

 43 45  0  0  0  0  0  0  0  0999 V2000
   20.2187   72.8430    2.0191 P   0  0  2  0  0  0  0  0  0  0  0  0
   20.0259   73.8337    0.7542 O   0  0  0  0  0  0  0  0  0  0  0  0
   19.3665   73.1647    3.2116 O   0  0  0  0  0  0  0  0  0  0  0  0
   21.8163   72.8469    2.2757 O   0  0  0  0  0  0  0  0  0  0  0  0
   22.3983   71.7360    2.9326 C   0  0  0  0  0  0  0  0  0  0  0  0
   23.8558   71.4467    4.8220 O   0  0  0  0  0  0  0  0  0  0  0  0
   22.5282   73.8723    5.9818 O   0  0  0  0  0  0  0  0  0  0  0  0
   24.8717   74.8795    5.0176 O   0  0  0  0  0  0  0  0  0  0  0  0
   22.8529   73.5833    4.6218 C   0  0  1  0  0  0  0  0  0  0  0  0
   24.3433   73.7260    4.3971 C   0  0  2  0  0  0  0  0  0  0  0  0
   22.6376   72.0933    4.3939 C   0  0  1  0  0  0  0  0  0  0  0  0
   24.8782   72.4394    5.0024 C   0  0  2  0  0  0  0  0  0  0  0  0
   22.6580   74.8189    6.1514 H   0  0  0  0  0  0  0  0  0  0  0  0
   24.5009   75.6716    4.5968 H   0  0  0  0  0  0  0  0  0  0  0  0
   27.4487   73.4842    5.5293 O   0  0  0  0  0  0  0  0  0  0  0  0
   29.4266   70.6447    2.4846 O   0  0  0  0  0  0  0  0  0  0  0  0
   26.0823   71.9915    4.3617 N   0  0  0  0  0  0  0  0  0  0  0  0
   28.4312   72.0697    4.0116 N   0  0  0  0  0  0  0  0  0  0  0  0
   27.3229   72.5828    4.6982 C   0  0  0  0  0  0  0  0  0  0  0  0
   26.0273   70.9771    3.4136 C   0  0  0  0  0  0  0  0  0  0  0  0
   27.0924   70.4984    2.7677 C   0  0  0  0  0  0  0  0  0  0  0  0
   28.4264   71.0624    3.0603 C   0  0  0  0  0  0  0  0  0  0  0  0
   29.3057   72.4671    4.2276 H   0  0  0  0  0  0  0  0  0  0  0  0
   19.9571   71.3819    1.3790 O   0  0  0  0  0  0  0  0  0  0  0  0
   20.5809   70.6702    0.0683 P   0  0  2  0  0  0  0  0  0  0  0  0
   20.9006   69.1681    0.5799 O   0  0  0  0  0  0  0  0  0  0  0  0
   21.7615   71.3879   -0.5191 O   0  0  0  0  0  0  0  0  0  0  0  0
   19.3320   70.5003   -0.9386 O   0  0  0  0  0  0  0  0  0  0  0  0
   18.9983   71.5424   -3.0391 O   0  0  0  0  0  0  0  0  0  0  0  0
   15.1128   70.9841   -1.7509 O   0  0  0  0  0  0  0  0  0  0  0  0
   17.1710   71.9050    0.1067 O   0  0  0  0  0  0  0  0  0  0  0  0
   16.2326   69.2552   -3.8022 O   0  0  0  0  0  0  0  0  0  0  0  0
   16.5013   70.6766   -1.8754 C   0  0  2  0  0  0  0  0  0  0  0  0
   17.3331   71.8255   -1.3047 C   0  0  2  0  0  0  0  0  0  0  0  0
   16.8112   70.4822   -3.3614 C   0  0  1  0  0  0  0  0  0  0  0  0
   18.8166   71.6391   -1.6259 C   0  0  1  0  0  0  0  0  0  0  0  0
   18.3151   70.4312   -3.6148 C   0  0  1  0  0  0  0  0  0  0  0  0
   14.8925   71.1120   -0.8147 H   0  0  0  0  0  0  0  0  0  0  0  0
   16.2319   72.0231    0.3177 H   0  0  0  0  0  0  0  0  0  0  0  0
   15.2755   69.2747   -3.6463 H   0  0  0  0  0  0  0  0  0  0  0  0
   19.9511   70.6099   -5.2861 O   0  0  0  0  0  0  0  0  0  0  0  0
   17.7719   70.6440   -5.9560 O   0  0  0  0  0  0  0  0  0  0  0  0
   18.6125   70.5729   -5.0721 C   0  0  0  0  0  0  0  0  0  0  0  0
  1  4  1  0
  1 24  1  0
  1  2  1  6
  1  3  2  0
 25 28  1  0
 25 24  1  0
 25 26  1  1
 25 27  2  0
  6 11  1  0
  6 12  1  0
 29 36  1  0
 29 37  1  0
  9  7  1  1
  7 13  1  0
 10  8  1  1
  8 14  1  0
  4  5  1  0
 36 28  1  1
 33 30  1  6
 30 38  1  0
 34 31  1  1
 31 39  1  0
 35 32  1  1
 32 40  1  0
 41 43  1  0
 15 19  2  0
 42 43  2  0
 16 22  2  0
 12 17  1  6
 17 19  1  0
 17 20  1  0
 18 19  1  0
 18 22  1  0
 18 23  1  0
  9 10  1  0
  9 11  1  0
 10 12  1  0
 11  5  1  6
 33 34  1  0
 33 35  1  0
 34 36  1  0
 35 37  1  0
 37 43  1  6
 20 21  2  0
 21 22  1  0
M  CHG  3   2  -1  26  -1  41  -1
M  END
>  <COMPND>  (115) 
    udp_gluA.pdb 

>  <AUTHOR>  (115) 
    GENERATED BY OPEN BABEL 3.1.1

>  <MASTER>  (115) 
        0    0    0    0    0    0    0    0   56    0   56    0

>  <minimizedAffinity>  (115) 
-7.65592

>  <CNNscore>  (115) 
0.5397184491

>  <CNNaffinity>  (115) 
4.4230060577

>  <CNN_VS>  (115) 
2.3871779442

>  <CNNaffinity_variance>  (115) 
0.2093136311

$$$$
116
     RDKit          3D

 43 45  0  0  0  0  0  0  0  0999 V2000
   20.6551   74.8803   -2.7603 P   0  0  2  0  0  0  0  0  0  0  0  0
   20.8299   74.8807   -1.1515 O   0  0  0  0  0  0  0  0  0  0  0  0
   20.2596   76.2000   -3.3550 O   0  0  0  0  0  0  0  0  0  0  0  0
   19.6408   73.6512   -3.0406 O   0  0  0  0  0  0  0  0  0  0  0  0
   18.5205   73.8762   -3.8765 C   0  0  0  0  0  0  0  0  0  0  0  0
   17.0016   72.3011   -4.8713 O   0  0  0  0  0  0  0  0  0  0  0  0
   16.9404   70.9521   -2.1940 O   0  0  0  0  0  0  0  0  0  0  0  0
   18.6503   69.3749   -3.6170 O   0  0  0  0  0  0  0  0  0  0  0  0
   18.0281   71.5986   -2.8554 C   0  0  1  0  0  0  0  0  0  0  0  0
   18.5424   70.7337   -3.9866 C   0  0  2  0  0  0  0  0  0  0  0  0
   17.4738   72.8039   -3.6026 C   0  0  1  0  0  0  0  0  0  0  0  0
   17.4951   70.9657   -5.0623 C   0  0  2  0  0  0  0  0  0  0  0  0
   17.2700   70.1785   -1.7095 H   0  0  0  0  0  0  0  0  0  0  0  0
   19.3296   69.2796   -2.9303 H   0  0  0  0  0  0  0  0  0  0  0  0
   16.0046   70.1919   -7.3330 O   0  0  0  0  0  0  0  0  0  0  0  0
   19.6746   70.5670  -10.0960 O   0  0  0  0  0  0  0  0  0  0  0  0
   18.0361   70.8529   -6.3872 N   0  0  0  0  0  0  0  0  0  0  0  0
   17.8341   70.3785   -8.7068 N   0  0  0  0  0  0  0  0  0  0  0  0
   17.2017   70.4561   -7.4589 C   0  0  0  0  0  0  0  0  0  0  0  0
   19.3775   71.1353   -6.6150 C   0  0  0  0  0  0  0  0  0  0  0  0
   19.9659   71.0569   -7.8102 C   0  0  0  0  0  0  0  0  0  0  0  0
   19.1647   70.6487   -8.9827 C   0  0  0  0  0  0  0  0  0  0  0  0
   17.2740   70.1022   -9.4679 H   0  0  0  0  0  0  0  0  0  0  0  0
   22.0741   74.3060   -3.2794 O   0  0  0  0  0  0  0  0  0  0  0  0
   22.5250   72.8111   -3.6983 P   0  0  2  0  0  0  0  0  0  0  0  0
   24.0942   72.9845   -4.0558 O   0  0  0  0  0  0  0  0  0  0  0  0
   21.7032   72.2058   -4.7994 O   0  0  0  0  0  0  0  0  0  0  0  0
   22.5116   71.9774   -2.3173 O   0  0  0  0  0  0  0  0  0  0  0  0
   22.3181   69.6177   -2.3778 O   0  0  0  0  0  0  0  0  0  0  0  0
   21.3542   70.4397    1.5545 O   0  0  0  0  0  0  0  0  0  0  0  0
   20.3248   72.1173   -0.6043 O   0  0  0  0  0  0  0  0  0  0  0  0
   23.9615   69.3388    0.8908 O   0  0  0  0  0  0  0  0  0  0  0  0
   22.0186   70.6385    0.3067 C   0  0  2  0  0  0  0  0  0  0  0  0
   20.9827   70.8699   -0.7936 C   0  0  2  0  0  0  0  0  0  0  0  0
   22.8440   69.3855    0.0056 C   0  0  1  0  0  0  0  0  0  0  0  0
   21.6394   70.8577   -2.1747 C   0  0  1  0  0  0  0  0  0  0  0  0
   23.3593   69.3897   -1.4307 C   0  0  1  0  0  0  0  0  0  0  0  0
   20.8232   71.2235    1.7667 H   0  0  0  0  0  0  0  0  0  0  0  0
   19.9061   72.1321    0.2702 H   0  0  0  0  0  0  0  0  0  0  0  0
   23.6473   69.3359    1.8084 H   0  0  0  0  0  0  0  0  0  0  0  0
   23.4233   67.0945   -0.9516 O   0  0  0  0  0  0  0  0  0  0  0  0
   24.5941   67.8099   -2.7728 O   0  0  0  0  0  0  0  0  0  0  0  0
   23.8719   68.0397   -1.8143 C   0  0  0  0  0  0  0  0  0  0  0  0
  1  4  1  0
  1 24  1  0
  1  2  1  1
  1  3  2  0
 25 28  1  0
 25 24  1  0
 25 26  1  6
 25 27  2  0
  6 11  1  0
  6 12  1  0
 29 36  1  0
 29 37  1  0
  9  7  1  6
  7 13  1  0
 10  8  1  1
  8 14  1  0
  4  5  1  0
 36 28  1  1
 33 30  1  1
 30 38  1  0
 34 31  1  1
 31 39  1  0
 35 32  1  1
 32 40  1  0
 41 43  1  0
 15 19  2  0
 42 43  2  0
 16 22  2  0
 12 17  1  6
 17 19  1  0
 17 20  1  0
 18 19  1  0
 18 22  1  0
 18 23  1  0
  9 10  1  0
  9 11  1  0
 10 12  1  0
 11  5  1  6
 33 34  1  0
 33 35  1  0
 34 36  1  0
 35 37  1  0
 37 43  1  6
 20 21  2  0
 21 22  1  0
M  CHG  3   2  -1  26  -1  41  -1
M  END
>  <COMPND>  (116) 
    udp_gluA.pdb 

>  <AUTHOR>  (116) 
    GENERATED BY OPEN BABEL 3.1.1

>  <MASTER>  (116) 
        0    0    0    0    0    0    0    0   56    0   56    0

>  <minimizedAffinity>  (116) 
-8.05749

>  <CNNscore>  (116) 
0.4718443751

>  <CNNaffinity>  (116) 
4.6318612099

>  <CNN_VS>  (116) 
2.1855175495

>  <CNNaffinity_variance>  (116) 
0.0433679894

$$$$
117
     RDKit          3D

 43 45  0  0  0  0  0  0  0  0999 V2000
   24.1799   70.2486    3.4537 P   0  0  2  0  0  0  0  0  0  0  0  0
   23.3892   70.2488    4.8657 O   0  0  0  0  0  0  0  0  0  0  0  0
   24.0149   69.0017    2.6353 O   0  0  0  0  0  0  0  0  0  0  0  0
   25.6999   70.6265    3.8596 O   0  0  0  0  0  0  0  0  0  0  0  0
   26.5095   71.2893    2.9058 C   0  0  0  0  0  0  0  0  0  0  0  0
   28.5917   72.0302    3.8510 O   0  0  0  0  0  0  0  0  0  0  0  0
   27.5137   74.8144    3.5719 O   0  0  0  0  0  0  0  0  0  0  0  0
   29.1867   74.6055    1.4286 O   0  0  0  0  0  0  0  0  0  0  0  0
   27.3380   73.6871    2.7135 C   0  0  1  0  0  0  0  0  0  0  0  0
   28.6072   73.4202    1.9324 C   0  0  2  0  0  0  0  0  0  0  0  0
   27.2337   72.4438    3.5863 C   0  0  1  0  0  0  0  0  0  0  0  0
   29.4801   72.7386    2.9723 C   0  0  2  0  0  0  0  0  0  0  0  0
   27.5829   75.6210    3.0367 H   0  0  0  0  0  0  0  0  0  0  0  0
   28.5931   75.0012    0.7706 H   0  0  0  0  0  0  0  0  0  0  0  0
   28.8280   70.9459    0.8896 O   0  0  0  0  0  0  0  0  0  0  0  0
   33.0939   69.2026    0.8078 O   0  0  0  0  0  0  0  0  0  0  0  0
   30.4011   71.8053    2.3879 N   0  0  0  0  0  0  0  0  0  0  0  0
   30.9530   70.0787    0.8515 N   0  0  0  0  0  0  0  0  0  0  0  0
   29.9726   70.9486    1.3465 C   0  0  0  0  0  0  0  0  0  0  0  0
   31.7121   71.7461    2.8449 C   0  0  0  0  0  0  0  0  0  0  0  0
   32.6353   70.9117    2.3631 C   0  0  0  0  0  0  0  0  0  0  0  0
   32.2690   69.9827    1.2740 C   0  0  0  0  0  0  0  0  0  0  0  0
   30.6776   69.4711    0.1274 H   0  0  0  0  0  0  0  0  0  0  0  0
   23.6483   71.5979    2.7399 O   0  0  0  0  0  0  0  0  0  0  0  0
   22.2754   71.9075    1.9441 P   0  0  2  0  0  0  0  0  0  0  0  0
   22.2603   73.5233    1.8476 O   0  0  0  0  0  0  0  0  0  0  0  0
   21.0499   71.3143    2.5766 O   0  0  0  0  0  0  0  0  0  0  0  0
   22.5565   71.4120    0.4349 O   0  0  0  0  0  0  0  0  0  0  0  0
   20.8316   70.1853   -0.6276 O   0  0  0  0  0  0  0  0  0  0  0  0
   24.0243   69.5145   -3.1624 O   0  0  0  0  0  0  0  0  0  0  0  0
   24.3934   69.4444   -0.2653 O   0  0  0  0  0  0  0  0  0  0  0  0
   21.9271   71.3799   -3.9193 O   0  0  0  0  0  0  0  0  0  0  0  0
   23.2299   70.2534   -2.2345 C   0  0  2  0  0  0  0  0  0  0  0  0
   23.1298   69.4818   -0.9184 C   0  0  2  0  0  0  0  0  0  0  0  0
   21.8405   70.4429   -2.8473 C   0  0  1  0  0  0  0  0  0  0  0  0
   22.1048   70.1253    0.0165 C   0  0  1  0  0  0  0  0  0  0  0  0
   20.8448   70.9700   -1.8181 C   0  0  1  0  0  0  0  0  0  0  0  0
   24.9121   69.3817   -2.7943 H   0  0  0  0  0  0  0  0  0  0  0  0
   25.0487   69.0375   -0.8529 H   0  0  0  0  0  0  0  0  0  0  0  0
   22.5579   71.0564   -4.5814 H   0  0  0  0  0  0  0  0  0  0  0  0
   18.7124   70.0461   -1.5004 O   0  0  0  0  0  0  0  0  0  0  0  0
   19.0082   71.3753   -3.3293 O   0  0  0  0  0  0  0  0  0  0  0  0
   19.4438   70.8406   -2.3207 C   0  0  0  0  0  0  0  0  0  0  0  0
  1  4  1  0
  1 24  1  0
  1  2  1  1
  1  3  2  0
 25 28  1  0
 25 24  1  0
 25 26  1  6
 25 27  2  0
  6 11  1  0
  6 12  1  0
 29 36  1  0
 29 37  1  0
  9  7  1  1
  7 13  1  0
 10  8  1  1
  8 14  1  0
  4  5  1  0
 36 28  1  6
 33 30  1  6
 30 38  1  0
 34 31  1  1
 31 39  1  0
 35 32  1  6
 32 40  1  0
 41 43  1  0
 15 19  2  0
 42 43  2  0
 16 22  2  0
 12 17  1  6
 17 19  1  0
 17 20  1  0
 18 19  1  0
 18 22  1  0
 18 23  1  0
  9 10  1  0
  9 11  1  0
 10 12  1  0
 11  5  1  6
 33 34  1  0
 33 35  1  0
 34 36  1  0
 35 37  1  0
 37 43  1  6
 20 21  2  0
 21 22  1  0
M  CHG  3   2  -1  26  -1  41  -1
M  END
>  <COMPND>  (117) 
    udp_gluA.pdb 

>  <AUTHOR>  (117) 
    GENERATED BY OPEN BABEL 3.1.1

>  <MASTER>  (117) 
        0    0    0    0    0    0    0    0   56    0   56    0

>  <minimizedAffinity>  (117) 
-8.72396

>  <CNNscore>  (117) 
0.4469142854

>  <CNNaffinity>  (117) 
4.5389657021

>  <CNN_VS>  (117) 
2.0285286903

>  <CNNaffinity_variance>  (117) 
0.0294117033

$$$$
118
     RDKit          3D

 43 45  0  0  0  0  0  0  0  0999 V2000
   18.0787   72.4578    0.4867 P   0  0  2  0  0  0  0  0  0  0  0  0
   16.8808   72.2672    1.5578 O   0  0  0  0  0  0  0  0  0  0  0  0
   18.3270   73.8747    0.0594 O   0  0  0  0  0  0  0  0  0  0  0  0
   17.7084   71.4210   -0.6990 O   0  0  0  0  0  0  0  0  0  0  0  0
   17.9135   71.8262   -2.0400 C   0  0  0  0  0  0  0  0  0  0  0  0
   17.8425   70.4419   -4.0038 O   0  0  0  0  0  0  0  0  0  0  0  0
   20.7247   69.8284   -3.4488 O   0  0  0  0  0  0  0  0  0  0  0  0
   20.8836   71.6930   -5.4322 O   0  0  0  0  0  0  0  0  0  0  0  0
   20.0074   71.0481   -3.2577 C   0  0  1  0  0  0  0  0  0  0  0  0
   19.7500   71.7190   -4.5903 C   0  0  2  0  0  0  0  0  0  0  0  0
   18.5982   70.6975   -2.8001 C   0  0  1  0  0  0  0  0  0  0  0  0
   18.5953   70.8982   -5.1389 C   0  0  2  0  0  0  0  0  0  0  0  0
   21.6284   70.0269   -3.7414 H   0  0  0  0  0  0  0  0  0  0  0  0
   21.5903   72.2300   -5.0395 H   0  0  0  0  0  0  0  0  0  0  0  0
   18.9708   71.2087   -7.9208 O   0  0  0  0  0  0  0  0  0  0  0  0
   15.2271   73.8684   -8.3138 O   0  0  0  0  0  0  0  0  0  0  0  0
   17.7338   71.6664   -5.9924 N   0  0  0  0  0  0  0  0  0  0  0  0
   17.1064   72.5340   -8.1137 N   0  0  0  0  0  0  0  0  0  0  0  0
   18.0114   71.7587   -7.3768 C   0  0  0  0  0  0  0  0  0  0  0  0
   16.6281   72.3164   -5.4578 C   0  0  0  0  0  0  0  0  0  0  0  0
   15.7745   73.0518   -6.1729 C   0  0  0  0  0  0  0  0  0  0  0  0
   15.9933   73.1998   -7.6267 C   0  0  0  0  0  0  0  0  0  0  0  0
   17.2801   72.6146   -9.0795 H   0  0  0  0  0  0  0  0  0  0  0  0
   19.3333   71.7444    1.2145 O   0  0  0  0  0  0  0  0  0  0  0  0
   20.6977   71.1222    0.6102 P   0  0  2  0  0  0  0  0  0  0  0  0
   21.1295   72.2019   -0.5159 O   0  0  0  0  0  0  0  0  0  0  0  0
   20.5603   69.7172    0.0993 O   0  0  0  0  0  0  0  0  0  0  0  0
   21.7864   71.3034    1.7867 O   0  0  0  0  0  0  0  0  0  0  0  0
   23.7553   72.5777    2.1163 O   0  0  0  0  0  0  0  0  0  0  0  0
   24.8726   68.8985    3.6271 O   0  0  0  0  0  0  0  0  0  0  0  0
   23.3282   69.0766    1.1538 O   0  0  0  0  0  0  0  0  0  0  0  0
   24.2379   71.0860    5.4335 O   0  0  0  0  0  0  0  0  0  0  0  0
   23.9709   69.9615    3.3194 C   0  0  2  0  0  0  0  0  0  0  0  0
   23.9385   70.1836    1.8071 C   0  0  2  0  0  0  0  0  0  0  0  0
   24.4654   71.2223    4.0320 C   0  0  1  0  0  0  0  0  0  0  0  0
   23.1659   71.4562    1.4574 C   0  0  1  0  0  0  0  0  0  0  0  0
   23.7318   72.4657    3.5375 C   0  0  1  0  0  0  0  0  0  0  0  0
   24.5785   68.0865    3.1849 H   0  0  0  0  0  0  0  0  0  0  0  0
   23.8132   68.2656    1.3715 H   0  0  0  0  0  0  0  0  0  0  0  0
   24.6994   70.2980    5.7608 H   0  0  0  0  0  0  0  0  0  0  0  0
   24.7165   74.5040    2.9234 O   0  0  0  0  0  0  0  0  0  0  0  0
   24.7130   73.9773    5.1418 O   0  0  0  0  0  0  0  0  0  0  0  0
   24.4327   73.7076    3.9835 C   0  0  0  0  0  0  0  0  0  0  0  0
  1  4  1  0
  1 24  1  0
  1  2  1  1
  1  3  2  0
 25 28  1  0
 25 24  1  0
 25 26  1  6
 25 27  2  0
  6 11  1  0
  6 12  1  0
 29 36  1  0
 29 37  1  0
  9  7  1  6
  7 13  1  0
 10  8  1  6
  8 14  1  0
  4  5  1  0
 36 28  1  1
 33 30  1  6
 30 38  1  0
 34 31  1  6
 31 39  1  0
 35 32  1  1
 32 40  1  0
 41 43  1  0
 15 19  2  0
 42 43  2  0
 16 22  2  0
 12 17  1  6
 17 19  1  0
 17 20  1  0
 18 19  1  0
 18 22  1  0
 18 23  1  0
  9 10  1  0
  9 11  1  0
 10 12  1  0
 11  5  1  6
 33 34  1  0
 33 35  1  0
 34 36  1  0
 35 37  1  0
 37 43  1  1
 20 21  2  0
 21 22  1  0
M  CHG  3   2  -1  26  -1  41  -1
M  END
>  <COMPND>  (118) 
    udp_gluA.pdb 

>  <AUTHOR>  (118) 
    GENERATED BY OPEN BABEL 3.1.1

>  <MASTER>  (118) 
        0    0    0    0    0    0    0    0   56    0   56    0

>  <minimizedAffinity>  (118) 
-8.15876

>  <CNNscore>  (118) 
0.4371152520

>  <CNNaffinity>  (118) 
4.5380835533

>  <CNN_VS>  (118) 
1.9836655855

>  <CNNaffinity_variance>  (118) 
0.0339942873

$$$$
119
     RDKit          3D

 43 45  0  0  0  0  0  0  0  0999 V2000
   21.4785   73.8976   -2.1123 P   0  0  2  0  0  0  0  0  0  0  0  0
   22.9550   73.3988   -2.5482 O   0  0  0  0  0  0  0  0  0  0  0  0
   21.1443   75.3069   -2.5047 O   0  0  0  0  0  0  0  0  0  0  0  0
   21.4111   73.5745   -0.5283 O   0  0  0  0  0  0  0  0  0  0  0  0
   22.4172   72.7549    0.0379 C   0  0  0  0  0  0  0  0  0  0  0  0
   22.7490   70.7338    1.2961 O   0  0  0  0  0  0  0  0  0  0  0  0
   20.2816   71.4974    2.8194 O   0  0  0  0  0  0  0  0  0  0  0  0
   22.2830   72.2383    4.5169 O   0  0  0  0  0  0  0  0  0  0  0  0
   21.3114   72.3327    2.2899 C   0  0  1  0  0  0  0  0  0  0  0  0
   22.5639   72.2188    3.1330 C   0  0  2  0  0  0  0  0  0  0  0  0
   21.7645   71.7368    0.9641 C   0  0  1  0  0  0  0  0  0  0  0  0
   23.1352   70.8892    2.6708 C   0  0  2  0  0  0  0  0  0  0  0  0
   19.9760   71.8581    3.6668 H   0  0  0  0  0  0  0  0  0  0  0  0
   21.9219   73.1053    4.7613 H   0  0  0  0  0  0  0  0  0  0  0  0
   24.6101   68.6661    3.5977 O   0  0  0  0  0  0  0  0  0  0  0  0
   28.6264   70.8397    2.9743 O   0  0  0  0  0  0  0  0  0  0  0  0
   24.5674   70.8471    2.7611 N   0  0  0  0  0  0  0  0  0  0  0  0
   26.6090   69.7512    3.2873 N   0  0  0  0  0  0  0  0  0  0  0  0
   25.2104   69.6814    3.2406 C   0  0  0  0  0  0  0  0  0  0  0  0
   25.3193   71.9504    2.3760 C   0  0  0  0  0  0  0  0  0  0  0  0
   26.6518   72.0018    2.4262 C   0  0  0  0  0  0  0  0  0  0  0  0
   27.4006   70.8259    2.9159 C   0  0  0  0  0  0  0  0  0  0  0  0
   27.0789   68.9523    3.6196 H   0  0  0  0  0  0  0  0  0  0  0  0
   20.5113   72.7726   -2.7540 O   0  0  0  0  0  0  0  0  0  0  0  0
   20.8307   71.2857   -3.3024 P   0  0  2  0  0  0  0  0  0  0  0  0
   20.9074   70.4009   -1.9490 O   0  0  0  0  0  0  0  0  0  0  0  0
   22.0539   71.1983   -4.1685 O   0  0  0  0  0  0  0  0  0  0  0  0
   19.4662   70.8127   -4.0214 O   0  0  0  0  0  0  0  0  0  0  0  0
   17.5683   72.1778   -4.4005 O   0  0  0  0  0  0  0  0  0  0  0  0
   15.8864   68.4054   -4.3124 O   0  0  0  0  0  0  0  0  0  0  0  0
   17.9502   69.1520   -2.3843 O   0  0  0  0  0  0  0  0  0  0  0  0
   16.2568   69.7790   -6.8475 O   0  0  0  0  0  0  0  0  0  0  0  0
   16.9067   69.3717   -4.5635 C   0  0  2  0  0  0  0  0  0  0  0  0
   17.2898   70.0633   -3.2549 C   0  0  2  0  0  0  0  0  0  0  0  0
   16.3566   70.3914   -5.5632 C   0  0  1  0  0  0  0  0  0  0  0  0
   18.2087   71.2576   -3.5159 C   0  0  1  0  0  0  0  0  0  0  0  0
   17.2675   71.6106   -5.6737 C   0  0  1  0  0  0  0  0  0  0  0  0
   16.2133   67.7467   -3.6794 H   0  0  0  0  0  0  0  0  0  0  0  0
   17.3729   68.3915   -2.2146 H   0  0  0  0  0  0  0  0  0  0  0  0
   15.6798   69.0014   -6.7910 H   0  0  0  0  0  0  0  0  0  0  0  0
   16.8208   73.9113   -5.7685 O   0  0  0  0  0  0  0  0  0  0  0  0
   15.8820   72.6020   -7.3821 O   0  0  0  0  0  0  0  0  0  0  0  0
   16.5746   72.7280   -6.3834 C   0  0  0  0  0  0  0  0  0  0  0  0
  1  4  1  0
  1 24  1  0
  1  2  1  6
  1  3  2  0
 25 28  1  0
 25 24  1  0
 25 26  1  1
 25 27  2  0
  6 11  1  0
  6 12  1  0
 29 36  1  0
 29 37  1  0
  9  7  1  1
  7 13  1  0
 10  8  1  1
  8 14  1  0
  4  5  1  0
 36 28  1  6
 33 30  1  1
 30 38  1  0
 34 31  1  1
 31 39  1  0
 35 32  1  6
 32 40  1  0
 41 43  1  0
 15 19  2  0
 42 43  2  0
 16 22  2  0
 12 17  1  6
 17 19  1  0
 17 20  1  0
 18 19  1  0
 18 22  1  0
 18 23  1  0
  9 10  1  0
  9 11  1  0
 10 12  1  0
 11  5  1  6
 33 34  1  0
 33 35  1  0
 34 36  1  0
 35 37  1  0
 37 43  1  6
 20 21  2  0
 21 22  1  0
M  CHG  3   2  -1  26  -1  41  -1
M  END
>  <COMPND>  (119) 
    udp_gluA.pdb 

>  <AUTHOR>  (119) 
    GENERATED BY OPEN BABEL 3.1.1

>  <MASTER>  (119) 
        0    0    0    0    0    0    0    0   56    0   56    0

>  <minimizedAffinity>  (119) 
-8.09451

>  <CNNscore>  (119) 
0.4199737906

>  <CNNaffinity>  (119) 
4.2766771317

>  <CNN_VS>  (119) 
1.7960922718

>  <CNNaffinity_variance>  (119) 
0.2831848264

$$$$
120
     RDKit          3D

 43 45  0  0  0  0  0  0  0  0999 V2000
   19.8169   73.3909   -1.2352 P   0  0  2  0  0  0  0  0  0  0  0  0
   19.5392   74.6611   -2.1987 O   0  0  0  0  0  0  0  0  0  0  0  0
   18.6247   72.9105   -0.4608 O   0  0  0  0  0  0  0  0  0  0  0  0
   21.0927   73.8461   -0.3503 O   0  0  0  0  0  0  0  0  0  0  0  0
   22.0279   72.8594    0.0451 C   0  0  0  0  0  0  0  0  0  0  0  0
   22.3208   70.8973    1.4023 O   0  0  0  0  0  0  0  0  0  0  0  0
   19.8874   71.8000    2.9041 O   0  0  0  0  0  0  0  0  0  0  0  0
   21.9222   72.5753    4.5456 O   0  0  0  0  0  0  0  0  0  0  0  0
   20.9328   72.5808    2.3245 C   0  0  1  0  0  0  0  0  0  0  0  0
   22.1897   72.4782    3.1623 C   0  0  2  0  0  0  0  0  0  0  0  0
   21.3586   71.9068    1.0273 C   0  0  1  0  0  0  0  0  0  0  0  0
   22.7234   71.1126    2.7643 C   0  0  2  0  0  0  0  0  0  0  0  0
   19.5987   72.2111    3.7344 H   0  0  0  0  0  0  0  0  0  0  0  0
   21.5852   73.4626    4.7482 H   0  0  0  0  0  0  0  0  0  0  0  0
   24.1722   68.7405    3.2646 O   0  0  0  0  0  0  0  0  0  0  0  0
   28.2131   70.9474    3.0534 O   0  0  0  0  0  0  0  0  0  0  0  0
   24.1548   71.0388    2.8452 N   0  0  0  0  0  0  0  0  0  0  0  0
   26.1834   69.8421    3.1599 N   0  0  0  0  0  0  0  0  0  0  0  0
   24.7842   69.7977    3.1011 C   0  0  0  0  0  0  0  0  0  0  0  0
   24.9194   72.1859    2.6705 C   0  0  0  0  0  0  0  0  0  0  0  0
   26.2523   72.2125    2.7293 C   0  0  0  0  0  0  0  0  0  0  0  0
   26.9873   70.9581    2.9934 C   0  0  0  0  0  0  0  0  0  0  0  0
   26.6439   68.9905    3.3390 H   0  0  0  0  0  0  0  0  0  0  0  0
   20.4473   72.2991   -2.2468 O   0  0  0  0  0  0  0  0  0  0  0  0
   21.2326   72.4796   -3.6484 P   0  0  2  0  0  0  0  0  0  0  0  0
   22.2088   71.1892   -3.6943 O   0  0  0  0  0  0  0  0  0  0  0  0
   21.9403   73.7958   -3.7926 O   0  0  0  0  0  0  0  0  0  0  0  0
   20.1209   72.1897   -4.7808 O   0  0  0  0  0  0  0  0  0  0  0  0
   19.3365   69.9647   -4.5724 O   0  0  0  0  0  0  0  0  0  0  0  0
   17.2756   71.2739   -7.9051 O   0  0  0  0  0  0  0  0  0  0  0  0
   20.0971   71.9433   -7.5511 O   0  0  0  0  0  0  0  0  0  0  0  0
   15.9137   71.0347   -5.3479 O   0  0  0  0  0  0  0  0  0  0  0  0
   17.9166   71.4014   -6.6359 C   0  0  2  0  0  0  0  0  0  0  0  0
   19.3857   70.9972   -6.7616 C   0  0  2  0  0  0  0  0  0  0  0  0
   17.1947   70.4833   -5.6471 C   0  0  1  0  0  0  0  0  0  0  0  0
   20.0460   70.9000   -5.3856 C   0  0  1  0  0  0  0  0  0  0  0  0
   17.9793   70.3387   -4.3463 C   0  0  1  0  0  0  0  0  0  0  0  0
   17.7175   71.8485   -8.5499 H   0  0  0  0  0  0  0  0  0  0  0  0
   19.6834   72.0103   -8.4256 H   0  0  0  0  0  0  0  0  0  0  0  0
   15.4041   71.1320   -6.1676 H   0  0  0  0  0  0  0  0  0  0  0  0
   16.5161   68.5094   -4.2266 O   0  0  0  0  0  0  0  0  0  0  0  0
   17.8057   68.9314   -2.3941 O   0  0  0  0  0  0  0  0  0  0  0  0
   17.4500   69.2042   -3.5308 C   0  0  0  0  0  0  0  0  0  0  0  0
  1  4  1  0
  1 24  1  0
  1  2  1  6
  1  3  2  0
 25 28  1  0
 25 24  1  0
 25 26  1  1
 25 27  2  0
  6 11  1  0
  6 12  1  0
 29 36  1  0
 29 37  1  0
  9  7  1  1
  7 13  1  0
 10  8  1  1
  8 14  1  0
  4  5  1  0
 36 28  1  1
 33 30  1  6
 30 38  1  0
 34 31  1  6
 31 39  1  0
 35 32  1  1
 32 40  1  0
 41 43  1  0
 15 19  2  0
 42 43  2  0
 16 22  2  0
 12 17  1  6
 17 19  1  0
 17 20  1  0
 18 19  1  0
 18 22  1  0
 18 23  1  0
  9 10  1  0
  9 11  1  0
 10 12  1  0
 11  5  1  6
 33 34  1  0
 33 35  1  0
 34 36  1  0
 35 37  1  0
 37 43  1  1
 20 21  2  0
 21 22  1  0
M  CHG  3   2  -1  26  -1  41  -1
M  END
>  <COMPND>  (120) 
    udp_gluA.pdb 

>  <AUTHOR>  (120) 
    GENERATED BY OPEN BABEL 3.1.1

>  <MASTER>  (120) 
        0    0    0    0    0    0    0    0   56    0   56    0

>  <minimizedAffinity>  (120) 
-7.92193

>  <CNNscore>  (120) 
0.3967990875

>  <CNNaffinity>  (120) 
4.4013724327

>  <CNN_VS>  (120) 
1.7464605570

>  <CNNaffinity_variance>  (120) 
0.1556386948

$$$$
121
     RDKit          3D

 43 45  0  0  0  0  0  0  0  0999 V2000
   21.7536   72.1891   -1.3740 P   0  0  2  0  0  0  0  0  0  0  0  0
   20.7188   72.3590   -0.1414 O   0  0  0  0  0  0  0  0  0  0  0  0
   22.7895   73.2691   -1.4850 O   0  0  0  0  0  0  0  0  0  0  0  0
   20.7944   72.0004   -2.6633 O   0  0  0  0  0  0  0  0  0  0  0  0
   19.9716   70.8502   -2.7313 C   0  0  0  0  0  0  0  0  0  0  0  0
   18.2435   71.9021   -4.0293 O   0  0  0  0  0  0  0  0  0  0  0  0
   16.3016   70.6319   -2.1301 O   0  0  0  0  0  0  0  0  0  0  0  0
   16.1759   68.9857   -4.3004 O   0  0  0  0  0  0  0  0  0  0  0  0
   17.5358   70.1223   -2.6357 C   0  0  1  0  0  0  0  0  0  0  0  0
   17.3752   69.6983   -4.0803 C   0  0  2  0  0  0  0  0  0  0  0  0
   18.5119   71.2850   -2.7516 C   0  0  1  0  0  0  0  0  0  0  0  0
   17.4041   71.0327   -4.8057 C   0  0  2  0  0  0  0  0  0  0  0  0
   15.6617   69.9070   -2.0474 H   0  0  0  0  0  0  0  0  0  0  0  0
   16.2067   68.1441   -3.8180 H   0  0  0  0  0  0  0  0  0  0  0  0
   15.9113   70.2663   -7.0775 O   0  0  0  0  0  0  0  0  0  0  0  0
   19.5788   70.6499   -9.8427 O   0  0  0  0  0  0  0  0  0  0  0  0
   17.9438   70.9242   -6.1315 N   0  0  0  0  0  0  0  0  0  0  0  0
   17.7396   70.4571   -8.4524 N   0  0  0  0  0  0  0  0  0  0  0  0
   17.1084   70.5308   -7.2037 C   0  0  0  0  0  0  0  0  0  0  0  0
   19.2850   71.2071   -6.3597 C   0  0  0  0  0  0  0  0  0  0  0  0
   19.8723   71.1325   -7.5556 C   0  0  0  0  0  0  0  0  0  0  0  0
   19.0699   70.7281   -8.7286 C   0  0  0  0  0  0  0  0  0  0  0  0
   17.1787   70.1834   -9.2138 H   0  0  0  0  0  0  0  0  0  0  0  0
   22.3505   70.7045   -1.1447 O   0  0  0  0  0  0  0  0  0  0  0  0
   22.4663   69.8018    0.1915 P   0  0  2  0  0  0  0  0  0  0  0  0
   23.5760   68.6926   -0.2066 O   0  0  0  0  0  0  0  0  0  0  0  0
   21.1610   69.2292    0.6630 O   0  0  0  0  0  0  0  0  0  0  0  0
   23.2071   70.7520    1.2644 O   0  0  0  0  0  0  0  0  0  0  0  0
   24.5679   70.1021    3.0906 O   0  0  0  0  0  0  0  0  0  0  0  0
   22.9730   73.6605    4.4551 O   0  0  0  0  0  0  0  0  0  0  0  0
   21.2980   71.7365    3.0314 O   0  0  0  0  0  0  0  0  0  0  0  0
   25.7279   73.5547    3.5328 O   0  0  0  0  0  0  0  0  0  0  0  0
   23.4609   72.7407    3.4784 C   0  0  2  0  0  0  0  0  0  0  0  0
   22.6130   71.4688    3.5047 C   0  0  2  0  0  0  0  0  0  0  0  0
   24.9171   72.4168    3.8195 C   0  0  1  0  0  0  0  0  0  0  0  0
   23.2406   70.3749    2.6397 C   0  0  1  0  0  0  0  0  0  0  0  0
   25.4306   71.2340    3.0035 C   0  0  1  0  0  0  0  0  0  0  0  0
   22.0489   73.8810    4.2587 H   0  0  0  0  0  0  0  0  0  0  0  0
   20.8939   72.4299    3.5756 H   0  0  0  0  0  0  0  0  0  0  0  0
   25.4115   74.3147    4.0458 H   0  0  0  0  0  0  0  0  0  0  0  0
   27.1221   71.4851    4.6089 O   0  0  0  0  0  0  0  0  0  0  0  0
   27.3230   69.7444    3.1498 O   0  0  0  0  0  0  0  0  0  0  0  0
   26.7161   70.7201    3.5654 C   0  0  0  0  0  0  0  0  0  0  0  0
  1  4  1  0
  1 24  1  0
  1  2  1  1
  1  3  2  0
 25 28  1  0
 25 24  1  0
 25 26  1  6
 25 27  2  0
  6 11  1  0
  6 12  1  0
 29 36  1  0
 29 37  1  0
  9  7  1  6
  7 13  1  0
 10  8  1  1
  8 14  1  0
  4  5  1  0
 36 28  1  6
 33 30  1  1
 30 38  1  0
 34 31  1  6
 31 39  1  0
 35 32  1  6
 32 40  1  0
 41 43  1  0
 15 19  2  0
 42 43  2  0
 16 22  2  0
 12 17  1  6
 17 19  1  0
 17 20  1  0
 18 19  1  0
 18 22  1  0
 18 23  1  0
  9 10  1  0
  9 11  1  0
 10 12  1  0
 11  5  1  6
 33 34  1  0
 33 35  1  0
 34 36  1  0
 35 37  1  0
 37 43  1  1
 20 21  2  0
 21 22  1  0
M  CHG  3   2  -1  26  -1  41  -1
M  END
>  <COMPND>  (121) 
    udp_gluA.pdb 

>  <AUTHOR>  (121) 
    GENERATED BY OPEN BABEL 3.1.1

>  <MASTER>  (121) 
        0    0    0    0    0    0    0    0   56    0   56    0

>  <minimizedAffinity>  (121) 
-8.96829

>  <CNNscore>  (121) 
0.7636156082

>  <CNNaffinity>  (121) 
4.8984103203

>  <CNN_VS>  (121) 
3.7405025959

>  <CNNaffinity_variance>  (121) 
0.4232443869

$$$$
122
     RDKit          3D

 43 45  0  0  0  0  0  0  0  0999 V2000
   21.1914   70.3864    0.4781 P   0  0  2  0  0  0  0  0  0  0  0  0
   19.9423   71.2616    1.0191 O   0  0  0  0  0  0  0  0  0  0  0  0
   21.0765   68.9081    0.7089 O   0  0  0  0  0  0  0  0  0  0  0  0
   22.4829   71.1025    1.1394 O   0  0  0  0  0  0  0  0  0  0  0  0
   23.3458   70.3256    1.9496 C   0  0  0  0  0  0  0  0  0  0  0  0
   24.4092   70.4816    4.0996 O   0  0  0  0  0  0  0  0  0  0  0  0
   22.2415   72.4229    4.8237 O   0  0  0  0  0  0  0  0  0  0  0  0
   24.3486   74.0624    4.2684 O   0  0  0  0  0  0  0  0  0  0  0  0
   22.9046   72.2338    3.5734 C   0  0  1  0  0  0  0  0  0  0  0  0
   24.3066   72.8021    3.6324 C   0  0  2  0  0  0  0  0  0  0  0  0
   23.1714   70.7444    3.4038 C   0  0  1  0  0  0  0  0  0  0  0  0
   25.0493   71.7294    4.4106 C   0  0  2  0  0  0  0  0  0  0  0  0
   22.0605   73.3673    4.9544 H   0  0  0  0  0  0  0  0  0  0  0  0
   23.8624   74.7105    3.7342 H   0  0  0  0  0  0  0  0  0  0  0  0
   27.0835   73.3642    5.4903 O   0  0  0  0  0  0  0  0  0  0  0  0
   30.3314   71.3261    2.9326 O   0  0  0  0  0  0  0  0  0  0  0  0
   26.4350   71.6472    4.0446 N   0  0  0  0  0  0  0  0  0  0  0  0
   28.6990   72.3483    4.2146 N   0  0  0  0  0  0  0  0  0  0  0  0
   27.3766   72.5151    4.6465 C   0  0  0  0  0  0  0  0  0  0  0  0
   26.8491   70.7146    3.1014 C   0  0  0  0  0  0  0  0  0  0  0  0
   28.1132   70.5673    2.7000 C   0  0  0  0  0  0  0  0  0  0  0  0
   29.1591   71.4356    3.2792 C   0  0  0  0  0  0  0  0  0  0  0  0
   29.3724   72.9426    4.6180 H   0  0  0  0  0  0  0  0  0  0  0  0
   21.2918   70.8195   -1.0760 O   0  0  0  0  0  0  0  0  0  0  0  0
   20.9271   72.2098   -1.8161 P   0  0  2  0  0  0  0  0  0  0  0  0
   22.0580   72.3229   -2.9688 O   0  0  0  0  0  0  0  0  0  0  0  0
   20.8584   73.3962   -0.8988 O   0  0  0  0  0  0  0  0  0  0  0  0
   19.5603   71.9016   -2.6156 O   0  0  0  0  0  0  0  0  0  0  0  0
   17.7006   70.6911   -1.7876 O   0  0  0  0  0  0  0  0  0  0  0  0
   17.3477   70.0924   -5.8600 O   0  0  0  0  0  0  0  0  0  0  0  0
   19.9628   69.9587   -4.5647 O   0  0  0  0  0  0  0  0  0  0  0  0
   15.5864   71.9647   -4.5024 O   0  0  0  0  0  0  0  0  0  0  0  0
   17.6922   70.8065   -4.6729 C   0  0  2  0  0  0  0  0  0  0  0  0
   18.7199   70.0050   -3.8736 C   0  0  2  0  0  0  0  0  0  0  0  0
   16.4156   71.0034   -3.8522 C   0  0  1  0  0  0  0  0  0  0  0  0
   18.9409   70.6225   -2.4921 C   0  0  1  0  0  0  0  0  0  0  0  0
   16.7296   71.5025   -2.4448 C   0  0  1  0  0  0  0  0  0  0  0  0
   18.1436   69.9554   -6.3977 H   0  0  0  0  0  0  0  0  0  0  0  0
   19.8299   69.5681   -5.4423 H   0  0  0  0  0  0  0  0  0  0  0  0
   15.3793   71.6591   -5.3994 H   0  0  0  0  0  0  0  0  0  0  0  0
   15.8942   70.9468   -0.3247 O   0  0  0  0  0  0  0  0  0  0  0  0
   14.3847   71.6303   -1.8910 O   0  0  0  0  0  0  0  0  0  0  0  0
   15.5332   71.3781   -1.5586 C   0  0  0  0  0  0  0  0  0  0  0  0
  1  4  1  0
  1 24  1  0
  1  2  1  1
  1  3  2  0
 25 28  1  0
 25 24  1  0
 25 26  1  6
 25 27  2  0
  6 11  1  0
  6 12  1  0
 29 36  1  0
 29 37  1  0
  9  7  1  1
  7 13  1  0
 10  8  1  1
  8 14  1  0
  4  5  1  0
 36 28  1  6
 33 30  1  6
 30 38  1  0
 34 31  1  6
 31 39  1  0
 35 32  1  6
 32 40  1  0
 41 43  1  0
 15 19  2  0
 42 43  2  0
 16 22  2  0
 12 17  1  6
 17 19  1  0
 17 20  1  0
 18 19  1  0
 18 22  1  0
 18 23  1  0
  9 10  1  0
  9 11  1  0
 10 12  1  0
 11  5  1  6
 33 34  1  0
 33 35  1  0
 34 36  1  0
 35 37  1  0
 37 43  1  1
 20 21  2  0
 21 22  1  0
M  CHG  3   2  -1  26  -1  41  -1
M  END
>  <COMPND>  (122) 
    udp_gluA.pdb 

>  <AUTHOR>  (122) 
    GENERATED BY OPEN BABEL 3.1.1

>  <MASTER>  (122) 
        0    0    0    0    0    0    0    0   56    0   56    0

>  <minimizedAffinity>  (122) 
-7.98159

>  <CNNscore>  (122) 
0.7256742716

>  <CNNaffinity>  (122) 
4.5318751335

>  <CNN_VS>  (122) 
3.2886652946

>  <CNNaffinity_variance>  (122) 
0.1462066025

$$$$
123
     RDKit          3D

 43 45  0  0  0  0  0  0  0  0999 V2000
   21.4931   70.5822   -0.2586 P   0  0  2  0  0  0  0  0  0  0  0  0
   22.2455   69.8743   -1.5042 O   0  0  0  0  0  0  0  0  0  0  0  0
   21.6525   72.0725   -0.1862 O   0  0  0  0  0  0  0  0  0  0  0  0
   22.0153   69.7562    1.0310 O   0  0  0  0  0  0  0  0  0  0  0  0
   23.2287   70.1539    1.6426 C   0  0  0  0  0  0  0  0  0  0  0  0
   24.1380   70.3087    3.8623 O   0  0  0  0  0  0  0  0  0  0  0  0
   21.8988   72.2158    4.4458 O   0  0  0  0  0  0  0  0  0  0  0  0
   24.0166   73.8871    4.0486 O   0  0  0  0  0  0  0  0  0  0  0  0
   22.6496   72.0444    3.2436 C   0  0  1  0  0  0  0  0  0  0  0  0
   24.0362   72.6309    3.4034 C   0  0  2  0  0  0  0  0  0  0  0  0
   22.9480   70.5600    3.0837 C   0  0  1  0  0  0  0  0  0  0  0  0
   24.7377   71.5626    4.2247 C   0  0  2  0  0  0  0  0  0  0  0  0
   21.6961   73.1567    4.5695 H   0  0  0  0  0  0  0  0  0  0  0  0
   23.5597   74.5325    3.4858 H   0  0  0  0  0  0  0  0  0  0  0  0
   26.6753   73.1796    5.4927 O   0  0  0  0  0  0  0  0  0  0  0  0
   30.1144   71.2421    3.1130 O   0  0  0  0  0  0  0  0  0  0  0  0
   26.1465   71.5015    3.9555 N   0  0  0  0  0  0  0  0  0  0  0  0
   28.3862   72.2138    4.3055 N   0  0  0  0  0  0  0  0  0  0  0  0
   27.0352   72.3580    4.6474 C   0  0  0  0  0  0  0  0  0  0  0  0
   26.6349   70.6003    3.0173 C   0  0  0  0  0  0  0  0  0  0  0  0
   27.9254   70.4743    2.7021 C   0  0  0  0  0  0  0  0  0  0  0  0
   28.9197   71.3327    3.3789 C   0  0  0  0  0  0  0  0  0  0  0  0
   29.0238   72.8009    4.7726 H   0  0  0  0  0  0  0  0  0  0  0  0
   19.9668   70.0754   -0.4211 O   0  0  0  0  0  0  0  0  0  0  0  0
   18.6916   70.7610   -1.1403 P   0  0  2  0  0  0  0  0  0  0  0  0
   18.4477   72.0996   -0.2632 O   0  0  0  0  0  0  0  0  0  0  0  0
   17.4912   69.8660   -1.2495 O   0  0  0  0  0  0  0  0  0  0  0  0
   19.2576   71.2972   -2.5526 O   0  0  0  0  0  0  0  0  0  0  0  0
   18.5514   69.6856   -4.1379 O   0  0  0  0  0  0  0  0  0  0  0  0
   20.3116   72.5322   -6.5600 O   0  0  0  0  0  0  0  0  0  0  0  0
   21.5642   71.7543   -4.0381 O   0  0  0  0  0  0  0  0  0  0  0  0
   17.4153   72.3317   -6.4116 O   0  0  0  0  0  0  0  0  0  0  0  0
   19.5945   72.0519   -5.4229 C   0  0  2  0  0  0  0  0  0  0  0  0
   20.4708   71.0725   -4.6415 C   0  0  2  0  0  0  0  0  0  0  0  0
   18.3291   71.3515   -5.9230 C   0  0  1  0  0  0  0  0  0  0  0  0
   19.6632   70.3645   -3.5528 C   0  0  1  0  0  0  0  0  0  0  0  0
   17.6494   70.5647   -4.8061 C   0  0  1  0  0  0  0  0  0  0  0  0
   21.1201   72.9812   -6.2666 H   0  0  0  0  0  0  0  0  0  0  0  0
   22.0809   72.2061   -4.7232 H   0  0  0  0  0  0  0  0  0  0  0  0
   17.8357   72.8396   -7.1230 H   0  0  0  0  0  0  0  0  0  0  0  0
   16.3045   68.6751   -4.4568 O   0  0  0  0  0  0  0  0  0  0  0  0
   16.1311   69.7158   -6.4782 O   0  0  0  0  0  0  0  0  0  0  0  0
   16.6229   69.6326   -5.3627 C   0  0  0  0  0  0  0  0  0  0  0  0
  1  4  1  0
  1 24  1  0
  1  2  1  6
  1  3  2  0
 25 28  1  0
 25 24  1  0
 25 26  1  1
 25 27  2  0
  6 11  1  0
  6 12  1  0
 29 36  1  0
 29 37  1  0
  9  7  1  1
  7 13  1  0
 10  8  1  1
  8 14  1  0
  4  5  1  0
 36 28  1  1
 33 30  1  6
 30 38  1  0
 34 31  1  1
 31 39  1  0
 35 32  1  1
 32 40  1  0
 41 43  1  0
 15 19  2  0
 42 43  2  0
 16 22  2  0
 12 17  1  6
 17 19  1  0
 17 20  1  0
 18 19  1  0
 18 22  1  0
 18 23  1  0
  9 10  1  0
  9 11  1  0
 10 12  1  0
 11  5  1  6
 33 34  1  0
 33 35  1  0
 34 36  1  0
 35 37  1  0
 37 43  1  6
 20 21  2  0
 21 22  1  0
M  CHG  3   2  -1  26  -1  41  -1
M  END
>  <COMPND>  (123) 
    udp_gluA.pdb 

>  <AUTHOR>  (123) 
    GENERATED BY OPEN BABEL 3.1.1

>  <MASTER>  (123) 
        0    0    0    0    0    0    0    0   56    0   56    0

>  <minimizedAffinity>  (123) 
-9.03186

>  <CNNscore>  (123) 
0.7014421821

>  <CNNaffinity>  (123) 
4.7662615776

>  <CNN_VS>  (123) 
3.3432569504

>  <CNNaffinity_variance>  (123) 
0.1929462701

$$$$
124
     RDKit          3D

 43 45  0  0  0  0  0  0  0  0999 V2000
   20.3830   70.8579   -0.6859 P   0  0  2  0  0  0  0  0  0  0  0  0
   21.1250   70.4451   -2.0635 O   0  0  0  0  0  0  0  0  0  0  0  0
   20.4792   69.8421    0.4145 O   0  0  0  0  0  0  0  0  0  0  0  0
   18.8838   71.2471   -1.1536 O   0  0  0  0  0  0  0  0  0  0  0  0
   18.7246   72.1038   -2.2695 C   0  0  0  0  0  0  0  0  0  0  0  0
   17.2059   72.4121   -4.1069 O   0  0  0  0  0  0  0  0  0  0  0  0
   15.1950   70.9262   -2.4517 O   0  0  0  0  0  0  0  0  0  0  0  0
   16.0593   69.0163   -4.1956 O   0  0  0  0  0  0  0  0  0  0  0  0
   16.6049   70.7263   -2.5553 C   0  0  1  0  0  0  0  0  0  0  0  0
   16.9453   70.0686   -3.8758 C   0  0  2  0  0  0  0  0  0  0  0  0
   17.2635   72.0914   -2.7001 C   0  0  1  0  0  0  0  0  0  0  0  0
   16.8425   71.2343   -4.8445 C   0  0  2  0  0  0  0  0  0  0  0  0
   14.7523   70.0677   -2.3582 H   0  0  0  0  0  0  0  0  0  0  0  0
   16.1632   68.2988   -3.5502 H   0  0  0  0  0  0  0  0  0  0  0  0
   15.9923   70.7888   -7.5007 O   0  0  0  0  0  0  0  0  0  0  0  0
   20.3260   70.7130   -9.0685 O   0  0  0  0  0  0  0  0  0  0  0  0
   17.7274   71.0943   -5.9662 N   0  0  0  0  0  0  0  0  0  0  0  0
   18.1516   70.7505   -8.2788 N   0  0  0  0  0  0  0  0  0  0  0  0
   17.1980   70.8728   -7.2596 C   0  0  0  0  0  0  0  0  0  0  0  0
   19.1019   71.1783   -5.7800 C   0  0  0  0  0  0  0  0  0  0  0  0
   19.9984   71.0598   -6.7614 C   0  0  0  0  0  0  0  0  0  0  0  0
   19.5283   70.8261   -8.1426 C   0  0  0  0  0  0  0  0  0  0  0  0
   17.8070   70.5937   -9.1877 H   0  0  0  0  0  0  0  0  0  0  0  0
   21.0388   72.2933   -0.3365 O   0  0  0  0  0  0  0  0  0  0  0  0
   20.7238   73.3433    0.8518 P   0  0  2  0  0  0  0  0  0  0  0  0
   19.4480   72.6842    1.5991 O   0  0  0  0  0  0  0  0  0  0  0  0
   20.5066   74.7538    0.3858 O   0  0  0  0  0  0  0  0  0  0  0  0
   21.9434   73.1621    1.8921 O   0  0  0  0  0  0  0  0  0  0  0  0
   22.3984   71.0535    2.8697 O   0  0  0  0  0  0  0  0  0  0  0  0
   24.3779   73.6148    5.4366 O   0  0  0  0  0  0  0  0  0  0  0  0
   21.7231   74.2933    4.4235 O   0  0  0  0  0  0  0  0  0  0  0  0
   25.8755   72.0336    3.5110 O   0  0  0  0  0  0  0  0  0  0  0  0
   23.8598   73.1695    4.1831 C   0  0  2  0  0  0  0  0  0  0  0  0
   22.3414   73.0197    4.2811 C   0  0  2  0  0  0  0  0  0  0  0  0
   24.5076   71.8223    3.8554 C   0  0  1  0  0  0  0  0  0  0  0  0
   21.7785   72.3290    3.0381 C   0  0  1  0  0  0  0  0  0  0  0  0
   23.8094   71.1390    2.6832 C   0  0  1  0  0  0  0  0  0  0  0  0
   23.9803   74.4697    5.6657 H   0  0  0  0  0  0  0  0  0  0  0  0
   22.0758   74.7373    5.2102 H   0  0  0  0  0  0  0  0  0  0  0  0
   26.3313   72.4682    4.2488 H   0  0  0  0  0  0  0  0  0  0  0  0
   23.5246   69.0755    1.6050 O   0  0  0  0  0  0  0  0  0  0  0  0
   25.0710   69.1702    3.2780 O   0  0  0  0  0  0  0  0  0  0  0  0
   24.2218   69.7065    2.5821 C   0  0  0  0  0  0  0  0  0  0  0  0
  1  4  1  0
  1 24  1  0
  1  2  1  6
  1  3  2  0
 25 28  1  0
 25 24  1  0
 25 26  1  1
 25 27  2  0
  6 11  1  0
  6 12  1  0
 29 36  1  0
 29 37  1  0
  9  7  1  6
  7 13  1  0
 10  8  1  6
  8 14  1  0
  4  5  1  0
 36 28  1  6
 33 30  1  1
 30 38  1  0
 34 31  1  6
 31 39  1  0
 35 32  1  6
 32 40  1  0
 41 43  1  0
 15 19  2  0
 42 43  2  0
 16 22  2  0
 12 17  1  6
 17 19  1  0
 17 20  1  0
 18 19  1  0
 18 22  1  0
 18 23  1  0
  9 10  1  0
  9 11  1  0
 10 12  1  0
 11  5  1  6
 33 34  1  0
 33 35  1  0
 34 36  1  0
 35 37  1  0
 37 43  1  1
 20 21  2  0
 21 22  1  0
M  CHG  3   2  -1  26  -1  41  -1
M  END
>  <COMPND>  (124) 
    udp_gluA.pdb 

>  <AUTHOR>  (124) 
    GENERATED BY OPEN BABEL 3.1.1

>  <MASTER>  (124) 
        0    0    0    0    0    0    0    0   56    0   56    0

>  <minimizedAffinity>  (124) 
-7.97743

>  <CNNscore>  (124) 
0.6816433668

>  <CNNaffinity>  (124) 
4.7269787788

>  <CNN_VS>  (124) 
3.2221138477

>  <CNNaffinity_variance>  (124) 
0.0976361632

$$$$
125
     RDKit          3D

 43 45  0  0  0  0  0  0  0  0999 V2000
   22.2394   69.5960   -0.3593 P   0  0  2  0  0  0  0  0  0  0  0  0
   21.0781   69.2205    0.7034 O   0  0  0  0  0  0  0  0  0  0  0  0
   22.9706   68.4214   -0.9402 O   0  0  0  0  0  0  0  0  0  0  0  0
   23.1540   70.6730    0.4291 O   0  0  0  0  0  0  0  0  0  0  0  0
   24.2538   70.2011    1.1855 C   0  0  0  0  0  0  0  0  0  0  0  0
   25.1058   70.0379    3.4272 O   0  0  0  0  0  0  0  0  0  0  0  0
   22.5884   71.4225    4.2860 O   0  0  0  0  0  0  0  0  0  0  0  0
   24.4200   73.4424    4.3181 O   0  0  0  0  0  0  0  0  0  0  0  0
   23.3684   71.6157    3.1059 C   0  0  1  0  0  0  0  0  0  0  0  0
   24.6436   72.3617    3.4368 C   0  0  2  0  0  0  0  0  0  0  0  0
   23.8987   70.2579    2.6658 C   0  0  1  0  0  0  0  0  0  0  0  0
   25.4968   71.2683    4.0569 C   0  0  2  0  0  0  0  0  0  0  0  0
   22.2388   72.2764    4.5863 H   0  0  0  0  0  0  0  0  0  0  0  0
   23.8726   74.1115    3.8768 H   0  0  0  0  0  0  0  0  0  0  0  0
   27.0597   73.1646    5.4491 O   0  0  0  0  0  0  0  0  0  0  0  0
   30.8716   71.9887    3.1402 O   0  0  0  0  0  0  0  0  0  0  0  0
   26.9002   71.4787    3.8395 N   0  0  0  0  0  0  0  0  0  0  0  0
   28.9565   72.5779    4.2971 N   0  0  0  0  0  0  0  0  0  0  0  0
   27.5922   72.4569    4.5920 C   0  0  0  0  0  0  0  0  0  0  0  0
   27.5765   70.7202    2.8918 C   0  0  0  0  0  0  0  0  0  0  0  0
   28.8773   70.8468    2.6220 C   0  0  0  0  0  0  0  0  0  0  0  0
   29.6731   71.8469    3.3634 C   0  0  0  0  0  0  0  0  0  0  0  0
   29.4590   73.2539    4.8068 H   0  0  0  0  0  0  0  0  0  0  0  0
   21.4589   70.5064   -1.4432 O   0  0  0  0  0  0  0  0  0  0  0  0
   19.9289   71.0268   -1.4873 P   0  0  2  0  0  0  0  0  0  0  0  0
   20.0050   72.4623   -0.7429 O   0  0  0  0  0  0  0  0  0  0  0  0
   18.9362   70.0722   -0.8897 O   0  0  0  0  0  0  0  0  0  0  0  0
   19.6631   71.3857   -3.0374 O   0  0  0  0  0  0  0  0  0  0  0  0
   19.0729   69.3050   -4.0026 O   0  0  0  0  0  0  0  0  0  0  0  0
   18.4219   71.9050   -7.1465 O   0  0  0  0  0  0  0  0  0  0  0  0
   20.7838   72.1928   -5.4517 O   0  0  0  0  0  0  0  0  0  0  0  0
   16.1717   70.8262   -5.6553 O   0  0  0  0  0  0  0  0  0  0  0  0
   18.4804   71.5043   -5.7776 C   0  0  2  0  0  0  0  0  0  0  0  0
   19.9058   71.0733   -5.4311 C   0  0  2  0  0  0  0  0  0  0  0  0
   17.5097   70.3371   -5.5846 C   0  0  1  0  0  0  0  0  0  0  0  0
   19.9598   70.4234   -4.0478 C   0  0  1  0  0  0  0  0  0  0  0  0
   17.7116   69.6627   -4.2307 C   0  0  1  0  0  0  0  0  0  0  0  0
   19.0309   72.6459   -7.2931 H   0  0  0  0  0  0  0  0  0  0  0  0
   20.7544   72.6103   -6.3264 H   0  0  0  0  0  0  0  0  0  0  0  0
   16.0301   71.2580   -6.5122 H   0  0  0  0  0  0  0  0  0  0  0  0
   17.6763   67.4726   -3.3917 O   0  0  0  0  0  0  0  0  0  0  0  0
   15.9678   68.0854   -4.7718 O   0  0  0  0  0  0  0  0  0  0  0  0
   17.0064   68.3463   -4.1834 C   0  0  0  0  0  0  0  0  0  0  0  0
  1  4  1  0
  1 24  1  0
  1  2  1  1
  1  3  2  0
 25 28  1  0
 25 24  1  0
 25 26  1  1
 25 27  2  0
  6 11  1  0
  6 12  1  0
 29 36  1  0
 29 37  1  0
  9  7  1  1
  7 13  1  0
 10  8  1  1
  8 14  1  0
  4  5  1  0
 36 28  1  1
 33 30  1  6
 30 38  1  0
 34 31  1  1
 31 39  1  0
 35 32  1  1
 32 40  1  0
 41 43  1  0
 15 19  2  0
 42 43  2  0
 16 22  2  0
 12 17  1  6
 17 19  1  0
 17 20  1  0
 18 19  1  0
 18 22  1  0
 18 23  1  0
  9 10  1  0
  9 11  1  0
 10 12  1  0
 11  5  1  6
 33 34  1  0
 33 35  1  0
 34 36  1  0
 35 37  1  0
 37 43  1  6
 20 21  2  0
 21 22  1  0
M  CHG  3   2  -1  26  -1  41  -1
M  END
>  <COMPND>  (125) 
    udp_gluA.pdb 

>  <AUTHOR>  (125) 
    GENERATED BY OPEN BABEL 3.1.1

>  <MASTER>  (125) 
        0    0    0    0    0    0    0    0   56    0   56    0

>  <minimizedAffinity>  (125) 
-9.59544

>  <CNNscore>  (125) 
0.6621515155

>  <CNNaffinity>  (125) 
4.7229895592

>  <CNN_VS>  (125) 
3.1273345947

>  <CNNaffinity_variance>  (125) 
0.0271807313

$$$$
126
     RDKit          3D

 43 45  0  0  0  0  0  0  0  0999 V2000
   20.9009   70.6101    0.5098 P   0  0  2  0  0  0  0  0  0  0  0  0
   19.9357   71.3404    1.5841 O   0  0  0  0  0  0  0  0  0  0  0  0
   21.0359   69.1260    0.6855 O   0  0  0  0  0  0  0  0  0  0  0  0
   22.2785   71.4551    0.5879 O   0  0  0  0  0  0  0  0  0  0  0  0
   23.3834   70.8856    1.2657 C   0  0  0  0  0  0  0  0  0  0  0  0
   24.2930   70.4283    3.4431 O   0  0  0  0  0  0  0  0  0  0  0  0
   22.1264   72.2020    4.5161 O   0  0  0  0  0  0  0  0  0  0  0  0
   24.3069   73.8392    4.5474 O   0  0  0  0  0  0  0  0  0  0  0  0
   22.8728   72.3190    3.3047 C   0  0  1  0  0  0  0  0  0  0  0  0
   24.2803   72.7924    3.5998 C   0  0  2  0  0  0  0  0  0  0  0  0
   23.1151   70.9161    2.7649 C   0  0  1  0  0  0  0  0  0  0  0  0
   24.9390   71.5229    4.1122 C   0  0  2  0  0  0  0  0  0  0  0  0
   21.9593   73.0859    4.8800 H   0  0  0  0  0  0  0  0  0  0  0  0
   23.8761   74.6245    4.1737 H   0  0  0  0  0  0  0  0  0  0  0  0
   26.9204   72.8148    5.6555 O   0  0  0  0  0  0  0  0  0  0  0  0
   30.3029   71.2939    2.9187 O   0  0  0  0  0  0  0  0  0  0  0  0
   26.3451   71.4810    3.8256 N   0  0  0  0  0  0  0  0  0  0  0  0
   28.6031   72.0569    4.2904 N   0  0  0  0  0  0  0  0  0  0  0  0
   27.2570   72.1647    4.6640 C   0  0  0  0  0  0  0  0  0  0  0  0
   26.8079   70.7679    2.7265 C   0  0  0  0  0  0  0  0  0  0  0  0
   28.0940   70.6741    2.3831 C   0  0  0  0  0  0  0  0  0  0  0  0
   29.1115   71.3601    3.2062 C   0  0  0  0  0  0  0  0  0  0  0  0
   29.2566   72.5262    4.8578 H   0  0  0  0  0  0  0  0  0  0  0  0
   20.2749   71.0660   -0.9091 O   0  0  0  0  0  0  0  0  0  0  0  0
   20.9424   71.1760   -2.3774 P   0  0  2  0  0  0  0  0  0  0  0  0
   21.8658   69.8493   -2.4642 O   0  0  0  0  0  0  0  0  0  0  0  0
   21.6802   72.4601   -2.6238 O   0  0  0  0  0  0  0  0  0  0  0  0
   19.7279   70.8945   -3.4012 O   0  0  0  0  0  0  0  0  0  0  0  0
   18.0012   72.3535   -4.1076 O   0  0  0  0  0  0  0  0  0  0  0  0
   16.1197   68.6794   -4.2784 O   0  0  0  0  0  0  0  0  0  0  0  0
   17.8661   69.3459   -2.0333 O   0  0  0  0  0  0  0  0  0  0  0  0
   16.9904   69.9881   -6.7239 O   0  0  0  0  0  0  0  0  0  0  0  0
   17.2204   69.5849   -4.3597 C   0  0  2  0  0  0  0  0  0  0  0  0
   17.4146   70.2768   -3.0102 C   0  0  2  0  0  0  0  0  0  0  0  0
   16.9055   70.6158   -5.4459 C   0  0  1  0  0  0  0  0  0  0  0  0
   18.4300   71.4151   -3.1201 C   0  0  1  0  0  0  0  0  0  0  0  0
   17.8889   71.7820   -5.4091 C   0  0  1  0  0  0  0  0  0  0  0  0
   16.2973   68.0149   -3.5942 H   0  0  0  0  0  0  0  0  0  0  0  0
   17.2266   68.6207   -1.9585 H   0  0  0  0  0  0  0  0  0  0  0  0
   16.3694   69.2438   -6.7604 H   0  0  0  0  0  0  0  0  0  0  0  0
   17.0526   73.9731   -5.4456 O   0  0  0  0  0  0  0  0  0  0  0  0
   17.2975   72.9197   -7.4529 O   0  0  0  0  0  0  0  0  0  0  0  0
   17.3899   72.9230   -6.2346 C   0  0  0  0  0  0  0  0  0  0  0  0
  1  4  1  0
  1 24  1  0
  1  2  1  1
  1  3  2  0
 25 28  1  0
 25 24  1  0
 25 26  1  1
 25 27  2  0
  6 11  1  0
  6 12  1  0
 29 36  1  0
 29 37  1  0
  9  7  1  1
  7 13  1  0
 10  8  1  1
  8 14  1  0
  4  5  1  0
 36 28  1  6
 33 30  1  1
 30 38  1  0
 34 31  1  1
 31 39  1  0
 35 32  1  6
 32 40  1  0
 41 43  1  0
 15 19  2  0
 42 43  2  0
 16 22  2  0
 12 17  1  6
 17 19  1  0
 17 20  1  0
 18 19  1  0
 18 22  1  0
 18 23  1  0
  9 10  1  0
  9 11  1  0
 10 12  1  0
 11  5  1  6
 33 34  1  0
 33 35  1  0
 34 36  1  0
 35 37  1  0
 37 43  1  6
 20 21  2  0
 21 22  1  0
M  CHG  3   2  -1  26  -1  41  -1
M  END
>  <COMPND>  (126) 
    udp_gluA.pdb 

>  <AUTHOR>  (126) 
    GENERATED BY OPEN BABEL 3.1.1

>  <MASTER>  (126) 
        0    0    0    0    0    0    0    0   56    0   56    0

>  <minimizedAffinity>  (126) 
-8.66695

>  <CNNscore>  (126) 
0.6412204504

>  <CNNaffinity>  (126) 
4.7254533768

>  <CNN_VS>  (126) 
3.0300574303

>  <CNNaffinity_variance>  (126) 
0.3317459226

$$$$
127
     RDKit          3D

 43 45  0  0  0  0  0  0  0  0999 V2000
   22.4316   71.9325   -3.2717 P   0  0  2  0  0  0  0  0  0  0  0  0
   22.9670   73.1520   -2.3524 O   0  0  0  0  0  0  0  0  0  0  0  0
   22.1511   72.2926   -4.7012 O   0  0  0  0  0  0  0  0  0  0  0  0
   21.1786   71.3385   -2.4379 O   0  0  0  0  0  0  0  0  0  0  0  0
   20.2815   70.4638   -3.0972 C   0  0  0  0  0  0  0  0  0  0  0  0
   18.6231   71.7461   -4.2732 O   0  0  0  0  0  0  0  0  0  0  0  0
   16.6387   70.6127   -2.3317 O   0  0  0  0  0  0  0  0  0  0  0  0
   16.2424   69.0799   -4.5520 O   0  0  0  0  0  0  0  0  0  0  0  0
   17.7876   69.9959   -2.9132 C   0  0  1  0  0  0  0  0  0  0  0  0
   17.5201   69.6511   -4.3630 C   0  0  2  0  0  0  0  0  0  0  0  0
   18.8779   71.0520   -3.0328 C   0  0  1  0  0  0  0  0  0  0  0  0
   17.6619   71.0037   -5.0401 C   0  0  2  0  0  0  0  0  0  0  0  0
   15.9284   69.9572   -2.2453 H   0  0  0  0  0  0  0  0  0  0  0  0
   16.2028   68.2206   -4.1024 H   0  0  0  0  0  0  0  0  0  0  0  0
   15.9858   70.6118   -7.2793 O   0  0  0  0  0  0  0  0  0  0  0  0
   19.5643   70.5931  -10.1840 O   0  0  0  0  0  0  0  0  0  0  0  0
   18.1292   70.8929   -6.3930 N   0  0  0  0  0  0  0  0  0  0  0  0
   17.7698   70.6018   -8.7237 N   0  0  0  0  0  0  0  0  0  0  0  0
   17.2040   70.6968   -7.4455 C   0  0  0  0  0  0  0  0  0  0  0  0
   19.4888   70.9801   -6.6665 C   0  0  0  0  0  0  0  0  0  0  0  0
   20.0131   70.8878   -7.8902 C   0  0  0  0  0  0  0  0  0  0  0  0
   19.1151   70.6817   -9.0454 C   0  0  0  0  0  0  0  0  0  0  0  0
   17.1456   70.4632   -9.4724 H   0  0  0  0  0  0  0  0  0  0  0  0
   23.5693   70.8016   -3.0729 O   0  0  0  0  0  0  0  0  0  0  0  0
   23.6464   69.5391   -2.0662 P   0  0  2  0  0  0  0  0  0  0  0  0
   25.2326   69.2264   -1.9858 O   0  0  0  0  0  0  0  0  0  0  0  0
   22.8054   68.3672   -2.4825 O   0  0  0  0  0  0  0  0  0  0  0  0
   23.2774   70.1471   -0.6182 O   0  0  0  0  0  0  0  0  0  0  0  0
   23.7697   69.1341    1.4653 O   0  0  0  0  0  0  0  0  0  0  0  0
   20.5002   71.4726    2.4191 O   0  0  0  0  0  0  0  0  0  0  0  0
   20.5565   69.9525   -0.0750 O   0  0  0  0  0  0  0  0  0  0  0  0
   23.1699   72.3024    3.2157 O   0  0  0  0  0  0  0  0  0  0  0  0
   21.6944   71.1260    1.7178 C   0  0  2  0  0  0  0  0  0  0  0  0
   21.4915   69.7988    0.9865 C   0  0  2  0  0  0  0  0  0  0  0  0
   22.8250   71.0021    2.7417 C   0  0  1  0  0  0  0  0  0  0  0  0
   22.8125   69.2812    0.4157 C   0  0  1  0  0  0  0  0  0  0  0  0
   24.0661   70.3622    2.1264 C   0  0  1  0  0  0  0  0  0  0  0  0
   19.7676   71.5567    1.7886 H   0  0  0  0  0  0  0  0  0  0  0  0
   19.7160   70.2810    0.2800 H   0  0  0  0  0  0  0  0  0  0  0  0
   22.3885   72.7208    3.6097 H   0  0  0  0  0  0  0  0  0  0  0  0
   24.7873   68.6730    3.5852 O   0  0  0  0  0  0  0  0  0  0  0  0
   25.9210   70.6504    3.6422 O   0  0  0  0  0  0  0  0  0  0  0  0
   25.0309   69.9468    3.1890 C   0  0  0  0  0  0  0  0  0  0  0  0
  1  4  1  0
  1 24  1  0
  1  2  1  1
  1  3  2  0
 25 28  1  0
 25 24  1  0
 25 26  1  1
 25 27  2  0
  6 11  1  0
  6 12  1  0
 29 36  1  0
 29 37  1  0
  9  7  1  6
  7 13  1  0
 10  8  1  1
  8 14  1  0
  4  5  1  0
 36 28  1  6
 33 30  1  1
 30 38  1  0
 34 31  1  6
 31 39  1  0
 35 32  1  6
 32 40  1  0
 41 43  1  0
 15 19  2  0
 42 43  2  0
 16 22  2  0
 12 17  1  6
 17 19  1  0
 17 20  1  0
 18 19  1  0
 18 22  1  0
 18 23  1  0
  9 10  1  0
  9 11  1  0
 10 12  1  0
 11  5  1  6
 33 34  1  0
 33 35  1  0
 34 36  1  0
 35 37  1  0
 37 43  1  1
 20 21  2  0
 21 22  1  0
M  CHG  3   2  -1  26  -1  41  -1
M  END
>  <COMPND>  (127) 
    udp_gluA.pdb 

>  <AUTHOR>  (127) 
    GENERATED BY OPEN BABEL 3.1.1

>  <MASTER>  (127) 
        0    0    0    0    0    0    0    0   56    0   56    0

>  <minimizedAffinity>  (127) 
-8.78072

>  <CNNscore>  (127) 
0.6411650777

>  <CNNaffinity>  (127) 
4.6047768593

>  <CNN_VS>  (127) 
2.9524221420

>  <CNNaffinity_variance>  (127) 
0.1066993847

$$$$
128
     RDKit          3D

 43 45  0  0  0  0  0  0  0  0999 V2000
   20.8181   70.5952    0.2079 P   0  0  2  0  0  0  0  0  0  0  0  0
   19.3415   71.2353    0.3773 O   0  0  0  0  0  0  0  0  0  0  0  0
   20.9468   69.1704    0.6607 O   0  0  0  0  0  0  0  0  0  0  0  0
   21.7893   71.6577    0.9468 O   0  0  0  0  0  0  0  0  0  0  0  0
   22.9597   71.1762    1.5814 C   0  0  0  0  0  0  0  0  0  0  0  0
   23.9570   70.7167    3.7196 O   0  0  0  0  0  0  0  0  0  0  0  0
   21.9566   72.6391    4.8574 O   0  0  0  0  0  0  0  0  0  0  0  0
   24.2262   74.1456    4.7318 O   0  0  0  0  0  0  0  0  0  0  0  0
   22.6425   72.6839    3.6059 C   0  0  1  0  0  0  0  0  0  0  0  0
   24.0887   73.0804    3.8147 C   0  0  2  0  0  0  0  0  0  0  0  0
   22.7744   71.2571    3.0912 C   0  0  1  0  0  0  0  0  0  0  0  0
   24.6998   71.7866    4.3252 C   0  0  2  0  0  0  0  0  0  0  0  0
   21.8604   73.5396    5.2061 H   0  0  0  0  0  0  0  0  0  0  0  0
   23.8219   74.9460    4.3607 H   0  0  0  0  0  0  0  0  0  0  0  0
   26.8321   72.9955    5.7282 O   0  0  0  0  0  0  0  0  0  0  0  0
   29.9699   71.2149    2.8597 O   0  0  0  0  0  0  0  0  0  0  0  0
   26.0837   71.6555    3.9667 N   0  0  0  0  0  0  0  0  0  0  0  0
   28.3928   72.1083    4.2976 N   0  0  0  0  0  0  0  0  0  0  0  0
   27.0772   72.3038    4.7380 C   0  0  0  0  0  0  0  0  0  0  0  0
   26.4452   70.8909    2.8641 C   0  0  0  0  0  0  0  0  0  0  0  0
   27.7035   70.7137    2.4567 C   0  0  0  0  0  0  0  0  0  0  0  0
   28.8015   71.3577    3.2071 C   0  0  0  0  0  0  0  0  0  0  0  0
   29.1017   72.5515    4.8175 H   0  0  0  0  0  0  0  0  0  0  0  0
   21.1405   70.8359   -1.3577 O   0  0  0  0  0  0  0  0  0  0  0  0
   20.8081   72.0839   -2.3302 P   0  0  2  0  0  0  0  0  0  0  0  0
   22.1057   72.1567   -3.2952 O   0  0  0  0  0  0  0  0  0  0  0  0
   20.5025   73.3636   -1.6072 O   0  0  0  0  0  0  0  0  0  0  0  0
   19.6202   71.5540   -3.2845 O   0  0  0  0  0  0  0  0  0  0  0  0
   19.0619   69.4155   -4.1355 O   0  0  0  0  0  0  0  0  0  0  0  0
   18.1116   71.8639   -7.3246 O   0  0  0  0  0  0  0  0  0  0  0  0
   20.5574   72.3119   -5.7911 O   0  0  0  0  0  0  0  0  0  0  0  0
   16.0038   70.7536   -5.6587 O   0  0  0  0  0  0  0  0  0  0  0  0
   18.2699   71.5190   -5.9484 C   0  0  2  0  0  0  0  0  0  0  0  0
   19.7307   71.1595   -5.6757 C   0  0  2  0  0  0  0  0  0  0  0  0
   17.3632   70.3219   -5.6536 C   0  0  1  0  0  0  0  0  0  0  0  0
   19.8959   70.5662   -4.2759 C   0  0  1  0  0  0  0  0  0  0  0  0
   17.6752   69.7089   -4.2914 C   0  0  1  0  0  0  0  0  0  0  0  0
   18.6785   72.6225   -7.5353 H   0  0  0  0  0  0  0  0  0  0  0  0
   20.4573   72.6937   -6.6769 H   0  0  0  0  0  0  0  0  0  0  0  0
   15.7923   71.1459   -6.5202 H   0  0  0  0  0  0  0  0  0  0  0  0
   17.6461   67.6385   -3.1895 O   0  0  0  0  0  0  0  0  0  0  0  0
   16.0792   67.9758   -4.8113 O   0  0  0  0  0  0  0  0  0  0  0  0
   17.0310   68.3680   -4.1530 C   0  0  0  0  0  0  0  0  0  0  0  0
  1  4  1  0
  1 24  1  0
  1  2  1  6
  1  3  2  0
 25 28  1  0
 25 24  1  0
 25 26  1  6
 25 27  2  0
  6 11  1  0
  6 12  1  0
 29 36  1  0
 29 37  1  0
  9  7  1  1
  7 13  1  0
 10  8  1  1
  8 14  1  0
  4  5  1  0
 36 28  1  1
 33 30  1  6
 30 38  1  0
 34 31  1  1
 31 39  1  0
 35 32  1  1
 32 40  1  0
 41 43  1  0
 15 19  2  0
 42 43  2  0
 16 22  2  0
 12 17  1  6
 17 19  1  0
 17 20  1  0
 18 19  1  0
 18 22  1  0
 18 23  1  0
  9 10  1  0
  9 11  1  0
 10 12  1  0
 11  5  1  6
 33 34  1  0
 33 35  1  0
 34 36  1  0
 35 37  1  0
 37 43  1  6
 20 21  2  0
 21 22  1  0
M  CHG  3   2  -1  26  -1  41  -1
M  END
>  <COMPND>  (128) 
    udp_gluA.pdb 

>  <AUTHOR>  (128) 
    GENERATED BY OPEN BABEL 3.1.1

>  <MASTER>  (128) 
        0    0    0    0    0    0    0    0   56    0   56    0

>  <minimizedAffinity>  (128) 
-8.76292

>  <CNNscore>  (128) 
0.6323940754

>  <CNNaffinity>  (128) 
4.6486196518

>  <CNN_VS>  (128) 
2.9397594929

>  <CNNaffinity_variance>  (128) 
0.1038910002

$$$$
129
     RDKit          3D

 43 45  0  0  0  0  0  0  0  0999 V2000
   20.6992   70.7409    0.3223 P   0  0  2  0  0  0  0  0  0  0  0  0
   19.7627   71.5097    1.3950 O   0  0  0  0  0  0  0  0  0  0  0  0
   20.8248   69.2610    0.5368 O   0  0  0  0  0  0  0  0  0  0  0  0
   22.0855   71.5748    0.3488 O   0  0  0  0  0  0  0  0  0  0  0  0
   23.2379   70.9538    0.8881 C   0  0  0  0  0  0  0  0  0  0  0  0
   24.3158   70.3248    2.9424 O   0  0  0  0  0  0  0  0  0  0  0  0
   22.2408   71.9909    4.3244 O   0  0  0  0  0  0  0  0  0  0  0  0
   24.4174   73.6336    4.3194 O   0  0  0  0  0  0  0  0  0  0  0  0
   22.8896   72.2117    3.0719 C   0  0  1  0  0  0  0  0  0  0  0  0
   24.3161   72.6679    3.2939 C   0  0  2  0  0  0  0  0  0  0  0  0
   23.0884   70.8594    2.4011 C   0  0  1  0  0  0  0  0  0  0  0  0
   25.0127   71.3648    3.6467 C   0  0  2  0  0  0  0  0  0  0  0  0
   22.1030   72.8409    4.7718 H   0  0  0  0  0  0  0  0  0  0  0  0
   23.9587   74.4442    4.0466 H   0  0  0  0  0  0  0  0  0  0  0  0
   27.1823   71.8079    5.3997 O   0  0  0  0  0  0  0  0  0  0  0  0
   30.2623   71.3054    2.0078 O   0  0  0  0  0  0  0  0  0  0  0  0
   26.3919   71.3553    3.2483 N   0  0  0  0  0  0  0  0  0  0  0  0
   28.7142   71.5582    3.7085 N   0  0  0  0  0  0  0  0  0  0  0  0
   27.4053   71.5895    4.2075 C   0  0  0  0  0  0  0  0  0  0  0  0
   26.7289   71.1146    1.9218 C   0  0  0  0  0  0  0  0  0  0  0  0
   27.9811   71.0878    1.4612 C   0  0  0  0  0  0  0  0  0  0  0  0
   29.0989   71.3236    2.3983 C   0  0  0  0  0  0  0  0  0  0  0  0
   29.4368   71.7205    4.3572 H   0  0  0  0  0  0  0  0  0  0  0  0
   20.0484   71.1629   -1.0959 O   0  0  0  0  0  0  0  0  0  0  0  0
   20.6925   71.2469   -2.5763 P   0  0  2  0  0  0  0  0  0  0  0  0
   21.6658   69.9546   -2.6301 O   0  0  0  0  0  0  0  0  0  0  0  0
   21.3764   72.5490   -2.8774 O   0  0  0  0  0  0  0  0  0  0  0  0
   19.4771   70.8830   -3.5727 O   0  0  0  0  0  0  0  0  0  0  0  0
   17.6372   72.1976   -4.2769 O   0  0  0  0  0  0  0  0  0  0  0  0
   16.0005   68.4043   -4.2546 O   0  0  0  0  0  0  0  0  0  0  0  0
   17.7631   69.2694   -2.0913 O   0  0  0  0  0  0  0  0  0  0  0  0
   16.7106   69.6723   -6.7723 O   0  0  0  0  0  0  0  0  0  0  0  0
   17.0356   69.3761   -4.4034 C   0  0  2  0  0  0  0  0  0  0  0  0
   17.2224   70.1305   -3.0867 C   0  0  2  0  0  0  0  0  0  0  0  0
   16.6213   70.3418   -5.5159 C   0  0  1  0  0  0  0  0  0  0  0  0
   18.1560   71.3279   -3.2700 C   0  0  1  0  0  0  0  0  0  0  0  0
   17.5255   71.5704   -5.5525 C   0  0  1  0  0  0  0  0  0  0  0  0
   16.2418   67.7795   -3.5526 H   0  0  0  0  0  0  0  0  0  0  0  0
   17.1758   68.5073   -1.9701 H   0  0  0  0  0  0  0  0  0  0  0  0
   16.1398   68.8882   -6.7621 H   0  0  0  0  0  0  0  0  0  0  0  0
   17.6916   73.7637   -6.3671 O   0  0  0  0  0  0  0  0  0  0  0  0
   15.8950   72.5350   -7.0467 O   0  0  0  0  0  0  0  0  0  0  0  0
   16.9277   72.6438   -6.4028 C   0  0  0  0  0  0  0  0  0  0  0  0
  1  4  1  0
  1 24  1  0
  1  2  1  1
  1  3  2  0
 25 28  1  0
 25 24  1  0
 25 26  1  1
 25 27  2  0
  6 11  1  0
  6 12  1  0
 29 36  1  0
 29 37  1  0
  9  7  1  1
  7 13  1  0
 10  8  1  1
  8 14  1  0
  4  5  1  0
 36 28  1  6
 33 30  1  1
 30 38  1  0
 34 31  1  1
 31 39  1  0
 35 32  1  6
 32 40  1  0
 41 43  1  0
 15 19  2  0
 42 43  2  0
 16 22  2  0
 12 17  1  6
 17 19  1  0
 17 20  1  0
 18 19  1  0
 18 22  1  0
 18 23  1  0
  9 10  1  0
  9 11  1  0
 10 12  1  0
 11  5  1  6
 33 34  1  0
 33 35  1  0
 34 36  1  0
 35 37  1  0
 37 43  1  6
 20 21  2  0
 21 22  1  0
M  CHG  3   2  -1  26  -1  41  -1
M  END
>  <COMPND>  (129) 
    udp_gluA.pdb 

>  <AUTHOR>  (129) 
    GENERATED BY OPEN BABEL 3.1.1

>  <MASTER>  (129) 
        0    0    0    0    0    0    0    0   56    0   56    0

>  <minimizedAffinity>  (129) 
-8.39291

>  <CNNscore>  (129) 
0.6063396931

>  <CNNaffinity>  (129) 
4.5967326164

>  <CNN_VS>  (129) 
2.7871813774

>  <CNNaffinity_variance>  (129) 
0.0963271707

$$$$
130
     RDKit          3D

 43 45  0  0  0  0  0  0  0  0999 V2000
   21.1590   70.7965    0.4427 P   0  0  2  0  0  0  0  0  0  0  0  0
   19.7913   71.4857    0.9655 O   0  0  0  0  0  0  0  0  0  0  0  0
   21.1024   69.3036    0.3015 O   0  0  0  0  0  0  0  0  0  0  0  0
   22.2902   71.3645    1.4505 O   0  0  0  0  0  0  0  0  0  0  0  0
   22.9516   70.4522    2.3077 C   0  0  0  0  0  0  0  0  0  0  0  0
   24.1313   70.6904    4.3884 O   0  0  0  0  0  0  0  0  0  0  0  0
   22.0952   72.7770    5.0899 O   0  0  0  0  0  0  0  0  0  0  0  0
   24.2433   74.2734    4.3268 O   0  0  0  0  0  0  0  0  0  0  0  0
   22.6830   72.4777    3.8237 C   0  0  1  0  0  0  0  0  0  0  0  0
   24.1107   72.9793    3.7769 C   0  0  2  0  0  0  0  0  0  0  0  0
   22.8723   70.9693    3.7384 C   0  0  1  0  0  0  0  0  0  0  0  0
   24.8430   71.9224    4.5859 C   0  0  2  0  0  0  0  0  0  0  0  0
   21.9645   73.7354    5.1677 H   0  0  0  0  0  0  0  0  0  0  0  0
   23.7600   74.9098    3.7759 H   0  0  0  0  0  0  0  0  0  0  0  0
   27.0026   73.5225    5.4533 O   0  0  0  0  0  0  0  0  0  0  0  0
   30.0173   71.1693    2.8806 O   0  0  0  0  0  0  0  0  0  0  0  0
   26.2027   71.7497    4.1587 N   0  0  0  0  0  0  0  0  0  0  0  0
   28.5019   72.3496    4.1703 N   0  0  0  0  0  0  0  0  0  0  0  0
   27.2127   72.6077    4.6545 C   0  0  0  0  0  0  0  0  0  0  0  0
   26.5245   70.7395    3.2605 C   0  0  0  0  0  0  0  0  0  0  0  0
   27.7580   70.5056    2.8082 C   0  0  0  0  0  0  0  0  0  0  0  0
   28.8708   71.3575    3.2763 C   0  0  0  0  0  0  0  0  0  0  0  0
   29.2215   72.9352    4.4997 H   0  0  0  0  0  0  0  0  0  0  0  0
   21.4639   71.5917   -0.9312 O   0  0  0  0  0  0  0  0  0  0  0  0
   21.0667   71.2567   -2.4621 P   0  0  2  0  0  0  0  0  0  0  0  0
   21.6583   69.7657   -2.6799 O   0  0  0  0  0  0  0  0  0  0  0  0
   21.5538   72.2671   -3.4599 O   0  0  0  0  0  0  0  0  0  0  0  0
   19.4658   71.0597   -2.4358 O   0  0  0  0  0  0  0  0  0  0  0  0
   18.4691   71.8701   -4.4255 O   0  0  0  0  0  0  0  0  0  0  0  0
   15.1547   70.8468   -2.1814 O   0  0  0  0  0  0  0  0  0  0  0  0
   17.4218   72.2075   -0.9390 O   0  0  0  0  0  0  0  0  0  0  0  0
   16.0127   69.1451   -4.3766 O   0  0  0  0  0  0  0  0  0  0  0  0
   16.5030   70.7395   -2.6381 C   0  0  2  0  0  0  0  0  0  0  0  0
   17.2489   72.0407   -2.3415 C   0  0  2  0  0  0  0  0  0  0  0  0
   16.4722   70.4754   -4.1452 C   0  0  1  0  0  0  0  0  0  0  0  0
   18.6209   72.0511   -3.0171 C   0  0  1  0  0  0  0  0  0  0  0  0
   17.8579   70.6277   -4.7659 C   0  0  1  0  0  0  0  0  0  0  0  0
   15.1493   71.0149   -1.2259 H   0  0  0  0  0  0  0  0  0  0  0  0
   16.5552   72.2016   -0.5039 H   0  0  0  0  0  0  0  0  0  0  0  0
   15.1316   69.0348   -3.9862 H   0  0  0  0  0  0  0  0  0  0  0  0
   18.8501   71.3269   -6.7729 O   0  0  0  0  0  0  0  0  0  0  0  0
   16.8490   70.2444   -6.9238 O   0  0  0  0  0  0  0  0  0  0  0  0
   17.7672   70.6954   -6.2557 C   0  0  0  0  0  0  0  0  0  0  0  0
  1  4  1  0
  1 24  1  0
  1  2  1  1
  1  3  2  0
 25 28  1  0
 25 24  1  0
 25 26  1  6
 25 27  2  0
  6 11  1  0
  6 12  1  0
 29 36  1  0
 29 37  1  0
  9  7  1  1
  7 13  1  0
 10  8  1  1
  8 14  1  0
  4  5  1  0
 36 28  1  1
 33 30  1  6
 30 38  1  0
 34 31  1  1
 31 39  1  0
 35 32  1  1
 32 40  1  0
 41 43  1  0
 15 19  2  0
 42 43  2  0
 16 22  2  0
 12 17  1  6
 17 19  1  0
 17 20  1  0
 18 19  1  0
 18 22  1  0
 18 23  1  0
  9 10  1  0
  9 11  1  0
 10 12  1  0
 11  5  1  6
 33 34  1  0
 33 35  1  0
 34 36  1  0
 35 37  1  0
 37 43  1  6
 20 21  2  0
 21 22  1  0
M  CHG  3   2  -1  26  -1  41  -1
M  END
>  <COMPND>  (130) 
    udp_gluA.pdb 

>  <AUTHOR>  (130) 
    GENERATED BY OPEN BABEL 3.1.1

>  <MASTER>  (130) 
        0    0    0    0    0    0    0    0   56    0   56    0

>  <minimizedAffinity>  (130) 
-8.17420

>  <CNNscore>  (130) 
0.5932103992

>  <CNNaffinity>  (130) 
4.4160008430

>  <CNN_VS>  (130) 
2.6196177006

>  <CNNaffinity_variance>  (130) 
0.0368060656

$$$$
131
     RDKit          3D

 43 45  0  0  0  0  0  0  0  0999 V2000
   20.9449   70.6017   -0.2993 P   0  0  2  0  0  0  0  0  0  0  0  0
   20.7689   69.2701    0.6034 O   0  0  0  0  0  0  0  0  0  0  0  0
   21.6976   70.4026   -1.5821 O   0  0  0  0  0  0  0  0  0  0  0  0
   21.5751   71.6846    0.7244 O   0  0  0  0  0  0  0  0  0  0  0  0
   22.7994   71.3764    1.3652 C   0  0  0  0  0  0  0  0  0  0  0  0
   23.7284   70.7405    3.4889 O   0  0  0  0  0  0  0  0  0  0  0  0
   21.7700   72.6554    4.7093 O   0  0  0  0  0  0  0  0  0  0  0  0
   24.0933   74.0829    4.7338 O   0  0  0  0  0  0  0  0  0  0  0  0
   22.4868   72.7577    3.4787 C   0  0  1  0  0  0  0  0  0  0  0  0
   23.9405   73.0864    3.7447 C   0  0  2  0  0  0  0  0  0  0  0  0
   22.5810   71.3641    2.8727 C   0  0  1  0  0  0  0  0  0  0  0  0
   24.4936   71.7403    4.1806 C   0  0  2  0  0  0  0  0  0  0  0  0
   21.6970   73.5337    5.1153 H   0  0  0  0  0  0  0  0  0  0  0  0
   23.7262   74.9203    4.4083 H   0  0  0  0  0  0  0  0  0  0  0  0
   26.6360   72.6586    5.7753 O   0  0  0  0  0  0  0  0  0  0  0  0
   29.7738   71.0804    2.7908 O   0  0  0  0  0  0  0  0  0  0  0  0
   25.8803   71.5826    3.8441 N   0  0  0  0  0  0  0  0  0  0  0  0
   28.1968   71.8726    4.2868 N   0  0  0  0  0  0  0  0  0  0  0  0
   26.8788   72.0806    4.7142 C   0  0  0  0  0  0  0  0  0  0  0  0
   26.2393   70.9399    2.6655 C   0  0  0  0  0  0  0  0  0  0  0  0
   27.4999   70.7491    2.2716 C   0  0  0  0  0  0  0  0  0  0  0  0
   28.6032   71.2399    3.1232 C   0  0  0  0  0  0  0  0  0  0  0  0
   28.9093   72.2124    4.8751 H   0  0  0  0  0  0  0  0  0  0  0  0
   19.4244   71.1183   -0.4841 O   0  0  0  0  0  0  0  0  0  0  0  0
   18.3163   70.7754   -1.6102 P   0  0  2  0  0  0  0  0  0  0  0  0
   17.0574   71.6994   -1.1838 O   0  0  0  0  0  0  0  0  0  0  0  0
   17.9966   69.3138   -1.7346 O   0  0  0  0  0  0  0  0  0  0  0  0
   18.8810   71.4545   -2.9602 O   0  0  0  0  0  0  0  0  0  0  0  0
   18.3014   70.1837   -4.8728 O   0  0  0  0  0  0  0  0  0  0  0  0
   20.7253   73.1033   -6.5063 O   0  0  0  0  0  0  0  0  0  0  0  0
   21.4424   71.8270   -3.9783 O   0  0  0  0  0  0  0  0  0  0  0  0
   17.8412   73.2451   -6.8420 O   0  0  0  0  0  0  0  0  0  0  0  0
   19.7794   72.5598   -5.5856 C   0  0  2  0  0  0  0  0  0  0  0  0
   20.4068   71.3786   -4.8449 C   0  0  2  0  0  0  0  0  0  0  0  0
   18.5556   72.0999   -6.3811 C   0  0  1  0  0  0  0  0  0  0  0  0
   19.3579   70.6296   -4.0217 C   0  0  1  0  0  0  0  0  0  0  0  0
   17.6194   71.2537   -5.5232 C   0  0  1  0  0  0  0  0  0  0  0  0
   21.5118   73.4023   -6.0234 H   0  0  0  0  0  0  0  0  0  0  0  0
   22.1113   72.3034   -4.4940 H   0  0  0  0  0  0  0  0  0  0  0  0
   18.4259   73.7924   -7.3892 H   0  0  0  0  0  0  0  0  0  0  0  0
   16.3699   69.3025   -5.8883 O   0  0  0  0  0  0  0  0  0  0  0  0
   16.0850   71.0124   -7.3696 O   0  0  0  0  0  0  0  0  0  0  0  0
   16.6165   70.5444   -6.3738 C   0  0  0  0  0  0  0  0  0  0  0  0
  1  4  1  0
  1 24  1  0
  1  2  1  1
  1  3  2  0
 25 28  1  0
 25 24  1  0
 25 26  1  1
 25 27  2  0
  6 11  1  0
  6 12  1  0
 29 36  1  0
 29 37  1  0
  9  7  1  1
  7 13  1  0
 10  8  1  1
  8 14  1  0
  4  5  1  0
 36 28  1  1
 33 30  1  6
 30 38  1  0
 34 31  1  1
 31 39  1  0
 35 32  1  1
 32 40  1  0
 41 43  1  0
 15 19  2  0
 42 43  2  0
 16 22  2  0
 12 17  1  6
 17 19  1  0
 17 20  1  0
 18 19  1  0
 18 22  1  0
 18 23  1  0
  9 10  1  0
  9 11  1  0
 10 12  1  0
 11  5  1  6
 33 34  1  0
 33 35  1  0
 34 36  1  0
 35 37  1  0
 37 43  1  6
 20 21  2  0
 21 22  1  0
M  CHG  3   2  -1  26  -1  41  -1
M  END
>  <COMPND>  (131) 
    udp_gluA.pdb 

>  <AUTHOR>  (131) 
    GENERATED BY OPEN BABEL 3.1.1

>  <MASTER>  (131) 
        0    0    0    0    0    0    0    0   56    0   56    0

>  <minimizedAffinity>  (131) 
-9.09229

>  <CNNscore>  (131) 
0.5570076704

>  <CNNaffinity>  (131) 
4.4519729614

>  <CNN_VS>  (131) 
2.4797830582

>  <CNNaffinity_variance>  (131) 
0.0065053152

$$$$
132
     RDKit          3D

 43 45  0  0  0  0  0  0  0  0999 V2000
   20.6670   70.9403   -0.3328 P   0  0  2  0  0  0  0  0  0  0  0  0
   21.6984   70.0651   -1.2211 O   0  0  0  0  0  0  0  0  0  0  0  0
   20.7402   72.4227   -0.5540 O   0  0  0  0  0  0  0  0  0  0  0  0
   20.9392   70.4417    1.1822 O   0  0  0  0  0  0  0  0  0  0  0  0
   21.6184   71.3120    2.0687 C   0  0  0  0  0  0  0  0  0  0  0  0
   23.5096   72.7942    2.0040 O   0  0  0  0  0  0  0  0  0  0  0  0
   25.1484   70.3734    1.3366 O   0  0  0  0  0  0  0  0  0  0  0  0
   25.6549   70.7219    3.9933 O   0  0  0  0  0  0  0  0  0  0  0  0
   24.0222   70.4905    2.2064 C   0  0  1  0  0  0  0  0  0  0  0  0
   24.4211   71.1889    3.4892 C   0  0  2  0  0  0  0  0  0  0  0  0
   23.0530   71.4888    1.5882 C   0  0  1  0  0  0  0  0  0  0  0  0
   24.4807   72.6424    3.0515 C   0  0  2  0  0  0  0  0  0  0  0  0
   25.7819   69.7406    1.7107 H   0  0  0  0  0  0  0  0  0  0  0  0
   25.5649   69.7926    4.2584 H   0  0  0  0  0  0  0  0  0  0  0  0
   26.3482   74.3554    4.2983 O   0  0  0  0  0  0  0  0  0  0  0  0
   23.1490   76.0797    7.1330 O   0  0  0  0  0  0  0  0  0  0  0  0
   24.1628   73.5493    4.1179 N   0  0  0  0  0  0  0  0  0  0  0  0
   24.7533   75.2119    5.7096 N   0  0  0  0  0  0  0  0  0  0  0  0
   25.1748   74.3663    4.6751 C   0  0  0  0  0  0  0  0  0  0  0  0
   22.8616   73.6243    4.5999 C   0  0  0  0  0  0  0  0  0  0  0  0
   22.4749   74.4354    5.5865 C   0  0  0  0  0  0  0  0  0  0  0  0
   23.4712   75.3214    6.2235 C   0  0  0  0  0  0  0  0  0  0  0  0
   25.4406   75.7888    6.1146 H   0  0  0  0  0  0  0  0  0  0  0  0
   19.2346   70.2774   -0.6817 O   0  0  0  0  0  0  0  0  0  0  0  0
   18.0564   70.7595   -1.6782 P   0  0  2  0  0  0  0  0  0  0  0  0
   17.4964   72.1014   -0.9669 O   0  0  0  0  0  0  0  0  0  0  0  0
   17.0091   69.7170   -1.9433 O   0  0  0  0  0  0  0  0  0  0  0  0
   18.8245   71.2869   -2.9951 O   0  0  0  0  0  0  0  0  0  0  0  0
   18.0741   70.1735   -4.9461 O   0  0  0  0  0  0  0  0  0  0  0  0
   21.1865   72.4531   -6.4238 O   0  0  0  0  0  0  0  0  0  0  0  0
   21.4545   71.0584   -3.8709 O   0  0  0  0  0  0  0  0  0  0  0  0
   18.4339   73.2497   -6.9132 O   0  0  0  0  0  0  0  0  0  0  0  0
   20.0929   72.1449   -5.5596 C   0  0  2  0  0  0  0  0  0  0  0  0
   20.3923   70.8549   -4.7955 C   0  0  2  0  0  0  0  0  0  0  0  0
   18.8413   71.9736   -6.4234 C   0  0  1  0  0  0  0  0  0  0  0  0
   19.1568   70.3697   -4.0358 C   0  0  1  0  0  0  0  0  0  0  0  0
   17.6912   71.3681   -5.6239 C   0  0  1  0  0  0  0  0  0  0  0  0
   21.9933   72.5664   -5.8969 H   0  0  0  0  0  0  0  0  0  0  0  0
   22.2416   71.3667   -4.3461 H   0  0  0  0  0  0  0  0  0  0  0  0
   19.1571   73.6460   -7.4238 H   0  0  0  0  0  0  0  0  0  0  0  0
   16.2888   69.6073   -6.2829 O   0  0  0  0  0  0  0  0  0  0  0  0
   16.0565   71.5901   -7.3845 O   0  0  0  0  0  0  0  0  0  0  0  0
   16.6003   70.9033   -6.5327 C   0  0  0  0  0  0  0  0  0  0  0  0
  1  4  1  0
  1 24  1  0
  1  2  1  6
  1  3  2  0
 25 28  1  0
 25 24  1  0
 25 26  1  1
 25 27  2  0
  6 11  1  0
  6 12  1  0
 29 36  1  0
 29 37  1  0
  9  7  1  6
  7 13  1  0
 10  8  1  6
  8 14  1  0
  4  5  1  0
 36 28  1  1
 33 30  1  6
 30 38  1  0
 34 31  1  1
 31 39  1  0
 35 32  1  1
 32 40  1  0
 41 43  1  0
 15 19  2  0
 42 43  2  0
 16 22  2  0
 12 17  1  1
 17 19  1  0
 17 20  1  0
 18 19  1  0
 18 22  1  0
 18 23  1  0
  9 10  1  0
  9 11  1  0
 10 12  1  0
 11  5  1  1
 33 34  1  0
 33 35  1  0
 34 36  1  0
 35 37  1  0
 37 43  1  6
 20 21  2  0
 21 22  1  0
M  CHG  3   2  -1  26  -1  41  -1
M  END
>  <COMPND>  (132) 
    udp_gluA.pdb 

>  <AUTHOR>  (132) 
    GENERATED BY OPEN BABEL 3.1.1

>  <MASTER>  (132) 
        0    0    0    0    0    0    0    0   56    0   56    0

>  <minimizedAffinity>  (132) 
-7.71499

>  <CNNscore>  (132) 
0.4946840405

>  <CNNaffinity>  (132) 
4.3360657692

>  <CNN_VS>  (132) 
2.1449825764

>  <CNNaffinity_variance>  (132) 
0.1687555313

$$$$
133
     RDKit          3D

 43 45  0  0  0  0  0  0  0  0999 V2000
   22.2891   70.0798    0.6400 P   0  0  2  0  0  0  0  0  0  0  0  0
   22.0411   71.4334    1.4916 O   0  0  0  0  0  0  0  0  0  0  0  0
   21.1075   69.1585    0.5564 O   0  0  0  0  0  0  0  0  0  0  0  0
   23.6273   69.4486    1.2947 O   0  0  0  0  0  0  0  0  0  0  0  0
   24.7155   70.3106    1.5726 C   0  0  0  0  0  0  0  0  0  0  0  0
   26.4066   70.1643    3.2745 O   0  0  0  0  0  0  0  0  0  0  0  0
   24.3641   71.3194    5.1415 O   0  0  0  0  0  0  0  0  0  0  0  0
   25.9185   73.4800    4.5482 O   0  0  0  0  0  0  0  0  0  0  0  0
   24.5886   71.6030    3.7603 C   0  0  1  0  0  0  0  0  0  0  0  0
   25.8378   72.4420    3.5939 C   0  0  2  0  0  0  0  0  0  0  0  0
   24.9835   70.3036    3.0721 C   0  0  1  0  0  0  0  0  0  0  0  0
   26.9374   71.4072    3.7611 C   0  0  2  0  0  0  0  0  0  0  0  0
   24.1104   72.1348    5.6023 H   0  0  0  0  0  0  0  0  0  0  0  0
   25.1976   74.1126    4.3995 H   0  0  0  0  0  0  0  0  0  0  0  0
   28.8756   73.2891    4.5846 O   0  0  0  0  0  0  0  0  0  0  0  0
   31.4253   72.5879    0.8095 O   0  0  0  0  0  0  0  0  0  0  0  0
   28.1176   71.7358    3.0126 N   0  0  0  0  0  0  0  0  0  0  0  0
   30.1431   72.9389    2.7031 N   0  0  0  0  0  0  0  0  0  0  0  0
   29.0277   72.6955    3.5152 C   0  0  0  0  0  0  0  0  0  0  0  0
   28.3647   71.1096    1.7970 C   0  0  0  0  0  0  0  0  0  0  0  0
   29.4324   71.3518    1.0342 C   0  0  0  0  0  0  0  0  0  0  0  0
   30.4318   72.3418    1.4866 C   0  0  0  0  0  0  0  0  0  0  0  0
   30.7899   73.6047    3.0311 H   0  0  0  0  0  0  0  0  0  0  0  0
   22.8100   70.6378   -0.7848 O   0  0  0  0  0  0  0  0  0  0  0  0
   22.7665   69.9818   -2.2618 P   0  0  2  0  0  0  0  0  0  0  0  0
   23.0866   68.4198   -1.9822 O   0  0  0  0  0  0  0  0  0  0  0  0
   23.6869   70.6339   -3.2525 O   0  0  0  0  0  0  0  0  0  0  0  0
   21.2078   70.0101   -2.6765 O   0  0  0  0  0  0  0  0  0  0  0  0
   20.4724   72.0051   -3.7198 O   0  0  0  0  0  0  0  0  0  0  0  0
   16.8940   70.0857   -2.9595 O   0  0  0  0  0  0  0  0  0  0  0  0
   19.0223   70.0976   -0.9584 O   0  0  0  0  0  0  0  0  0  0  0  0
   17.9748   70.1426   -5.6575 O   0  0  0  0  0  0  0  0  0  0  0  0
   18.2848   70.1751   -3.2684 C   0  0  2  0  0  0  0  0  0  0  0  0
   19.0153   70.8968   -2.1357 C   0  0  2  0  0  0  0  0  0  0  0  0
   18.4294   70.9552   -4.5770 C   0  0  1  0  0  0  0  0  0  0  0  0
   20.4582   71.2149   -2.5303 C   0  0  1  0  0  0  0  0  0  0  0  0
   19.8821   71.3437   -4.8365 C   0  0  1  0  0  0  0  0  0  0  0  0
   16.7775   69.5938   -2.1313 H   0  0  0  0  0  0  0  0  0  0  0  0
   18.1099   69.8918   -0.7024 H   0  0  0  0  0  0  0  0  0  0  0  0
   17.0513   69.8883   -5.5046 H   0  0  0  0  0  0  0  0  0  0  0  0
   19.9781   71.7770   -7.1396 O   0  0  0  0  0  0  0  0  0  0  0  0
   20.0291   73.5761   -5.7397 O   0  0  0  0  0  0  0  0  0  0  0  0
   19.9717   72.3689   -5.9195 C   0  0  0  0  0  0  0  0  0  0  0  0
  1  4  1  0
  1 24  1  0
  1  2  1  1
  1  3  2  0
 25 28  1  0
 25 24  1  0
 25 26  1  1
 25 27  2  0
  6 11  1  0
  6 12  1  0
 29 36  1  0
 29 37  1  0
  9  7  1  1
  7 13  1  0
 10  8  1  1
  8 14  1  0
  4  5  1  0
 36 28  1  6
 33 30  1  1
 30 38  1  0
 34 31  1  1
 31 39  1  0
 35 32  1  6
 32 40  1  0
 41 43  1  0
 15 19  2  0
 42 43  2  0
 16 22  2  0
 12 17  1  6
 17 19  1  0
 17 20  1  0
 18 19  1  0
 18 22  1  0
 18 23  1  0
  9 10  1  0
  9 11  1  0
 10 12  1  0
 11  5  1  6
 33 34  1  0
 33 35  1  0
 34 36  1  0
 35 37  1  0
 37 43  1  6
 20 21  2  0
 21 22  1  0
M  CHG  3   2  -1  26  -1  41  -1
M  END
>  <COMPND>  (133) 
    udp_gluA.pdb 

>  <AUTHOR>  (133) 
    GENERATED BY OPEN BABEL 3.1.1

>  <MASTER>  (133) 
        0    0    0    0    0    0    0    0   56    0   56    0

>  <minimizedAffinity>  (133) 
-8.86282

>  <CNNscore>  (133) 
0.4907117486

>  <CNNaffinity>  (133) 
4.8271393776

>  <CNN_VS>  (133) 
2.3687341213

>  <CNNaffinity_variance>  (133) 
0.2651791573

$$$$
134
     RDKit          3D

 43 45  0  0  0  0  0  0  0  0999 V2000
   20.5558   71.0989   -0.2277 P   0  0  2  0  0  0  0  0  0  0  0  0
   20.5093   69.5656    0.2876 O   0  0  0  0  0  0  0  0  0  0  0  0
   21.5310   71.3653   -1.3367 O   0  0  0  0  0  0  0  0  0  0  0  0
   20.7793   71.9570    1.1257 O   0  0  0  0  0  0  0  0  0  0  0  0
   22.0882   72.0530    1.6569 C   0  0  0  0  0  0  0  0  0  0  0  0
   23.1090   71.0756    3.6012 O   0  0  0  0  0  0  0  0  0  0  0  0
   21.6056   73.1252    5.1918 O   0  0  0  0  0  0  0  0  0  0  0  0
   24.1157   74.1843    5.0764 O   0  0  0  0  0  0  0  0  0  0  0  0
   22.2055   73.2445    3.9017 C   0  0  1  0  0  0  0  0  0  0  0  0
   23.7119   73.3264    4.0297 C   0  0  2  0  0  0  0  0  0  0  0  0
   22.0192   71.9207    3.1729 C   0  0  1  0  0  0  0  0  0  0  0  0
   24.0861   71.8763    4.2849 C   0  0  2  0  0  0  0  0  0  0  0  0
   21.7119   73.9591    5.6766 H   0  0  0  0  0  0  0  0  0  0  0  0
   23.8550   75.0954    4.8665 H   0  0  0  0  0  0  0  0  0  0  0  0
   26.4806   72.1788    5.7515 O   0  0  0  0  0  0  0  0  0  0  0  0
   29.0352   70.5947    2.2574 O   0  0  0  0  0  0  0  0  0  0  0  0
   25.3909   71.5506    3.7827 N   0  0  0  0  0  0  0  0  0  0  0  0
   27.7508   71.3905    4.0095 N   0  0  0  0  0  0  0  0  0  0  0  0
   26.5297   71.7401    4.6008 C   0  0  0  0  0  0  0  0  0  0  0  0
   25.5329   71.0483    2.4948 C   0  0  0  0  0  0  0  0  0  0  0  0
   26.7035   70.7195    1.9450 C   0  0  0  0  0  0  0  0  0  0  0  0
   27.9423   70.8880    2.7326 C   0  0  0  0  0  0  0  0  0  0  0  0
   28.5580   71.5156    4.5590 H   0  0  0  0  0  0  0  0  0  0  0  0
   19.0127   71.4035   -0.6004 O   0  0  0  0  0  0  0  0  0  0  0  0
   18.0843   70.8576   -1.8060 P   0  0  2  0  0  0  0  0  0  0  0  0
   16.7249   71.7219   -1.6466 O   0  0  0  0  0  0  0  0  0  0  0  0
   17.8762   69.3708   -1.7983 O   0  0  0  0  0  0  0  0  0  0  0  0
   18.7758   71.4298   -3.1465 O   0  0  0  0  0  0  0  0  0  0  0  0
   18.0163   70.3161   -5.0938 O   0  0  0  0  0  0  0  0  0  0  0  0
   21.0195   72.7121   -6.6130 O   0  0  0  0  0  0  0  0  0  0  0  0
   21.3908   71.2964   -4.0847 O   0  0  0  0  0  0  0  0  0  0  0  0
   18.2323   73.4255   -7.0295 O   0  0  0  0  0  0  0  0  0  0  0  0
   19.9565   72.3585   -5.7281 C   0  0  2  0  0  0  0  0  0  0  0  0
   20.3144   71.0699   -4.9874 C   0  0  2  0  0  0  0  0  0  0  0  0
   18.6913   72.1574   -6.5653 C   0  0  1  0  0  0  0  0  0  0  0  0
   19.1130   70.5362   -4.2060 C   0  0  1  0  0  0  0  0  0  0  0  0
   17.5799   71.5058   -5.7475 C   0  0  1  0  0  0  0  0  0  0  0  0
   21.8342   72.8450   -6.1032 H   0  0  0  0  0  0  0  0  0  0  0  0
   22.1564   71.6354   -4.5737 H   0  0  0  0  0  0  0  0  0  0  0  0
   18.9305   73.8509   -7.5514 H   0  0  0  0  0  0  0  0  0  0  0  0
   15.9577   72.0401   -7.3551 O   0  0  0  0  0  0  0  0  0  0  0  0
   16.1082   69.8568   -6.7150 O   0  0  0  0  0  0  0  0  0  0  0  0
   16.4836   71.0169   -6.6371 C   0  0  0  0  0  0  0  0  0  0  0  0
  1  4  1  0
  1 24  1  0
  1  2  1  1
  1  3  2  0
 25 28  1  0
 25 24  1  0
 25 26  1  1
 25 27  2  0
  6 11  1  0
  6 12  1  0
 29 36  1  0
 29 37  1  0
  9  7  1  1
  7 13  1  0
 10  8  1  1
  8 14  1  0
  4  5  1  0
 36 28  1  1
 33 30  1  6
 30 38  1  0
 34 31  1  1
 31 39  1  0
 35 32  1  1
 32 40  1  0
 41 43  1  0
 15 19  2  0
 42 43  2  0
 16 22  2  0
 12 17  1  6
 17 19  1  0
 17 20  1  0
 18 19  1  0
 18 22  1  0
 18 23  1  0
  9 10  1  0
  9 11  1  0
 10 12  1  0
 11  5  1  6
 33 34  1  0
 33 35  1  0
 34 36  1  0
 35 37  1  0
 37 43  1  6
 20 21  2  0
 21 22  1  0
M  CHG  3   2  -1  26  -1  41  -1
M  END
>  <COMPND>  (134) 
    udp_gluA.pdb 

>  <AUTHOR>  (134) 
    GENERATED BY OPEN BABEL 3.1.1

>  <MASTER>  (134) 
        0    0    0    0    0    0    0    0   56    0   56    0

>  <minimizedAffinity>  (134) 
-8.28145

>  <CNNscore>  (134) 
0.4873918593

>  <CNNaffinity>  (134) 
4.3317408562

>  <CNN_VS>  (134) 
2.1112551689

>  <CNNaffinity_variance>  (134) 
0.1315492243

$$$$
135
     RDKit          3D

 43 45  0  0  0  0  0  0  0  0999 V2000
   20.7966   70.7282    0.4894 P   0  0  2  0  0  0  0  0  0  0  0  0
   19.8821   71.4803    1.5926 O   0  0  0  0  0  0  0  0  0  0  0  0
   20.8390   69.2334    0.6142 O   0  0  0  0  0  0  0  0  0  0  0  0
   22.2246   71.4824    0.5891 O   0  0  0  0  0  0  0  0  0  0  0  0
   22.6250   72.0093    1.8407 C   0  0  0  0  0  0  0  0  0  0  0  0
   24.5515   70.6152    2.1912 O   0  0  0  0  0  0  0  0  0  0  0  0
   23.4186   70.0527    4.9099 O   0  0  0  0  0  0  0  0  0  0  0  0
   25.3431   71.9107    5.4392 O   0  0  0  0  0  0  0  0  0  0  0  0
   23.3865   71.2609    4.1500 C   0  0  1  0  0  0  0  0  0  0  0  0
   24.7489   71.9214    4.1580 C   0  0  2  0  0  0  0  0  0  0  0  0
   23.2215   70.8888    2.6828 C   0  0  1  0  0  0  0  0  0  0  0  0
   25.5138   71.0789    3.1515 C   0  0  2  0  0  0  0  0  0  0  0  0
   23.5234   70.2649    5.8510 H   0  0  0  0  0  0  0  0  0  0  0  0
   24.8194   72.4612    6.0430 H   0  0  0  0  0  0  0  0  0  0  0  0
   28.1366   70.1450    2.6773 O   0  0  0  0  0  0  0  0  0  0  0  0
   29.3305   74.0414    0.5240 O   0  0  0  0  0  0  0  0  0  0  0  0
   26.5303   71.8287    2.4693 N   0  0  0  0  0  0  0  0  0  0  0  0
   28.7291   72.0869    1.6062 N   0  0  0  0  0  0  0  0  0  0  0  0
   27.8160   71.2679    2.2833 C   0  0  0  0  0  0  0  0  0  0  0  0
   26.2492   73.1029    1.9915 C   0  0  0  0  0  0  0  0  0  0  0  0
   27.1300   73.8716    1.3479 C   0  0  0  0  0  0  0  0  0  0  0  0
   28.4964   73.3606    1.1130 C   0  0  0  0  0  0  0  0  0  0  0  0
   29.6315   71.7188    1.4665 H   0  0  0  0  0  0  0  0  0  0  0  0
   20.1963   71.2703   -0.9101 O   0  0  0  0  0  0  0  0  0  0  0  0
   20.8854   71.4521   -2.3612 P   0  0  2  0  0  0  0  0  0  0  0  0
   21.8124   70.1322   -2.4984 O   0  0  0  0  0  0  0  0  0  0  0  0
   21.6244   72.7475   -2.5340 O   0  0  0  0  0  0  0  0  0  0  0  0
   19.6868   71.2192   -3.4156 O   0  0  0  0  0  0  0  0  0  0  0  0
   18.9731   69.1544   -4.3299 O   0  0  0  0  0  0  0  0  0  0  0  0
   17.9158   71.8064   -7.3160 O   0  0  0  0  0  0  0  0  0  0  0  0
   20.4806   72.0689   -5.9422 O   0  0  0  0  0  0  0  0  0  0  0  0
   15.8807   70.6991   -5.5601 O   0  0  0  0  0  0  0  0  0  0  0  0
   18.1538   71.3826   -5.9738 C   0  0  2  0  0  0  0  0  0  0  0  0
   19.6120   70.9479   -5.8253 C   0  0  2  0  0  0  0  0  0  0  0  0
   17.2160   70.2108   -5.6745 C   0  0  1  0  0  0  0  0  0  0  0  0
   19.8472   70.2747   -4.4724 C   0  0  1  0  0  0  0  0  0  0  0  0
   17.5939   69.5138   -4.3707 C   0  0  1  0  0  0  0  0  0  0  0  0
   18.5008   72.5505   -7.5289 H   0  0  0  0  0  0  0  0  0  0  0  0
   20.3365   72.5010   -6.7983 H   0  0  0  0  0  0  0  0  0  0  0  0
   15.6279   71.1451   -6.3835 H   0  0  0  0  0  0  0  0  0  0  0  0
   17.6052   67.3528   -3.4590 O   0  0  0  0  0  0  0  0  0  0  0  0
   15.8420   67.9096   -4.7932 O   0  0  0  0  0  0  0  0  0  0  0  0
   16.9001   68.1958   -4.2533 C   0  0  0  0  0  0  0  0  0  0  0  0
  1  4  1  0
  1 24  1  0
  1  2  1  1
  1  3  2  0
 25 28  1  0
 25 24  1  0
 25 26  1  6
 25 27  2  0
  6 11  1  0
  6 12  1  0
 29 36  1  0
 29 37  1  0
  9  7  1  1
  7 13  1  0
 10  8  1  1
  8 14  1  0
  4  5  1  0
 36 28  1  1
 33 30  1  6
 30 38  1  0
 34 31  1  1
 31 39  1  0
 35 32  1  1
 32 40  1  0
 41 43  1  0
 15 19  2  0
 42 43  2  0
 16 22  2  0
 12 17  1  6
 17 19  1  0
 17 20  1  0
 18 19  1  0
 18 22  1  0
 18 23  1  0
  9 10  1  0
  9 11  1  0
 10 12  1  0
 11  5  1  6
 33 34  1  0
 33 35  1  0
 34 36  1  0
 35 37  1  0
 37 43  1  6
 20 21  2  0
 21 22  1  0
M  CHG  3   2  -1  26  -1  41  -1
M  END
>  <COMPND>  (135) 
    udp_gluA.pdb 

>  <AUTHOR>  (135) 
    GENERATED BY OPEN BABEL 3.1.1

>  <MASTER>  (135) 
        0    0    0    0    0    0    0    0   56    0   56    0

>  <minimizedAffinity>  (135) 
-8.83049

>  <CNNscore>  (135) 
0.4843604863

>  <CNNaffinity>  (135) 
4.6365332603

>  <CNN_VS>  (135) 
2.2457535267

>  <CNNaffinity_variance>  (135) 
0.0577171519

$$$$
136
     RDKit          3D

 43 45  0  0  0  0  0  0  0  0999 V2000
   22.7305   72.6473   -3.0312 P   0  0  2  0  0  0  0  0  0  0  0  0
   23.7242   71.6711   -3.8549 O   0  0  0  0  0  0  0  0  0  0  0  0
   23.2161   74.0584   -2.8730 O   0  0  0  0  0  0  0  0  0  0  0  0
   22.4479   71.8433   -1.6558 O   0  0  0  0  0  0  0  0  0  0  0  0
   23.4271   70.9319   -1.1920 C   0  0  0  0  0  0  0  0  0  0  0  0
   23.6932   69.3957    0.6375 O   0  0  0  0  0  0  0  0  0  0  0  0
   20.6986   69.2673    0.7218 O   0  0  0  0  0  0  0  0  0  0  0  0
   21.2802   70.9651    2.7749 O   0  0  0  0  0  0  0  0  0  0  0  0
   21.5476   70.3777    0.4306 C   0  0  1  0  0  0  0  0  0  0  0  0
   22.1935   70.8907    1.7002 C   0  0  2  0  0  0  0  0  0  0  0  0
   22.7475   69.8594   -0.3504 C   0  0  1  0  0  0  0  0  0  0  0  0
   23.2889   69.8644    1.9337 C   0  0  2  0  0  0  0  0  0  0  0  0
   19.9246   69.5737    1.2206 H   0  0  0  0  0  0  0  0  0  0  0  0
   20.6031   71.6321    2.5781 H   0  0  0  0  0  0  0  0  0  0  0  0
   23.4044   70.3984    4.7046 O   0  0  0  0  0  0  0  0  0  0  0  0
   27.7133   72.0063    4.4004 O   0  0  0  0  0  0  0  0  0  0  0  0
   24.4286   70.4224    2.6049 N   0  0  0  0  0  0  0  0  0  0  0  0
   25.5500   71.1997    4.5503 N   0  0  0  0  0  0  0  0  0  0  0  0
   24.3836   70.6518    4.0004 C   0  0  0  0  0  0  0  0  0  0  0  0
   25.5743   70.7347    1.8832 C   0  0  0  0  0  0  0  0  0  0  0  0
   26.6784   71.2563    2.4213 C   0  0  0  0  0  0  0  0  0  0  0  0
   26.7136   71.5275    3.8734 C   0  0  0  0  0  0  0  0  0  0  0  0
   25.5418   71.3702    5.5199 H   0  0  0  0  0  0  0  0  0  0  0  0
   21.3334   72.5017   -3.8309 O   0  0  0  0  0  0  0  0  0  0  0  0
   20.4597   73.5893   -4.6479 P   0  0  2  0  0  0  0  0  0  0  0  0
   21.5143   74.1759   -5.7268 O   0  0  0  0  0  0  0  0  0  0  0  0
   19.8128   74.6335   -3.7846 O   0  0  0  0  0  0  0  0  0  0  0  0
   19.4277   72.7111   -5.5232 O   0  0  0  0  0  0  0  0  0  0  0  0
   18.7524   70.4528   -5.2921 O   0  0  0  0  0  0  0  0  0  0  0  0
   18.6081   70.9582   -9.3899 O   0  0  0  0  0  0  0  0  0  0  0  0
   20.8246   72.0611   -7.8389 O   0  0  0  0  0  0  0  0  0  0  0  0
   16.1502   70.9073   -7.8385 O   0  0  0  0  0  0  0  0  0  0  0  0
   18.5096   71.3587   -8.0232 C   0  0  2  0  0  0  0  0  0  0  0  0
   19.8566   71.1504   -7.3305 C   0  0  2  0  0  0  0  0  0  0  0  0
   17.4302   70.5032   -7.3563 C   0  0  1  0  0  0  0  0  0  0  0  0
   19.7312   71.3491   -5.8193 C   0  0  1  0  0  0  0  0  0  0  0  0
   17.4522   70.6619   -5.8387 C   0  0  1  0  0  0  0  0  0  0  0  0
   19.2883   71.4885   -9.8342 H   0  0  0  0  0  0  0  0  0  0  0  0
   20.9091   71.9407   -8.7974 H   0  0  0  0  0  0  0  0  0  0  0  0
   16.1230   70.8113   -8.8033 H   0  0  0  0  0  0  0  0  0  0  0  0
   16.5629   69.8058   -3.8443 O   0  0  0  0  0  0  0  0  0  0  0  0
   16.1043   68.6622   -5.7629 O   0  0  0  0  0  0  0  0  0  0  0  0
   16.6367   69.5961   -5.1820 C   0  0  0  0  0  0  0  0  0  0  0  0
  1  4  1  0
  1 24  1  0
  1  2  1  6
  1  3  2  0
 25 28  1  0
 25 24  1  0
 25 26  1  6
 25 27  2  0
  6 11  1  0
  6 12  1  0
 29 36  1  0
 29 37  1  0
  9  7  1  1
  7 13  1  0
 10  8  1  1
  8 14  1  0
  4  5  1  0
 36 28  1  6
 33 30  1  6
 30 38  1  0
 34 31  1  6
 31 39  1  0
 35 32  1  6
 32 40  1  0
 41 43  1  0
 15 19  2  0
 42 43  2  0
 16 22  2  0
 12 17  1  6
 17 19  1  0
 17 20  1  0
 18 19  1  0
 18 22  1  0
 18 23  1  0
  9 10  1  0
  9 11  1  0
 10 12  1  0
 11  5  1  1
 33 34  1  0
 33 35  1  0
 34 36  1  0
 35 37  1  0
 37 43  1  1
 20 21  2  0
 21 22  1  0
M  CHG  3   2  -1  26  -1  41  -1
M  END
>  <COMPND>  (136) 
    udp_gluA.pdb 

>  <AUTHOR>  (136) 
    GENERATED BY OPEN BABEL 3.1.1

>  <MASTER>  (136) 
        0    0    0    0    0    0    0    0   56    0   56    0

>  <minimizedAffinity>  (136) 
-9.35927

>  <CNNscore>  (136) 
0.4742156565

>  <CNNaffinity>  (136) 
4.4190278053

>  <CNN_VS>  (136) 
2.0955722332

>  <CNNaffinity_variance>  (136) 
0.1037992239

$$$$
137
     RDKit          3D

 43 45  0  0  0  0  0  0  0  0999 V2000
   21.3585   72.9491   -1.7929 P   0  0  2  0  0  0  0  0  0  0  0  0
   21.1154   74.2022   -0.7983 O   0  0  0  0  0  0  0  0  0  0  0  0
   22.4476   73.1464   -2.8061 O   0  0  0  0  0  0  0  0  0  0  0  0
   19.8884   72.6385   -2.3931 O   0  0  0  0  0  0  0  0  0  0  0  0
   19.1623   73.6993   -2.9863 C   0  0  0  0  0  0  0  0  0  0  0  0
   19.5289   72.4722   -5.0203 O   0  0  0  0  0  0  0  0  0  0  0  0
   19.2441   75.0993   -6.4376 O   0  0  0  0  0  0  0  0  0  0  0  0
   16.8029   73.9468   -6.8227 O   0  0  0  0  0  0  0  0  0  0  0  0
   18.5594   74.6176   -5.2810 C   0  0  1  0  0  0  0  0  0  0  0  0
   17.5359   73.5737   -5.6746 C   0  0  2  0  0  0  0  0  0  0  0  0
   19.5460   73.8017   -4.4569 C   0  0  1  0  0  0  0  0  0  0  0  0
   18.4065   72.3509   -5.9085 C   0  0  2  0  0  0  0  0  0  0  0  0
   18.6339   75.6238   -6.9800 H   0  0  0  0  0  0  0  0  0  0  0  0
   16.2648   74.7293   -6.6226 H   0  0  0  0  0  0  0  0  0  0  0  0
   16.4476   71.1977   -7.5847 O   0  0  0  0  0  0  0  0  0  0  0  0
   15.8249   67.6430   -4.7177 O   0  0  0  0  0  0  0  0  0  0  0  0
   17.7165   71.1245   -5.6243 N   0  0  0  0  0  0  0  0  0  0  0  0
   16.1386   69.4289   -6.1546 N   0  0  0  0  0  0  0  0  0  0  0  0
   16.7498   70.6317   -6.5324 C   0  0  0  0  0  0  0  0  0  0  0  0
   18.0005   70.4230   -4.4589 C   0  0  0  0  0  0  0  0  0  0  0  0
   17.4097   69.2777   -4.1125 C   0  0  0  0  0  0  0  0  0  0  0  0
   16.3871   68.6951   -5.0060 C   0  0  0  0  0  0  0  0  0  0  0  0
   15.4606   69.0671   -6.7701 H   0  0  0  0  0  0  0  0  0  0  0  0
   21.6022   71.7186   -0.7734 O   0  0  0  0  0  0  0  0  0  0  0  0
   20.7743   71.2404    0.5302 P   0  0  2  0  0  0  0  0  0  0  0  0
   20.4845   69.6761    0.2311 O   0  0  0  0  0  0  0  0  0  0  0  0
   19.5445   72.0544    0.8115 O   0  0  0  0  0  0  0  0  0  0  0  0
   21.8594   71.2324    1.7240 O   0  0  0  0  0  0  0  0  0  0  0  0
   23.8761   72.4422    2.0041 O   0  0  0  0  0  0  0  0  0  0  0  0
   24.7977   68.8421    3.8092 O   0  0  0  0  0  0  0  0  0  0  0  0
   23.3128   68.9003    1.2940 O   0  0  0  0  0  0  0  0  0  0  0  0
   24.2249   71.1842    5.4331 O   0  0  0  0  0  0  0  0  0  0  0  0
   23.9506   69.9168    3.4025 C   0  0  2  0  0  0  0  0  0  0  0  0
   23.9586   70.0259    1.8776 C   0  0  2  0  0  0  0  0  0  0  0  0
   24.4863   71.2052    4.0311 C   0  0  1  0  0  0  0  0  0  0  0  0
   23.2506   71.3007    1.4165 C   0  0  1  0  0  0  0  0  0  0  0  0
   23.8190   72.4383    3.4289 C   0  0  1  0  0  0  0  0  0  0  0  0
   24.4766   68.0127    3.4216 H   0  0  0  0  0  0  0  0  0  0  0  0
   23.7567   68.0879    1.5825 H   0  0  0  0  0  0  0  0  0  0  0  0
   24.6441   70.4040    5.8286 H   0  0  0  0  0  0  0  0  0  0  0  0
   24.2598   74.0632    5.0619 O   0  0  0  0  0  0  0  0  0  0  0  0
   25.3471   74.2704    3.0685 O   0  0  0  0  0  0  0  0  0  0  0  0
   24.5654   73.6788    3.7979 C   0  0  0  0  0  0  0  0  0  0  0  0
  1  4  1  0
  1 24  1  0
  1  2  1  1
  1  3  2  0
 25 28  1  0
 25 24  1  0
 25 26  1  6
 25 27  2  0
  6 11  1  0
  6 12  1  0
 29 36  1  0
 29 37  1  0
  9  7  1  6
  7 13  1  0
 10  8  1  6
  8 14  1  0
  4  5  1  0
 36 28  1  1
 33 30  1  6
 30 38  1  0
 34 31  1  6
 31 39  1  0
 35 32  1  1
 32 40  1  0
 41 43  1  0
 15 19  2  0
 42 43  2  0
 16 22  2  0
 12 17  1  1
 17 19  1  0
 17 20  1  0
 18 19  1  0
 18 22  1  0
 18 23  1  0
  9 10  1  0
  9 11  1  0
 10 12  1  0
 11  5  1  1
 33 34  1  0
 33 35  1  0
 34 36  1  0
 35 37  1  0
 37 43  1  1
 20 21  2  0
 21 22  1  0
M  CHG  3   2  -1  26  -1  41  -1
M  END
>  <COMPND>  (137) 
    udp_gluA.pdb 

>  <AUTHOR>  (137) 
    GENERATED BY OPEN BABEL 3.1.1

>  <MASTER>  (137) 
        0    0    0    0    0    0    0    0   56    0   56    0

>  <minimizedAffinity>  (137) 
-7.99334

>  <CNNscore>  (137) 
0.4489872158

>  <CNNaffinity>  (137) 
4.3950166702

>  <CNN_VS>  (137) 
1.9733062983

>  <CNNaffinity_variance>  (137) 
0.1358095706

$$$$
138
     RDKit          3D

 43 45  0  0  0  0  0  0  0  0999 V2000
   22.4397   71.2853   -3.2390 P   0  0  2  0  0  0  0  0  0  0  0  0
   21.2017   70.2441   -3.1948 O   0  0  0  0  0  0  0  0  0  0  0  0
   23.7916   70.6555   -3.4048 O   0  0  0  0  0  0  0  0  0  0  0  0
   22.2410   72.1819   -1.9068 O   0  0  0  0  0  0  0  0  0  0  0  0
   23.0839   71.9380   -0.7957 C   0  0  0  0  0  0  0  0  0  0  0  0
   23.3543   70.5747    1.1654 O   0  0  0  0  0  0  0  0  0  0  0  0
   20.5619   69.6098    0.6526 O   0  0  0  0  0  0  0  0  0  0  0  0
   20.2036   71.4422    2.6401 O   0  0  0  0  0  0  0  0  0  0  0  0
   21.1203   70.9085    0.4521 C   0  0  1  0  0  0  0  0  0  0  0  0
   21.3128   71.6071    1.7815 C   0  0  2  0  0  0  0  0  0  0  0  0
   22.5551   70.7341   -0.0267 C   0  0  1  0  0  0  0  0  0  0  0  0
   22.5679   70.9355    2.3120 C   0  0  2  0  0  0  0  0  0  0  0  0
   19.6451   69.6955    0.9589 H   0  0  0  0  0  0  0  0  0  0  0  0
   19.4303   71.8876    2.2584 H   0  0  0  0  0  0  0  0  0  0  0  0
   23.4193   70.2834    4.9247 O   0  0  0  0  0  0  0  0  0  0  0  0
   25.5281   74.3482    5.4486 O   0  0  0  0  0  0  0  0  0  0  0  0
   23.3407   71.8048    3.1534 N   0  0  0  0  0  0  0  0  0  0  0  0
   24.4679   72.3089    5.1835 N   0  0  0  0  0  0  0  0  0  0  0  0
   23.7168   71.3812    4.4500 C   0  0  0  0  0  0  0  0  0  0  0  0
   23.7193   73.0598    2.6924 C   0  0  0  0  0  0  0  0  0  0  0  0
   24.4354   73.9332    3.4031 C   0  0  0  0  0  0  0  0  0  0  0  0
   24.8681   73.5687    4.7682 C   0  0  0  0  0  0  0  0  0  0  0  0
   24.7397   72.0373    6.0900 H   0  0  0  0  0  0  0  0  0  0  0  0
   22.0191   72.2992   -4.4255 O   0  0  0  0  0  0  0  0  0  0  0  0
   20.6454   73.1087   -4.6928 P   0  0  2  0  0  0  0  0  0  0  0  0
   21.1598   74.5984   -5.0622 O   0  0  0  0  0  0  0  0  0  0  0  0
   19.6683   73.0564   -3.5541 O   0  0  0  0  0  0  0  0  0  0  0  0
   20.0846   72.5150   -6.0840 O   0  0  0  0  0  0  0  0  0  0  0  0
   19.0177   70.4488   -5.6346 O   0  0  0  0  0  0  0  0  0  0  0  0
   18.5704   70.7526   -9.7304 O   0  0  0  0  0  0  0  0  0  0  0  0
   21.0977   71.4804   -8.4587 O   0  0  0  0  0  0  0  0  0  0  0  0
   16.3122   71.2682   -7.9737 O   0  0  0  0  0  0  0  0  0  0  0  0
   18.6847   71.2372   -8.3925 C   0  0  2  0  0  0  0  0  0  0  0  0
   20.0288   70.8060   -7.8051 C   0  0  2  0  0  0  0  0  0  0  0  0
   17.5330   70.6471   -7.5756 C   0  0  1  0  0  0  0  0  0  0  0  0
   20.0926   71.1061   -6.3069 C   0  0  1  0  0  0  0  0  0  0  0  0
   17.7338   70.8795   -6.0809 C   0  0  1  0  0  0  0  0  0  0  0  0
   19.2921   71.1145  -10.2684 H   0  0  0  0  0  0  0  0  0  0  0  0
   21.0631   71.2947   -9.4099 H   0  0  0  0  0  0  0  0  0  0  0  0
   16.1726   71.1278   -8.9232 H   0  0  0  0  0  0  0  0  0  0  0  0
   16.1723   69.1293   -6.0775 O   0  0  0  0  0  0  0  0  0  0  0  0
   16.6194   70.1282   -4.0771 O   0  0  0  0  0  0  0  0  0  0  0  0
   16.7989   70.0311   -5.2819 C   0  0  0  0  0  0  0  0  0  0  0  0
  1  4  1  0
  1 24  1  0
  1  2  1  1
  1  3  2  0
 25 28  1  0
 25 24  1  0
 25 26  1  6
 25 27  2  0
  6 11  1  0
  6 12  1  0
 29 36  1  0
 29 37  1  0
  9  7  1  1
  7 13  1  0
 10  8  1  1
  8 14  1  0
  4  5  1  0
 36 28  1  6
 33 30  1  6
 30 38  1  0
 34 31  1  6
 31 39  1  0
 35 32  1  6
 32 40  1  0
 41 43  1  0
 15 19  2  0
 42 43  2  0
 16 22  2  0
 12 17  1  1
 17 19  1  0
 17 20  1  0
 18 19  1  0
 18 22  1  0
 18 23  1  0
  9 10  1  0
  9 11  1  0
 10 12  1  0
 11  5  1  1
 33 34  1  0
 33 35  1  0
 34 36  1  0
 35 37  1  0
 37 43  1  1
 20 21  2  0
 21 22  1  0
M  CHG  3   2  -1  26  -1  41  -1
M  END
>  <COMPND>  (138) 
    udp_gluA.pdb 

>  <AUTHOR>  (138) 
    GENERATED BY OPEN BABEL 3.1.1

>  <MASTER>  (138) 
        0    0    0    0    0    0    0    0   56    0   56    0

>  <minimizedAffinity>  (138) 
-9.38399

>  <CNNscore>  (138) 
0.3985641003

>  <CNNaffinity>  (138) 
4.2572412491

>  <CNN_VS>  (138) 
1.6967835426

>  <CNNaffinity_variance>  (138) 
0.0675166100

$$$$
139
     RDKit          3D

 43 45  0  0  0  0  0  0  0  0999 V2000
   20.8170   70.7586   -0.5598 P   0  0  2  0  0  0  0  0  0  0  0  0
   20.4571   69.6263    0.5389 O   0  0  0  0  0  0  0  0  0  0  0  0
   20.7189   72.1728   -0.0677 O   0  0  0  0  0  0  0  0  0  0  0  0
   19.8764   70.3873   -1.8229 O   0  0  0  0  0  0  0  0  0  0  0  0
   19.6621   71.3709   -2.8185 C   0  0  0  0  0  0  0  0  0  0  0  0
   17.9016   72.1274   -4.2698 O   0  0  0  0  0  0  0  0  0  0  0  0
   16.0099   70.7941   -2.3631 O   0  0  0  0  0  0  0  0  0  0  0  0
   16.1736   68.9888   -4.4003 O   0  0  0  0  0  0  0  0  0  0  0  0
   17.3160   70.3878   -2.7725 C   0  0  1  0  0  0  0  0  0  0  0  0
   17.2770   69.8435   -4.1848 C   0  0  2  0  0  0  0  0  0  0  0  0
   18.1674   71.6394   -2.9369 C   0  0  1  0  0  0  0  0  0  0  0  0
   17.2012   71.1160   -5.0112 C   0  0  2  0  0  0  0  0  0  0  0  0
   15.4476   70.0112   -2.2516 H   0  0  0  0  0  0  0  0  0  0  0  0
   16.2688   68.1935   -3.8522 H   0  0  0  0  0  0  0  0  0  0  0  0
   15.8441   70.2827   -7.3437 O   0  0  0  0  0  0  0  0  0  0  0  0
   19.6675   70.5922   -9.8990 O   0  0  0  0  0  0  0  0  0  0  0  0
   17.8178   70.9702   -6.2994 N   0  0  0  0  0  0  0  0  0  0  0  0
   17.7499   70.4367   -8.6139 N   0  0  0  0  0  0  0  0  0  0  0  0
   17.0466   70.5452   -7.4070 C   0  0  0  0  0  0  0  0  0  0  0  0
   19.1701   71.2484   -6.4566 C   0  0  0  0  0  0  0  0  0  0  0  0
   19.8266   71.1404   -7.6134 C   0  0  0  0  0  0  0  0  0  0  0  0
   19.0942   70.7015   -8.8194 C   0  0  0  0  0  0  0  0  0  0  0  0
   17.2346   70.1405   -9.3988 H   0  0  0  0  0  0  0  0  0  0  0  0
   22.2898   70.3213   -1.0625 O   0  0  0  0  0  0  0  0  0  0  0  0
   23.4549   69.4760   -0.3266 P   0  0  2  0  0  0  0  0  0  0  0  0
   24.6304   69.4212   -1.4382 O   0  0  0  0  0  0  0  0  0  0  0  0
   23.0162   68.1312    0.1763 O   0  0  0  0  0  0  0  0  0  0  0  0
   24.0200   70.4660    0.8149 O   0  0  0  0  0  0  0  0  0  0  0  0
   25.4115   69.9264    2.6539 O   0  0  0  0  0  0  0  0  0  0  0  0
   23.2750   73.1393    4.1306 O   0  0  0  0  0  0  0  0  0  0  0  0
   21.9399   71.0692    2.5601 O   0  0  0  0  0  0  0  0  0  0  0  0
   26.0395   73.4831    3.2998 O   0  0  0  0  0  0  0  0  0  0  0  0
   23.9189   72.3523    3.1286 C   0  0  2  0  0  0  0  0  0  0  0  0
   23.2666   70.9711    3.0651 C   0  0  2  0  0  0  0  0  0  0  0  0
   25.3971   72.2261    3.5038 C   0  0  1  0  0  0  0  0  0  0  0  0
   24.0712   70.0266    2.1710 C   0  0  1  0  0  0  0  0  0  0  0  0
   26.1006   71.1746    2.6506 C   0  0  1  0  0  0  0  0  0  0  0  0
   22.3341   73.2331    3.9133 H   0  0  0  0  0  0  0  0  0  0  0  0
   21.4237   71.6672    3.1224 H   0  0  0  0  0  0  0  0  0  0  0  0
   25.6011   74.1613    3.8372 H   0  0  0  0  0  0  0  0  0  0  0  0
   27.5258   71.2617    4.5115 O   0  0  0  0  0  0  0  0  0  0  0  0
   28.3184   70.2245    2.6420 O   0  0  0  0  0  0  0  0  0  0  0  0
   27.4319   70.8243    3.2314 C   0  0  0  0  0  0  0  0  0  0  0  0
  1  4  1  0
  1 24  1  0
  1  2  1  1
  1  3  2  0
 25 28  1  0
 25 24  1  0
 25 26  1  6
 25 27  2  0
  6 11  1  0
  6 12  1  0
 29 36  1  0
 29 37  1  0
  9  7  1  6
  7 13  1  0
 10  8  1  1
  8 14  1  0
  4  5  1  0
 36 28  1  6
 33 30  1  1
 30 38  1  0
 34 31  1  6
 31 39  1  0
 35 32  1  6
 32 40  1  0
 41 43  1  0
 15 19  2  0
 42 43  2  0
 16 22  2  0
 12 17  1  6
 17 19  1  0
 17 20  1  0
 18 19  1  0
 18 22  1  0
 18 23  1  0
  9 10  1  0
  9 11  1  0
 10 12  1  0
 11  5  1  6
 33 34  1  0
 33 35  1  0
 34 36  1  0
 35 37  1  0
 37 43  1  1
 20 21  2  0
 21 22  1  0
M  CHG  3   2  -1  26  -1  41  -1
M  END
>  <COMPND>  (139) 
    udp_gluA.pdb 

>  <AUTHOR>  (139) 
    GENERATED BY OPEN BABEL 3.1.1

>  <MASTER>  (139) 
        0    0    0    0    0    0    0    0   56    0   56    0

>  <minimizedAffinity>  (139) 
-9.03825

>  <CNNscore>  (139) 
0.3636718690

>  <CNNaffinity>  (139) 
4.7087450027

>  <CNN_VS>  (139) 
1.7124381065

>  <CNNaffinity_variance>  (139) 
0.2108815163

$$$$
140
     RDKit          3D

 43 45  0  0  0  0  0  0  0  0999 V2000
   21.0528   70.5546   -0.3992 P   0  0  2  0  0  0  0  0  0  0  0  0
   20.7791   69.2984    0.5836 O   0  0  0  0  0  0  0  0  0  0  0  0
   21.6945   70.2055   -1.7100 O   0  0  0  0  0  0  0  0  0  0  0  0
   21.8691   71.6012    0.5261 O   0  0  0  0  0  0  0  0  0  0  0  0
   21.6233   71.6055    1.9204 C   0  0  0  0  0  0  0  0  0  0  0  0
   23.9564   71.0278    1.9375 O   0  0  0  0  0  0  0  0  0  0  0  0
   23.5141   70.0961    4.7531 O   0  0  0  0  0  0  0  0  0  0  0  0
   24.6745   72.5380    5.1090 O   0  0  0  0  0  0  0  0  0  0  0  0
   22.9307   71.2029    4.0654 C   0  0  1  0  0  0  0  0  0  0  0  0
   23.9402   72.3221    3.9220 C   0  0  2  0  0  0  0  0  0  0  0  0
   22.7048   70.7901    2.6174 C   0  0  1  0  0  0  0  0  0  0  0  0
   24.8080   71.8197    2.7808 C   0  0  2  0  0  0  0  0  0  0  0  0
   23.6678   70.3360    5.6808 H   0  0  0  0  0  0  0  0  0  0  0  0
   24.0778   72.8572    5.8047 H   0  0  0  0  0  0  0  0  0  0  0  0
   27.5744   72.2164    2.3726 O   0  0  0  0  0  0  0  0  0  0  0  0
   26.8416   75.9617   -0.2119 O   0  0  0  0  0  0  0  0  0  0  0  0
   25.3677   72.8904    2.0055 N   0  0  0  0  0  0  0  0  0  0  0  0
   27.2068   74.0819    1.0866 N   0  0  0  0  0  0  0  0  0  0  0  0
   26.7712   72.9999    1.8628 C   0  0  0  0  0  0  0  0  0  0  0  0
   24.5302   73.8163    1.3953 C   0  0  0  0  0  0  0  0  0  0  0  0
   24.9601   74.8423    0.6583 C   0  0  0  0  0  0  0  0  0  0  0  0
   26.4125   75.0289    0.4605 C   0  0  0  0  0  0  0  0  0  0  0  0
   28.1800   74.1801    0.9747 H   0  0  0  0  0  0  0  0  0  0  0  0
   19.5949   71.2413   -0.5250 O   0  0  0  0  0  0  0  0  0  0  0  0
   18.3623   70.9395   -1.5267 P   0  0  2  0  0  0  0  0  0  0  0  0
   17.2192   71.9714   -1.0279 O   0  0  0  0  0  0  0  0  0  0  0  0
   17.9288   69.5024   -1.5541 O   0  0  0  0  0  0  0  0  0  0  0  0
   18.8419   71.5214   -2.9528 O   0  0  0  0  0  0  0  0  0  0  0  0
   18.3424   70.0460   -4.7368 O   0  0  0  0  0  0  0  0  0  0  0  0
   20.5704   72.9529   -6.6485 O   0  0  0  0  0  0  0  0  0  0  0  0
   21.3724   71.9623   -4.0198 O   0  0  0  0  0  0  0  0  0  0  0  0
   17.6826   72.8783   -6.9741 O   0  0  0  0  0  0  0  0  0  0  0  0
   19.6630   72.4366   -5.6749 C   0  0  2  0  0  0  0  0  0  0  0  0
   20.3664   71.3709   -4.8341 C   0  0  2  0  0  0  0  0  0  0  0  0
   18.4701   71.8283   -6.4158 C   0  0  1  0  0  0  0  0  0  0  0  0
   19.3693   70.6349   -3.9380 C   0  0  1  0  0  0  0  0  0  0  0  0
   17.5918   71.0060   -5.4772 C   0  0  1  0  0  0  0  0  0  0  0  0
   21.3368   73.3447   -6.2009 H   0  0  0  0  0  0  0  0  0  0  0  0
   22.0083   72.4313   -4.5819 H   0  0  0  0  0  0  0  0  0  0  0  0
   18.2299   73.4094   -7.5734 H   0  0  0  0  0  0  0  0  0  0  0  0
   16.3832   68.9993   -5.5957 O   0  0  0  0  0  0  0  0  0  0  0  0
   16.1418   70.4627   -7.3275 O   0  0  0  0  0  0  0  0  0  0  0  0
   16.6353   70.1590   -6.2518 C   0  0  0  0  0  0  0  0  0  0  0  0
  1  4  1  0
  1 24  1  0
  1  2  1  1
  1  3  2  0
 25 28  1  0
 25 24  1  0
 25 26  1  1
 25 27  2  0
  6 11  1  0
  6 12  1  0
 29 36  1  0
 29 37  1  0
  9  7  1  1
  7 13  1  0
 10  8  1  1
  8 14  1  0
  4  5  1  0
 36 28  1  1
 33 30  1  6
 30 38  1  0
 34 31  1  1
 31 39  1  0
 35 32  1  1
 32 40  1  0
 41 43  1  0
 15 19  2  0
 42 43  2  0
 16 22  2  0
 12 17  1  6
 17 19  1  0
 17 20  1  0
 18 19  1  0
 18 22  1  0
 18 23  1  0
  9 10  1  0
  9 11  1  0
 10 12  1  0
 11  5  1  6
 33 34  1  0
 33 35  1  0
 34 36  1  0
 35 37  1  0
 37 43  1  6
 20 21  2  0
 21 22  1  0
M  CHG  3   2  -1  26  -1  41  -1
M  END
>  <COMPND>  (140) 
    udp_gluA.pdb 

>  <AUTHOR>  (140) 
    GENERATED BY OPEN BABEL 3.1.1

>  <MASTER>  (140) 
        0    0    0    0    0    0    0    0   56    0   56    0

>  <minimizedAffinity>  (140) 
-7.71611

>  <CNNscore>  (140) 
0.3614210486

>  <CNNaffinity>  (140) 
4.1928124428

>  <CNN_VS>  (140) 
1.5153707266

>  <CNNaffinity_variance>  (140) 
0.1189176440

$$$$
141
     RDKit          3D

 43 45  0  0  0  0  0  0  0  0999 V2000
   22.2580   69.6215   -0.3948 P   0  0  2  0  0  0  0  0  0  0  0  0
   21.1324   69.1368    0.6621 O   0  0  0  0  0  0  0  0  0  0  0  0
   23.0062   68.5135   -1.0762 O   0  0  0  0  0  0  0  0  0  0  0  0
   23.1620   70.6634    0.4508 O   0  0  0  0  0  0  0  0  0  0  0  0
   24.2574   70.1603    1.1935 C   0  0  0  0  0  0  0  0  0  0  0  0
   25.1437   70.0389    3.4245 O   0  0  0  0  0  0  0  0  0  0  0  0
   22.6082   71.3760    4.3048 O   0  0  0  0  0  0  0  0  0  0  0  0
   24.3946   73.4363    4.2910 O   0  0  0  0  0  0  0  0  0  0  0  0
   23.3673   71.5744    3.1119 C   0  0  1  0  0  0  0  0  0  0  0  0
   24.6300   72.3519    3.4175 C   0  0  2  0  0  0  0  0  0  0  0  0
   23.9216   70.2243    2.6779 C   0  0  1  0  0  0  0  0  0  0  0  0
   25.5159   71.2841    4.0364 C   0  0  2  0  0  0  0  0  0  0  0  0
   22.2438   72.2251    4.6015 H   0  0  0  0  0  0  0  0  0  0  0  0
   23.8263   74.0885    3.8509 H   0  0  0  0  0  0  0  0  0  0  0  0
   27.0755   73.1695    5.4468 O   0  0  0  0  0  0  0  0  0  0  0  0
   30.8590   72.1171    3.0341 O   0  0  0  0  0  0  0  0  0  0  0  0
   26.9110   71.5233    3.7972 N   0  0  0  0  0  0  0  0  0  0  0  0
   28.9582   72.6443    4.2431 N   0  0  0  0  0  0  0  0  0  0  0  0
   27.6021   72.4932    4.5613 C   0  0  0  0  0  0  0  0  0  0  0  0
   27.5805   70.8008    2.8170 C   0  0  0  0  0  0  0  0  0  0  0  0
   28.8734   70.9559    2.5252 C   0  0  0  0  0  0  0  0  0  0  0  0
   29.6677   71.9497    3.2768 C   0  0  0  0  0  0  0  0  0  0  0  0
   29.4598   73.3152    4.7604 H   0  0  0  0  0  0  0  0  0  0  0  0
   21.4283   70.5862   -1.3917 O   0  0  0  0  0  0  0  0  0  0  0  0
   21.9206   71.7680   -2.3790 P   0  0  2  0  0  0  0  0  0  0  0  0
   23.1551   71.0918   -3.1784 O   0  0  0  0  0  0  0  0  0  0  0  0
   22.2654   73.0510   -1.6797 O   0  0  0  0  0  0  0  0  0  0  0  0
   20.7468   71.8989   -3.4778 O   0  0  0  0  0  0  0  0  0  0  0  0
   19.5867   69.9266   -4.0889 O   0  0  0  0  0  0  0  0  0  0  0  0
   18.4486   72.5337   -7.0848 O   0  0  0  0  0  0  0  0  0  0  0  0
   21.2191   72.4579   -6.1612 O   0  0  0  0  0  0  0  0  0  0  0  0
   16.5979   71.8766   -4.9414 O   0  0  0  0  0  0  0  0  0  0  0  0
   18.8444   72.1571   -5.7659 C   0  0  2  0  0  0  0  0  0  0  0  0
   20.2247   71.5014   -5.8135 C   0  0  2  0  0  0  0  0  0  0  0  0
   17.8059   71.1725   -5.2236 C   0  0  1  0  0  0  0  0  0  0  0  0
   20.5821   70.8801   -4.4625 C   0  0  1  0  0  0  0  0  0  0  0  0
   18.2904   70.5018   -3.9414 C   0  0  1  0  0  0  0  0  0  0  0  0
   19.0939   73.1594   -7.4499 H   0  0  0  0  0  0  0  0  0  0  0  0
   20.9985   72.8564   -7.0173 H   0  0  0  0  0  0  0  0  0  0  0  0
   16.2790   72.3083   -5.7493 H   0  0  0  0  0  0  0  0  0  0  0  0
   17.8111   68.7847   -2.4172 O   0  0  0  0  0  0  0  0  0  0  0  0
   16.5236   68.8973   -4.2957 O   0  0  0  0  0  0  0  0  0  0  0  0
   17.4367   69.3229   -3.6042 C   0  0  0  0  0  0  0  0  0  0  0  0
  1  4  1  0
  1 24  1  0
  1  2  1  1
  1  3  2  0
 25 28  1  0
 25 24  1  0
 25 26  1  6
 25 27  2  0
  6 11  1  0
  6 12  1  0
 29 36  1  0
 29 37  1  0
  9  7  1  1
  7 13  1  0
 10  8  1  1
  8 14  1  0
  4  5  1  0
 36 28  1  1
 33 30  1  6
 30 38  1  0
 34 31  1  1
 31 39  1  0
 35 32  1  1
 32 40  1  0
 41 43  1  0
 15 19  2  0
 42 43  2  0
 16 22  2  0
 12 17  1  6
 17 19  1  0
 17 20  1  0
 18 19  1  0
 18 22  1  0
 18 23  1  0
  9 10  1  0
  9 11  1  0
 10 12  1  0
 11  5  1  6
 33 34  1  0
 33 35  1  0
 34 36  1  0
 35 37  1  0
 37 43  1  6
 20 21  2  0
 21 22  1  0
M  CHG  3   2  -1  26  -1  41  -1
M  END
>  <COMPND>  (141) 
    udp_gluA.pdb 

>  <AUTHOR>  (141) 
    GENERATED BY OPEN BABEL 3.1.1

>  <MASTER>  (141) 
        0    0    0    0    0    0    0    0   56    0   56    0

>  <minimizedAffinity>  (141) 
-8.74615

>  <CNNscore>  (141) 
0.7310063839

>  <CNNaffinity>  (141) 
4.8147945404

>  <CNN_VS>  (141) 
3.5196454525

>  <CNNaffinity_variance>  (141) 
0.1156119481

$$$$
142
     RDKit          3D

 43 45  0  0  0  0  0  0  0  0999 V2000
   21.9994   71.0189   -2.0696 P   0  0  2  0  0  0  0  0  0  0  0  0
   22.9024   72.2815   -2.5269 O   0  0  0  0  0  0  0  0  0  0  0  0
   21.9033   69.9108   -3.0769 O   0  0  0  0  0  0  0  0  0  0  0  0
   20.5948   71.6869   -1.6237 O   0  0  0  0  0  0  0  0  0  0  0  0
   19.8005   72.3149   -2.6133 C   0  0  0  0  0  0  0  0  0  0  0  0
   17.7224   71.9721   -3.7716 O   0  0  0  0  0  0  0  0  0  0  0  0
   17.0019   70.1022   -1.5409 O   0  0  0  0  0  0  0  0  0  0  0  0
   17.7633   68.3955   -3.5266 O   0  0  0  0  0  0  0  0  0  0  0  0
   18.2718   70.3346   -2.1506 C   0  0  1  0  0  0  0  0  0  0  0  0
   18.3203   69.6932   -3.5212 C   0  0  2  0  0  0  0  0  0  0  0  0
   18.3666   71.8162   -2.4886 C   0  0  1  0  0  0  0  0  0  0  0  0
   17.5200   70.6766   -4.3581 C   0  0  2  0  0  0  0  0  0  0  0  0
   16.9180   69.1620   -1.3159 H   0  0  0  0  0  0  0  0  0  0  0  0
   18.3088   67.8072   -2.9804 H   0  0  0  0  0  0  0  0  0  0  0  0
   15.9130   69.9322   -6.5581 O   0  0  0  0  0  0  0  0  0  0  0  0
   19.2846   70.8478   -9.5643 O   0  0  0  0  0  0  0  0  0  0  0  0
   17.9527   70.7108   -5.7265 N   0  0  0  0  0  0  0  0  0  0  0  0
   17.5941   70.3880   -8.0532 N   0  0  0  0  0  0  0  0  0  0  0  0
   17.0672   70.3158   -6.7569 C   0  0  0  0  0  0  0  0  0  0  0  0
   19.2397   71.1333   -6.0366 C   0  0  0  0  0  0  0  0  0  0  0  0
   19.7277   71.1968   -7.2770 C   0  0  0  0  0  0  0  0  0  0  0  0
   18.8673   70.8008   -8.4111 C   0  0  0  0  0  0  0  0  0  0  0  0
   16.9969   70.1161   -8.7871 H   0  0  0  0  0  0  0  0  0  0  0  0
   22.6622   70.5907   -0.6588 O   0  0  0  0  0  0  0  0  0  0  0  0
   22.2322   69.4633    0.4172 P   0  0  2  0  0  0  0  0  0  0  0  0
   22.9547   68.1260   -0.1396 O   0  0  0  0  0  0  0  0  0  0  0  0
   20.7494   69.3302    0.6105 O   0  0  0  0  0  0  0  0  0  0  0  0
   23.0505   69.8412    1.7551 O   0  0  0  0  0  0  0  0  0  0  0  0
   23.2478   72.1910    1.5345 O   0  0  0  0  0  0  0  0  0  0  0  0
   24.5581   71.5973    5.4073 O   0  0  0  0  0  0  0  0  0  0  0  0
   25.3820   69.7832    3.2707 O   0  0  0  0  0  0  0  0  0  0  0  0
   21.9063   72.6815    4.9141 O   0  0  0  0  0  0  0  0  0  0  0  0
   23.7832   71.3304    4.2384 C   0  0  2  0  0  0  0  0  0  0  0  0
   24.7150   71.0233    3.0658 C   0  0  2  0  0  0  0  0  0  0  0  0
   22.9394   72.5710    3.9370 C   0  0  1  0  0  0  0  0  0  0  0  0
   23.9368   70.9590    1.7509 C   0  0  1  0  0  0  0  0  0  0  0  0
   22.2971   72.4856    2.5554 C   0  0  1  0  0  0  0  0  0  0  0  0
   25.1027   70.8226    5.6182 H   0  0  0  0  0  0  0  0  0  0  0  0
   25.8776   69.8169    4.1035 H   0  0  0  0  0  0  0  0  0  0  0  0
   22.3018   72.7365    5.7981 H   0  0  0  0  0  0  0  0  0  0  0  0
   21.3787   73.7905    0.8363 O   0  0  0  0  0  0  0  0  0  0  0  0
   21.6651   74.7936    2.8639 O   0  0  0  0  0  0  0  0  0  0  0  0
   21.7577   73.8150    2.1381 C   0  0  0  0  0  0  0  0  0  0  0  0
  1  4  1  0
  1 24  1  0
  1  2  1  6
  1  3  2  0
 25 28  1  0
 25 24  1  0
 25 26  1  6
 25 27  2  0
  6 11  1  0
  6 12  1  0
 29 36  1  0
 29 37  1  0
  9  7  1  6
  7 13  1  0
 10  8  1  1
  8 14  1  0
  4  5  1  0
 36 28  1  1
 33 30  1  1
 30 38  1  0
 34 31  1  1
 31 39  1  0
 35 32  1  1
 32 40  1  0
 41 43  1  0
 15 19  2  0
 42 43  2  0
 16 22  2  0
 12 17  1  6
 17 19  1  0
 17 20  1  0
 18 19  1  0
 18 22  1  0
 18 23  1  0
  9 10  1  0
  9 11  1  0
 10 12  1  0
 11  5  1  6
 33 34  1  0
 33 35  1  0
 34 36  1  0
 35 37  1  0
 37 43  1  6
 20 21  2  0
 21 22  1  0
M  CHG  3   2  -1  26  -1  41  -1
M  END
>  <COMPND>  (142) 
    udp_gluA.pdb 

>  <AUTHOR>  (142) 
    GENERATED BY OPEN BABEL 3.1.1

>  <MASTER>  (142) 
        0    0    0    0    0    0    0    0   56    0   56    0

>  <minimizedAffinity>  (142) 
-9.04589

>  <CNNscore>  (142) 
0.7118791342

>  <CNNaffinity>  (142) 
4.8819937706

>  <CNN_VS>  (142) 
3.4753894806

>  <CNNaffinity_variance>  (142) 
0.1860080808

$$$$
143
     RDKit          3D

 43 45  0  0  0  0  0  0  0  0999 V2000
   20.8221   70.3779    0.1158 P   0  0  2  0  0  0  0  0  0  0  0  0
   19.2691   70.8232    0.2090 O   0  0  0  0  0  0  0  0  0  0  0  0
   21.1356   69.0418    0.7225 O   0  0  0  0  0  0  0  0  0  0  0  0
   21.6254   71.6376    0.7370 O   0  0  0  0  0  0  0  0  0  0  0  0
   22.8635   71.3989    1.3809 C   0  0  0  0  0  0  0  0  0  0  0  0
   23.7884   70.7334    3.4973 O   0  0  0  0  0  0  0  0  0  0  0  0
   21.8178   72.6203    4.7413 O   0  0  0  0  0  0  0  0  0  0  0  0
   24.1348   74.0571    4.7961 O   0  0  0  0  0  0  0  0  0  0  0  0
   22.5381   72.7451    3.5149 C   0  0  1  0  0  0  0  0  0  0  0  0
   23.9896   73.0758    3.7909 C   0  0  2  0  0  0  0  0  0  0  0  0
   22.6402   71.3617    2.8872 C   0  0  1  0  0  0  0  0  0  0  0  0
   24.5470   71.7253    4.2072 C   0  0  2  0  0  0  0  0  0  0  0  0
   21.7397   73.4918    5.1610 H   0  0  0  0  0  0  0  0  0  0  0  0
   23.7652   74.8980    4.4828 H   0  0  0  0  0  0  0  0  0  0  0  0
   26.6779   72.7129    5.7759 O   0  0  0  0  0  0  0  0  0  0  0  0
   29.8346   71.1055    2.8271 O   0  0  0  0  0  0  0  0  0  0  0  0
   25.9354   71.5788    3.8729 N   0  0  0  0  0  0  0  0  0  0  0  0
   28.2480   71.9123    4.3052 N   0  0  0  0  0  0  0  0  0  0  0  0
   26.9276   72.1122    4.7291 C   0  0  0  0  0  0  0  0  0  0  0  0
   26.3022   70.9123    2.7101 C   0  0  0  0  0  0  0  0  0  0  0  0
   27.5650   70.7295    2.3193 C   0  0  0  0  0  0  0  0  0  0  0  0
   28.6622   71.2567    3.1570 C   0  0  0  0  0  0  0  0  0  0  0  0
   28.9563   72.2765    4.8839 H   0  0  0  0  0  0  0  0  0  0  0  0
   21.1374   70.4900   -1.4656 O   0  0  0  0  0  0  0  0  0  0  0  0
   20.7561   71.6308   -2.5458 P   0  0  2  0  0  0  0  0  0  0  0  0
   21.9956   71.5845   -3.5859 O   0  0  0  0  0  0  0  0  0  0  0  0
   20.5006   72.9841   -1.9480 O   0  0  0  0  0  0  0  0  0  0  0  0
   19.5115   71.0163   -3.3680 O   0  0  0  0  0  0  0  0  0  0  0  0
   17.6709   72.3548   -4.0235 O   0  0  0  0  0  0  0  0  0  0  0  0
   16.0633   68.5548   -4.2316 O   0  0  0  0  0  0  0  0  0  0  0  0
   17.7908   69.3118   -2.0006 O   0  0  0  0  0  0  0  0  0  0  0  0
   16.7964   69.9644   -6.6661 O   0  0  0  0  0  0  0  0  0  0  0  0
   17.0927   69.5405   -4.3129 C   0  0  2  0  0  0  0  0  0  0  0  0
   17.2565   70.2226   -2.9544 C   0  0  2  0  0  0  0  0  0  0  0  0
   16.6855   70.5630   -5.3762 C   0  0  1  0  0  0  0  0  0  0  0  0
   18.1832   71.4347   -3.0590 C   0  0  1  0  0  0  0  0  0  0  0  0
   17.5806   71.7981   -5.3331 C   0  0  1  0  0  0  0  0  0  0  0  0
   16.3002   67.8941   -3.5618 H   0  0  0  0  0  0  0  0  0  0  0  0
   17.2079   68.5401   -1.9293 H   0  0  0  0  0  0  0  0  0  0  0  0
   16.2315   69.1769   -6.7067 H   0  0  0  0  0  0  0  0  0  0  0  0
   16.9092   74.0448   -5.3889 O   0  0  0  0  0  0  0  0  0  0  0  0
   16.6188   72.8248   -7.2932 O   0  0  0  0  0  0  0  0  0  0  0  0
   16.9858   72.9124   -6.1311 C   0  0  0  0  0  0  0  0  0  0  0  0
  1  4  1  0
  1 24  1  0
  1  2  1  6
  1  3  2  0
 25 28  1  0
 25 24  1  0
 25 26  1  6
 25 27  2  0
  6 11  1  0
  6 12  1  0
 29 36  1  0
 29 37  1  0
  9  7  1  1
  7 13  1  0
 10  8  1  1
  8 14  1  0
  4  5  1  0
 36 28  1  6
 33 30  1  1
 30 38  1  0
 34 31  1  1
 31 39  1  0
 35 32  1  6
 32 40  1  0
 41 43  1  0
 15 19  2  0
 42 43  2  0
 16 22  2  0
 12 17  1  6
 17 19  1  0
 17 20  1  0
 18 19  1  0
 18 22  1  0
 18 23  1  0
  9 10  1  0
  9 11  1  0
 10 12  1  0
 11  5  1  6
 33 34  1  0
 33 35  1  0
 34 36  1  0
 35 37  1  0
 37 43  1  6
 20 21  2  0
 21 22  1  0
M  CHG  3   2  -1  26  -1  41  -1
M  END
>  <COMPND>  (143) 
    udp_gluA.pdb 

>  <AUTHOR>  (143) 
    GENERATED BY OPEN BABEL 3.1.1

>  <MASTER>  (143) 
        0    0    0    0    0    0    0    0   56    0   56    0

>  <minimizedAffinity>  (143) 
-8.48990

>  <CNNscore>  (143) 
0.7090248466

>  <CNNaffinity>  (143) 
4.6245012283

>  <CNN_VS>  (143) 
3.2788863182

>  <CNNaffinity_variance>  (143) 
0.1125064939

$$$$
144
     RDKit          3D

 43 45  0  0  0  0  0  0  0  0999 V2000
   21.0026   70.3915    0.3175 P   0  0  2  0  0  0  0  0  0  0  0  0
   19.6872   71.1930    0.8139 O   0  0  0  0  0  0  0  0  0  0  0  0
   21.0634   68.9521    0.7372 O   0  0  0  0  0  0  0  0  0  0  0  0
   22.2325   71.3199    0.8110 O   0  0  0  0  0  0  0  0  0  0  0  0
   23.3006   70.7104    1.5125 C   0  0  0  0  0  0  0  0  0  0  0  0
   24.2639   70.4504    3.6993 O   0  0  0  0  0  0  0  0  0  0  0  0
   22.1141   72.3053    4.6632 O   0  0  0  0  0  0  0  0  0  0  0  0
   24.2861   73.9457    4.4970 O   0  0  0  0  0  0  0  0  0  0  0  0
   22.8309   72.3170    3.4284 C   0  0  1  0  0  0  0  0  0  0  0  0
   24.2425   72.8190    3.6467 C   0  0  2  0  0  0  0  0  0  0  0  0
   23.0678   70.8725    3.0091 C   0  0  1  0  0  0  0  0  0  0  0  0
   24.9199   71.6020    4.2533 C   0  0  2  0  0  0  0  0  0  0  0  0
   21.9510   73.2175    4.9513 H   0  0  0  0  0  0  0  0  0  0  0  0
   23.8424   74.6935    4.0659 H   0  0  0  0  0  0  0  0  0  0  0  0
   26.9265   73.0587    5.6053 O   0  0  0  0  0  0  0  0  0  0  0  0
   30.2552   71.2836    2.9571 O   0  0  0  0  0  0  0  0  0  0  0  0
   26.3189   71.5393    3.9377 N   0  0  0  0  0  0  0  0  0  0  0  0
   28.5824   72.1740    4.2844 N   0  0  0  0  0  0  0  0  0  0  0  0
   27.2448   72.3116    4.6782 C   0  0  0  0  0  0  0  0  0  0  0  0
   26.7613   70.7191    2.9069 C   0  0  0  0  0  0  0  0  0  0  0  0
   28.0396   70.5983    2.5433 C   0  0  0  0  0  0  0  0  0  0  0  0
   29.0706   71.3718    3.2657 C   0  0  0  0  0  0  0  0  0  0  0  0
   29.2453   72.7035    4.7839 H   0  0  0  0  0  0  0  0  0  0  0  0
   20.9888   70.6266   -1.2817 O   0  0  0  0  0  0  0  0  0  0  0  0
   20.6425   71.9400   -2.1585 P   0  0  2  0  0  0  0  0  0  0  0  0
   21.9708   72.1427   -3.0613 O   0  0  0  0  0  0  0  0  0  0  0  0
   20.2596   73.1412   -1.3434 O   0  0  0  0  0  0  0  0  0  0  0  0
   19.5127   71.4502   -3.2006 O   0  0  0  0  0  0  0  0  0  0  0  0
   18.9895   69.3164   -4.0850 O   0  0  0  0  0  0  0  0  0  0  0  0
   18.2037   71.7782   -7.3084 O   0  0  0  0  0  0  0  0  0  0  0  0
   20.5733   72.2130   -5.6561 O   0  0  0  0  0  0  0  0  0  0  0  0
   16.0136   70.6699   -5.7508 O   0  0  0  0  0  0  0  0  0  0  0  0
   18.2936   71.4284   -5.9273 C   0  0  2  0  0  0  0  0  0  0  0  0
   19.7382   71.0631   -5.5849 C   0  0  2  0  0  0  0  0  0  0  0  0
   17.3698   70.2335   -5.6810 C   0  0  1  0  0  0  0  0  0  0  0  0
   19.8332   70.4647   -4.1808 C   0  0  1  0  0  0  0  0  0  0  0  0
   17.6131   69.6151   -4.3073 C   0  0  1  0  0  0  0  0  0  0  0  0
   18.7826   72.5356   -7.4887 H   0  0  0  0  0  0  0  0  0  0  0  0
   20.5177   72.5980   -6.5443 H   0  0  0  0  0  0  0  0  0  0  0  0
   15.8457   71.0657   -6.6203 H   0  0  0  0  0  0  0  0  0  0  0  0
   17.6360   67.4765   -3.3444 O   0  0  0  0  0  0  0  0  0  0  0  0
   15.9502   67.9401   -4.8079 O   0  0  0  0  0  0  0  0  0  0  0  0
   16.9584   68.2760   -4.2050 C   0  0  0  0  0  0  0  0  0  0  0  0
  1  4  1  0
  1 24  1  0
  1  2  1  1
  1  3  2  0
 25 28  1  0
 25 24  1  0
 25 26  1  6
 25 27  2  0
  6 11  1  0
  6 12  1  0
 29 36  1  0
 29 37  1  0
  9  7  1  1
  7 13  1  0
 10  8  1  1
  8 14  1  0
  4  5  1  0
 36 28  1  1
 33 30  1  6
 30 38  1  0
 34 31  1  1
 31 39  1  0
 35 32  1  1
 32 40  1  0
 41 43  1  0
 15 19  2  0
 42 43  2  0
 16 22  2  0
 12 17  1  6
 17 19  1  0
 17 20  1  0
 18 19  1  0
 18 22  1  0
 18 23  1  0
  9 10  1  0
  9 11  1  0
 10 12  1  0
 11  5  1  6
 33 34  1  0
 33 35  1  0
 34 36  1  0
 35 37  1  0
 37 43  1  6
 20 21  2  0
 21 22  1  0
M  CHG  3   2  -1  26  -1  41  -1
M  END
>  <COMPND>  (144) 
    udp_gluA.pdb 

>  <AUTHOR>  (144) 
    GENERATED BY OPEN BABEL 3.1.1

>  <MASTER>  (144) 
        0    0    0    0    0    0    0    0   56    0   56    0

>  <minimizedAffinity>  (144) 
-9.09769

>  <CNNscore>  (144) 
0.6926237345

>  <CNNaffinity>  (144) 
4.7054824829

>  <CNN_VS>  (144) 
3.2591288090

>  <CNNaffinity_variance>  (144) 
0.1328668147

$$$$
145
     RDKit          3D

 43 45  0  0  0  0  0  0  0  0999 V2000
   20.5529   71.1667    0.5356 P   0  0  2  0  0  0  0  0  0  0  0  0
   21.1943   72.2355   -0.4964 O   0  0  0  0  0  0  0  0  0  0  0  0
   19.7794   71.7686    1.6718 O   0  0  0  0  0  0  0  0  0  0  0  0
   21.8053   70.2322    0.9553 O   0  0  0  0  0  0  0  0  0  0  0  0
   22.9748   70.8537    1.4557 C   0  0  0  0  0  0  0  0  0  0  0  0
   24.8553   69.7311    2.4463 O   0  0  0  0  0  0  0  0  0  0  0  0
   23.3892   69.9704    5.0511 O   0  0  0  0  0  0  0  0  0  0  0  0
   25.2097   71.9948    5.2039 O   0  0  0  0  0  0  0  0  0  0  0  0
   23.4419   70.8856    3.9564 C   0  0  1  0  0  0  0  0  0  0  0  0
   24.7847   71.5840    3.9213 C   0  0  2  0  0  0  0  0  0  0  0  0
   23.4704   70.0752    2.6677 C   0  0  1  0  0  0  0  0  0  0  0  0
   25.6814   70.5135    3.3232 C   0  0  2  0  0  0  0  0  0  0  0  0
   23.3701   70.4650    5.8858 H   0  0  0  0  0  0  0  0  0  0  0  0
   24.6070   72.6767    5.5412 H   0  0  0  0  0  0  0  0  0  0  0  0
   25.5438   72.9319    1.8709 O   0  0  0  0  0  0  0  0  0  0  0  0
   29.9157   72.5473    0.4627 O   0  0  0  0  0  0  0  0  0  0  0  0
   26.7689   71.0686    2.5681 N   0  0  0  0  0  0  0  0  0  0  0  0
   27.7211   72.7375    1.1701 N   0  0  0  0  0  0  0  0  0  0  0  0
   26.5956   72.2894    1.8740 C   0  0  0  0  0  0  0  0  0  0  0  0
   27.9900   70.4071    2.5218 C   0  0  0  0  0  0  0  0  0  0  0  0
   29.0538   70.8467    1.8466 C   0  0  0  0  0  0  0  0  0  0  0  0
   28.9562   72.1144    1.0937 C   0  0  0  0  0  0  0  0  0  0  0  0
   27.6240   73.5843    0.6773 H   0  0  0  0  0  0  0  0  0  0  0  0
   19.6881   70.2025   -0.4316 O   0  0  0  0  0  0  0  0  0  0  0  0
   18.4102   70.5125   -1.3721 P   0  0  2  0  0  0  0  0  0  0  0  0
   17.5342   71.5398   -0.4789 O   0  0  0  0  0  0  0  0  0  0  0  0
   17.6631   69.2893   -1.8188 O   0  0  0  0  0  0  0  0  0  0  0  0
   18.9960   71.4153   -2.5739 O   0  0  0  0  0  0  0  0  0  0  0  0
   18.7658   71.5179   -4.9288 O   0  0  0  0  0  0  0  0  0  0  0  0
   22.8470   71.9591   -4.4630 O   0  0  0  0  0  0  0  0  0  0  0  0
   21.3765   70.0063   -2.8634 O   0  0  0  0  0  0  0  0  0  0  0  0
   21.1945   74.2623   -5.1071 O   0  0  0  0  0  0  0  0  0  0  0  0
   21.4724   72.0907   -4.1012 C   0  0  2  0  0  0  0  0  0  0  0  0
   20.8397   70.7040   -3.9812 C   0  0  2  0  0  0  0  0  0  0  0  0
   20.7717   72.9028   -5.1928 C   0  0  1  0  0  0  0  0  0  0  0  0
   19.3222   70.8070   -3.8222 C   0  0  1  0  0  0  0  0  0  0  0  0
   19.2546   72.8530   -5.0371 C   0  0  1  0  0  0  0  0  0  0  0  0
   23.3127   71.4463   -3.7837 H   0  0  0  0  0  0  0  0  0  0  0  0
   22.3392   69.9376   -2.9576 H   0  0  0  0  0  0  0  0  0  0  0  0
   22.1584   74.3080   -5.2046 H   0  0  0  0  0  0  0  0  0  0  0  0
   18.4956   74.7124   -6.2487 O   0  0  0  0  0  0  0  0  0  0  0  0
   18.1562   72.6573   -7.1764 O   0  0  0  0  0  0  0  0  0  0  0  0
   18.5779   73.3590   -6.2693 C   0  0  0  0  0  0  0  0  0  0  0  0
  1  4  1  0
  1 24  1  0
  1  2  1  6
  1  3  2  0
 25 28  1  0
 25 24  1  0
 25 26  1  1
 25 27  2  0
  6 11  1  0
  6 12  1  0
 29 36  1  0
 29 37  1  0
  9  7  1  1
  7 13  1  0
 10  8  1  1
  8 14  1  0
  4  5  1  0
 36 28  1  1
 33 30  1  6
 30 38  1  0
 34 31  1  1
 31 39  1  0
 35 32  1  1
 32 40  1  0
 41 43  1  0
 15 19  2  0
 42 43  2  0
 16 22  2  0
 12 17  1  6
 17 19  1  0
 17 20  1  0
 18 19  1  0
 18 22  1  0
 18 23  1  0
  9 10  1  0
  9 11  1  0
 10 12  1  0
 11  5  1  6
 33 34  1  0
 33 35  1  0
 34 36  1  0
 35 37  1  0
 37 43  1  6
 20 21  2  0
 21 22  1  0
M  CHG  3   2  -1  26  -1  41  -1
M  END
>  <COMPND>  (145) 
    udp_gluA.pdb 

>  <AUTHOR>  (145) 
    GENERATED BY OPEN BABEL 3.1.1

>  <MASTER>  (145) 
        0    0    0    0    0    0    0    0   56    0   56    0

>  <minimizedAffinity>  (145) 
-8.58227

>  <CNNscore>  (145) 
0.6816295981

>  <CNNaffinity>  (145) 
4.5863776207

>  <CNN_VS>  (145) 
3.1262106895

>  <CNNaffinity_variance>  (145) 
0.2810668349

$$$$
146
     RDKit          3D

 43 45  0  0  0  0  0  0  0  0999 V2000
   22.5206   71.3042   -2.7939 P   0  0  2  0  0  0  0  0  0  0  0  0
   22.6302   72.2670   -1.4979 O   0  0  0  0  0  0  0  0  0  0  0  0
   23.5598   71.5424   -3.8499 O   0  0  0  0  0  0  0  0  0  0  0  0
   20.9833   71.4687   -3.2712 O   0  0  0  0  0  0  0  0  0  0  0  0
   20.0423   70.4899   -2.8698 C   0  0  0  0  0  0  0  0  0  0  0  0
   18.4728   71.7936   -4.1405 O   0  0  0  0  0  0  0  0  0  0  0  0
   16.3687   70.7178   -2.2946 O   0  0  0  0  0  0  0  0  0  0  0  0
   16.0563   69.1723   -4.5194 O   0  0  0  0  0  0  0  0  0  0  0  0
   17.5333   70.0730   -2.8108 C   0  0  1  0  0  0  0  0  0  0  0  0
   17.3338   69.7200   -4.2695 C   0  0  2  0  0  0  0  0  0  0  0  0
   18.6493   71.1062   -2.8828 C   0  0  1  0  0  0  0  0  0  0  0  0
   17.5375   71.0630   -4.9498 C   0  0  2  0  0  0  0  0  0  0  0  0
   15.6418   70.0773   -2.2394 H   0  0  0  0  0  0  0  0  0  0  0  0
   15.9762   68.3183   -4.0653 H   0  0  0  0  0  0  0  0  0  0  0  0
   15.9766   70.6110   -7.2596 O   0  0  0  0  0  0  0  0  0  0  0  0
   19.6930   70.5704   -9.9855 O   0  0  0  0  0  0  0  0  0  0  0  0
   18.0714   70.9304   -6.2757 N   0  0  0  0  0  0  0  0  0  0  0  0
   17.8291   70.5902   -8.6149 N   0  0  0  0  0  0  0  0  0  0  0  0
   17.2007   70.7047   -7.3679 C   0  0  0  0  0  0  0  0  0  0  0  0
   19.4420   71.0255   -6.4843 C   0  0  0  0  0  0  0  0  0  0  0  0
   20.0263   70.9143   -7.6788 C   0  0  0  0  0  0  0  0  0  0  0  0
   19.1878   70.6769   -8.8721 C   0  0  0  0  0  0  0  0  0  0  0  0
   17.2436   70.4308   -9.3902 H   0  0  0  0  0  0  0  0  0  0  0  0
   22.5440   69.8225   -2.1482 O   0  0  0  0  0  0  0  0  0  0  0  0
   23.7038   69.0329   -1.3450 P   0  0  2  0  0  0  0  0  0  0  0  0
   24.9953   69.1934   -2.3076 O   0  0  0  0  0  0  0  0  0  0  0  0
   23.3590   67.6119   -1.0046 O   0  0  0  0  0  0  0  0  0  0  0  0
   24.0275   69.9671   -0.0703 O   0  0  0  0  0  0  0  0  0  0  0  0
   24.5612   69.6167    2.2104 O   0  0  0  0  0  0  0  0  0  0  0  0
   21.8827   72.7533    2.4461 O   0  0  0  0  0  0  0  0  0  0  0  0
   21.3924   70.5208    0.6267 O   0  0  0  0  0  0  0  0  0  0  0  0
   24.7288   73.2358    2.7897 O   0  0  0  0  0  0  0  0  0  0  0  0
   22.9116   71.9598    1.8546 C   0  0  2  0  0  0  0  0  0  0  0  0
   22.3975   70.5370    1.6339 C   0  0  2  0  0  0  0  0  0  0  0  0
   24.1091   71.9513    2.8074 C   0  0  1  0  0  0  0  0  0  0  0  0
   23.5346   69.6028    1.2178 C   0  0  1  0  0  0  0  0  0  0  0  0
   25.1415   70.9059    2.3952 C   0  0  1  0  0  0  0  0  0  0  0  0
   21.1112   72.7732    1.8583 H   0  0  0  0  0  0  0  0  0  0  0  0
   20.6679   71.1117    0.8841 H   0  0  0  0  0  0  0  0  0  0  0  0
   24.0822   73.9104    3.0500 H   0  0  0  0  0  0  0  0  0  0  0  0
   26.7650   69.4892    3.3218 O   0  0  0  0  0  0  0  0  0  0  0  0
   26.3435   71.4443    4.4168 O   0  0  0  0  0  0  0  0  0  0  0  0
   26.1295   70.6750    3.4919 C   0  0  0  0  0  0  0  0  0  0  0  0
  1  4  1  0
  1 24  1  0
  1  2  1  1
  1  3  2  0
 25 28  1  0
 25 24  1  0
 25 26  1  6
 25 27  2  0
  6 11  1  0
  6 12  1  0
 29 36  1  0
 29 37  1  0
  9  7  1  6
  7 13  1  0
 10  8  1  1
  8 14  1  0
  4  5  1  0
 36 28  1  6
 33 30  1  1
 30 38  1  0
 34 31  1  6
 31 39  1  0
 35 32  1  6
 32 40  1  0
 41 43  1  0
 15 19  2  0
 42 43  2  0
 16 22  2  0
 12 17  1  6
 17 19  1  0
 17 20  1  0
 18 19  1  0
 18 22  1  0
 18 23  1  0
  9 10  1  0
  9 11  1  0
 10 12  1  0
 11  5  1  6
 33 34  1  0
 33 35  1  0
 34 36  1  0
 35 37  1  0
 37 43  1  1
 20 21  2  0
 21 22  1  0
M  CHG  3   2  -1  26  -1  41  -1
M  END
>  <COMPND>  (146) 
    udp_gluA.pdb 

>  <AUTHOR>  (146) 
    GENERATED BY OPEN BABEL 3.1.1

>  <MASTER>  (146) 
        0    0    0    0    0    0    0    0   56    0   56    0

>  <minimizedAffinity>  (146) 
-9.21030

>  <CNNscore>  (146) 
0.6546283364

>  <CNNaffinity>  (146) 
4.7541112900

>  <CNN_VS>  (146) 
3.1121759415

>  <CNNaffinity_variance>  (146) 
0.0855890214

$$$$
147
     RDKit          3D

 43 45  0  0  0  0  0  0  0  0999 V2000
   22.4934   71.3276   -2.7639 P   0  0  2  0  0  0  0  0  0  0  0  0
   22.5928   72.2444   -1.4341 O   0  0  0  0  0  0  0  0  0  0  0  0
   23.5283   71.6165   -3.8114 O   0  0  0  0  0  0  0  0  0  0  0  0
   20.9537   71.4904   -3.2338 O   0  0  0  0  0  0  0  0  0  0  0  0
   20.0253   70.4862   -2.8675 C   0  0  0  0  0  0  0  0  0  0  0  0
   18.4351   71.7701   -4.1327 O   0  0  0  0  0  0  0  0  0  0  0  0
   16.3483   70.6517   -2.2927 O   0  0  0  0  0  0  0  0  0  0  0  0
   16.0617   69.1118   -4.5249 O   0  0  0  0  0  0  0  0  0  0  0  0
   17.5233   70.0283   -2.8115 C   0  0  1  0  0  0  0  0  0  0  0  0
   17.3301   69.6790   -4.2719 C   0  0  2  0  0  0  0  0  0  0  0  0
   18.6225   71.0798   -2.8782 C   0  0  1  0  0  0  0  0  0  0  0  0
   17.5121   71.0283   -4.9457 C   0  0  2  0  0  0  0  0  0  0  0  0
   15.6318   69.9992   -2.2408 H   0  0  0  0  0  0  0  0  0  0  0  0
   15.9953   68.2544   -4.0748 H   0  0  0  0  0  0  0  0  0  0  0  0
   15.9562   70.5947   -7.2626 O   0  0  0  0  0  0  0  0  0  0  0  0
   19.6771   70.5927   -9.9827 O   0  0  0  0  0  0  0  0  0  0  0  0
   18.0485   70.9106   -6.2721 N   0  0  0  0  0  0  0  0  0  0  0  0
   17.8110   70.5931   -8.6150 N   0  0  0  0  0  0  0  0  0  0  0  0
   17.1802   70.6932   -7.3679 C   0  0  0  0  0  0  0  0  0  0  0  0
   19.4191   71.0119   -6.4775 C   0  0  0  0  0  0  0  0  0  0  0  0
   20.0057   70.9146   -7.6721 C   0  0  0  0  0  0  0  0  0  0  0  0
   19.1698   70.6866   -8.8691 C   0  0  0  0  0  0  0  0  0  0  0  0
   17.2272   70.4397   -9.3928 H   0  0  0  0  0  0  0  0  0  0  0  0
   22.5357   69.8240   -2.1722 O   0  0  0  0  0  0  0  0  0  0  0  0
   23.6942   69.0312   -1.3702 P   0  0  2  0  0  0  0  0  0  0  0  0
   24.9907   69.2074   -2.3232 O   0  0  0  0  0  0  0  0  0  0  0  0
   23.3537   67.6052   -1.0467 O   0  0  0  0  0  0  0  0  0  0  0  0
   24.0060   69.9535   -0.0839 O   0  0  0  0  0  0  0  0  0  0  0  0
   24.5299   69.6006    2.1987 O   0  0  0  0  0  0  0  0  0  0  0  0
   21.7832   72.6778    2.4325 O   0  0  0  0  0  0  0  0  0  0  0  0
   21.3545   70.4466    0.5962 O   0  0  0  0  0  0  0  0  0  0  0  0
   24.6156   73.2189    2.8008 O   0  0  0  0  0  0  0  0  0  0  0  0
   22.8332   71.9102    1.8442 C   0  0  2  0  0  0  0  0  0  0  0  0
   22.3514   70.4780    1.6111 C   0  0  2  0  0  0  0  0  0  0  0  0
   24.0234   71.9213    2.8061 C   0  0  1  0  0  0  0  0  0  0  0  0
   23.5113   69.5709    1.1982 C   0  0  1  0  0  0  0  0  0  0  0  0
   25.0810   70.9008    2.3956 C   0  0  1  0  0  0  0  0  0  0  0  0
   21.0159   72.6849    1.8389 H   0  0  0  0  0  0  0  0  0  0  0  0
   20.6156   71.0203    0.8515 H   0  0  0  0  0  0  0  0  0  0  0  0
   23.9529   73.8779    3.0601 H   0  0  0  0  0  0  0  0  0  0  0  0
   26.7486   69.5281    3.3102 O   0  0  0  0  0  0  0  0  0  0  0  0
   26.2393   71.4408    4.4422 O   0  0  0  0  0  0  0  0  0  0  0  0
   26.0655   70.6843    3.4985 C   0  0  0  0  0  0  0  0  0  0  0  0
  1  4  1  0
  1 24  1  0
  1  2  1  1
  1  3  2  0
 25 28  1  0
 25 24  1  0
 25 26  1  6
 25 27  2  0
  6 11  1  0
  6 12  1  0
 29 36  1  0
 29 37  1  0
  9  7  1  6
  7 13  1  0
 10  8  1  1
  8 14  1  0
  4  5  1  0
 36 28  1  6
 33 30  1  1
 30 38  1  0
 34 31  1  6
 31 39  1  0
 35 32  1  6
 32 40  1  0
 41 43  1  0
 15 19  2  0
 42 43  2  0
 16 22  2  0
 12 17  1  6
 17 19  1  0
 17 20  1  0
 18 19  1  0
 18 22  1  0
 18 23  1  0
  9 10  1  0
  9 11  1  0
 10 12  1  0
 11  5  1  6
 33 34  1  0
 33 35  1  0
 34 36  1  0
 35 37  1  0
 37 43  1  1
 20 21  2  0
 21 22  1  0
M  CHG  3   2  -1  26  -1  41  -1
M  END
>  <COMPND>  (147) 
    udp_gluA.pdb 

>  <AUTHOR>  (147) 
    GENERATED BY OPEN BABEL 3.1.1

>  <MASTER>  (147) 
        0    0    0    0    0    0    0    0   56    0   56    0

>  <minimizedAffinity>  (147) 
-8.91539

>  <CNNscore>  (147) 
0.6502264738

>  <CNNaffinity>  (147) 
4.8300757408

>  <CNN_VS>  (147) 
3.1406431198

>  <CNNaffinity_variance>  (147) 
0.1105858311

$$$$
148
     RDKit          3D

 43 45  0  0  0  0  0  0  0  0999 V2000
   22.2396   69.5627   -0.3768 P   0  0  2  0  0  0  0  0  0  0  0  0
   21.0937   69.2092    0.7099 O   0  0  0  0  0  0  0  0  0  0  0  0
   23.0307   68.3864   -0.8688 O   0  0  0  0  0  0  0  0  0  0  0  0
   23.0961   70.7392    0.3304 O   0  0  0  0  0  0  0  0  0  0  0  0
   24.2461   70.3838    1.0758 C   0  0  0  0  0  0  0  0  0  0  0  0
   25.0861   70.0502    3.3031 O   0  0  0  0  0  0  0  0  0  0  0  0
   22.6037   71.4420    4.2476 O   0  0  0  0  0  0  0  0  0  0  0  0
   24.4883   73.4056    4.4158 O   0  0  0  0  0  0  0  0  0  0  0  0
   23.3924   71.6917    3.0840 C   0  0  1  0  0  0  0  0  0  0  0  0
   24.6860   72.3799    3.4654 C   0  0  2  0  0  0  0  0  0  0  0  0
   23.8878   70.3523    2.5560 C   0  0  1  0  0  0  0  0  0  0  0  0
   25.5077   71.2255    4.0132 C   0  0  2  0  0  0  0  0  0  0  0  0
   22.2759   72.2834    4.6031 H   0  0  0  0  0  0  0  0  0  0  0  0
   23.9604   74.1168    4.0189 H   0  0  0  0  0  0  0  0  0  0  0  0
   27.1017   73.0372    5.4806 O   0  0  0  0  0  0  0  0  0  0  0  0
   30.9035   71.8578    3.1569 O   0  0  0  0  0  0  0  0  0  0  0  0
   26.9168   71.4120    3.8123 N   0  0  0  0  0  0  0  0  0  0  0  0
   28.9935   72.4488    4.3212 N   0  0  0  0  0  0  0  0  0  0  0  0
   27.6247   72.3480    4.6029 C   0  0  0  0  0  0  0  0  0  0  0  0
   27.5832   70.6720    2.8432 C   0  0  0  0  0  0  0  0  0  0  0  0
   28.8883   70.7790    2.5863 C   0  0  0  0  0  0  0  0  0  0  0  0
   29.7006   71.7349    3.3672 C   0  0  0  0  0  0  0  0  0  0  0  0
   29.5070   73.0954    4.8573 H   0  0  0  0  0  0  0  0  0  0  0  0
   21.4195   70.3505   -1.5256 O   0  0  0  0  0  0  0  0  0  0  0  0
   19.9339   70.9883   -1.5212 P   0  0  2  0  0  0  0  0  0  0  0  0
   20.1482   72.4202   -0.7974 O   0  0  0  0  0  0  0  0  0  0  0  0
   18.8927   70.1194   -0.8771 O   0  0  0  0  0  0  0  0  0  0  0  0
   19.6403   71.3524   -3.0652 O   0  0  0  0  0  0  0  0  0  0  0  0
   19.0496   69.2743   -4.0357 O   0  0  0  0  0  0  0  0  0  0  0  0
   18.3450   71.8897   -7.1552 O   0  0  0  0  0  0  0  0  0  0  0  0
   20.7263   72.1804   -5.4882 O   0  0  0  0  0  0  0  0  0  0  0  0
   16.1196   70.7893   -5.6427 O   0  0  0  0  0  0  0  0  0  0  0  0
   18.4229   71.4810   -5.7896 C   0  0  2  0  0  0  0  0  0  0  0  0
   19.8548   71.0559   -5.4635 C   0  0  2  0  0  0  0  0  0  0  0  0
   17.4611   70.3072   -5.5917 C   0  0  1  0  0  0  0  0  0  0  0  0
   19.9297   70.3980   -4.0850 C   0  0  1  0  0  0  0  0  0  0  0  0
   17.6836   69.6258   -4.2446 C   0  0  1  0  0  0  0  0  0  0  0  0
   18.9480   72.6348   -7.3048 H   0  0  0  0  0  0  0  0  0  0  0  0
   20.6837   72.6030   -6.3599 H   0  0  0  0  0  0  0  0  0  0  0  0
   15.9650   71.2255   -6.4952 H   0  0  0  0  0  0  0  0  0  0  0  0
   17.6527   67.4411   -3.3915 O   0  0  0  0  0  0  0  0  0  0  0  0
   15.9562   68.0337   -4.7950 O   0  0  0  0  0  0  0  0  0  0  0  0
   16.9864   68.3052   -4.1966 C   0  0  0  0  0  0  0  0  0  0  0  0
  1  4  1  0
  1 24  1  0
  1  2  1  1
  1  3  2  0
 25 28  1  0
 25 24  1  0
 25 26  1  1
 25 27  2  0
  6 11  1  0
  6 12  1  0
 29 36  1  0
 29 37  1  0
  9  7  1  1
  7 13  1  0
 10  8  1  1
  8 14  1  0
  4  5  1  0
 36 28  1  1
 33 30  1  6
 30 38  1  0
 34 31  1  1
 31 39  1  0
 35 32  1  1
 32 40  1  0
 41 43  1  0
 15 19  2  0
 42 43  2  0
 16 22  2  0
 12 17  1  6
 17 19  1  0
 17 20  1  0
 18 19  1  0
 18 22  1  0
 18 23  1  0
  9 10  1  0
  9 11  1  0
 10 12  1  0
 11  5  1  6
 33 34  1  0
 33 35  1  0
 34 36  1  0
 35 37  1  0
 37 43  1  6
 20 21  2  0
 21 22  1  0
M  CHG  3   2  -1  26  -1  41  -1
M  END
>  <COMPND>  (148) 
    udp_gluA.pdb 

>  <AUTHOR>  (148) 
    GENERATED BY OPEN BABEL 3.1.1

>  <MASTER>  (148) 
        0    0    0    0    0    0    0    0   56    0   56    0

>  <minimizedAffinity>  (148) 
-9.73428

>  <CNNscore>  (148) 
0.6441930532

>  <CNNaffinity>  (148) 
4.7576851845

>  <CNN_VS>  (148) 
3.0648677349

>  <CNNaffinity_variance>  (148) 
0.0609963350

$$$$
149
     RDKit          3D

 43 45  0  0  0  0  0  0  0  0999 V2000
   20.6644   70.8292    0.5049 P   0  0  2  0  0  0  0  0  0  0  0  0
   19.6465   71.5212    1.5556 O   0  0  0  0  0  0  0  0  0  0  0  0
   20.7689   69.3362    0.6135 O   0  0  0  0  0  0  0  0  0  0  0  0
   22.0460   71.6468    0.7066 O   0  0  0  0  0  0  0  0  0  0  0  0
   23.1225   71.0035    1.3638 C   0  0  0  0  0  0  0  0  0  0  0  0
   24.0590   70.5274    3.5257 O   0  0  0  0  0  0  0  0  0  0  0  0
   21.9727   72.3761    4.6306 O   0  0  0  0  0  0  0  0  0  0  0  0
   24.2055   73.9414    4.6107 O   0  0  0  0  0  0  0  0  0  0  0  0
   22.6987   72.4627    3.4043 C   0  0  1  0  0  0  0  0  0  0  0  0
   24.1264   72.8913    3.6696 C   0  0  2  0  0  0  0  0  0  0  0  0
   22.8847   71.0500    2.8676 C   0  0  1  0  0  0  0  0  0  0  0  0
   24.7533   71.6036    4.1761 C   0  0  2  0  0  0  0  0  0  0  0  0
   21.8415   73.2668    4.9927 H   0  0  0  0  0  0  0  0  0  0  0  0
   23.7933   74.7385    4.2411 H   0  0  0  0  0  0  0  0  0  0  0  0
   26.8151   72.7204    5.7503 O   0  0  0  0  0  0  0  0  0  0  0  0
   30.0820   71.1997    2.8765 O   0  0  0  0  0  0  0  0  0  0  0  0
   26.1514   71.5144    3.8626 N   0  0  0  0  0  0  0  0  0  0  0  0
   28.4402   71.9628    4.3170 N   0  0  0  0  0  0  0  0  0  0  0  0
   27.1064   72.1104    4.7198 C   0  0  0  0  0  0  0  0  0  0  0  0
   26.5641   70.8416    2.7190 C   0  0  0  0  0  0  0  0  0  0  0  0
   27.8392   70.7091    2.3482 C   0  0  0  0  0  0  0  0  0  0  0  0
   28.8995   71.3035    3.1883 C   0  0  0  0  0  0  0  0  0  0  0  0
   29.1231   72.3711    4.8968 H   0  0  0  0  0  0  0  0  0  0  0  0
   20.1306   71.3647   -0.9238 O   0  0  0  0  0  0  0  0  0  0  0  0
   18.7509   71.0785   -1.7165 P   0  0  2  0  0  0  0  0  0  0  0  0
   17.7340   72.1747   -1.0966 O   0  0  0  0  0  0  0  0  0  0  0  0
   18.2669   69.6607   -1.6180 O   0  0  0  0  0  0  0  0  0  0  0  0
   19.0304   71.5875   -3.2215 O   0  0  0  0  0  0  0  0  0  0  0  0
   18.2172   70.3362   -5.0605 O   0  0  0  0  0  0  0  0  0  0  0  0
   21.0674   72.7231   -6.8625 O   0  0  0  0  0  0  0  0  0  0  0  0
   21.6017   71.4745   -4.2759 O   0  0  0  0  0  0  0  0  0  0  0  0
   18.2422   73.3278   -7.1846 O   0  0  0  0  0  0  0  0  0  0  0  0
   20.0588   72.3926   -5.9077 C   0  0  2  0  0  0  0  0  0  0  0  0
   20.4923   71.1622   -5.1104 C   0  0  2  0  0  0  0  0  0  0  0  0
   18.7631   72.1041   -6.6692 C   0  0  1  0  0  0  0  0  0  0  0  0
   19.3465   70.6417   -4.2415 C   0  0  1  0  0  0  0  0  0  0  0  0
   17.7127   71.4708   -5.7614 C   0  0  1  0  0  0  0  0  0  0  0  0
   21.9002   72.9104   -6.4015 H   0  0  0  0  0  0  0  0  0  0  0  0
   22.3324   71.8057   -4.8207 H   0  0  0  0  0  0  0  0  0  0  0  0
   18.9012   73.7411   -7.7640 H   0  0  0  0  0  0  0  0  0  0  0  0
   15.9812   71.8645   -7.2939 O   0  0  0  0  0  0  0  0  0  0  0  0
   16.2666   69.7194   -6.5756 O   0  0  0  0  0  0  0  0  0  0  0  0
   16.5924   70.8970   -6.5663 C   0  0  0  0  0  0  0  0  0  0  0  0
  1  4  1  0
  1 24  1  0
  1  2  1  1
  1  3  2  0
 25 28  1  0
 25 24  1  0
 25 26  1  1
 25 27  2  0
  6 11  1  0
  6 12  1  0
 29 36  1  0
 29 37  1  0
  9  7  1  1
  7 13  1  0
 10  8  1  1
  8 14  1  0
  4  5  1  0
 36 28  1  1
 33 30  1  6
 30 38  1  0
 34 31  1  1
 31 39  1  0
 35 32  1  1
 32 40  1  0
 41 43  1  0
 15 19  2  0
 42 43  2  0
 16 22  2  0
 12 17  1  6
 17 19  1  0
 17 20  1  0
 18 19  1  0
 18 22  1  0
 18 23  1  0
  9 10  1  0
  9 11  1  0
 10 12  1  0
 11  5  1  6
 33 34  1  0
 33 35  1  0
 34 36  1  0
 35 37  1  0
 37 43  1  6
 20 21  2  0
 21 22  1  0
M  CHG  3   2  -1  26  -1  41  -1
M  END
>  <COMPND>  (149) 
    udp_gluA.pdb 

>  <AUTHOR>  (149) 
    GENERATED BY OPEN BABEL 3.1.1

>  <MASTER>  (149) 
        0    0    0    0    0    0    0    0   56    0   56    0

>  <minimizedAffinity>  (149) 
-8.66722

>  <CNNscore>  (149) 
0.6279541254

>  <CNNaffinity>  (149) 
4.5111927986

>  <CNN_VS>  (149) 
2.8328220844

>  <CNNaffinity_variance>  (149) 
0.1384475529

$$$$
150
     RDKit          3D

 43 45  0  0  0  0  0  0  0  0999 V2000
   22.8037   70.3514   -2.3874 P   0  0  2  0  0  0  0  0  0  0  0  0
   23.1001   68.7608   -2.3543 O   0  0  0  0  0  0  0  0  0  0  0  0
   23.5437   71.1119   -3.4484 O   0  0  0  0  0  0  0  0  0  0  0  0
   23.0719   70.8284   -0.8647 O   0  0  0  0  0  0  0  0  0  0  0  0
   23.7529   69.9474    0.0097 C   0  0  0  0  0  0  0  0  0  0  0  0
   23.9757   69.6165    2.3800 O   0  0  0  0  0  0  0  0  0  0  0  0
   21.3042   70.9551    2.6301 O   0  0  0  0  0  0  0  0  0  0  0  0
   23.0365   72.9532    3.2957 O   0  0  0  0  0  0  0  0  0  0  0  0
   22.3693   71.2268    1.7188 C   0  0  1  0  0  0  0  0  0  0  0  0
   23.5005   71.9371    2.4316 C   0  0  2  0  0  0  0  0  0  0  0  0
   23.0140   69.9002    1.3409 C   0  0  1  0  0  0  0  0  0  0  0  0
   24.1694   70.7953    3.1777 C   0  0  2  0  0  0  0  0  0  0  0  0
   20.8769   71.7879    2.8860 H   0  0  0  0  0  0  0  0  0  0  0  0
   22.6193   73.6565    2.7730 H   0  0  0  0  0  0  0  0  0  0  0  0
   25.3018   72.1868    5.3590 O   0  0  0  0  0  0  0  0  0  0  0  0
   29.5835   71.5578    3.7730 O   0  0  0  0  0  0  0  0  0  0  0  0
   25.5772   71.0098    3.3597 N   0  0  0  0  0  0  0  0  0  0  0  0
   27.4332   71.8730    4.5665 N   0  0  0  0  0  0  0  0  0  0  0  0
   26.0423   71.7221    4.4903 C   0  0  0  0  0  0  0  0  0  0  0  0
   26.4804   70.5161    2.4261 C   0  0  0  0  0  0  0  0  0  0  0  0
   27.8033   70.6678    2.5124 C   0  0  0  0  0  0  0  0  0  0  0  0
   28.3713   71.4007    3.6629 C   0  0  0  0  0  0  0  0  0  0  0  0
   27.7806   72.3673    5.3438 H   0  0  0  0  0  0  0  0  0  0  0  0
   21.1933   70.4179   -2.5106 O   0  0  0  0  0  0  0  0  0  0  0  0
   20.1834   71.6796   -2.5545 P   0  0  2  0  0  0  0  0  0  0  0  0
   21.1554   72.9417   -2.2671 O   0  0  0  0  0  0  0  0  0  0  0  0
   19.0187   71.5691   -1.6136 O   0  0  0  0  0  0  0  0  0  0  0  0
   19.7768   71.8245   -4.1089 O   0  0  0  0  0  0  0  0  0  0  0  0
   19.0709   69.6161   -4.5925 O   0  0  0  0  0  0  0  0  0  0  0  0
   17.8039   71.6585   -7.9528 O   0  0  0  0  0  0  0  0  0  0  0  0
   20.4253   72.2083   -6.7863 O   0  0  0  0  0  0  0  0  0  0  0  0
   15.8849   70.8608   -5.9201 O   0  0  0  0  0  0  0  0  0  0  0  0
   18.1174   71.4919   -6.5701 C   0  0  2  0  0  0  0  0  0  0  0  0
   19.5915   71.1145   -6.4214 C   0  0  2  0  0  0  0  0  0  0  0  0
   17.2247   70.3806   -6.0133 C   0  0  1  0  0  0  0  0  0  0  0  0
   19.9089   70.7047   -4.9826 C   0  0  1  0  0  0  0  0  0  0  0  0
   17.6828   69.9406   -4.6258 C   0  0  1  0  0  0  0  0  0  0  0  0
   18.3592   72.3599   -8.3282 H   0  0  0  0  0  0  0  0  0  0  0  0
   20.2290   72.4738   -7.6981 H   0  0  0  0  0  0  0  0  0  0  0  0
   15.5813   71.1442   -6.7966 H   0  0  0  0  0  0  0  0  0  0  0  0
   17.6568   68.1052   -3.1657 O   0  0  0  0  0  0  0  0  0  0  0  0
   16.0593   68.1635   -4.7916 O   0  0  0  0  0  0  0  0  0  0  0  0
   17.0285   68.6559   -4.2338 C   0  0  0  0  0  0  0  0  0  0  0  0
  1  4  1  0
  1 24  1  0
  1  2  1  1
  1  3  2  0
 25 28  1  0
 25 24  1  0
 25 26  1  1
 25 27  2  0
  6 11  1  0
  6 12  1  0
 29 36  1  0
 29 37  1  0
  9  7  1  1
  7 13  1  0
 10  8  1  1
  8 14  1  0
  4  5  1  0
 36 28  1  1
 33 30  1  6
 30 38  1  0
 34 31  1  1
 31 39  1  0
 35 32  1  1
 32 40  1  0
 41 43  1  0
 15 19  2  0
 42 43  2  0
 16 22  2  0
 12 17  1  6
 17 19  1  0
 17 20  1  0
 18 19  1  0
 18 22  1  0
 18 23  1  0
  9 10  1  0
  9 11  1  0
 10 12  1  0
 11  5  1  6
 33 34  1  0
 33 35  1  0
 34 36  1  0
 35 37  1  0
 37 43  1  6
 20 21  2  0
 21 22  1  0
M  CHG  3   2  -1  26  -1  41  -1
M  END
>  <COMPND>  (150) 
    udp_gluA.pdb 

>  <AUTHOR>  (150) 
    GENERATED BY OPEN BABEL 3.1.1

>  <MASTER>  (150) 
        0    0    0    0    0    0    0    0   56    0   56    0

>  <minimizedAffinity>  (150) 
-8.89418

>  <CNNscore>  (150) 
0.6108215451

>  <CNNaffinity>  (150) 
4.7485189438

>  <CNN_VS>  (150) 
2.9004976749

>  <CNNaffinity_variance>  (150) 
0.3899830580

$$$$
151
     RDKit          3D

 43 45  0  0  0  0  0  0  0  0999 V2000
   22.1771   70.0199    0.7663 P   0  0  2  0  0  0  0  0  0  0  0  0
   21.9179   71.3710    1.6185 O   0  0  0  0  0  0  0  0  0  0  0  0
   20.9838   69.1210    0.6255 O   0  0  0  0  0  0  0  0  0  0  0  0
   23.4753   69.3592    1.4708 O   0  0  0  0  0  0  0  0  0  0  0  0
   24.6101   70.1749    1.6974 C   0  0  0  0  0  0  0  0  0  0  0  0
   26.3121   70.1023    3.3932 O   0  0  0  0  0  0  0  0  0  0  0  0
   24.2824   71.3402    5.2206 O   0  0  0  0  0  0  0  0  0  0  0  0
   25.8340   73.4712    4.5227 O   0  0  0  0  0  0  0  0  0  0  0  0
   24.4981   71.5625    3.8268 C   0  0  1  0  0  0  0  0  0  0  0  0
   25.7467   72.3924    3.6155 C   0  0  2  0  0  0  0  0  0  0  0  0
   24.8879   70.2337    3.1940 C   0  0  1  0  0  0  0  0  0  0  0  0
   26.8467   71.3650    3.8211 C   0  0  2  0  0  0  0  0  0  0  0  0
   24.0321   72.1754    5.6467 H   0  0  0  0  0  0  0  0  0  0  0  0
   25.1126   74.0973    4.3509 H   0  0  0  0  0  0  0  0  0  0  0  0
   28.7684   73.3112    4.5255 O   0  0  0  0  0  0  0  0  0  0  0  0
   31.3173   72.4091    0.7927 O   0  0  0  0  0  0  0  0  0  0  0  0
   28.0222   71.6593    3.0513 N   0  0  0  0  0  0  0  0  0  0  0  0
   30.0355   72.8608    2.6651 N   0  0  0  0  0  0  0  0  0  0  0  0
   28.9240   72.6560    3.4932 C   0  0  0  0  0  0  0  0  0  0  0  0
   28.2729   70.9637    1.8748 C   0  0  0  0  0  0  0  0  0  0  0  0
   29.3368   71.1699    1.0961 C   0  0  0  0  0  0  0  0  0  0  0  0
   30.3275   72.1946    1.4859 C   0  0  0  0  0  0  0  0  0  0  0  0
   30.6765   73.5512    2.9511 H   0  0  0  0  0  0  0  0  0  0  0  0
   22.7671   70.5796   -0.6307 O   0  0  0  0  0  0  0  0  0  0  0  0
   22.7654   69.9404   -2.1156 P   0  0  2  0  0  0  0  0  0  0  0  0
   23.0390   68.3686   -1.8421 O   0  0  0  0  0  0  0  0  0  0  0  0
   23.7375   70.5816   -3.0631 O   0  0  0  0  0  0  0  0  0  0  0  0
   21.2247   70.0092   -2.5890 O   0  0  0  0  0  0  0  0  0  0  0  0
   20.5716   72.0600   -3.5773 O   0  0  0  0  0  0  0  0  0  0  0  0
   16.9314   70.1720   -3.0750 O   0  0  0  0  0  0  0  0  0  0  0  0
   18.9598   70.0602   -0.9755 O   0  0  0  0  0  0  0  0  0  0  0  0
   18.1431   70.3268   -5.7129 O   0  0  0  0  0  0  0  0  0  0  0  0
   18.3369   70.2505   -3.3126 C   0  0  2  0  0  0  0  0  0  0  0  0
   19.0223   70.9096   -2.1154 C   0  0  2  0  0  0  0  0  0  0  0  0
   18.5569   71.0839   -4.5771 C   0  0  1  0  0  0  0  0  0  0  0  0
   20.4874   71.2193   -2.4260 C   0  0  1  0  0  0  0  0  0  0  0  0
   20.0263   71.4579   -4.7491 C   0  0  1  0  0  0  0  0  0  0  0  0
   16.7672   69.6468   -2.2759 H   0  0  0  0  0  0  0  0  0  0  0  0
   18.0329   69.8594   -0.7729 H   0  0  0  0  0  0  0  0  0  0  0  0
   17.2095   70.0823   -5.6158 H   0  0  0  0  0  0  0  0  0  0  0  0
   19.0034   73.1561   -6.0027 O   0  0  0  0  0  0  0  0  0  0  0  0
   21.2298   72.8054   -6.3482 O   0  0  0  0  0  0  0  0  0  0  0  0
   20.1842   72.5274   -5.7804 C   0  0  0  0  0  0  0  0  0  0  0  0
  1  4  1  0
  1 24  1  0
  1  2  1  1
  1  3  2  0
 25 28  1  0
 25 24  1  0
 25 26  1  1
 25 27  2  0
  6 11  1  0
  6 12  1  0
 29 36  1  0
 29 37  1  0
  9  7  1  1
  7 13  1  0
 10  8  1  1
  8 14  1  0
  4  5  1  0
 36 28  1  6
 33 30  1  1
 30 38  1  0
 34 31  1  1
 31 39  1  0
 35 32  1  6
 32 40  1  0
 41 43  1  0
 15 19  2  0
 42 43  2  0
 16 22  2  0
 12 17  1  6
 17 19  1  0
 17 20  1  0
 18 19  1  0
 18 22  1  0
 18 23  1  0
  9 10  1  0
  9 11  1  0
 10 12  1  0
 11  5  1  6
 33 34  1  0
 33 35  1  0
 34 36  1  0
 35 37  1  0
 37 43  1  6
 20 21  2  0
 21 22  1  0
M  CHG  3   2  -1  26  -1  41  -1
M  END
>  <COMPND>  (151) 
    udp_gluA.pdb 

>  <AUTHOR>  (151) 
    GENERATED BY OPEN BABEL 3.1.1

>  <MASTER>  (151) 
        0    0    0    0    0    0    0    0   56    0   56    0

>  <minimizedAffinity>  (151) 
-8.75915

>  <CNNscore>  (151) 
0.5839902759

>  <CNNaffinity>  (151) 
4.7936215401

>  <CNN_VS>  (151) 
2.7994284630

>  <CNNaffinity_variance>  (151) 
0.0632868409

$$$$
152
     RDKit          3D

 43 45  0  0  0  0  0  0  0  0999 V2000
   21.1042   70.5017   -0.3896 P   0  0  2  0  0  0  0  0  0  0  0  0
   20.7611   69.2861    0.6220 O   0  0  0  0  0  0  0  0  0  0  0  0
   21.8327   70.1002   -1.6385 O   0  0  0  0  0  0  0  0  0  0  0  0
   21.8585   71.5849    0.5462 O   0  0  0  0  0  0  0  0  0  0  0  0
   23.0473   71.1947    1.2087 C   0  0  0  0  0  0  0  0  0  0  0  0
   23.9436   70.5637    3.3478 O   0  0  0  0  0  0  0  0  0  0  0  0
   21.8571   72.3556    4.5424 O   0  0  0  0  0  0  0  0  0  0  0  0
   24.1048   73.8949    4.6637 O   0  0  0  0  0  0  0  0  0  0  0  0
   22.6040   72.5172    3.3364 C   0  0  1  0  0  0  0  0  0  0  0  0
   24.0311   72.9117    3.6525 C   0  0  2  0  0  0  0  0  0  0  0  0
   22.7853   71.1421    2.7083 C   0  0  1  0  0  0  0  0  0  0  0  0
   24.6373   71.5861    4.0805 C   0  0  2  0  0  0  0  0  0  0  0  0
   21.7285   73.2211    4.9619 H   0  0  0  0  0  0  0  0  0  0  0  0
   23.7063   74.7195    4.3425 H   0  0  0  0  0  0  0  0  0  0  0  0
   26.6836   72.5721    5.7590 O   0  0  0  0  0  0  0  0  0  0  0  0
   29.9826   71.2143    2.8406 O   0  0  0  0  0  0  0  0  0  0  0  0
   26.0395   71.5034    3.7837 N   0  0  0  0  0  0  0  0  0  0  0  0
   28.3247   71.8958    4.3034 N   0  0  0  0  0  0  0  0  0  0  0  0
   26.9859   72.0300    4.6942 C   0  0  0  0  0  0  0  0  0  0  0  0
   26.4645   70.9051    2.6038 C   0  0  0  0  0  0  0  0  0  0  0  0
   27.7442   70.7844    2.2450 C   0  0  0  0  0  0  0  0  0  0  0  0
   28.7962   71.3093    3.1401 C   0  0  0  0  0  0  0  0  0  0  0  0
   29.0018   72.2567    4.9202 H   0  0  0  0  0  0  0  0  0  0  0  0
   19.6600   71.1825   -0.6419 O   0  0  0  0  0  0  0  0  0  0  0  0
   18.4695   70.7977   -1.6657 P   0  0  2  0  0  0  0  0  0  0  0  0
   17.2549   71.7608   -1.1993 O   0  0  0  0  0  0  0  0  0  0  0  0
   18.1259   69.3364   -1.6893 O   0  0  0  0  0  0  0  0  0  0  0  0
   18.9420   71.3974   -3.0868 O   0  0  0  0  0  0  0  0  0  0  0  0
   18.2140   70.2311   -5.0153 O   0  0  0  0  0  0  0  0  0  0  0  0
   21.0830   72.7522   -6.5905 O   0  0  0  0  0  0  0  0  0  0  0  0
   21.5495   71.3791   -4.0545 O   0  0  0  0  0  0  0  0  0  0  0  0
   18.2606   73.3292   -6.9804 O   0  0  0  0  0  0  0  0  0  0  0  0
   20.0480   72.3570   -5.6901 C   0  0  2  0  0  0  0  0  0  0  0  0
   20.4750   71.0936   -4.9425 C   0  0  2  0  0  0  0  0  0  0  0  0
   18.7844   72.0885   -6.5106 C   0  0  1  0  0  0  0  0  0  0  0  0
   19.3091   70.5110   -4.1424 C   0  0  1  0  0  0  0  0  0  0  0  0
   17.7145   71.3927   -5.6742 C   0  0  1  0  0  0  0  0  0  0  0  0
   21.8962   72.9281   -6.0915 H   0  0  0  0  0  0  0  0  0  0  0  0
   22.2927   71.7494   -4.5554 H   0  0  0  0  0  0  0  0  0  0  0  0
   18.9319   73.7823   -7.5141 H   0  0  0  0  0  0  0  0  0  0  0  0
   16.3168   69.5780   -6.1787 O   0  0  0  0  0  0  0  0  0  0  0  0
   16.0987   71.4479   -7.4652 O   0  0  0  0  0  0  0  0  0  0  0  0
   16.6325   70.8444   -6.5465 C   0  0  0  0  0  0  0  0  0  0  0  0
  1  4  1  0
  1 24  1  0
  1  2  1  1
  1  3  2  0
 25 28  1  0
 25 24  1  0
 25 26  1  1
 25 27  2  0
  6 11  1  0
  6 12  1  0
 29 36  1  0
 29 37  1  0
  9  7  1  1
  7 13  1  0
 10  8  1  1
  8 14  1  0
  4  5  1  0
 36 28  1  1
 33 30  1  6
 30 38  1  0
 34 31  1  1
 31 39  1  0
 35 32  1  1
 32 40  1  0
 41 43  1  0
 15 19  2  0
 42 43  2  0
 16 22  2  0
 12 17  1  6
 17 19  1  0
 17 20  1  0
 18 19  1  0
 18 22  1  0
 18 23  1  0
  9 10  1  0
  9 11  1  0
 10 12  1  0
 11  5  1  6
 33 34  1  0
 33 35  1  0
 34 36  1  0
 35 37  1  0
 37 43  1  6
 20 21  2  0
 21 22  1  0
M  CHG  3   2  -1  26  -1  41  -1
M  END
>  <COMPND>  (152) 
    udp_gluA.pdb 

>  <AUTHOR>  (152) 
    GENERATED BY OPEN BABEL 3.1.1

>  <MASTER>  (152) 
        0    0    0    0    0    0    0    0   56    0   56    0

>  <minimizedAffinity>  (152) 
-8.85316

>  <CNNscore>  (152) 
0.5682570338

>  <CNNaffinity>  (152) 
4.5271172523

>  <CNN_VS>  (152) 
2.5725662708

>  <CNNaffinity_variance>  (152) 
0.0079341820

$$$$
153
     RDKit          3D

 43 45  0  0  0  0  0  0  0  0999 V2000
   20.7583   70.5553    0.1920 P   0  0  2  0  0  0  0  0  0  0  0  0
   19.8550   71.4227    1.2169 O   0  0  0  0  0  0  0  0  0  0  0  0
   20.9655   69.1225    0.5870 O   0  0  0  0  0  0  0  0  0  0  0  0
   22.1033   71.4375    0.0172 O   0  0  0  0  0  0  0  0  0  0  0  0
   22.5693   72.1864    1.1247 C   0  0  0  0  0  0  0  0  0  0  0  0
   24.5036   72.4623    2.5247 O   0  0  0  0  0  0  0  0  0  0  0  0
   24.6129   69.4682    2.6456 O   0  0  0  0  0  0  0  0  0  0  0  0
   23.4660   70.1195    5.0323 O   0  0  0  0  0  0  0  0  0  0  0  0
   23.4753   70.3302    2.6100 C   0  0  1  0  0  0  0  0  0  0  0  0
   23.2905   71.0098    3.9502 C   0  0  2  0  0  0  0  0  0  0  0  0
   23.8046   71.5053    1.6996 C   0  0  1  0  0  0  0  0  0  0  0  0
   24.3559   72.0919    3.9046 C   0  0  2  0  0  0  0  0  0  0  0  0
   24.4263   68.7096    3.2214 H   0  0  0  0  0  0  0  0  0  0  0  0
   22.7633   69.4502    5.0175 H   0  0  0  0  0  0  0  0  0  0  0  0
   26.2023   73.8841    5.0688 O   0  0  0  0  0  0  0  0  0  0  0  0
   22.8362   76.5177    6.7944 O   0  0  0  0  0  0  0  0  0  0  0  0
   23.9893   73.2541    4.6634 N   0  0  0  0  0  0  0  0  0  0  0  0
   24.5240   75.1935    5.9280 N   0  0  0  0  0  0  0  0  0  0  0  0
   24.9947   74.0891    5.2056 C   0  0  0  0  0  0  0  0  0  0  0  0
   22.6480   73.5578    4.8624 C   0  0  0  0  0  0  0  0  0  0  0  0
   22.2147   74.6142    5.5532 C   0  0  0  0  0  0  0  0  0  0  0  0
   23.2007   75.5365    6.1535 C   0  0  0  0  0  0  0  0  0  0  0  0
   25.2054   75.7883    6.3168 H   0  0  0  0  0  0  0  0  0  0  0  0
   20.0022   70.7614   -1.2218 O   0  0  0  0  0  0  0  0  0  0  0  0
   20.5726   71.1502   -2.6837 P   0  0  2  0  0  0  0  0  0  0  0  0
   21.6599   69.9876   -2.9778 O   0  0  0  0  0  0  0  0  0  0  0  0
   21.1178   72.5457   -2.7808 O   0  0  0  0  0  0  0  0  0  0  0  0
   19.3558   70.8349   -3.6949 O   0  0  0  0  0  0  0  0  0  0  0  0
   17.4714   72.1187   -4.3352 O   0  0  0  0  0  0  0  0  0  0  0  0
   15.9259   68.2874   -4.3590 O   0  0  0  0  0  0  0  0  0  0  0  0
   17.7109   69.1509   -2.2136 O   0  0  0  0  0  0  0  0  0  0  0  0
   16.5546   69.6228   -6.8635 O   0  0  0  0  0  0  0  0  0  0  0  0
   16.9344   69.2867   -4.5081 C   0  0  2  0  0  0  0  0  0  0  0  0
   17.1299   70.0186   -3.1801 C   0  0  2  0  0  0  0  0  0  0  0  0
   16.4749   70.2644   -5.5921 C   0  0  1  0  0  0  0  0  0  0  0  0
   18.0310   71.2416   -3.3570 C   0  0  1  0  0  0  0  0  0  0  0  0
   17.3487   71.5150   -5.6211 C   0  0  1  0  0  0  0  0  0  0  0  0
   16.1961   67.6546   -3.6750 H   0  0  0  0  0  0  0  0  0  0  0  0
   17.1445   68.3725   -2.0966 H   0  0  0  0  0  0  0  0  0  0  0  0
   16.0028   68.8251   -6.8583 H   0  0  0  0  0  0  0  0  0  0  0  0
   17.1387   73.8134   -6.0389 O   0  0  0  0  0  0  0  0  0  0  0  0
   15.9090   72.4028   -7.3416 O   0  0  0  0  0  0  0  0  0  0  0  0
   16.7086   72.5905   -6.4370 C   0  0  0  0  0  0  0  0  0  0  0  0
  1  4  1  0
  1 24  1  0
  1  2  1  1
  1  3  2  0
 25 28  1  0
 25 24  1  0
 25 26  1  6
 25 27  2  0
  6 11  1  0
  6 12  1  0
 29 36  1  0
 29 37  1  0
  9  7  1  1
  7 13  1  0
 10  8  1  1
  8 14  1  0
  4  5  1  0
 36 28  1  6
 33 30  1  1
 30 38  1  0
 34 31  1  1
 31 39  1  0
 35 32  1  6
 32 40  1  0
 41 43  1  0
 15 19  2  0
 42 43  2  0
 16 22  2  0
 12 17  1  1
 17 19  1  0
 17 20  1  0
 18 19  1  0
 18 22  1  0
 18 23  1  0
  9 10  1  0
  9 11  1  0
 10 12  1  0
 11  5  1  1
 33 34  1  0
 33 35  1  0
 34 36  1  0
 35 37  1  0
 37 43  1  6
 20 21  2  0
 21 22  1  0
M  CHG  3   2  -1  26  -1  41  -1
M  END
>  <COMPND>  (153) 
    udp_gluA.pdb 

>  <AUTHOR>  (153) 
    GENERATED BY OPEN BABEL 3.1.1

>  <MASTER>  (153) 
        0    0    0    0    0    0    0    0   56    0   56    0

>  <minimizedAffinity>  (153) 
-8.85464

>  <CNNscore>  (153) 
0.4145807624

>  <CNNaffinity>  (153) 
4.3196654320

>  <CNN_VS>  (153) 
1.7908501625

>  <CNNaffinity_variance>  (153) 
0.1544204056

$$$$
154
     RDKit          3D

 43 45  0  0  0  0  0  0  0  0999 V2000
   22.5984   73.3791   -3.3817 P   0  0  2  0  0  0  0  0  0  0  0  0
   23.5905   72.1472   -3.7241 O   0  0  0  0  0  0  0  0  0  0  0  0
   23.2362   74.7368   -3.4239 O   0  0  0  0  0  0  0  0  0  0  0  0
   21.9316   72.9596   -1.9684 O   0  0  0  0  0  0  0  0  0  0  0  0
   22.7561   72.3687   -0.9808 C   0  0  0  0  0  0  0  0  0  0  0  0
   21.8981   70.1240   -0.9253 O   0  0  0  0  0  0  0  0  0  0  0  0
   21.4976   70.5483    2.0160 O   0  0  0  0  0  0  0  0  0  0  0  0
   23.7981   69.0865    1.9326 O   0  0  0  0  0  0  0  0  0  0  0  0
   22.5435   71.0241    1.1685 C   0  0  1  0  0  0  0  0  0  0  0  0
   23.4878   69.8942    0.8164 C   0  0  2  0  0  0  0  0  0  0  0  0
   21.9339   71.3633   -0.1848 C   0  0  1  0  0  0  0  0  0  0  0  0
   22.7016   69.1458   -0.2465 C   0  0  2  0  0  0  0  0  0  0  0  0
   21.8630   70.3250    2.8868 H   0  0  0  0  0  0  0  0  0  0  0  0
   24.2986   69.6082    2.5801 H   0  0  0  0  0  0  0  0  0  0  0  0
   22.9762   66.3459   -0.4946 O   0  0  0  0  0  0  0  0  0  0  0  0
   25.9982   66.7651   -3.9495 O   0  0  0  0  0  0  0  0  0  0  0  0
   23.5533   68.4964   -1.2024 N   0  0  0  0  0  0  0  0  0  0  0  0
   24.4818   66.5574   -2.2144 N   0  0  0  0  0  0  0  0  0  0  0  0
   23.6189   67.0836   -1.2441 C   0  0  0  0  0  0  0  0  0  0  0  0
   24.3102   69.2563   -2.0859 C   0  0  0  0  0  0  0  0  0  0  0  0
   25.1282   68.7404   -3.0054 C   0  0  0  0  0  0  0  0  0  0  0  0
   25.2553   67.2723   -3.1146 C   0  0  0  0  0  0  0  0  0  0  0  0
   24.5458   65.5760   -2.2613 H   0  0  0  0  0  0  0  0  0  0  0  0
   21.3866   73.1715   -4.4311 O   0  0  0  0  0  0  0  0  0  0  0  0
   21.2322   73.6202   -5.9766 P   0  0  2  0  0  0  0  0  0  0  0  0
   22.5380   72.9736   -6.6816 O   0  0  0  0  0  0  0  0  0  0  0  0
   21.0911   75.1014   -6.1766 O   0  0  0  0  0  0  0  0  0  0  0  0
   19.9947   72.7484   -6.5342 O   0  0  0  0  0  0  0  0  0  0  0  0
   19.0219   70.7761   -5.6552 O   0  0  0  0  0  0  0  0  0  0  0  0
   18.4454   70.2611   -9.7135 O   0  0  0  0  0  0  0  0  0  0  0  0
   20.9783   71.3042   -8.6982 O   0  0  0  0  0  0  0  0  0  0  0  0
   16.2205   71.0359   -8.0104 O   0  0  0  0  0  0  0  0  0  0  0  0
   18.5794   71.0007   -8.4998 C   0  0  2  0  0  0  0  0  0  0  0  0
   19.9555   70.7359   -7.8885 C   0  0  2  0  0  0  0  0  0  0  0  0
   17.4753   70.5441   -7.5435 C   0  0  1  0  0  0  0  0  0  0  0  0
   20.0508   71.3241   -6.4801 C   0  0  1  0  0  0  0  0  0  0  0  0
   17.7100   71.0698   -6.1303 C   0  0  1  0  0  0  0  0  0  0  0  0
   19.1368   70.5344  -10.3369 H   0  0  0  0  0  0  0  0  0  0  0  0
   20.9235   70.9356   -9.5935 H   0  0  0  0  0  0  0  0  0  0  0  0
   16.0592   70.7087   -8.9091 H   0  0  0  0  0  0  0  0  0  0  0  0
   16.4127   69.1754   -5.6505 O   0  0  0  0  0  0  0  0  0  0  0  0
   16.5303   70.7896   -4.0443 O   0  0  0  0  0  0  0  0  0  0  0  0
   16.8320   70.3636   -5.1491 C   0  0  0  0  0  0  0  0  0  0  0  0
  1  4  1  0
  1 24  1  0
  1  2  1  6
  1  3  2  0
 25 28  1  0
 25 24  1  0
 25 26  1  6
 25 27  2  0
  6 11  1  0
  6 12  1  0
 29 36  1  0
 29 37  1  0
  9  7  1  1
  7 13  1  0
 10  8  1  1
  8 14  1  0
  4  5  1  0
 36 28  1  6
 33 30  1  6
 30 38  1  0
 34 31  1  6
 31 39  1  0
 35 32  1  6
 32 40  1  0
 41 43  1  0
 15 19  2  0
 42 43  2  0
 16 22  2  0
 12 17  1  6
 17 19  1  0
 17 20  1  0
 18 19  1  0
 18 22  1  0
 18 23  1  0
  9 10  1  0
  9 11  1  0
 10 12  1  0
 11  5  1  6
 33 34  1  0
 33 35  1  0
 34 36  1  0
 35 37  1  0
 37 43  1  1
 20 21  2  0
 21 22  1  0
M  CHG  3   2  -1  26  -1  41  -1
M  END
>  <COMPND>  (154) 
    udp_gluA.pdb 

>  <AUTHOR>  (154) 
    GENERATED BY OPEN BABEL 3.1.1

>  <MASTER>  (154) 
        0    0    0    0    0    0    0    0   56    0   56    0

>  <minimizedAffinity>  (154) 
-9.45765

>  <CNNscore>  (154) 
0.3953705728

>  <CNNaffinity>  (154) 
4.4812970161

>  <CNN_VS>  (154) 
1.7717729807

>  <CNNaffinity_variance>  (154) 
0.4529968798

$$$$
155
     RDKit          3D

 43 45  0  0  0  0  0  0  0  0999 V2000
   20.4505   75.3939   -2.3218 P   0  0  2  0  0  0  0  0  0  0  0  0
   21.6636   75.0312   -3.3296 O   0  0  0  0  0  0  0  0  0  0  0  0
   20.0453   76.8387   -2.3121 O   0  0  0  0  0  0  0  0  0  0  0  0
   20.9324   74.7897   -0.9003 O   0  0  0  0  0  0  0  0  0  0  0  0
   20.3766   73.5630   -0.4637 C   0  0  0  0  0  0  0  0  0  0  0  0
   22.4217   72.3029   -0.3769 O   0  0  0  0  0  0  0  0  0  0  0  0
   20.9744   70.1993   -1.9490 O   0  0  0  0  0  0  0  0  0  0  0  0
   20.8925   69.2075    0.5898 O   0  0  0  0  0  0  0  0  0  0  0  0
   20.4793   71.0633   -0.9259 C   0  0  1  0  0  0  0  0  0  0  0  0
   20.9758   70.6083    0.4301 C   0  0  2  0  0  0  0  0  0  0  0  0
   21.1649   72.4141   -1.0793 C   0  0  1  0  0  0  0  0  0  0  0  0
   22.4089   71.1123    0.4266 C   0  0  2  0  0  0  0  0  0  0  0  0
   20.5507   69.3297   -1.8714 H   0  0  0  0  0  0  0  0  0  0  0  0
   19.9606   68.9365    0.5857 H   0  0  0  0  0  0  0  0  0  0  0  0
   23.6878   69.2793    2.1532 O   0  0  0  0  0  0  0  0  0  0  0  0
   24.1750   72.4533    5.4596 O   0  0  0  0  0  0  0  0  0  0  0  0
   22.8801   71.4331    1.7442 N   0  0  0  0  0  0  0  0  0  0  0  0
   23.9283   70.8616    3.7987 N   0  0  0  0  0  0  0  0  0  0  0  0
   23.5091   70.4389    2.5304 C   0  0  0  0  0  0  0  0  0  0  0  0
   22.7193   72.7196    2.2442 C   0  0  0  0  0  0  0  0  0  0  0  0
   23.1242   73.1076    3.4551 C   0  0  0  0  0  0  0  0  0  0  0  0
   23.7899   72.1294    4.3402 C   0  0  0  0  0  0  0  0  0  0  0  0
   24.3671   70.1864    4.3652 H   0  0  0  0  0  0  0  0  0  0  0  0
   19.2841   74.3706   -2.7749 O   0  0  0  0  0  0  0  0  0  0  0  0
   17.9534   74.6038   -3.6629 P   0  0  2  0  0  0  0  0  0  0  0  0
   18.5020   75.4324   -4.9408 O   0  0  0  0  0  0  0  0  0  0  0  0
   16.8311   75.2755   -2.9259 O   0  0  0  0  0  0  0  0  0  0  0  0
   17.5912   73.1450   -4.2485 O   0  0  0  0  0  0  0  0  0  0  0  0
   18.6367   71.0474   -3.9076 O   0  0  0  0  0  0  0  0  0  0  0  0
   17.2934   70.6946   -7.7985 O   0  0  0  0  0  0  0  0  0  0  0  0
   18.5125   73.1828   -6.8726 O   0  0  0  0  0  0  0  0  0  0  0  0
   15.8971   69.3318   -5.6435 O   0  0  0  0  0  0  0  0  0  0  0  0
   17.2623   71.1480   -6.4452 C   0  0  2  0  0  0  0  0  0  0  0  0
   18.5242   71.9583   -6.1478 C   0  0  2  0  0  0  0  0  0  0  0  0
   17.1926   69.9188   -5.5362 C   0  0  1  0  0  0  0  0  0  0  0  0
   18.6381   72.2650   -4.6539 C   0  0  1  0  0  0  0  0  0  0  0  0
   17.4404   70.2903   -4.0770 C   0  0  1  0  0  0  0  0  0  0  0  0
   17.3379   71.4587   -8.3947 H   0  0  0  0  0  0  0  0  0  0  0  0
   18.4402   72.9957   -7.8214 H   0  0  0  0  0  0  0  0  0  0  0  0
   15.7268   69.0909   -6.5675 H   0  0  0  0  0  0  0  0  0  0  0  0
   17.8992   69.4009   -1.9557 O   0  0  0  0  0  0  0  0  0  0  0  0
   17.7202   67.9260   -3.6854 O   0  0  0  0  0  0  0  0  0  0  0  0
   17.6968   69.0693   -3.2550 C   0  0  0  0  0  0  0  0  0  0  0  0
  1  4  1  0
  1 24  1  0
  1  2  1  6
  1  3  2  0
 25 28  1  0
 25 24  1  0
 25 26  1  6
 25 27  2  0
  6 11  1  0
  6 12  1  0
 29 36  1  0
 29 37  1  0
  9  7  1  6
  7 13  1  0
 10  8  1  6
  8 14  1  0
  4  5  1  0
 36 28  1  1
 33 30  1  6
 30 38  1  0
 34 31  1  6
 31 39  1  0
 35 32  1  1
 32 40  1  0
 41 43  1  0
 15 19  2  0
 42 43  2  0
 16 22  2  0
 12 17  1  1
 17 19  1  0
 17 20  1  0
 18 19  1  0
 18 22  1  0
 18 23  1  0
  9 10  1  0
  9 11  1  0
 10 12  1  0
 11  5  1  1
 33 34  1  0
 33 35  1  0
 34 36  1  0
 35 37  1  0
 37 43  1  1
 20 21  2  0
 21 22  1  0
M  CHG  3   2  -1  26  -1  41  -1
M  END
>  <COMPND>  (155) 
    udp_gluA.pdb 

>  <AUTHOR>  (155) 
    GENERATED BY OPEN BABEL 3.1.1

>  <MASTER>  (155) 
        0    0    0    0    0    0    0    0   56    0   56    0

>  <minimizedAffinity>  (155) 
-7.88036

>  <CNNscore>  (155) 
0.3853670955

>  <CNNaffinity>  (155) 
4.3278579712

>  <CNN_VS>  (155) 
1.6678140163

>  <CNNaffinity_variance>  (155) 
0.1745737344

$$$$
156
     RDKit          3D

 43 45  0  0  0  0  0  0  0  0999 V2000
   22.0582   72.2135   -2.9455 P   0  0  2  0  0  0  0  0  0  0  0  0
   23.1312   73.3277   -2.4700 O   0  0  0  0  0  0  0  0  0  0  0  0
   20.6589   72.4286   -2.4481 O   0  0  0  0  0  0  0  0  0  0  0  0
   22.7446   70.8095   -2.5267 O   0  0  0  0  0  0  0  0  0  0  0  0
   23.4440   70.7388   -1.2977 C   0  0  0  0  0  0  0  0  0  0  0  0
   23.6563   69.3752    0.6704 O   0  0  0  0  0  0  0  0  0  0  0  0
   20.6605   69.2467    0.6782 O   0  0  0  0  0  0  0  0  0  0  0  0
   21.1813   71.1249    2.5853 O   0  0  0  0  0  0  0  0  0  0  0  0
   21.5176   70.3285    0.3127 C   0  0  1  0  0  0  0  0  0  0  0  0
   22.1258   70.9561    1.5490 C   0  0  2  0  0  0  0  0  0  0  0  0
   22.7400   69.7450   -0.3827 C   0  0  1  0  0  0  0  0  0  0  0  0
   23.2140   69.9581    1.9065 C   0  0  2  0  0  0  0  0  0  0  0  0
   19.8722   69.5948    1.1243 H   0  0  0  0  0  0  0  0  0  0  0  0
   20.5102   71.7695    2.3092 H   0  0  0  0  0  0  0  0  0  0  0  0
   23.4093   70.3721    4.6934 O   0  0  0  0  0  0  0  0  0  0  0  0
   27.5554   72.3455    4.2939 O   0  0  0  0  0  0  0  0  0  0  0  0
   24.3334   70.5777    2.5575 N   0  0  0  0  0  0  0  0  0  0  0  0
   25.4737   71.3555    4.4917 N   0  0  0  0  0  0  0  0  0  0  0  0
   24.3322   70.7382    3.9633 C   0  0  0  0  0  0  0  0  0  0  0  0
   25.4166   71.0171    1.8061 C   0  0  0  0  0  0  0  0  0  0  0  0
   26.4976   71.6036    2.3240 C   0  0  0  0  0  0  0  0  0  0  0  0
   26.5754   71.8098    3.7851 C   0  0  0  0  0  0  0  0  0  0  0  0
   25.4949   71.4800    5.4681 H   0  0  0  0  0  0  0  0  0  0  0  0
   22.2104   72.2266   -4.5547 O   0  0  0  0  0  0  0  0  0  0  0  0
   21.4931   73.1377   -5.6812 P   0  0  2  0  0  0  0  0  0  0  0  0
   22.1963   72.6490   -7.0549 O   0  0  0  0  0  0  0  0  0  0  0  0
   21.5869   74.6149   -5.4300 O   0  0  0  0  0  0  0  0  0  0  0  0
   19.9865   72.5680   -5.7701 O   0  0  0  0  0  0  0  0  0  0  0  0
   19.2279   70.5463   -4.7971 O   0  0  0  0  0  0  0  0  0  0  0  0
   16.5412   71.0482   -7.8952 O   0  0  0  0  0  0  0  0  0  0  0  0
   19.3849   71.5815   -8.3001 O   0  0  0  0  0  0  0  0  0  0  0  0
   15.7357   71.6118   -5.1594 O   0  0  0  0  0  0  0  0  0  0  0  0
   17.4334   71.4685   -6.8630 C   0  0  2  0  0  0  0  0  0  0  0  0
   18.8381   70.9395   -7.1539 C   0  0  2  0  0  0  0  0  0  0  0  0
   16.9181   70.9082   -5.5354 C   0  0  1  0  0  0  0  0  0  0  0  0
   19.7678   71.1716   -5.9621 C   0  0  1  0  0  0  0  0  0  0  0  0
   17.9531   71.0654   -4.4252 C   0  0  1  0  0  0  0  0  0  0  0  0
   16.8487   71.3926   -8.7485 H   0  0  0  0  0  0  0  0  0  0  0  0
   18.7998   71.4385   -9.0601 H   0  0  0  0  0  0  0  0  0  0  0  0
   15.0689   71.5199   -5.8577 H   0  0  0  0  0  0  0  0  0  0  0  0
   18.6975   69.7308   -2.6458 O   0  0  0  0  0  0  0  0  0  0  0  0
   16.4469   70.0382   -2.8447 O   0  0  0  0  0  0  0  0  0  0  0  0
   17.5869   70.2364   -3.2373 C   0  0  0  0  0  0  0  0  0  0  0  0
  1  4  1  0
  1 24  1  0
  1  2  1  1
  1  3  2  0
 25 28  1  0
 25 24  1  0
 25 26  1  6
 25 27  2  0
  6 11  1  0
  6 12  1  0
 29 36  1  0
 29 37  1  0
  9  7  1  1
  7 13  1  0
 10  8  1  1
  8 14  1  0
  4  5  1  0
 36 28  1  1
 33 30  1  6
 30 38  1  0
 34 31  1  6
 31 39  1  0
 35 32  1  1
 32 40  1  0
 41 43  1  0
 15 19  2  0
 42 43  2  0
 16 22  2  0
 12 17  1  6
 17 19  1  0
 17 20  1  0
 18 19  1  0
 18 22  1  0
 18 23  1  0
  9 10  1  0
  9 11  1  0
 10 12  1  0
 11  5  1  6
 33 34  1  0
 33 35  1  0
 34 36  1  0
 35 37  1  0
 37 43  1  1
 20 21  2  0
 21 22  1  0
M  CHG  3   2  -1  26  -1  41  -1
M  END
>  <COMPND>  (156) 
    udp_gluA.pdb 

>  <AUTHOR>  (156) 
    GENERATED BY OPEN BABEL 3.1.1

>  <MASTER>  (156) 
        0    0    0    0    0    0    0    0   56    0   56    0

>  <minimizedAffinity>  (156) 
-8.41957

>  <CNNscore>  (156) 
0.3800589144

>  <CNNaffinity>  (156) 
4.3564805984

>  <CNN_VS>  (156) 
1.6557192802

>  <CNNaffinity_variance>  (156) 
0.1491098702

$$$$
157
     RDKit          3D

 43 45  0  0  0  0  0  0  0  0999 V2000
   21.0007   74.1462   -0.5534 P   0  0  2  0  0  0  0  0  0  0  0  0
   19.5200   74.5677   -1.0522 O   0  0  0  0  0  0  0  0  0  0  0  0
   21.4218   74.7441    0.7570 O   0  0  0  0  0  0  0  0  0  0  0  0
   21.9490   74.4884   -1.8188 O   0  0  0  0  0  0  0  0  0  0  0  0
   21.3728   75.1301   -2.9416 C   0  0  0  0  0  0  0  0  0  0  0  0
   21.3413   72.9284   -3.9057 O   0  0  0  0  0  0  0  0  0  0  0  0
   21.4993   74.2952   -6.5700 O   0  0  0  0  0  0  0  0  0  0  0  0
   18.8542   73.6592   -6.3825 O   0  0  0  0  0  0  0  0  0  0  0  0
   20.8124   74.7006   -5.3858 C   0  0  1  0  0  0  0  0  0  0  0  0
   19.5735   73.8543   -5.1828 C   0  0  2  0  0  0  0  0  0  0  0  0
   21.6670   74.3065   -4.1889 C   0  0  1  0  0  0  0  0  0  0  0  0
   20.1592   72.5638   -4.6357 C   0  0  2  0  0  0  0  0  0  0  0  0
   20.9725   74.5364   -7.3484 H   0  0  0  0  0  0  0  0  0  0  0  0
   18.5015   74.5096   -6.6899 H   0  0  0  0  0  0  0  0  0  0  0  0
   20.3596   69.8332   -3.9427 O   0  0  0  0  0  0  0  0  0  0  0  0
   16.6368   70.0593   -1.2346 O   0  0  0  0  0  0  0  0  0  0  0  0
   19.2557   71.8834   -3.7516 N   0  0  0  0  0  0  0  0  0  0  0  0
   18.5047   69.9482   -2.5954 N   0  0  0  0  0  0  0  0  0  0  0  0
   19.4449   70.5099   -3.4691 C   0  0  0  0  0  0  0  0  0  0  0  0
   18.1983   72.5753   -3.1736 C   0  0  0  0  0  0  0  0  0  0  0  0
   17.3103   72.0263   -2.3425 C   0  0  0  0  0  0  0  0  0  0  0  0
   17.4361   70.5953   -1.9962 C   0  0  0  0  0  0  0  0  0  0  0  0
   18.6145   68.9926   -2.3853 H   0  0  0  0  0  0  0  0  0  0  0  0
   20.9427   72.5309   -0.5689 O   0  0  0  0  0  0  0  0  0  0  0  0
   20.4003   71.4777    0.5311 P   0  0  2  0  0  0  0  0  0  0  0  0
   20.4517   70.0632   -0.2543 O   0  0  0  0  0  0  0  0  0  0  0  0
   19.0539   71.8203    1.1003 O   0  0  0  0  0  0  0  0  0  0  0  0
   21.5837   71.3804    1.6231 O   0  0  0  0  0  0  0  0  0  0  0  0
   23.6434   72.5443    1.7334 O   0  0  0  0  0  0  0  0  0  0  0  0
   24.6364   68.9151    3.4394 O   0  0  0  0  0  0  0  0  0  0  0  0
   22.9428   69.0196    1.0613 O   0  0  0  0  0  0  0  0  0  0  0  0
   24.2572   71.2601    5.1151 O   0  0  0  0  0  0  0  0  0  0  0  0
   23.7815   70.0103    3.1110 C   0  0  2  0  0  0  0  0  0  0  0  0
   23.6611   70.1276    1.5914 C   0  0  2  0  0  0  0  0  0  0  0  0
   24.3977   71.2831    3.6959 C   0  0  1  0  0  0  0  0  0  0  0  0
   22.9446   71.4200    1.1975 C   0  0  1  0  0  0  0  0  0  0  0  0
   23.7088   72.5338    3.1577 C   0  0  1  0  0  0  0  0  0  0  0  0
   24.2649   68.0950    3.0779 H   0  0  0  0  0  0  0  0  0  0  0  0
   23.3917   68.1961    1.3077 H   0  0  0  0  0  0  0  0  0  0  0  0
   24.6913   70.4688    5.4703 H   0  0  0  0  0  0  0  0  0  0  0  0
   24.3615   74.1117    4.7657 O   0  0  0  0  0  0  0  0  0  0  0  0
   25.2109   74.3561    2.6638 O   0  0  0  0  0  0  0  0  0  0  0  0
   24.5114   73.7557    3.4658 C   0  0  0  0  0  0  0  0  0  0  0  0
  1  4  1  0
  1 24  1  0
  1  2  1  6
  1  3  2  0
 25 28  1  0
 25 24  1  0
 25 26  1  6
 25 27  2  0
  6 11  1  0
  6 12  1  0
 29 36  1  0
 29 37  1  0
  9  7  1  6
  7 13  1  0
 10  8  1  6
  8 14  1  0
  4  5  1  0
 36 28  1  1
 33 30  1  6
 30 38  1  0
 34 31  1  1
 31 39  1  0
 35 32  1  1
 32 40  1  0
 41 43  1  0
 15 19  2  0
 42 43  2  0
 16 22  2  0
 12 17  1  1
 17 19  1  0
 17 20  1  0
 18 19  1  0
 18 22  1  0
 18 23  1  0
  9 10  1  0
  9 11  1  0
 10 12  1  0
 11  5  1  1
 33 34  1  0
 33 35  1  0
 34 36  1  0
 35 37  1  0
 37 43  1  6
 20 21  2  0
 21 22  1  0
M  CHG  3   2  -1  26  -1  41  -1
M  END
>  <COMPND>  (157) 
    udp_gluA.pdb 

>  <AUTHOR>  (157) 
    GENERATED BY OPEN BABEL 3.1.1

>  <MASTER>  (157) 
        0    0    0    0    0    0    0    0   56    0   56    0

>  <minimizedAffinity>  (157) 
-6.96667

>  <CNNscore>  (157) 
0.3785324693

>  <CNNaffinity>  (157) 
4.1599111557

>  <CNN_VS>  (157) 
1.5746614933

>  <CNNaffinity_variance>  (157) 
0.2042552978

$$$$
158
     RDKit          3D

 43 45  0  0  0  0  0  0  0  0999 V2000
   20.7258   70.7987   -0.8511 P   0  0  2  0  0  0  0  0  0  0  0  0
   20.4913   69.5542    0.1564 O   0  0  0  0  0  0  0  0  0  0  0  0
   21.5190   70.4757   -2.0832 O   0  0  0  0  0  0  0  0  0  0  0  0
   21.3414   71.9559    0.0976 O   0  0  0  0  0  0  0  0  0  0  0  0
   20.4621   72.9228    0.6420 C   0  0  0  0  0  0  0  0  0  0  0  0
   21.0707   71.5414    2.5125 O   0  0  0  0  0  0  0  0  0  0  0  0
   19.3836   73.3768    4.1788 O   0  0  0  0  0  0  0  0  0  0  0  0
   21.9123   74.2541    4.7004 O   0  0  0  0  0  0  0  0  0  0  0  0
   20.2136   73.6812    3.0577 C   0  0  1  0  0  0  0  0  0  0  0  0
   21.6732   73.6292    3.4566 C   0  0  2  0  0  0  0  0  0  0  0  0
   20.1118   72.5265    2.0705 C   0  0  1  0  0  0  0  0  0  0  0  0
   21.9370   72.1335    3.4934 C   0  0  2  0  0  0  0  0  0  0  0  0
   19.4323   74.1004    4.8235 H   0  0  0  0  0  0  0  0  0  0  0  0
   21.7305   75.2045    4.6249 H   0  0  0  0  0  0  0  0  0  0  0  0
   23.4462   70.1256    4.7845 O   0  0  0  0  0  0  0  0  0  0  0  0
   27.1492   70.9751    2.1749 O   0  0  0  0  0  0  0  0  0  0  0  0
   23.2978   71.8090    3.1712 N   0  0  0  0  0  0  0  0  0  0  0  0
   25.2894   70.5513    3.4842 N   0  0  0  0  0  0  0  0  0  0  0  0
   23.9656   70.7828    3.8805 C   0  0  0  0  0  0  0  0  0  0  0  0
   23.9559   72.5020    2.1624 C   0  0  0  0  0  0  0  0  0  0  0  0
   25.2179   72.2699    1.7959 C   0  0  0  0  0  0  0  0  0  0  0  0
   25.9868   71.2146    2.4876 C   0  0  0  0  0  0  0  0  0  0  0  0
   25.7756   69.8430    3.9650 H   0  0  0  0  0  0  0  0  0  0  0  0
   19.2235   71.3232   -1.1357 O   0  0  0  0  0  0  0  0  0  0  0  0
   18.0485   70.7223   -2.0695 P   0  0  2  0  0  0  0  0  0  0  0  0
   16.8168   71.7415   -1.8158 O   0  0  0  0  0  0  0  0  0  0  0  0
   17.7244   69.2813   -1.8004 O   0  0  0  0  0  0  0  0  0  0  0  0
   18.5275   71.0303   -3.5789 O   0  0  0  0  0  0  0  0  0  0  0  0
   19.9131   72.7860   -4.3579 O   0  0  0  0  0  0  0  0  0  0  0  0
   17.4907   72.1094   -7.6354 O   0  0  0  0  0  0  0  0  0  0  0  0
   16.3643   72.1274   -4.9400 O   0  0  0  0  0  0  0  0  0  0  0  0
   20.2379   71.1587   -7.6303 O   0  0  0  0  0  0  0  0  0  0  0  0
   18.2196   71.7587   -6.4591 C   0  0  2  0  0  0  0  0  0  0  0  0
   17.6820   72.5524   -5.2682 C   0  0  2  0  0  0  0  0  0  0  0  0
   19.6937   72.0922   -6.6993 C   0  0  1  0  0  0  0  0  0  0  0  0
   18.5811   72.3778   -4.0435 C   0  0  1  0  0  0  0  0  0  0  0  0
   20.4997   72.0172   -5.4057 C   0  0  1  0  0  0  0  0  0  0  0  0
   16.5508   71.9062   -7.5062 H   0  0  0  0  0  0  0  0  0  0  0  0
   15.7883   72.2352   -5.7127 H   0  0  0  0  0  0  0  0  0  0  0  0
   19.7337   71.1963   -8.4581 H   0  0  0  0  0  0  0  0  0  0  0  0
   21.8693   73.4114   -6.7027 O   0  0  0  0  0  0  0  0  0  0  0  0
   22.7851   72.5173   -4.8156 O   0  0  0  0  0  0  0  0  0  0  0  0
   21.8404   72.6535   -5.5785 C   0  0  0  0  0  0  0  0  0  0  0  0
  1  4  1  0
  1 24  1  0
  1  2  1  1
  1  3  2  0
 25 28  1  0
 25 24  1  0
 25 26  1  1
 25 27  2  0
  6 11  1  0
  6 12  1  0
 29 36  1  0
 29 37  1  0
  9  7  1  1
  7 13  1  0
 10  8  1  1
  8 14  1  0
  4  5  1  0
 36 28  1  6
 33 30  1  6
 30 38  1  0
 34 31  1  1
 31 39  1  0
 35 32  1  6
 32 40  1  0
 41 43  1  0
 15 19  2  0
 42 43  2  0
 16 22  2  0
 12 17  1  6
 17 19  1  0
 17 20  1  0
 18 19  1  0
 18 22  1  0
 18 23  1  0
  9 10  1  0
  9 11  1  0
 10 12  1  0
 11  5  1  6
 33 34  1  0
 33 35  1  0
 34 36  1  0
 35 37  1  0
 37 43  1  6
 20 21  2  0
 21 22  1  0
M  CHG  3   2  -1  26  -1  41  -1
M  END
>  <COMPND>  (158) 
    udp_gluA.pdb 

>  <AUTHOR>  (158) 
    GENERATED BY OPEN BABEL 3.1.1

>  <MASTER>  (158) 
        0    0    0    0    0    0    0    0   56    0   56    0

>  <minimizedAffinity>  (158) 
-7.50402

>  <CNNscore>  (158) 
0.3773219585

>  <CNNaffinity>  (158) 
4.2624688148

>  <CNN_VS>  (158) 
1.6083230972

>  <CNNaffinity_variance>  (158) 
0.1809446514

$$$$
159
     RDKit          3D

 43 45  0  0  0  0  0  0  0  0999 V2000
   20.7277   70.6303    0.1770 P   0  0  2  0  0  0  0  0  0  0  0  0
   19.8107   71.4914    1.1950 O   0  0  0  0  0  0  0  0  0  0  0  0
   20.9222   69.1928    0.5610 O   0  0  0  0  0  0  0  0  0  0  0  0
   22.0792   71.5084    0.0339 O   0  0  0  0  0  0  0  0  0  0  0  0
   22.5344   72.2370    1.1593 C   0  0  0  0  0  0  0  0  0  0  0  0
   24.4763   72.5113    2.5490 O   0  0  0  0  0  0  0  0  0  0  0  0
   24.6004   69.5168    2.6461 O   0  0  0  0  0  0  0  0  0  0  0  0
   23.4658   70.1443    5.0451 O   0  0  0  0  0  0  0  0  0  0  0  0
   23.4585   70.3737    2.6245 C   0  0  1  0  0  0  0  0  0  0  0  0
   23.2792   71.0422    3.9710 C   0  0  2  0  0  0  0  0  0  0  0  0
   23.7765   71.5573    1.7210 C   0  0  1  0  0  0  0  0  0  0  0  0
   24.3392   72.1296    3.9270 C   0  0  2  0  0  0  0  0  0  0  0  0
   24.4211   68.7530    3.2172 H   0  0  0  0  0  0  0  0  0  0  0  0
   22.7662   69.4718    5.0296 H   0  0  0  0  0  0  0  0  0  0  0  0
   26.1839   73.9448    5.0577 O   0  0  0  0  0  0  0  0  0  0  0  0
   22.8175   76.5245    6.8623 O   0  0  0  0  0  0  0  0  0  0  0  0
   23.9721   73.2842    4.6970 N   0  0  0  0  0  0  0  0  0  0  0  0
   24.5055   75.2274    5.9562 N   0  0  0  0  0  0  0  0  0  0  0  0
   24.9767   74.1320    5.2206 C   0  0  0  0  0  0  0  0  0  0  0  0
   22.6311   73.5679    4.9253 C   0  0  0  0  0  0  0  0  0  0  0  0
   22.1974   74.6159    5.6284 C   0  0  0  0  0  0  0  0  0  0  0  0
   23.1825   75.5506    6.2107 C   0  0  0  0  0  0  0  0  0  0  0  0
   25.1864   75.8308    6.3325 H   0  0  0  0  0  0  0  0  0  0  0  0
   19.9967   70.8538   -1.2473 O   0  0  0  0  0  0  0  0  0  0  0  0
   20.6039   71.1204   -2.7217 P   0  0  2  0  0  0  0  0  0  0  0  0
   21.6585   69.9072   -2.9123 O   0  0  0  0  0  0  0  0  0  0  0  0
   21.1947   72.4881   -2.9064 O   0  0  0  0  0  0  0  0  0  0  0  0
   19.3951   70.7713   -3.7314 O   0  0  0  0  0  0  0  0  0  0  0  0
   17.5956   72.1167   -4.4804 O   0  0  0  0  0  0  0  0  0  0  0  0
   15.8731   68.3619   -4.4281 O   0  0  0  0  0  0  0  0  0  0  0  0
   17.6243   69.2182   -2.2522 O   0  0  0  0  0  0  0  0  0  0  0  0
   16.6470   69.5772   -6.9529 O   0  0  0  0  0  0  0  0  0  0  0  0
   16.9320   69.3080   -4.5757 C   0  0  2  0  0  0  0  0  0  0  0  0
   17.1173   70.0769   -3.2673 C   0  0  2  0  0  0  0  0  0  0  0  0
   16.5553   70.2665   -5.7076 C   0  0  1  0  0  0  0  0  0  0  0  0
   18.0804   71.2501   -3.4539 C   0  0  1  0  0  0  0  0  0  0  0  0
   17.4876   71.4739   -5.7485 C   0  0  1  0  0  0  0  0  0  0  0  0
   16.0903   67.7421   -3.7140 H   0  0  0  0  0  0  0  0  0  0  0  0
   17.0182   68.4714   -2.1287 H   0  0  0  0  0  0  0  0  0  0  0  0
   16.0585   68.8063   -6.9400 H   0  0  0  0  0  0  0  0  0  0  0  0
   17.8296   73.5444   -6.7961 O   0  0  0  0  0  0  0  0  0  0  0  0
   15.8097   72.5370   -7.1182 O   0  0  0  0  0  0  0  0  0  0  0  0
   16.9264   72.5480   -6.6224 C   0  0  0  0  0  0  0  0  0  0  0  0
  1  4  1  0
  1 24  1  0
  1  2  1  1
  1  3  2  0
 25 28  1  0
 25 24  1  0
 25 26  1  6
 25 27  2  0
  6 11  1  0
  6 12  1  0
 29 36  1  0
 29 37  1  0
  9  7  1  1
  7 13  1  0
 10  8  1  1
  8 14  1  0
  4  5  1  0
 36 28  1  6
 33 30  1  1
 30 38  1  0
 34 31  1  1
 31 39  1  0
 35 32  1  6
 32 40  1  0
 41 43  1  0
 15 19  2  0
 42 43  2  0
 16 22  2  0
 12 17  1  1
 17 19  1  0
 17 20  1  0
 18 19  1  0
 18 22  1  0
 18 23  1  0
  9 10  1  0
  9 11  1  0
 10 12  1  0
 11  5  1  1
 33 34  1  0
 33 35  1  0
 34 36  1  0
 35 37  1  0
 37 43  1  6
 20 21  2  0
 21 22  1  0
M  CHG  3   2  -1  26  -1  41  -1
M  END
>  <COMPND>  (159) 
    udp_gluA.pdb 

>  <AUTHOR>  (159) 
    GENERATED BY OPEN BABEL 3.1.1

>  <MASTER>  (159) 
        0    0    0    0    0    0    0    0   56    0   56    0

>  <minimizedAffinity>  (159) 
-8.62994

>  <CNNscore>  (159) 
0.3742436171

>  <CNNaffinity>  (159) 
4.2647094727

>  <CNN_VS>  (159) 
1.5960402489

>  <CNNaffinity_variance>  (159) 
0.0496646687

$$$$
160
     RDKit          3D

 43 45  0  0  0  0  0  0  0  0999 V2000
   22.7879   72.9015   -3.3379 P   0  0  2  0  0  0  0  0  0  0  0  0
   23.6258   71.6027   -3.8173 O   0  0  0  0  0  0  0  0  0  0  0  0
   23.5564   74.1904   -3.3476 O   0  0  0  0  0  0  0  0  0  0  0  0
   22.1729   72.4610   -1.9076 O   0  0  0  0  0  0  0  0  0  0  0  0
   23.0554   71.9747   -0.9131 C   0  0  0  0  0  0  0  0  0  0  0  0
   23.2234   70.4258    0.9173 O   0  0  0  0  0  0  0  0  0  0  0  0
   20.3347   69.8015    0.4108 O   0  0  0  0  0  0  0  0  0  0  0  0
   20.2140   71.4816    2.5552 O   0  0  0  0  0  0  0  0  0  0  0  0
   21.0220   71.0483    0.3032 C   0  0  1  0  0  0  0  0  0  0  0  0
   21.3155   71.6055    1.6801 C   0  0  2  0  0  0  0  0  0  0  0  0
   22.4198   70.7694   -0.2322 C   0  0  1  0  0  0  0  0  0  0  0  0
   22.5043   70.7648    2.1137 C   0  0  2  0  0  0  0  0  0  0  0  0
   19.4388   69.9541    0.7511 H   0  0  0  0  0  0  0  0  0  0  0  0
   19.4837   72.0356    2.2362 H   0  0  0  0  0  0  0  0  0  0  0  0
   24.0562   69.5443    4.1332 O   0  0  0  0  0  0  0  0  0  0  0  0
   25.8371   73.5832    5.4598 O   0  0  0  0  0  0  0  0  0  0  0  0
   23.3822   71.4737    3.0011 N   0  0  0  0  0  0  0  0  0  0  0  0
   24.9409   71.5572    4.7927 N   0  0  0  0  0  0  0  0  0  0  0  0
   24.1171   70.7659    3.9814 C   0  0  0  0  0  0  0  0  0  0  0  0
   23.5098   72.8533    2.8947 C   0  0  0  0  0  0  0  0  0  0  0  0
   24.2992   73.5939    3.6752 C   0  0  0  0  0  0  0  0  0  0  0  0
   25.1006   72.9318    4.7253 C   0  0  0  0  0  0  0  0  0  0  0  0
   25.4609   71.0869    5.4839 H   0  0  0  0  0  0  0  0  0  0  0  0
   21.4971   72.8799   -4.3107 O   0  0  0  0  0  0  0  0  0  0  0  0
   21.2685   73.5025   -5.7850 P   0  0  2  0  0  0  0  0  0  0  0  0
   22.5558   72.9752   -6.6128 O   0  0  0  0  0  0  0  0  0  0  0  0
   21.0899   74.9931   -5.8031 O   0  0  0  0  0  0  0  0  0  0  0  0
   20.0259   72.6719   -6.3920 O   0  0  0  0  0  0  0  0  0  0  0  0
   19.0434   70.6485   -5.6505 O   0  0  0  0  0  0  0  0  0  0  0  0
   18.4908   70.4031   -9.7373 O   0  0  0  0  0  0  0  0  0  0  0  0
   21.0197   71.3707   -8.6404 O   0  0  0  0  0  0  0  0  0  0  0  0
   16.2572   71.0699   -8.0003 O   0  0  0  0  0  0  0  0  0  0  0  0
   18.6190   71.0609   -8.4768 C   0  0  2  0  0  0  0  0  0  0  0  0
   19.9907   70.7529   -7.8760 C   0  0  2  0  0  0  0  0  0  0  0  0
   17.5081   70.5452   -7.5592 C   0  0  1  0  0  0  0  0  0  0  0  0
   20.0786   71.2469   -6.4313 C   0  0  1  0  0  0  0  0  0  0  0  0
   17.7351   70.9761   -6.1131 C   0  0  1  0  0  0  0  0  0  0  0  0
   19.1866   70.7150  -10.3372 H   0  0  0  0  0  0  0  0  0  0  0  0
   20.9697   71.0619   -9.5583 H   0  0  0  0  0  0  0  0  0  0  0  0
   16.1007   70.8030   -8.9196 H   0  0  0  0  0  0  0  0  0  0  0  0
   16.2824   69.1571   -5.8264 O   0  0  0  0  0  0  0  0  0  0  0  0
   16.6590   70.4837   -4.0105 O   0  0  0  0  0  0  0  0  0  0  0  0
   16.8495   70.2092   -5.1858 C   0  0  0  0  0  0  0  0  0  0  0  0
  1  4  1  0
  1 24  1  0
  1  2  1  6
  1  3  2  0
 25 28  1  0
 25 24  1  0
 25 26  1  6
 25 27  2  0
  6 11  1  0
  6 12  1  0
 29 36  1  0
 29 37  1  0
  9  7  1  1
  7 13  1  0
 10  8  1  1
  8 14  1  0
  4  5  1  0
 36 28  1  6
 33 30  1  6
 30 38  1  0
 34 31  1  6
 31 39  1  0
 35 32  1  6
 32 40  1  0
 41 43  1  0
 15 19  2  0
 42 43  2  0
 16 22  2  0
 12 17  1  1
 17 19  1  0
 17 20  1  0
 18 19  1  0
 18 22  1  0
 18 23  1  0
  9 10  1  0
  9 11  1  0
 10 12  1  0
 11  5  1  1
 33 34  1  0
 33 35  1  0
 34 36  1  0
 35 37  1  0
 37 43  1  1
 20 21  2  0
 21 22  1  0
M  CHG  3   2  -1  26  -1  41  -1
M  END
>  <COMPND>  (160) 
    udp_gluA.pdb 

>  <AUTHOR>  (160) 
    GENERATED BY OPEN BABEL 3.1.1

>  <MASTER>  (160) 
        0    0    0    0    0    0    0    0   56    0   56    0

>  <minimizedAffinity>  (160) 
-9.19822

>  <CNNscore>  (160) 
0.3581182361

>  <CNNaffinity>  (160) 
4.2256212234

>  <CNN_VS>  (160) 
1.5132720470

>  <CNNaffinity_variance>  (160) 
0.0850306377

$$$$
161
     RDKit          3D

 43 45  0  0  0  0  0  0  0  0999 V2000
   22.5557   72.5218   -3.1135 P   0  0  2  0  0  0  0  0  0  0  0  0
   21.7777   73.5377   -4.1042 O   0  0  0  0  0  0  0  0  0  0  0  0
   23.5075   71.5804   -3.7914 O   0  0  0  0  0  0  0  0  0  0  0  0
   21.3697   71.8276   -2.2594 O   0  0  0  0  0  0  0  0  0  0  0  0
   20.6004   70.8102   -2.8739 C   0  0  0  0  0  0  0  0  0  0  0  0
   18.6441   71.7503   -3.9067 O   0  0  0  0  0  0  0  0  0  0  0  0
   17.0665   70.2909   -1.8156 O   0  0  0  0  0  0  0  0  0  0  0  0
   16.7842   68.6867   -4.0025 O   0  0  0  0  0  0  0  0  0  0  0  0
   18.2593   69.8909   -2.4906 C   0  0  1  0  0  0  0  0  0  0  0  0
   17.9449   69.4866   -3.9153 C   0  0  2  0  0  0  0  0  0  0  0  0
   19.1218   71.1291   -2.6937 C   0  0  1  0  0  0  0  0  0  0  0  0
   17.7787   70.8344   -4.5963 C   0  0  2  0  0  0  0  0  0  0  0  0
   16.4992   69.5163   -1.6745 H   0  0  0  0  0  0  0  0  0  0  0  0
   16.9407   67.8400   -3.5547 H   0  0  0  0  0  0  0  0  0  0  0  0
   16.0518   70.0431   -6.6863 O   0  0  0  0  0  0  0  0  0  0  0  0
   19.3041   70.7295   -9.8792 O   0  0  0  0  0  0  0  0  0  0  0  0
   18.1483   70.7970   -5.9830 N   0  0  0  0  0  0  0  0  0  0  0  0
   17.6736   70.3848   -8.2744 N   0  0  0  0  0  0  0  0  0  0  0  0
   17.2055   70.3840   -6.9538 C   0  0  0  0  0  0  0  0  0  0  0  0
   19.4306   71.1680   -6.3692 C   0  0  0  0  0  0  0  0  0  0  0  0
   19.8621   71.1637   -7.6320 C   0  0  0  0  0  0  0  0  0  0  0  0
   18.9396   70.7445   -8.7074 C   0  0  0  0  0  0  0  0  0  0  0  0
   17.0358   70.0991   -8.9679 H   0  0  0  0  0  0  0  0  0  0  0  0
   23.2423   73.5163   -2.0400 O   0  0  0  0  0  0  0  0  0  0  0  0
   22.5935   74.4411   -0.8836 P   0  0  2  0  0  0  0  0  0  0  0  0
   21.0025   74.2991   -1.1456 O   0  0  0  0  0  0  0  0  0  0  0  0
   23.0947   75.8563   -0.8733 O   0  0  0  0  0  0  0  0  0  0  0  0
   22.8549   73.6284    0.4852 O   0  0  0  0  0  0  0  0  0  0  0  0
   21.4908   71.7264    0.8468 O   0  0  0  0  0  0  0  0  0  0  0  0
   23.2338   72.2288    4.5587 O   0  0  0  0  0  0  0  0  0  0  0  0
   22.2739   74.5381    3.0486 O   0  0  0  0  0  0  0  0  0  0  0  0
   24.1520   70.1124    2.7899 O   0  0  0  0  0  0  0  0  0  0  0  0
   23.1638   72.2827    3.1338 C   0  0  2  0  0  0  0  0  0  0  0  0
   22.0019   73.1825    2.7122 C   0  0  2  0  0  0  0  0  0  0  0  0
   22.9487   70.8585    2.6168 C   0  0  1  0  0  0  0  0  0  0  0  0
   21.7516   73.0835    1.2067 C   0  0  1  0  0  0  0  0  0  0  0  0
   22.5803   70.8531    1.1360 C   0  0  1  0  0  0  0  0  0  0  0  0
   23.3702   73.1229    4.9099 H   0  0  0  0  0  0  0  0  0  0  0  0
   22.4339   74.6082    4.0024 H   0  0  0  0  0  0  0  0  0  0  0  0
   24.3977   70.1082    3.7282 H   0  0  0  0  0  0  0  0  0  0  0  0
   23.0667   68.6168    0.6223 O   0  0  0  0  0  0  0  0  0  0  0  0
   20.8815   69.2582    0.5101 O   0  0  0  0  0  0  0  0  0  0  0  0
   22.0565   69.5157    0.7245 C   0  0  0  0  0  0  0  0  0  0  0  0
  1  4  1  0
  1 24  1  0
  1  2  1  6
  1  3  2  0
 25 28  1  0
 25 24  1  0
 25 26  1  6
 25 27  2  0
  6 11  1  0
  6 12  1  0
 29 36  1  0
 29 37  1  0
  9  7  1  1
  7 13  1  0
 10  8  1  1
  8 14  1  0
  4  5  1  0
 36 28  1  6
 33 30  1  1
 30 38  1  0
 34 31  1  6
 31 39  1  0
 35 32  1  6
 32 40  1  0
 41 43  1  0
 15 19  2  0
 42 43  2  0
 16 22  2  0
 12 17  1  6
 17 19  1  0
 17 20  1  0
 18 19  1  0
 18 22  1  0
 18 23  1  0
  9 10  1  0
  9 11  1  0
 10 12  1  0
 11  5  1  6
 33 34  1  0
 33 35  1  0
 34 36  1  0
 35 37  1  0
 37 43  1  1
 20 21  2  0
 21 22  1  0
M  CHG  3   2  -1  26  -1  41  -1
M  END
>  <COMPND>  (161) 
    udp_gluA.pdb 

>  <AUTHOR>  (161) 
    GENERATED BY OPEN BABEL 3.1.1

>  <MASTER>  (161) 
        0    0    0    0    0    0    0    0   56    0   56    0

>  <minimizedAffinity>  (161) 
-8.40736

>  <CNNscore>  (161) 
0.8777309656

>  <CNNaffinity>  (161) 
4.9569869041

>  <CNN_VS>  (161) 
4.3509011269

>  <CNNaffinity_variance>  (161) 
0.0662501752

$$$$
162
     RDKit          3D

 43 45  0  0  0  0  0  0  0  0999 V2000
   21.9076   72.2042   -1.1930 P   0  0  2  0  0  0  0  0  0  0  0  0
   21.0163   72.4127    0.1416 O   0  0  0  0  0  0  0  0  0  0  0  0
   23.0690   73.1442   -1.3325 O   0  0  0  0  0  0  0  0  0  0  0  0
   20.8240   72.2431   -2.3939 O   0  0  0  0  0  0  0  0  0  0  0  0
   20.1601   71.0428   -2.7447 C   0  0  0  0  0  0  0  0  0  0  0  0
   18.2508   71.8459   -3.9642 O   0  0  0  0  0  0  0  0  0  0  0  0
   16.5829   70.3349   -1.9826 O   0  0  0  0  0  0  0  0  0  0  0  0
   16.5855   68.6761   -4.1470 O   0  0  0  0  0  0  0  0  0  0  0  0
   17.8512   69.9937   -2.5427 C   0  0  1  0  0  0  0  0  0  0  0  0
   17.6862   69.5449   -3.9792 C   0  0  2  0  0  0  0  0  0  0  0  0
   18.6556   71.2769   -2.7002 C   0  0  1  0  0  0  0  0  0  0  0  0
   17.5031   70.8675   -4.7038 C   0  0  2  0  0  0  0  0  0  0  0  0
   16.0509   69.5308   -1.8726 H   0  0  0  0  0  0  0  0  0  0  0  0
   16.7506   67.8487   -3.6674 H   0  0  0  0  0  0  0  0  0  0  0  0
   15.9621   70.0886   -6.9388 O   0  0  0  0  0  0  0  0  0  0  0  0
   19.4903   70.7467   -9.8306 O   0  0  0  0  0  0  0  0  0  0  0  0
   17.9939   70.8262   -6.0522 N   0  0  0  0  0  0  0  0  0  0  0  0
   17.7211   70.4162   -8.3768 N   0  0  0  0  0  0  0  0  0  0  0  0
   17.1377   70.4201   -7.1029 C   0  0  0  0  0  0  0  0  0  0  0  0
   19.3083   71.1867   -6.3232 C   0  0  0  0  0  0  0  0  0  0  0  0
   19.8501   71.1780   -7.5426 C   0  0  0  0  0  0  0  0  0  0  0  0
   19.0234   70.7655   -8.6957 C   0  0  0  0  0  0  0  0  0  0  0  0
   17.1451   70.1350   -9.1241 H   0  0  0  0  0  0  0  0  0  0  0  0
   22.3119   70.6409   -1.1188 O   0  0  0  0  0  0  0  0  0  0  0  0
   22.5337   69.6609    0.1477 P   0  0  2  0  0  0  0  0  0  0  0  0
   23.5162   68.5157   -0.4384 O   0  0  0  0  0  0  0  0  0  0  0  0
   21.2627   69.1361    0.7503 O   0  0  0  0  0  0  0  0  0  0  0  0
   23.4566   70.5080    1.1641 O   0  0  0  0  0  0  0  0  0  0  0  0
   24.8912   70.0195    2.9841 O   0  0  0  0  0  0  0  0  0  0  0  0
   22.8437   73.3208    4.3902 O   0  0  0  0  0  0  0  0  0  0  0  0
   21.4352   71.2116    2.9403 O   0  0  0  0  0  0  0  0  0  0  0  0
   25.5884   73.5887    3.4707 O   0  0  0  0  0  0  0  0  0  0  0  0
   23.4477   72.4851    3.4029 C   0  0  2  0  0  0  0  0  0  0  0  0
   22.7740   71.1128    3.4122 C   0  0  2  0  0  0  0  0  0  0  0  0
   24.9339   72.3508    3.7421 C   0  0  1  0  0  0  0  0  0  0  0  0
   23.5395   70.1215    2.5346 C   0  0  1  0  0  0  0  0  0  0  0  0
   25.5980   71.2557    2.9123 C   0  0  1  0  0  0  0  0  0  0  0  0
   21.8985   73.4206    4.1952 H   0  0  0  0  0  0  0  0  0  0  0  0
   20.9437   71.8392    3.4925 H   0  0  0  0  0  0  0  0  0  0  0  0
   25.1752   74.2942    3.9926 H   0  0  0  0  0  0  0  0  0  0  0  0
   27.0825   71.4086    4.7219 O   0  0  0  0  0  0  0  0  0  0  0  0
   27.7955   70.2600    2.8858 O   0  0  0  0  0  0  0  0  0  0  0  0
   26.9398   70.9079    3.4697 C   0  0  0  0  0  0  0  0  0  0  0  0
  1  4  1  0
  1 24  1  0
  1  2  1  1
  1  3  2  0
 25 28  1  0
 25 24  1  0
 25 26  1  6
 25 27  2  0
  6 11  1  0
  6 12  1  0
 29 36  1  0
 29 37  1  0
  9  7  1  6
  7 13  1  0
 10  8  1  1
  8 14  1  0
  4  5  1  0
 36 28  1  6
 33 30  1  1
 30 38  1  0
 34 31  1  6
 31 39  1  0
 35 32  1  6
 32 40  1  0
 41 43  1  0
 15 19  2  0
 42 43  2  0
 16 22  2  0
 12 17  1  6
 17 19  1  0
 17 20  1  0
 18 19  1  0
 18 22  1  0
 18 23  1  0
  9 10  1  0
  9 11  1  0
 10 12  1  0
 11  5  1  6
 33 34  1  0
 33 35  1  0
 34 36  1  0
 35 37  1  0
 37 43  1  1
 20 21  2  0
 21 22  1  0
M  CHG  3   2  -1  26  -1  41  -1
M  END
>  <COMPND>  (162) 
    udp_gluA.pdb 

>  <AUTHOR>  (162) 
    GENERATED BY OPEN BABEL 3.1.1

>  <MASTER>  (162) 
        0    0    0    0    0    0    0    0   56    0   56    0

>  <minimizedAffinity>  (162) 
-9.09320

>  <CNNscore>  (162) 
0.7577259541

>  <CNNaffinity>  (162) 
4.8131508827

>  <CNN_VS>  (162) 
3.6470494270

>  <CNNaffinity_variance>  (162) 
0.2437487841

$$$$
163
     RDKit          3D

 43 45  0  0  0  0  0  0  0  0999 V2000
   21.7893   70.2469   -0.3856 P   0  0  2  0  0  0  0  0  0  0  0  0
   21.0391   69.2173    0.6124 O   0  0  0  0  0  0  0  0  0  0  0  0
   22.3370   69.6291   -1.6387 O   0  0  0  0  0  0  0  0  0  0  0  0
   22.8703   70.9888    0.5624 O   0  0  0  0  0  0  0  0  0  0  0  0
   23.7629   70.1936    1.3210 C   0  0  0  0  0  0  0  0  0  0  0  0
   24.6446   70.0795    3.5542 O   0  0  0  0  0  0  0  0  0  0  0  0
   22.2837   71.7377    4.3715 O   0  0  0  0  0  0  0  0  0  0  0  0
   24.2927   73.5778    4.2556 O   0  0  0  0  0  0  0  0  0  0  0  0
   23.0524   71.7906    3.1695 C   0  0  1  0  0  0  0  0  0  0  0  0
   24.3974   72.4329    3.4354 C   0  0  2  0  0  0  0  0  0  0  0  0
   23.4466   70.3668    2.8009 C   0  0  1  0  0  0  0  0  0  0  0  0
   25.1602   71.3021    4.1044 C   0  0  2  0  0  0  0  0  0  0  0  0
   22.0202   72.6360    4.6270 H   0  0  0  0  0  0  0  0  0  0  0  0
   23.7995   74.2686    3.7850 H   0  0  0  0  0  0  0  0  0  0  0  0
   26.9395   73.0370    5.4462 O   0  0  0  0  0  0  0  0  0  0  0  0
   30.5562   71.4728    3.0553 O   0  0  0  0  0  0  0  0  0  0  0  0
   26.5718   71.3689    3.8523 N   0  0  0  0  0  0  0  0  0  0  0  0
   28.7390   72.2570    4.2534 N   0  0  0  0  0  0  0  0  0  0  0  0
   27.3770   72.2756    4.5815 C   0  0  0  0  0  0  0  0  0  0  0  0
   27.1451   70.5420    2.8939 C   0  0  0  0  0  0  0  0  0  0  0  0
   28.4450   70.5356    2.5923 C   0  0  0  0  0  0  0  0  0  0  0  0
   29.3554   71.4536    3.3079 C   0  0  0  0  0  0  0  0  0  0  0  0
   29.3193   72.8811    4.7465 H   0  0  0  0  0  0  0  0  0  0  0  0
   20.6748   71.3917   -0.6308 O   0  0  0  0  0  0  0  0  0  0  0  0
   19.2071   71.3172   -1.3047 P   0  0  2  0  0  0  0  0  0  0  0  0
   18.4292   72.5695   -0.6361 O   0  0  0  0  0  0  0  0  0  0  0  0
   18.5161   69.9958   -1.1309 O   0  0  0  0  0  0  0  0  0  0  0  0
   19.4390   71.7547   -2.8400 O   0  0  0  0  0  0  0  0  0  0  0  0
   18.5862   70.4364   -4.6132 O   0  0  0  0  0  0  0  0  0  0  0  0
   21.4403   72.7084   -6.5522 O   0  0  0  0  0  0  0  0  0  0  0  0
   21.9944   71.5647   -3.9217 O   0  0  0  0  0  0  0  0  0  0  0  0
   18.6186   73.3342   -6.8635 O   0  0  0  0  0  0  0  0  0  0  0  0
   20.4408   72.4316   -5.5712 C   0  0  2  0  0  0  0  0  0  0  0  0
   20.8702   71.2310   -4.7277 C   0  0  2  0  0  0  0  0  0  0  0  0
   19.1316   72.1271   -6.3029 C   0  0  1  0  0  0  0  0  0  0  0  0
   19.7300   70.7624   -3.8226 C   0  0  1  0  0  0  0  0  0  0  0  0
   18.0860   71.5463   -5.3554 C   0  0  1  0  0  0  0  0  0  0  0  0
   22.2815   72.9048   -6.1105 H   0  0  0  0  0  0  0  0  0  0  0  0
   22.7216   71.8631   -4.4895 H   0  0  0  0  0  0  0  0  0  0  0  0
   19.2746   73.7142   -7.4684 H   0  0  0  0  0  0  0  0  0  0  0  0
   16.2053   71.9253   -6.7048 O   0  0  0  0  0  0  0  0  0  0  0  0
   16.7136   69.7574   -6.2142 O   0  0  0  0  0  0  0  0  0  0  0  0
   16.9482   70.9528   -6.1206 C   0  0  0  0  0  0  0  0  0  0  0  0
  1  4  1  0
  1 24  1  0
  1  2  1  1
  1  3  2  0
 25 28  1  0
 25 24  1  0
 25 26  1  1
 25 27  2  0
  6 11  1  0
  6 12  1  0
 29 36  1  0
 29 37  1  0
  9  7  1  1
  7 13  1  0
 10  8  1  1
  8 14  1  0
  4  5  1  0
 36 28  1  1
 33 30  1  6
 30 38  1  0
 34 31  1  1
 31 39  1  0
 35 32  1  1
 32 40  1  0
 41 43  1  0
 15 19  2  0
 42 43  2  0
 16 22  2  0
 12 17  1  6
 17 19  1  0
 17 20  1  0
 18 19  1  0
 18 22  1  0
 18 23  1  0
  9 10  1  0
  9 11  1  0
 10 12  1  0
 11  5  1  6
 33 34  1  0
 33 35  1  0
 34 36  1  0
 35 37  1  0
 37 43  1  6
 20 21  2  0
 21 22  1  0
M  CHG  3   2  -1  26  -1  41  -1
M  END
>  <COMPND>  (163) 
    udp_gluA.pdb 

>  <AUTHOR>  (163) 
    GENERATED BY OPEN BABEL 3.1.1

>  <MASTER>  (163) 
        0    0    0    0    0    0    0    0   56    0   56    0

>  <minimizedAffinity>  (163) 
-8.83413

>  <CNNscore>  (163) 
0.7344385982

>  <CNNaffinity>  (163) 
4.7456407547

>  <CNN_VS>  (163) 
3.4853818417

>  <CNNaffinity_variance>  (163) 
0.2660803795

$$$$
164
     RDKit          3D

 43 45  0  0  0  0  0  0  0  0999 V2000
   24.0591   70.6281    2.3762 P   0  0  2  0  0  0  0  0  0  0  0  0
   23.4753   71.5596    3.5637 O   0  0  0  0  0  0  0  0  0  0  0  0
   24.2946   69.1948    2.7530 O   0  0  0  0  0  0  0  0  0  0  0  0
   25.3566   71.4383    1.8491 O   0  0  0  0  0  0  0  0  0  0  0  0
   26.6418   70.9544    2.1934 C   0  0  0  0  0  0  0  0  0  0  0  0
   28.5256   71.3134    3.6426 O   0  0  0  0  0  0  0  0  0  0  0  0
   27.4808   74.1009    4.0028 O   0  0  0  0  0  0  0  0  0  0  0  0
   29.4948   74.4482    2.1975 O   0  0  0  0  0  0  0  0  0  0  0  0
   27.4651   73.2733    2.8395 C   0  0  1  0  0  0  0  0  0  0  0  0
   28.8511   73.1917    2.2356 C   0  0  2  0  0  0  0  0  0  0  0  0
   27.2278   71.8376    3.2875 C   0  0  1  0  0  0  0  0  0  0  0  0
   29.5424   72.2084    3.1645 C   0  0  2  0  0  0  0  0  0  0  0  0
   27.6310   75.0234    3.7418 H   0  0  0  0  0  0  0  0  0  0  0  0
   29.0171   75.0380    1.5927 H   0  0  0  0  0  0  0  0  0  0  0  0
   32.2501   72.1172    3.9627 O   0  0  0  0  0  0  0  0  0  0  0  0
   33.3556   69.2493    0.5280 O   0  0  0  0  0  0  0  0  0  0  0  0
   30.5592   71.4459    2.4968 N   0  0  0  0  0  0  0  0  0  0  0  0
   32.7983   70.6897    2.2506 N   0  0  0  0  0  0  0  0  0  0  0  0
   31.8894   71.4688    2.9786 C   0  0  0  0  0  0  0  0  0  0  0  0
   30.2348   70.6856    1.3798 C   0  0  0  0  0  0  0  0  0  0  0  0
   31.1121   69.9480    0.6965 C   0  0  0  0  0  0  0  0  0  0  0  0
   32.5233   69.9176    1.1336 C   0  0  0  0  0  0  0  0  0  0  0  0
   33.7310   70.6914    2.5658 H   0  0  0  0  0  0  0  0  0  0  0  0
   22.9875   70.8439    1.1855 O   0  0  0  0  0  0  0  0  0  0  0  0
   22.5089   69.8584   -0.0034 P   0  0  2  0  0  0  0  0  0  0  0  0
   21.1019   69.2746    0.5440 O   0  0  0  0  0  0  0  0  0  0  0  0
   23.5136   68.8057   -0.3725 O   0  0  0  0  0  0  0  0  0  0  0  0
   22.0979   70.8447   -1.2121 O   0  0  0  0  0  0  0  0  0  0  0  0
   20.3006   70.0259   -2.5192 O   0  0  0  0  0  0  0  0  0  0  0  0
   21.5071   73.3120   -4.7132 O   0  0  0  0  0  0  0  0  0  0  0  0
   23.4831   71.5156   -3.5288 O   0  0  0  0  0  0  0  0  0  0  0  0
   19.0904   73.4402   -3.1026 O   0  0  0  0  0  0  0  0  0  0  0  0
   21.2862   72.5451   -3.5296 C   0  0  2  0  0  0  0  0  0  0  0  0
   22.0881   71.2456   -3.6048 C   0  0  2  0  0  0  0  0  0  0  0  0
   19.7892   72.2420   -3.4351 C   0  0  1  0  0  0  0  0  0  0  0  0
   21.7017   70.2977   -2.4685 C   0  0  1  0  0  0  0  0  0  0  0  0
   19.4993   71.1950   -2.3634 C   0  0  1  0  0  0  0  0  0  0  0  0
   22.4520   73.5166   -4.7945 H   0  0  0  0  0  0  0  0  0  0  0  0
   23.7352   72.1168   -4.2468 H   0  0  0  0  0  0  0  0  0  0  0  0
   19.2666   74.1149   -3.7768 H   0  0  0  0  0  0  0  0  0  0  0  0
   17.9597   69.5199   -1.7933 O   0  0  0  0  0  0  0  0  0  0  0  0
   17.2189   71.1949   -3.1514 O   0  0  0  0  0  0  0  0  0  0  0  0
   18.1077   70.6684   -2.4989 C   0  0  0  0  0  0  0  0  0  0  0  0
  1  4  1  0
  1 24  1  0
  1  2  1  1
  1  3  2  0
 25 28  1  0
 25 24  1  0
 25 26  1  1
 25 27  2  0
  6 11  1  0
  6 12  1  0
 29 36  1  0
 29 37  1  0
  9  7  1  1
  7 13  1  0
 10  8  1  1
  8 14  1  0
  4  5  1  0
 36 28  1  1
 33 30  1  6
 30 38  1  0
 34 31  1  1
 31 39  1  0
 35 32  1  1
 32 40  1  0
 41 43  1  0
 15 19  2  0
 42 43  2  0
 16 22  2  0
 12 17  1  6
 17 19  1  0
 17 20  1  0
 18 19  1  0
 18 22  1  0
 18 23  1  0
  9 10  1  0
  9 11  1  0
 10 12  1  0
 11  5  1  6
 33 34  1  0
 33 35  1  0
 34 36  1  0
 35 37  1  0
 37 43  1  6
 20 21  2  0
 21 22  1  0
M  CHG  3   2  -1  26  -1  41  -1
M  END
>  <COMPND>  (164) 
    udp_gluA.pdb 

>  <AUTHOR>  (164) 
    GENERATED BY OPEN BABEL 3.1.1

>  <MASTER>  (164) 
        0    0    0    0    0    0    0    0   56    0   56    0

>  <minimizedAffinity>  (164) 
-9.10890

>  <CNNscore>  (164) 
0.7301846147

>  <CNNaffinity>  (164) 
4.7528543472

>  <CNN_VS>  (164) 
3.4704611301

>  <CNNaffinity_variance>  (164) 
0.1108331233

$$$$
165
     RDKit          3D

 43 45  0  0  0  0  0  0  0  0999 V2000
   22.5993   70.1874   -1.7330 P   0  0  2  0  0  0  0  0  0  0  0  0
   23.2223   71.3118   -2.7161 O   0  0  0  0  0  0  0  0  0  0  0  0
   23.1133   68.7954   -1.9565 O   0  0  0  0  0  0  0  0  0  0  0  0
   21.0001   70.3791   -1.8877 O   0  0  0  0  0  0  0  0  0  0  0  0
   20.4530   70.4711   -3.1902 C   0  0  0  0  0  0  0  0  0  0  0  0
   18.7602   71.7331   -4.3388 O   0  0  0  0  0  0  0  0  0  0  0  0
   16.8285   70.6082   -2.3401 O   0  0  0  0  0  0  0  0  0  0  0  0
   16.3883   69.0517   -4.5355 O   0  0  0  0  0  0  0  0  0  0  0  0
   17.9667   69.9918   -2.9427 C   0  0  1  0  0  0  0  0  0  0  0  0
   17.6669   69.6316   -4.3824 C   0  0  2  0  0  0  0  0  0  0  0  0
   19.0480   71.0525   -3.0982 C   0  0  1  0  0  0  0  0  0  0  0  0
   17.7852   70.9782   -5.0756 C   0  0  2  0  0  0  0  0  0  0  0  0
   16.1241   69.9499   -2.2305 H   0  0  0  0  0  0  0  0  0  0  0  0
   16.3640   68.1967   -4.0769 H   0  0  0  0  0  0  0  0  0  0  0  0
   16.0732   70.4348   -7.2552 O   0  0  0  0  0  0  0  0  0  0  0  0
   19.5670   70.5337  -10.2598 O   0  0  0  0  0  0  0  0  0  0  0  0
   18.2210   70.8567   -6.4381 N   0  0  0  0  0  0  0  0  0  0  0  0
   17.8151   70.4836   -8.7494 N   0  0  0  0  0  0  0  0  0  0  0  0
   17.2799   70.5819   -7.4583 C   0  0  0  0  0  0  0  0  0  0  0  0
   19.5657   71.0108   -6.7525 C   0  0  0  0  0  0  0  0  0  0  0  0
   20.0609   70.9144   -7.9879 C   0  0  0  0  0  0  0  0  0  0  0  0
   19.1446   70.6283   -9.1113 C   0  0  0  0  0  0  0  0  0  0  0  0
   17.1795   70.2908   -9.4761 H   0  0  0  0  0  0  0  0  0  0  0  0
   22.8965   70.7869   -0.2616 O   0  0  0  0  0  0  0  0  0  0  0  0
   21.9453   70.9317    1.0376 P   0  0  2  0  0  0  0  0  0  0  0  0
   21.2990   69.4554    1.1892 O   0  0  0  0  0  0  0  0  0  0  0  0
   20.9380   72.0410    0.9427 O   0  0  0  0  0  0  0  0  0  0  0  0
   22.9662   71.0589    2.2802 O   0  0  0  0  0  0  0  0  0  0  0  0
   23.6253   73.3335    2.2585 O   0  0  0  0  0  0  0  0  0  0  0  0
   25.4385   71.9657    5.7095 O   0  0  0  0  0  0  0  0  0  0  0  0
   25.4598   70.3411    3.2816 O   0  0  0  0  0  0  0  0  0  0  0  0
   23.0399   73.6002    5.8708 O   0  0  0  0  0  0  0  0  0  0  0  0
   24.4304   72.0187    4.7001 C   0  0  2  0  0  0  0  0  0  0  0  0
   25.0517   71.7030    3.3392 C   0  0  2  0  0  0  0  0  0  0  0  0
   23.8355   73.4287    4.6994 C   0  0  1  0  0  0  0  0  0  0  0  0
   24.0583   71.9736    2.2084 C   0  0  1  0  0  0  0  0  0  0  0  0
   22.9564   73.6618    3.4742 C   0  0  1  0  0  0  0  0  0  0  0  0
   25.8310   71.0786    5.7285 H   0  0  0  0  0  0  0  0  0  0  0  0
   26.0900   70.1623    3.9966 H   0  0  0  0  0  0  0  0  0  0  0  0
   23.5876   73.4544    6.6579 H   0  0  0  0  0  0  0  0  0  0  0  0
   23.5208   75.8707    4.0252 O   0  0  0  0  0  0  0  0  0  0  0  0
   21.7500   75.5691    2.6208 O   0  0  0  0  0  0  0  0  0  0  0  0
   22.6526   75.1152    3.3080 C   0  0  0  0  0  0  0  0  0  0  0  0
  1  4  1  0
  1 24  1  0
  1  2  1  6
  1  3  2  0
 25 28  1  0
 25 24  1  0
 25 26  1  1
 25 27  2  0
  6 11  1  0
  6 12  1  0
 29 36  1  0
 29 37  1  0
  9  7  1  6
  7 13  1  0
 10  8  1  1
  8 14  1  0
  4  5  1  0
 36 28  1  1
 33 30  1  1
 30 38  1  0
 34 31  1  1
 31 39  1  0
 35 32  1  1
 32 40  1  0
 41 43  1  0
 15 19  2  0
 42 43  2  0
 16 22  2  0
 12 17  1  6
 17 19  1  0
 17 20  1  0
 18 19  1  0
 18 22  1  0
 18 23  1  0
  9 10  1  0
  9 11  1  0
 10 12  1  0
 11  5  1  6
 33 34  1  0
 33 35  1  0
 34 36  1  0
 35 37  1  0
 37 43  1  6
 20 21  2  0
 21 22  1  0
M  CHG  3   2  -1  26  -1  41  -1
M  END
>  <COMPND>  (165) 
    udp_gluA.pdb 

>  <AUTHOR>  (165) 
    GENERATED BY OPEN BABEL 3.1.1

>  <MASTER>  (165) 
        0    0    0    0    0    0    0    0   56    0   56    0

>  <minimizedAffinity>  (165) 
-7.87836

>  <CNNscore>  (165) 
0.7132003903

>  <CNNaffinity>  (165) 
4.8189940453

>  <CNN_VS>  (165) 
3.4369084835

>  <CNNaffinity_variance>  (165) 
0.3034156263

$$$$
166
     RDKit          3D

 43 45  0  0  0  0  0  0  0  0999 V2000
   21.9749   70.0781   -0.0307 P   0  0  2  0  0  0  0  0  0  0  0  0
   20.9406   69.1293    0.7748 O   0  0  0  0  0  0  0  0  0  0  0  0
   22.7693   69.3859   -1.0991 O   0  0  0  0  0  0  0  0  0  0  0  0
   22.8391   70.7902    1.1373 O   0  0  0  0  0  0  0  0  0  0  0  0
   23.5086   69.9709    2.0781 C   0  0  0  0  0  0  0  0  0  0  0  0
   24.5013   70.3940    4.2259 O   0  0  0  0  0  0  0  0  0  0  0  0
   22.2327   72.2987    4.6918 O   0  0  0  0  0  0  0  0  0  0  0  0
   24.2832   73.9668    4.0219 O   0  0  0  0  0  0  0  0  0  0  0  0
   22.9393   72.0130    3.4845 C   0  0  1  0  0  0  0  0  0  0  0  0
   24.3135   72.6475    3.5189 C   0  0  2  0  0  0  0  0  0  0  0  0
   23.2742   70.5278    3.4764 C   0  0  1  0  0  0  0  0  0  0  0  0
   25.0783   71.6948    4.4218 C   0  0  2  0  0  0  0  0  0  0  0  0
   22.0078   73.2423    4.7197 H   0  0  0  0  0  0  0  0  0  0  0  0
   23.7855   74.5342    3.4117 H   0  0  0  0  0  0  0  0  0  0  0  0
   26.9867   73.5973    5.2674 O   0  0  0  0  0  0  0  0  0  0  0  0
   30.4147   71.3790    3.1293 O   0  0  0  0  0  0  0  0  0  0  0  0
   26.4763   71.6386    4.1005 N   0  0  0  0  0  0  0  0  0  0  0  0
   28.6920   72.4912    4.2009 N   0  0  0  0  0  0  0  0  0  0  0  0
   27.3506   72.6449    4.5750 C   0  0  0  0  0  0  0  0  0  0  0  0
   26.9685   70.5955    3.3256 C   0  0  0  0  0  0  0  0  0  0  0  0
   28.2498   70.4624    2.9772 C   0  0  0  0  0  0  0  0  0  0  0  0
   29.2288   71.4717    3.4314 C   0  0  0  0  0  0  0  0  0  0  0  0
   29.3194   73.1806    4.5177 H   0  0  0  0  0  0  0  0  0  0  0  0
   21.0290   71.2754   -0.5640 O   0  0  0  0  0  0  0  0  0  0  0  0
   19.7980   72.0502    0.1417 P   0  0  2  0  0  0  0  0  0  0  0  0
   20.1252   73.6083   -0.1510 O   0  0  0  0  0  0  0  0  0  0  0  0
   19.6138   71.7193    1.5944 O   0  0  0  0  0  0  0  0  0  0  0  0
   18.5207   71.7210   -0.7871 O   0  0  0  0  0  0  0  0  0  0  0  0
   18.6171   72.1876   -3.1071 O   0  0  0  0  0  0  0  0  0  0  0  0
   14.5529   71.7541   -2.5048 O   0  0  0  0  0  0  0  0  0  0  0  0
   16.1874   73.2203   -0.5778 O   0  0  0  0  0  0  0  0  0  0  0  0
   16.0723   69.6336   -3.7878 O   0  0  0  0  0  0  0  0  0  0  0  0
   15.9389   71.5023   -2.2729 C   0  0  2  0  0  0  0  0  0  0  0  0
   16.6332   72.8012   -1.8625 C   0  0  2  0  0  0  0  0  0  0  0  0
   16.5448   70.9616   -3.5699 C   0  0  1  0  0  0  0  0  0  0  0  0
   18.1517   72.6227   -1.8290 C   0  0  1  0  0  0  0  0  0  0  0  0
   18.0690   70.9321   -3.5028 C   0  0  1  0  0  0  0  0  0  0  0  0
   14.1466   72.0986   -1.6940 H   0  0  0  0  0  0  0  0  0  0  0  0
   15.2246   73.3352   -0.5918 H   0  0  0  0  0  0  0  0  0  0  0  0
   15.1033   69.6384   -3.8324 H   0  0  0  0  0  0  0  0  0  0  0  0
   20.0035   70.8698   -4.8277 O   0  0  0  0  0  0  0  0  0  0  0  0
   18.0172   70.4541   -5.8671 O   0  0  0  0  0  0  0  0  0  0  0  0
   18.6558   70.7230   -4.8608 C   0  0  0  0  0  0  0  0  0  0  0  0
  1  4  1  0
  1 24  1  0
  1  2  1  1
  1  3  2  0
 25 28  1  0
 25 24  1  0
 25 26  1  1
 25 27  2  0
  6 11  1  0
  6 12  1  0
 29 36  1  0
 29 37  1  0
  9  7  1  1
  7 13  1  0
 10  8  1  1
  8 14  1  0
  4  5  1  0
 36 28  1  1
 33 30  1  6
 30 38  1  0
 34 31  1  1
 31 39  1  0
 35 32  1  1
 32 40  1  0
 41 43  1  0
 15 19  2  0
 42 43  2  0
 16 22  2  0
 12 17  1  6
 17 19  1  0
 17 20  1  0
 18 19  1  0
 18 22  1  0
 18 23  1  0
  9 10  1  0
  9 11  1  0
 10 12  1  0
 11  5  1  6
 33 34  1  0
 33 35  1  0
 34 36  1  0
 35 37  1  0
 37 43  1  6
 20 21  2  0
 21 22  1  0
M  CHG  3   2  -1  26  -1  41  -1
M  END
>  <COMPND>  (166) 
    udp_gluA.pdb 

>  <AUTHOR>  (166) 
    GENERATED BY OPEN BABEL 3.1.1

>  <MASTER>  (166) 
        0    0    0    0    0    0    0    0   56    0   56    0

>  <minimizedAffinity>  (166) 
-8.17681

>  <CNNscore>  (166) 
0.6447207332

>  <CNNaffinity>  (166) 
4.4669218063

>  <CNN_VS>  (166) 
2.8799171448

>  <CNNaffinity_variance>  (166) 
0.0984493271

$$$$
167
     RDKit          3D

 43 45  0  0  0  0  0  0  0  0999 V2000
   20.6814   70.8235    0.4642 P   0  0  2  0  0  0  0  0  0  0  0  0
   19.6339   71.5068    1.4912 O   0  0  0  0  0  0  0  0  0  0  0  0
   20.8380   69.3386    0.6135 O   0  0  0  0  0  0  0  0  0  0  0  0
   22.0322   71.6947    0.6503 O   0  0  0  0  0  0  0  0  0  0  0  0
   23.1329   71.1018    1.3146 C   0  0  0  0  0  0  0  0  0  0  0  0
   24.0410   70.5849    3.4793 O   0  0  0  0  0  0  0  0  0  0  0  0
   21.9563   72.4325    4.5892 O   0  0  0  0  0  0  0  0  0  0  0  0
   24.2011   73.9804    4.6190 O   0  0  0  0  0  0  0  0  0  0  0  0
   22.6970   72.5325    3.3727 C   0  0  1  0  0  0  0  0  0  0  0  0
   24.1247   72.9457    3.6608 C   0  0  2  0  0  0  0  0  0  0  0  0
   22.8783   71.1268    2.8162 C   0  0  1  0  0  0  0  0  0  0  0  0
   24.7359   71.6454    4.1543 C   0  0  2  0  0  0  0  0  0  0  0  0
   21.8278   73.3185    4.9636 H   0  0  0  0  0  0  0  0  0  0  0  0
   23.7992   74.7863    4.2572 H   0  0  0  0  0  0  0  0  0  0  0  0
   26.7849   72.7733    5.7374 O   0  0  0  0  0  0  0  0  0  0  0  0
   30.0761   71.2174    2.9106 O   0  0  0  0  0  0  0  0  0  0  0  0
   26.1368   71.5501    3.8552 N   0  0  0  0  0  0  0  0  0  0  0  0
   28.4221   71.9981    4.3274 N   0  0  0  0  0  0  0  0  0  0  0  0
   27.0848   72.1525    4.7158 C   0  0  0  0  0  0  0  0  0  0  0  0
   26.5591   70.8652    2.7223 C   0  0  0  0  0  0  0  0  0  0  0  0
   27.8374   70.7264    2.3653 C   0  0  0  0  0  0  0  0  0  0  0  0
   28.8909   71.3267    3.2098 C   0  0  0  0  0  0  0  0  0  0  0  0
   29.1003   72.4107    4.9098 H   0  0  0  0  0  0  0  0  0  0  0  0
   20.1370   71.3013   -0.9808 O   0  0  0  0  0  0  0  0  0  0  0  0
   20.8172   71.2358   -2.4460 P   0  0  2  0  0  0  0  0  0  0  0  0
   21.6833   69.8694   -2.3910 O   0  0  0  0  0  0  0  0  0  0  0  0
   21.6108   72.4567   -2.8116 O   0  0  0  0  0  0  0  0  0  0  0  0
   19.5978   70.9048   -3.4489 O   0  0  0  0  0  0  0  0  0  0  0  0
   17.8401   72.3312   -4.1457 O   0  0  0  0  0  0  0  0  0  0  0  0
   16.0304   68.6213   -4.3173 O   0  0  0  0  0  0  0  0  0  0  0  0
   17.7718   69.3172   -2.0773 O   0  0  0  0  0  0  0  0  0  0  0  0
   16.8659   69.9517   -6.7632 O   0  0  0  0  0  0  0  0  0  0  0  0
   17.1128   69.5483   -4.4007 C   0  0  2  0  0  0  0  0  0  0  0  0
   17.2985   70.2411   -3.0505 C   0  0  2  0  0  0  0  0  0  0  0  0
   16.7736   70.5751   -5.4836 C   0  0  1  0  0  0  0  0  0  0  0  0
   18.2909   71.3993   -3.1618 C   0  0  1  0  0  0  0  0  0  0  0  0
   17.7341   71.7603   -5.4480 C   0  0  1  0  0  0  0  0  0  0  0  0
   16.2235   67.9589   -3.6352 H   0  0  0  0  0  0  0  0  0  0  0  0
   17.1470   68.5795   -2.0017 H   0  0  0  0  0  0  0  0  0  0  0  0
   16.2595   69.1956   -6.7990 H   0  0  0  0  0  0  0  0  0  0  0  0
   15.9549   72.6252   -6.7080 O   0  0  0  0  0  0  0  0  0  0  0  0
   17.8197   73.9229   -6.5142 O   0  0  0  0  0  0  0  0  0  0  0  0
   17.2097   72.8929   -6.2691 C   0  0  0  0  0  0  0  0  0  0  0  0
  1  4  1  0
  1 24  1  0
  1  2  1  1
  1  3  2  0
 25 28  1  0
 25 24  1  0
 25 26  1  1
 25 27  2  0
  6 11  1  0
  6 12  1  0
 29 36  1  0
 29 37  1  0
  9  7  1  1
  7 13  1  0
 10  8  1  1
  8 14  1  0
  4  5  1  0
 36 28  1  6
 33 30  1  1
 30 38  1  0
 34 31  1  1
 31 39  1  0
 35 32  1  6
 32 40  1  0
 41 43  1  0
 15 19  2  0
 42 43  2  0
 16 22  2  0
 12 17  1  6
 17 19  1  0
 17 20  1  0
 18 19  1  0
 18 22  1  0
 18 23  1  0
  9 10  1  0
  9 11  1  0
 10 12  1  0
 11  5  1  6
 33 34  1  0
 33 35  1  0
 34 36  1  0
 35 37  1  0
 37 43  1  6
 20 21  2  0
 21 22  1  0
M  CHG  3   2  -1  26  -1  41  -1
M  END
>  <COMPND>  (167) 
    udp_gluA.pdb 

>  <AUTHOR>  (167) 
    GENERATED BY OPEN BABEL 3.1.1

>  <MASTER>  (167) 
        0    0    0    0    0    0    0    0   56    0   56    0

>  <minimizedAffinity>  (167) 
-8.51416

>  <CNNscore>  (167) 
0.6359617710

>  <CNNaffinity>  (167) 
4.5147504807

>  <CNN_VS>  (167) 
2.8712086678

>  <CNNaffinity_variance>  (167) 
0.2076955736

$$$$
168
     RDKit          3D

 43 45  0  0  0  0  0  0  0  0999 V2000
   20.4315   70.7196   -0.0127 P   0  0  2  0  0  0  0  0  0  0  0  0
   20.9591   69.3244    0.6149 O   0  0  0  0  0  0  0  0  0  0  0  0
   19.4803   71.4866    0.8584 O   0  0  0  0  0  0  0  0  0  0  0  0
   19.8677   70.3014   -1.4705 O   0  0  0  0  0  0  0  0  0  0  0  0
   19.6926   71.3145   -2.4438 C   0  0  0  0  0  0  0  0  0  0  0  0
   17.9757   72.1326   -3.9137 O   0  0  0  0  0  0  0  0  0  0  0  0
   16.0218   70.8018   -2.0690 O   0  0  0  0  0  0  0  0  0  0  0  0
   16.1898   69.0318   -4.1366 O   0  0  0  0  0  0  0  0  0  0  0  0
   17.3275   70.3774   -2.4611 C   0  0  1  0  0  0  0  0  0  0  0  0
   17.3053   69.8604   -3.8839 C   0  0  2  0  0  0  0  0  0  0  0  0
   18.2060   71.6148   -2.5855 C   0  0  1  0  0  0  0  0  0  0  0  0
   17.2703   71.1492   -4.6874 C   0  0  2  0  0  0  0  0  0  0  0  0
   15.4423   70.0283   -1.9831 H   0  0  0  0  0  0  0  0  0  0  0  0
   16.2589   68.2248   -3.6020 H   0  0  0  0  0  0  0  0  0  0  0  0
   16.0190   70.1023   -6.9928 O   0  0  0  0  0  0  0  0  0  0  0  0
   19.8163   70.6823   -9.5399 O   0  0  0  0  0  0  0  0  0  0  0  0
   17.9087   71.0153   -5.9662 N   0  0  0  0  0  0  0  0  0  0  0  0
   17.9118   70.3913   -8.2589 N   0  0  0  0  0  0  0  0  0  0  0  0
   17.1912   70.4768   -7.0604 C   0  0  0  0  0  0  0  0  0  0  0  0
   19.2294   71.4163   -6.1274 C   0  0  0  0  0  0  0  0  0  0  0  0
   19.9028   71.3287   -7.2761 C   0  0  0  0  0  0  0  0  0  0  0  0
   19.2261   70.7764   -8.4679 C   0  0  0  0  0  0  0  0  0  0  0  0
   17.4339   70.0176   -9.0344 H   0  0  0  0  0  0  0  0  0  0  0  0
   21.8023   71.5010   -0.3637 O   0  0  0  0  0  0  0  0  0  0  0  0
   22.1744   73.0730   -0.2992 P   0  0  2  0  0  0  0  0  0  0  0  0
   20.7418   73.7819   -0.0432 O   0  0  0  0  0  0  0  0  0  0  0  0
   22.9094   73.5818   -1.5054 O   0  0  0  0  0  0  0  0  0  0  0  0
   22.9701   73.2485    1.0930 O   0  0  0  0  0  0  0  0  0  0  0  0
   22.5705   71.7056    2.8449 O   0  0  0  0  0  0  0  0  0  0  0  0
   24.4426   74.7922    4.8539 O   0  0  0  0  0  0  0  0  0  0  0  0
   22.4229   75.3586    2.8205 O   0  0  0  0  0  0  0  0  0  0  0  0
   25.8977   72.3487    4.2515 O   0  0  0  0  0  0  0  0  0  0  0  0
   24.1627   73.9411    3.7424 C   0  0  2  0  0  0  0  0  0  0  0  0
   22.6882   74.0684    3.3589 C   0  0  2  0  0  0  0  0  0  0  0  0
   24.4829   72.5029    4.1557 C   0  0  1  0  0  0  0  0  0  0  0  0
   22.2976   73.0086    2.3279 C   0  0  1  0  0  0  0  0  0  0  0  0
   23.9507   71.4989    3.1372 C   0  0  1  0  0  0  0  0  0  0  0  0
   24.2465   75.7118    4.6147 H   0  0  0  0  0  0  0  0  0  0  0  0
   22.6687   76.0360    3.4694 H   0  0  0  0  0  0  0  0  0  0  0  0
   26.2491   72.9822    4.8966 H   0  0  0  0  0  0  0  0  0  0  0  0
   23.4954   70.1035    4.9667 O   0  0  0  0  0  0  0  0  0  0  0  0
   24.3595   69.1214    3.0992 O   0  0  0  0  0  0  0  0  0  0  0  0
   23.9714   70.1138    3.6969 C   0  0  0  0  0  0  0  0  0  0  0  0
  1  4  1  0
  1 24  1  0
  1  2  1  1
  1  3  2  0
 25 28  1  0
 25 24  1  0
 25 26  1  1
 25 27  2  0
  6 11  1  0
  6 12  1  0
 29 36  1  0
 29 37  1  0
  9  7  1  6
  7 13  1  0
 10  8  1  1
  8 14  1  0
  4  5  1  0
 36 28  1  6
 33 30  1  1
 30 38  1  0
 34 31  1  6
 31 39  1  0
 35 32  1  6
 32 40  1  0
 41 43  1  0
 15 19  2  0
 42 43  2  0
 16 22  2  0
 12 17  1  6
 17 19  1  0
 17 20  1  0
 18 19  1  0
 18 22  1  0
 18 23  1  0
  9 10  1  0
  9 11  1  0
 10 12  1  0
 11  5  1  6
 33 34  1  0
 33 35  1  0
 34 36  1  0
 35 37  1  0
 37 43  1  1
 20 21  2  0
 21 22  1  0
M  CHG  3   2  -1  26  -1  41  -1
M  END
>  <COMPND>  (168) 
    udp_gluA.pdb 

>  <AUTHOR>  (168) 
    GENERATED BY OPEN BABEL 3.1.1

>  <MASTER>  (168) 
        0    0    0    0    0    0    0    0   56    0   56    0

>  <minimizedAffinity>  (168) 
-8.38728

>  <CNNscore>  (168) 
0.6277968287

>  <CNNaffinity>  (168) 
4.8838148117

>  <CNN_VS>  (168) 
3.0660433769

>  <CNNaffinity_variance>  (168) 
0.1894443035

$$$$
169
     RDKit          3D

 43 45  0  0  0  0  0  0  0  0999 V2000
   22.3174   69.4329   -0.2222 P   0  0  2  0  0  0  0  0  0  0  0  0
   21.1145   69.0849    0.8029 O   0  0  0  0  0  0  0  0  0  0  0  0
   23.1528   68.2586   -0.6407 O   0  0  0  0  0  0  0  0  0  0  0  0
   23.1139   70.6372    0.5079 O   0  0  0  0  0  0  0  0  0  0  0  0
   24.3536   70.3496    1.1282 C   0  0  0  0  0  0  0  0  0  0  0  0
   25.4185   70.0514    3.2624 O   0  0  0  0  0  0  0  0  0  0  0  0
   22.8018   70.8740    4.4741 O   0  0  0  0  0  0  0  0  0  0  0  0
   24.2878   73.1527    4.6614 O   0  0  0  0  0  0  0  0  0  0  0  0
   23.4325   71.3424    3.2819 C   0  0  1  0  0  0  0  0  0  0  0  0
   24.5988   72.2445    3.6256 C   0  0  2  0  0  0  0  0  0  0  0  0
   24.1284   70.1594    2.6226 C   0  0  1  0  0  0  0  0  0  0  0  0
   25.6658   71.2410    4.0286 C   0  0  2  0  0  0  0  0  0  0  0  0
   22.3504   71.6124    4.9130 H   0  0  0  0  0  0  0  0  0  0  0  0
   23.6044   73.7704    4.3555 H   0  0  0  0  0  0  0  0  0  0  0  0
   27.0576   73.1273    5.6038 O   0  0  0  0  0  0  0  0  0  0  0  0
   30.7542   72.9668    2.8554 O   0  0  0  0  0  0  0  0  0  0  0  0
   26.9932   71.7098    3.7476 N   0  0  0  0  0  0  0  0  0  0  0  0
   28.8970   73.0463    4.2329 N   0  0  0  0  0  0  0  0  0  0  0  0
   27.6022   72.6589    4.6023 C   0  0  0  0  0  0  0  0  0  0  0  0
   27.6780   71.2296    2.6379 C   0  0  0  0  0  0  0  0  0  0  0  0
   28.9118   71.6083    2.2987 C   0  0  0  0  0  0  0  0  0  0  0  0
   29.6186   72.5974    3.1386 C   0  0  0  0  0  0  0  0  0  0  0  0
   29.3408   73.7077    4.8116 H   0  0  0  0  0  0  0  0  0  0  0  0
   21.5555   70.1834   -1.4343 O   0  0  0  0  0  0  0  0  0  0  0  0
   20.6297   71.5086   -1.4474 P   0  0  2  0  0  0  0  0  0  0  0  0
   21.6286   72.6521   -2.0086 O   0  0  0  0  0  0  0  0  0  0  0  0
   20.0000   71.8330   -0.1236 O   0  0  0  0  0  0  0  0  0  0  0  0
   19.5788   71.2620   -2.6461 O   0  0  0  0  0  0  0  0  0  0  0  0
   19.1587   69.2670   -3.8515 O   0  0  0  0  0  0  0  0  0  0  0  0
   18.2952   72.1543   -6.6774 O   0  0  0  0  0  0  0  0  0  0  0  0
   20.6277   72.4328   -4.9407 O   0  0  0  0  0  0  0  0  0  0  0  0
   16.1417   70.7307   -5.3407 O   0  0  0  0  0  0  0  0  0  0  0  0
   18.3875   71.6029   -5.3639 C   0  0  2  0  0  0  0  0  0  0  0  0
   19.8436   71.2512   -5.0577 C   0  0  2  0  0  0  0  0  0  0  0  0
   17.5151   70.3465   -5.3160 C   0  0  1  0  0  0  0  0  0  0  0  0
   19.9517   70.4511   -3.7589 C   0  0  1  0  0  0  0  0  0  0  0  0
   17.7726   69.5375   -4.0480 C   0  0  1  0  0  0  0  0  0  0  0  0
   18.8418   72.9540   -6.7318 H   0  0  0  0  0  0  0  0  0  0  0  0
   20.5634   72.9455   -5.7613 H   0  0  0  0  0  0  0  0  0  0  0  0
   15.9646   71.2465   -6.1428 H   0  0  0  0  0  0  0  0  0  0  0  0
   16.2046   68.1498   -5.1050 O   0  0  0  0  0  0  0  0  0  0  0  0
   17.5148   67.2027   -3.4970 O   0  0  0  0  0  0  0  0  0  0  0  0
   17.1768   68.1719   -4.1599 C   0  0  0  0  0  0  0  0  0  0  0  0
  1  4  1  0
  1 24  1  0
  1  2  1  1
  1  3  2  0
 25 28  1  0
 25 24  1  0
 25 26  1  6
 25 27  2  0
  6 11  1  0
  6 12  1  0
 29 36  1  0
 29 37  1  0
  9  7  1  1
  7 13  1  0
 10  8  1  1
  8 14  1  0
  4  5  1  0
 36 28  1  1
 33 30  1  6
 30 38  1  0
 34 31  1  1
 31 39  1  0
 35 32  1  1
 32 40  1  0
 41 43  1  0
 15 19  2  0
 42 43  2  0
 16 22  2  0
 12 17  1  6
 17 19  1  0
 17 20  1  0
 18 19  1  0
 18 22  1  0
 18 23  1  0
  9 10  1  0
  9 11  1  0
 10 12  1  0
 11  5  1  6
 33 34  1  0
 33 35  1  0
 34 36  1  0
 35 37  1  0
 37 43  1  6
 20 21  2  0
 21 22  1  0
M  CHG  3   2  -1  26  -1  41  -1
M  END
>  <COMPND>  (169) 
    udp_gluA.pdb 

>  <AUTHOR>  (169) 
    GENERATED BY OPEN BABEL 3.1.1

>  <MASTER>  (169) 
        0    0    0    0    0    0    0    0   56    0   56    0

>  <minimizedAffinity>  (169) 
-8.95172

>  <CNNscore>  (169) 
0.6186131239

>  <CNNaffinity>  (169) 
4.6138319969

>  <CNN_VS>  (169) 
2.8541769981

>  <CNNaffinity_variance>  (169) 
0.0224868990

$$$$
170
     RDKit          3D

 43 45  0  0  0  0  0  0  0  0999 V2000
   20.4090   70.6653   -0.1304 P   0  0  2  0  0  0  0  0  0  0  0  0
   20.9236   69.2863    0.5422 O   0  0  0  0  0  0  0  0  0  0  0  0
   19.3857   71.4170    0.6694 O   0  0  0  0  0  0  0  0  0  0  0  0
   19.9526   70.2250   -1.6189 O   0  0  0  0  0  0  0  0  0  0  0  0
   19.7431   71.2353   -2.5884 C   0  0  0  0  0  0  0  0  0  0  0  0
   17.9791   72.0750   -3.9886 O   0  0  0  0  0  0  0  0  0  0  0  0
   16.0866   70.7138   -2.1026 O   0  0  0  0  0  0  0  0  0  0  0  0
   16.1878   68.9766   -4.2021 O   0  0  0  0  0  0  0  0  0  0  0  0
   17.3789   70.2967   -2.5436 C   0  0  1  0  0  0  0  0  0  0  0  0
   17.3106   69.8020   -3.9728 C   0  0  2  0  0  0  0  0  0  0  0  0
   18.2526   71.5365   -2.6769 C   0  0  1  0  0  0  0  0  0  0  0  0
   17.2491   71.1033   -4.7544 C   0  0  2  0  0  0  0  0  0  0  0  0
   15.5104   69.9385   -2.0100 H   0  0  0  0  0  0  0  0  0  0  0  0
   16.2744   68.1613   -3.6827 H   0  0  0  0  0  0  0  0  0  0  0  0
   15.9040   70.1521   -7.0483 O   0  0  0  0  0  0  0  0  0  0  0  0
   19.6371   70.7116   -9.6931 O   0  0  0  0  0  0  0  0  0  0  0  0
   17.8457   70.9900   -6.0552 N   0  0  0  0  0  0  0  0  0  0  0  0
   17.7649   70.4307   -8.3632 N   0  0  0  0  0  0  0  0  0  0  0  0
   17.0827   70.4999   -7.1414 C   0  0  0  0  0  0  0  0  0  0  0  0
   19.1705   71.3634   -6.2455 C   0  0  0  0  0  0  0  0  0  0  0  0
   19.8071   71.2918   -7.4162 C   0  0  0  0  0  0  0  0  0  0  0  0
   19.0816   70.7897   -8.6015 C   0  0  0  0  0  0  0  0  0  0  0  0
   17.2549   70.0906   -9.1337 H   0  0  0  0  0  0  0  0  0  0  0  0
   21.7830   71.4743   -0.3960 O   0  0  0  0  0  0  0  0  0  0  0  0
   22.1911   73.0061   -0.0787 P   0  0  2  0  0  0  0  0  0  0  0  0
   20.7724   73.7842   -0.1257 O   0  0  0  0  0  0  0  0  0  0  0  0
   23.2356   73.5684   -0.9991 O   0  0  0  0  0  0  0  0  0  0  0  0
   22.6036   73.0052    1.4809 O   0  0  0  0  0  0  0  0  0  0  0  0
   24.6232   73.6259    2.5508 O   0  0  0  0  0  0  0  0  0  0  0  0
   23.3092   70.5388    4.9614 O   0  0  0  0  0  0  0  0  0  0  0  0
   23.1163   70.3322    2.0537 O   0  0  0  0  0  0  0  0  0  0  0  0
   23.0485   73.2950    5.8482 O   0  0  0  0  0  0  0  0  0  0  0  0
   23.1710   71.6574    4.0852 C   0  0  2  0  0  0  0  0  0  0  0  0
   23.8387   71.3439    2.7460 C   0  0  2  0  0  0  0  0  0  0  0  0
   23.8443   72.8621    4.7465 C   0  0  1  0  0  0  0  0  0  0  0  0
   23.9135   72.5928    1.8664 C   0  0  1  0  0  0  0  0  0  0  0  0
   23.9949   74.0230    3.7677 C   0  0  1  0  0  0  0  0  0  0  0  0
   22.8886   69.7611    4.5619 H   0  0  0  0  0  0  0  0  0  0  0  0
   23.0647   69.5369    2.6062 H   0  0  0  0  0  0  0  0  0  0  0  0
   22.9448   72.5653    6.4788 H   0  0  0  0  0  0  0  0  0  0  0  0
   25.6506   74.5528    5.3423 O   0  0  0  0  0  0  0  0  0  0  0  0
   25.0421   76.1937    3.8807 O   0  0  0  0  0  0  0  0  0  0  0  0
   24.9314   75.0543    4.3078 C   0  0  0  0  0  0  0  0  0  0  0  0
  1  4  1  0
  1 24  1  0
  1  2  1  1
  1  3  2  0
 25 28  1  0
 25 24  1  0
 25 26  1  1
 25 27  2  0
  6 11  1  0
  6 12  1  0
 29 36  1  0
 29 37  1  0
  9  7  1  6
  7 13  1  0
 10  8  1  1
  8 14  1  0
  4  5  1  0
 36 28  1  1
 33 30  1  1
 30 38  1  0
 34 31  1  6
 31 39  1  0
 35 32  1  1
 32 40  1  0
 41 43  1  0
 15 19  2  0
 42 43  2  0
 16 22  2  0
 12 17  1  6
 17 19  1  0
 17 20  1  0
 18 19  1  0
 18 22  1  0
 18 23  1  0
  9 10  1  0
  9 11  1  0
 10 12  1  0
 11  5  1  6
 33 34  1  0
 33 35  1  0
 34 36  1  0
 35 37  1  0
 37 43  1  1
 20 21  2  0
 21 22  1  0
M  CHG  3   2  -1  26  -1  41  -1
M  END
>  <COMPND>  (170) 
    udp_gluA.pdb 

>  <AUTHOR>  (170) 
    GENERATED BY OPEN BABEL 3.1.1

>  <MASTER>  (170) 
        0    0    0    0    0    0    0    0   56    0   56    0

>  <minimizedAffinity>  (170) 
-8.20234

>  <CNNscore>  (170) 
0.6123783588

>  <CNNaffinity>  (170) 
4.8263158798

>  <CNN_VS>  (170) 
2.9555313587

>  <CNNaffinity_variance>  (170) 
0.1434870809

$$$$
171
     RDKit          3D

 43 45  0  0  0  0  0  0  0  0999 V2000
   20.7503   70.4737    0.1621 P   0  0  2  0  0  0  0  0  0  0  0  0
   19.1789   70.8214    0.3314 O   0  0  0  0  0  0  0  0  0  0  0  0
   21.1559   69.1168    0.6582 O   0  0  0  0  0  0  0  0  0  0  0  0
   21.5025   71.7284    0.8532 O   0  0  0  0  0  0  0  0  0  0  0  0
   22.7589   71.5084    1.4678 C   0  0  0  0  0  0  0  0  0  0  0  0
   23.7153   70.7810    3.5496 O   0  0  0  0  0  0  0  0  0  0  0  0
   21.8164   72.6867    4.8739 O   0  0  0  0  0  0  0  0  0  0  0  0
   24.1662   74.0700    4.9035 O   0  0  0  0  0  0  0  0  0  0  0  0
   22.5118   72.8195    3.6341 C   0  0  1  0  0  0  0  0  0  0  0  0
   23.9763   73.1121    3.8833 C   0  0  2  0  0  0  0  0  0  0  0  0
   22.5684   71.4467    2.9779 C   0  0  1  0  0  0  0  0  0  0  0  0
   24.5119   71.7416    4.2609 C   0  0  2  0  0  0  0  0  0  0  0  0
   21.7675   73.5513    5.3118 H   0  0  0  0  0  0  0  0  0  0  0  0
   23.8089   74.9250    4.6148 H   0  0  0  0  0  0  0  0  0  0  0  0
   26.6998   72.6229    5.8143 O   0  0  0  0  0  0  0  0  0  0  0  0
   29.7519   71.0325    2.7486 O   0  0  0  0  0  0  0  0  0  0  0  0
   25.8888   71.5708    3.8924 N   0  0  0  0  0  0  0  0  0  0  0  0
   28.2178   71.8309    4.2855 N   0  0  0  0  0  0  0  0  0  0  0  0
   26.9121   72.0505    4.7438 C   0  0  0  0  0  0  0  0  0  0  0  0
   26.2141   70.9333    2.7013 C   0  0  0  0  0  0  0  0  0  0  0  0
   27.4633   70.7312    2.2778 C   0  0  0  0  0  0  0  0  0  0  0  0
   28.5909   71.2027    3.1083 C   0  0  0  0  0  0  0  0  0  0  0  0
   28.9472   72.1579    4.8603 H   0  0  0  0  0  0  0  0  0  0  0  0
   21.0083   70.7189   -1.4147 O   0  0  0  0  0  0  0  0  0  0  0  0
   20.6467   71.9745   -2.3667 P   0  0  2  0  0  0  0  0  0  0  0  0
   21.9525   72.1086   -3.3140 O   0  0  0  0  0  0  0  0  0  0  0  0
   20.2910   73.2291   -1.6227 O   0  0  0  0  0  0  0  0  0  0  0  0
   19.4881   71.4254   -3.3458 O   0  0  0  0  0  0  0  0  0  0  0  0
   18.9544   69.2722   -4.1752 O   0  0  0  0  0  0  0  0  0  0  0  0
   18.1078   71.6630   -7.4364 O   0  0  0  0  0  0  0  0  0  0  0  0
   20.5046   72.1373   -5.8349 O   0  0  0  0  0  0  0  0  0  0  0  0
   15.9473   70.5842   -5.8179 O   0  0  0  0  0  0  0  0  0  0  0  0
   18.2223   71.3429   -6.0499 C   0  0  2  0  0  0  0  0  0  0  0  0
   19.6734   70.9877   -5.7248 C   0  0  2  0  0  0  0  0  0  0  0  0
   17.3055   70.1519   -5.7622 C   0  0  1  0  0  0  0  0  0  0  0  0
   19.7938   70.4197   -4.3100 C   0  0  1  0  0  0  0  0  0  0  0  0
   17.5737   69.5635   -4.3800 C   0  0  1  0  0  0  0  0  0  0  0  0
   18.6819   72.4174   -7.6428 H   0  0  0  0  0  0  0  0  0  0  0  0
   20.4329   72.5031   -6.7301 H   0  0  0  0  0  0  0  0  0  0  0  0
   15.7636   70.9610   -6.6926 H   0  0  0  0  0  0  0  0  0  0  0  0
   17.6309   67.4378   -3.3903 O   0  0  0  0  0  0  0  0  0  0  0  0
   15.8960   67.8816   -4.8017 O   0  0  0  0  0  0  0  0  0  0  0  0
   16.9239   68.2257   -4.2378 C   0  0  0  0  0  0  0  0  0  0  0  0
  1  4  1  0
  1 24  1  0
  1  2  1  6
  1  3  2  0
 25 28  1  0
 25 24  1  0
 25 26  1  6
 25 27  2  0
  6 11  1  0
  6 12  1  0
 29 36  1  0
 29 37  1  0
  9  7  1  1
  7 13  1  0
 10  8  1  1
  8 14  1  0
  4  5  1  0
 36 28  1  1
 33 30  1  6
 30 38  1  0
 34 31  1  1
 31 39  1  0
 35 32  1  1
 32 40  1  0
 41 43  1  0
 15 19  2  0
 42 43  2  0
 16 22  2  0
 12 17  1  6
 17 19  1  0
 17 20  1  0
 18 19  1  0
 18 22  1  0
 18 23  1  0
  9 10  1  0
  9 11  1  0
 10 12  1  0
 11  5  1  6
 33 34  1  0
 33 35  1  0
 34 36  1  0
 35 37  1  0
 37 43  1  6
 20 21  2  0
 21 22  1  0
M  CHG  3   2  -1  26  -1  41  -1
M  END
>  <COMPND>  (171) 
    udp_gluA.pdb 

>  <AUTHOR>  (171) 
    GENERATED BY OPEN BABEL 3.1.1

>  <MASTER>  (171) 
        0    0    0    0    0    0    0    0   56    0   56    0

>  <minimizedAffinity>  (171) 
-8.90155

>  <CNNscore>  (171) 
0.6024170518

>  <CNNaffinity>  (171) 
4.6516075134

>  <CNN_VS>  (171) 
2.8022077084

>  <CNNaffinity_variance>  (171) 
0.1237110272

$$$$
172
     RDKit          3D

 43 45  0  0  0  0  0  0  0  0999 V2000
   23.1681   71.3568    3.3266 P   0  0  2  0  0  0  0  0  0  0  0  0
   22.5629   72.7745    3.8192 O   0  0  0  0  0  0  0  0  0  0  0  0
   23.2060   70.2850    4.3762 O   0  0  0  0  0  0  0  0  0  0  0  0
   24.5945   71.7497    2.6716 O   0  0  0  0  0  0  0  0  0  0  0  0
   25.7533   71.0688    3.1166 C   0  0  0  0  0  0  0  0  0  0  0  0
   27.7551   71.4008    4.4050 O   0  0  0  0  0  0  0  0  0  0  0  0
   26.5992   74.0597    5.1701 O   0  0  0  0  0  0  0  0  0  0  0  0
   28.3910   74.7262    3.2255 O   0  0  0  0  0  0  0  0  0  0  0  0
   26.5084   73.3580    3.9300 C   0  0  1  0  0  0  0  0  0  0  0  0
   27.8261   73.4324    3.1880 C   0  0  2  0  0  0  0  0  0  0  0  0
   26.4000   71.8710    4.2385 C   0  0  1  0  0  0  0  0  0  0  0  0
   28.6647   72.4064    3.9310 C   0  0  2  0  0  0  0  0  0  0  0  0
   26.6695   75.0123    4.9986 H   0  0  0  0  0  0  0  0  0  0  0  0
   27.8204   75.3423    2.7388 H   0  0  0  0  0  0  0  0  0  0  0  0
   31.4541   72.5802    4.3379 O   0  0  0  0  0  0  0  0  0  0  0  0
   32.3405   69.9898    0.6300 O   0  0  0  0  0  0  0  0  0  0  0  0
   29.6472   71.7870    3.0872 N   0  0  0  0  0  0  0  0  0  0  0  0
   31.8929   71.2907    2.4902 N   0  0  0  0  0  0  0  0  0  0  0  0
   31.0235   71.9360    3.3794 C   0  0  0  0  0  0  0  0  0  0  0  0
   29.2446   71.0409    1.9861 C   0  0  0  0  0  0  0  0  0  0  0  0
   30.0850   70.4315    1.1477 C   0  0  0  0  0  0  0  0  0  0  0  0
   31.5401   70.5384    1.3816 C   0  0  0  0  0  0  0  0  0  0  0  0
   32.8563   71.3818    2.6720 H   0  0  0  0  0  0  0  0  0  0  0  0
   22.2607   71.0036    2.0362 O   0  0  0  0  0  0  0  0  0  0  0  0
   22.4775   69.9287    0.8483 P   0  0  2  0  0  0  0  0  0  0  0  0
   21.0271   69.2213    0.7205 O   0  0  0  0  0  0  0  0  0  0  0  0
   23.6127   68.9742    1.0811 O   0  0  0  0  0  0  0  0  0  0  0  0
   22.6153   70.8194   -0.4896 O   0  0  0  0  0  0  0  0  0  0  0  0
   20.6644   71.1561   -1.7895 O   0  0  0  0  0  0  0  0  0  0  0  0
   23.6309   72.3723   -4.3950 O   0  0  0  0  0  0  0  0  0  0  0  0
   23.9874   69.9789   -2.7582 O   0  0  0  0  0  0  0  0  0  0  0  0
   21.9772   74.3445   -3.0435 O   0  0  0  0  0  0  0  0  0  0  0  0
   23.0160   72.1720   -3.1223 C   0  0  2  0  0  0  0  0  0  0  0  0
   22.7585   70.6804   -2.9074 C   0  0  2  0  0  0  0  0  0  0  0  0
   21.6967   72.9475   -3.1073 C   0  0  1  0  0  0  0  0  0  0  0  0
   21.8979   70.4472   -1.6649 C   0  0  1  0  0  0  0  0  0  0  0  0
   20.8403   72.5665   -1.9032 C   0  0  1  0  0  0  0  0  0  0  0  0
   24.4713   71.8886   -4.4279 H   0  0  0  0  0  0  0  0  0  0  0  0
   24.5386   70.1227   -3.5430 H   0  0  0  0  0  0  0  0  0  0  0  0
   22.5219   74.6000   -3.8043 H   0  0  0  0  0  0  0  0  0  0  0  0
   19.2059   73.4137   -3.3567 O   0  0  0  0  0  0  0  0  0  0  0  0
   18.6178   73.1524   -1.1692 O   0  0  0  0  0  0  0  0  0  0  0  0
   19.4420   73.0668   -2.0672 C   0  0  0  0  0  0  0  0  0  0  0  0
  1  4  1  0
  1 24  1  0
  1  2  1  1
  1  3  2  0
 25 28  1  0
 25 24  1  0
 25 26  1  6
 25 27  2  0
  6 11  1  0
  6 12  1  0
 29 36  1  0
 29 37  1  0
  9  7  1  1
  7 13  1  0
 10  8  1  1
  8 14  1  0
  4  5  1  0
 36 28  1  1
 33 30  1  6
 30 38  1  0
 34 31  1  1
 31 39  1  0
 35 32  1  1
 32 40  1  0
 41 43  1  0
 15 19  2  0
 42 43  2  0
 16 22  2  0
 12 17  1  6
 17 19  1  0
 17 20  1  0
 18 19  1  0
 18 22  1  0
 18 23  1  0
  9 10  1  0
  9 11  1  0
 10 12  1  0
 11  5  1  6
 33 34  1  0
 33 35  1  0
 34 36  1  0
 35 37  1  0
 37 43  1  6
 20 21  2  0
 21 22  1  0
M  CHG  3   2  -1  26  -1  41  -1
M  END
>  <COMPND>  (172) 
    udp_gluA.pdb 

>  <AUTHOR>  (172) 
    GENERATED BY OPEN BABEL 3.1.1

>  <MASTER>  (172) 
        0    0    0    0    0    0    0    0   56    0   56    0

>  <minimizedAffinity>  (172) 
-8.38819

>  <CNNscore>  (172) 
0.5890921354

>  <CNNaffinity>  (172) 
4.8501091003

>  <CNN_VS>  (172) 
2.8571610451

>  <CNNaffinity_variance>  (172) 
0.2428950518

$$$$
173
     RDKit          3D

 43 45  0  0  0  0  0  0  0  0999 V2000
   22.1865   70.0360    0.7559 P   0  0  2  0  0  0  0  0  0  0  0  0
   21.9393   71.3831    1.6179 O   0  0  0  0  0  0  0  0  0  0  0  0
   20.9964   69.1292    0.6424 O   0  0  0  0  0  0  0  0  0  0  0  0
   23.5064   69.3827    1.4259 O   0  0  0  0  0  0  0  0  0  0  0  0
   24.6266   70.2152    1.6637 C   0  0  0  0  0  0  0  0  0  0  0  0
   26.3273   70.1128    3.3592 O   0  0  0  0  0  0  0  0  0  0  0  0
   24.3071   71.3499    5.1976 O   0  0  0  0  0  0  0  0  0  0  0  0
   25.8761   73.4748    4.5202 O   0  0  0  0  0  0  0  0  0  0  0  0
   24.5251   71.5835    3.8060 C   0  0  1  0  0  0  0  0  0  0  0  0
   25.7804   72.4052    3.6029 C   0  0  2  0  0  0  0  0  0  0  0  0
   24.9043   70.2576    3.1608 C   0  0  1  0  0  0  0  0  0  0  0  0
   26.8720   71.3671    3.7991 C   0  0  2  0  0  0  0  0  0  0  0  0
   24.0634   72.1830    5.6314 H   0  0  0  0  0  0  0  0  0  0  0  0
   25.1598   74.1083    4.3541 H   0  0  0  0  0  0  0  0  0  0  0  0
   28.7948   73.3105    4.5079 O   0  0  0  0  0  0  0  0  0  0  0  0
   31.3527   72.4025    0.7827 O   0  0  0  0  0  0  0  0  0  0  0  0
   28.0501   71.6591    3.0325 N   0  0  0  0  0  0  0  0  0  0  0  0
   30.0665   72.8571    2.6513 N   0  0  0  0  0  0  0  0  0  0  0  0
   28.9523   72.6546    3.4764 C   0  0  0  0  0  0  0  0  0  0  0  0
   28.3030   70.9625    1.8570 C   0  0  0  0  0  0  0  0  0  0  0  0
   29.3694   71.1666    1.0812 C   0  0  0  0  0  0  0  0  0  0  0  0
   30.3606   72.1899    1.4732 C   0  0  0  0  0  0  0  0  0  0  0  0
   30.7078   73.5467    2.9387 H   0  0  0  0  0  0  0  0  0  0  0  0
   22.7376   70.6034   -0.6538 O   0  0  0  0  0  0  0  0  0  0  0  0
   22.7756   69.9346   -2.1252 P   0  0  2  0  0  0  0  0  0  0  0  0
   23.0106   68.3641   -1.8117 O   0  0  0  0  0  0  0  0  0  0  0  0
   23.7915   70.5394   -3.0505 O   0  0  0  0  0  0  0  0  0  0  0  0
   21.2537   70.0211   -2.6535 O   0  0  0  0  0  0  0  0  0  0  0  0
   20.5515   72.0575   -3.6378 O   0  0  0  0  0  0  0  0  0  0  0  0
   16.9461   70.1413   -3.0072 O   0  0  0  0  0  0  0  0  0  0  0  0
   19.0395   70.0656   -0.9709 O   0  0  0  0  0  0  0  0  0  0  0  0
   18.0740   70.2846   -5.6827 O   0  0  0  0  0  0  0  0  0  0  0  0
   18.3428   70.2304   -3.2890 C   0  0  2  0  0  0  0  0  0  0  0  0
   19.0588   70.9058   -2.1191 C   0  0  2  0  0  0  0  0  0  0  0  0
   18.5158   71.0550   -4.5665 C   0  0  1  0  0  0  0  0  0  0  0  0
   20.5107   71.2259   -2.4775 C   0  0  1  0  0  0  0  0  0  0  0  0
   19.9757   71.4406   -4.7872 C   0  0  1  0  0  0  0  0  0  0  0  0
   16.8116   69.6215   -2.1991 H   0  0  0  0  0  0  0  0  0  0  0  0
   18.1213   69.8582   -0.7380 H   0  0  0  0  0  0  0  0  0  0  0  0
   17.1462   70.0326   -5.5547 H   0  0  0  0  0  0  0  0  0  0  0  0
   18.9225   73.1776   -5.9599 O   0  0  0  0  0  0  0  0  0  0  0  0
   21.0981   72.7389   -6.4830 O   0  0  0  0  0  0  0  0  0  0  0  0
   20.0917   72.5027   -5.8316 C   0  0  0  0  0  0  0  0  0  0  0  0
  1  4  1  0
  1 24  1  0
  1  2  1  1
  1  3  2  0
 25 28  1  0
 25 24  1  0
 25 26  1  1
 25 27  2  0
  6 11  1  0
  6 12  1  0
 29 36  1  0
 29 37  1  0
  9  7  1  1
  7 13  1  0
 10  8  1  1
  8 14  1  0
  4  5  1  0
 36 28  1  6
 33 30  1  1
 30 38  1  0
 34 31  1  1
 31 39  1  0
 35 32  1  6
 32 40  1  0
 41 43  1  0
 15 19  2  0
 42 43  2  0
 16 22  2  0
 12 17  1  6
 17 19  1  0
 17 20  1  0
 18 19  1  0
 18 22  1  0
 18 23  1  0
  9 10  1  0
  9 11  1  0
 10 12  1  0
 11  5  1  6
 33 34  1  0
 33 35  1  0
 34 36  1  0
 35 37  1  0
 37 43  1  6
 20 21  2  0
 21 22  1  0
M  CHG  3   2  -1  26  -1  41  -1
M  END
>  <COMPND>  (173) 
    udp_gluA.pdb 

>  <AUTHOR>  (173) 
    GENERATED BY OPEN BABEL 3.1.1

>  <MASTER>  (173) 
        0    0    0    0    0    0    0    0   56    0   56    0

>  <minimizedAffinity>  (173) 
-8.67544

>  <CNNscore>  (173) 
0.5851529837

>  <CNNaffinity>  (173) 
4.6896791458

>  <CNN_VS>  (173) 
2.7441797256

>  <CNNaffinity_variance>  (173) 
0.0407667384

$$$$
174
     RDKit          3D

 43 45  0  0  0  0  0  0  0  0999 V2000
   22.3066   69.3414   -0.1465 P   0  0  2  0  0  0  0  0  0  0  0  0
   20.9317   69.3369    0.7070 O   0  0  0  0  0  0  0  0  0  0  0  0
   22.9820   68.0068   -0.2669 O   0  0  0  0  0  0  0  0  0  0  0  0
   23.1855   70.5143    0.5388 O   0  0  0  0  0  0  0  0  0  0  0  0
   24.3610   70.1555    1.2417 C   0  0  0  0  0  0  0  0  0  0  0  0
   25.3074   70.0188    3.4470 O   0  0  0  0  0  0  0  0  0  0  0  0
   22.6794   71.0694    4.4378 O   0  0  0  0  0  0  0  0  0  0  0  0
   24.2644   73.2879    4.4859 O   0  0  0  0  0  0  0  0  0  0  0  0
   23.3882   71.3919    3.2410 C   0  0  1  0  0  0  0  0  0  0  0  0
   24.5795   72.2708    3.5581 C   0  0  2  0  0  0  0  0  0  0  0  0
   24.0559   70.1210    2.7337 C   0  0  1  0  0  0  0  0  0  0  0  0
   25.5758   71.2649    4.1091 C   0  0  2  0  0  0  0  0  0  0  0  0
   22.2443   71.8661    4.7809 H   0  0  0  0  0  0  0  0  0  0  0  0
   23.6274   73.9025    4.0878 H   0  0  0  0  0  0  0  0  0  0  0  0
   26.9820   73.2312    5.5696 O   0  0  0  0  0  0  0  0  0  0  0  0
   30.7925   72.6430    3.0441 O   0  0  0  0  0  0  0  0  0  0  0  0
   26.9364   71.6454    3.8544 N   0  0  0  0  0  0  0  0  0  0  0  0
   28.8782   72.9371    4.3097 N   0  0  0  0  0  0  0  0  0  0  0  0
   27.5499   72.6447    4.6463 C   0  0  0  0  0  0  0  0  0  0  0  0
   27.6487   71.0305    2.8320 C   0  0  0  0  0  0  0  0  0  0  0  0
   28.9143   71.3197    2.5231 C   0  0  0  0  0  0  0  0  0  0  0  0
   29.6280   72.3532    3.3016 C   0  0  0  0  0  0  0  0  0  0  0  0
   29.3258   73.6311    4.8457 H   0  0  0  0  0  0  0  0  0  0  0  0
   21.8581   69.9984   -1.5536 O   0  0  0  0  0  0  0  0  0  0  0  0
   21.2607   71.4602   -1.8999 P   0  0  2  0  0  0  0  0  0  0  0  0
   22.3831   72.0962   -2.8777 O   0  0  0  0  0  0  0  0  0  0  0  0
   20.9444   72.2975   -0.6946 O   0  0  0  0  0  0  0  0  0  0  0  0
   19.9995   71.1694   -2.8628 O   0  0  0  0  0  0  0  0  0  0  0  0
   19.3174   69.2236   -4.0281 O   0  0  0  0  0  0  0  0  0  0  0  0
   18.1953   72.2112   -6.6516 O   0  0  0  0  0  0  0  0  0  0  0  0
   20.7630   72.3456   -5.2648 O   0  0  0  0  0  0  0  0  0  0  0  0
   16.1907   70.8538   -5.0422 O   0  0  0  0  0  0  0  0  0  0  0  0
   18.4487   71.6259   -5.3744 C   0  0  2  0  0  0  0  0  0  0  0  0
   19.9154   71.2030   -5.2872 C   0  0  2  0  0  0  0  0  0  0  0  0
   17.5338   70.4086   -5.2221 C   0  0  1  0  0  0  0  0  0  0  0  0
   20.1705   70.3689   -4.0310 C   0  0  1  0  0  0  0  0  0  0  0  0
   17.9318   69.5598   -4.0182 C   0  0  1  0  0  0  0  0  0  0  0  0
   18.7656   72.9870   -6.7708 H   0  0  0  0  0  0  0  0  0  0  0  0
   20.6062   72.8797   -6.0589 H   0  0  0  0  0  0  0  0  0  0  0  0
   15.9251   71.3954   -5.8017 H   0  0  0  0  0  0  0  0  0  0  0  0
   16.3528   68.1811   -5.0706 O   0  0  0  0  0  0  0  0  0  0  0  0
   17.4977   67.2948   -3.3091 O   0  0  0  0  0  0  0  0  0  0  0  0
   17.2624   68.2249   -4.0657 C   0  0  0  0  0  0  0  0  0  0  0  0
  1  4  1  0
  1 24  1  0
  1  2  1  1
  1  3  2  0
 25 28  1  0
 25 24  1  0
 25 26  1  6
 25 27  2  0
  6 11  1  0
  6 12  1  0
 29 36  1  0
 29 37  1  0
  9  7  1  1
  7 13  1  0
 10  8  1  1
  8 14  1  0
  4  5  1  0
 36 28  1  1
 33 30  1  6
 30 38  1  0
 34 31  1  1
 31 39  1  0
 35 32  1  1
 32 40  1  0
 41 43  1  0
 15 19  2  0
 42 43  2  0
 16 22  2  0
 12 17  1  6
 17 19  1  0
 17 20  1  0
 18 19  1  0
 18 22  1  0
 18 23  1  0
  9 10  1  0
  9 11  1  0
 10 12  1  0
 11  5  1  6
 33 34  1  0
 33 35  1  0
 34 36  1  0
 35 37  1  0
 37 43  1  6
 20 21  2  0
 21 22  1  0
M  CHG  3   2  -1  26  -1  41  -1
M  END
>  <COMPND>  (174) 
    udp_gluA.pdb 

>  <AUTHOR>  (174) 
    GENERATED BY OPEN BABEL 3.1.1

>  <MASTER>  (174) 
        0    0    0    0    0    0    0    0   56    0   56    0

>  <minimizedAffinity>  (174) 
-9.21986

>  <CNNscore>  (174) 
0.5590763092

>  <CNNaffinity>  (174) 
4.8353509903

>  <CNN_VS>  (174) 
2.7033302784

>  <CNNaffinity_variance>  (174) 
0.3627399802

$$$$
175
     RDKit          3D

 43 45  0  0  0  0  0  0  0  0999 V2000
   21.2262   70.4667    0.8166 P   0  0  2  0  0  0  0  0  0  0  0  0
   20.2597   71.2116    1.8795 O   0  0  0  0  0  0  0  0  0  0  0  0
   21.0573   68.9775    0.7419 O   0  0  0  0  0  0  0  0  0  0  0  0
   22.7076   70.9871    1.2075 O   0  0  0  0  0  0  0  0  0  0  0  0
   23.5081   70.1779    2.0494 C   0  0  0  0  0  0  0  0  0  0  0  0
   24.5994   70.4369    4.1754 O   0  0  0  0  0  0  0  0  0  0  0  0
   22.4030   72.3605    4.8589 O   0  0  0  0  0  0  0  0  0  0  0  0
   24.4675   74.0196    4.2098 O   0  0  0  0  0  0  0  0  0  0  0  0
   23.0515   72.1373    3.6067 C   0  0  1  0  0  0  0  0  0  0  0  0
   24.4422   72.7355    3.6226 C   0  0  2  0  0  0  0  0  0  0  0  0
   23.3464   70.6482    3.4893 C   0  0  1  0  0  0  0  0  0  0  0  0
   25.2181   71.7082    4.4292 C   0  0  2  0  0  0  0  0  0  0  0  0
   22.2045   73.3054    4.9567 H   0  0  0  0  0  0  0  0  0  0  0  0
   23.9603   74.6371    3.6590 H   0  0  0  0  0  0  0  0  0  0  0  0
   27.2289   73.4410    5.3940 O   0  0  0  0  0  0  0  0  0  0  0  0
   30.4855   71.3540    2.8874 O   0  0  0  0  0  0  0  0  0  0  0  0
   26.5997   71.6399    4.0453 N   0  0  0  0  0  0  0  0  0  0  0  0
   28.8487   72.4006    4.1439 N   0  0  0  0  0  0  0  0  0  0  0  0
   27.5294   72.5580    4.5884 C   0  0  0  0  0  0  0  0  0  0  0  0
   27.0217   70.6715    3.1426 C   0  0  0  0  0  0  0  0  0  0  0  0
   28.2828   70.5337    2.7284 C   0  0  0  0  0  0  0  0  0  0  0  0
   29.3163   71.4535    3.2472 C   0  0  0  0  0  0  0  0  0  0  0  0
   29.5137   73.0295    4.5066 H   0  0  0  0  0  0  0  0  0  0  0  0
   20.9187   71.2493   -0.5639 O   0  0  0  0  0  0  0  0  0  0  0  0
   19.5847   71.3100   -1.4751 P   0  0  2  0  0  0  0  0  0  0  0  0
   18.7936   72.5943   -0.8876 O   0  0  0  0  0  0  0  0  0  0  0  0
   18.7842   70.0399   -1.4804 O   0  0  0  0  0  0  0  0  0  0  0  0
   20.1028   71.7809   -2.9285 O   0  0  0  0  0  0  0  0  0  0  0  0
   20.3236   70.6996   -5.0240 O   0  0  0  0  0  0  0  0  0  0  0  0
   23.7179   73.0529   -4.9306 O   0  0  0  0  0  0  0  0  0  0  0  0
   22.8520   71.6073   -2.5442 O   0  0  0  0  0  0  0  0  0  0  0  0
   21.4540   73.8221   -6.5841 O   0  0  0  0  0  0  0  0  0  0  0  0
   22.3609   72.7111   -4.6481 C   0  0  2  0  0  0  0  0  0  0  0  0
   22.3170   71.4092   -3.8477 C   0  0  2  0  0  0  0  0  0  0  0  0
   21.6286   72.5414   -5.9811 C   0  0  1  0  0  0  0  0  0  0  0  0
   20.8835   70.8910   -3.7243 C   0  0  1  0  0  0  0  0  0  0  0  0
   20.2564   71.9032   -5.7855 C   0  0  1  0  0  0  0  0  0  0  0  0
   24.2031   73.1658   -4.0981 H   0  0  0  0  0  0  0  0  0  0  0  0
   23.7614   71.9364   -2.6150 H   0  0  0  0  0  0  0  0  0  0  0  0
   22.3201   74.2392   -6.7139 H   0  0  0  0  0  0  0  0  0  0  0  0
   18.3404   71.3901   -7.0374 O   0  0  0  0  0  0  0  0  0  0  0  0
   20.3560   71.1549   -8.0771 O   0  0  0  0  0  0  0  0  0  0  0  0
   19.6944   71.4432   -7.0912 C   0  0  0  0  0  0  0  0  0  0  0  0
  1  4  1  0
  1 24  1  0
  1  2  1  1
  1  3  2  0
 25 28  1  0
 25 24  1  0
 25 26  1  1
 25 27  2  0
  6 11  1  0
  6 12  1  0
 29 36  1  0
 29 37  1  0
  9  7  1  1
  7 13  1  0
 10  8  1  1
  8 14  1  0
  4  5  1  0
 36 28  1  1
 33 30  1  6
 30 38  1  0
 34 31  1  1
 31 39  1  0
 35 32  1  1
 32 40  1  0
 41 43  1  0
 15 19  2  0
 42 43  2  0
 16 22  2  0
 12 17  1  6
 17 19  1  0
 17 20  1  0
 18 19  1  0
 18 22  1  0
 18 23  1  0
  9 10  1  0
  9 11  1  0
 10 12  1  0
 11  5  1  6
 33 34  1  0
 33 35  1  0
 34 36  1  0
 35 37  1  0
 37 43  1  6
 20 21  2  0
 21 22  1  0
M  CHG  3   2  -1  26  -1  41  -1
M  END
>  <COMPND>  (175) 
    udp_gluA.pdb 

>  <AUTHOR>  (175) 
    GENERATED BY OPEN BABEL 3.1.1

>  <MASTER>  (175) 
        0    0    0    0    0    0    0    0   56    0   56    0

>  <minimizedAffinity>  (175) 
-9.27740

>  <CNNscore>  (175) 
0.5248804092

>  <CNNaffinity>  (175) 
4.5972414017

>  <CNN_VS>  (175) 
2.4130020142

>  <CNNaffinity_variance>  (175) 
0.0140605224

$$$$
176
     RDKit          3D

 43 45  0  0  0  0  0  0  0  0999 V2000
   20.8704   70.6682    0.5903 P   0  0  2  0  0  0  0  0  0  0  0  0
   19.8604   71.4241    1.6039 O   0  0  0  0  0  0  0  0  0  0  0  0
   20.9148   69.1754    0.7363 O   0  0  0  0  0  0  0  0  0  0  0  0
   22.2787   71.4368    0.8000 O   0  0  0  0  0  0  0  0  0  0  0  0
   23.3155   70.7704    1.4967 C   0  0  0  0  0  0  0  0  0  0  0  0
   24.2683   70.4730    3.6833 O   0  0  0  0  0  0  0  0  0  0  0  0
   22.1246   72.3252    4.6656 O   0  0  0  0  0  0  0  0  0  0  0  0
   24.3061   73.9560    4.5326 O   0  0  0  0  0  0  0  0  0  0  0  0
   22.8466   72.3511    3.4341 C   0  0  1  0  0  0  0  0  0  0  0  0
   24.2600   72.8422    3.6655 C   0  0  2  0  0  0  0  0  0  0  0  0
   23.0774   70.9118    2.9945 C   0  0  1  0  0  0  0  0  0  0  0  0
   24.9282   71.6127    4.2568 C   0  0  2  0  0  0  0  0  0  0  0  0
   21.9652   73.2339    4.9665 H   0  0  0  0  0  0  0  0  0  0  0  0
   23.8682   74.7125    4.1107 H   0  0  0  0  0  0  0  0  0  0  0  0
   26.9281   73.1003    5.5849 O   0  0  0  0  0  0  0  0  0  0  0  0
   30.2676   71.2811    2.9805 O   0  0  0  0  0  0  0  0  0  0  0  0
   26.3282   71.5470    3.9461 N   0  0  0  0  0  0  0  0  0  0  0  0
   28.5893   72.1936    4.2858 N   0  0  0  0  0  0  0  0  0  0  0  0
   27.2505   72.3359    4.6735 C   0  0  0  0  0  0  0  0  0  0  0  0
   26.7751   70.7077    2.9327 C   0  0  0  0  0  0  0  0  0  0  0  0
   28.0545   70.5827    2.5747 C   0  0  0  0  0  0  0  0  0  0  0  0
   29.0820   71.3727    3.2843 C   0  0  0  0  0  0  0  0  0  0  0  0
   29.2498   72.7343    4.7765 H   0  0  0  0  0  0  0  0  0  0  0  0
   20.3849   71.1887   -0.8610 O   0  0  0  0  0  0  0  0  0  0  0  0
   19.0604   72.0002   -1.3090 P   0  0  2  0  0  0  0  0  0  0  0  0
   19.4207   73.5328   -0.9327 O   0  0  0  0  0  0  0  0  0  0  0  0
   17.7894   71.4940   -0.6907 O   0  0  0  0  0  0  0  0  0  0  0  0
   19.0823   71.9609   -2.9216 O   0  0  0  0  0  0  0  0  0  0  0  0
   17.1724   71.4704   -4.2334 O   0  0  0  0  0  0  0  0  0  0  0  0
   20.2419   70.5631   -6.8454 O   0  0  0  0  0  0  0  0  0  0  0  0
   20.4109   69.7856   -4.0345 O   0  0  0  0  0  0  0  0  0  0  0  0
   18.7219   73.0188   -7.1768 O   0  0  0  0  0  0  0  0  0  0  0  0
   19.6027   71.2650   -5.7793 C   0  0  2  0  0  0  0  0  0  0  0  0
   19.2369   70.2824   -4.6665 C   0  0  2  0  0  0  0  0  0  0  0  0
   18.3425   71.9289   -6.3387 C   0  0  1  0  0  0  0  0  0  0  0  0
   18.3506   70.9518   -3.6152 C   0  0  1  0  0  0  0  0  0  0  0  0
   17.4501   72.4608   -5.2210 C   0  0  1  0  0  0  0  0  0  0  0  0
   21.0457   70.1329   -6.5135 H   0  0  0  0  0  0  0  0  0  0  0  0
   20.9781   69.3597   -4.6959 H   0  0  0  0  0  0  0  0  0  0  0  0
   19.2904   72.6938   -7.8924 H   0  0  0  0  0  0  0  0  0  0  0  0
   15.9166   72.2944   -6.9880 O   0  0  0  0  0  0  0  0  0  0  0  0
   15.2510   73.4501   -5.1385 O   0  0  0  0  0  0  0  0  0  0  0  0
   16.0929   72.8033   -5.7434 C   0  0  0  0  0  0  0  0  0  0  0  0
  1  4  1  0
  1 24  1  0
  1  2  1  1
  1  3  2  0
 25 28  1  0
 25 24  1  0
 25 26  1  6
 25 27  2  0
  6 11  1  0
  6 12  1  0
 29 36  1  0
 29 37  1  0
  9  7  1  1
  7 13  1  0
 10  8  1  1
  8 14  1  0
  4  5  1  0
 36 28  1  6
 33 30  1  6
 30 38  1  0
 34 31  1  1
 31 39  1  0
 35 32  1  6
 32 40  1  0
 41 43  1  0
 15 19  2  0
 42 43  2  0
 16 22  2  0
 12 17  1  6
 17 19  1  0
 17 20  1  0
 18 19  1  0
 18 22  1  0
 18 23  1  0
  9 10  1  0
  9 11  1  0
 10 12  1  0
 11  5  1  6
 33 34  1  0
 33 35  1  0
 34 36  1  0
 35 37  1  0
 37 43  1  6
 20 21  2  0
 21 22  1  0
M  CHG  3   2  -1  26  -1  41  -1
M  END
>  <COMPND>  (176) 
    udp_gluA.pdb 

>  <AUTHOR>  (176) 
    GENERATED BY OPEN BABEL 3.1.1

>  <MASTER>  (176) 
        0    0    0    0    0    0    0    0   56    0   56    0

>  <minimizedAffinity>  (176) 
-8.24590

>  <CNNscore>  (176) 
0.5019231439

>  <CNNaffinity>  (176) 
4.4007596970

>  <CNN_VS>  (176) 
2.2088432312

>  <CNNaffinity_variance>  (176) 
0.0606339574

$$$$
177
     RDKit          3D

 43 45  0  0  0  0  0  0  0  0999 V2000
   22.6695   72.1286   -2.9559 P   0  0  2  0  0  0  0  0  0  0  0  0
   23.6892   72.2554   -4.2061 O   0  0  0  0  0  0  0  0  0  0  0  0
   22.7888   73.2156   -1.9283 O   0  0  0  0  0  0  0  0  0  0  0  0
   22.9034   70.6217   -2.4150 O   0  0  0  0  0  0  0  0  0  0  0  0
   23.6560   70.4379   -1.2300 C   0  0  0  0  0  0  0  0  0  0  0  0
   23.7408   69.1931    0.8245 O   0  0  0  0  0  0  0  0  0  0  0  0
   20.7442   69.1692    0.7169 O   0  0  0  0  0  0  0  0  0  0  0  0
   21.2598   71.1435    2.5259 O   0  0  0  0  0  0  0  0  0  0  0  0
   21.6545   70.1958    0.3217 C   0  0  1  0  0  0  0  0  0  0  0  0
   22.2370   70.8777    1.5415 C   0  0  2  0  0  0  0  0  0  0  0  0
   22.8805   69.5281   -0.2860 C   0  0  1  0  0  0  0  0  0  0  0  0
   23.2727   69.8668    2.0035 C   0  0  2  0  0  0  0  0  0  0  0  0
   19.9526   69.5716    1.1082 H   0  0  0  0  0  0  0  0  0  0  0  0
   20.6244   71.7924    2.1837 H   0  0  0  0  0  0  0  0  0  0  0  0
   23.3309   70.5490    4.7436 O   0  0  0  0  0  0  0  0  0  0  0  0
   27.6058   72.2413    4.4188 O   0  0  0  0  0  0  0  0  0  0  0  0
   24.3882   70.4867    2.6611 N   0  0  0  0  0  0  0  0  0  0  0  0
   25.4596   71.3921    4.5790 N   0  0  0  0  0  0  0  0  0  0  0  0
   24.3152   70.7882    4.0416 C   0  0  0  0  0  0  0  0  0  0  0  0
   25.5379   70.7878    1.9410 C   0  0  0  0  0  0  0  0  0  0  0  0
   26.6208   71.3633    2.4672 C   0  0  0  0  0  0  0  0  0  0  0  0
   26.6261   71.7116    3.9032 C   0  0  0  0  0  0  0  0  0  0  0  0
   25.4317   71.6133    5.5380 H   0  0  0  0  0  0  0  0  0  0  0  0
   21.2244   72.0367   -3.6742 O   0  0  0  0  0  0  0  0  0  0  0  0
   20.2642   73.1885   -4.2783 P   0  0  2  0  0  0  0  0  0  0  0  0
   21.3008   74.3720   -4.6594 O   0  0  0  0  0  0  0  0  0  0  0  0
   19.1549   73.6104   -3.3588 O   0  0  0  0  0  0  0  0  0  0  0  0
   19.7707   72.6062   -5.6995 O   0  0  0  0  0  0  0  0  0  0  0  0
   18.8893   70.4317   -5.3776 O   0  0  0  0  0  0  0  0  0  0  0  0
   18.5332   70.8860   -9.4684 O   0  0  0  0  0  0  0  0  0  0  0  0
   20.9439   71.7827   -8.0832 O   0  0  0  0  0  0  0  0  0  0  0  0
   16.1873   71.1078   -7.7659 O   0  0  0  0  0  0  0  0  0  0  0  0
   18.5633   71.3154   -8.1073 C   0  0  2  0  0  0  0  0  0  0  0  0
   19.9244   70.9825   -7.4957 C   0  0  2  0  0  0  0  0  0  0  0  0
   17.4489   70.5837   -7.3558 C   0  0  1  0  0  0  0  0  0  0  0  0
   19.9169   71.2161   -5.9843 C   0  0  1  0  0  0  0  0  0  0  0  0
   17.5841   70.7628   -5.8465 C   0  0  1  0  0  0  0  0  0  0  0  0
   19.2330   71.3378   -9.9658 H   0  0  0  0  0  0  0  0  0  0  0  0
   20.9541   71.6397   -9.0422 H   0  0  0  0  0  0  0  0  0  0  0  0
   16.0887   71.0002   -8.7249 H   0  0  0  0  0  0  0  0  0  0  0  0
   16.1140   68.9403   -5.9848 O   0  0  0  0  0  0  0  0  0  0  0  0
   16.5506   69.7690   -3.9059 O   0  0  0  0  0  0  0  0  0  0  0  0
   16.7101   69.7951   -5.1171 C   0  0  0  0  0  0  0  0  0  0  0  0
  1  4  1  0
  1 24  1  0
  1  2  1  6
  1  3  2  0
 25 28  1  0
 25 24  1  0
 25 26  1  6
 25 27  2  0
  6 11  1  0
  6 12  1  0
 29 36  1  0
 29 37  1  0
  9  7  1  1
  7 13  1  0
 10  8  1  1
  8 14  1  0
  4  5  1  0
 36 28  1  6
 33 30  1  6
 30 38  1  0
 34 31  1  6
 31 39  1  0
 35 32  1  6
 32 40  1  0
 41 43  1  0
 15 19  2  0
 42 43  2  0
 16 22  2  0
 12 17  1  6
 17 19  1  0
 17 20  1  0
 18 19  1  0
 18 22  1  0
 18 23  1  0
  9 10  1  0
  9 11  1  0
 10 12  1  0
 11  5  1  6
 33 34  1  0
 33 35  1  0
 34 36  1  0
 35 37  1  0
 37 43  1  1
 20 21  2  0
 21 22  1  0
M  CHG  3   2  -1  26  -1  41  -1
M  END
>  <COMPND>  (177) 
    udp_gluA.pdb 

>  <AUTHOR>  (177) 
    GENERATED BY OPEN BABEL 3.1.1

>  <MASTER>  (177) 
        0    0    0    0    0    0    0    0   56    0   56    0

>  <minimizedAffinity>  (177) 
-9.64591

>  <CNNscore>  (177) 
0.4536624253

>  <CNNaffinity>  (177) 
4.4569177628

>  <CNN_VS>  (177) 
2.0219361782

>  <CNNaffinity_variance>  (177) 
0.0580760017

$$$$
178
     RDKit          3D

 43 45  0  0  0  0  0  0  0  0999 V2000
   20.8424   70.7280    0.4579 P   0  0  2  0  0  0  0  0  0  0  0  0
   19.9401   71.4812    1.5703 O   0  0  0  0  0  0  0  0  0  0  0  0
   20.8855   69.2332    0.5834 O   0  0  0  0  0  0  0  0  0  0  0  0
   22.2716   71.4817    0.5416 O   0  0  0  0  0  0  0  0  0  0  0  0
   22.6816   72.0173    1.7864 C   0  0  0  0  0  0  0  0  0  0  0  0
   24.5917   70.6076    2.1635 O   0  0  0  0  0  0  0  0  0  0  0  0
   23.4308   70.0767    4.8768 O   0  0  0  0  0  0  0  0  0  0  0  0
   25.3685   71.9202    5.4082 O   0  0  0  0  0  0  0  0  0  0  0  0
   23.4167   71.2794    4.1075 C   0  0  1  0  0  0  0  0  0  0  0  0
   24.7852   71.9269    4.1220 C   0  0  2  0  0  0  0  0  0  0  0  0
   23.2603   70.8977    2.6418 C   0  0  1  0  0  0  0  0  0  0  0  0
   25.5503   71.0694    3.1284 C   0  0  2  0  0  0  0  0  0  0  0  0
   23.5298   70.2951    5.8171 H   0  0  0  0  0  0  0  0  0  0  0  0
   24.8452   72.4803    6.0034 H   0  0  0  0  0  0  0  0  0  0  0  0
   28.1583   70.0942    2.6549 O   0  0  0  0  0  0  0  0  0  0  0  0
   29.4176   73.9759    0.5122 O   0  0  0  0  0  0  0  0  0  0  0  0
   26.5796   71.8042    2.4491 N   0  0  0  0  0  0  0  0  0  0  0  0
   28.7833   72.0288    1.5891 N   0  0  0  0  0  0  0  0  0  0  0  0
   27.8563   71.2231    2.2632 C   0  0  0  0  0  0  0  0  0  0  0  0
   26.3199   73.0840    1.9741 C   0  0  0  0  0  0  0  0  0  0  0  0
   27.2137   73.8398    1.3333 C   0  0  0  0  0  0  0  0  0  0  0  0
   28.5719   73.3073    1.0987 C   0  0  0  0  0  0  0  0  0  0  0  0
   29.6798   71.6465    1.4495 H   0  0  0  0  0  0  0  0  0  0  0  0
   20.2272   71.2692   -0.9355 O   0  0  0  0  0  0  0  0  0  0  0  0
   18.7678   71.0672   -1.6010 P   0  0  2  0  0  0  0  0  0  0  0  0
   17.8678   72.1956   -0.8681 O   0  0  0  0  0  0  0  0  0  0  0  0
   18.2256   69.6721   -1.4845 O   0  0  0  0  0  0  0  0  0  0  0  0
   18.9316   71.5975   -3.1157 O   0  0  0  0  0  0  0  0  0  0  0  0
   18.7038   70.2340   -5.0387 O   0  0  0  0  0  0  0  0  0  0  0  0
   21.0695   73.3071   -6.4626 O   0  0  0  0  0  0  0  0  0  0  0  0
   21.5624   72.1607   -3.8211 O   0  0  0  0  0  0  0  0  0  0  0  0
   18.2491   73.1945   -7.1579 O   0  0  0  0  0  0  0  0  0  0  0  0
   20.0621   72.7085   -5.6473 C   0  0  2  0  0  0  0  0  0  0  0  0
   20.6846   71.6041   -4.7928 C   0  0  2  0  0  0  0  0  0  0  0  0
   18.9901   72.1262   -6.5713 C   0  0  1  0  0  0  0  0  0  0  0  0
   19.6044   70.7896   -4.0797 C   0  0  1  0  0  0  0  0  0  0  0  0
   18.0248   71.2253   -5.8064 C   0  0  1  0  0  0  0  0  0  0  0  0
   21.7617   73.6841   -5.8969 H   0  0  0  0  0  0  0  0  0  0  0  0
   22.2503   72.6792   -4.2667 H   0  0  0  0  0  0  0  0  0  0  0  0
   18.8519   73.7755   -7.6477 H   0  0  0  0  0  0  0  0  0  0  0  0
   17.7404   70.4226   -7.9919 O   0  0  0  0  0  0  0  0  0  0  0  0
   16.1758   69.8147   -6.4487 O   0  0  0  0  0  0  0  0  0  0  0  0
   17.1985   70.4121   -6.7488 C   0  0  0  0  0  0  0  0  0  0  0  0
  1  4  1  0
  1 24  1  0
  1  2  1  1
  1  3  2  0
 25 28  1  0
 25 24  1  0
 25 26  1  1
 25 27  2  0
  6 11  1  0
  6 12  1  0
 29 36  1  0
 29 37  1  0
  9  7  1  1
  7 13  1  0
 10  8  1  1
  8 14  1  0
  4  5  1  0
 36 28  1  1
 33 30  1  6
 30 38  1  0
 34 31  1  1
 31 39  1  0
 35 32  1  1
 32 40  1  0
 41 43  1  0
 15 19  2  0
 42 43  2  0
 16 22  2  0
 12 17  1  6
 17 19  1  0
 17 20  1  0
 18 19  1  0
 18 22  1  0
 18 23  1  0
  9 10  1  0
  9 11  1  0
 10 12  1  0
 11  5  1  6
 33 34  1  0
 33 35  1  0
 34 36  1  0
 35 37  1  0
 37 43  1  6
 20 21  2  0
 21 22  1  0
M  CHG  3   2  -1  26  -1  41  -1
M  END
>  <COMPND>  (178) 
    udp_gluA.pdb 

>  <AUTHOR>  (178) 
    GENERATED BY OPEN BABEL 3.1.1

>  <MASTER>  (178) 
        0    0    0    0    0    0    0    0   56    0   56    0

>  <minimizedAffinity>  (178) 
-8.49411

>  <CNNscore>  (178) 
0.4362494349

>  <CNNaffinity>  (178) 
4.4057383537

>  <CNN_VS>  (178) 
1.9220008850

>  <CNNaffinity_variance>  (178) 
0.0936165601

$$$$
179
     RDKit          3D

 43 45  0  0  0  0  0  0  0  0999 V2000
   22.1317   71.5462   -3.1812 P   0  0  2  0  0  0  0  0  0  0  0  0
   21.1327   72.8194   -3.1772 O   0  0  0  0  0  0  0  0  0  0  0  0
   23.4373   71.7676   -3.8869 O   0  0  0  0  0  0  0  0  0  0  0  0
   21.2195   70.3386   -3.7534 O   0  0  0  0  0  0  0  0  0  0  0  0
   19.9690   70.6540   -4.3374 C   0  0  0  0  0  0  0  0  0  0  0  0
   17.8826   71.3636   -3.3776 O   0  0  0  0  0  0  0  0  0  0  0  0
   17.5082   68.5076   -2.5441 O   0  0  0  0  0  0  0  0  0  0  0  0
   15.9283   68.6940   -4.7589 O   0  0  0  0  0  0  0  0  0  0  0  0
   18.1054   69.0319   -3.7303 C   0  0  1  0  0  0  0  0  0  0  0  0
   17.0382   69.5622   -4.6642 C   0  0  2  0  0  0  0  0  0  0  0  0
   18.8595   70.3004   -3.3553 C   0  0  1  0  0  0  0  0  0  0  0  0
   16.6871   70.8920   -4.0191 C   0  0  2  0  0  0  0  0  0  0  0  0
   17.0205   67.6965   -2.7586 H   0  0  0  0  0  0  0  0  0  0  0  0
   16.2033   67.8620   -5.1762 H   0  0  0  0  0  0  0  0  0  0  0  0
   15.1070   73.1485   -3.3959 O   0  0  0  0  0  0  0  0  0  0  0  0
   15.0895   74.5744   -7.7788 O   0  0  0  0  0  0  0  0  0  0  0  0
   16.2552   71.8691   -4.9781 N   0  0  0  0  0  0  0  0  0  0  0  0
   15.0989   73.8559   -5.5796 N   0  0  0  0  0  0  0  0  0  0  0  0
   15.4638   72.9655   -4.5613 C   0  0  0  0  0  0  0  0  0  0  0  0
   16.6166   71.7373   -6.3134 C   0  0  0  0  0  0  0  0  0  0  0  0
   16.2612   72.5943   -7.2726 C   0  0  0  0  0  0  0  0  0  0  0  0
   15.4333   73.7666   -6.9212 C   0  0  0  0  0  0  0  0  0  0  0  0
   14.5461   74.6261   -5.3140 H   0  0  0  0  0  0  0  0  0  0  0  0
   22.2674   71.1866   -1.6111 O   0  0  0  0  0  0  0  0  0  0  0  0
   21.2164   71.3400   -0.3923 P   0  0  2  0  0  0  0  0  0  0  0  0
   20.4217   69.9299   -0.4095 O   0  0  0  0  0  0  0  0  0  0  0  0
   20.3322   72.5494   -0.4902 O   0  0  0  0  0  0  0  0  0  0  0  0
   22.1235   71.2800    0.9404 O   0  0  0  0  0  0  0  0  0  0  0  0
   24.1497   72.3985    1.4432 O   0  0  0  0  0  0  0  0  0  0  0  0
   24.6019   68.8613    3.5292 O   0  0  0  0  0  0  0  0  0  0  0  0
   23.4834   68.8563    0.8305 O   0  0  0  0  0  0  0  0  0  0  0  0
   23.9489   71.3159    4.9432 O   0  0  0  0  0  0  0  0  0  0  0  0
   23.8832   69.9539    2.9569 C   0  0  2  0  0  0  0  0  0  0  0  0
   24.1074   69.9779    1.4447 C   0  0  2  0  0  0  0  0  0  0  0  0
   24.4017   71.2458    3.5924 C   0  0  1  0  0  0  0  0  0  0  0  0
   23.5454   71.2598    0.8286 C   0  0  1  0  0  0  0  0  0  0  0  0
   23.8969   72.4763    2.8443 C   0  0  1  0  0  0  0  0  0  0  0  0
   24.2894   68.0292    3.1403 H   0  0  0  0  0  0  0  0  0  0  0  0
   23.8352   68.0393    1.2169 H   0  0  0  0  0  0  0  0  0  0  0  0
   24.2633   70.5383    5.4304 H   0  0  0  0  0  0  0  0  0  0  0  0
   25.8228   73.3529    3.8563 O   0  0  0  0  0  0  0  0  0  0  0  0
   24.2866   74.8461    3.0756 O   0  0  0  0  0  0  0  0  0  0  0  0
   24.6566   73.6955    3.2551 C   0  0  0  0  0  0  0  0  0  0  0  0
  1  4  1  0
  1 24  1  0
  1  2  1  1
  1  3  2  0
 25 28  1  0
 25 24  1  0
 25 26  1  1
 25 27  2  0
  6 11  1  0
  6 12  1  0
 29 36  1  0
 29 37  1  0
  9  7  1  1
  7 13  1  0
 10  8  1  1
  8 14  1  0
  4  5  1  0
 36 28  1  1
 33 30  1  1
 30 38  1  0
 34 31  1  6
 31 39  1  0
 35 32  1  1
 32 40  1  0
 41 43  1  0
 15 19  2  0
 42 43  2  0
 16 22  2  0
 12 17  1  6
 17 19  1  0
 17 20  1  0
 18 19  1  0
 18 22  1  0
 18 23  1  0
  9 10  1  0
  9 11  1  0
 10 12  1  0
 11  5  1  6
 33 34  1  0
 33 35  1  0
 34 36  1  0
 35 37  1  0
 37 43  1  1
 20 21  2  0
 21 22  1  0
M  CHG  3   2  -1  26  -1  41  -1
M  END
>  <COMPND>  (179) 
    udp_gluA.pdb 

>  <AUTHOR>  (179) 
    GENERATED BY OPEN BABEL 3.1.1

>  <MASTER>  (179) 
        0    0    0    0    0    0    0    0   56    0   56    0

>  <minimizedAffinity>  (179) 
-8.18267

>  <CNNscore>  (179) 
0.4315035641

>  <CNNaffinity>  (179) 
4.3745212555

>  <CNN_VS>  (179) 
1.8876215219

>  <CNNaffinity_variance>  (179) 
0.3063814044

$$$$
180
     RDKit          3D

 43 45  0  0  0  0  0  0  0  0999 V2000
   24.4131   69.8109    2.9399 P   0  0  2  0  0  0  0  0  0  0  0  0
   23.5702   70.7003    3.9969 O   0  0  0  0  0  0  0  0  0  0  0  0
   25.2879   68.7575    3.5539 O   0  0  0  0  0  0  0  0  0  0  0  0
   25.1720   70.9093    2.0260 O   0  0  0  0  0  0  0  0  0  0  0  0
   26.5876   70.9071    2.0018 C   0  0  0  0  0  0  0  0  0  0  0  0
   28.3862   71.1181    3.5824 O   0  0  0  0  0  0  0  0  0  0  0  0
   27.3012   73.8510    4.1703 O   0  0  0  0  0  0  0  0  0  0  0  0
   29.4085   74.3877    2.5249 O   0  0  0  0  0  0  0  0  0  0  0  0
   27.3560   73.1483    2.9286 C   0  0  1  0  0  0  0  0  0  0  0  0
   28.7736   73.1327    2.3972 C   0  0  2  0  0  0  0  0  0  0  0  0
   27.1057   71.6734    3.2120 C   0  0  1  0  0  0  0  0  0  0  0  0
   29.4206   72.0599    3.2564 C   0  0  2  0  0  0  0  0  0  0  0  0
   27.4583   74.7959    4.0147 H   0  0  0  0  0  0  0  0  0  0  0  0
   28.9601   75.0360    1.9587 H   0  0  0  0  0  0  0  0  0  0  0  0
   32.1227   72.0678    4.0781 O   0  0  0  0  0  0  0  0  0  0  0  0
   33.3938   69.3890    0.5493 O   0  0  0  0  0  0  0  0  0  0  0  0
   30.4784   71.3729    2.5709 N   0  0  0  0  0  0  0  0  0  0  0  0
   32.7534   70.7345    2.3192 N   0  0  0  0  0  0  0  0  0  0  0  0
   31.8019   71.4410    3.0666 C   0  0  0  0  0  0  0  0  0  0  0  0
   30.2003   70.6411    1.4228 C   0  0  0  0  0  0  0  0  0  0  0  0
   31.1178   69.9728    0.7211 C   0  0  0  0  0  0  0  0  0  0  0  0
   32.5251   69.9933    1.1711 C   0  0  0  0  0  0  0  0  0  0  0  0
   33.6823   70.7687    2.6437 H   0  0  0  0  0  0  0  0  0  0  0  0
   23.2687   69.2426    1.9499 O   0  0  0  0  0  0  0  0  0  0  0  0
   22.5765   69.8949    0.6426 P   0  0  2  0  0  0  0  0  0  0  0  0
   21.0917   69.2502    0.6497 O   0  0  0  0  0  0  0  0  0  0  0  0
   23.3394   69.6766   -0.6318 O   0  0  0  0  0  0  0  0  0  0  0  0
   22.3494   71.4444    1.0299 O   0  0  0  0  0  0  0  0  0  0  0  0
   21.0107   72.4179    2.7238 O   0  0  0  0  0  0  0  0  0  0  0  0
   20.8088   75.2752   -0.2533 O   0  0  0  0  0  0  0  0  0  0  0  0
   20.6214   72.4351   -0.9114 O   0  0  0  0  0  0  0  0  0  0  0  0
   22.4867   75.7147    2.0796 O   0  0  0  0  0  0  0  0  0  0  0  0
   21.4112   74.2327    0.5137 C   0  0  2  0  0  0  0  0  0  0  0  0
   20.5638   72.9645    0.4081 C   0  0  2  0  0  0  0  0  0  0  0  0
   21.4896   74.7008    1.9686 C   0  0  1  0  0  0  0  0  0  0  0  0
   21.0474   71.8997    1.3936 C   0  0  1  0  0  0  0  0  0  0  0  0
   21.8554   73.5524    2.9044 C   0  0  1  0  0  0  0  0  0  0  0  0
   20.7484   75.0002   -1.1817 H   0  0  0  0  0  0  0  0  0  0  0  0
   20.3162   73.1056   -1.5420 H   0  0  0  0  0  0  0  0  0  0  0  0
   22.2658   76.4515    1.4888 H   0  0  0  0  0  0  0  0  0  0  0  0
   20.8028   75.0172    4.4036 O   0  0  0  0  0  0  0  0  0  0  0  0
   22.0672   73.3443    5.2988 O   0  0  0  0  0  0  0  0  0  0  0  0
   21.6099   73.9301    4.3289 C   0  0  0  0  0  0  0  0  0  0  0  0
  1  4  1  0
  1 24  1  0
  1  2  1  1
  1  3  2  0
 25 28  1  0
 25 24  1  0
 25 26  1  6
 25 27  2  0
  6 11  1  0
  6 12  1  0
 29 36  1  0
 29 37  1  0
  9  7  1  1
  7 13  1  0
 10  8  1  1
  8 14  1  0
  4  5  1  0
 36 28  1  6
 33 30  1  6
 30 38  1  0
 34 31  1  6
 31 39  1  0
 35 32  1  6
 32 40  1  0
 41 43  1  0
 15 19  2  0
 42 43  2  0
 16 22  2  0
 12 17  1  6
 17 19  1  0
 17 20  1  0
 18 19  1  0
 18 22  1  0
 18 23  1  0
  9 10  1  0
  9 11  1  0
 10 12  1  0
 11  5  1  6
 33 34  1  0
 33 35  1  0
 34 36  1  0
 35 37  1  0
 37 43  1  1
 20 21  2  0
 21 22  1  0
M  CHG  3   2  -1  26  -1  41  -1
M  END
>  <COMPND>  (180) 
    udp_gluA.pdb 

>  <AUTHOR>  (180) 
    GENERATED BY OPEN BABEL 3.1.1

>  <MASTER>  (180) 
        0    0    0    0    0    0    0    0   56    0   56    0

>  <minimizedAffinity>  (180) 
-8.33535

>  <CNNscore>  (180) 
0.4140648842

>  <CNNaffinity>  (180) 
4.4681320190

>  <CNN_VS>  (180) 
1.8500965834

>  <CNNaffinity_variance>  (180) 
0.0764376596

$$$$
181
     RDKit          3D

 43 45  0  0  0  0  0  0  0  0999 V2000
   23.8843   70.3988    2.5686 P   0  0  2  0  0  0  0  0  0  0  0  0
   23.6205   70.8598    4.0973 O   0  0  0  0  0  0  0  0  0  0  0  0
   23.8659   68.9155    2.3421 O   0  0  0  0  0  0  0  0  0  0  0  0
   25.2575   71.1540    2.1665 O   0  0  0  0  0  0  0  0  0  0  0  0
   26.4727   70.6910    2.7262 C   0  0  0  0  0  0  0  0  0  0  0  0
   28.4340   71.4346    3.9001 O   0  0  0  0  0  0  0  0  0  0  0  0
   27.1674   74.1525    3.9149 O   0  0  0  0  0  0  0  0  0  0  0  0
   28.9743   74.3482    1.8819 O   0  0  0  0  0  0  0  0  0  0  0  0
   27.1279   73.1426    2.9064 C   0  0  1  0  0  0  0  0  0  0  0  0
   28.4572   73.0695    2.1855 C   0  0  2  0  0  0  0  0  0  0  0  0
   27.0666   71.7885    3.5998 C   0  0  1  0  0  0  0  0  0  0  0  0
   29.3165   72.3133    3.1843 C   0  0  2  0  0  0  0  0  0  0  0  0
   27.2069   75.0270    3.4959 H   0  0  0  0  0  0  0  0  0  0  0  0
   28.3922   74.7888    1.2424 H   0  0  0  0  0  0  0  0  0  0  0  0
   31.9925   72.1565    4.0736 O   0  0  0  0  0  0  0  0  0  0  0  0
   33.1500   69.2822    0.6614 O   0  0  0  0  0  0  0  0  0  0  0  0
   30.3380   71.5314    2.5470 N   0  0  0  0  0  0  0  0  0  0  0  0
   32.5667   70.7259    2.3727 N   0  0  0  0  0  0  0  0  0  0  0  0
   31.6512   71.5216    3.0739 C   0  0  0  0  0  0  0  0  0  0  0  0
   30.0349   70.7845    1.4151 C   0  0  0  0  0  0  0  0  0  0  0  0
   30.9183   70.0308    0.7576 C   0  0  0  0  0  0  0  0  0  0  0  0
   32.3126   69.9661    1.2423 C   0  0  0  0  0  0  0  0  0  0  0  0
   33.4879   70.7047    2.7195 H   0  0  0  0  0  0  0  0  0  0  0  0
   22.7628   71.2199    1.7433 O   0  0  0  0  0  0  0  0  0  0  0  0
   21.4122   70.7239    1.0062 P   0  0  2  0  0  0  0  0  0  0  0  0
   20.2372   71.3303    1.9400 O   0  0  0  0  0  0  0  0  0  0  0  0
   21.3333   69.2390    0.7993 O   0  0  0  0  0  0  0  0  0  0  0  0
   21.3435   71.5935   -0.3508 O   0  0  0  0  0  0  0  0  0  0  0  0
   19.8284   70.3162   -1.6477 O   0  0  0  0  0  0  0  0  0  0  0  0
   20.1601   73.7655   -3.8972 O   0  0  0  0  0  0  0  0  0  0  0  0
   22.5248   72.5612   -2.6755 O   0  0  0  0  0  0  0  0  0  0  0  0
   17.7809   73.2911   -2.2955 O   0  0  0  0  0  0  0  0  0  0  0  0
   20.1365   72.9873   -2.7006 C   0  0  2  0  0  0  0  0  0  0  0  0
   21.2476   71.9383   -2.7503 C   0  0  2  0  0  0  0  0  0  0  0  0
   18.7680   72.3090   -2.6046 C   0  0  1  0  0  0  0  0  0  0  0  0
   21.1112   70.9419   -1.5982 C   0  0  1  0  0  0  0  0  0  0  0  0
   18.7510   71.2407   -1.5151 C   0  0  1  0  0  0  0  0  0  0  0  0
   21.0206   74.2061   -3.9797 H   0  0  0  0  0  0  0  0  0  0  0  0
   22.6180   73.1950   -3.4035 H   0  0  0  0  0  0  0  0  0  0  0  0
   17.7815   73.9771   -2.9813 H   0  0  0  0  0  0  0  0  0  0  0  0
   17.8926   69.1271   -2.0604 O   0  0  0  0  0  0  0  0  0  0  0  0
   16.3974   70.7205   -1.4086 O   0  0  0  0  0  0  0  0  0  0  0  0
   17.5439   70.3700   -1.6448 C   0  0  0  0  0  0  0  0  0  0  0  0
  1  4  1  0
  1 24  1  0
  1  2  1  1
  1  3  2  0
 25 28  1  0
 25 24  1  0
 25 26  1  1
 25 27  2  0
  6 11  1  0
  6 12  1  0
 29 36  1  0
 29 37  1  0
  9  7  1  1
  7 13  1  0
 10  8  1  1
  8 14  1  0
  4  5  1  0
 36 28  1  1
 33 30  1  6
 30 38  1  0
 34 31  1  1
 31 39  1  0
 35 32  1  1
 32 40  1  0
 41 43  1  0
 15 19  2  0
 42 43  2  0
 16 22  2  0
 12 17  1  6
 17 19  1  0
 17 20  1  0
 18 19  1  0
 18 22  1  0
 18 23  1  0
  9 10  1  0
  9 11  1  0
 10 12  1  0
 11  5  1  6
 33 34  1  0
 33 35  1  0
 34 36  1  0
 35 37  1  0
 37 43  1  6
 20 21  2  0
 21 22  1  0
M  CHG  3   2  -1  26  -1  41  -1
M  END
>  <COMPND>  (181) 
    udp_gluA.pdb 

>  <AUTHOR>  (181) 
    GENERATED BY OPEN BABEL 3.1.1

>  <MASTER>  (181) 
        0    0    0    0    0    0    0    0   56    0   56    0

>  <minimizedAffinity>  (181) 
-8.83924

>  <CNNscore>  (181) 
0.8571823239

>  <CNNaffinity>  (181) 
4.9764800072

>  <CNN_VS>  (181) 
4.2657508850

>  <CNNaffinity_variance>  (181) 
0.2977581024

$$$$
182
     RDKit          3D

 43 45  0  0  0  0  0  0  0  0999 V2000
   22.2789   69.9465    0.7843 P   0  0  2  0  0  0  0  0  0  0  0  0
   22.1201   71.4916    1.2387 O   0  0  0  0  0  0  0  0  0  0  0  0
   20.9990   69.1644    0.7398 O   0  0  0  0  0  0  0  0  0  0  0  0
   23.4225   69.3669    1.7714 O   0  0  0  0  0  0  0  0  0  0  0  0
   24.6285   70.0955    1.9104 C   0  0  0  0  0  0  0  0  0  0  0  0
   26.3479   70.1809    3.5878 O   0  0  0  0  0  0  0  0  0  0  0  0
   24.3345   71.5791    5.3149 O   0  0  0  0  0  0  0  0  0  0  0  0
   25.8744   73.6388    4.4081 O   0  0  0  0  0  0  0  0  0  0  0  0
   24.5354   71.6727    3.9044 C   0  0  1  0  0  0  0  0  0  0  0  0
   25.7800   72.4811    3.6048 C   0  0  2  0  0  0  0  0  0  0  0  0
   24.9215   70.2918    3.3922 C   0  0  1  0  0  0  0  0  0  0  0  0
   26.8843   71.4782    3.8923 C   0  0  2  0  0  0  0  0  0  0  0  0
   24.0869   72.4496    5.6650 H   0  0  0  0  0  0  0  0  0  0  0  0
   25.1499   74.2456    4.1871 H   0  0  0  0  0  0  0  0  0  0  0  0
   28.8680   73.4070    4.4592 O   0  0  0  0  0  0  0  0  0  0  0  0
   31.3182   72.2489    0.7311 O   0  0  0  0  0  0  0  0  0  0  0  0
   28.0512   71.7019    3.0866 N   0  0  0  0  0  0  0  0  0  0  0  0
   30.0859   72.8291    2.6013 N   0  0  0  0  0  0  0  0  0  0  0  0
   28.9864   72.6961    3.4595 C   0  0  0  0  0  0  0  0  0  0  0  0
   28.2608   70.9408    1.9431 C   0  0  0  0  0  0  0  0  0  0  0  0
   29.3137   71.0790    1.1350 C   0  0  0  0  0  0  0  0  0  0  0  0
   30.3374   72.0961    1.4528 C   0  0  0  0  0  0  0  0  0  0  0  0
   30.7497   73.5162    2.8392 H   0  0  0  0  0  0  0  0  0  0  0  0
   23.0470   70.0622   -0.6332 O   0  0  0  0  0  0  0  0  0  0  0  0
   22.6472   70.8324   -1.9973 P   0  0  2  0  0  0  0  0  0  0  0  0
   23.3206   69.9169   -3.1500 O   0  0  0  0  0  0  0  0  0  0  0  0
   23.0604   72.2753   -2.0335 O   0  0  0  0  0  0  0  0  0  0  0  0
   21.0609   70.5861   -2.1565 O   0  0  0  0  0  0  0  0  0  0  0  0
   19.2604   71.0638   -3.6191 O   0  0  0  0  0  0  0  0  0  0  0  0
   17.7761   72.3882    0.0018 O   0  0  0  0  0  0  0  0  0  0  0  0
   20.5465   72.9302   -0.7505 O   0  0  0  0  0  0  0  0  0  0  0  0
   16.8425   69.8774   -1.1274 O   0  0  0  0  0  0  0  0  0  0  0  0
   18.5493   71.5574   -0.8643 C   0  0  2  0  0  0  0  0  0  0  0  0
   19.5555   72.4150   -1.6322 C   0  0  2  0  0  0  0  0  0  0  0  0
   17.5905   70.8645   -1.8350 C   0  0  1  0  0  0  0  0  0  0  0  0
   20.2409   71.6020   -2.7313 C   0  0  1  0  0  0  0  0  0  0  0  0
   18.3456   70.1820   -2.9720 C   0  0  1  0  0  0  0  0  0  0  0  0
   18.3645   72.8391    0.6278 H   0  0  0  0  0  0  0  0  0  0  0  0
   20.1186   73.4469   -0.0503 H   0  0  0  0  0  0  0  0  0  0  0  0
   16.3573   70.2987   -0.4009 H   0  0  0  0  0  0  0  0  0  0  0  0
   17.7284   70.4543   -5.2184 O   0  0  0  0  0  0  0  0  0  0  0  0
   16.4903   69.0043   -3.9680 O   0  0  0  0  0  0  0  0  0  0  0  0
   17.4122   69.7991   -4.0740 C   0  0  0  0  0  0  0  0  0  0  0  0
  1  4  1  0
  1 24  1  0
  1  2  1  1
  1  3  2  0
 25 28  1  0
 25 24  1  0
 25 26  1  6
 25 27  2  0
  6 11  1  0
  6 12  1  0
 29 36  1  0
 29 37  1  0
  9  7  1  1
  7 13  1  0
 10  8  1  1
  8 14  1  0
  4  5  1  0
 36 28  1  1
 33 30  1  1
 30 38  1  0
 34 31  1  1
 31 39  1  0
 35 32  1  1
 32 40  1  0
 41 43  1  0
 15 19  2  0
 42 43  2  0
 16 22  2  0
 12 17  1  6
 17 19  1  0
 17 20  1  0
 18 19  1  0
 18 22  1  0
 18 23  1  0
  9 10  1  0
  9 11  1  0
 10 12  1  0
 11  5  1  6
 33 34  1  0
 33 35  1  0
 34 36  1  0
 35 37  1  0
 37 43  1  6
 20 21  2  0
 21 22  1  0
M  CHG  3   2  -1  26  -1  41  -1
M  END
>  <COMPND>  (182) 
    udp_gluA.pdb 

>  <AUTHOR>  (182) 
    GENERATED BY OPEN BABEL 3.1.1

>  <MASTER>  (182) 
        0    0    0    0    0    0    0    0   56    0   56    0

>  <minimizedAffinity>  (182) 
-8.31309

>  <CNNscore>  (182) 
0.7737393379

>  <CNNaffinity>  (182) 
5.0722856522

>  <CNN_VS>  (182) 
3.9246268272

>  <CNNaffinity_variance>  (182) 
0.3619008958

$$$$
183
     RDKit          3D

 43 45  0  0  0  0  0  0  0  0999 V2000
   21.6698   70.3053   -0.3421 P   0  0  2  0  0  0  0  0  0  0  0  0
   20.9337   69.2226    0.6090 O   0  0  0  0  0  0  0  0  0  0  0  0
   22.3183   69.7337   -1.5688 O   0  0  0  0  0  0  0  0  0  0  0  0
   22.6529   71.1028    0.6655 O   0  0  0  0  0  0  0  0  0  0  0  0
   23.5941   70.3613    1.4197 C   0  0  0  0  0  0  0  0  0  0  0  0
   24.4710   70.1968    3.6517 O   0  0  0  0  0  0  0  0  0  0  0  0
   22.1533   71.9053    4.4887 O   0  0  0  0  0  0  0  0  0  0  0  0
   24.2094   73.6941    4.3964 O   0  0  0  0  0  0  0  0  0  0  0  0
   22.9240   71.9532    3.2877 C   0  0  1  0  0  0  0  0  0  0  0  0
   24.2850   72.5571    3.5621 C   0  0  2  0  0  0  0  0  0  0  0  0
   23.2813   70.5244    2.9016 C   0  0  1  0  0  0  0  0  0  0  0  0
   25.0177   71.3987    4.2173 C   0  0  2  0  0  0  0  0  0  0  0  0
   21.9130   72.8069    4.7552 H   0  0  0  0  0  0  0  0  0  0  0  0
   23.7345   74.4032    3.9342 H   0  0  0  0  0  0  0  0  0  0  0  0
   26.8358   73.0939    5.5579 O   0  0  0  0  0  0  0  0  0  0  0  0
   30.4173   71.4414    3.1736 O   0  0  0  0  0  0  0  0  0  0  0  0
   26.4308   71.4321    3.9665 N   0  0  0  0  0  0  0  0  0  0  0  0
   28.6177   72.2700    4.3684 N   0  0  0  0  0  0  0  0  0  0  0  0
   27.2562   72.3210    4.6950 C   0  0  0  0  0  0  0  0  0  0  0  0
   26.9855   70.5903    3.0102 C   0  0  0  0  0  0  0  0  0  0  0  0
   28.2852   70.5530    2.7100 C   0  0  0  0  0  0  0  0  0  0  0  0
   29.2161   71.4507    3.4249 C   0  0  0  0  0  0  0  0  0  0  0  0
   29.2119   72.8812    4.8609 H   0  0  0  0  0  0  0  0  0  0  0  0
   20.5013   71.3823   -0.6380 O   0  0  0  0  0  0  0  0  0  0  0  0
   19.0833   71.2278   -1.3989 P   0  0  2  0  0  0  0  0  0  0  0  0
   18.1966   72.4305   -0.7764 O   0  0  0  0  0  0  0  0  0  0  0  0
   18.4596   69.8684   -1.2689 O   0  0  0  0  0  0  0  0  0  0  0  0
   19.3814   71.6852   -2.9169 O   0  0  0  0  0  0  0  0  0  0  0  0
   18.6657   70.2645   -4.6715 O   0  0  0  0  0  0  0  0  0  0  0  0
   21.2831   72.7814   -6.6421 O   0  0  0  0  0  0  0  0  0  0  0  0
   21.9444   71.7346   -3.9961 O   0  0  0  0  0  0  0  0  0  0  0  0
   18.4136   73.1200   -6.9618 O   0  0  0  0  0  0  0  0  0  0  0  0
   20.3146   72.4204   -5.6573 C   0  0  2  0  0  0  0  0  0  0  0  0
   20.8599   71.2800   -4.7973 C   0  0  2  0  0  0  0  0  0  0  0  0
   19.0431   71.9776   -6.3846 C   0  0  1  0  0  0  0  0  0  0  0  0
   19.7705   70.7132   -3.8857 C   0  0  1  0  0  0  0  0  0  0  0  0
   18.0589   71.3091   -5.4290 C   0  0  1  0  0  0  0  0  0  0  0  0
   22.1001   73.0663   -6.2032 H   0  0  0  0  0  0  0  0  0  0  0  0
   22.6392   72.0958   -4.5681 H   0  0  0  0  0  0  0  0  0  0  0  0
   19.0295   73.5548   -7.5720 H   0  0  0  0  0  0  0  0  0  0  0  0
   16.5563   69.5093   -5.4968 O   0  0  0  0  0  0  0  0  0  0  0  0
   16.5498   70.9372   -7.2745 O   0  0  0  0  0  0  0  0  0  0  0  0
   16.9865   70.5952   -6.1858 C   0  0  0  0  0  0  0  0  0  0  0  0
  1  4  1  0
  1 24  1  0
  1  2  1  1
  1  3  2  0
 25 28  1  0
 25 24  1  0
 25 26  1  1
 25 27  2  0
  6 11  1  0
  6 12  1  0
 29 36  1  0
 29 37  1  0
  9  7  1  1
  7 13  1  0
 10  8  1  1
  8 14  1  0
  4  5  1  0
 36 28  1  1
 33 30  1  6
 30 38  1  0
 34 31  1  1
 31 39  1  0
 35 32  1  1
 32 40  1  0
 41 43  1  0
 15 19  2  0
 42 43  2  0
 16 22  2  0
 12 17  1  6
 17 19  1  0
 17 20  1  0
 18 19  1  0
 18 22  1  0
 18 23  1  0
  9 10  1  0
  9 11  1  0
 10 12  1  0
 11  5  1  6
 33 34  1  0
 33 35  1  0
 34 36  1  0
 35 37  1  0
 37 43  1  6
 20 21  2  0
 21 22  1  0
M  CHG  3   2  -1  26  -1  41  -1
M  END
>  <COMPND>  (183) 
    udp_gluA.pdb 

>  <AUTHOR>  (183) 
    GENERATED BY OPEN BABEL 3.1.1

>  <MASTER>  (183) 
        0    0    0    0    0    0    0    0   56    0   56    0

>  <minimizedAffinity>  (183) 
-8.92529

>  <CNNscore>  (183) 
0.6934593320

>  <CNNaffinity>  (183) 
4.8224644661

>  <CNN_VS>  (183) 
3.3441829681

>  <CNNaffinity_variance>  (183) 
0.2979027331

$$$$
184
     RDKit          3D

 43 45  0  0  0  0  0  0  0  0999 V2000
   22.6877   70.3027   -1.9270 P   0  0  2  0  0  0  0  0  0  0  0  0
   23.2611   71.4564   -2.9064 O   0  0  0  0  0  0  0  0  0  0  0  0
   23.1209   68.9075   -2.2701 O   0  0  0  0  0  0  0  0  0  0  0  0
   21.0904   70.5601   -1.9171 O   0  0  0  0  0  0  0  0  0  0  0  0
   20.3455   70.2325   -3.0757 C   0  0  0  0  0  0  0  0  0  0  0  0
   18.7293   71.6154   -4.1952 O   0  0  0  0  0  0  0  0  0  0  0  0
   16.7202   70.5083   -2.2641 O   0  0  0  0  0  0  0  0  0  0  0  0
   16.2378   69.0582   -4.5225 O   0  0  0  0  0  0  0  0  0  0  0  0
   17.8365   69.8621   -2.8763 C   0  0  1  0  0  0  0  0  0  0  0  0
   17.5399   69.5709   -4.3321 C   0  0  2  0  0  0  0  0  0  0  0  0
   18.9681   70.8756   -2.9782 C   0  0  1  0  0  0  0  0  0  0  0  0
   17.7303   70.9356   -4.9719 C   0  0  2  0  0  0  0  0  0  0  0  0
   15.9843   69.8803   -2.1882 H   0  0  0  0  0  0  0  0  0  0  0  0
   16.1673   68.1886   -4.0973 H   0  0  0  0  0  0  0  0  0  0  0  0
   16.0295   70.5107   -7.1862 O   0  0  0  0  0  0  0  0  0  0  0  0
   19.5598   70.6056  -10.1480 O   0  0  0  0  0  0  0  0  0  0  0  0
   18.1785   70.8451   -6.3327 N   0  0  0  0  0  0  0  0  0  0  0  0
   17.7895   70.5574   -8.6591 N   0  0  0  0  0  0  0  0  0  0  0  0
   17.2421   70.6298   -7.3714 C   0  0  0  0  0  0  0  0  0  0  0  0
   19.5306   70.9708   -6.6274 C   0  0  0  0  0  0  0  0  0  0  0  0
   20.0374   70.8997   -7.8598 C   0  0  0  0  0  0  0  0  0  0  0  0
   19.1268   70.6757   -9.0017 C   0  0  0  0  0  0  0  0  0  0  0  0
   17.1573   70.4059   -9.3985 H   0  0  0  0  0  0  0  0  0  0  0  0
   23.1465   70.8092   -0.4622 O   0  0  0  0  0  0  0  0  0  0  0  0
   22.7762   70.2634    1.0138 P   0  0  2  0  0  0  0  0  0  0  0  0
   23.2668   68.7213    0.9717 O   0  0  0  0  0  0  0  0  0  0  0  0
   21.3349   70.4436    1.3933 O   0  0  0  0  0  0  0  0  0  0  0  0
   23.8240   70.9974    1.9965 O   0  0  0  0  0  0  0  0  0  0  0  0
   25.9171   70.2101    2.7766 O   0  0  0  0  0  0  0  0  0  0  0  0
   24.7048   72.6180    5.9071 O   0  0  0  0  0  0  0  0  0  0  0  0
   22.7999   70.8462    4.5780 O   0  0  0  0  0  0  0  0  0  0  0  0
   26.7571   73.5407    4.0665 O   0  0  0  0  0  0  0  0  0  0  0  0
   24.8085   72.2065    4.5441 C   0  0  2  0  0  0  0  0  0  0  0  0
   24.2091   70.8091    4.3844 C   0  0  2  0  0  0  0  0  0  0  0  0
   26.2911   72.1962    4.1647 C   0  0  1  0  0  0  0  0  0  0  0  0
   24.5062   70.2417    2.9957 C   0  0  1  0  0  0  0  0  0  0  0  0
   26.5185   71.5021    2.8250 C   0  0  1  0  0  0  0  0  0  0  0  0
   23.7711   72.6320    6.1706 H   0  0  0  0  0  0  0  0  0  0  0  0
   22.6041   71.2055    5.4572 H   0  0  0  0  0  0  0  0  0  0  0  0
   26.6179   73.9938    4.9128 H   0  0  0  0  0  0  0  0  0  0  0  0
   28.2102   70.8642    1.3308 O   0  0  0  0  0  0  0  0  0  0  0  0
   28.8252   71.2613    3.4902 O   0  0  0  0  0  0  0  0  0  0  0  0
   27.9684   71.2050    2.6208 C   0  0  0  0  0  0  0  0  0  0  0  0
  1  4  1  0
  1 24  1  0
  1  2  1  6
  1  3  2  0
 25 28  1  0
 25 24  1  0
 25 26  1  6
 25 27  2  0
  6 11  1  0
  6 12  1  0
 29 36  1  0
 29 37  1  0
  9  7  1  6
  7 13  1  0
 10  8  1  1
  8 14  1  0
  4  5  1  0
 36 28  1  6
 33 30  1  1
 30 38  1  0
 34 31  1  6
 31 39  1  0
 35 32  1  6
 32 40  1  0
 41 43  1  0
 15 19  2  0
 42 43  2  0
 16 22  2  0
 12 17  1  6
 17 19  1  0
 17 20  1  0
 18 19  1  0
 18 22  1  0
 18 23  1  0
  9 10  1  0
  9 11  1  0
 10 12  1  0
 11  5  1  6
 33 34  1  0
 33 35  1  0
 34 36  1  0
 35 37  1  0
 37 43  1  1
 20 21  2  0
 21 22  1  0
M  CHG  3   2  -1  26  -1  41  -1
M  END
>  <COMPND>  (184) 
    udp_gluA.pdb 

>  <AUTHOR>  (184) 
    GENERATED BY OPEN BABEL 3.1.1

>  <MASTER>  (184) 
        0    0    0    0    0    0    0    0   56    0   56    0

>  <minimizedAffinity>  (184) 
-9.16759

>  <CNNscore>  (184) 
0.6875130534

>  <CNNaffinity>  (184) 
4.9783916473

>  <CNN_VS>  (184) 
3.4227092266

>  <CNNaffinity_variance>  (184) 
0.4164387584

$$$$
185
     RDKit          3D

 43 45  0  0  0  0  0  0  0  0999 V2000
   22.1677   71.6127   -1.8573 P   0  0  2  0  0  0  0  0  0  0  0  0
   22.6174   72.6122   -0.6667 O   0  0  0  0  0  0  0  0  0  0  0  0
   22.7072   71.9601   -3.2138 O   0  0  0  0  0  0  0  0  0  0  0  0
   20.5552   71.5626   -1.7342 O   0  0  0  0  0  0  0  0  0  0  0  0
   19.7822   72.2742   -2.6832 C   0  0  0  0  0  0  0  0  0  0  0  0
   17.7168   71.9884   -3.8792 O   0  0  0  0  0  0  0  0  0  0  0  0
   16.8996   70.1496   -1.6560 O   0  0  0  0  0  0  0  0  0  0  0  0
   17.6471   68.4131   -3.6211 O   0  0  0  0  0  0  0  0  0  0  0  0
   18.1871   70.3419   -2.2425 C   0  0  1  0  0  0  0  0  0  0  0  0
   18.2422   69.6938   -3.6098 C   0  0  2  0  0  0  0  0  0  0  0  0
   18.3321   71.8186   -2.5838 C   0  0  1  0  0  0  0  0  0  0  0  0
   17.4872   70.6971   -4.4649 C   0  0  2  0  0  0  0  0  0  0  0  0
   16.7838   69.2132   -1.4294 H   0  0  0  0  0  0  0  0  0  0  0  0
   18.1646   67.8112   -3.0627 H   0  0  0  0  0  0  0  0  0  0  0  0
   15.9063   69.9725   -6.6903 O   0  0  0  0  0  0  0  0  0  0  0  0
   19.3528   70.7960   -9.6377 O   0  0  0  0  0  0  0  0  0  0  0  0
   17.9462   70.7130   -5.8250 N   0  0  0  0  0  0  0  0  0  0  0  0
   17.6247   70.3824   -8.1560 N   0  0  0  0  0  0  0  0  0  0  0  0
   17.0720   70.3301   -6.8696 C   0  0  0  0  0  0  0  0  0  0  0  0
   19.2476   71.1059   -6.1133 C   0  0  0  0  0  0  0  0  0  0  0  0
   19.7601   71.1507   -7.3446 C   0  0  0  0  0  0  0  0  0  0  0  0
   18.9129   70.7656   -8.4923 C   0  0  0  0  0  0  0  0  0  0  0  0
   17.0357   70.1184   -8.8995 H   0  0  0  0  0  0  0  0  0  0  0  0
   22.6197   70.1627   -1.3041 O   0  0  0  0  0  0  0  0  0  0  0  0
   22.4877   69.4985    0.1640 P   0  0  2  0  0  0  0  0  0  0  0  0
   23.2027   68.0575   -0.0165 O   0  0  0  0  0  0  0  0  0  0  0  0
   21.0813   69.4301    0.6848 O   0  0  0  0  0  0  0  0  0  0  0  0
   23.5037   70.3442    1.0886 O   0  0  0  0  0  0  0  0  0  0  0  0
   24.9061   69.9272    2.9510 O   0  0  0  0  0  0  0  0  0  0  0  0
   23.1284   73.4998    4.0206 O   0  0  0  0  0  0  0  0  0  0  0  0
   21.5528   71.3740    2.7826 O   0  0  0  0  0  0  0  0  0  0  0  0
   25.8806   73.4619    3.0852 O   0  0  0  0  0  0  0  0  0  0  0  0
   23.6605   72.5267    3.1217 C   0  0  2  0  0  0  0  0  0  0  0  0
   22.8824   71.2184    3.2648 C   0  0  2  0  0  0  0  0  0  0  0  0
   25.1336   72.3113    3.4758 C   0  0  1  0  0  0  0  0  0  0  0  0
   23.5640   70.0891    2.4908 C   0  0  1  0  0  0  0  0  0  0  0  0
   25.7062   71.0917    2.7594 C   0  0  1  0  0  0  0  0  0  0  0  0
   22.1928   73.6530    3.8147 H   0  0  0  0  0  0  0  0  0  0  0  0
   21.1144   72.0891    3.2692 H   0  0  0  0  0  0  0  0  0  0  0  0
   25.5261   74.2453    3.5341 H   0  0  0  0  0  0  0  0  0  0  0  0
   27.1952   71.2832    4.5615 O   0  0  0  0  0  0  0  0  0  0  0  0
   27.8299   69.9485    2.8252 O   0  0  0  0  0  0  0  0  0  0  0  0
   27.0201   70.6972    3.3512 C   0  0  0  0  0  0  0  0  0  0  0  0
  1  4  1  0
  1 24  1  0
  1  2  1  1
  1  3  2  0
 25 28  1  0
 25 24  1  0
 25 26  1  6
 25 27  2  0
  6 11  1  0
  6 12  1  0
 29 36  1  0
 29 37  1  0
  9  7  1  6
  7 13  1  0
 10  8  1  1
  8 14  1  0
  4  5  1  0
 36 28  1  6
 33 30  1  1
 30 38  1  0
 34 31  1  6
 31 39  1  0
 35 32  1  6
 32 40  1  0
 41 43  1  0
 15 19  2  0
 42 43  2  0
 16 22  2  0
 12 17  1  6
 17 19  1  0
 17 20  1  0
 18 19  1  0
 18 22  1  0
 18 23  1  0
  9 10  1  0
  9 11  1  0
 10 12  1  0
 11  5  1  6
 33 34  1  0
 33 35  1  0
 34 36  1  0
 35 37  1  0
 37 43  1  1
 20 21  2  0
 21 22  1  0
M  CHG  3   2  -1  26  -1  41  -1
M  END
>  <COMPND>  (185) 
    udp_gluA.pdb 

>  <AUTHOR>  (185) 
    GENERATED BY OPEN BABEL 3.1.1

>  <MASTER>  (185) 
        0    0    0    0    0    0    0    0   56    0   56    0

>  <minimizedAffinity>  (185) 
-9.14898

>  <CNNscore>  (185) 
0.6868199706

>  <CNNaffinity>  (185) 
4.7809090614

>  <CNN_VS>  (185) 
3.2836239338

>  <CNNaffinity_variance>  (185) 
0.1796054095

$$$$
186
     RDKit          3D

 43 45  0  0  0  0  0  0  0  0999 V2000
   22.2376   69.5402   -0.2664 P   0  0  2  0  0  0  0  0  0  0  0  0
   21.0753   69.2298    0.8159 O   0  0  0  0  0  0  0  0  0  0  0  0
   23.0055   68.3386   -0.7337 O   0  0  0  0  0  0  0  0  0  0  0  0
   23.1151   70.7077    0.4298 O   0  0  0  0  0  0  0  0  0  0  0  0
   24.2474   70.3374    1.1950 C   0  0  0  0  0  0  0  0  0  0  0  0
   25.1017   70.2239    3.4388 O   0  0  0  0  0  0  0  0  0  0  0  0
   22.5513   71.5585    4.2789 O   0  0  0  0  0  0  0  0  0  0  0  0
   24.3338   73.6222    4.2851 O   0  0  0  0  0  0  0  0  0  0  0  0
   23.3271   71.7551    3.0965 C   0  0  1  0  0  0  0  0  0  0  0  0
   24.5839   72.5358    3.4180 C   0  0  2  0  0  0  0  0  0  0  0  0
   23.8901   70.4049    2.6742 C   0  0  1  0  0  0  0  0  0  0  0  0
   25.4627   71.4714    4.0525 C   0  0  2  0  0  0  0  0  0  0  0  0
   22.1811   72.4076    4.5679 H   0  0  0  0  0  0  0  0  0  0  0  0
   23.7707   74.2721    3.8351 H   0  0  0  0  0  0  0  0  0  0  0  0
   26.9771   73.4276    5.4151 O   0  0  0  0  0  0  0  0  0  0  0  0
   30.8192   72.3087    3.1283 O   0  0  0  0  0  0  0  0  0  0  0  0
   26.8607   71.7126    3.8328 N   0  0  0  0  0  0  0  0  0  0  0  0
   28.8890   72.8691    4.2741 N   0  0  0  0  0  0  0  0  0  0  0  0
   27.5277   72.7196    4.5699 C   0  0  0  0  0  0  0  0  0  0  0  0
   27.5566   70.9558    2.8979 C   0  0  0  0  0  0  0  0  0  0  0  0
   28.8541   71.1099    2.6271 C   0  0  0  0  0  0  0  0  0  0  0  0
   29.6244   72.1411    3.3528 C   0  0  0  0  0  0  0  0  0  0  0  0
   29.3742   73.5654    4.7732 H   0  0  0  0  0  0  0  0  0  0  0  0
   21.4451   70.3286   -1.4340 O   0  0  0  0  0  0  0  0  0  0  0  0
   19.9708   70.9918   -1.4549 P   0  0  2  0  0  0  0  0  0  0  0  0
   20.1837   72.3912   -0.6696 O   0  0  0  0  0  0  0  0  0  0  0  0
   18.8941   70.1177   -0.8801 O   0  0  0  0  0  0  0  0  0  0  0  0
   19.7362   71.4194   -2.9926 O   0  0  0  0  0  0  0  0  0  0  0  0
   19.1271   69.3663   -4.0040 O   0  0  0  0  0  0  0  0  0  0  0  0
   18.4034   72.0545   -7.0565 O   0  0  0  0  0  0  0  0  0  0  0  0
   20.8021   72.2977   -5.4069 O   0  0  0  0  0  0  0  0  0  0  0  0
   16.1881   70.9293   -5.5474 O   0  0  0  0  0  0  0  0  0  0  0  0
   18.4928   71.6147   -5.7013 C   0  0  2  0  0  0  0  0  0  0  0  0
   19.9260   71.1765   -5.3990 C   0  0  2  0  0  0  0  0  0  0  0  0
   17.5279   70.4407   -5.5205 C   0  0  1  0  0  0  0  0  0  0  0  0
   20.0115   70.4872   -4.0366 C   0  0  1  0  0  0  0  0  0  0  0  0
   17.7606   69.7280   -4.1915 C   0  0  1  0  0  0  0  0  0  0  0  0
   19.0082   72.8004   -7.1952 H   0  0  0  0  0  0  0  0  0  0  0  0
   20.7528   72.7401   -6.2684 H   0  0  0  0  0  0  0  0  0  0  0  0
   16.0271   71.3853   -6.3882 H   0  0  0  0  0  0  0  0  0  0  0  0
   17.7194   67.5299   -3.3740 O   0  0  0  0  0  0  0  0  0  0  0  0
   16.0284   68.1519   -4.7714 O   0  0  0  0  0  0  0  0  0  0  0  0
   17.0582   68.4096   -4.1664 C   0  0  0  0  0  0  0  0  0  0  0  0
  1  4  1  0
  1 24  1  0
  1  2  1  1
  1  3  2  0
 25 28  1  0
 25 24  1  0
 25 26  1  1
 25 27  2  0
  6 11  1  0
  6 12  1  0
 29 36  1  0
 29 37  1  0
  9  7  1  1
  7 13  1  0
 10  8  1  1
  8 14  1  0
  4  5  1  0
 36 28  1  1
 33 30  1  6
 30 38  1  0
 34 31  1  1
 31 39  1  0
 35 32  1  1
 32 40  1  0
 41 43  1  0
 15 19  2  0
 42 43  2  0
 16 22  2  0
 12 17  1  6
 17 19  1  0
 17 20  1  0
 18 19  1  0
 18 22  1  0
 18 23  1  0
  9 10  1  0
  9 11  1  0
 10 12  1  0
 11  5  1  6
 33 34  1  0
 33 35  1  0
 34 36  1  0
 35 37  1  0
 37 43  1  6
 20 21  2  0
 21 22  1  0
M  CHG  3   2  -1  26  -1  41  -1
M  END
>  <COMPND>  (186) 
    udp_gluA.pdb 

>  <AUTHOR>  (186) 
    GENERATED BY OPEN BABEL 3.1.1

>  <MASTER>  (186) 
        0    0    0    0    0    0    0    0   56    0   56    0

>  <minimizedAffinity>  (186) 
-9.56918

>  <CNNscore>  (186) 
0.6360900998

>  <CNNaffinity>  (186) 
4.7506670952

>  <CNN_VS>  (186) 
3.0218522549

>  <CNNaffinity_variance>  (186) 
0.0249925237

$$$$
187
     RDKit          3D

 43 45  0  0  0  0  0  0  0  0999 V2000
   20.7709   70.6553    0.5294 P   0  0  2  0  0  0  0  0  0  0  0  0
   19.7045   71.3367    1.5379 O   0  0  0  0  0  0  0  0  0  0  0  0
   20.9340   69.1720    0.6873 O   0  0  0  0  0  0  0  0  0  0  0  0
   22.1137   71.5352    0.7313 O   0  0  0  0  0  0  0  0  0  0  0  0
   23.2104   70.9494    1.4084 C   0  0  0  0  0  0  0  0  0  0  0  0
   24.1357   70.5197    3.5849 O   0  0  0  0  0  0  0  0  0  0  0  0
   22.0165   72.3578    4.6440 O   0  0  0  0  0  0  0  0  0  0  0  0
   24.2287   73.9520    4.6168 O   0  0  0  0  0  0  0  0  0  0  0  0
   22.7512   72.4348    3.4222 C   0  0  1  0  0  0  0  0  0  0  0  0
   24.1709   72.8863    3.6918 C   0  0  2  0  0  0  0  0  0  0  0  0
   22.9599   71.0164    2.9095 C   0  0  1  0  0  0  0  0  0  0  0  0
   24.8106   71.6151    4.2236 C   0  0  2  0  0  0  0  0  0  0  0  0
   21.8708   73.2523    4.9909 H   0  0  0  0  0  0  0  0  0  0  0  0
   23.8091   74.7377    4.2314 H   0  0  0  0  0  0  0  0  0  0  0  0
   26.8329   72.9134    5.7073 O   0  0  0  0  0  0  0  0  0  0  0  0
   30.1550   71.2547    2.9768 O   0  0  0  0  0  0  0  0  0  0  0  0
   26.2122   71.5395    3.9224 N   0  0  0  0  0  0  0  0  0  0  0  0
   28.4855   72.0869    4.3453 N   0  0  0  0  0  0  0  0  0  0  0  0
   27.1461   72.2297    4.7309 C   0  0  0  0  0  0  0  0  0  0  0  0
   26.6492   70.7874    2.8388 C   0  0  0  0  0  0  0  0  0  0  0  0
   27.9292   70.6606    2.4837 C   0  0  0  0  0  0  0  0  0  0  0  0
   28.9685   71.3507    3.2756 C   0  0  0  0  0  0  0  0  0  0  0  0
   29.1539   72.5599    4.8918 H   0  0  0  0  0  0  0  0  0  0  0  0
   20.2450   71.1238   -0.9255 O   0  0  0  0  0  0  0  0  0  0  0  0
   18.8435   71.7859   -1.3849 P   0  0  2  0  0  0  0  0  0  0  0  0
   18.9931   73.3289   -0.9189 O   0  0  0  0  0  0  0  0  0  0  0  0
   17.6275   71.0915   -0.8434 O   0  0  0  0  0  0  0  0  0  0  0  0
   18.9235   71.8374   -2.9953 O   0  0  0  0  0  0  0  0  0  0  0  0
   18.7779   69.5805   -3.6985 O   0  0  0  0  0  0  0  0  0  0  0  0
   18.8364   71.5844   -7.3108 O   0  0  0  0  0  0  0  0  0  0  0  0
   20.6079   72.4004   -5.1359 O   0  0  0  0  0  0  0  0  0  0  0  0
   16.3459   70.4828   -6.2934 O   0  0  0  0  0  0  0  0  0  0  0  0
   18.5420   71.4032   -5.9257 C   0  0  2  0  0  0  0  0  0  0  0  0
   19.8428   71.2007   -5.1483 C   0  0  2  0  0  0  0  0  0  0  0  0
   17.6438   70.1716   -5.7904 C   0  0  1  0  0  0  0  0  0  0  0  0
   19.5583   70.7765   -3.7068 C   0  0  1  0  0  0  0  0  0  0  0  0
   17.5110   69.7364   -4.3338 C   0  0  1  0  0  0  0  0  0  0  0  0
   19.4063   72.3617   -7.4214 H   0  0  0  0  0  0  0  0  0  0  0  0
   20.7918   72.6755   -6.0474 H   0  0  0  0  0  0  0  0  0  0  0  0
   16.4165   70.7615   -7.2198 H   0  0  0  0  0  0  0  0  0  0  0  0
   17.6457   67.5872   -3.4040 O   0  0  0  0  0  0  0  0  0  0  0  0
   15.9160   67.9960   -4.8323 O   0  0  0  0  0  0  0  0  0  0  0  0
   16.9185   68.3679   -4.2410 C   0  0  0  0  0  0  0  0  0  0  0  0
  1  4  1  0
  1 24  1  0
  1  2  1  1
  1  3  2  0
 25 28  1  0
 25 24  1  0
 25 26  1  1
 25 27  2  0
  6 11  1  0
  6 12  1  0
 29 36  1  0
 29 37  1  0
  9  7  1  1
  7 13  1  0
 10  8  1  1
  8 14  1  0
  4  5  1  0
 36 28  1  6
 33 30  1  6
 30 38  1  0
 34 31  1  1
 31 39  1  0
 35 32  1  1
 32 40  1  0
 41 43  1  0
 15 19  2  0
 42 43  2  0
 16 22  2  0
 12 17  1  6
 17 19  1  0
 17 20  1  0
 18 19  1  0
 18 22  1  0
 18 23  1  0
  9 10  1  0
  9 11  1  0
 10 12  1  0
 11  5  1  6
 33 34  1  0
 33 35  1  0
 34 36  1  0
 35 37  1  0
 37 43  1  6
 20 21  2  0
 21 22  1  0
M  CHG  3   2  -1  26  -1  41  -1
M  END
>  <COMPND>  (187) 
    udp_gluA.pdb 

>  <AUTHOR>  (187) 
    GENERATED BY OPEN BABEL 3.1.1

>  <MASTER>  (187) 
        0    0    0    0    0    0    0    0   56    0   56    0

>  <minimizedAffinity>  (187) 
-8.58775

>  <CNNscore>  (187) 
0.6148729324

>  <CNNaffinity>  (187) 
4.5290741920

>  <CNN_VS>  (187) 
2.7848050594

>  <CNNaffinity_variance>  (187) 
0.1776941121

$$$$
188
     RDKit          3D

 43 45  0  0  0  0  0  0  0  0999 V2000
   21.3377   70.4783   -0.3480 P   0  0  2  0  0  0  0  0  0  0  0  0
   20.7697   69.3239    0.6336 O   0  0  0  0  0  0  0  0  0  0  0  0
   22.0333   69.9771   -1.5795 O   0  0  0  0  0  0  0  0  0  0  0  0
   22.2249   71.4159    0.6277 O   0  0  0  0  0  0  0  0  0  0  0  0
   23.3011   70.8280    1.3353 C   0  0  0  0  0  0  0  0  0  0  0  0
   24.1942   70.4611    3.5365 O   0  0  0  0  0  0  0  0  0  0  0  0
   22.0213   72.2791    4.5188 O   0  0  0  0  0  0  0  0  0  0  0  0
   24.2029   73.9150    4.4981 O   0  0  0  0  0  0  0  0  0  0  0  0
   22.7767   72.3452    3.3090 C   0  0  1  0  0  0  0  0  0  0  0  0
   24.1824   72.8296    3.5947 C   0  0  2  0  0  0  0  0  0  0  0  0
   23.0218   70.9209    2.8298 C   0  0  1  0  0  0  0  0  0  0  0  0
   24.8362   71.5822    4.1643 C   0  0  2  0  0  0  0  0  0  0  0  0
   21.8522   73.1775    4.8443 H   0  0  0  0  0  0  0  0  0  0  0  0
   23.7756   74.6843    4.0889 H   0  0  0  0  0  0  0  0  0  0  0  0
   26.8045   72.9609    5.6480 O   0  0  0  0  0  0  0  0  0  0  0  0
   30.2086   71.2993    3.0221 O   0  0  0  0  0  0  0  0  0  0  0  0
   26.2443   71.5276    3.8901 N   0  0  0  0  0  0  0  0  0  0  0  0
   28.4980   72.1328    4.3381 N   0  0  0  0  0  0  0  0  0  0  0  0
   27.1492   72.2582    4.6960 C   0  0  0  0  0  0  0  0  0  0  0  0
   26.7160   70.7562    2.8349 C   0  0  0  0  0  0  0  0  0  0  0  0
   28.0046   70.6465    2.5061 C   0  0  0  0  0  0  0  0  0  0  0  0
   29.0152   71.3787    3.2973 C   0  0  0  0  0  0  0  0  0  0  0  0
   29.1467   72.6339    4.8835 H   0  0  0  0  0  0  0  0  0  0  0  0
   20.0313   71.3860   -0.6347 O   0  0  0  0  0  0  0  0  0  0  0  0
   18.6920   71.0793   -1.4869 P   0  0  2  0  0  0  0  0  0  0  0  0
   17.6337   72.1626   -0.9152 O   0  0  0  0  0  0  0  0  0  0  0  0
   18.2236   69.6552   -1.4065 O   0  0  0  0  0  0  0  0  0  0  0  0
   19.0308   71.5895   -2.9793 O   0  0  0  0  0  0  0  0  0  0  0  0
   18.2626   70.3365   -4.8365 O   0  0  0  0  0  0  0  0  0  0  0  0
   21.1548   72.7229   -6.5708 O   0  0  0  0  0  0  0  0  0  0  0  0
   21.6268   71.4765   -3.9712 O   0  0  0  0  0  0  0  0  0  0  0  0
   18.3381   73.3265   -6.9617 O   0  0  0  0  0  0  0  0  0  0  0  0
   20.1236   72.3929   -5.6405 C   0  0  2  0  0  0  0  0  0  0  0  0
   20.5380   71.1632   -4.8320 C   0  0  2  0  0  0  0  0  0  0  0  0
   18.8468   72.1033   -6.4329 C   0  0  1  0  0  0  0  0  0  0  0  0
   19.3717   70.6430   -3.9907 C   0  0  1  0  0  0  0  0  0  0  0  0
   17.7749   71.4704   -5.5503 C   0  0  1  0  0  0  0  0  0  0  0  0
   21.9763   72.9109   -6.0900 H   0  0  0  0  0  0  0  0  0  0  0  0
   22.3704   71.8075   -4.4984 H   0  0  0  0  0  0  0  0  0  0  0  0
   19.0108   73.7396   -7.5253 H   0  0  0  0  0  0  0  0  0  0  0  0
   16.0610   71.8674   -7.1015 O   0  0  0  0  0  0  0  0  0  0  0  0
   16.3652   69.7141   -6.4160 O   0  0  0  0  0  0  0  0  0  0  0  0
   16.6745   70.8956   -6.3816 C   0  0  0  0  0  0  0  0  0  0  0  0
  1  4  1  0
  1 24  1  0
  1  2  1  1
  1  3  2  0
 25 28  1  0
 25 24  1  0
 25 26  1  1
 25 27  2  0
  6 11  1  0
  6 12  1  0
 29 36  1  0
 29 37  1  0
  9  7  1  1
  7 13  1  0
 10  8  1  1
  8 14  1  0
  4  5  1  0
 36 28  1  1
 33 30  1  6
 30 38  1  0
 34 31  1  1
 31 39  1  0
 35 32  1  1
 32 40  1  0
 41 43  1  0
 15 19  2  0
 42 43  2  0
 16 22  2  0
 12 17  1  6
 17 19  1  0
 17 20  1  0
 18 19  1  0
 18 22  1  0
 18 23  1  0
  9 10  1  0
  9 11  1  0
 10 12  1  0
 11  5  1  6
 33 34  1  0
 33 35  1  0
 34 36  1  0
 35 37  1  0
 37 43  1  6
 20 21  2  0
 21 22  1  0
M  CHG  3   2  -1  26  -1  41  -1
M  END
>  <COMPND>  (188) 
    udp_gluA.pdb 

>  <AUTHOR>  (188) 
    GENERATED BY OPEN BABEL 3.1.1

>  <MASTER>  (188) 
        0    0    0    0    0    0    0    0   56    0   56    0

>  <minimizedAffinity>  (188) 
-8.94734

>  <CNNscore>  (188) 
0.5979348421

>  <CNNaffinity>  (188) 
4.4638586044

>  <CNN_VS>  (188) 
2.6690967083

>  <CNNaffinity_variance>  (188) 
0.0046364395

$$$$
189
     RDKit          3D

 43 45  0  0  0  0  0  0  0  0999 V2000
   22.3586   69.4911    0.3669 P   0  0  2  0  0  0  0  0  0  0  0  0
   20.7689   69.3200    0.6170 O   0  0  0  0  0  0  0  0  0  0  0  0
   23.0738   68.2376   -0.0444 O   0  0  0  0  0  0  0  0  0  0  0  0
   22.8923   70.1912    1.7245 O   0  0  0  0  0  0  0  0  0  0  0  0
   22.4323   71.4925    2.0400 C   0  0  0  0  0  0  0  0  0  0  0  0
   23.5560   71.0174    4.1111 O   0  0  0  0  0  0  0  0  0  0  0  0
   21.8474   73.1669    5.3160 O   0  0  0  0  0  0  0  0  0  0  0  0
   24.2306   74.4388    4.9437 O   0  0  0  0  0  0  0  0  0  0  0  0
   22.4280   73.0981    4.0135 C   0  0  1  0  0  0  0  0  0  0  0  0
   23.9175   73.3589    4.0892 C   0  0  2  0  0  0  0  0  0  0  0  0
   22.3816   71.6470    3.5546 C   0  0  1  0  0  0  0  0  0  0  0  0
   24.4442   72.0315    4.6073 C   0  0  2  0  0  0  0  0  0  0  0  0
   21.8657   74.0848    5.6305 H   0  0  0  0  0  0  0  0  0  0  0  0
   23.8741   75.2606    4.5702 H   0  0  0  0  0  0  0  0  0  0  0  0
   26.7847   73.1559    5.7182 O   0  0  0  0  0  0  0  0  0  0  0  0
   29.4970   70.8898    2.7599 O   0  0  0  0  0  0  0  0  0  0  0  0
   25.7750   71.7526    4.1467 N   0  0  0  0  0  0  0  0  0  0  0  0
   28.1333   72.0270    4.2431 N   0  0  0  0  0  0  0  0  0  0  0  0
   26.8829   72.3702    4.7738 C   0  0  0  0  0  0  0  0  0  0  0  0
   25.9727   70.8755    3.0872 C   0  0  0  0  0  0  0  0  0  0  0  0
   27.1707   70.5581    2.5924 C   0  0  0  0  0  0  0  0  0  0  0  0
   28.3801   71.1606    3.1904 C   0  0  0  0  0  0  0  0  0  0  0  0
   28.9196   72.4461    4.6620 H   0  0  0  0  0  0  0  0  0  0  0  0
   22.4289   70.6917   -0.7130 O   0  0  0  0  0  0  0  0  0  0  0  0
   22.2191   70.6912   -2.3160 P   0  0  2  0  0  0  0  0  0  0  0  0
   22.7799   69.2396   -2.7619 O   0  0  0  0  0  0  0  0  0  0  0  0
   22.8658   71.8475   -3.0222 O   0  0  0  0  0  0  0  0  0  0  0  0
   20.6220   70.5908   -2.5197 O   0  0  0  0  0  0  0  0  0  0  0  0
   19.2255   69.5461   -4.1221 O   0  0  0  0  0  0  0  0  0  0  0  0
   17.2312   73.1032   -3.4608 O   0  0  0  0  0  0  0  0  0  0  0  0
   20.1420   73.0607   -3.7052 O   0  0  0  0  0  0  0  0  0  0  0  0
   16.2278   70.6313   -2.3059 O   0  0  0  0  0  0  0  0  0  0  0  0
   18.0486   71.9843   -3.1177 C   0  0  2  0  0  0  0  0  0  0  0  0
   19.2891   71.9637   -4.0112 C   0  0  2  0  0  0  0  0  0  0  0  0
   17.2219   70.7133   -3.3255 C   0  0  1  0  0  0  0  0  0  0  0  0
   20.0700   70.6609   -3.8332 C   0  0  1  0  0  0  0  0  0  0  0  0
   18.0948   69.4636   -3.2573 C   0  0  1  0  0  0  0  0  0  0  0  0
   17.7357   73.9226   -3.3366 H   0  0  0  0  0  0  0  0  0  0  0  0
   19.6529   73.8907   -3.8158 H   0  0  0  0  0  0  0  0  0  0  0  0
   15.6655   71.4210   -2.3384 H   0  0  0  0  0  0  0  0  0  0  0  0
   16.3819   68.6542   -4.6402 O   0  0  0  0  0  0  0  0  0  0  0  0
   17.5988   67.1130   -3.4812 O   0  0  0  0  0  0  0  0  0  0  0  0
   17.3587   68.2732   -3.7801 C   0  0  0  0  0  0  0  0  0  0  0  0
  1  4  1  0
  1 24  1  0
  1  2  1  1
  1  3  2  0
 25 28  1  0
 25 24  1  0
 25 26  1  6
 25 27  2  0
  6 11  1  0
  6 12  1  0
 29 36  1  0
 29 37  1  0
  9  7  1  1
  7 13  1  0
 10  8  1  1
  8 14  1  0
  4  5  1  0
 36 28  1  1
 33 30  1  6
 30 38  1  0
 34 31  1  1
 31 39  1  0
 35 32  1  1
 32 40  1  0
 41 43  1  0
 15 19  2  0
 42 43  2  0
 16 22  2  0
 12 17  1  6
 17 19  1  0
 17 20  1  0
 18 19  1  0
 18 22  1  0
 18 23  1  0
  9 10  1  0
  9 11  1  0
 10 12  1  0
 11  5  1  6
 33 34  1  0
 33 35  1  0
 34 36  1  0
 35 37  1  0
 37 43  1  6
 20 21  2  0
 21 22  1  0
M  CHG  3   2  -1  26  -1  41  -1
M  END
>  <COMPND>  (189) 
    udp_gluA.pdb 

>  <AUTHOR>  (189) 
    GENERATED BY OPEN BABEL 3.1.1

>  <MASTER>  (189) 
        0    0    0    0    0    0    0    0   56    0   56    0

>  <minimizedAffinity>  (189) 
-8.59108

>  <CNNscore>  (189) 
0.5735148191

>  <CNNaffinity>  (189) 
4.6609821320

>  <CNN_VS>  (189) 
2.6731424332

>  <CNNaffinity_variance>  (189) 
0.2209301740

$$$$
190
     RDKit          3D

 43 45  0  0  0  0  0  0  0  0999 V2000
   22.3492   70.3874   -1.2269 P   0  0  2  0  0  0  0  0  0  0  0  0
   22.9422   71.5755   -2.1518 O   0  0  0  0  0  0  0  0  0  0  0  0
   22.9939   69.0471   -1.4268 O   0  0  0  0  0  0  0  0  0  0  0  0
   20.7544   70.4467   -1.4933 O   0  0  0  0  0  0  0  0  0  0  0  0
   20.2961   70.8909   -2.7571 C   0  0  0  0  0  0  0  0  0  0  0  0
   18.3893   71.7901   -3.9117 O   0  0  0  0  0  0  0  0  0  0  0  0
   16.7144   70.3059   -1.9159 O   0  0  0  0  0  0  0  0  0  0  0  0
   16.5981   68.6907   -4.1099 O   0  0  0  0  0  0  0  0  0  0  0  0
   17.9540   69.9274   -2.5148 C   0  0  1  0  0  0  0  0  0  0  0  0
   17.7356   69.5132   -3.9546 C   0  0  2  0  0  0  0  0  0  0  0  0
   18.8034   71.1815   -2.6694 C   0  0  1  0  0  0  0  0  0  0  0  0
   17.5858   70.8557   -4.6497 C   0  0  2  0  0  0  0  0  0  0  0  0
   16.1545   69.5209   -1.8070 H   0  0  0  0  0  0  0  0  0  0  0  0
   16.7430   67.8484   -3.6500 H   0  0  0  0  0  0  0  0  0  0  0  0
   15.9982   70.0499   -6.8420 O   0  0  0  0  0  0  0  0  0  0  0  0
   19.4354   70.7652   -9.8283 O   0  0  0  0  0  0  0  0  0  0  0  0
   18.0406   70.8218   -6.0109 N   0  0  0  0  0  0  0  0  0  0  0  0
   17.7119   70.4059   -8.3271 N   0  0  0  0  0  0  0  0  0  0  0  0
   17.1632   70.4008   -7.0380 C   0  0  0  0  0  0  0  0  0  0  0  0
   19.3410   71.2041   -6.3173 C   0  0  0  0  0  0  0  0  0  0  0  0
   19.8497   71.2038   -7.5510 C   0  0  0  0  0  0  0  0  0  0  0  0
   18.9990   70.7768   -8.6813 C   0  0  0  0  0  0  0  0  0  0  0  0
   17.1207   70.1148   -9.0586 H   0  0  0  0  0  0  0  0  0  0  0  0
   22.4904   70.9863    0.2679 O   0  0  0  0  0  0  0  0  0  0  0  0
   21.6442   72.1283    1.0381 P   0  0  2  0  0  0  0  0  0  0  0  0
   20.5187   71.2805    1.8349 O   0  0  0  0  0  0  0  0  0  0  0  0
   21.0924   73.1971    0.1396 O   0  0  0  0  0  0  0  0  0  0  0  0
   22.6378   72.6680    2.1886 O   0  0  0  0  0  0  0  0  0  0  0  0
   23.3634   70.8526    3.5253 O   0  0  0  0  0  0  0  0  0  0  0  0
   25.1575   74.0581    5.4157 O   0  0  0  0  0  0  0  0  0  0  0  0
   22.4032   74.2537    4.4616 O   0  0  0  0  0  0  0  0  0  0  0  0
   26.7359   72.2813    3.7417 O   0  0  0  0  0  0  0  0  0  0  0  0
   24.6382   73.3225    4.3079 C   0  0  2  0  0  0  0  0  0  0  0  0
   23.1511   73.0452    4.5296 C   0  0  2  0  0  0  0  0  0  0  0  0
   25.4155   72.0082    4.2070 C   0  0  1  0  0  0  0  0  0  0  0  0
   22.6148   72.0680    3.4825 C   0  0  1  0  0  0  0  0  0  0  0  0
   24.7472   71.0388    3.2363 C   0  0  1  0  0  0  0  0  0  0  0  0
   24.6785   74.8977    5.4997 H   0  0  0  0  0  0  0  0  0  0  0  0
   22.7384   74.8785    5.1232 H   0  0  0  0  0  0  0  0  0  0  0  0
   27.1723   72.8974    4.3507 H   0  0  0  0  0  0  0  0  0  0  0  0
   26.6505   69.6691    3.1849 O   0  0  0  0  0  0  0  0  0  0  0  0
   24.6594   68.6655    3.6615 O   0  0  0  0  0  0  0  0  0  0  0  0
   25.3099   69.6632    3.3887 C   0  0  0  0  0  0  0  0  0  0  0  0
  1  4  1  0
  1 24  1  0
  1  2  1  6
  1  3  2  0
 25 28  1  0
 25 24  1  0
 25 26  1  1
 25 27  2  0
  6 11  1  0
  6 12  1  0
 29 36  1  0
 29 37  1  0
  9  7  1  6
  7 13  1  0
 10  8  1  1
  8 14  1  0
  4  5  1  0
 36 28  1  6
 33 30  1  1
 30 38  1  0
 34 31  1  6
 31 39  1  0
 35 32  1  6
 32 40  1  0
 41 43  1  0
 15 19  2  0
 42 43  2  0
 16 22  2  0
 12 17  1  6
 17 19  1  0
 17 20  1  0
 18 19  1  0
 18 22  1  0
 18 23  1  0
  9 10  1  0
  9 11  1  0
 10 12  1  0
 11  5  1  6
 33 34  1  0
 33 35  1  0
 34 36  1  0
 35 37  1  0
 37 43  1  1
 20 21  2  0
 21 22  1  0
M  CHG  3   2  -1  26  -1  41  -1
M  END
>  <COMPND>  (190) 
    udp_gluA.pdb 

>  <AUTHOR>  (190) 
    GENERATED BY OPEN BABEL 3.1.1

>  <MASTER>  (190) 
        0    0    0    0    0    0    0    0   56    0   56    0

>  <minimizedAffinity>  (190) 
-8.32137

>  <CNNscore>  (190) 
0.5335205197

>  <CNNaffinity>  (190) 
4.8761825562

>  <CNN_VS>  (190) 
2.6015434265

>  <CNNaffinity_variance>  (190) 
0.3574451506

$$$$
191
     RDKit          3D

 43 45  0  0  0  0  0  0  0  0999 V2000
   20.3318   71.3604   -0.1583 P   0  0  2  0  0  0  0  0  0  0  0  0
   18.9163   71.3483    0.6259 O   0  0  0  0  0  0  0  0  0  0  0  0
   20.8672   72.7252   -0.4783 O   0  0  0  0  0  0  0  0  0  0  0  0
   20.0811   70.3886   -1.4275 O   0  0  0  0  0  0  0  0  0  0  0  0
   19.8267   70.9771   -2.6898 C   0  0  0  0  0  0  0  0  0  0  0  0
   18.1134   71.9498   -4.0668 O   0  0  0  0  0  0  0  0  0  0  0  0
   16.1464   70.6514   -2.2131 O   0  0  0  0  0  0  0  0  0  0  0  0
   16.1498   68.9640   -4.3552 O   0  0  0  0  0  0  0  0  0  0  0  0
   17.4132   70.1729   -2.6657 C   0  0  1  0  0  0  0  0  0  0  0  0
   17.3174   69.7186   -4.1068 C   0  0  2  0  0  0  0  0  0  0  0  0
   18.3556   71.3643   -2.7692 C   0  0  1  0  0  0  0  0  0  0  0  0
   17.3299   71.0403   -4.8557 C   0  0  2  0  0  0  0  0  0  0  0  0
   15.5272   69.9079   -2.1392 H   0  0  0  0  0  0  0  0  0  0  0  0
   16.1900   68.1324   -3.8564 H   0  0  0  0  0  0  0  0  0  0  0  0
   15.9312   70.2348   -7.1733 O   0  0  0  0  0  0  0  0  0  0  0  0
   19.6937   70.6365   -9.8051 O   0  0  0  0  0  0  0  0  0  0  0  0
   17.9195   70.9258   -6.1595 N   0  0  0  0  0  0  0  0  0  0  0  0
   17.8067   70.4346   -8.4817 N   0  0  0  0  0  0  0  0  0  0  0  0
   17.1290   70.5125   -7.2579 C   0  0  0  0  0  0  0  0  0  0  0  0
   19.2649   71.2227   -6.3409 C   0  0  0  0  0  0  0  0  0  0  0  0
   19.8969   71.1439   -7.5135 C   0  0  0  0  0  0  0  0  0  0  0  0
   19.1431   70.7189   -8.7113 C   0  0  0  0  0  0  0  0  0  0  0  0
   17.2776   70.1471   -9.2606 H   0  0  0  0  0  0  0  0  0  0  0  0
   21.2841   70.4707    0.7980 O   0  0  0  0  0  0  0  0  0  0  0  0
   22.8165   69.9883    0.6174 P   0  0  2  0  0  0  0  0  0  0  0  0
   23.2449   70.6408   -0.8008 O   0  0  0  0  0  0  0  0  0  0  0  0
   23.0075   68.5013    0.6968 O   0  0  0  0  0  0  0  0  0  0  0  0
   23.6428   70.8292    1.7186 O   0  0  0  0  0  0  0  0  0  0  0  0
   25.7692   70.1442    2.5051 O   0  0  0  0  0  0  0  0  0  0  0  0
   24.5193   72.6545    5.5390 O   0  0  0  0  0  0  0  0  0  0  0  0
   22.6556   70.7649    4.3181 O   0  0  0  0  0  0  0  0  0  0  0  0
   26.5186   73.5551    3.6304 O   0  0  0  0  0  0  0  0  0  0  0  0
   24.6194   72.1842    4.1948 C   0  0  2  0  0  0  0  0  0  0  0  0
   24.0628   70.7629    4.1071 C   0  0  2  0  0  0  0  0  0  0  0  0
   26.0968   72.2027    3.7961 C   0  0  1  0  0  0  0  0  0  0  0  0
   24.3608   70.1419    2.7417 C   0  0  1  0  0  0  0  0  0  0  0  0
   26.3298   71.4551    2.4864 C   0  0  1  0  0  0  0  0  0  0  0  0
   23.5890   72.6514    5.8143 H   0  0  0  0  0  0  0  0  0  0  0  0
   22.4592   71.1579    5.1826 H   0  0  0  0  0  0  0  0  0  0  0  0
   26.3755   74.0420    4.4570 H   0  0  0  0  0  0  0  0  0  0  0  0
   28.4368   71.1291    3.4640 O   0  0  0  0  0  0  0  0  0  0  0  0
   28.3236   71.0553    1.1879 O   0  0  0  0  0  0  0  0  0  0  0  0
   27.7858   71.1944    2.2762 C   0  0  0  0  0  0  0  0  0  0  0  0
  1  4  1  0
  1 24  1  0
  1  2  1  1
  1  3  2  0
 25 28  1  0
 25 24  1  0
 25 26  1  6
 25 27  2  0
  6 11  1  0
  6 12  1  0
 29 36  1  0
 29 37  1  0
  9  7  1  6
  7 13  1  0
 10  8  1  1
  8 14  1  0
  4  5  1  0
 36 28  1  6
 33 30  1  1
 30 38  1  0
 34 31  1  6
 31 39  1  0
 35 32  1  6
 32 40  1  0
 41 43  1  0
 15 19  2  0
 42 43  2  0
 16 22  2  0
 12 17  1  6
 17 19  1  0
 17 20  1  0
 18 19  1  0
 18 22  1  0
 18 23  1  0
  9 10  1  0
  9 11  1  0
 10 12  1  0
 11  5  1  6
 33 34  1  0
 33 35  1  0
 34 36  1  0
 35 37  1  0
 37 43  1  1
 20 21  2  0
 21 22  1  0
M  CHG  3   2  -1  26  -1  41  -1
M  END
>  <COMPND>  (191) 
    udp_gluA.pdb 

>  <AUTHOR>  (191) 
    GENERATED BY OPEN BABEL 3.1.1

>  <MASTER>  (191) 
        0    0    0    0    0    0    0    0   56    0   56    0

>  <minimizedAffinity>  (191) 
-8.67224

>  <CNNscore>  (191) 
0.5187026262

>  <CNNaffinity>  (191) 
4.8835783005

>  <CNN_VS>  (191) 
2.5331249237

>  <CNNaffinity_variance>  (191) 
0.4159038961

$$$$
192
     RDKit          3D

 43 45  0  0  0  0  0  0  0  0999 V2000
   20.3838   70.6972    0.0057 P   0  0  2  0  0  0  0  0  0  0  0  0
   20.8874   69.3242    0.6986 O   0  0  0  0  0  0  0  0  0  0  0  0
   19.2904   71.4144    0.7419 O   0  0  0  0  0  0  0  0  0  0  0  0
   20.0391   70.2618   -1.5140 O   0  0  0  0  0  0  0  0  0  0  0  0
   19.8328   71.2778   -2.4782 C   0  0  0  0  0  0  0  0  0  0  0  0
   18.0728   72.0959   -3.8962 O   0  0  0  0  0  0  0  0  0  0  0  0
   16.1760   70.7459   -2.0065 O   0  0  0  0  0  0  0  0  0  0  0  0
   16.2956   68.9880   -4.0878 O   0  0  0  0  0  0  0  0  0  0  0  0
   17.4723   70.3298   -2.4364 C   0  0  1  0  0  0  0  0  0  0  0  0
   17.4137   69.8204   -3.8609 C   0  0  2  0  0  0  0  0  0  0  0  0
   18.3415   71.5719   -2.5777 C   0  0  1  0  0  0  0  0  0  0  0  0
   17.3510   71.1135   -4.6559 C   0  0  2  0  0  0  0  0  0  0  0  0
   15.6025   69.9692   -1.9091 H   0  0  0  0  0  0  0  0  0  0  0  0
   16.3828   68.1784   -3.5597 H   0  0  0  0  0  0  0  0  0  0  0  0
   16.0259   70.1218   -6.9444 O   0  0  0  0  0  0  0  0  0  0  0  0
   19.7668   70.6825   -9.5778 O   0  0  0  0  0  0  0  0  0  0  0  0
   17.9550   70.9895   -5.9523 N   0  0  0  0  0  0  0  0  0  0  0  0
   17.8906   70.4011   -8.2536 N   0  0  0  0  0  0  0  0  0  0  0  0
   17.2018   70.4792   -7.0360 C   0  0  0  0  0  0  0  0  0  0  0  0
   19.2773   71.3726   -6.1409 C   0  0  0  0  0  0  0  0  0  0  0  0
   19.9203   71.2924   -7.3075 C   0  0  0  0  0  0  0  0  0  0  0  0
   19.2053   70.7691   -8.4900 C   0  0  0  0  0  0  0  0  0  0  0  0
   17.3876   70.0469   -9.0222 H   0  0  0  0  0  0  0  0  0  0  0  0
   21.7512   71.5430   -0.1598 O   0  0  0  0  0  0  0  0  0  0  0  0
   22.1143   73.0645    0.2489 P   0  0  2  0  0  0  0  0  0  0  0  0
   21.1290   73.3566    1.4996 O   0  0  0  0  0  0  0  0  0  0  0  0
   21.9934   74.0502   -0.8770 O   0  0  0  0  0  0  0  0  0  0  0  0
   23.5861   72.9724    0.9030 O   0  0  0  0  0  0  0  0  0  0  0  0
   23.5587   72.1219    3.1132 O   0  0  0  0  0  0  0  0  0  0  0  0
   27.5058   73.2710    2.7035 O   0  0  0  0  0  0  0  0  0  0  0  0
   25.3562   74.9689    1.6883 O   0  0  0  0  0  0  0  0  0  0  0  0
   26.7844   70.4578    2.5773 O   0  0  0  0  0  0  0  0  0  0  0  0
   26.2382   72.7833    2.2639 C   0  0  2  0  0  0  0  0  0  0  0  0
   25.1638   73.8380    2.5301 C   0  0  2  0  0  0  0  0  0  0  0  0
   25.9295   71.5013    3.0405 C   0  0  1  0  0  0  0  0  0  0  0  0
   23.7656   73.2681    2.2868 C   0  0  1  0  0  0  0  0  0  0  0  0
   24.4798   71.0670    2.8451 C   0  0  1  0  0  0  0  0  0  0  0  0
   27.7231   74.0858    2.2237 H   0  0  0  0  0  0  0  0  0  0  0  0
   26.2415   75.3355    1.8373 H   0  0  0  0  0  0  0  0  0  0  0  0
   27.7103   70.7216    2.6959 H   0  0  0  0  0  0  0  0  0  0  0  0
   24.6174   68.8206    3.5055 O   0  0  0  0  0  0  0  0  0  0  0  0
   23.4154   70.2253    4.8401 O   0  0  0  0  0  0  0  0  0  0  0  0
   24.0983   70.0260    3.8467 C   0  0  0  0  0  0  0  0  0  0  0  0
  1  4  1  0
  1 24  1  0
  1  2  1  1
  1  3  2  0
 25 28  1  0
 25 24  1  0
 25 26  1  1
 25 27  2  0
  6 11  1  0
  6 12  1  0
 29 36  1  0
 29 37  1  0
  9  7  1  6
  7 13  1  0
 10  8  1  1
  8 14  1  0
  4  5  1  0
 36 28  1  6
 33 30  1  1
 30 38  1  0
 34 31  1  6
 31 39  1  0
 35 32  1  6
 32 40  1  0
 41 43  1  0
 15 19  2  0
 42 43  2  0
 16 22  2  0
 12 17  1  6
 17 19  1  0
 17 20  1  0
 18 19  1  0
 18 22  1  0
 18 23  1  0
  9 10  1  0
  9 11  1  0
 10 12  1  0
 11  5  1  6
 33 34  1  0
 33 35  1  0
 34 36  1  0
 35 37  1  0
 37 43  1  1
 20 21  2  0
 21 22  1  0
M  CHG  3   2  -1  26  -1  41  -1
M  END
>  <COMPND>  (192) 
    udp_gluA.pdb 

>  <AUTHOR>  (192) 
    GENERATED BY OPEN BABEL 3.1.1

>  <MASTER>  (192) 
        0    0    0    0    0    0    0    0   56    0   56    0

>  <minimizedAffinity>  (192) 
-8.60230

>  <CNNscore>  (192) 
0.5065883398

>  <CNNaffinity>  (192) 
4.7414689064

>  <CNN_VS>  (192) 
2.4019727707

>  <CNNaffinity_variance>  (192) 
0.2196568996

$$$$
193
     RDKit          3D

 43 45  0  0  0  0  0  0  0  0999 V2000
   22.7068   72.2338   -2.9712 P   0  0  2  0  0  0  0  0  0  0  0  0
   23.7962   72.3328   -4.1638 O   0  0  0  0  0  0  0  0  0  0  0  0
   22.7980   73.3184   -1.9382 O   0  0  0  0  0  0  0  0  0  0  0  0
   22.8717   70.7219   -2.4189 O   0  0  0  0  0  0  0  0  0  0  0  0
   23.6069   70.5139   -1.2269 C   0  0  0  0  0  0  0  0  0  0  0  0
   23.6727   69.1869    0.7761 O   0  0  0  0  0  0  0  0  0  0  0  0
   20.6764   69.2897    0.7202 O   0  0  0  0  0  0  0  0  0  0  0  0
   21.3021   71.1686    2.5948 O   0  0  0  0  0  0  0  0  0  0  0  0
   21.6220   70.2929    0.3491 C   0  0  1  0  0  0  0  0  0  0  0  0
   22.2517   70.9021    1.5839 C   0  0  2  0  0  0  0  0  0  0  0  0
   22.8095   69.6001   -0.3053 C   0  0  1  0  0  0  0  0  0  0  0  0
   23.2517   69.8324    1.9884 C   0  0  2  0  0  0  0  0  0  0  0  0
   19.9085   69.7084    1.1405 H   0  0  0  0  0  0  0  0  0  0  0  0
   20.6888   71.8560    2.2891 H   0  0  0  0  0  0  0  0  0  0  0  0
   23.3385   70.5263    4.7247 O   0  0  0  0  0  0  0  0  0  0  0  0
   27.7197   71.9248    4.4187 O   0  0  0  0  0  0  0  0  0  0  0  0
   24.4023   70.3798    2.6497 N   0  0  0  0  0  0  0  0  0  0  0  0
   25.5202   71.2231    4.5694 N   0  0  0  0  0  0  0  0  0  0  0  0
   24.3412   70.6943    4.0279 C   0  0  0  0  0  0  0  0  0  0  0  0
   25.5742   70.5983    1.9356 C   0  0  0  0  0  0  0  0  0  0  0  0
   26.6900   71.1029    2.4656 C   0  0  0  0  0  0  0  0  0  0  0  0
   26.7098   71.4590    3.8996 C   0  0  0  0  0  0  0  0  0  0  0  0
   25.5013   71.4517    5.5269 H   0  0  0  0  0  0  0  0  0  0  0  0
   21.3011   72.1786   -3.7673 O   0  0  0  0  0  0  0  0  0  0  0  0
   20.3901   73.3571   -4.3955 P   0  0  2  0  0  0  0  0  0  0  0  0
   21.4652   74.2754   -5.1836 O   0  0  0  0  0  0  0  0  0  0  0  0
   19.5635   74.1006   -3.3866 O   0  0  0  0  0  0  0  0  0  0  0  0
   19.5371   72.6380   -5.5607 O   0  0  0  0  0  0  0  0  0  0  0  0
   18.7916   70.3999   -5.3508 O   0  0  0  0  0  0  0  0  0  0  0  0
   18.5905   70.9732   -9.4373 O   0  0  0  0  0  0  0  0  0  0  0  0
   20.8698   71.9784   -7.9112 O   0  0  0  0  0  0  0  0  0  0  0  0
   16.1605   70.9790   -7.8416 O   0  0  0  0  0  0  0  0  0  0  0  0
   18.5299   71.3555   -8.0632 C   0  0  2  0  0  0  0  0  0  0  0  0
   19.8815   71.0923   -7.3987 C   0  0  2  0  0  0  0  0  0  0  0  0
   17.4349   70.5256   -7.3892 C   0  0  1  0  0  0  0  0  0  0  0  0
   19.7900   71.2716   -5.8827 C   0  0  1  0  0  0  0  0  0  0  0  0
   17.4894   70.6600   -5.8702 C   0  0  1  0  0  0  0  0  0  0  0  0
   19.2798   71.4876   -9.8861 H   0  0  0  0  0  0  0  0  0  0  0  0
   20.9330   71.8702   -8.8728 H   0  0  0  0  0  0  0  0  0  0  0  0
   16.1128   70.8989   -8.8071 H   0  0  0  0  0  0  0  0  0  0  0  0
   16.5896   69.8161   -3.8753 O   0  0  0  0  0  0  0  0  0  0  0  0
   16.0923   68.6943   -5.7971 O   0  0  0  0  0  0  0  0  0  0  0  0
   16.6511   69.6115   -5.2144 C   0  0  0  0  0  0  0  0  0  0  0  0
  1  4  1  0
  1 24  1  0
  1  2  1  6
  1  3  2  0
 25 28  1  0
 25 24  1  0
 25 26  1  6
 25 27  2  0
  6 11  1  0
  6 12  1  0
 29 36  1  0
 29 37  1  0
  9  7  1  1
  7 13  1  0
 10  8  1  1
  8 14  1  0
  4  5  1  0
 36 28  1  6
 33 30  1  6
 30 38  1  0
 34 31  1  6
 31 39  1  0
 35 32  1  6
 32 40  1  0
 41 43  1  0
 15 19  2  0
 42 43  2  0
 16 22  2  0
 12 17  1  6
 17 19  1  0
 17 20  1  0
 18 19  1  0
 18 22  1  0
 18 23  1  0
  9 10  1  0
  9 11  1  0
 10 12  1  0
 11  5  1  6
 33 34  1  0
 33 35  1  0
 34 36  1  0
 35 37  1  0
 37 43  1  1
 20 21  2  0
 21 22  1  0
M  CHG  3   2  -1  26  -1  41  -1
M  END
>  <COMPND>  (193) 
    udp_gluA.pdb 

>  <AUTHOR>  (193) 
    GENERATED BY OPEN BABEL 3.1.1

>  <MASTER>  (193) 
        0    0    0    0    0    0    0    0   56    0   56    0

>  <minimizedAffinity>  (193) 
-9.55078

>  <CNNscore>  (193) 
0.4755766392

>  <CNNaffinity>  (193) 
4.4553260803

>  <CNN_VS>  (193) 
2.1188490391

>  <CNNaffinity_variance>  (193) 
0.0677885413

$$$$
194
     RDKit          3D

 43 45  0  0  0  0  0  0  0  0999 V2000
   20.5376   71.2417    0.5407 P   0  0  2  0  0  0  0  0  0  0  0  0
   20.2957   69.7064    0.0899 O   0  0  0  0  0  0  0  0  0  0  0  0
   19.5059   71.7968    1.4784 O   0  0  0  0  0  0  0  0  0  0  0  0
   20.7141   72.0343   -0.8588 O   0  0  0  0  0  0  0  0  0  0  0  0
   20.0952   71.5064   -2.0175 C   0  0  0  0  0  0  0  0  0  0  0  0
   20.5218   70.6489   -4.2222 O   0  0  0  0  0  0  0  0  0  0  0  0
   23.2988   71.7347   -3.9051 O   0  0  0  0  0  0  0  0  0  0  0  0
   22.0954   73.6219   -5.4628 O   0  0  0  0  0  0  0  0  0  0  0  0
   22.0601   72.2719   -3.4409 C   0  0  1  0  0  0  0  0  0  0  0  0
   21.2793   72.8626   -4.5957 C   0  0  2  0  0  0  0  0  0  0  0  0
   21.1728   71.1089   -3.0181 C   0  0  1  0  0  0  0  0  0  0  0  0
   20.7145   71.6200   -5.2629 C   0  0  2  0  0  0  0  0  0  0  0  0
   23.8826   72.4591   -4.1809 H   0  0  0  0  0  0  0  0  0  0  0  0
   22.4301   74.4016   -4.9916 H   0  0  0  0  0  0  0  0  0  0  0  0
   20.1756   71.0536   -7.9768 O   0  0  0  0  0  0  0  0  0  0  0  0
   15.8526   72.6149   -7.6335 O   0  0  0  0  0  0  0  0  0  0  0  0
   19.4567   71.8685   -5.9086 N   0  0  0  0  0  0  0  0  0  0  0  0
   18.0234   71.8327   -7.8035 N   0  0  0  0  0  0  0  0  0  0  0  0
   19.2899   71.5476   -7.2765 C   0  0  0  0  0  0  0  0  0  0  0  0
   18.4049   72.4220   -5.1886 C   0  0  0  0  0  0  0  0  0  0  0  0
   17.2033   72.6879   -5.7047 C   0  0  0  0  0  0  0  0  0  0  0  0
   16.9465   72.3833   -7.1276 C   0  0  0  0  0  0  0  0  0  0  0  0
   17.8840   71.6198   -8.7546 H   0  0  0  0  0  0  0  0  0  0  0  0
   22.0409   71.2131    1.1341 O   0  0  0  0  0  0  0  0  0  0  0  0
   23.3155   70.2947    0.7523 P   0  0  2  0  0  0  0  0  0  0  0  0
   23.6586   70.7499   -0.7628 O   0  0  0  0  0  0  0  0  0  0  0  0
   23.0840   68.8206    0.9177 O   0  0  0  0  0  0  0  0  0  0  0  0
   24.5263   70.8860    1.6392 O   0  0  0  0  0  0  0  0  0  0  0  0
   26.4885   70.2232    2.7880 O   0  0  0  0  0  0  0  0  0  0  0  0
   24.4174   72.2267    5.7484 O   0  0  0  0  0  0  0  0  0  0  0  0
   23.0209   70.4161    3.9302 O   0  0  0  0  0  0  0  0  0  0  0  0
   26.6914   73.4884    4.4492 O   0  0  0  0  0  0  0  0  0  0  0  0
   24.8389   71.9482    4.4132 C   0  0  2  0  0  0  0  0  0  0  0  0
   24.4358   70.5225    4.0362 C   0  0  2  0  0  0  0  0  0  0  0  0
   26.3602   72.1042    4.3554 C   0  0  1  0  0  0  0  0  0  0  0  0
   25.0673   70.1090    2.7061 C   0  0  1  0  0  0  0  0  0  0  0  0
   26.9273   71.5544    3.0498 C   0  0  1  0  0  0  0  0  0  0  0  0
   23.4536   72.1338    5.8094 H   0  0  0  0  0  0  0  0  0  0  0  0
   22.6136   70.6772    4.7707 H   0  0  0  0  0  0  0  0  0  0  0  0
   26.3360   73.8506    5.2759 H   0  0  0  0  0  0  0  0  0  0  0  0
   28.8169   70.2701    2.5190 O   0  0  0  0  0  0  0  0  0  0  0  0
   29.1641   72.1992    3.6840 O   0  0  0  0  0  0  0  0  0  0  0  0
   28.4116   71.4074    3.1364 C   0  0  0  0  0  0  0  0  0  0  0  0
  1  4  1  0
  1 24  1  0
  1  2  1  6
  1  3  2  0
 25 28  1  0
 25 24  1  0
 25 26  1  6
 25 27  2  0
  6 11  1  0
  6 12  1  0
 29 36  1  0
 29 37  1  0
  9  7  1  6
  7 13  1  0
 10  8  1  6
  8 14  1  0
  4  5  1  0
 36 28  1  6
 33 30  1  1
 30 38  1  0
 34 31  1  6
 31 39  1  0
 35 32  1  6
 32 40  1  0
 41 43  1  0
 15 19  2  0
 42 43  2  0
 16 22  2  0
 12 17  1  1
 17 19  1  0
 17 20  1  0
 18 19  1  0
 18 22  1  0
 18 23  1  0
  9 10  1  0
  9 11  1  0
 10 12  1  0
 11  5  1  1
 33 34  1  0
 33 35  1  0
 34 36  1  0
 35 37  1  0
 37 43  1  1
 20 21  2  0
 21 22  1  0
M  CHG  3   2  -1  26  -1  41  -1
M  END
>  <COMPND>  (194) 
    udp_gluA.pdb 

>  <AUTHOR>  (194) 
    GENERATED BY OPEN BABEL 3.1.1

>  <MASTER>  (194) 
        0    0    0    0    0    0    0    0   56    0   56    0

>  <minimizedAffinity>  (194) 
-8.16068

>  <CNNscore>  (194) 
0.4707089961

>  <CNNaffinity>  (194) 
4.5237436295

>  <CNN_VS>  (194) 
2.1293668747

>  <CNNaffinity_variance>  (194) 
0.2057226598

$$$$
195
     RDKit          3D

 43 45  0  0  0  0  0  0  0  0999 V2000
   22.3267   70.7502   -2.8899 P   0  0  2  0  0  0  0  0  0  0  0  0
   21.9626   72.3270   -2.8955 O   0  0  0  0  0  0  0  0  0  0  0  0
   23.7185   70.4197   -3.3432 O   0  0  0  0  0  0  0  0  0  0  0  0
   21.1304   70.0722   -3.7427 O   0  0  0  0  0  0  0  0  0  0  0  0
   20.0446   70.8851   -4.1487 C   0  0  0  0  0  0  0  0  0  0  0  0
   17.9523   71.7926   -3.3896 O   0  0  0  0  0  0  0  0  0  0  0  0
   17.5302   69.1680   -2.0022 O   0  0  0  0  0  0  0  0  0  0  0  0
   15.9876   68.9156   -4.2366 O   0  0  0  0  0  0  0  0  0  0  0  0
   18.1523   69.4360   -3.2591 C   0  0  1  0  0  0  0  0  0  0  0  0
   17.1063   69.7753   -4.2998 C   0  0  2  0  0  0  0  0  0  0  0  0
   18.9157   70.7475   -3.1353 C   0  0  1  0  0  0  0  0  0  0  0  0
   16.7613   71.2112   -3.9436 C   0  0  2  0  0  0  0  0  0  0  0  0
   17.0362   68.3346   -2.0567 H   0  0  0  0  0  0  0  0  0  0  0  0
   16.2590   68.0140   -4.4719 H   0  0  0  0  0  0  0  0  0  0  0  0
   15.1873   73.5530   -3.8193 O   0  0  0  0  0  0  0  0  0  0  0  0
   15.2682   74.0698   -8.3986 O   0  0  0  0  0  0  0  0  0  0  0  0
   16.3564   71.9776   -5.0881 N   0  0  0  0  0  0  0  0  0  0  0  0
   15.2282   73.8076   -6.1002 N   0  0  0  0  0  0  0  0  0  0  0  0
   15.5657   73.1384   -4.9165 C   0  0  0  0  0  0  0  0  0  0  0  0
   16.7431   71.5789   -6.3618 C   0  0  0  0  0  0  0  0  0  0  0  0
   16.4137   72.2271   -7.4808 C   0  0  0  0  0  0  0  0  0  0  0  0
   15.5884   73.4494   -7.3893 C   0  0  0  0  0  0  0  0  0  0  0  0
   14.6764   74.6175   -6.0063 H   0  0  0  0  0  0  0  0  0  0  0  0
   21.9891   70.3051   -1.3731 O   0  0  0  0  0  0  0  0  0  0  0  0
   21.0545   70.9938   -0.2479 P   0  0  2  0  0  0  0  0  0  0  0  0
   19.8135   69.9628   -0.1163 O   0  0  0  0  0  0  0  0  0  0  0  0
   20.6542   72.4066   -0.5603 O   0  0  0  0  0  0  0  0  0  0  0  0
   21.8763   70.8197    1.1293 O   0  0  0  0  0  0  0  0  0  0  0  0
   23.1065   72.4280    2.3578 O   0  0  0  0  0  0  0  0  0  0  0  0
   25.1983   68.9617    3.1804 O   0  0  0  0  0  0  0  0  0  0  0  0
   24.2388   69.5056    0.4752 O   0  0  0  0  0  0  0  0  0  0  0  0
   23.4315   70.1098    5.1831 O   0  0  0  0  0  0  0  0  0  0  0  0
   24.0448   69.7478    2.8814 C   0  0  2  0  0  0  0  0  0  0  0  0
   24.2392   70.4516    1.5382 C   0  0  2  0  0  0  0  0  0  0  0  0
   23.8704   70.7764    4.0010 C   0  0  1  0  0  0  0  0  0  0  0  0
   23.1316   71.4772    1.2926 C   0  0  1  0  0  0  0  0  0  0  0  0
   22.8387   71.8369    3.6274 C   0  0  1  0  0  0  0  0  0  0  0  0
   25.3292   68.3008    2.4823 H   0  0  0  0  0  0  0  0  0  0  0  0
   24.9390   68.8516    0.6247 H   0  0  0  0  0  0  0  0  0  0  0  0
   24.0794   69.4321    5.4316 H   0  0  0  0  0  0  0  0  0  0  0  0
   21.6844   73.2949    5.0568 O   0  0  0  0  0  0  0  0  0  0  0  0
   23.9333   73.6075    4.8472 O   0  0  0  0  0  0  0  0  0  0  0  0
   22.9120   73.0006    4.5615 C   0  0  0  0  0  0  0  0  0  0  0  0
  1  4  1  0
  1 24  1  0
  1  2  1  1
  1  3  2  0
 25 28  1  0
 25 24  1  0
 25 26  1  1
 25 27  2  0
  6 11  1  0
  6 12  1  0
 29 36  1  0
 29 37  1  0
  9  7  1  1
  7 13  1  0
 10  8  1  1
  8 14  1  0
  4  5  1  0
 36 28  1  1
 33 30  1  1
 30 38  1  0
 34 31  1  6
 31 39  1  0
 35 32  1  1
 32 40  1  0
 41 43  1  0
 15 19  2  0
 42 43  2  0
 16 22  2  0
 12 17  1  6
 17 19  1  0
 17 20  1  0
 18 19  1  0
 18 22  1  0
 18 23  1  0
  9 10  1  0
  9 11  1  0
 10 12  1  0
 11  5  1  6
 33 34  1  0
 33 35  1  0
 34 36  1  0
 35 37  1  0
 37 43  1  1
 20 21  2  0
 21 22  1  0
M  CHG  3   2  -1  26  -1  41  -1
M  END
>  <COMPND>  (195) 
    udp_gluA.pdb 

>  <AUTHOR>  (195) 
    GENERATED BY OPEN BABEL 3.1.1

>  <MASTER>  (195) 
        0    0    0    0    0    0    0    0   56    0   56    0

>  <minimizedAffinity>  (195) 
-8.66105

>  <CNNscore>  (195) 
0.4173576236

>  <CNNaffinity>  (195) 
4.2557220459

>  <CNN_VS>  (195) 
1.7761580944

>  <CNNaffinity_variance>  (195) 
0.2176824510

$$$$
196
     RDKit          3D

 43 45  0  0  0  0  0  0  0  0999 V2000
   22.5014   70.6237   -1.5490 P   0  0  2  0  0  0  0  0  0  0  0  0
   23.1806   71.7080   -2.5399 O   0  0  0  0  0  0  0  0  0  0  0  0
   22.8999   69.1990   -1.8000 O   0  0  0  0  0  0  0  0  0  0  0  0
   20.9179   70.9394   -1.6544 O   0  0  0  0  0  0  0  0  0  0  0  0
   20.2337   70.5770   -2.8397 C   0  0  0  0  0  0  0  0  0  0  0  0
   18.4898   71.7565   -3.9996 O   0  0  0  0  0  0  0  0  0  0  0  0
   16.5984   70.5216   -2.0275 O   0  0  0  0  0  0  0  0  0  0  0  0
   16.2620   68.9573   -4.2356 O   0  0  0  0  0  0  0  0  0  0  0  0
   17.7732   69.9684   -2.6212 C   0  0  1  0  0  0  0  0  0  0  0  0
   17.5073   69.6015   -4.0658 C   0  0  2  0  0  0  0  0  0  0  0  0
   18.7997   71.0844   -2.7596 C   0  0  1  0  0  0  0  0  0  0  0  0
   17.5629   70.9564   -4.7507 C   0  0  2  0  0  0  0  0  0  0  0  0
   15.9278   69.8272   -1.9288 H   0  0  0  0  0  0  0  0  0  0  0  0
   16.2773   68.0995   -3.7817 H   0  0  0  0  0  0  0  0  0  0  0  0
   15.9372   70.1929   -6.9302 O   0  0  0  0  0  0  0  0  0  0  0  0
   19.4172   70.6422   -9.9189 O   0  0  0  0  0  0  0  0  0  0  0  0
   18.0185   70.8655   -6.1090 N   0  0  0  0  0  0  0  0  0  0  0  0
   17.6722   70.4164   -8.4165 N   0  0  0  0  0  0  0  0  0  0  0  0
   17.1209   70.4721   -7.1297 C   0  0  0  0  0  0  0  0  0  0  0  0
   19.3393   71.1657   -6.4191 C   0  0  0  0  0  0  0  0  0  0  0  0
   19.8502   71.1081   -7.6506 C   0  0  0  0  0  0  0  0  0  0  0  0
   18.9793   70.7049   -8.7741 C   0  0  0  0  0  0  0  0  0  0  0  0
   17.0671   70.1430   -9.1434 H   0  0  0  0  0  0  0  0  0  0  0  0
   22.8863   71.1820   -0.0817 O   0  0  0  0  0  0  0  0  0  0  0  0
   22.5747   70.5958    1.3924 P   0  0  2  0  0  0  0  0  0  0  0  0
   23.2708   69.1347    1.3641 O   0  0  0  0  0  0  0  0  0  0  0  0
   21.1175   70.5798    1.7534 O   0  0  0  0  0  0  0  0  0  0  0  0
   23.5005   71.4687    2.3841 O   0  0  0  0  0  0  0  0  0  0  0  0
   24.8865   73.3166    1.8610 O   0  0  0  0  0  0  0  0  0  0  0  0
   26.8758   71.6583    5.0799 O   0  0  0  0  0  0  0  0  0  0  0  0
   25.7489   69.9497    2.9954 O   0  0  0  0  0  0  0  0  0  0  0  0
   25.3108   74.0839    5.4238 O   0  0  0  0  0  0  0  0  0  0  0  0
   25.7398   72.0033    4.2871 C   0  0  2  0  0  0  0  0  0  0  0  0
   25.8680   71.3646    2.9039 C   0  0  2  0  0  0  0  0  0  0  0  0
   25.6925   73.5282    4.1669 C   0  0  1  0  0  0  0  0  0  0  0  0
   24.7924   71.8947    1.9547 C   0  0  1  0  0  0  0  0  0  0  0  0
   24.6848   73.9728    3.1107 C   0  0  1  0  0  0  0  0  0  0  0  0
   26.9264   70.6936    5.1700 H   0  0  0  0  0  0  0  0  0  0  0  0
   26.4282   69.6066    3.5963 H   0  0  0  0  0  0  0  0  0  0  0  0
   25.9441   73.8084    6.1049 H   0  0  0  0  0  0  0  0  0  0  0  0
   24.2111   76.2075    3.6429 O   0  0  0  0  0  0  0  0  0  0  0  0
   25.5428   75.8296    1.8311 O   0  0  0  0  0  0  0  0  0  0  0  0
   24.8770   75.4142    2.7677 C   0  0  0  0  0  0  0  0  0  0  0  0
  1  4  1  0
  1 24  1  0
  1  2  1  6
  1  3  2  0
 25 28  1  0
 25 24  1  0
 25 26  1  6
 25 27  2  0
  6 11  1  0
  6 12  1  0
 29 36  1  0
 29 37  1  0
  9  7  1  6
  7 13  1  0
 10  8  1  1
  8 14  1  0
  4  5  1  0
 36 28  1  1
 33 30  1  1
 30 38  1  0
 34 31  1  1
 31 39  1  0
 35 32  1  1
 32 40  1  0
 41 43  1  0
 15 19  2  0
 42 43  2  0
 16 22  2  0
 12 17  1  6
 17 19  1  0
 17 20  1  0
 18 19  1  0
 18 22  1  0
 18 23  1  0
  9 10  1  0
  9 11  1  0
 10 12  1  0
 11  5  1  6
 33 34  1  0
 33 35  1  0
 34 36  1  0
 35 37  1  0
 37 43  1  6
 20 21  2  0
 21 22  1  0
M  CHG  3   2  -1  26  -1  41  -1
M  END
>  <COMPND>  (196) 
    udp_gluA.pdb 

>  <AUTHOR>  (196) 
    GENERATED BY OPEN BABEL 3.1.1

>  <MASTER>  (196) 
        0    0    0    0    0    0    0    0   56    0   56    0

>  <minimizedAffinity>  (196) 
-7.94113

>  <CNNscore>  (196) 
0.4143472612

>  <CNNaffinity>  (196) 
4.7855863571

>  <CNN_VS>  (196) 
1.9828946590

>  <CNNaffinity_variance>  (196) 
0.3358932734

$$$$
197
     RDKit          3D

 43 45  0  0  0  0  0  0  0  0999 V2000
   22.5570   72.5227   -3.3871 P   0  0  2  0  0  0  0  0  0  0  0  0
   23.9157   72.4561   -4.2637 O   0  0  0  0  0  0  0  0  0  0  0  0
   22.4297   73.7311   -2.5065 O   0  0  0  0  0  0  0  0  0  0  0  0
   22.5128   71.0936   -2.6298 O   0  0  0  0  0  0  0  0  0  0  0  0
   23.3027   70.9194   -1.4678 C   0  0  0  0  0  0  0  0  0  0  0  0
   23.6572   69.3709    0.3360 O   0  0  0  0  0  0  0  0  0  0  0  0
   20.6734   69.3157    0.6280 O   0  0  0  0  0  0  0  0  0  0  0  0
   21.4380   70.9916    2.6387 O   0  0  0  0  0  0  0  0  0  0  0  0
   21.5273   70.4059    0.2805 C   0  0  1  0  0  0  0  0  0  0  0  0
   22.2723   70.8985    1.5030 C   0  0  2  0  0  0  0  0  0  0  0  0
   22.6569   69.8611   -0.5829 C   0  0  1  0  0  0  0  0  0  0  0  0
   23.3556   69.8448    1.6581 C   0  0  2  0  0  0  0  0  0  0  0  0
   19.9438   69.6392    1.1799 H   0  0  0  0  0  0  0  0  0  0  0  0
   20.7655   71.6756    2.4907 H   0  0  0  0  0  0  0  0  0  0  0  0
   24.8428   68.5464    3.6777 O   0  0  0  0  0  0  0  0  0  0  0  0
   27.9323   71.9623    3.8530 O   0  0  0  0  0  0  0  0  0  0  0  0
   24.5526   70.3724    2.2494 N   0  0  0  0  0  0  0  0  0  0  0  0
   26.3796   70.2494    3.7638 N   0  0  0  0  0  0  0  0  0  0  0  0
   25.2239   69.6404    3.2572 C   0  0  0  0  0  0  0  0  0  0  0  0
   25.0506   71.5999    1.8298 C   0  0  0  0  0  0  0  0  0  0  0  0
   26.1535   72.1675    2.3220 C   0  0  0  0  0  0  0  0  0  0  0  0
   26.9136   71.4686    3.3789 C   0  0  0  0  0  0  0  0  0  0  0  0
   26.8629   69.7596    4.4679 H   0  0  0  0  0  0  0  0  0  0  0  0
   21.3973   72.3782   -4.5038 O   0  0  0  0  0  0  0  0  0  0  0  0
   21.1146   73.2189   -5.8555 P   0  0  2  0  0  0  0  0  0  0  0  0
   22.1925   72.6130   -6.9001 O   0  0  0  0  0  0  0  0  0  0  0  0
   21.1914   74.7082   -5.6818 O   0  0  0  0  0  0  0  0  0  0  0  0
   19.6888   72.6790   -6.3827 O   0  0  0  0  0  0  0  0  0  0  0  0
   19.3701   70.4463   -5.6598 O   0  0  0  0  0  0  0  0  0  0  0  0
   15.9700   71.0930   -7.9157 O   0  0  0  0  0  0  0  0  0  0  0  0
   18.5694   72.0452   -8.8487 O   0  0  0  0  0  0  0  0  0  0  0  0
   15.8180   71.0990   -5.0127 O   0  0  0  0  0  0  0  0  0  0  0  0
   17.0494   71.4520   -7.0532 C   0  0  2  0  0  0  0  0  0  0  0  0
   18.3792   71.1617   -7.7497 C   0  0  2  0  0  0  0  0  0  0  0  0
   16.9273   70.6231   -5.7726 C   0  0  1  0  0  0  0  0  0  0  0  0
   19.5504   71.3156   -6.7784 C   0  0  1  0  0  0  0  0  0  0  0  0
   18.1864   70.7304   -4.9173 C   0  0  1  0  0  0  0  0  0  0  0  0
   16.0269   71.6072   -8.7365 H   0  0  0  0  0  0  0  0  0  0  0  0
   17.8297   71.9530   -9.4689 H   0  0  0  0  0  0  0  0  0  0  0  0
   15.0101   71.0363   -5.5457 H   0  0  0  0  0  0  0  0  0  0  0  0
   19.4200   69.1016   -3.7655 O   0  0  0  0  0  0  0  0  0  0  0  0
   17.2406   69.3800   -3.1558 O   0  0  0  0  0  0  0  0  0  0  0  0
   18.1969   69.6804   -3.8545 C   0  0  0  0  0  0  0  0  0  0  0  0
  1  4  1  0
  1 24  1  0
  1  2  1  6
  1  3  2  0
 25 28  1  0
 25 24  1  0
 25 26  1  6
 25 27  2  0
  6 11  1  0
  6 12  1  0
 29 36  1  0
 29 37  1  0
  9  7  1  1
  7 13  1  0
 10  8  1  1
  8 14  1  0
  4  5  1  0
 36 28  1  1
 33 30  1  6
 30 38  1  0
 34 31  1  6
 31 39  1  0
 35 32  1  1
 32 40  1  0
 41 43  1  0
 15 19  2  0
 42 43  2  0
 16 22  2  0
 12 17  1  6
 17 19  1  0
 17 20  1  0
 18 19  1  0
 18 22  1  0
 18 23  1  0
  9 10  1  0
  9 11  1  0
 10 12  1  0
 11  5  1  1
 33 34  1  0
 33 35  1  0
 34 36  1  0
 35 37  1  0
 37 43  1  1
 20 21  2  0
 21 22  1  0
M  CHG  3   2  -1  26  -1  41  -1
M  END
>  <COMPND>  (197) 
    udp_gluA.pdb 

>  <AUTHOR>  (197) 
    GENERATED BY OPEN BABEL 3.1.1

>  <MASTER>  (197) 
        0    0    0    0    0    0    0    0   56    0   56    0

>  <minimizedAffinity>  (197) 
-8.82669

>  <CNNscore>  (197) 
0.3832631409

>  <CNNaffinity>  (197) 
4.3834013939

>  <CNN_VS>  (197) 
1.6799961329

>  <CNNaffinity_variance>  (197) 
0.1123062223

$$$$
198
     RDKit          3D

 43 45  0  0  0  0  0  0  0  0999 V2000
   22.3675   69.5001    0.3442 P   0  0  2  0  0  0  0  0  0  0  0  0
   20.7716   69.4519    0.6079 O   0  0  0  0  0  0  0  0  0  0  0  0
   23.0215   68.1608    0.1696 O   0  0  0  0  0  0  0  0  0  0  0  0
   22.9348   70.4060    1.5589 O   0  0  0  0  0  0  0  0  0  0  0  0
   24.2021   70.0885    2.1045 C   0  0  0  0  0  0  0  0  0  0  0  0
   25.6045   70.4174    4.0287 O   0  0  0  0  0  0  0  0  0  0  0  0
   23.4286   72.1929    5.0796 O   0  0  0  0  0  0  0  0  0  0  0  0
   25.2492   73.9838    4.1235 O   0  0  0  0  0  0  0  0  0  0  0  0
   23.8785   72.0131    3.7365 C   0  0  1  0  0  0  0  0  0  0  0  0
   25.2119   72.7010    3.5339 C   0  0  2  0  0  0  0  0  0  0  0  0
   24.2459   70.5465    3.5566 C   0  0  1  0  0  0  0  0  0  0  0  0
   26.1729   71.7263    4.1931 C   0  0  2  0  0  0  0  0  0  0  0  0
   23.1880   73.1227    5.2186 H   0  0  0  0  0  0  0  0  0  0  0  0
   24.6206   74.5670    3.6688 H   0  0  0  0  0  0  0  0  0  0  0  0
   28.1947   73.5916    4.8333 O   0  0  0  0  0  0  0  0  0  0  0  0
   31.1326   71.7180    1.8162 O   0  0  0  0  0  0  0  0  0  0  0  0
   27.4755   71.7488    3.5901 N   0  0  0  0  0  0  0  0  0  0  0  0
   29.6557   72.6573    3.3293 N   0  0  0  0  0  0  0  0  0  0  0  0
   28.4183   72.7282    3.9827 C   0  0  0  0  0  0  0  0  0  0  0  0
   27.8086   70.8079    2.6233 C   0  0  0  0  0  0  0  0  0  0  0  0
   28.9922   70.7529    2.0094 C   0  0  0  0  0  0  0  0  0  0  0  0
   30.0332   71.7408    2.3613 C   0  0  0  0  0  0  0  0  0  0  0  0
   30.3276   73.3301    3.5845 H   0  0  0  0  0  0  0  0  0  0  0  0
   22.4949   70.4832   -0.9325 O   0  0  0  0  0  0  0  0  0  0  0  0
   22.5222   70.1663   -2.5176 P   0  0  2  0  0  0  0  0  0  0  0  0
   23.0342   68.6319   -2.5793 O   0  0  0  0  0  0  0  0  0  0  0  0
   23.3481   71.1267   -3.3235 O   0  0  0  0  0  0  0  0  0  0  0  0
   20.9689   70.0948   -2.9475 O   0  0  0  0  0  0  0  0  0  0  0  0
   20.0628   72.0360   -3.9574 O   0  0  0  0  0  0  0  0  0  0  0  0
   16.6568   69.8446   -3.1421 O   0  0  0  0  0  0  0  0  0  0  0  0
   18.8196   70.0031   -1.1846 O   0  0  0  0  0  0  0  0  0  0  0  0
   17.6735   70.0037   -5.8609 O   0  0  0  0  0  0  0  0  0  0  0  0
   18.0301   70.0417   -3.4784 C   0  0  2  0  0  0  0  0  0  0  0  0
   18.7273   70.8083   -2.3542 C   0  0  2  0  0  0  0  0  0  0  0  0
   18.0877   70.8404   -4.7825 C   0  0  1  0  0  0  0  0  0  0  0  0
   20.1334   71.2380   -2.7752 C   0  0  1  0  0  0  0  0  0  0  0  0
   19.5010   71.3400   -5.0678 C   0  0  1  0  0  0  0  0  0  0  0  0
   16.5953   69.3391   -2.3162 H   0  0  0  0  0  0  0  0  0  0  0  0
   17.9309   69.7267   -0.9120 H   0  0  0  0  0  0  0  0  0  0  0  0
   16.7753   69.6789   -5.6915 H   0  0  0  0  0  0  0  0  0  0  0  0
   19.1951   71.8193   -7.3434 O   0  0  0  0  0  0  0  0  0  0  0  0
   19.7123   73.5666   -5.9728 O   0  0  0  0  0  0  0  0  0  0  0  0
   19.4900   72.3773   -6.1431 C   0  0  0  0  0  0  0  0  0  0  0  0
  1  4  1  0
  1 24  1  0
  1  2  1  1
  1  3  2  0
 25 28  1  0
 25 24  1  0
 25 26  1  1
 25 27  2  0
  6 11  1  0
  6 12  1  0
 29 36  1  0
 29 37  1  0
  9  7  1  1
  7 13  1  0
 10  8  1  1
  8 14  1  0
  4  5  1  0
 36 28  1  6
 33 30  1  1
 30 38  1  0
 34 31  1  1
 31 39  1  0
 35 32  1  6
 32 40  1  0
 41 43  1  0
 15 19  2  0
 42 43  2  0
 16 22  2  0
 12 17  1  6
 17 19  1  0
 17 20  1  0
 18 19  1  0
 18 22  1  0
 18 23  1  0
  9 10  1  0
  9 11  1  0
 10 12  1  0
 11  5  1  6
 33 34  1  0
 33 35  1  0
 34 36  1  0
 35 37  1  0
 37 43  1  6
 20 21  2  0
 21 22  1  0
M  CHG  3   2  -1  26  -1  41  -1
M  END
>  <COMPND>  (198) 
    udp_gluA.pdb 

>  <AUTHOR>  (198) 
    GENERATED BY OPEN BABEL 3.1.1

>  <MASTER>  (198) 
        0    0    0    0    0    0    0    0   56    0   56    0

>  <minimizedAffinity>  (198) 
-8.82518

>  <CNNscore>  (198) 
0.3801781237

>  <CNNaffinity>  (198) 
4.6504793167

>  <CNN_VS>  (198) 
1.7680104971

>  <CNNaffinity_variance>  (198) 
0.0414215475

$$$$
199
     RDKit          3D

 43 45  0  0  0  0  0  0  0  0999 V2000
   20.5815   70.8407   -0.6979 P   0  0  2  0  0  0  0  0  0  0  0  0
   20.3389   69.7609    0.4828 O   0  0  0  0  0  0  0  0  0  0  0  0
   21.3940   70.3410   -1.8564 O   0  0  0  0  0  0  0  0  0  0  0  0
   21.1777   72.1322    0.0732 O   0  0  0  0  0  0  0  0  0  0  0  0
   21.4825   72.0160    1.4509 C   0  0  0  0  0  0  0  0  0  0  0  0
   23.6681   72.6046    2.2598 O   0  0  0  0  0  0  0  0  0  0  0  0
   24.2993   69.6759    2.1350 O   0  0  0  0  0  0  0  0  0  0  0  0
   23.8078   70.0669    4.7886 O   0  0  0  0  0  0  0  0  0  0  0  0
   23.0751   70.3224    2.4843 C   0  0  1  0  0  0  0  0  0  0  0  0
   23.1802   70.9325    3.8659 C   0  0  2  0  0  0  0  0  0  0  0  0
   22.9263   71.5545    1.6023 C   0  0  1  0  0  0  0  0  0  0  0  0
   23.9925   72.1875    3.5955 C   0  0  2  0  0  0  0  0  0  0  0  0
   24.4164   68.8854    2.6855 H   0  0  0  0  0  0  0  0  0  0  0  0
   23.2516   69.2838    4.9271 H   0  0  0  0  0  0  0  0  0  0  0  0
   25.9035   73.9159    4.7518 O   0  0  0  0  0  0  0  0  0  0  0  0
   22.6688   76.2337    7.0773 O   0  0  0  0  0  0  0  0  0  0  0  0
   23.6772   73.2512    4.5065 N   0  0  0  0  0  0  0  0  0  0  0  0
   24.2907   75.0680    5.9097 N   0  0  0  0  0  0  0  0  0  0  0  0
   24.7119   74.0618    5.0304 C   0  0  0  0  0  0  0  0  0  0  0  0
   22.3565   73.4839    4.8706 C   0  0  0  0  0  0  0  0  0  0  0  0
   21.9705   74.4470    5.7098 C   0  0  0  0  0  0  0  0  0  0  0  0
   22.9897   75.3377    6.3024 C   0  0  0  0  0  0  0  0  0  0  0  0
   24.9934   75.6439    6.2890 H   0  0  0  0  0  0  0  0  0  0  0  0
   19.0809   71.3055   -1.0786 O   0  0  0  0  0  0  0  0  0  0  0  0
   18.0329   70.7243   -2.1637 P   0  0  2  0  0  0  0  0  0  0  0  0
   16.6295   71.3984   -1.7204 O   0  0  0  0  0  0  0  0  0  0  0  0
   18.0000   69.2257   -2.2468 O   0  0  0  0  0  0  0  0  0  0  0  0
   18.4212   71.4630   -3.5443 O   0  0  0  0  0  0  0  0  0  0  0  0
   17.5611   70.8133   -5.6531 O   0  0  0  0  0  0  0  0  0  0  0  0
   21.0140   72.8087   -6.7320 O   0  0  0  0  0  0  0  0  0  0  0  0
   21.0084   70.9875   -4.4479 O   0  0  0  0  0  0  0  0  0  0  0  0
   18.4237   74.0819   -7.0795 O   0  0  0  0  0  0  0  0  0  0  0  0
   19.8658   72.5309   -5.9306 C   0  0  2  0  0  0  0  0  0  0  0  0
   19.9506   71.1023   -5.3927 C   0  0  2  0  0  0  0  0  0  0  0  0
   18.6241   72.6956   -6.8099 C   0  0  1  0  0  0  0  0  0  0  0  0
   18.6384   70.6907   -4.7237 C   0  0  1  0  0  0  0  0  0  0  0  0
   17.3774   72.1474   -6.1217 C   0  0  1  0  0  0  0  0  0  0  0  0
   21.8154   72.7103   -6.1942 H   0  0  0  0  0  0  0  0  0  0  0  0
   21.8441   71.2474   -4.8655 H   0  0  0  0  0  0  0  0  0  0  0  0
   19.2102   74.4431   -7.5174 H   0  0  0  0  0  0  0  0  0  0  0  0
   15.9983   70.7019   -7.3506 O   0  0  0  0  0  0  0  0  0  0  0  0
   15.6377   72.9402   -7.5936 O   0  0  0  0  0  0  0  0  0  0  0  0
   16.2519   72.0092   -7.0946 C   0  0  0  0  0  0  0  0  0  0  0  0
  1  4  1  0
  1 24  1  0
  1  2  1  1
  1  3  2  0
 25 28  1  0
 25 24  1  0
 25 26  1  1
 25 27  2  0
  6 11  1  0
  6 12  1  0
 29 36  1  0
 29 37  1  0
  9  7  1  6
  7 13  1  0
 10  8  1  1
  8 14  1  0
  4  5  1  0
 36 28  1  1
 33 30  1  6
 30 38  1  0
 34 31  1  1
 31 39  1  0
 35 32  1  1
 32 40  1  0
 41 43  1  0
 15 19  2  0
 42 43  2  0
 16 22  2  0
 12 17  1  1
 17 19  1  0
 17 20  1  0
 18 19  1  0
 18 22  1  0
 18 23  1  0
  9 10  1  0
  9 11  1  0
 10 12  1  0
 11  5  1  1
 33 34  1  0
 33 35  1  0
 34 36  1  0
 35 37  1  0
 37 43  1  6
 20 21  2  0
 21 22  1  0
M  CHG  3   2  -1  26  -1  41  -1
M  END
>  <COMPND>  (199) 
    udp_gluA.pdb 

>  <AUTHOR>  (199) 
    GENERATED BY OPEN BABEL 3.1.1

>  <MASTER>  (199) 
        0    0    0    0    0    0    0    0   56    0   56    0

>  <minimizedAffinity>  (199) 
-7.94173

>  <CNNscore>  (199) 
0.3764362931

>  <CNNaffinity>  (199) 
4.3148026466

>  <CNN_VS>  (199) 
1.6242482662

>  <CNNaffinity_variance>  (199) 
0.1029041857

$$$$
200
     RDKit          3D

 43 45  0  0  0  0  0  0  0  0999 V2000
   18.5452   72.7392   -0.8220 P   0  0  2  0  0  0  0  0  0  0  0  0
   18.2082   74.3209   -0.7621 O   0  0  0  0  0  0  0  0  0  0  0  0
   18.6855   72.0703    0.5139 O   0  0  0  0  0  0  0  0  0  0  0  0
   19.8391   72.6540   -1.7897 O   0  0  0  0  0  0  0  0  0  0  0  0
   21.1035   73.0092   -1.2609 C   0  0  0  0  0  0  0  0  0  0  0  0
   23.1497   71.9582   -0.5638 O   0  0  0  0  0  0  0  0  0  0  0  0
   22.2697   69.5938   -2.1846 O   0  0  0  0  0  0  0  0  0  0  0  0
   21.6498   68.8356    0.3604 O   0  0  0  0  0  0  0  0  0  0  0  0
   21.4855   70.4981   -1.4063 C   0  0  1  0  0  0  0  0  0  0  0  0
   21.6725   70.2175    0.0697 C   0  0  2  0  0  0  0  0  0  0  0  0
   22.0934   71.8871   -1.5460 C   0  0  1  0  0  0  0  0  0  0  0  0
   23.0265   70.8502    0.3420 C   0  0  2  0  0  0  0  0  0  0  0  0
   21.9005   68.6994   -2.1110 H   0  0  0  0  0  0  0  0  0  0  0  0
   20.7670   68.4798    0.1709 H   0  0  0  0  0  0  0  0  0  0  0  0
   23.8336   69.2681    2.5379 O   0  0  0  0  0  0  0  0  0  0  0  0
   23.4454   72.8075    5.4646 O   0  0  0  0  0  0  0  0  0  0  0  0
   23.1450   71.3329    1.6888 N   0  0  0  0  0  0  0  0  0  0  0  0
   23.6385   71.0322    3.9937 N   0  0  0  0  0  0  0  0  0  0  0  0
   23.5584   70.4556    2.7192 C   0  0  0  0  0  0  0  0  0  0  0  0
   22.8550   72.6608    1.9777 C   0  0  0  0  0  0  0  0  0  0  0  0
   22.9361   73.1959    3.1975 C   0  0  0  0  0  0  0  0  0  0  0  0
   23.3598   72.3470    4.3302 C   0  0  0  0  0  0  0  0  0  0  0  0
   23.9222   70.4405    4.7277 H   0  0  0  0  0  0  0  0  0  0  0  0
   17.3589   72.1502   -1.7486 O   0  0  0  0  0  0  0  0  0  0  0  0
   17.0983   70.6603   -2.3195 P   0  0  2  0  0  0  0  0  0  0  0  0
   15.4910   70.4995   -2.2135 O   0  0  0  0  0  0  0  0  0  0  0  0
   17.8750   69.5861   -1.6146 O   0  0  0  0  0  0  0  0  0  0  0  0
   17.3930   70.7708   -3.9017 O   0  0  0  0  0  0  0  0  0  0  0  0
   17.0239   72.9076   -4.8541 O   0  0  0  0  0  0  0  0  0  0  0  0
   17.5191   70.5617   -8.2186 O   0  0  0  0  0  0  0  0  0  0  0  0
   15.9369   69.5968   -5.9602 O   0  0  0  0  0  0  0  0  0  0  0  0
   19.6591   72.3217   -7.3390 O   0  0  0  0  0  0  0  0  0  0  0  0
   17.7307   70.9579   -6.8635 C   0  0  2  0  0  0  0  0  0  0  0  0
   16.4008   70.9336   -6.1096 C   0  0  2  0  0  0  0  0  0  0  0  0
   18.3131   72.3731   -6.8700 C   0  0  1  0  0  0  0  0  0  0  0  0
   16.5447   71.5684   -4.7257 C   0  0  1  0  0  0  0  0  0  0  0  0
   18.3067   72.9845   -5.4719 C   0  0  1  0  0  0  0  0  0  0  0  0
   17.1491   69.6650   -8.2395 H   0  0  0  0  0  0  0  0  0  0  0  0
   15.8436   69.1878   -6.8345 H   0  0  0  0  0  0  0  0  0  0  0  0
   19.6772   71.9343   -8.2281 H   0  0  0  0  0  0  0  0  0  0  0  0
   18.2401   74.9445   -6.7586 O   0  0  0  0  0  0  0  0  0  0  0  0
   18.9954   75.1324   -4.6154 O   0  0  0  0  0  0  0  0  0  0  0  0
   18.5609   74.4555   -5.5351 C   0  0  0  0  0  0  0  0  0  0  0  0
  1  4  1  0
  1 24  1  0
  1  2  1  1
  1  3  2  0
 25 28  1  0
 25 24  1  0
 25 26  1  6
 25 27  2  0
  6 11  1  0
  6 12  1  0
 29 36  1  0
 29 37  1  0
  9  7  1  6
  7 13  1  0
 10  8  1  6
  8 14  1  0
  4  5  1  0
 36 28  1  1
 33 30  1  6
 30 38  1  0
 34 31  1  1
 31 39  1  0
 35 32  1  1
 32 40  1  0
 41 43  1  0
 15 19  2  0
 42 43  2  0
 16 22  2  0
 12 17  1  1
 17 19  1  0
 17 20  1  0
 18 19  1  0
 18 22  1  0
 18 23  1  0
  9 10  1  0
  9 11  1  0
 10 12  1  0
 11  5  1  1
 33 34  1  0
 33 35  1  0
 34 36  1  0
 35 37  1  0
 37 43  1  6
 20 21  2  0
 21 22  1  0
M  CHG  3   2  -1  26  -1  41  -1
M  END
