1
     RDKit          3D

 43 45  0  0  0  0  0  0  0  0999 V2000
   20.1799   71.2813   -0.0905 P   0  0  2  0  0  0  0  0  0  0  0  0
   18.9996   71.4693    0.9999 O   0  0  0  0  0  0  0  0  0  0  0  0
   20.9061   72.5408   -0.4619 O   0  0  0  0  0  0  0  0  0  0  0  0
   19.4606   70.4992   -1.3107 O   0  0  0  0  0  0  0  0  0  0  0  0
   19.3289   71.1634   -2.5554 C   0  0  0  0  0  0  0  0  0  0  0  0
   17.7282   72.0286   -4.1248 O   0  0  0  0  0  0  0  0  0  0  0  0
   15.6375   70.6828   -2.4489 O   0  0  0  0  0  0  0  0  0  0  0  0
   15.9332   68.9508   -4.5344 O   0  0  0  0  0  0  0  0  0  0  0  0
   16.9622   70.2517   -2.7567 C   0  0  1  0  0  0  0  0  0  0  0  0
   17.0367   69.7627   -4.1881 C   0  0  2  0  0  0  0  0  0  0  0  0
   17.8594   71.4825   -2.7940 C   0  0  1  0  0  0  0  0  0  0  0  0
   17.0693   71.0675   -4.9656 C   0  0  2  0  0  0  0  0  0  0  0  0
   15.0462   69.9138   -2.4192 H   0  0  0  0  0  0  0  0  0  0  0  0
   15.9571   68.1331   -4.0133 H   0  0  0  0  0  0  0  0  0  0  0  0
   15.9162   70.3104   -7.4303 O   0  0  0  0  0  0  0  0  0  0  0  0
   19.9499   70.6566   -9.6328 O   0  0  0  0  0  0  0  0  0  0  0  0
   17.7949   70.9521   -6.1991 N   0  0  0  0  0  0  0  0  0  0  0  0
   17.9256   70.4835   -8.5250 N   0  0  0  0  0  0  0  0  0  0  0  0
   17.1216   70.5637   -7.3808 C   0  0  0  0  0  0  0  0  0  0  0  0
   19.1586   71.2230   -6.2290 C   0  0  0  0  0  0  0  0  0  0  0  0
   19.9111   71.1406   -7.3281 C   0  0  0  0  0  0  0  0  0  0  0  0
   19.2849   70.7415   -8.6050 C   0  0  0  0  0  0  0  0  0  0  0  0
   17.4782   70.2144   -9.3600 H   0  0  0  0  0  0  0  0  0  0  0  0
   21.1107   70.1393    0.5746 O   0  0  0  0  0  0  0  0  0  0  0  0
   22.6096   69.6506    0.2177 P   0  0  2  0  0  0  0  0  0  0  0  0
   22.9170   70.3919   -1.1871 O   0  0  0  0  0  0  0  0  0  0  0  0
   22.7781   68.1592    0.1807 O   0  0  0  0  0  0  0  0  0  0  0  0
   23.5512   70.4037    1.2906 O   0  0  0  0  0  0  0  0  0  0  0  0
   24.9953   69.4343    2.9004 O   0  0  0  0  0  0  0  0  0  0  0  0
   23.8298   72.7946    4.9981 O   0  0  0  0  0  0  0  0  0  0  0  0
   26.4939   72.6388    3.9369 O   0  0  0  0  0  0  0  0  0  0  0  0
   21.9140   71.3866    3.3469 O   0  0  0  0  0  0  0  0  0  0  0  0
   24.1800   72.0420    3.8335 C   0  0  1  0  0  0  0  0  0  0  0  0
   25.6090   71.5243    4.0089 C   0  0  1  0  0  0  0  0  0  0  0  0
   23.2020   70.8789    3.6780 C   0  0  2  0  0  0  0  0  0  0  0  0
   25.9606   70.4921    2.9291 C   0  0  1  0  0  0  0  0  0  0  0  0
   23.6704   69.8857    2.6130 C   0  0  1  0  0  0  0  0  0  0  0  0
   24.4466   73.5350    5.1023 H   0  0  0  0  0  0  0  0  0  0  0  0
   26.2607   73.2832    4.6236 H   0  0  0  0  0  0  0  0  0  0  0  0
   21.6286   72.0138    4.0288 H   0  0  0  0  0  0  0  0  0  0  0  0
   28.3188   70.6579    2.5820 O   0  0  0  0  0  0  0  0  0  0  0  0
   27.3224   69.8468    3.1766 C   0  0  0  0  0  0  0  0  0  0  0  0
   29.1910   70.2596    2.7318 H   0  0  0  0  0  0  0  0  0  0  0  0
 25 28  1  0
 25 24  1  0
 25 26  1  6
 25 27  2  0
  1  4  1  0
  1 24  1  0
  1  2  1  1
  1  3  2  0
  6 11  1  0
  6 12  1  0
 29 36  1  0
 29 37  1  0
  9  7  1  6
  7 13  1  0
 10  8  1  6
  8 14  1  0
 37 28  1  6
  4  5  1  0
 33 30  1  1
 30 38  1  0
 34 31  1  6
 31 39  1  0
 35 32  1  6
 32 40  1  0
 41 42  1  0
 41 43  1  0
 15 19  2  0
 16 22  2  0
 12 17  1  6
 17 19  1  0
 17 20  1  0
 18 19  1  0
 18 22  1  0
 18 23  1  0
  9 10  1  0
  9 11  1  0
 10 12  1  0
 11  5  1  6
 33 34  1  0
 33 35  1  0
 34 36  1  0
 35 37  1  0
 36 42  1  1
 20 21  2  0
 21 22  1  0
M  CHG  2   2  -1  26  -1
M  END
>  <COMPND>  (1) 
    8629 

>  <AUTHOR>  (1) 
    GENERATED BY OPEN BABEL 3.1.1

>  <MASTER>  (1) 
        0    0    0    0    0    0    0    0   58    0   58    0

>  <minimizedAffinity>  (1) 
-8.89986

>  <CNNscore>  (1) 
0.7993742228

>  <CNNaffinity>  (1) 
4.8664226532

>  <CNN_VS>  (1) 
3.8900928497

>  <CNNaffinity_variance>  (1) 
0.4181126654

$$$$
2
     RDKit          3D

 43 45  0  0  0  0  0  0  0  0999 V2000
   22.7482   70.1051   -2.0626 P   0  0  2  0  0  0  0  0  0  0  0  0
   23.4600   71.1921   -3.0265 O   0  0  0  0  0  0  0  0  0  0  0  0
   23.1427   68.6796   -2.3151 O   0  0  0  0  0  0  0  0  0  0  0  0
   21.1704   70.4334   -2.2056 O   0  0  0  0  0  0  0  0  0  0  0  0
   20.7566   71.3370   -3.2155 C   0  0  0  0  0  0  0  0  0  0  0  0
   18.7572   72.0908   -4.3147 O   0  0  0  0  0  0  0  0  0  0  0  0
   17.2568   70.8051   -2.0593 O   0  0  0  0  0  0  0  0  0  0  0  0
   17.0128   68.9675   -4.0594 O   0  0  0  0  0  0  0  0  0  0  0  0
   18.4559   70.3788   -2.7041 C   0  0  1  0  0  0  0  0  0  0  0  0
   18.1440   69.8142   -4.0743 C   0  0  2  0  0  0  0  0  0  0  0  0
   19.2698   71.6197   -3.0491 C   0  0  1  0  0  0  0  0  0  0  0  0
   17.9197   71.0753   -4.8912 C   0  0  2  0  0  0  0  0  0  0  0  0
   16.7204   70.0297   -1.8290 H   0  0  0  0  0  0  0  0  0  0  0  0
   17.2053   68.1797   -3.5274 H   0  0  0  0  0  0  0  0  0  0  0  0
   16.1560   70.1469   -6.8925 O   0  0  0  0  0  0  0  0  0  0  0  0
   19.3991   70.4584  -10.1524 O   0  0  0  0  0  0  0  0  0  0  0  0
   18.2767   70.9046   -6.2713 N   0  0  0  0  0  0  0  0  0  0  0  0
   17.7722   70.3030   -8.5141 N   0  0  0  0  0  0  0  0  0  0  0  0
   17.3165   70.4313   -7.1958 C   0  0  0  0  0  0  0  0  0  0  0  0
   19.5662   71.2056   -6.6959 C   0  0  0  0  0  0  0  0  0  0  0  0
   19.9853   71.0765   -7.9565 C   0  0  0  0  0  0  0  0  0  0  0  0
   19.0441   70.5880   -8.9849 C   0  0  0  0  0  0  0  0  0  0  0  0
   17.1208   69.9745   -9.1755 H   0  0  0  0  0  0  0  0  0  0  0  0
   23.0995   70.6479   -0.5810 O   0  0  0  0  0  0  0  0  0  0  0  0
   22.6632   70.1075    0.8786 P   0  0  2  0  0  0  0  0  0  0  0  0
   23.0716   68.5427    0.8323 O   0  0  0  0  0  0  0  0  0  0  0  0
   21.2246   70.3620    1.2244 O   0  0  0  0  0  0  0  0  0  0  0  0
   23.7238   70.7756    1.8954 O   0  0  0  0  0  0  0  0  0  0  0  0
   25.6042   69.7275    2.8864 O   0  0  0  0  0  0  0  0  0  0  0  0
   24.6563   72.3765    5.9088 O   0  0  0  0  0  0  0  0  0  0  0  0
   26.9849   72.8423    4.2937 O   0  0  0  0  0  0  0  0  0  0  0  0
   22.5459   71.0621    4.4263 O   0  0  0  0  0  0  0  0  0  0  0  0
   24.7859   71.9380    4.5537 C   0  0  1  0  0  0  0  0  0  0  0  0
   26.2587   71.6163    4.2926 C   0  0  1  0  0  0  0  0  0  0  0  0
   23.9195   70.6973    4.3455 C   0  0  2  0  0  0  0  0  0  0  0  0
   26.4380   70.8903    2.9525 C   0  0  1  0  0  0  0  0  0  0  0  0
   24.2111   70.0234    3.0035 C   0  0  1  0  0  0  0  0  0  0  0  0
   25.2036   73.1644    6.0475 H   0  0  0  0  0  0  0  0  0  0  0  0
   26.8629   73.2910    5.1451 H   0  0  0  0  0  0  0  0  0  0  0  0
   22.3740   71.4873    5.2804 H   0  0  0  0  0  0  0  0  0  0  0  0
   28.6363   71.5063    2.2475 O   0  0  0  0  0  0  0  0  0  0  0  0
   27.8761   70.4203    2.7446 C   0  0  0  0  0  0  0  0  0  0  0  0
   29.5539   71.2219    2.1106 H   0  0  0  0  0  0  0  0  0  0  0  0
 25 28  1  0
 25 24  1  0
 25 26  1  6
 25 27  2  0
  1  4  1  0
  1 24  1  0
  1  2  1  6
  1  3  2  0
  6 11  1  0
  6 12  1  0
 29 36  1  0
 29 37  1  0
  9  7  1  6
  7 13  1  0
 10  8  1  1
  8 14  1  0
 37 28  1  6
  4  5  1  0
 33 30  1  1
 30 38  1  0
 34 31  1  6
 31 39  1  0
 35 32  1  6
 32 40  1  0
 41 42  1  0
 41 43  1  0
 15 19  2  0
 16 22  2  0
 12 17  1  6
 17 19  1  0
 17 20  1  0
 18 19  1  0
 18 22  1  0
 18 23  1  0
  9 10  1  0
  9 11  1  0
 10 12  1  0
 11  5  1  6
 33 34  1  0
 33 35  1  0
 34 36  1  0
 35 37  1  0
 36 42  1  1
 20 21  2  0
 21 22  1  0
M  CHG  2   2  -1  26  -1
M  END
>  <COMPND>  (2) 
    8629 

>  <AUTHOR>  (2) 
    GENERATED BY OPEN BABEL 3.1.1

>  <MASTER>  (2) 
        0    0    0    0    0    0    0    0   58    0   58    0

>  <minimizedAffinity>  (2) 
-9.45149

>  <CNNscore>  (2) 
0.7660760283

>  <CNNaffinity>  (2) 
5.0222196579

>  <CNN_VS>  (2) 
3.8474020958

>  <CNNaffinity_variance>  (2) 
0.3313234746

$$$$
3
     RDKit          3D

 43 45  0  0  0  0  0  0  0  0999 V2000
   22.3454   69.8160   -0.1814 P   0  0  2  0  0  0  0  0  0  0  0  0
   22.5970   68.2251   -0.0288 O   0  0  0  0  0  0  0  0  0  0  0  0
   23.2697   70.5152   -1.1344 O   0  0  0  0  0  0  0  0  0  0  0  0
   22.3642   70.3601    1.3423 O   0  0  0  0  0  0  0  0  0  0  0  0
   23.4185   69.9479    2.1945 C   0  0  0  0  0  0  0  0  0  0  0  0
   24.4711   70.4779    4.2885 O   0  0  0  0  0  0  0  0  0  0  0  0
   22.2330   72.4292    4.7057 O   0  0  0  0  0  0  0  0  0  0  0  0
   24.2794   74.0371    3.8914 O   0  0  0  0  0  0  0  0  0  0  0  0
   22.9043   72.0709    3.4990 C   0  0  1  0  0  0  0  0  0  0  0  0
   24.2854   72.6911    3.4615 C   0  0  2  0  0  0  0  0  0  0  0  0
   23.2255   70.5829    3.5647 C   0  0  1  0  0  0  0  0  0  0  0  0
   25.0645   71.7821    4.3969 C   0  0  2  0  0  0  0  0  0  0  0  0
   22.0172   73.3753    4.6868 H   0  0  0  0  0  0  0  0  0  0  0  0
   23.7717   74.5749    3.2639 H   0  0  0  0  0  0  0  0  0  0  0  0
   27.0523   73.5881    5.2714 O   0  0  0  0  0  0  0  0  0  0  0  0
   30.3598   71.3443    2.9765 O   0  0  0  0  0  0  0  0  0  0  0  0
   26.4533   71.6933    4.0434 N   0  0  0  0  0  0  0  0  0  0  0  0
   28.6976   72.4693    4.1281 N   0  0  0  0  0  0  0  0  0  0  0  0
   27.3698   72.6517    4.5352 C   0  0  0  0  0  0  0  0  0  0  0  0
   26.8939   70.6643    3.2183 C   0  0  0  0  0  0  0  0  0  0  0  0
   28.1634   70.5051    2.8384 C   0  0  0  0  0  0  0  0  0  0  0  0
   29.1844   71.4635    3.3083 C   0  0  0  0  0  0  0  0  0  0  0  0
   29.3538   73.1252    4.4581 H   0  0  0  0  0  0  0  0  0  0  0  0
   20.7807   69.9001   -0.5780 O   0  0  0  0  0  0  0  0  0  0  0  0
   19.7554   71.1497   -0.5942 P   0  0  2  0  0  0  0  0  0  0  0  0
   20.7004   72.3999   -0.9962 O   0  0  0  0  0  0  0  0  0  0  0  0
   18.9925   71.3363    0.6853 O   0  0  0  0  0  0  0  0  0  0  0  0
   18.8310   70.9029   -1.8941 O   0  0  0  0  0  0  0  0  0  0  0  0
   18.8753   69.2671   -3.6084 O   0  0  0  0  0  0  0  0  0  0  0  0
   17.9913   72.5920   -5.8918 O   0  0  0  0  0  0  0  0  0  0  0  0
   15.9561   70.6254   -5.4035 O   0  0  0  0  0  0  0  0  0  0  0  0
   19.8499   72.8097   -3.6833 O   0  0  0  0  0  0  0  0  0  0  0  0
   17.9492   71.7621   -4.7279 C   0  0  1  0  0  0  0  0  0  0  0  0
   17.3369   70.4161   -5.1205 C   0  0  1  0  0  0  0  0  0  0  0  0
   19.3694   71.5726   -4.1983 C   0  0  2  0  0  0  0  0  0  0  0  0
   17.5016   69.3838   -3.9970 C   0  0  1  0  0  0  0  0  0  0  0  0
   19.4302   70.4897   -3.1195 C   0  0  1  0  0  0  0  0  0  0  0  0
   17.0926   72.7167   -6.2328 H   0  0  0  0  0  0  0  0  0  0  0  0
   15.8660   71.2797   -6.1141 H   0  0  0  0  0  0  0  0  0  0  0  0
   19.8066   73.4867   -4.3758 H   0  0  0  0  0  0  0  0  0  0  0  0
   15.6467   68.0386   -4.6746 O   0  0  0  0  0  0  0  0  0  0  0  0
   17.0397   67.9928   -4.4262 C   0  0  0  0  0  0  0  0  0  0  0  0
   15.3388   67.1602   -4.9490 H   0  0  0  0  0  0  0  0  0  0  0  0
 25 28  1  0
 25 24  1  0
 25 26  1  6
 25 27  2  0
  1  4  1  0
  1 24  1  0
  1  2  1  1
  1  3  2  0
  6 11  1  0
  6 12  1  0
 29 36  1  0
 29 37  1  0
  9  7  1  1
  7 13  1  0
 10  8  1  1
  8 14  1  0
 37 28  1  1
  4  5  1  0
 33 30  1  6
 30 38  1  0
 34 31  1  1
 31 39  1  0
 35 32  1  1
 32 40  1  0
 41 42  1  0
 41 43  1  0
 15 19  2  0
 16 22  2  0
 12 17  1  6
 17 19  1  0
 17 20  1  0
 18 19  1  0
 18 22  1  0
 18 23  1  0
  9 10  1  0
  9 11  1  0
 10 12  1  0
 11  5  1  6
 33 34  1  0
 33 35  1  0
 34 36  1  0
 35 37  1  0
 36 42  1  6
 20 21  2  0
 21 22  1  0
M  CHG  2   2  -1  26  -1
M  END
>  <COMPND>  (3) 
    8629 

>  <AUTHOR>  (3) 
    GENERATED BY OPEN BABEL 3.1.1

>  <MASTER>  (3) 
        0    0    0    0    0    0    0    0   58    0   58    0

>  <minimizedAffinity>  (3) 
-8.80726

>  <CNNscore>  (3) 
0.7411260605

>  <CNNaffinity>  (3) 
5.0787582397

>  <CNN_VS>  (3) 
3.7640001774

>  <CNNaffinity_variance>  (3) 
0.7662853003

$$$$
4
     RDKit          3D

 43 45  0  0  0  0  0  0  0  0999 V2000
   24.1853   70.2856    2.1425 P   0  0  2  0  0  0  0  0  0  0  0  0
   23.2838   71.4267    2.8515 O   0  0  0  0  0  0  0  0  0  0  0  0
   24.1419   68.9405    2.8059 O   0  0  0  0  0  0  0  0  0  0  0  0
   25.6494   70.9644    2.0254 O   0  0  0  0  0  0  0  0  0  0  0  0
   26.6759   70.5111    2.8906 C   0  0  0  0  0  0  0  0  0  0  0  0
   28.6533   71.4346    3.8960 O   0  0  0  0  0  0  0  0  0  0  0  0
   27.2650   74.0880    3.7438 O   0  0  0  0  0  0  0  0  0  0  0  0
   28.9628   74.1824    1.6119 O   0  0  0  0  0  0  0  0  0  0  0  0
   27.2245   72.9947    2.8281 C   0  0  1  0  0  0  0  0  0  0  0  0
   28.5205   72.9134    2.0487 C   0  0  2  0  0  0  0  0  0  0  0  0
   27.2581   71.7039    3.6367 C   0  0  1  0  0  0  0  0  0  0  0  0
   29.4597   72.2845    3.0639 C   0  0  2  0  0  0  0  0  0  0  0  0
   27.2442   74.9236    3.2505 H   0  0  0  0  0  0  0  0  0  0  0  0
   28.3323   74.5406    0.9678 H   0  0  0  0  0  0  0  0  0  0  0  0
   32.1427   72.1805    3.9404 O   0  0  0  0  0  0  0  0  0  0  0  0
   33.3078   69.2154    0.6099 O   0  0  0  0  0  0  0  0  0  0  0  0
   30.4853   71.4933    2.4445 N   0  0  0  0  0  0  0  0  0  0  0  0
   32.7206   70.7040    2.2814 N   0  0  0  0  0  0  0  0  0  0  0  0
   31.8014   71.5126    2.9621 C   0  0  0  0  0  0  0  0  0  0  0  0
   30.1816   70.7093    1.3368 C   0  0  0  0  0  0  0  0  0  0  0  0
   31.0700   69.9449    0.6983 C   0  0  0  0  0  0  0  0  0  0  0  0
   32.4676   69.9082    1.1754 C   0  0  0  0  0  0  0  0  0  0  0  0
   33.6439   70.7019    2.6240 H   0  0  0  0  0  0  0  0  0  0  0  0
   23.6550   70.3001    0.6155 O   0  0  0  0  0  0  0  0  0  0  0  0
   22.5764   69.3647   -0.1425 P   0  0  2  0  0  0  0  0  0  0  0  0
   21.3611   69.2632    0.9206 O   0  0  0  0  0  0  0  0  0  0  0  0
   23.1193   68.0387   -0.5909 O   0  0  0  0  0  0  0  0  0  0  0  0
   21.9999   70.2887   -1.3336 O   0  0  0  0  0  0  0  0  0  0  0  0
   22.6447   71.9723   -2.8720 O   0  0  0  0  0  0  0  0  0  0  0  0
   19.6274   73.9940   -0.9075 O   0  0  0  0  0  0  0  0  0  0  0  0
   19.1986   73.0660   -3.5913 O   0  0  0  0  0  0  0  0  0  0  0  0
   21.4056   72.2572    0.5761 O   0  0  0  0  0  0  0  0  0  0  0  0
   20.2797   72.8517   -1.4686 C   0  0  1  0  0  0  0  0  0  0  0  0
   20.4781   73.0996   -2.9652 C   0  0  1  0  0  0  0  0  0  0  0  0
   21.6254   72.6538   -0.7733 C   0  0  2  0  0  0  0  0  0  0  0  0
   21.4037   72.0434   -3.5838 C   0  0  1  0  0  0  0  0  0  0  0  0
   22.4879   71.6179   -1.4966 C   0  0  1  0  0  0  0  0  0  0  0  0
   18.7720   74.1250   -1.3442 H   0  0  0  0  0  0  0  0  0  0  0  0
   18.6238   73.7373   -3.1912 H   0  0  0  0  0  0  0  0  0  0  0  0
   20.8587   72.9212    1.0231 H   0  0  0  0  0  0  0  0  0  0  0  0
   22.3838   73.6216   -5.0864 O   0  0  0  0  0  0  0  0  0  0  0  0
   21.7417   72.3607   -5.0389 C   0  0  0  0  0  0  0  0  0  0  0  0
   22.6051   73.8366   -6.0064 H   0  0  0  0  0  0  0  0  0  0  0  0
 25 28  1  0
 25 24  1  0
 25 26  1  1
 25 27  2  0
  1  4  1  0
  1 24  1  0
  1  2  1  1
  1  3  2  0
  6 11  1  0
  6 12  1  0
 29 36  1  0
 29 37  1  0
  9  7  1  1
  7 13  1  0
 10  8  1  1
  8 14  1  0
 37 28  1  6
  4  5  1  0
 33 30  1  1
 30 38  1  0
 34 31  1  6
 31 39  1  0
 35 32  1  1
 32 40  1  0
 41 42  1  0
 41 43  1  0
 15 19  2  0
 16 22  2  0
 12 17  1  6
 17 19  1  0
 17 20  1  0
 18 19  1  0
 18 22  1  0
 18 23  1  0
  9 10  1  0
  9 11  1  0
 10 12  1  0
 11  5  1  6
 33 34  1  0
 33 35  1  0
 34 36  1  0
 35 37  1  0
 36 42  1  6
 20 21  2  0
 21 22  1  0
M  CHG  2   2  -1  26  -1
M  END
>  <COMPND>  (4) 
    8629 

>  <AUTHOR>  (4) 
    GENERATED BY OPEN BABEL 3.1.1

>  <MASTER>  (4) 
        0    0    0    0    0    0    0    0   58    0   58    0

>  <minimizedAffinity>  (4) 
-8.17942

>  <CNNscore>  (4) 
0.7236840129

>  <CNNaffinity>  (4) 
4.6493549347

>  <CNN_VS>  (4) 
3.3646638393

>  <CNNaffinity_variance>  (4) 
0.0157669764

$$$$
5
     RDKit          3D

 43 45  0  0  0  0  0  0  0  0999 V2000
   20.0544   70.8738   -0.1640 P   0  0  2  0  0  0  0  0  0  0  0  0
   20.8171   69.5745    0.4255 O   0  0  0  0  0  0  0  0  0  0  0  0
   19.0864   71.5233    0.7807 O   0  0  0  0  0  0  0  0  0  0  0  0
   19.4296   70.3556   -1.5637 O   0  0  0  0  0  0  0  0  0  0  0  0
   19.3087   71.2778   -2.6327 C   0  0  0  0  0  0  0  0  0  0  0  0
   17.6892   72.0861   -4.2131 O   0  0  0  0  0  0  0  0  0  0  0  0
   15.6260   70.7397   -2.5040 O   0  0  0  0  0  0  0  0  0  0  0  0
   15.9432   68.9722   -4.5563 O   0  0  0  0  0  0  0  0  0  0  0  0
   16.9565   70.3241   -2.8080 C   0  0  1  0  0  0  0  0  0  0  0  0
   17.0344   69.8085   -4.2298 C   0  0  2  0  0  0  0  0  0  0  0  0
   17.8335   71.5684   -2.8724 C   0  0  1  0  0  0  0  0  0  0  0  0
   17.0433   71.0982   -5.0327 C   0  0  2  0  0  0  0  0  0  0  0  0
   15.0473   69.9619   -2.4573 H   0  0  0  0  0  0  0  0  0  0  0  0
   15.9819   68.1654   -4.0195 H   0  0  0  0  0  0  0  0  0  0  0  0
   15.8857   70.3175   -7.4880 O   0  0  0  0  0  0  0  0  0  0  0  0
   19.9157   70.6405   -9.7006 O   0  0  0  0  0  0  0  0  0  0  0  0
   17.7667   70.9704   -6.2663 N   0  0  0  0  0  0  0  0  0  0  0  0
   17.8933   70.4791   -8.5877 N   0  0  0  0  0  0  0  0  0  0  0  0
   17.0913   70.5708   -7.4429 C   0  0  0  0  0  0  0  0  0  0  0  0
   19.1305   71.2405   -6.3011 C   0  0  0  0  0  0  0  0  0  0  0  0
   19.8812   71.1471   -7.4006 C   0  0  0  0  0  0  0  0  0  0  0  0
   19.2525   70.7357   -8.6725 C   0  0  0  0  0  0  0  0  0  0  0  0
   17.4444   70.2021   -9.4193 H   0  0  0  0  0  0  0  0  0  0  0  0
   21.2716   71.8252   -0.6396 O   0  0  0  0  0  0  0  0  0  0  0  0
   22.1855   72.8721    0.1860 P   0  0  2  0  0  0  0  0  0  0  0  0
   21.1032   73.9077    0.7974 O   0  0  0  0  0  0  0  0  0  0  0  0
   23.2693   73.5179   -0.6277 O   0  0  0  0  0  0  0  0  0  0  0  0
   22.7146   72.0356    1.4609 O   0  0  0  0  0  0  0  0  0  0  0  0
   24.9213   72.5492    2.1562 O   0  0  0  0  0  0  0  0  0  0  0  0
   24.3793   69.0217    4.2331 O   0  0  0  0  0  0  0  0  0  0  0  0
   24.3883   71.5171    5.6547 O   0  0  0  0  0  0  0  0  0  0  0  0
   23.3197   69.2969    1.5534 O   0  0  0  0  0  0  0  0  0  0  0  0
   23.9812   70.2681    3.6558 C   0  0  1  0  0  0  0  0  0  0  0  0
   24.8097   71.3813    4.3003 C   0  0  1  0  0  0  0  0  0  0  0  0
   24.2247   70.2206    2.1486 C   0  0  2  0  0  0  0  0  0  0  0  0
   24.6330   72.7084    3.5501 C   0  0  1  0  0  0  0  0  0  0  0  0
   24.0712   71.6011    1.5078 C   0  0  1  0  0  0  0  0  0  0  0  0
   24.2268   69.0451    5.1900 H   0  0  0  0  0  0  0  0  0  0  0  0
   24.5046   70.6721    6.1170 H   0  0  0  0  0  0  0  0  0  0  0  0
   23.4269   68.4269    1.9674 H   0  0  0  0  0  0  0  0  0  0  0  0
   26.8954   73.2983    4.0425 O   0  0  0  0  0  0  0  0  0  0  0  0
   25.5694   73.7930    4.0783 C   0  0  0  0  0  0  0  0  0  0  0  0
   27.5026   73.9781    4.3756 H   0  0  0  0  0  0  0  0  0  0  0  0
 25 28  1  0
 25 24  1  0
 25 26  1  1
 25 27  2  0
  1  4  1  0
  1 24  1  0
  1  2  1  1
  1  3  2  0
  6 11  1  0
  6 12  1  0
 29 36  1  0
 29 37  1  0
  9  7  1  6
  7 13  1  0
 10  8  1  6
  8 14  1  0
 37 28  1  1
  4  5  1  0
 33 30  1  1
 30 38  1  0
 34 31  1  1
 31 39  1  0
 35 32  1  6
 32 40  1  0
 41 42  1  0
 41 43  1  0
 15 19  2  0
 16 22  2  0
 12 17  1  6
 17 19  1  0
 17 20  1  0
 18 19  1  0
 18 22  1  0
 18 23  1  0
  9 10  1  0
  9 11  1  0
 10 12  1  0
 11  5  1  6
 33 34  1  0
 33 35  1  0
 34 36  1  0
 35 37  1  0
 36 42  1  1
 20 21  2  0
 21 22  1  0
M  CHG  2   2  -1  26  -1
M  END
>  <COMPND>  (5) 
    8629 

>  <AUTHOR>  (5) 
    GENERATED BY OPEN BABEL 3.1.1

>  <MASTER>  (5) 
        0    0    0    0    0    0    0    0   58    0   58    0

>  <minimizedAffinity>  (5) 
-8.49450

>  <CNNscore>  (5) 
0.7078840733

>  <CNNaffinity>  (5) 
4.7696199417

>  <CNN_VS>  (5) 
3.3763380051

>  <CNNaffinity_variance>  (5) 
0.1296351552

$$$$
6
     RDKit          3D

 43 45  0  0  0  0  0  0  0  0999 V2000
   24.0574   70.2612    2.2629 P   0  0  2  0  0  0  0  0  0  0  0  0
   23.0111   71.2699    2.9737 O   0  0  0  0  0  0  0  0  0  0  0  0
   24.1759   68.9122    2.9092 O   0  0  0  0  0  0  0  0  0  0  0  0
   25.4256   71.1202    2.1738 O   0  0  0  0  0  0  0  0  0  0  0  0
   26.6014   70.5809    2.7520 C   0  0  0  0  0  0  0  0  0  0  0  0
   28.5656   71.2281    3.9755 O   0  0  0  0  0  0  0  0  0  0  0  0
   27.2939   73.9325    4.2204 O   0  0  0  0  0  0  0  0  0  0  0  0
   29.0915   74.3013    2.2031 O   0  0  0  0  0  0  0  0  0  0  0  0
   27.2521   73.0110    3.1320 C   0  0  1  0  0  0  0  0  0  0  0  0
   28.5785   72.9996    2.4014 C   0  0  2  0  0  0  0  0  0  0  0  0
   27.1959   71.6029    3.7113 C   0  0  1  0  0  0  0  0  0  0  0  0
   29.4434   72.1658    3.3313 C   0  0  2  0  0  0  0  0  0  0  0  0
   27.3298   74.8388    3.8752 H   0  0  0  0  0  0  0  0  0  0  0  0
   28.5066   74.7918    1.6048 H   0  0  0  0  0  0  0  0  0  0  0  0
   32.1614   72.0895    4.0958 O   0  0  0  0  0  0  0  0  0  0  0  0
   33.2701   69.3554    0.5550 O   0  0  0  0  0  0  0  0  0  0  0  0
   30.4639   71.4415    2.6276 N   0  0  0  0  0  0  0  0  0  0  0  0
   32.7112   70.7281    2.3323 N   0  0  0  0  0  0  0  0  0  0  0  0
   31.7989   71.4692    3.0941 C   0  0  0  0  0  0  0  0  0  0  0  0
   30.1369   70.7139    1.4885 C   0  0  0  0  0  0  0  0  0  0  0  0
   31.0190   70.0134    0.7725 C   0  0  0  0  0  0  0  0  0  0  0  0
   32.4351   69.9899    1.1922 C   0  0  0  0  0  0  0  0  0  0  0  0
   33.6473   70.7330    2.6381 H   0  0  0  0  0  0  0  0  0  0  0  0
   23.5474   70.2299    0.7293 O   0  0  0  0  0  0  0  0  0  0  0  0
   22.5667   69.2026   -0.0425 P   0  0  2  0  0  0  0  0  0  0  0  0
   21.2501   69.1697    0.8972 O   0  0  0  0  0  0  0  0  0  0  0  0
   23.1725   67.8547   -0.3070 O   0  0  0  0  0  0  0  0  0  0  0  0
   22.1021   69.9988   -1.3674 O   0  0  0  0  0  0  0  0  0  0  0  0
   22.1962   72.3283   -1.7928 O   0  0  0  0  0  0  0  0  0  0  0  0
   18.7489   71.4161   -3.8748 O   0  0  0  0  0  0  0  0  0  0  0  0
   21.1534   72.0386   -5.3166 O   0  0  0  0  0  0  0  0  0  0  0  0
   19.2982   70.1123   -1.3494 O   0  0  0  0  0  0  0  0  0  0  0  0
   20.0651   71.1811   -3.3670 C   0  0  1  0  0  0  0  0  0  0  0  0
   20.9927   72.2653   -3.9191 C   0  0  1  0  0  0  0  0  0  0  0  0
   20.0276   71.2317   -1.8408 C   0  0  2  0  0  0  0  0  0  0  0  0
   22.3553   72.2404   -3.2136 C   0  0  1  0  0  0  0  0  0  0  0  0
   21.4350   71.2519   -1.2416 C   0  0  1  0  0  0  0  0  0  0  0  0
   18.7656   71.3848   -4.8435 H   0  0  0  0  0  0  0  0  0  0  0  0
   20.2857   72.0564   -5.7502 H   0  0  0  0  0  0  0  0  0  0  0  0
   18.4091   70.1110   -1.7358 H   0  0  0  0  0  0  0  0  0  0  0  0
   23.9301   73.0489   -4.8184 O   0  0  0  0  0  0  0  0  0  0  0  0
   23.2398   73.4112   -3.6366 C   0  0  0  0  0  0  0  0  0  0  0  0
   24.4968   73.7847   -5.0996 H   0  0  0  0  0  0  0  0  0  0  0  0
 25 28  1  0
 25 24  1  0
 25 26  1  1
 25 27  2  0
  1  4  1  0
  1 24  1  0
  1  2  1  1
  1  3  2  0
  6 11  1  0
  6 12  1  0
 29 36  1  0
 29 37  1  0
  9  7  1  1
  7 13  1  0
 10  8  1  1
  8 14  1  0
 37 28  1  6
  4  5  1  0
 33 30  1  6
 30 38  1  0
 34 31  1  6
 31 39  1  0
 35 32  1  1
 32 40  1  0
 41 42  1  0
 41 43  1  0
 15 19  2  0
 16 22  2  0
 12 17  1  6
 17 19  1  0
 17 20  1  0
 18 19  1  0
 18 22  1  0
 18 23  1  0
  9 10  1  0
  9 11  1  0
 10 12  1  0
 11  5  1  6
 33 34  1  0
 33 35  1  0
 34 36  1  0
 35 37  1  0
 36 42  1  6
 20 21  2  0
 21 22  1  0
M  CHG  2   2  -1  26  -1
M  END
>  <COMPND>  (6) 
    8629 

>  <AUTHOR>  (6) 
    GENERATED BY OPEN BABEL 3.1.1

>  <MASTER>  (6) 
        0    0    0    0    0    0    0    0   58    0   58    0

>  <minimizedAffinity>  (6) 
-9.28370

>  <CNNscore>  (6) 
0.7077178955

>  <CNNaffinity>  (6) 
4.7842526436

>  <CNN_VS>  (6) 
3.3859012127

>  <CNNaffinity_variance>  (6) 
0.0079605505

$$$$
7
     RDKit          3D

 43 45  0  0  0  0  0  0  0  0999 V2000
   24.0497   70.3014    2.9689 P   0  0  2  0  0  0  0  0  0  0  0  0
   23.5046   71.1132    4.2578 O   0  0  0  0  0  0  0  0  0  0  0  0
   24.3886   68.8620    3.2233 O   0  0  0  0  0  0  0  0  0  0  0  0
   25.2600   71.2208    2.4142 O   0  0  0  0  0  0  0  0  0  0  0  0
   26.5922   70.8100    2.6679 C   0  0  0  0  0  0  0  0  0  0  0  0
   28.5636   71.3047    3.9495 O   0  0  0  0  0  0  0  0  0  0  0  0
   27.4345   74.0637    4.2719 O   0  0  0  0  0  0  0  0  0  0  0  0
   29.2890   74.4067    2.3022 O   0  0  0  0  0  0  0  0  0  0  0  0
   27.3648   73.1858    3.1495 C   0  0  1  0  0  0  0  0  0  0  0  0
   28.7030   73.1286    2.4427 C   0  0  2  0  0  0  0  0  0  0  0  0
   27.2215   71.7628    3.6749 C   0  0  1  0  0  0  0  0  0  0  0  0
   29.5031   72.2159    3.3564 C   0  0  2  0  0  0  0  0  0  0  0  0
   27.5259   74.9786    3.9613 H   0  0  0  0  0  0  0  0  0  0  0  0
   28.7433   74.9497    1.7121 H   0  0  0  0  0  0  0  0  0  0  0  0
   32.2290   72.0830    4.0844 O   0  0  0  0  0  0  0  0  0  0  0  0
   33.2260   69.2973    0.5507 O   0  0  0  0  0  0  0  0  0  0  0  0
   30.4971   71.4630    2.6446 N   0  0  0  0  0  0  0  0  0  0  0  0
   32.7232   70.6959    2.3244 N   0  0  0  0  0  0  0  0  0  0  0  0
   31.8386   71.4636    3.0927 C   0  0  0  0  0  0  0  0  0  0  0  0
   30.1379   70.7344    1.5159 C   0  0  0  0  0  0  0  0  0  0  0  0
   30.9937   70.0084    0.7936 C   0  0  0  0  0  0  0  0  0  0  0  0
   32.4146   69.9557    1.1942 C   0  0  0  0  0  0  0  0  0  0  0  0
   33.6632   70.6817    2.6175 H   0  0  0  0  0  0  0  0  0  0  0  0
   22.8845   70.5347    1.8731 O   0  0  0  0  0  0  0  0  0  0  0  0
   22.5728   69.7799    0.4780 P   0  0  2  0  0  0  0  0  0  0  0  0
   21.0929   69.1684    0.7096 O   0  0  0  0  0  0  0  0  0  0  0  0
   23.6069   68.7659    0.0825 O   0  0  0  0  0  0  0  0  0  0  0  0
   22.3594   70.9698   -0.5914 O   0  0  0  0  0  0  0  0  0  0  0  0
   20.5411   71.4758   -2.0247 O   0  0  0  0  0  0  0  0  0  0  0  0
   23.6613   72.4436   -4.5503 O   0  0  0  0  0  0  0  0  0  0  0  0
   22.0722   74.5372   -3.3929 O   0  0  0  0  0  0  0  0  0  0  0  0
   23.8774   70.1457   -2.8031 O   0  0  0  0  0  0  0  0  0  0  0  0
   22.9901   72.3308   -3.2924 C   0  0  1  0  0  0  0  0  0  0  0  0
   21.7064   73.1606   -3.3578 C   0  0  1  0  0  0  0  0  0  0  0  0
   22.6676   70.8612   -3.0288 C   0  0  2  0  0  0  0  0  0  0  0  0
   20.8023   72.8785   -2.1502 C   0  0  1  0  0  0  0  0  0  0  0  0
   21.7232   70.6952   -1.8368 C   0  0  1  0  0  0  0  0  0  0  0  0
   23.8694   73.3743   -4.7235 H   0  0  0  0  0  0  0  0  0  0  0  0
   22.6433   74.7018   -4.1597 H   0  0  0  0  0  0  0  0  0  0  0  0
   24.4665   70.2584   -3.5647 H   0  0  0  0  0  0  0  0  0  0  0  0
   18.4325   72.6411   -1.9591 O   0  0  0  0  0  0  0  0  0  0  0  0
   19.4489   73.5750   -2.2740 C   0  0  0  0  0  0  0  0  0  0  0  0
   17.5655   73.0706   -2.0333 H   0  0  0  0  0  0  0  0  0  0  0  0
 25 28  1  0
 25 24  1  0
 25 26  1  1
 25 27  2  0
  1  4  1  0
  1 24  1  0
  1  2  1  1
  1  3  2  0
  6 11  1  0
  6 12  1  0
 29 36  1  0
 29 37  1  0
  9  7  1  1
  7 13  1  0
 10  8  1  1
  8 14  1  0
 37 28  1  1
  4  5  1  0
 33 30  1  6
 30 38  1  0
 34 31  1  1
 31 39  1  0
 35 32  1  1
 32 40  1  0
 41 42  1  0
 41 43  1  0
 15 19  2  0
 16 22  2  0
 12 17  1  6
 17 19  1  0
 17 20  1  0
 18 19  1  0
 18 22  1  0
 18 23  1  0
  9 10  1  0
  9 11  1  0
 10 12  1  0
 11  5  1  6
 33 34  1  0
 33 35  1  0
 34 36  1  0
 35 37  1  0
 36 42  1  6
 20 21  2  0
 21 22  1  0
M  CHG  2   2  -1  26  -1
M  END
>  <COMPND>  (7) 
    8629 

>  <AUTHOR>  (7) 
    GENERATED BY OPEN BABEL 3.1.1

>  <MASTER>  (7) 
        0    0    0    0    0    0    0    0   58    0   58    0

>  <minimizedAffinity>  (7) 
-8.81677

>  <CNNscore>  (7) 
0.7015087605

>  <CNNaffinity>  (7) 
4.8663511276

>  <CNN_VS>  (7) 
3.4137878418

>  <CNNaffinity_variance>  (7) 
0.1930375546

$$$$
8
     RDKit          3D

 43 45  0  0  0  0  0  0  0  0999 V2000
   22.7624   69.9981   -2.2311 P   0  0  2  0  0  0  0  0  0  0  0  0
   23.7124   71.0942   -2.9476 O   0  0  0  0  0  0  0  0  0  0  0  0
   23.2599   68.5843   -2.3033 O   0  0  0  0  0  0  0  0  0  0  0  0
   21.3044   70.2640   -2.8804 O   0  0  0  0  0  0  0  0  0  0  0  0
   21.0995   71.4575   -3.6162 C   0  0  0  0  0  0  0  0  0  0  0  0
   19.1692   72.3320   -4.7489 O   0  0  0  0  0  0  0  0  0  0  0  0
   17.5792   71.3441   -2.4065 O   0  0  0  0  0  0  0  0  0  0  0  0
   17.1330   69.4165   -4.2832 O   0  0  0  0  0  0  0  0  0  0  0  0
   18.7231   70.7628   -3.0300 C   0  0  1  0  0  0  0  0  0  0  0  0
   18.3409   70.1460   -4.3593 C   0  0  2  0  0  0  0  0  0  0  0  0
   19.6493   71.8940   -3.4589 C   0  0  1  0  0  0  0  0  0  0  0  0
   18.2299   71.3689   -5.2539 C   0  0  2  0  0  0  0  0  0  0  0  0
   16.9730   70.6409   -2.1237 H   0  0  0  0  0  0  0  0  0  0  0  0
   17.2547   68.6489   -3.7030 H   0  0  0  0  0  0  0  0  0  0  0  0
   16.3621   70.4807   -7.1775 O   0  0  0  0  0  0  0  0  0  0  0  0
   19.5766   70.2801  -10.4741 O   0  0  0  0  0  0  0  0  0  0  0  0
   18.5514   71.0773   -6.6225 N   0  0  0  0  0  0  0  0  0  0  0  0
   17.9641   70.3817   -8.8174 N   0  0  0  0  0  0  0  0  0  0  0  0
   17.5397   70.6363   -7.5070 C   0  0  0  0  0  0  0  0  0  0  0  0
   19.8574   71.2297   -7.0752 C   0  0  0  0  0  0  0  0  0  0  0  0
   20.2461   70.9815   -8.3276 C   0  0  0  0  0  0  0  0  0  0  0  0
   19.2505   70.5169   -9.3150 C   0  0  0  0  0  0  0  0  0  0  0  0
   17.2766   70.0731   -9.4513 H   0  0  0  0  0  0  0  0  0  0  0  0
   22.6037   70.5796   -0.7312 O   0  0  0  0  0  0  0  0  0  0  0  0
   22.1733   69.8551    0.6482 P   0  0  2  0  0  0  0  0  0  0  0  0
   23.3389   68.7550    0.8689 O   0  0  0  0  0  0  0  0  0  0  0  0
   20.7823   69.2901    0.6385 O   0  0  0  0  0  0  0  0  0  0  0  0
   22.4371   70.9634    1.7914 O   0  0  0  0  0  0  0  0  0  0  0  0
   22.6039   73.3184    1.9987 O   0  0  0  0  0  0  0  0  0  0  0  0
   26.1436   72.2422    3.8325 O   0  0  0  0  0  0  0  0  0  0  0  0
   23.9655   73.2289    5.4231 O   0  0  0  0  0  0  0  0  0  0  0  0
   25.2231   70.7883    1.5047 O   0  0  0  0  0  0  0  0  0  0  0  0
   24.7668   72.0998    3.4727 C   0  0  1  0  0  0  0  0  0  0  0  0
   24.0047   73.3165    4.0015 C   0  0  1  0  0  0  0  0  0  0  0  0
   24.6546   72.0145    1.9517 C   0  0  2  0  0  0  0  0  0  0  0  0
   22.5815   73.3701    3.4299 C   0  0  1  0  0  0  0  0  0  0  0  0
   23.2020   72.1264    1.4854 C   0  0  1  0  0  0  0  0  0  0  0  0
   26.2219   72.2965    4.7971 H   0  0  0  0  0  0  0  0  0  0  0  0
   24.8704   73.1953    5.7713 H   0  0  0  0  0  0  0  0  0  0  0  0
   26.1427   70.7296    1.8061 H   0  0  0  0  0  0  0  0  0  0  0  0
   22.6535   75.7583    3.4217 O   0  0  0  0  0  0  0  0  0  0  0  0
   21.8571   74.6571    3.8185 C   0  0  0  0  0  0  0  0  0  0  0  0
   22.2048   76.5844    3.6624 H   0  0  0  0  0  0  0  0  0  0  0  0
 25 28  1  0
 25 24  1  0
 25 26  1  1
 25 27  2  0
  1  4  1  0
  1 24  1  0
  1  2  1  6
  1  3  2  0
  6 11  1  0
  6 12  1  0
 29 36  1  0
 29 37  1  0
  9  7  1  6
  7 13  1  0
 10  8  1  1
  8 14  1  0
 37 28  1  1
  4  5  1  0
 33 30  1  6
 30 38  1  0
 34 31  1  1
 31 39  1  0
 35 32  1  1
 32 40  1  0
 41 42  1  0
 41 43  1  0
 15 19  2  0
 16 22  2  0
 12 17  1  6
 17 19  1  0
 17 20  1  0
 18 19  1  0
 18 22  1  0
 18 23  1  0
  9 10  1  0
  9 11  1  0
 10 12  1  0
 11  5  1  6
 33 34  1  0
 33 35  1  0
 34 36  1  0
 35 37  1  0
 36 42  1  6
 20 21  2  0
 21 22  1  0
M  CHG  2   2  -1  26  -1
M  END
>  <COMPND>  (8) 
    8629 

>  <AUTHOR>  (8) 
    GENERATED BY OPEN BABEL 3.1.1

>  <MASTER>  (8) 
        0    0    0    0    0    0    0    0   58    0   58    0

>  <minimizedAffinity>  (8) 
-8.53773

>  <CNNscore>  (8) 
0.6933715940

>  <CNNaffinity>  (8) 
4.8215990067

>  <CNN_VS>  (8) 
3.3431596756

>  <CNNaffinity_variance>  (8) 
0.3652108908

$$$$
9
     RDKit          3D

 43 45  0  0  0  0  0  0  0  0999 V2000
   21.1427   70.6058   -0.6374 P   0  0  2  0  0  0  0  0  0  0  0  0
   20.6597   69.4417    0.3770 O   0  0  0  0  0  0  0  0  0  0  0  0
   21.8492   70.1203   -1.8689 O   0  0  0  0  0  0  0  0  0  0  0  0
   21.9856   71.6162    0.3040 O   0  0  0  0  0  0  0  0  0  0  0  0
   21.3133   72.7219    0.8814 C   0  0  0  0  0  0  0  0  0  0  0  0
   21.7989   71.3434    2.7887 O   0  0  0  0  0  0  0  0  0  0  0  0
   20.1452   73.2784    4.3734 O   0  0  0  0  0  0  0  0  0  0  0  0
   22.6929   74.0503    4.9649 O   0  0  0  0  0  0  0  0  0  0  0  0
   21.0227   73.5285    3.2768 C   0  0  1  0  0  0  0  0  0  0  0  0
   22.4659   73.4171    3.7222 C   0  0  2  0  0  0  0  0  0  0  0  0
   20.8998   72.3638    2.3023 C   0  0  1  0  0  0  0  0  0  0  0  0
   22.6596   71.9117    3.7892 C   0  0  2  0  0  0  0  0  0  0  0  0
   20.2060   74.0092    5.0092 H   0  0  0  0  0  0  0  0  0  0  0  0
   22.5573   75.0061    4.8705 H   0  0  0  0  0  0  0  0  0  0  0  0
   24.7428   71.9337    5.6965 O   0  0  0  0  0  0  0  0  0  0  0  0
   27.8166   70.3935    2.6271 O   0  0  0  0  0  0  0  0  0  0  0  0
   24.0139   71.5211    3.5158 N   0  0  0  0  0  0  0  0  0  0  0  0
   26.2716   71.1666    4.1667 N   0  0  0  0  0  0  0  0  0  0  0  0
   24.9842   71.5697    4.5437 C   0  0  0  0  0  0  0  0  0  0  0  0
   24.3682   71.0953    2.2402 C   0  0  0  0  0  0  0  0  0  0  0  0
   25.6006   70.7154    1.8966 C   0  0  0  0  0  0  0  0  0  0  0  0
   26.6733   70.7367    2.9119 C   0  0  0  0  0  0  0  0  0  0  0  0
   26.9641   71.1926    4.8663 H   0  0  0  0  0  0  0  0  0  0  0  0
   19.7801   71.4272   -0.9233 O   0  0  0  0  0  0  0  0  0  0  0  0
   18.4524   71.0250   -1.7530 P   0  0  2  0  0  0  0  0  0  0  0  0
   17.3309   72.0357   -1.1713 O   0  0  0  0  0  0  0  0  0  0  0  0
   18.0850   69.5723   -1.6598 O   0  0  0  0  0  0  0  0  0  0  0  0
   18.7341   71.5487   -3.2535 O   0  0  0  0  0  0  0  0  0  0  0  0
   18.1809   70.1548   -5.0885 O   0  0  0  0  0  0  0  0  0  0  0  0
   20.8951   72.6489   -6.9494 O   0  0  0  0  0  0  0  0  0  0  0  0
   18.0971   72.9015   -7.5455 O   0  0  0  0  0  0  0  0  0  0  0  0
   21.3562   71.7902   -4.2237 O   0  0  0  0  0  0  0  0  0  0  0  0
   19.8519   72.3124   -6.0308 C   0  0  1  0  0  0  0  0  0  0  0  0
   18.6536   71.8006   -6.8325 C   0  0  1  0  0  0  0  0  0  0  0  0
   20.3581   71.2351   -5.0734 C   0  0  2  0  0  0  0  0  0  0  0  0
   17.5988   71.1721   -5.9118 C   0  0  1  0  0  0  0  0  0  0  0  0
   19.2215   70.6418   -4.2390 C   0  0  1  0  0  0  0  0  0  0  0  0
   20.5804   73.3329   -7.5598 H   0  0  0  0  0  0  0  0  0  0  0  0
   18.7735   73.2896   -8.1228 H   0  0  0  0  0  0  0  0  0  0  0  0
   22.0702   72.1622   -4.7639 H   0  0  0  0  0  0  0  0  0  0  0  0
   15.8954   69.4967   -5.9023 O   0  0  0  0  0  0  0  0  0  0  0  0
   16.4690   70.5148   -6.7015 C   0  0  0  0  0  0  0  0  0  0  0  0
   15.1746   69.0696   -6.3921 H   0  0  0  0  0  0  0  0  0  0  0  0
 25 28  1  0
 25 24  1  0
 25 26  1  1
 25 27  2  0
  1  4  1  0
  1 24  1  0
  1  2  1  1
  1  3  2  0
  6 11  1  0
  6 12  1  0
 29 36  1  0
 29 37  1  0
  9  7  1  1
  7 13  1  0
 10  8  1  1
  8 14  1  0
 37 28  1  1
  4  5  1  0
 33 30  1  6
 30 38  1  0
 34 31  1  1
 31 39  1  0
 35 32  1  1
 32 40  1  0
 41 42  1  0
 41 43  1  0
 15 19  2  0
 16 22  2  0
 12 17  1  6
 17 19  1  0
 17 20  1  0
 18 19  1  0
 18 22  1  0
 18 23  1  0
  9 10  1  0
  9 11  1  0
 10 12  1  0
 11  5  1  6
 33 34  1  0
 33 35  1  0
 34 36  1  0
 35 37  1  0
 36 42  1  6
 20 21  2  0
 21 22  1  0
M  CHG  2   2  -1  26  -1
M  END
>  <COMPND>  (9) 
    8629 

>  <AUTHOR>  (9) 
    GENERATED BY OPEN BABEL 3.1.1

>  <MASTER>  (9) 
        0    0    0    0    0    0    0    0   58    0   58    0

>  <minimizedAffinity>  (9) 
-7.94091

>  <CNNscore>  (9) 
0.6874434352

>  <CNNaffinity>  (9) 
4.6240129471

>  <CNN_VS>  (9) 
3.1787474155

>  <CNNaffinity_variance>  (9) 
0.5876750350

$$$$
10
     RDKit          3D

 43 45  0  0  0  0  0  0  0  0999 V2000
   22.0584   69.8490   -0.0913 P   0  0  2  0  0  0  0  0  0  0  0  0
   21.0207   68.9811    0.7960 O   0  0  0  0  0  0  0  0  0  0  0  0
   22.8326   69.0642   -1.1092 O   0  0  0  0  0  0  0  0  0  0  0  0
   22.9438   70.6391    1.0087 O   0  0  0  0  0  0  0  0  0  0  0  0
   23.7449   69.8839    1.9007 C   0  0  0  0  0  0  0  0  0  0  0  0
   24.7224   70.2434    4.0661 O   0  0  0  0  0  0  0  0  0  0  0  0
   22.3792   72.0303    4.6203 O   0  0  0  0  0  0  0  0  0  0  0  0
   24.3588   73.8112    4.0320 O   0  0  0  0  0  0  0  0  0  0  0  0
   23.0946   71.8323    3.4020 C   0  0  1  0  0  0  0  0  0  0  0  0
   24.4428   72.5191    3.4663 C   0  0  2  0  0  0  0  0  0  0  0  0
   23.4895   70.3629    3.3232 C   0  0  1  0  0  0  0  0  0  0  0  0
   25.2462   71.5564    4.3242 C   0  0  2  0  0  0  0  0  0  0  0  0
   22.1161   72.9617    4.6929 H   0  0  0  0  0  0  0  0  0  0  0  0
   23.8384   74.3862    3.4494 H   0  0  0  0  0  0  0  0  0  0  0  0
   27.1062   73.4026    5.3778 O   0  0  0  0  0  0  0  0  0  0  0  0
   30.5878   71.5225    3.0146 O   0  0  0  0  0  0  0  0  0  0  0  0
   26.6452   71.5720    4.0016 N   0  0  0  0  0  0  0  0  0  0  0  0
   28.8383   72.4648    4.2004 N   0  0  0  0  0  0  0  0  0  0  0  0
   27.4935   72.5420    4.5847 C   0  0  0  0  0  0  0  0  0  0  0  0
   27.1628   70.6327    3.1165 C   0  0  0  0  0  0  0  0  0  0  0  0
   28.4474   70.5734    2.7593 C   0  0  0  0  0  0  0  0  0  0  0  0
   29.4005   71.5508    3.3234 C   0  0  0  0  0  0  0  0  0  0  0  0
   29.4479   73.1307    4.5937 H   0  0  0  0  0  0  0  0  0  0  0  0
   21.1228   71.0135   -0.7090 O   0  0  0  0  0  0  0  0  0  0  0  0
   20.0100   71.9601   -0.0172 P   0  0  2  0  0  0  0  0  0  0  0  0
   20.5957   73.4505   -0.2473 O   0  0  0  0  0  0  0  0  0  0  0  0
   19.7209   71.6229    1.4169 O   0  0  0  0  0  0  0  0  0  0  0  0
   18.7304   71.8692   -0.9966 O   0  0  0  0  0  0  0  0  0  0  0  0
   16.8027   70.4917   -0.9411 O   0  0  0  0  0  0  0  0  0  0  0  0
   17.4650   70.5356   -5.0167 O   0  0  0  0  0  0  0  0  0  0  0  0
   15.2557   72.0092   -3.9232 O   0  0  0  0  0  0  0  0  0  0  0  0
   19.7079   70.4178   -3.1905 O   0  0  0  0  0  0  0  0  0  0  0  0
   17.4470   71.0784   -3.6936 C   0  0  1  0  0  0  0  0  0  0  0  0
   16.0051   71.0496   -3.1830 C   0  0  1  0  0  0  0  0  0  0  0  0
   18.3521   70.2364   -2.7963 C   0  0  2  0  0  0  0  0  0  0  0  0
   15.9424   71.3647   -1.6824 C   0  0  1  0  0  0  0  0  0  0  0  0
   18.1765   70.5964   -1.3199 C   0  0  1  0  0  0  0  0  0  0  0  0
   16.8927   71.0660   -5.5916 H   0  0  0  0  0  0  0  0  0  0  0  0
   15.3039   71.7990   -4.8691 H   0  0  0  0  0  0  0  0  0  0  0  0
   19.8060   70.1863   -4.1268 H   0  0  0  0  0  0  0  0  0  0  0  0
   14.6090   70.3556    0.0243 O   0  0  0  0  0  0  0  0  0  0  0  0
   14.5341   71.1872   -1.1191 C   0  0  0  0  0  0  0  0  0  0  0  0
   13.7199   70.2340    0.3937 H   0  0  0  0  0  0  0  0  0  0  0  0
 25 28  1  0
 25 24  1  0
 25 26  1  1
 25 27  2  0
  1  4  1  0
  1 24  1  0
  1  2  1  1
  1  3  2  0
  6 11  1  0
  6 12  1  0
 29 36  1  0
 29 37  1  0
  9  7  1  1
  7 13  1  0
 10  8  1  1
  8 14  1  0
 37 28  1  6
  4  5  1  0
 33 30  1  6
 30 38  1  0
 34 31  1  6
 31 39  1  0
 35 32  1  6
 32 40  1  0
 41 42  1  0
 41 43  1  0
 15 19  2  0
 16 22  2  0
 12 17  1  6
 17 19  1  0
 17 20  1  0
 18 19  1  0
 18 22  1  0
 18 23  1  0
  9 10  1  0
  9 11  1  0
 10 12  1  0
 11  5  1  6
 33 34  1  0
 33 35  1  0
 34 36  1  0
 35 37  1  0
 36 42  1  1
 20 21  2  0
 21 22  1  0
M  CHG  2   2  -1  26  -1
M  END
>  <COMPND>  (10) 
    8629 

>  <AUTHOR>  (10) 
    GENERATED BY OPEN BABEL 3.1.1

>  <MASTER>  (10) 
        0    0    0    0    0    0    0    0   58    0   58    0

>  <minimizedAffinity>  (10) 
-7.98167

>  <CNNscore>  (10) 
0.6858750582

>  <CNNaffinity>  (10) 
4.3060264587

>  <CNN_VS>  (10) 
2.9533960819

>  <CNNaffinity_variance>  (10) 
0.0554297492

$$$$
11
     RDKit          3D

 43 45  0  0  0  0  0  0  0  0999 V2000
   20.7024   70.7779    0.4697 P   0  0  2  0  0  0  0  0  0  0  0  0
   19.7063   71.4877    1.5287 O   0  0  0  0  0  0  0  0  0  0  0  0
   20.8057   69.2865    0.5982 O   0  0  0  0  0  0  0  0  0  0  0  0
   22.0893   71.5950    0.6334 O   0  0  0  0  0  0  0  0  0  0  0  0
   23.1619   70.9754    1.3216 C   0  0  0  0  0  0  0  0  0  0  0  0
   24.0642   70.5439    3.5064 O   0  0  0  0  0  0  0  0  0  0  0  0
   21.9518   72.4035    4.5410 O   0  0  0  0  0  0  0  0  0  0  0  0
   24.1771   73.9798    4.5287 O   0  0  0  0  0  0  0  0  0  0  0  0
   22.6972   72.4713    3.3264 C   0  0  1  0  0  0  0  0  0  0  0  0
   24.1191   72.9112    3.6060 C   0  0  2  0  0  0  0  0  0  0  0  0
   22.8982   71.0487    2.8193 C   0  0  1  0  0  0  0  0  0  0  0  0
   24.7426   71.6362    4.1480 C   0  0  2  0  0  0  0  0  0  0  0  0
   21.8105   73.3004    4.8839 H   0  0  0  0  0  0  0  0  0  0  0  0
   23.7682   74.7675    4.1376 H   0  0  0  0  0  0  0  0  0  0  0  0
   26.7721   72.8172    5.7177 O   0  0  0  0  0  0  0  0  0  0  0  0
   30.0939   71.2308    2.9446 O   0  0  0  0  0  0  0  0  0  0  0  0
   26.1462   71.5473    3.8596 N   0  0  0  0  0  0  0  0  0  0  0  0
   28.4245   72.0262    4.3357 N   0  0  0  0  0  0  0  0  0  0  0  0
   27.0835   72.1774    4.7111 C   0  0  0  0  0  0  0  0  0  0  0  0
   26.5809   70.8412    2.7432 C   0  0  0  0  0  0  0  0  0  0  0  0
   27.8633   70.7075    2.3984 C   0  0  0  0  0  0  0  0  0  0  0  0
   28.9062   71.3354    3.2350 C   0  0  0  0  0  0  0  0  0  0  0  0
   29.0952   72.4569    4.9139 H   0  0  0  0  0  0  0  0  0  0  0  0
   20.1434   71.2932   -0.9568 O   0  0  0  0  0  0  0  0  0  0  0  0
   18.7335   71.0297   -1.7024 P   0  0  2  0  0  0  0  0  0  0  0  0
   17.7463   72.1175   -1.0243 O   0  0  0  0  0  0  0  0  0  0  0  0
   18.2467   69.6122   -1.6149 O   0  0  0  0  0  0  0  0  0  0  0  0
   18.9604   71.5674   -3.2072 O   0  0  0  0  0  0  0  0  0  0  0  0
   18.5769   70.1089   -5.0354 O   0  0  0  0  0  0  0  0  0  0  0  0
   21.0198   72.8701   -6.8952 O   0  0  0  0  0  0  0  0  0  0  0  0
   18.2160   72.8133   -7.5143 O   0  0  0  0  0  0  0  0  0  0  0  0
   21.5488   72.0854   -4.1596 O   0  0  0  0  0  0  0  0  0  0  0  0
   20.0117   72.4287   -5.9818 C   0  0  1  0  0  0  0  0  0  0  0  0
   18.8827   71.7842   -6.7885 C   0  0  1  0  0  0  0  0  0  0  0  0
   20.6239   71.4194   -5.0124 C   0  0  2  0  0  0  0  0  0  0  0  0
   17.8947   71.0514   -5.8709 C   0  0  1  0  0  0  0  0  0  0  0  0
   19.5515   70.7119   -4.1819 C   0  0  1  0  0  0  0  0  0  0  0  0
   20.6378   73.5116   -7.5133 H   0  0  0  0  0  0  0  0  0  0  0  0
   18.8510   73.2685   -8.0894 H   0  0  0  0  0  0  0  0  0  0  0  0
   22.2226   72.5290   -4.6972 H   0  0  0  0  0  0  0  0  0  0  0  0
   15.9491   69.6697   -5.7511 O   0  0  0  0  0  0  0  0  0  0  0  0
   16.8496   70.2698   -6.6640 C   0  0  0  0  0  0  0  0  0  0  0  0
   15.2780   69.1691   -6.2417 H   0  0  0  0  0  0  0  0  0  0  0  0
 25 28  1  0
 25 24  1  0
 25 26  1  1
 25 27  2  0
  1  4  1  0
  1 24  1  0
  1  2  1  1
  1  3  2  0
  6 11  1  0
  6 12  1  0
 29 36  1  0
 29 37  1  0
  9  7  1  1
  7 13  1  0
 10  8  1  1
  8 14  1  0
 37 28  1  1
  4  5  1  0
 33 30  1  6
 30 38  1  0
 34 31  1  1
 31 39  1  0
 35 32  1  1
 32 40  1  0
 41 42  1  0
 41 43  1  0
 15 19  2  0
 16 22  2  0
 12 17  1  6
 17 19  1  0
 17 20  1  0
 18 19  1  0
 18 22  1  0
 18 23  1  0
  9 10  1  0
  9 11  1  0
 10 12  1  0
 11  5  1  6
 33 34  1  0
 33 35  1  0
 34 36  1  0
 35 37  1  0
 36 42  1  6
 20 21  2  0
 21 22  1  0
M  CHG  2   2  -1  26  -1
M  END
>  <COMPND>  (11) 
    8629 

>  <AUTHOR>  (11) 
    GENERATED BY OPEN BABEL 3.1.1

>  <MASTER>  (11) 
        0    0    0    0    0    0    0    0   58    0   58    0

>  <minimizedAffinity>  (11) 
-8.54776

>  <CNNscore>  (11) 
0.6473183632

>  <CNNaffinity>  (11) 
4.4922704697

>  <CNN_VS>  (11) 
2.9079291821

>  <CNNaffinity_variance>  (11) 
0.1789915413

$$$$
12
     RDKit          3D

 43 45  0  0  0  0  0  0  0  0999 V2000
   21.1277   70.7169   -0.1538 P   0  0  2  0  0  0  0  0  0  0  0  0
   22.0595   69.7886   -1.0958 O   0  0  0  0  0  0  0  0  0  0  0  0
   21.2601   72.1929   -0.3890 O   0  0  0  0  0  0  0  0  0  0  0  0
   21.4654   70.2113    1.3456 O   0  0  0  0  0  0  0  0  0  0  0  0
   22.7342   70.5223    1.8943 C   0  0  0  0  0  0  0  0  0  0  0  0
   23.7604   70.6241    4.0647 O   0  0  0  0  0  0  0  0  0  0  0  0
   21.7001   72.6969    4.7351 O   0  0  0  0  0  0  0  0  0  0  0  0
   23.9131   74.2041    4.2176 O   0  0  0  0  0  0  0  0  0  0  0  0
   22.3755   72.4625    3.5006 C   0  0  1  0  0  0  0  0  0  0  0  0
   23.8087   72.9446    3.5855 C   0  0  2  0  0  0  0  0  0  0  0  0
   22.5550   70.9578    3.3422 C   0  0  1  0  0  0  0  0  0  0  0  0
   24.4682   71.8332    4.3841 C   0  0  2  0  0  0  0  0  0  0  0  0
   21.5738   73.6513    4.8582 H   0  0  0  0  0  0  0  0  0  0  0  0
   23.4788   74.8774    3.6710 H   0  0  0  0  0  0  0  0  0  0  0  0
   26.5778   73.3349    5.5121 O   0  0  0  0  0  0  0  0  0  0  0  0
   29.7452   71.1028    3.0169 O   0  0  0  0  0  0  0  0  0  0  0  0
   25.8538   71.6650    4.0477 N   0  0  0  0  0  0  0  0  0  0  0  0
   28.1532   72.2221    4.2689 N   0  0  0  0  0  0  0  0  0  0  0  0
   26.8348   72.4709    4.6713 C   0  0  0  0  0  0  0  0  0  0  0  0
   26.2281   70.7094    3.1094 C   0  0  0  0  0  0  0  0  0  0  0  0
   27.4897   70.4854    2.7357 C   0  0  0  0  0  0  0  0  0  0  0  0
   28.5753   71.2847    3.3395 C   0  0  0  0  0  0  0  0  0  0  0  0
   28.8536   72.7719    4.6897 H   0  0  0  0  0  0  0  0  0  0  0  0
   19.6459   70.1248   -0.4119 O   0  0  0  0  0  0  0  0  0  0  0  0
   18.4099   70.6990   -1.2810 P   0  0  2  0  0  0  0  0  0  0  0  0
   17.8919   71.9561   -0.4041 O   0  0  0  0  0  0  0  0  0  0  0  0
   17.3503   69.6815   -1.5908 O   0  0  0  0  0  0  0  0  0  0  0  0
   19.0984   71.3645   -2.5803 O   0  0  0  0  0  0  0  0  0  0  0  0
   18.5615   70.1738   -4.5579 O   0  0  0  0  0  0  0  0  0  0  0  0
   21.4599   72.6952   -6.0721 O   0  0  0  0  0  0  0  0  0  0  0  0
   18.7035   73.1362   -6.7472 O   0  0  0  0  0  0  0  0  0  0  0  0
   21.7672   71.5677   -3.4237 O   0  0  0  0  0  0  0  0  0  0  0  0
   20.3650   72.3262   -5.2292 C   0  0  1  0  0  0  0  0  0  0  0  0
   19.1799   71.9486   -6.1203 C   0  0  1  0  0  0  0  0  0  0  0  0
   20.7820   71.1421   -4.3590 C   0  0  2  0  0  0  0  0  0  0  0  0
   18.0604   71.2896   -5.3033 C   0  0  1  0  0  0  0  0  0  0  0  0
   19.5861   70.5298   -3.6276 C   0  0  1  0  0  0  0  0  0  0  0  0
   21.2018   73.4469   -6.6270 H   0  0  0  0  0  0  0  0  0  0  0  0
   19.4201   73.5427   -7.2594 H   0  0  0  0  0  0  0  0  0  0  0  0
   22.5190   71.9531   -3.8991 H   0  0  0  0  0  0  0  0  0  0  0  0
   16.2029   69.7955   -5.4656 O   0  0  0  0  0  0  0  0  0  0  0  0
   16.9369   70.7630   -6.1934 C   0  0  0  0  0  0  0  0  0  0  0  0
   15.4842   69.4518   -6.0196 H   0  0  0  0  0  0  0  0  0  0  0  0
 25 28  1  0
 25 24  1  0
 25 26  1  1
 25 27  2  0
  1  4  1  0
  1 24  1  0
  1  2  1  6
  1  3  2  0
  6 11  1  0
  6 12  1  0
 29 36  1  0
 29 37  1  0
  9  7  1  1
  7 13  1  0
 10  8  1  1
  8 14  1  0
 37 28  1  1
  4  5  1  0
 33 30  1  6
 30 38  1  0
 34 31  1  1
 31 39  1  0
 35 32  1  1
 32 40  1  0
 41 42  1  0
 41 43  1  0
 15 19  2  0
 16 22  2  0
 12 17  1  6
 17 19  1  0
 17 20  1  0
 18 19  1  0
 18 22  1  0
 18 23  1  0
  9 10  1  0
  9 11  1  0
 10 12  1  0
 11  5  1  6
 33 34  1  0
 33 35  1  0
 34 36  1  0
 35 37  1  0
 36 42  1  6
 20 21  2  0
 21 22  1  0
M  CHG  2   2  -1  26  -1
M  END
>  <COMPND>  (12) 
    8629 

>  <AUTHOR>  (12) 
    GENERATED BY OPEN BABEL 3.1.1

>  <MASTER>  (12) 
        0    0    0    0    0    0    0    0   58    0   58    0

>  <minimizedAffinity>  (12) 
-8.69521

>  <CNNscore>  (12) 
0.6472991109

>  <CNNaffinity>  (12) 
4.5289659500

>  <CNN_VS>  (12) 
2.9315955639

>  <CNNaffinity_variance>  (12) 
0.0206538271

$$$$
13
     RDKit          3D

 43 45  0  0  0  0  0  0  0  0999 V2000
   21.9476   70.0632   -0.1161 P   0  0  2  0  0  0  0  0  0  0  0  0
   21.0115   69.1242    0.8110 O   0  0  0  0  0  0  0  0  0  0  0  0
   22.5958   69.3647   -1.2752 O   0  0  0  0  0  0  0  0  0  0  0  0
   22.9576   70.7642    0.9358 O   0  0  0  0  0  0  0  0  0  0  0  0
   23.6977   69.9369    1.8164 C   0  0  0  0  0  0  0  0  0  0  0  0
   24.6750   70.2302    3.9919 O   0  0  0  0  0  0  0  0  0  0  0  0
   22.3609   72.0437    4.5810 O   0  0  0  0  0  0  0  0  0  0  0  0
   24.3721   73.8036    4.0383 O   0  0  0  0  0  0  0  0  0  0  0  0
   23.0763   71.8614    3.3602 C   0  0  1  0  0  0  0  0  0  0  0  0
   24.4358   72.5234    3.4435 C   0  0  2  0  0  0  0  0  0  0  0  0
   23.4464   70.3876    3.2489 C   0  0  1  0  0  0  0  0  0  0  0  0
   25.2202   71.5279    4.2812 C   0  0  2  0  0  0  0  0  0  0  0  0
   22.1134   72.9775    4.6741 H   0  0  0  0  0  0  0  0  0  0  0  0
   23.8632   74.4004    3.4677 H   0  0  0  0  0  0  0  0  0  0  0  0
   27.1164   73.2861    5.4173 O   0  0  0  0  0  0  0  0  0  0  0  0
   30.5638   71.4345    2.9825 O   0  0  0  0  0  0  0  0  0  0  0  0
   26.6202   71.5270    3.9625 N   0  0  0  0  0  0  0  0  0  0  0  0
   28.8315   72.3626    4.2042 N   0  0  0  0  0  0  0  0  0  0  0  0
   27.4875   72.4523    4.5887 C   0  0  0  0  0  0  0  0  0  0  0  0
   27.1201   70.6157    3.0387 C   0  0  0  0  0  0  0  0  0  0  0  0
   28.4042   70.5440    2.6820 C   0  0  0  0  0  0  0  0  0  0  0  0
   29.3765   71.4753    3.2897 C   0  0  0  0  0  0  0  0  0  0  0  0
   29.4542   72.9976    4.6271 H   0  0  0  0  0  0  0  0  0  0  0  0
   20.9559   71.2715   -0.5280 O   0  0  0  0  0  0  0  0  0  0  0  0
   19.6205   71.2851   -1.4386 P   0  0  2  0  0  0  0  0  0  0  0  0
   18.7275   72.4570   -0.7701 O   0  0  0  0  0  0  0  0  0  0  0  0
   18.9274   69.9568   -1.5345 O   0  0  0  0  0  0  0  0  0  0  0  0
   20.0980   71.8942   -2.8549 O   0  0  0  0  0  0  0  0  0  0  0  0
   20.2197   70.8594   -4.9835 O   0  0  0  0  0  0  0  0  0  0  0  0
   23.5472   73.2909   -5.2408 O   0  0  0  0  0  0  0  0  0  0  0  0
   21.1991   73.9350   -6.7639 O   0  0  0  0  0  0  0  0  0  0  0  0
   22.9002   71.9891   -2.7376 O   0  0  0  0  0  0  0  0  0  0  0  0
   22.2193   72.9373   -4.8444 C   0  0  1  0  0  0  0  0  0  0  0  0
   21.3929   72.6855   -6.1070 C   0  0  1  0  0  0  0  0  0  0  0  0
   22.2750   71.6801   -3.9786 C   0  0  2  0  0  0  0  0  0  0  0  0
   20.0403   72.0460   -5.7655 C   0  0  1  0  0  0  0  0  0  0  0  0
   20.8811   71.0969   -3.7393 C   0  0  1  0  0  0  0  0  0  0  0  0
   23.5189   74.0888   -5.7904 H   0  0  0  0  0  0  0  0  0  0  0  0
   22.0608   74.3285   -6.9736 H   0  0  0  0  0  0  0  0  0  0  0  0
   23.7818   72.3571   -2.9026 H   0  0  0  0  0  0  0  0  0  0  0  0
   20.1878   71.4628   -8.0778 O   0  0  0  0  0  0  0  0  0  0  0  0
   19.2661   71.6419   -7.0182 C   0  0  0  0  0  0  0  0  0  0  0  0
   19.7092   71.2050   -8.8817 H   0  0  0  0  0  0  0  0  0  0  0  0
 25 28  1  0
 25 24  1  0
 25 26  1  1
 25 27  2  0
  1  4  1  0
  1 24  1  0
  1  2  1  1
  1  3  2  0
  6 11  1  0
  6 12  1  0
 29 36  1  0
 29 37  1  0
  9  7  1  1
  7 13  1  0
 10  8  1  1
  8 14  1  0
 37 28  1  1
  4  5  1  0
 33 30  1  6
 30 38  1  0
 34 31  1  1
 31 39  1  0
 35 32  1  1
 32 40  1  0
 41 42  1  0
 41 43  1  0
 15 19  2  0
 16 22  2  0
 12 17  1  6
 17 19  1  0
 17 20  1  0
 18 19  1  0
 18 22  1  0
 18 23  1  0
  9 10  1  0
  9 11  1  0
 10 12  1  0
 11  5  1  6
 33 34  1  0
 33 35  1  0
 34 36  1  0
 35 37  1  0
 36 42  1  6
 20 21  2  0
 21 22  1  0
M  CHG  2   2  -1  26  -1
M  END
>  <COMPND>  (13) 
    8629 

>  <AUTHOR>  (13) 
    GENERATED BY OPEN BABEL 3.1.1

>  <MASTER>  (13) 
        0    0    0    0    0    0    0    0   58    0   58    0

>  <minimizedAffinity>  (13) 
-8.90342

>  <CNNscore>  (13) 
0.6327273250

>  <CNNaffinity>  (13) 
4.4197387695

>  <CNN_VS>  (13) 
2.7964894772

>  <CNNaffinity_variance>  (13) 
0.0693929940

$$$$
14
     RDKit          3D

 43 45  0  0  0  0  0  0  0  0999 V2000
   22.1972   69.5475   -0.3854 P   0  0  2  0  0  0  0  0  0  0  0  0
   21.0035   69.2284    0.6590 O   0  0  0  0  0  0  0  0  0  0  0  0
   22.9679   68.3479   -0.8527 O   0  0  0  0  0  0  0  0  0  0  0  0
   23.0646   70.6952    0.3550 O   0  0  0  0  0  0  0  0  0  0  0  0
   24.2025   70.3052    1.1039 C   0  0  0  0  0  0  0  0  0  0  0  0
   25.0483   70.0315    3.3363 O   0  0  0  0  0  0  0  0  0  0  0  0
   22.5596   71.4323    4.2503 O   0  0  0  0  0  0  0  0  0  0  0  0
   24.4322   73.4113    4.3663 O   0  0  0  0  0  0  0  0  0  0  0  0
   23.3441   71.6581    3.0803 C   0  0  1  0  0  0  0  0  0  0  0  0
   24.6352   72.3629    3.4408 C   0  0  2  0  0  0  0  0  0  0  0  0
   23.8465   70.3080    2.5843 C   0  0  1  0  0  0  0  0  0  0  0  0
   25.4639   71.2271    4.0165 C   0  0  2  0  0  0  0  0  0  0  0  0
   22.2274   72.2804    4.5853 H   0  0  0  0  0  0  0  0  0  0  0  0
   23.9001   74.1090    3.9531 H   0  0  0  0  0  0  0  0  0  0  0  0
   27.0649   73.0338    5.4830 O   0  0  0  0  0  0  0  0  0  0  0  0
   30.8539   71.8706    3.1310 O   0  0  0  0  0  0  0  0  0  0  0  0
   26.8719   71.4165    3.8085 N   0  0  0  0  0  0  0  0  0  0  0  0
   28.9503   72.4530    4.3108 N   0  0  0  0  0  0  0  0  0  0  0  0
   27.5832   72.3496    4.5982 C   0  0  0  0  0  0  0  0  0  0  0  0
   27.5330   70.6811    2.8308 C   0  0  0  0  0  0  0  0  0  0  0  0
   28.8368   70.7923    2.5683 C   0  0  0  0  0  0  0  0  0  0  0  0
   29.6527   71.7451    3.3484 C   0  0  0  0  0  0  0  0  0  0  0  0
   29.4661   73.0972    4.8481 H   0  0  0  0  0  0  0  0  0  0  0  0
   21.4439   70.3626   -1.5605 O   0  0  0  0  0  0  0  0  0  0  0  0
   19.9821   71.0512   -1.6060 P   0  0  2  0  0  0  0  0  0  0  0  0
   20.1792   72.3984   -0.7320 O   0  0  0  0  0  0  0  0  0  0  0  0
   18.8685   70.1629   -1.1319 O   0  0  0  0  0  0  0  0  0  0  0  0
   19.8224   71.5709   -3.1256 O   0  0  0  0  0  0  0  0  0  0  0  0
   18.9495   69.6604   -4.2232 O   0  0  0  0  0  0  0  0  0  0  0  0
   18.7944   72.3483   -7.3540 O   0  0  0  0  0  0  0  0  0  0  0  0
   16.3608   71.5244   -6.0707 O   0  0  0  0  0  0  0  0  0  0  0  0
   21.0327   72.3965   -5.5190 O   0  0  0  0  0  0  0  0  0  0  0  0
   18.7159   71.9339   -5.9874 C   0  0  1  0  0  0  0  0  0  0  0  0
   17.6147   70.8783   -5.8690 C   0  0  1  0  0  0  0  0  0  0  0  0
   20.0641   71.3543   -5.5633 C   0  0  2  0  0  0  0  0  0  0  0  0
   17.6485   70.1942   -4.4956 C   0  0  1  0  0  0  0  0  0  0  0  0
   19.9761   70.6542   -4.2061 C   0  0  1  0  0  0  0  0  0  0  0  0
   17.9417   72.7178   -7.6294 H   0  0  0  0  0  0  0  0  0  0  0  0
   16.3527   71.9527   -6.9411 H   0  0  0  0  0  0  0  0  0  0  0  0
   21.0791   72.8316   -6.3841 H   0  0  0  0  0  0  0  0  0  0  0  0
   16.0489   68.8699   -5.6772 O   0  0  0  0  0  0  0  0  0  0  0  0
   16.6625   69.0311   -4.4116 C   0  0  0  0  0  0  0  0  0  0  0  0
   15.4188   68.1328   -5.6389 H   0  0  0  0  0  0  0  0  0  0  0  0
 25 28  1  0
 25 24  1  0
 25 26  1  1
 25 27  2  0
  1  4  1  0
  1 24  1  0
  1  2  1  1
  1  3  2  0
  6 11  1  0
  6 12  1  0
 29 36  1  0
 29 37  1  0
  9  7  1  1
  7 13  1  0
 10  8  1  1
  8 14  1  0
 37 28  1  1
  4  5  1  0
 33 30  1  6
 30 38  1  0
 34 31  1  1
 31 39  1  0
 35 32  1  1
 32 40  1  0
 41 42  1  0
 41 43  1  0
 15 19  2  0
 16 22  2  0
 12 17  1  6
 17 19  1  0
 17 20  1  0
 18 19  1  0
 18 22  1  0
 18 23  1  0
  9 10  1  0
  9 11  1  0
 10 12  1  0
 11  5  1  6
 33 34  1  0
 33 35  1  0
 34 36  1  0
 35 37  1  0
 36 42  1  6
 20 21  2  0
 21 22  1  0
M  CHG  2   2  -1  26  -1
M  END
>  <COMPND>  (14) 
    8629 

>  <AUTHOR>  (14) 
    GENERATED BY OPEN BABEL 3.1.1

>  <MASTER>  (14) 
        0    0    0    0    0    0    0    0   58    0   58    0

>  <minimizedAffinity>  (14) 
-9.25702

>  <CNNscore>  (14) 
0.6299151778

>  <CNNaffinity>  (14) 
4.6880235672

>  <CNN_VS>  (14) 
2.9530572891

>  <CNNaffinity_variance>  (14) 
0.0274899248

$$$$
15
     RDKit          3D

 43 45  0  0  0  0  0  0  0  0999 V2000
   24.6389   71.1208    3.9081 P   0  0  2  0  0  0  0  0  0  0  0  0
   24.2631   71.8484    5.3034 O   0  0  0  0  0  0  0  0  0  0  0  0
   23.8864   69.8522    3.6321 O   0  0  0  0  0  0  0  0  0  0  0  0
   26.2501   70.9842    3.9630 O   0  0  0  0  0  0  0  0  0  0  0  0
   27.0237   71.7302    3.0395 C   0  0  0  0  0  0  0  0  0  0  0  0
   29.1783   72.1553    4.0146 O   0  0  0  0  0  0  0  0  0  0  0  0
   28.4139   75.0545    3.9804 O   0  0  0  0  0  0  0  0  0  0  0  0
   30.0441   74.8439    1.8045 O   0  0  0  0  0  0  0  0  0  0  0  0
   28.1111   74.0304    3.0345 C   0  0  1  0  0  0  0  0  0  0  0  0
   29.3393   73.6905    2.2163 C   0  0  2  0  0  0  0  0  0  0  0  0
   27.8731   72.7368    3.8034 C   0  0  1  0  0  0  0  0  0  0  0  0
   30.1360   72.8333    3.1851 C   0  0  2  0  0  0  0  0  0  0  0  0
   28.5695   75.8906    3.5128 H   0  0  0  0  0  0  0  0  0  0  0  0
   29.4958   75.3557    1.1896 H   0  0  0  0  0  0  0  0  0  0  0  0
   32.8938   72.4486    3.6588 O   0  0  0  0  0  0  0  0  0  0  0  0
   33.1414   69.0560    0.5492 O   0  0  0  0  0  0  0  0  0  0  0  0
   30.9458   71.8562    2.5136 N   0  0  0  0  0  0  0  0  0  0  0  0
   33.0148   70.7595    2.1102 N   0  0  0  0  0  0  0  0  0  0  0  0
   32.3212   71.7450    2.8241 C   0  0  0  0  0  0  0  0  0  0  0  0
   30.3753   71.0209    1.5594 C   0  0  0  0  0  0  0  0  0  0  0  0
   31.0508   70.0870    0.8865 C   0  0  0  0  0  0  0  0  0  0  0  0
   32.4927   69.9058    1.1514 C   0  0  0  0  0  0  0  0  0  0  0  0
   33.9745   70.6641    2.3095 H   0  0  0  0  0  0  0  0  0  0  0  0
   24.4103   72.2898    2.8155 O   0  0  0  0  0  0  0  0  0  0  0  0
   23.2236   72.5231    1.7429 P   0  0  2  0  0  0  0  0  0  0  0  0
   23.5655   73.9774    1.1218 O   0  0  0  0  0  0  0  0  0  0  0  0
   21.8420   72.4048    2.3183 O   0  0  0  0  0  0  0  0  0  0  0  0
   23.5422   71.4848    0.5490 O   0  0  0  0  0  0  0  0  0  0  0  0
   22.1022   71.2496   -1.3186 O   0  0  0  0  0  0  0  0  0  0  0  0
   23.9249   67.5457   -1.4201 O   0  0  0  0  0  0  0  0  0  0  0  0
   24.5914   69.5090   -3.4074 O   0  0  0  0  0  0  0  0  0  0  0  0
   23.2494   68.7534    1.1225 O   0  0  0  0  0  0  0  0  0  0  0  0
   23.8533   68.9571   -1.2002 C   0  0  1  0  0  0  0  0  0  0  0  0
   23.4810   69.6302   -2.5228 C   0  0  1  0  0  0  0  0  0  0  0  0
   22.7966   69.2434   -0.1350 C   0  0  2  0  0  0  0  0  0  0  0  0
   23.1250   71.1079   -2.3114 C   0  0  1  0  0  0  0  0  0  0  0  0
   22.4811   70.7372   -0.0396 C   0  0  1  0  0  0  0  0  0  0  0  0
   24.5945   67.3571   -2.0951 H   0  0  0  0  0  0  0  0  0  0  0  0
   24.8062   68.5712   -3.5320 H   0  0  0  0  0  0  0  0  0  0  0  0
   23.4455   67.8069    1.0490 H   0  0  0  0  0  0  0  0  0  0  0  0
   23.7018   72.2450   -4.3320 O   0  0  0  0  0  0  0  0  0  0  0  0
   22.5993   71.7580   -3.5893 C   0  0  0  0  0  0  0  0  0  0  0  0
   23.3823   72.6613   -5.1484 H   0  0  0  0  0  0  0  0  0  0  0  0
 25 28  1  0
 25 24  1  0
 25 26  1  6
 25 27  2  0
  1  4  1  0
  1 24  1  0
  1  2  1  1
  1  3  2  0
  6 11  1  0
  6 12  1  0
 29 36  1  0
 29 37  1  0
  9  7  1  1
  7 13  1  0
 10  8  1  1
  8 14  1  0
 37 28  1  6
  4  5  1  0
 33 30  1  6
 30 38  1  0
 34 31  1  6
 31 39  1  0
 35 32  1  1
 32 40  1  0
 41 42  1  0
 41 43  1  0
 15 19  2  0
 16 22  2  0
 12 17  1  6
 17 19  1  0
 17 20  1  0
 18 19  1  0
 18 22  1  0
 18 23  1  0
  9 10  1  0
  9 11  1  0
 10 12  1  0
 11  5  1  6
 33 34  1  0
 33 35  1  0
 34 36  1  0
 35 37  1  0
 36 42  1  6
 20 21  2  0
 21 22  1  0
M  CHG  2   2  -1  26  -1
M  END
>  <COMPND>  (15) 
    8629 

>  <AUTHOR>  (15) 
    GENERATED BY OPEN BABEL 3.1.1

>  <MASTER>  (15) 
        0    0    0    0    0    0    0    0   58    0   58    0

>  <minimizedAffinity>  (15) 
-8.78857

>  <CNNscore>  (15) 
0.5700232387

>  <CNNaffinity>  (15) 
4.8058056831

>  <CNN_VS>  (15) 
2.7394208908

>  <CNNaffinity_variance>  (15) 
0.1066001058

$$$$
16
     RDKit          3D

 43 45  0  0  0  0  0  0  0  0999 V2000
   20.8742   70.5709    0.4901 P   0  0  2  0  0  0  0  0  0  0  0  0
   19.9497   71.3317    1.5782 O   0  0  0  0  0  0  0  0  0  0  0  0
   21.0140   69.0919    0.7007 O   0  0  0  0  0  0  0  0  0  0  0  0
   22.2545   71.4150    0.4953 O   0  0  0  0  0  0  0  0  0  0  0  0
   22.6976   71.9790    1.7173 C   0  0  0  0  0  0  0  0  0  0  0  0
   24.6304   70.6178    2.1475 O   0  0  0  0  0  0  0  0  0  0  0  0
   23.4121   70.0649    4.8309 O   0  0  0  0  0  0  0  0  0  0  0  0
   25.2891   71.9568    5.4087 O   0  0  0  0  0  0  0  0  0  0  0  0
   23.3887   71.2647    4.0594 C   0  0  1  0  0  0  0  0  0  0  0  0
   24.7401   71.9467    4.1067 C   0  0  2  0  0  0  0  0  0  0  0  0
   23.2799   70.8758    2.5903 C   0  0  1  0  0  0  0  0  0  0  0  0
   25.5518   71.1052    3.1365 C   0  0  2  0  0  0  0  0  0  0  0  0
   23.4808   70.2878    5.7730 H   0  0  0  0  0  0  0  0  0  0  0  0
   24.7374   72.5051    5.9882 H   0  0  0  0  0  0  0  0  0  0  0  0
   28.1620   70.1508    2.6329 O   0  0  0  0  0  0  0  0  0  0  0  0
   29.4159   74.1025    0.6195 O   0  0  0  0  0  0  0  0  0  0  0  0
   26.5805   71.8634    2.4820 N   0  0  0  0  0  0  0  0  0  0  0  0
   28.7842   72.1191    1.6306 N   0  0  0  0  0  0  0  0  0  0  0  0
   27.8581   71.2917    2.2786 C   0  0  0  0  0  0  0  0  0  0  0  0
   26.3177   73.1586    2.0491 C   0  0  0  0  0  0  0  0  0  0  0  0
   27.2121   73.9349    1.4339 C   0  0  0  0  0  0  0  0  0  0  0  0
   28.5711   73.4132    1.1828 C   0  0  0  0  0  0  0  0  0  0  0  0
   29.6811   71.7422    1.4785 H   0  0  0  0  0  0  0  0  0  0  0  0
   20.1979   70.9891   -0.9173 O   0  0  0  0  0  0  0  0  0  0  0  0
   20.8575   71.3154   -2.3565 P   0  0  2  0  0  0  0  0  0  0  0  0
   21.8682   70.0741   -2.5914 O   0  0  0  0  0  0  0  0  0  0  0  0
   21.5055   72.6668   -2.4443 O   0  0  0  0  0  0  0  0  0  0  0  0
   19.6642   71.0757   -3.4165 O   0  0  0  0  0  0  0  0  0  0  0  0
   17.8307   72.4517   -4.0176 O   0  0  0  0  0  0  0  0  0  0  0  0
   15.9724   68.7679   -4.1811 O   0  0  0  0  0  0  0  0  0  0  0  0
   16.5703   70.1639   -6.6187 O   0  0  0  0  0  0  0  0  0  0  0  0
   17.9163   69.3137   -2.1068 O   0  0  0  0  0  0  0  0  0  0  0  0
   17.0585   69.6869   -4.3263 C   0  0  1  0  0  0  0  0  0  0  0  0
   16.6434   70.7653   -5.3290 C   0  0  1  0  0  0  0  0  0  0  0  0
   17.3714   70.3088   -2.9666 C   0  0  2  0  0  0  0  0  0  0  0  0
   17.6446   71.9284   -5.3379 C   0  0  1  0  0  0  0  0  0  0  0  0
   18.3385   71.4872   -3.0936 C   0  0  1  0  0  0  0  0  0  0  0  0
   15.7690   68.3691   -5.0409 H   0  0  0  0  0  0  0  0  0  0  0  0
   15.9351   69.4308   -6.5993 H   0  0  0  0  0  0  0  0  0  0  0  0
   17.2946   68.5733   -2.0344 H   0  0  0  0  0  0  0  0  0  0  0  0
   18.1884   73.3909   -7.1474 O   0  0  0  0  0  0  0  0  0  0  0  0
   17.1691   73.0857   -6.2135 C   0  0  0  0  0  0  0  0  0  0  0  0
   17.8996   74.1256   -7.7117 H   0  0  0  0  0  0  0  0  0  0  0  0
 25 28  1  0
 25 24  1  0
 25 26  1  6
 25 27  2  0
  1  4  1  0
  1 24  1  0
  1  2  1  1
  1  3  2  0
  6 11  1  0
  6 12  1  0
 29 36  1  0
 29 37  1  0
  9  7  1  1
  7 13  1  0
 10  8  1  1
  8 14  1  0
 37 28  1  6
  4  5  1  0
 33 30  1  1
 30 38  1  0
 34 31  1  6
 31 39  1  0
 35 32  1  1
 32 40  1  0
 41 42  1  0
 41 43  1  0
 15 19  2  0
 16 22  2  0
 12 17  1  6
 17 19  1  0
 17 20  1  0
 18 19  1  0
 18 22  1  0
 18 23  1  0
  9 10  1  0
  9 11  1  0
 10 12  1  0
 11  5  1  6
 33 34  1  0
 33 35  1  0
 34 36  1  0
 35 37  1  0
 36 42  1  6
 20 21  2  0
 21 22  1  0
M  CHG  2   2  -1  26  -1
M  END
>  <COMPND>  (16) 
    8629 

>  <AUTHOR>  (16) 
    GENERATED BY OPEN BABEL 3.1.1

>  <MASTER>  (16) 
        0    0    0    0    0    0    0    0   58    0   58    0

>  <minimizedAffinity>  (16) 
-8.35096

>  <CNNscore>  (16) 
0.5681499839

>  <CNNaffinity>  (16) 
4.4209194183

>  <CNN_VS>  (16) 
2.5117452145

>  <CNNaffinity_variance>  (16) 
0.1075888872

$$$$
17
     RDKit          3D

 43 45  0  0  0  0  0  0  0  0999 V2000
   21.9833   69.7541    0.2455 P   0  0  2  0  0  0  0  0  0  0  0  0
   20.3708   69.7039    0.3667 O   0  0  0  0  0  0  0  0  0  0  0  0
   22.6515   68.4164    0.1213 O   0  0  0  0  0  0  0  0  0  0  0  0
   22.4402   70.6529    1.5109 O   0  0  0  0  0  0  0  0  0  0  0  0
   23.4128   70.1275    2.3974 C   0  0  0  0  0  0  0  0  0  0  0  0
   24.5005   70.6689    4.4705 O   0  0  0  0  0  0  0  0  0  0  0  0
   22.3017   72.6646    4.8869 O   0  0  0  0  0  0  0  0  0  0  0  0
   24.3651   74.2250    4.0244 O   0  0  0  0  0  0  0  0  0  0  0  0
   22.9516   72.2775    3.6773 C   0  0  1  0  0  0  0  0  0  0  0  0
   24.3426   72.8730    3.6139 C   0  0  2  0  0  0  0  0  0  0  0  0
   23.2479   70.7853    3.7606 C   0  0  1  0  0  0  0  0  0  0  0  0
   25.1176   71.9640    4.5527 C   0  0  2  0  0  0  0  0  0  0  0  0
   22.1020   73.6139    4.8569 H   0  0  0  0  0  0  0  0  0  0  0  0
   23.8589   74.7624    3.3954 H   0  0  0  0  0  0  0  0  0  0  0  0
   27.1196   73.8313    5.2476 O   0  0  0  0  0  0  0  0  0  0  0  0
   30.3877   71.4096    3.0805 O   0  0  0  0  0  0  0  0  0  0  0  0
   26.5000   71.8461    4.1836 N   0  0  0  0  0  0  0  0  0  0  0  0
   28.7453   72.6239    4.1682 N   0  0  0  0  0  0  0  0  0  0  0  0
   27.4247   72.8393    4.5823 C   0  0  0  0  0  0  0  0  0  0  0  0
   26.9267   70.7547    3.4348 C   0  0  0  0  0  0  0  0  0  0  0  0
   28.1895   70.5645    3.0469 C   0  0  0  0  0  0  0  0  0  0  0  0
   29.2182   71.5560    3.4220 C   0  0  0  0  0  0  0  0  0  0  0  0
   29.4069   73.3031    4.4340 H   0  0  0  0  0  0  0  0  0  0  0  0
   22.2229   70.7448   -1.0092 O   0  0  0  0  0  0  0  0  0  0  0  0
   22.3021   70.4479   -2.5962 P   0  0  2  0  0  0  0  0  0  0  0  0
   22.9957   68.9879   -2.6663 O   0  0  0  0  0  0  0  0  0  0  0  0
   23.0118   71.5092   -3.3860 O   0  0  0  0  0  0  0  0  0  0  0  0
   20.7716   70.1940   -3.0412 O   0  0  0  0  0  0  0  0  0  0  0  0
   19.7757   72.1515   -3.9315 O   0  0  0  0  0  0  0  0  0  0  0  0
   16.4102   69.7782   -3.6288 O   0  0  0  0  0  0  0  0  0  0  0  0
   17.5230   70.3370   -6.2167 O   0  0  0  0  0  0  0  0  0  0  0  0
   18.4403   69.6744   -1.5679 O   0  0  0  0  0  0  0  0  0  0  0  0
   17.7951   70.0520   -3.8576 C   0  0  1  0  0  0  0  0  0  0  0  0
   17.9035   71.0285   -5.0304 C   0  0  1  0  0  0  0  0  0  0  0  0
   18.3990   70.6609   -2.5934 C   0  0  2  0  0  0  0  0  0  0  0  0
   19.3309   71.5758   -5.1654 C   0  0  1  0  0  0  0  0  0  0  0  0
   19.8002   71.2190   -2.8491 C   0  0  1  0  0  0  0  0  0  0  0  0
   16.0209   69.3909   -4.4275 H   0  0  0  0  0  0  0  0  0  0  0  0
   16.6201   69.9961   -6.1182 H   0  0  0  0  0  0  0  0  0  0  0  0
   17.5474   69.3292   -1.4153 H   0  0  0  0  0  0  0  0  0  0  0  0
   20.5903   72.4436   -7.0011 O   0  0  0  0  0  0  0  0  0  0  0  0
   19.4262   72.6689   -6.2276 C   0  0  0  0  0  0  0  0  0  0  0  0
   20.6638   73.1317   -7.6815 H   0  0  0  0  0  0  0  0  0  0  0  0
 25 28  1  0
 25 24  1  0
 25 26  1  1
 25 27  2  0
  1  4  1  0
  1 24  1  0
  1  2  1  1
  1  3  2  0
  6 11  1  0
  6 12  1  0
 29 36  1  0
 29 37  1  0
  9  7  1  1
  7 13  1  0
 10  8  1  1
  8 14  1  0
 37 28  1  6
  4  5  1  0
 33 30  1  1
 30 38  1  0
 34 31  1  6
 31 39  1  0
 35 32  1  1
 32 40  1  0
 41 42  1  0
 41 43  1  0
 15 19  2  0
 16 22  2  0
 12 17  1  6
 17 19  1  0
 17 20  1  0
 18 19  1  0
 18 22  1  0
 18 23  1  0
  9 10  1  0
  9 11  1  0
 10 12  1  0
 11  5  1  6
 33 34  1  0
 33 35  1  0
 34 36  1  0
 35 37  1  0
 36 42  1  6
 20 21  2  0
 21 22  1  0
M  CHG  2   2  -1  26  -1
M  END
>  <COMPND>  (17) 
    8629 

>  <AUTHOR>  (17) 
    GENERATED BY OPEN BABEL 3.1.1

>  <MASTER>  (17) 
        0    0    0    0    0    0    0    0   58    0   58    0

>  <minimizedAffinity>  (17) 
-9.07368

>  <CNNscore>  (17) 
0.5677258372

>  <CNNaffinity>  (17) 
4.5848603249

>  <CNN_VS>  (17) 
2.6029436588

>  <CNNaffinity_variance>  (17) 
0.1160970181

$$$$
18
     RDKit          3D

 43 45  0  0  0  0  0  0  0  0999 V2000
   22.0162   69.8839   -0.2648 P   0  0  2  0  0  0  0  0  0  0  0  0
   20.9108   69.2747    0.7474 O   0  0  0  0  0  0  0  0  0  0  0  0
   22.6585   68.8825   -1.1791 O   0  0  0  0  0  0  0  0  0  0  0  0
   23.0239   70.6978    0.7048 O   0  0  0  0  0  0  0  0  0  0  0  0
   23.9229   69.9622    1.5163 C   0  0  0  0  0  0  0  0  0  0  0  0
   24.8408   70.0691    3.7343 O   0  0  0  0  0  0  0  0  0  0  0  0
   22.4451   71.7268    4.4439 O   0  0  0  0  0  0  0  0  0  0  0  0
   24.3969   73.6057    4.1322 O   0  0  0  0  0  0  0  0  0  0  0  0
   23.1932   71.6958    3.2295 C   0  0  1  0  0  0  0  0  0  0  0  0
   24.5236   72.3957    3.4134 C   0  0  2  0  0  0  0  0  0  0  0  0
   23.6232   70.2556    2.9799 C   0  0  1  0  0  0  0  0  0  0  0  0
   25.3283   71.3499    4.1664 C   0  0  2  0  0  0  0  0  0  0  0  0
   22.1592   72.6366    4.6242 H   0  0  0  0  0  0  0  0  0  0  0  0
   23.8773   74.2382    3.6118 H   0  0  0  0  0  0  0  0  0  0  0  0
   27.1067   73.1401    5.4354 O   0  0  0  0  0  0  0  0  0  0  0  0
   30.6993   71.5814    3.0054 O   0  0  0  0  0  0  0  0  0  0  0  0
   26.7337   71.4331    3.8849 N   0  0  0  0  0  0  0  0  0  0  0  0
   28.8941   72.3624    4.2246 N   0  0  0  0  0  0  0  0  0  0  0  0
   27.5386   72.3673    4.5775 C   0  0  0  0  0  0  0  0  0  0  0  0
   27.3004   70.5940    2.9317 C   0  0  0  0  0  0  0  0  0  0  0  0
   28.5946   70.6027    2.6057 C   0  0  0  0  0  0  0  0  0  0  0  0
   29.5044   71.5490    3.2829 C   0  0  0  0  0  0  0  0  0  0  0  0
   29.4741   73.0052    4.6938 H   0  0  0  0  0  0  0  0  0  0  0  0
   21.2074   71.0624   -1.0197 O   0  0  0  0  0  0  0  0  0  0  0  0
   19.6486   71.1863   -1.4293 P   0  0  2  0  0  0  0  0  0  0  0  0
   19.1520   72.4898   -0.6096 O   0  0  0  0  0  0  0  0  0  0  0  0
   18.8433   69.9465   -1.1679 O   0  0  0  0  0  0  0  0  0  0  0  0
   19.6680   71.6582   -2.9726 O   0  0  0  0  0  0  0  0  0  0  0  0
   18.8283   73.4966   -4.2104 O   0  0  0  0  0  0  0  0  0  0  0  0
   17.6247   70.4244   -6.6932 O   0  0  0  0  0  0  0  0  0  0  0  0
   19.7971   72.1246   -7.4919 O   0  0  0  0  0  0  0  0  0  0  0  0
   17.4987   70.0928   -3.8203 O   0  0  0  0  0  0  0  0  0  0  0  0
   18.4926   71.0923   -5.7734 C   0  0  1  0  0  0  0  0  0  0  0  0
   18.9283   72.4177   -6.4012 C   0  0  1  0  0  0  0  0  0  0  0  0
   17.7409   71.3379   -4.4664 C   0  0  2  0  0  0  0  0  0  0  0  0
   19.6408   73.3091   -5.3751 C   0  0  1  0  0  0  0  0  0  0  0  0
   18.5143   72.2756   -3.5376 C   0  0  1  0  0  0  0  0  0  0  0  0
   18.0960   70.2650   -7.5250 H   0  0  0  0  0  0  0  0  0  0  0  0
   19.3353   71.5609   -8.1323 H   0  0  0  0  0  0  0  0  0  0  0  0
   17.0082   69.5083   -4.4183 H   0  0  0  0  0  0  0  0  0  0  0  0
   20.0792   75.5991   -4.8531 O   0  0  0  0  0  0  0  0  0  0  0  0
   19.9438   74.6969   -5.9357 C   0  0  0  0  0  0  0  0  0  0  0  0
   20.2726   76.4865   -5.1948 H   0  0  0  0  0  0  0  0  0  0  0  0
 25 28  1  0
 25 24  1  0
 25 26  1  1
 25 27  2  0
  1  4  1  0
  1 24  1  0
  1  2  1  1
  1  3  2  0
  6 11  1  0
  6 12  1  0
 29 36  1  0
 29 37  1  0
  9  7  1  1
  7 13  1  0
 10  8  1  1
  8 14  1  0
 37 28  1  6
  4  5  1  0
 33 30  1  6
 30 38  1  0
 34 31  1  6
 31 39  1  0
 35 32  1  1
 32 40  1  0
 41 42  1  0
 41 43  1  0
 15 19  2  0
 16 22  2  0
 12 17  1  6
 17 19  1  0
 17 20  1  0
 18 19  1  0
 18 22  1  0
 18 23  1  0
  9 10  1  0
  9 11  1  0
 10 12  1  0
 11  5  1  6
 33 34  1  0
 33 35  1  0
 34 36  1  0
 35 37  1  0
 36 42  1  6
 20 21  2  0
 21 22  1  0
M  CHG  2   2  -1  26  -1
M  END
>  <COMPND>  (18) 
    8629 

>  <AUTHOR>  (18) 
    GENERATED BY OPEN BABEL 3.1.1

>  <MASTER>  (18) 
        0    0    0    0    0    0    0    0   58    0   58    0

>  <minimizedAffinity>  (18) 
-8.28848

>  <CNNscore>  (18) 
0.5559755564

>  <CNNaffinity>  (18) 
4.5666618347

>  <CNN_VS>  (18) 
2.5389523506

>  <CNNaffinity_variance>  (18) 
0.0200366601

$$$$
19
     RDKit          3D

 43 45  0  0  0  0  0  0  0  0999 V2000
   20.5967   75.0968   -2.7600 P   0  0  2  0  0  0  0  0  0  0  0  0
   20.3966   75.8006   -1.3171 O   0  0  0  0  0  0  0  0  0  0  0  0
   20.5367   76.0295   -3.9338 O   0  0  0  0  0  0  0  0  0  0  0  0
   19.5119   73.8963   -2.7603 O   0  0  0  0  0  0  0  0  0  0  0  0
   18.5686   73.8377   -3.8161 C   0  0  0  0  0  0  0  0  0  0  0  0
   17.0716   72.2249   -4.7814 O   0  0  0  0  0  0  0  0  0  0  0  0
   17.1257   70.8561   -2.1141 O   0  0  0  0  0  0  0  0  0  0  0  0
   18.8432   69.3412   -3.5947 O   0  0  0  0  0  0  0  0  0  0  0  0
   18.1743   71.5391   -2.7991 C   0  0  1  0  0  0  0  0  0  0  0  0
   18.6841   70.6992   -3.9515 C   0  0  2  0  0  0  0  0  0  0  0  0
   17.5630   72.7330   -3.5217 C   0  0  1  0  0  0  0  0  0  0  0  0
   17.6002   70.9060   -4.9958 C   0  0  2  0  0  0  0  0  0  0  0  0
   17.4920   70.0896   -1.6447 H   0  0  0  0  0  0  0  0  0  0  0  0
   19.5435   69.2618   -2.9283 H   0  0  0  0  0  0  0  0  0  0  0  0
   16.0459   70.2058   -7.2479 O   0  0  0  0  0  0  0  0  0  0  0  0
   19.6526   70.6033  -10.0895 O   0  0  0  0  0  0  0  0  0  0  0  0
   18.1074   70.8192   -6.3362 N   0  0  0  0  0  0  0  0  0  0  0  0
   17.8430   70.4045   -8.6610 N   0  0  0  0  0  0  0  0  0  0  0  0
   17.2434   70.4581   -7.3962 C   0  0  0  0  0  0  0  0  0  0  0  0
   19.4476   71.0910   -6.5890 C   0  0  0  0  0  0  0  0  0  0  0  0
   20.0041   71.0341   -7.8007 C   0  0  0  0  0  0  0  0  0  0  0  0
   19.1704   70.6644   -8.9627 C   0  0  0  0  0  0  0  0  0  0  0  0
   17.2605   70.1546   -9.4146 H   0  0  0  0  0  0  0  0  0  0  0  0
   22.0022   74.3163   -2.5920 O   0  0  0  0  0  0  0  0  0  0  0  0
   22.6285   73.0698   -3.4086 P   0  0  2  0  0  0  0  0  0  0  0  0
   24.1145   73.5844   -3.7889 O   0  0  0  0  0  0  0  0  0  0  0  0
   21.8060   72.6291   -4.5847 O   0  0  0  0  0  0  0  0  0  0  0  0
   22.8657   71.9281   -2.2928 O   0  0  0  0  0  0  0  0  0  0  0  0
   22.5226   69.5833   -2.3233 O   0  0  0  0  0  0  0  0  0  0  0  0
   21.2374   70.3882    1.5174 O   0  0  0  0  0  0  0  0  0  0  0  0
   23.7460   69.0498    1.1129 O   0  0  0  0  0  0  0  0  0  0  0  0
   20.6294   72.2366   -0.6258 O   0  0  0  0  0  0  0  0  0  0  0  0
   22.0512   70.5571    0.3535 C   0  0  1  0  0  0  0  0  0  0  0  0
   22.7800   69.2394    0.0827 C   0  0  1  0  0  0  0  0  0  0  0  0
   21.1595   70.9311   -0.8290 C   0  0  2  0  0  0  0  0  0  0  0  0
   23.4614   69.2557   -1.2923 C   0  0  1  0  0  0  0  0  0  0  0  0
   21.9223   70.8689   -2.1535 C   0  0  1  0  0  0  0  0  0  0  0  0
   21.7976   70.1511    2.2721 H   0  0  0  0  0  0  0  0  0  0  0  0
   23.3028   69.0420    1.9759 H   0  0  0  0  0  0  0  0  0  0  0  0
   20.1486   72.2628    0.2157 H   0  0  0  0  0  0  0  0  0  0  0  0
   23.1265   67.1892   -2.4439 O   0  0  0  0  0  0  0  0  0  0  0  0
   24.0605   67.8972   -1.6498 C   0  0  0  0  0  0  0  0  0  0  0  0
   23.4945   66.3226   -2.6793 H   0  0  0  0  0  0  0  0  0  0  0  0
 25 28  1  0
 25 24  1  0
 25 26  1  6
 25 27  2  0
  1  4  1  0
  1 24  1  0
  1  2  1  1
  1  3  2  0
  6 11  1  0
  6 12  1  0
 29 36  1  0
 29 37  1  0
  9  7  1  6
  7 13  1  0
 10  8  1  1
  8 14  1  0
 37 28  1  1
  4  5  1  0
 33 30  1  1
 30 38  1  0
 34 31  1  1
 31 39  1  0
 35 32  1  1
 32 40  1  0
 41 42  1  0
 41 43  1  0
 15 19  2  0
 16 22  2  0
 12 17  1  6
 17 19  1  0
 17 20  1  0
 18 19  1  0
 18 22  1  0
 18 23  1  0
  9 10  1  0
  9 11  1  0
 10 12  1  0
 11  5  1  6
 33 34  1  0
 33 35  1  0
 34 36  1  0
 35 37  1  0
 36 42  1  6
 20 21  2  0
 21 22  1  0
M  CHG  2   2  -1  26  -1
M  END
>  <COMPND>  (19) 
    8629 

>  <AUTHOR>  (19) 
    GENERATED BY OPEN BABEL 3.1.1

>  <MASTER>  (19) 
        0    0    0    0    0    0    0    0   58    0   58    0

>  <minimizedAffinity>  (19) 
-7.81853

>  <CNNscore>  (19) 
0.5407170653

>  <CNNaffinity>  (19) 
4.7284421921

>  <CNN_VS>  (19) 
2.5567493439

>  <CNNaffinity_variance>  (19) 
0.1083500162

$$$$
20
     RDKit          3D

 43 45  0  0  0  0  0  0  0  0999 V2000
   19.8730   71.0470   -0.6642 P   0  0  2  0  0  0  0  0  0  0  0  0
   18.3905   70.4220   -0.8348 O   0  0  0  0  0  0  0  0  0  0  0  0
   19.9319   72.3409    0.0934 O   0  0  0  0  0  0  0  0  0  0  0  0
   20.4526   71.0899   -2.1742 O   0  0  0  0  0  0  0  0  0  0  0  0
   20.7770   72.3486   -2.7384 C   0  0  0  0  0  0  0  0  0  0  0  0
   21.2466   71.2383   -4.8169 O   0  0  0  0  0  0  0  0  0  0  0  0
   23.4203   73.2689   -5.1949 O   0  0  0  0  0  0  0  0  0  0  0  0
   21.4250   74.2309   -6.7856 O   0  0  0  0  0  0  0  0  0  0  0  0
   22.1318   73.4261   -4.6029 C   0  0  1  0  0  0  0  0  0  0  0  0
   21.0599   73.4405   -5.6726 C   0  0  2  0  0  0  0  0  0  0  0  0
   21.8054   72.1467   -3.8427 C   0  0  1  0  0  0  0  0  0  0  0  0
   20.9389   71.9658   -6.0173 C   0  0  2  0  0  0  0  0  0  0  0  0
   23.6508   74.0739   -5.6857 H   0  0  0  0  0  0  0  0  0  0  0  0
   21.4890   75.1602   -6.5154 H   0  0  0  0  0  0  0  0  0  0  0  0
   20.3229   70.9232   -8.5691 O   0  0  0  0  0  0  0  0  0  0  0  0
   15.8318   70.6438   -7.5727 O   0  0  0  0  0  0  0  0  0  0  0  0
   19.6169   71.6115   -6.4513 N   0  0  0  0  0  0  0  0  0  0  0  0
   18.0872   70.7848   -8.0708 N   0  0  0  0  0  0  0  0  0  0  0  0
   19.4153   71.0970   -7.7532 C   0  0  0  0  0  0  0  0  0  0  0  0
   18.5376   71.7749   -5.5897 C   0  0  0  0  0  0  0  0  0  0  0  0
   17.2771   71.4735   -5.9083 C   0  0  0  0  0  0  0  0  0  0  0  0
   16.9804   70.9305   -7.2496 C   0  0  0  0  0  0  0  0  0  0  0  0
   17.9226   70.4251   -8.9727 H   0  0  0  0  0  0  0  0  0  0  0  0
   20.7032   69.8346    0.0094 O   0  0  0  0  0  0  0  0  0  0  0  0
   22.2908   69.6333    0.2377 P   0  0  2  0  0  0  0  0  0  0  0  0
   22.9513   70.5501   -0.9202 O   0  0  0  0  0  0  0  0  0  0  0  0
   22.7377   68.2001    0.2230 O   0  0  0  0  0  0  0  0  0  0  0  0
   22.6089   70.4192    1.6110 O   0  0  0  0  0  0  0  0  0  0  0  0
   22.4826   72.6462    2.4117 O   0  0  0  0  0  0  0  0  0  0  0  0
   26.3170   71.7219    3.6341 O   0  0  0  0  0  0  0  0  0  0  0  0
   24.2186   71.9302    5.5839 O   0  0  0  0  0  0  0  0  0  0  0  0
   25.3437   70.7610    1.0829 O   0  0  0  0  0  0  0  0  0  0  0  0
   24.9399   71.4578    3.3528 C   0  0  1  0  0  0  0  0  0  0  0  0
   24.0864   72.3709    4.2353 C   0  0  1  0  0  0  0  0  0  0  0  0
   24.6705   71.7337    1.8748 C   0  0  2  0  0  0  0  0  0  0  0  0
   22.6138   72.3390    3.8046 C   0  0  1  0  0  0  0  0  0  0  0  0
   23.1729   71.7271    1.5627 C   0  0  1  0  0  0  0  0  0  0  0  0
   26.4948   71.5482    4.5710 H   0  0  0  0  0  0  0  0  0  0  0  0
   25.1531   71.9546    5.8432 H   0  0  0  0  0  0  0  0  0  0  0  0
   26.2908   70.7753    1.2895 H   0  0  0  0  0  0  0  0  0  0  0  0
   20.4147   73.1809    4.2094 O   0  0  0  0  0  0  0  0  0  0  0  0
   21.7725   73.3598    4.5677 C   0  0  0  0  0  0  0  0  0  0  0  0
   19.8672   73.8237    4.6877 H   0  0  0  0  0  0  0  0  0  0  0  0
 25 28  1  0
 25 24  1  0
 25 26  1  6
 25 27  2  0
  1  4  1  0
  1 24  1  0
  1  2  1  6
  1  3  2  0
  6 11  1  0
  6 12  1  0
 29 36  1  0
 29 37  1  0
  9  7  1  6
  7 13  1  0
 10  8  1  6
  8 14  1  0
 37 28  1  1
  4  5  1  0
 33 30  1  6
 30 38  1  0
 34 31  1  1
 31 39  1  0
 35 32  1  6
 32 40  1  0
 41 42  1  0
 41 43  1  0
 15 19  2  0
 16 22  2  0
 12 17  1  1
 17 19  1  0
 17 20  1  0
 18 19  1  0
 18 22  1  0
 18 23  1  0
  9 10  1  0
  9 11  1  0
 10 12  1  0
 11  5  1  1
 33 34  1  0
 33 35  1  0
 34 36  1  0
 35 37  1  0
 36 42  1  1
 20 21  2  0
 21 22  1  0
M  CHG  2   2  -1  26  -1
M  END
>  <COMPND>  (20) 
    8629 

>  <AUTHOR>  (20) 
    GENERATED BY OPEN BABEL 3.1.1

>  <MASTER>  (20) 
        0    0    0    0    0    0    0    0   58    0   58    0

>  <minimizedAffinity>  (20) 
-7.98564

>  <CNNscore>  (20) 
0.5397046804

>  <CNNaffinity>  (20) 
4.5539298058

>  <CNN_VS>  (20) 
2.4577772617

>  <CNNaffinity_variance>  (20) 
0.1990036815

$$$$
21
     RDKit          3D

 43 45  0  0  0  0  0  0  0  0999 V2000
   22.4154   71.7246   -1.8367 P   0  0  2  0  0  0  0  0  0  0  0  0
   22.8261   72.7270   -0.6351 O   0  0  0  0  0  0  0  0  0  0  0  0
   23.0796   72.0065   -3.1522 O   0  0  0  0  0  0  0  0  0  0  0  0
   20.7980   71.7677   -1.8427 O   0  0  0  0  0  0  0  0  0  0  0  0
   20.1030   70.9407   -2.7597 C   0  0  0  0  0  0  0  0  0  0  0  0
   18.2863   71.9023   -4.0043 O   0  0  0  0  0  0  0  0  0  0  0  0
   16.4703   70.5477   -2.0400 O   0  0  0  0  0  0  0  0  0  0  0  0
   16.3546   68.8868   -4.1998 O   0  0  0  0  0  0  0  0  0  0  0  0
   17.7097   70.0957   -2.5832 C   0  0  1  0  0  0  0  0  0  0  0  0
   17.5251   69.6579   -4.0212 C   0  0  2  0  0  0  0  0  0  0  0  0
   18.6248   71.3046   -2.7336 C   0  0  1  0  0  0  0  0  0  0  0  0
   17.4651   70.9893   -4.7506 C   0  0  2  0  0  0  0  0  0  0  0  0
   15.8693   69.7930   -1.9345 H   0  0  0  0  0  0  0  0  0  0  0  0
   16.4415   68.0501   -3.7168 H   0  0  0  0  0  0  0  0  0  0  0  0
   15.9236   70.1999   -6.9819 O   0  0  0  0  0  0  0  0  0  0  0  0
   19.4957   70.6872   -9.8530 O   0  0  0  0  0  0  0  0  0  0  0  0
   17.9668   70.9014   -6.0930 N   0  0  0  0  0  0  0  0  0  0  0  0
   17.7035   70.4433   -8.4097 N   0  0  0  0  0  0  0  0  0  0  0  0
   17.1101   70.4935   -7.1418 C   0  0  0  0  0  0  0  0  0  0  0  0
   19.2946   71.2181   -6.3586 C   0  0  0  0  0  0  0  0  0  0  0  0
   19.8454   71.1639   -7.5731 C   0  0  0  0  0  0  0  0  0  0  0  0
   19.0186   70.7471   -8.7240 C   0  0  0  0  0  0  0  0  0  0  0  0
   17.1258   70.1614   -9.1558 H   0  0  0  0  0  0  0  0  0  0  0  0
   22.7376   70.2659   -1.2193 O   0  0  0  0  0  0  0  0  0  0  0  0
   22.3716   69.6156    0.2147 P   0  0  2  0  0  0  0  0  0  0  0  0
   22.9148   68.0974    0.0832 O   0  0  0  0  0  0  0  0  0  0  0  0
   20.9214   69.7243    0.5875 O   0  0  0  0  0  0  0  0  0  0  0  0
   23.3841   70.3223    1.2541 O   0  0  0  0  0  0  0  0  0  0  0  0
   24.7614   69.3787    2.9362 O   0  0  0  0  0  0  0  0  0  0  0  0
   23.6440   72.8519    4.8698 O   0  0  0  0  0  0  0  0  0  0  0  0
   26.3268   72.5793    3.8817 O   0  0  0  0  0  0  0  0  0  0  0  0
   21.7279   71.4324    3.2288 O   0  0  0  0  0  0  0  0  0  0  0  0
   23.9997   72.0435    3.7449 C   0  0  1  0  0  0  0  0  0  0  0  0
   25.4087   71.4937    3.9759 C   0  0  1  0  0  0  0  0  0  0  0  0
   22.9926   70.9028    3.6115 C   0  0  2  0  0  0  0  0  0  0  0  0
   25.7558   70.4095    2.9468 C   0  0  1  0  0  0  0  0  0  0  0  0
   23.4571   69.8549    2.5985 C   0  0  1  0  0  0  0  0  0  0  0  0
   24.2793   73.5784    4.9599 H   0  0  0  0  0  0  0  0  0  0  0  0
   26.0961   73.2571    4.5364 H   0  0  0  0  0  0  0  0  0  0  0  0
   21.4447   72.0942    3.8781 H   0  0  0  0  0  0  0  0  0  0  0  0
   28.1069   70.3993    2.5210 O   0  0  0  0  0  0  0  0  0  0  0  0
   27.0922   69.7370    3.2532 C   0  0  0  0  0  0  0  0  0  0  0  0
   28.9632   69.9821    2.7064 H   0  0  0  0  0  0  0  0  0  0  0  0
 25 28  1  0
 25 24  1  0
 25 26  1  6
 25 27  2  0
  1  4  1  0
  1 24  1  0
  1  2  1  1
  1  3  2  0
  6 11  1  0
  6 12  1  0
 29 36  1  0
 29 37  1  0
  9  7  1  6
  7 13  1  0
 10  8  1  1
  8 14  1  0
 37 28  1  6
  4  5  1  0
 33 30  1  1
 30 38  1  0
 34 31  1  6
 31 39  1  0
 35 32  1  6
 32 40  1  0
 41 42  1  0
 41 43  1  0
 15 19  2  0
 16 22  2  0
 12 17  1  6
 17 19  1  0
 17 20  1  0
 18 19  1  0
 18 22  1  0
 18 23  1  0
  9 10  1  0
  9 11  1  0
 10 12  1  0
 11  5  1  6
 33 34  1  0
 33 35  1  0
 34 36  1  0
 35 37  1  0
 36 42  1  1
 20 21  2  0
 21 22  1  0
M  CHG  2   2  -1  26  -1
M  END
>  <COMPND>  (21) 
    8629 

>  <AUTHOR>  (21) 
    GENERATED BY OPEN BABEL 3.1.1

>  <MASTER>  (21) 
        0    0    0    0    0    0    0    0   58    0   58    0

>  <minimizedAffinity>  (21) 
-9.19056

>  <CNNscore>  (21) 
0.8300415874

>  <CNNaffinity>  (21) 
4.9627556801

>  <CNN_VS>  (21) 
4.1192936897

>  <CNNaffinity_variance>  (21) 
0.2578041255

$$$$
22
     RDKit          3D

 43 45  0  0  0  0  0  0  0  0999 V2000
   22.1815   69.6303   -0.2541 P   0  0  2  0  0  0  0  0  0  0  0  0
   20.9775   69.2613    0.7616 O   0  0  0  0  0  0  0  0  0  0  0  0
   22.8653   68.4512   -0.8813 O   0  0  0  0  0  0  0  0  0  0  0  0
   23.1307   70.6151    0.6103 O   0  0  0  0  0  0  0  0  0  0  0  0
   24.2473   70.0595    1.2827 C   0  0  0  0  0  0  0  0  0  0  0  0
   25.2509   69.9773    3.4644 O   0  0  0  0  0  0  0  0  0  0  0  0
   22.6658   71.0979    4.4904 O   0  0  0  0  0  0  0  0  0  0  0  0
   24.2817   73.2937    4.4263 O   0  0  0  0  0  0  0  0  0  0  0  0
   23.3457   71.3727    3.2666 C   0  0  1  0  0  0  0  0  0  0  0  0
   24.5583   72.2431    3.5227 C   0  0  2  0  0  0  0  0  0  0  0  0
   23.9817   70.0758    2.7818 C   0  0  1  0  0  0  0  0  0  0  0  0
   25.5542   71.2400    4.0796 C   0  0  2  0  0  0  0  0  0  0  0  0
   22.2512   71.9114    4.8194 H   0  0  0  0  0  0  0  0  0  0  0  0
   23.6436   73.9049    4.0262 H   0  0  0  0  0  0  0  0  0  0  0  0
   27.0492   73.1843    5.4806 O   0  0  0  0  0  0  0  0  0  0  0  0
   30.7583   72.5072    2.8301 O   0  0  0  0  0  0  0  0  0  0  0  0
   26.9130   71.5916    3.7771 N   0  0  0  0  0  0  0  0  0  0  0  0
   28.8949   72.8454    4.1598 N   0  0  0  0  0  0  0  0  0  0  0  0
   27.5730   72.5821    4.5411 C   0  0  0  0  0  0  0  0  0  0  0  0
   27.5771   70.9567    2.7332 C   0  0  0  0  0  0  0  0  0  0  0  0
   28.8373   71.2202    2.3815 C   0  0  0  0  0  0  0  0  0  0  0  0
   29.5980   72.2422    3.1291 C   0  0  0  0  0  0  0  0  0  0  0  0
   29.3745   73.5321    4.6777 H   0  0  0  0  0  0  0  0  0  0  0  0
   21.4755   70.6358   -1.3046 O   0  0  0  0  0  0  0  0  0  0  0  0
   19.9340   71.0964   -1.4612 P   0  0  2  0  0  0  0  0  0  0  0  0
   19.8039   72.3203   -0.4111 O   0  0  0  0  0  0  0  0  0  0  0  0
   18.9377   69.9929   -1.2523 O   0  0  0  0  0  0  0  0  0  0  0  0
   19.8623   71.7962   -2.9138 O   0  0  0  0  0  0  0  0  0  0  0  0
   19.4449   70.4939   -4.8493 O   0  0  0  0  0  0  0  0  0  0  0  0
   21.2495   73.7558   -6.6253 O   0  0  0  0  0  0  0  0  0  0  0  0
   18.4217   73.3587   -6.9314 O   0  0  0  0  0  0  0  0  0  0  0  0
   22.2188   72.7780   -4.0790 O   0  0  0  0  0  0  0  0  0  0  0  0
   20.4317   73.0817   -5.6650 C   0  0  1  0  0  0  0  0  0  0  0  0
   19.3040   72.3674   -6.4125 C   0  0  1  0  0  0  0  0  0  0  0  0
   21.2887   72.0769   -4.8973 C   0  0  2  0  0  0  0  0  0  0  0  0
   18.5448   71.4090   -5.4851 C   0  0  1  0  0  0  0  0  0  0  0  0
   20.4322   71.1402   -4.0434 C   0  0  1  0  0  0  0  0  0  0  0  0
   20.7115   74.3957   -7.1159 H   0  0  0  0  0  0  0  0  0  0  0  0
   18.9136   73.9576   -7.5149 H   0  0  0  0  0  0  0  0  0  0  0  0
   22.7551   73.3673   -4.6312 H   0  0  0  0  0  0  0  0  0  0  0  0
   16.3331   71.3305   -6.3859 O   0  0  0  0  0  0  0  0  0  0  0  0
   17.5192   70.5705   -6.2449 C   0  0  0  0  0  0  0  0  0  0  0  0
   15.6714   70.8096   -6.8680 H   0  0  0  0  0  0  0  0  0  0  0  0
 25 28  1  0
 25 24  1  0
 25 26  1  1
 25 27  2  0
  1  4  1  0
  1 24  1  0
  1  2  1  1
  1  3  2  0
  6 11  1  0
  6 12  1  0
 29 36  1  0
 29 37  1  0
  9  7  1  1
  7 13  1  0
 10  8  1  1
  8 14  1  0
 37 28  1  1
  4  5  1  0
 33 30  1  6
 30 38  1  0
 34 31  1  1
 31 39  1  0
 35 32  1  1
 32 40  1  0
 41 42  1  0
 41 43  1  0
 15 19  2  0
 16 22  2  0
 12 17  1  6
 17 19  1  0
 17 20  1  0
 18 19  1  0
 18 22  1  0
 18 23  1  0
  9 10  1  0
  9 11  1  0
 10 12  1  0
 11  5  1  6
 33 34  1  0
 33 35  1  0
 34 36  1  0
 35 37  1  0
 36 42  1  6
 20 21  2  0
 21 22  1  0
M  CHG  2   2  -1  26  -1
M  END
>  <COMPND>  (22) 
    8629 

>  <AUTHOR>  (22) 
    GENERATED BY OPEN BABEL 3.1.1

>  <MASTER>  (22) 
        0    0    0    0    0    0    0    0   58    0   58    0

>  <minimizedAffinity>  (22) 
-8.07329

>  <CNNscore>  (22) 
0.7929885387

>  <CNNaffinity>  (22) 
4.7381200790

>  <CNN_VS>  (22) 
3.7572748661

>  <CNNaffinity_variance>  (22) 
0.2547788620

$$$$
23
     RDKit          3D

 43 45  0  0  0  0  0  0  0  0999 V2000
   21.4076   72.6405   -1.9764 P   0  0  2  0  0  0  0  0  0  0  0  0
   20.9917   73.9684   -1.1511 O   0  0  0  0  0  0  0  0  0  0  0  0
   22.5497   72.8204   -2.9327 O   0  0  0  0  0  0  0  0  0  0  0  0
   20.0157   72.1381   -2.6308 O   0  0  0  0  0  0  0  0  0  0  0  0
   18.9280   73.0445   -2.6849 C   0  0  0  0  0  0  0  0  0  0  0  0
   17.0957   72.1515   -3.9572 O   0  0  0  0  0  0  0  0  0  0  0  0
   16.5597   70.3857   -1.5939 O   0  0  0  0  0  0  0  0  0  0  0  0
   17.8574   68.7076   -3.3076 O   0  0  0  0  0  0  0  0  0  0  0  0
   17.8076   70.8304   -2.1233 C   0  0  1  0  0  0  0  0  0  0  0  0
   18.1283   70.0910   -3.4054 C   0  0  2  0  0  0  0  0  0  0  0  0
   17.6249   72.2599   -2.6177 C   0  0  1  0  0  0  0  0  0  0  0  0
   17.2284   70.7935   -4.4078 C   0  0  2  0  0  0  0  0  0  0  0  0
   16.6516   69.4749   -1.2715 H   0  0  0  0  0  0  0  0  0  0  0  0
   18.4553   68.3060   -2.6579 H   0  0  0  0  0  0  0  0  0  0  0  0
   15.8705   69.8610   -6.7022 O   0  0  0  0  0  0  0  0  0  0  0  0
   19.4451   70.8417   -9.4411 O   0  0  0  0  0  0  0  0  0  0  0  0
   17.7804   70.7938   -5.7332 N   0  0  0  0  0  0  0  0  0  0  0  0
   17.6514   70.3502   -8.0641 N   0  0  0  0  0  0  0  0  0  0  0  0
   17.0157   70.3026   -6.8169 C   0  0  0  0  0  0  0  0  0  0  0  0
   19.0663   71.2778   -5.9483 C   0  0  0  0  0  0  0  0  0  0  0  0
   19.6586   71.3152   -7.1437 C   0  0  0  0  0  0  0  0  0  0  0  0
   18.9279   70.8207   -8.3284 C   0  0  0  0  0  0  0  0  0  0  0  0
   17.1379   70.0129   -8.8337 H   0  0  0  0  0  0  0  0  0  0  0  0
   21.6727   71.5549   -0.8084 O   0  0  0  0  0  0  0  0  0  0  0  0
   20.8115   71.1791    0.5069 P   0  0  2  0  0  0  0  0  0  0  0  0
   20.5851   69.5840    0.3589 O   0  0  0  0  0  0  0  0  0  0  0  0
   19.5464   71.9724    0.6615 O   0  0  0  0  0  0  0  0  0  0  0  0
   21.8505   71.3313    1.7326 O   0  0  0  0  0  0  0  0  0  0  0  0
   23.8742   72.5188    2.0658 O   0  0  0  0  0  0  0  0  0  0  0  0
   24.9496   68.9000    3.7387 O   0  0  0  0  0  0  0  0  0  0  0  0
   24.4728   71.1632    5.4411 O   0  0  0  0  0  0  0  0  0  0  0  0
   23.3010   68.9581    1.3600 O   0  0  0  0  0  0  0  0  0  0  0  0
   24.0598   69.9702    3.4097 C   0  0  1  0  0  0  0  0  0  0  0  0
   24.6099   71.2579    4.0260 C   0  0  1  0  0  0  0  0  0  0  0  0
   23.9714   70.0965    1.8899 C   0  0  2  0  0  0  0  0  0  0  0  0
   23.8610   72.4889    3.4978 C   0  0  1  0  0  0  0  0  0  0  0  0
   23.2507   71.3791    1.4708 C   0  0  1  0  0  0  0  0  0  0  0  0
   25.0098   68.8141    4.7023 H   0  0  0  0  0  0  0  0  0  0  0  0
   24.9498   70.3817    5.7618 H   0  0  0  0  0  0  0  0  0  0  0  0
   23.7671   68.1528    1.6321 H   0  0  0  0  0  0  0  0  0  0  0  0
   23.5629   74.4688    4.8016 O   0  0  0  0  0  0  0  0  0  0  0  0
   24.4945   73.7931    3.9771 C   0  0  0  0  0  0  0  0  0  0  0  0
   23.9527   75.3007    5.1143 H   0  0  0  0  0  0  0  0  0  0  0  0
 25 28  1  0
 25 24  1  0
 25 26  1  6
 25 27  2  0
  1  4  1  0
  1 24  1  0
  1  2  1  1
  1  3  2  0
  6 11  1  0
  6 12  1  0
 29 36  1  0
 29 37  1  0
  9  7  1  6
  7 13  1  0
 10  8  1  1
  8 14  1  0
 37 28  1  1
  4  5  1  0
 33 30  1  6
 30 38  1  0
 34 31  1  1
 31 39  1  0
 35 32  1  1
 32 40  1  0
 41 42  1  0
 41 43  1  0
 15 19  2  0
 16 22  2  0
 12 17  1  6
 17 19  1  0
 17 20  1  0
 18 19  1  0
 18 22  1  0
 18 23  1  0
  9 10  1  0
  9 11  1  0
 10 12  1  0
 11  5  1  6
 33 34  1  0
 33 35  1  0
 34 36  1  0
 35 37  1  0
 36 42  1  1
 20 21  2  0
 21 22  1  0
M  CHG  2   2  -1  26  -1
M  END
>  <COMPND>  (23) 
    8629 

>  <AUTHOR>  (23) 
    GENERATED BY OPEN BABEL 3.1.1

>  <MASTER>  (23) 
        0    0    0    0    0    0    0    0   58    0   58    0

>  <minimizedAffinity>  (23) 
-8.36693

>  <CNNscore>  (23) 
0.7926427126

>  <CNNaffinity>  (23) 
5.0351877213

>  <CNN_VS>  (23) 
3.9911048412

>  <CNNaffinity_variance>  (23) 
0.0844421238

$$$$
24
     RDKit          3D

 43 45  0  0  0  0  0  0  0  0999 V2000
   19.8383   70.9510   -0.2016 P   0  0  2  0  0  0  0  0  0  0  0  0
   20.7007   69.7844    0.5145 O   0  0  0  0  0  0  0  0  0  0  0  0
   18.6966   71.4854    0.6122 O   0  0  0  0  0  0  0  0  0  0  0  0
   19.4422   70.3163   -1.6362 O   0  0  0  0  0  0  0  0  0  0  0  0
   19.3126   71.1857   -2.7476 C   0  0  0  0  0  0  0  0  0  0  0  0
   17.6831   72.0248   -4.3013 O   0  0  0  0  0  0  0  0  0  0  0  0
   15.6264   70.6834   -2.5804 O   0  0  0  0  0  0  0  0  0  0  0  0
   15.9016   68.9320   -4.6525 O   0  0  0  0  0  0  0  0  0  0  0  0
   16.9490   70.2574   -2.9039 C   0  0  1  0  0  0  0  0  0  0  0  0
   17.0050   69.7541   -4.3312 C   0  0  2  0  0  0  0  0  0  0  0  0
   17.8378   71.4933   -2.9672 C   0  0  1  0  0  0  0  0  0  0  0  0
   17.0177   71.0511   -5.1223 C   0  0  2  0  0  0  0  0  0  0  0  0
   15.0404   69.9111   -2.5340 H   0  0  0  0  0  0  0  0  0  0  0  0
   15.9385   68.1198   -4.1235 H   0  0  0  0  0  0  0  0  0  0  0  0
   15.8373   70.2387   -7.5563 O   0  0  0  0  0  0  0  0  0  0  0  0
   19.8299   70.6113   -9.8283 O   0  0  0  0  0  0  0  0  0  0  0  0
   17.7253   70.9275   -6.3654 N   0  0  0  0  0  0  0  0  0  0  0  0
   17.8262   70.4251   -8.6857 N   0  0  0  0  0  0  0  0  0  0  0  0
   17.0394   70.5108   -7.5300 C   0  0  0  0  0  0  0  0  0  0  0  0
   19.0840   71.2184   -6.4212 C   0  0  0  0  0  0  0  0  0  0  0  0
   19.8203   71.1303   -7.5309 C   0  0  0  0  0  0  0  0  0  0  0  0
   19.1800   70.7021   -8.7914 C   0  0  0  0  0  0  0  0  0  0  0  0
   17.3699   70.1364   -9.5092 H   0  0  0  0  0  0  0  0  0  0  0  0
   20.9610   72.0482   -0.5873 O   0  0  0  0  0  0  0  0  0  0  0  0
   22.5745   71.9883   -0.5100 P   0  0  2  0  0  0  0  0  0  0  0  0
   23.0268   73.4376   -1.0690 O   0  0  0  0  0  0  0  0  0  0  0  0
   23.1828   70.8257   -1.2396 O   0  0  0  0  0  0  0  0  0  0  0  0
   22.9100   72.0372    1.0680 O   0  0  0  0  0  0  0  0  0  0  0  0
   24.9711   72.6175    2.0838 O   0  0  0  0  0  0  0  0  0  0  0  0
   23.6238   69.8644    4.8508 O   0  0  0  0  0  0  0  0  0  0  0  0
   23.6214   72.6588    5.5138 O   0  0  0  0  0  0  0  0  0  0  0  0
   23.1727   69.4131    2.0273 O   0  0  0  0  0  0  0  0  0  0  0  0
   23.4946   70.9116    3.8853 C   0  0  1  0  0  0  0  0  0  0  0  0
   24.2930   72.1199    4.3786 C   0  0  1  0  0  0  0  0  0  0  0  0
   24.0344   70.4221    2.5428 C   0  0  2  0  0  0  0  0  0  0  0  0
   24.4233   73.1836    3.2801 C   0  0  1  0  0  0  0  0  0  0  0  0
   24.1709   71.5672    1.5376 C   0  0  1  0  0  0  0  0  0  0  0  0
   23.2824   70.1686    5.7054 H   0  0  0  0  0  0  0  0  0  0  0  0
   23.5452   71.9770    6.1998 H   0  0  0  0  0  0  0  0  0  0  0  0
   23.0947   68.6939    2.6727 H   0  0  0  0  0  0  0  0  0  0  0  0
   26.2658   73.8339    4.6553 O   0  0  0  0  0  0  0  0  0  0  0  0
   25.3474   74.3258    3.6968 C   0  0  0  0  0  0  0  0  0  0  0  0
   26.8606   74.5500    4.9295 H   0  0  0  0  0  0  0  0  0  0  0  0
 25 28  1  0
 25 24  1  0
 25 26  1  6
 25 27  2  0
  1  4  1  0
  1 24  1  0
  1  2  1  1
  1  3  2  0
  6 11  1  0
  6 12  1  0
 29 36  1  0
 29 37  1  0
  9  7  1  6
  7 13  1  0
 10  8  1  6
  8 14  1  0
 37 28  1  1
  4  5  1  0
 33 30  1  1
 30 38  1  0
 34 31  1  1
 31 39  1  0
 35 32  1  6
 32 40  1  0
 41 42  1  0
 41 43  1  0
 15 19  2  0
 16 22  2  0
 12 17  1  6
 17 19  1  0
 17 20  1  0
 18 19  1  0
 18 22  1  0
 18 23  1  0
  9 10  1  0
  9 11  1  0
 10 12  1  0
 11  5  1  6
 33 34  1  0
 33 35  1  0
 34 36  1  0
 35 37  1  0
 36 42  1  1
 20 21  2  0
 21 22  1  0
M  CHG  2   2  -1  26  -1
M  END
>  <COMPND>  (24) 
    8629 

>  <AUTHOR>  (24) 
    GENERATED BY OPEN BABEL 3.1.1

>  <MASTER>  (24) 
        0    0    0    0    0    0    0    0   58    0   58    0

>  <minimizedAffinity>  (24) 
-8.34608

>  <CNNscore>  (24) 
0.7528833747

>  <CNNaffinity>  (24) 
4.7052178383

>  <CNN_VS>  (24) 
3.5424802303

>  <CNNaffinity_variance>  (24) 
0.1545775384

$$$$
25
     RDKit          3D

 43 45  0  0  0  0  0  0  0  0999 V2000
   20.7768   70.3704    0.0320 P   0  0  2  0  0  0  0  0  0  0  0  0
   19.2106   70.7675    0.1152 O   0  0  0  0  0  0  0  0  0  0  0  0
   21.1232   69.0322    0.6156 O   0  0  0  0  0  0  0  0  0  0  0  0
   21.5349   71.6405    0.6878 O   0  0  0  0  0  0  0  0  0  0  0  0
   22.7742   71.4253    1.3402 C   0  0  0  0  0  0  0  0  0  0  0  0
   23.6789   70.7297    3.4548 O   0  0  0  0  0  0  0  0  0  0  0  0
   21.7223   72.6274    4.7043 O   0  0  0  0  0  0  0  0  0  0  0  0
   24.0542   74.0388    4.7861 O   0  0  0  0  0  0  0  0  0  0  0  0
   22.4506   72.7561    3.4843 C   0  0  1  0  0  0  0  0  0  0  0  0
   23.9048   73.0677    3.7705 C   0  0  2  0  0  0  0  0  0  0  0  0
   22.5410   71.3765    2.8440 C   0  0  1  0  0  0  0  0  0  0  0  0
   24.4441   71.7073    4.1785 C   0  0  2  0  0  0  0  0  0  0  0  0
   21.6512   73.4960    5.1314 H   0  0  0  0  0  0  0  0  0  0  0  0
   23.6964   74.8862    4.4785 H   0  0  0  0  0  0  0  0  0  0  0  0
   26.5777   72.6426    5.7756 O   0  0  0  0  0  0  0  0  0  0  0  0
   29.7323   71.0411    2.8218 O   0  0  0  0  0  0  0  0  0  0  0  0
   25.8329   71.5480    3.8509 N   0  0  0  0  0  0  0  0  0  0  0  0
   28.1468   71.8442    4.3036 N   0  0  0  0  0  0  0  0  0  0  0  0
   26.8263   72.0554    4.7206 C   0  0  0  0  0  0  0  0  0  0  0  0
   26.1980   70.8946    2.6789 C   0  0  0  0  0  0  0  0  0  0  0  0
   27.4617   70.7025    2.2951 C   0  0  0  0  0  0  0  0  0  0  0  0
   28.5601   71.2019    3.1472 C   0  0  0  0  0  0  0  0  0  0  0  0
   28.8557   72.1895    4.8935 H   0  0  0  0  0  0  0  0  0  0  0  0
   21.1073   70.5235   -1.5429 O   0  0  0  0  0  0  0  0  0  0  0  0
   20.6434   71.6341   -2.6219 P   0  0  2  0  0  0  0  0  0  0  0  0
   21.9014   71.7143   -3.6361 O   0  0  0  0  0  0  0  0  0  0  0  0
   20.2492   72.9511   -2.0187 O   0  0  0  0  0  0  0  0  0  0  0  0
   19.4778   70.9133   -3.4745 O   0  0  0  0  0  0  0  0  0  0  0  0
   17.6322   72.1509   -4.2984 O   0  0  0  0  0  0  0  0  0  0  0  0
   15.9431   68.3829   -4.2764 O   0  0  0  0  0  0  0  0  0  0  0  0
   16.6413   69.6092   -6.7778 O   0  0  0  0  0  0  0  0  0  0  0  0
   17.7223   69.1803   -2.1367 O   0  0  0  0  0  0  0  0  0  0  0  0
   16.9974   69.3373   -4.4283 C   0  0  1  0  0  0  0  0  0  0  0  0
   16.6046   70.3130   -5.5394 C   0  0  1  0  0  0  0  0  0  0  0  0
   17.1942   70.0781   -3.1070 C   0  0  2  0  0  0  0  0  0  0  0  0
   17.5550   71.5172   -5.5807 C   0  0  1  0  0  0  0  0  0  0  0  0
   18.1178   71.2867   -3.2692 C   0  0  1  0  0  0  0  0  0  0  0  0
   15.8134   67.9087   -5.1118 H   0  0  0  0  0  0  0  0  0  0  0  0
   16.0372   68.8511   -6.7382 H   0  0  0  0  0  0  0  0  0  0  0  0
   17.1284   68.4197   -2.0431 H   0  0  0  0  0  0  0  0  0  0  0  0
   17.5209   72.2002   -7.8701 O   0  0  0  0  0  0  0  0  0  0  0  0
   17.0905   72.5786   -6.5756 C   0  0  0  0  0  0  0  0  0  0  0  0
   17.2320   72.8664   -8.5138 H   0  0  0  0  0  0  0  0  0  0  0  0
 25 28  1  0
 25 24  1  0
 25 26  1  6
 25 27  2  0
  1  4  1  0
  1 24  1  0
  1  2  1  6
  1  3  2  0
  6 11  1  0
  6 12  1  0
 29 36  1  0
 29 37  1  0
  9  7  1  1
  7 13  1  0
 10  8  1  1
  8 14  1  0
 37 28  1  6
  4  5  1  0
 33 30  1  1
 30 38  1  0
 34 31  1  6
 31 39  1  0
 35 32  1  1
 32 40  1  0
 41 42  1  0
 41 43  1  0
 15 19  2  0
 16 22  2  0
 12 17  1  6
 17 19  1  0
 17 20  1  0
 18 19  1  0
 18 22  1  0
 18 23  1  0
  9 10  1  0
  9 11  1  0
 10 12  1  0
 11  5  1  6
 33 34  1  0
 33 35  1  0
 34 36  1  0
 35 37  1  0
 36 42  1  6
 20 21  2  0
 21 22  1  0
M  CHG  2   2  -1  26  -1
M  END
>  <COMPND>  (25) 
    8629 

>  <AUTHOR>  (25) 
    GENERATED BY OPEN BABEL 3.1.1

>  <MASTER>  (25) 
        0    0    0    0    0    0    0    0   58    0   58    0

>  <minimizedAffinity>  (25) 
-8.55234

>  <CNNscore>  (25) 
0.7161351442

>  <CNNaffinity>  (25) 
4.6139602661

>  <CNN_VS>  (25) 
3.3042190075

>  <CNNaffinity_variance>  (25) 
0.1339502037

$$$$
26
     RDKit          3D

 43 45  0  0  0  0  0  0  0  0999 V2000
   20.7368   70.8211    0.5572 P   0  0  2  0  0  0  0  0  0  0  0  0
   19.7376   71.4876    1.6410 O   0  0  0  0  0  0  0  0  0  0  0  0
   20.7878   69.3217    0.5803 O   0  0  0  0  0  0  0  0  0  0  0  0
   22.1451   71.5760    0.8115 O   0  0  0  0  0  0  0  0  0  0  0  0
   23.1654   70.8858    1.5119 C   0  0  0  0  0  0  0  0  0  0  0  0
   24.1071   70.5683    3.6996 O   0  0  0  0  0  0  0  0  0  0  0  0
   22.0092   72.4759    4.6747 O   0  0  0  0  0  0  0  0  0  0  0  0
   24.2305   74.0523    4.5421 O   0  0  0  0  0  0  0  0  0  0  0  0
   22.7329   72.4821    3.4452 C   0  0  1  0  0  0  0  0  0  0  0  0
   24.1586   72.9376    3.6765 C   0  0  2  0  0  0  0  0  0  0  0  0
   22.9281   71.0356    3.0083 C   0  0  1  0  0  0  0  0  0  0  0  0
   24.7943   71.6929    4.2722 C   0  0  2  0  0  0  0  0  0  0  0  0
   21.8721   73.3891    4.9735 H   0  0  0  0  0  0  0  0  0  0  0  0
   23.8130   74.8184    4.1183 H   0  0  0  0  0  0  0  0  0  0  0  0
   26.8386   73.0575    5.6638 O   0  0  0  0  0  0  0  0  0  0  0  0
   30.1249   71.2277    3.0004 O   0  0  0  0  0  0  0  0  0  0  0  0
   26.1929   71.5912    3.9638 N   0  0  0  0  0  0  0  0  0  0  0  0
   28.4733   72.1452    4.3366 N   0  0  0  0  0  0  0  0  0  0  0  0
   27.1383   72.3188    4.7235 C   0  0  0  0  0  0  0  0  0  0  0  0
   26.6145   70.7765    2.9186 C   0  0  0  0  0  0  0  0  0  0  0  0
   27.8913   70.6228    2.5616 C   0  0  0  0  0  0  0  0  0  0  0  0
   28.9421   71.3481    3.3044 C   0  0  0  0  0  0  0  0  0  0  0  0
   29.1496   72.6426    4.8514 H   0  0  0  0  0  0  0  0  0  0  0  0
   20.2318   71.4556   -0.8411 O   0  0  0  0  0  0  0  0  0  0  0  0
   20.9808   71.6201   -2.2641 P   0  0  2  0  0  0  0  0  0  0  0  0
   21.7018   70.1867   -2.4718 O   0  0  0  0  0  0  0  0  0  0  0  0
   21.9098   72.7971   -2.3381 O   0  0  0  0  0  0  0  0  0  0  0  0
   19.7895   71.6388   -3.3530 O   0  0  0  0  0  0  0  0  0  0  0  0
   18.9282   69.7347   -4.4708 O   0  0  0  0  0  0  0  0  0  0  0  0
   18.1843   72.5889   -7.3605 O   0  0  0  0  0  0  0  0  0  0  0  0
   15.9983   71.4916   -5.8555 O   0  0  0  0  0  0  0  0  0  0  0  0
   20.6258   72.7064   -5.8098 O   0  0  0  0  0  0  0  0  0  0  0  0
   18.3087   72.0860   -6.0275 C   0  0  1  0  0  0  0  0  0  0  0  0
   17.3115   70.9389   -5.8528 C   0  0  1  0  0  0  0  0  0  0  0  0
   19.7383   71.5933   -5.8113 C   0  0  2  0  0  0  0  0  0  0  0  0
   17.5677   70.1764   -4.5458 C   0  0  1  0  0  0  0  0  0  0  0  0
   19.8732   70.8060   -4.5066 C   0  0  1  0  0  0  0  0  0  0  0  0
   17.2789   72.9038   -7.5042 H   0  0  0  0  0  0  0  0  0  0  0  0
   15.8495   71.9707   -6.6859 H   0  0  0  0  0  0  0  0  0  0  0  0
   20.5311   73.1963   -6.6410 H   0  0  0  0  0  0  0  0  0  0  0  0
   15.9369   68.7990   -5.6191 O   0  0  0  0  0  0  0  0  0  0  0  0
   16.6881   68.9338   -4.4267 C   0  0  0  0  0  0  0  0  0  0  0  0
   15.3725   68.0120   -5.5578 H   0  0  0  0  0  0  0  0  0  0  0  0
 25 28  1  0
 25 24  1  0
 25 26  1  6
 25 27  2  0
  1  4  1  0
  1 24  1  0
  1  2  1  1
  1  3  2  0
  6 11  1  0
  6 12  1  0
 29 36  1  0
 29 37  1  0
  9  7  1  1
  7 13  1  0
 10  8  1  1
  8 14  1  0
 37 28  1  1
  4  5  1  0
 33 30  1  6
 30 38  1  0
 34 31  1  1
 31 39  1  0
 35 32  1  1
 32 40  1  0
 41 42  1  0
 41 43  1  0
 15 19  2  0
 16 22  2  0
 12 17  1  6
 17 19  1  0
 17 20  1  0
 18 19  1  0
 18 22  1  0
 18 23  1  0
  9 10  1  0
  9 11  1  0
 10 12  1  0
 11  5  1  6
 33 34  1  0
 33 35  1  0
 34 36  1  0
 35 37  1  0
 36 42  1  6
 20 21  2  0
 21 22  1  0
M  CHG  2   2  -1  26  -1
M  END
>  <COMPND>  (26) 
    8629 

>  <AUTHOR>  (26) 
    GENERATED BY OPEN BABEL 3.1.1

>  <MASTER>  (26) 
        0    0    0    0    0    0    0    0   58    0   58    0

>  <minimizedAffinity>  (26) 
-8.23042

>  <CNNscore>  (26) 
0.6875801086

>  <CNNaffinity>  (26) 
4.4866805077

>  <CNN_VS>  (26) 
3.0849523544

>  <CNNaffinity_variance>  (26) 
0.0840729177

$$$$
27
     RDKit          3D

 43 45  0  0  0  0  0  0  0  0999 V2000
   21.8241   71.1757   -1.8585 P   0  0  2  0  0  0  0  0  0  0  0  0
   22.6645   72.4146   -2.4718 O   0  0  0  0  0  0  0  0  0  0  0  0
   21.7724   69.9532   -2.7270 O   0  0  0  0  0  0  0  0  0  0  0  0
   20.3932   71.8278   -1.4774 O   0  0  0  0  0  0  0  0  0  0  0  0
   19.6126   72.3980   -2.5135 C   0  0  0  0  0  0  0  0  0  0  0  0
   17.5910   71.9605   -3.7364 O   0  0  0  0  0  0  0  0  0  0  0  0
   16.8726   70.0837   -1.5109 O   0  0  0  0  0  0  0  0  0  0  0  0
   17.7691   68.3898   -3.4509 O   0  0  0  0  0  0  0  0  0  0  0  0
   18.1511   70.3610   -2.0799 C   0  0  1  0  0  0  0  0  0  0  0  0
   18.2730   69.7099   -3.4418 C   0  0  2  0  0  0  0  0  0  0  0  0
   18.1972   71.8430   -2.4306 C   0  0  1  0  0  0  0  0  0  0  0  0
   17.4612   70.6516   -4.3150 C   0  0  2  0  0  0  0  0  0  0  0  0
   16.8195   69.1429   -1.2785 H   0  0  0  0  0  0  0  0  0  0  0  0
   18.3191   67.8297   -2.8811 H   0  0  0  0  0  0  0  0  0  0  0  0
   15.9069   69.9754   -6.5744 O   0  0  0  0  0  0  0  0  0  0  0  0
   19.3953   70.8378   -9.4603 O   0  0  0  0  0  0  0  0  0  0  0  0
   17.9379   70.6908   -5.6688 N   0  0  0  0  0  0  0  0  0  0  0  0
   17.6450   70.4055   -8.0095 N   0  0  0  0  0  0  0  0  0  0  0  0
   17.0768   70.3307   -6.7314 C   0  0  0  0  0  0  0  0  0  0  0  0
   19.2458   71.0834   -5.9318 C   0  0  0  0  0  0  0  0  0  0  0  0
   19.7728   71.1482   -7.1563 C   0  0  0  0  0  0  0  0  0  0  0  0
   18.9398   70.7885   -8.3219 C   0  0  0  0  0  0  0  0  0  0  0  0
   17.0639   70.1589   -8.7653 H   0  0  0  0  0  0  0  0  0  0  0  0
   22.5150   70.9469   -0.4152 O   0  0  0  0  0  0  0  0  0  0  0  0
   22.1965   69.8804    0.7571 P   0  0  2  0  0  0  0  0  0  0  0  0
   23.4660   68.8790    0.7026 O   0  0  0  0  0  0  0  0  0  0  0  0
   20.8648   69.1999    0.6247 O   0  0  0  0  0  0  0  0  0  0  0  0
   22.3903   70.7101    2.1278 O   0  0  0  0  0  0  0  0  0  0  0  0
   24.0953   72.2962    1.6872 O   0  0  0  0  0  0  0  0  0  0  0  0
   23.3449   73.2156    5.6423 O   0  0  0  0  0  0  0  0  0  0  0  0
   22.4797   75.0164    3.5791 O   0  0  0  0  0  0  0  0  0  0  0  0
   23.3050   70.4561    4.7687 O   0  0  0  0  0  0  0  0  0  0  0  0
   23.0104   72.8031    4.3144 C   0  0  1  0  0  0  0  0  0  0  0  0
   23.3795   73.9349    3.3533 C   0  0  1  0  0  0  0  0  0  0  0  0
   23.7896   71.5338    3.9748 C   0  0  2  0  0  0  0  0  0  0  0  0
   23.3001   73.4697    1.8931 C   0  0  1  0  0  0  0  0  0  0  0  0
   23.6841   71.1869    2.4887 C   0  0  1  0  0  0  0  0  0  0  0  0
   22.8532   74.0208    5.8644 H   0  0  0  0  0  0  0  0  0  0  0  0
   22.5393   75.3003    4.5049 H   0  0  0  0  0  0  0  0  0  0  0  0
   23.3774   70.6880    5.7072 H   0  0  0  0  0  0  0  0  0  0  0  0
   23.5950   74.0803   -0.3980 O   0  0  0  0  0  0  0  0  0  0  0  0
   23.8150   74.5329    0.9253 C   0  0  0  0  0  0  0  0  0  0  0  0
   23.9176   74.7472   -1.0249 H   0  0  0  0  0  0  0  0  0  0  0  0
 25 28  1  0
 25 24  1  0
 25 26  1  1
 25 27  2  0
  1  4  1  0
  1 24  1  0
  1  2  1  6
  1  3  2  0
  6 11  1  0
  6 12  1  0
 29 36  1  0
 29 37  1  0
  9  7  1  6
  7 13  1  0
 10  8  1  1
  8 14  1  0
 37 28  1  6
  4  5  1  0
 33 30  1  1
 30 38  1  0
 34 31  1  6
 31 39  1  0
 35 32  1  1
 32 40  1  0
 41 42  1  0
 41 43  1  0
 15 19  2  0
 16 22  2  0
 12 17  1  6
 17 19  1  0
 17 20  1  0
 18 19  1  0
 18 22  1  0
 18 23  1  0
  9 10  1  0
  9 11  1  0
 10 12  1  0
 11  5  1  6
 33 34  1  0
 33 35  1  0
 34 36  1  0
 35 37  1  0
 36 42  1  6
 20 21  2  0
 21 22  1  0
M  CHG  2   2  -1  26  -1
M  END
>  <COMPND>  (27) 
    8629 

>  <AUTHOR>  (27) 
    GENERATED BY OPEN BABEL 3.1.1

>  <MASTER>  (27) 
        0    0    0    0    0    0    0    0   58    0   58    0

>  <minimizedAffinity>  (27) 
-8.27619

>  <CNNscore>  (27) 
0.6375088096

>  <CNNaffinity>  (27) 
4.6222171783

>  <CNN_VS>  (27) 
2.9467041492

>  <CNNaffinity_variance>  (27) 
0.1131316870

$$$$
28
     RDKit          3D

 43 45  0  0  0  0  0  0  0  0999 V2000
   20.7614   70.7527    0.3580 P   0  0  2  0  0  0  0  0  0  0  0  0
   19.8092   71.4841    1.4423 O   0  0  0  0  0  0  0  0  0  0  0  0
   20.8688   69.2639    0.5110 O   0  0  0  0  0  0  0  0  0  0  0  0
   22.1543   71.5708    0.4498 O   0  0  0  0  0  0  0  0  0  0  0  0
   23.2814   70.9254    1.0162 C   0  0  0  0  0  0  0  0  0  0  0  0
   24.3103   70.3116    3.0991 O   0  0  0  0  0  0  0  0  0  0  0  0
   22.1561   71.9231    4.4231 O   0  0  0  0  0  0  0  0  0  0  0  0
   24.2923   73.6167    4.4916 O   0  0  0  0  0  0  0  0  0  0  0  0
   22.8369   72.1652    3.1930 C   0  0  1  0  0  0  0  0  0  0  0  0
   24.2457   72.6532    3.4590 C   0  0  2  0  0  0  0  0  0  0  0  0
   23.0874   70.8201    2.5227 C   0  0  1  0  0  0  0  0  0  0  0  0
   24.9609   71.3648    3.8288 C   0  0  2  0  0  0  0  0  0  0  0  0
   21.9848   72.7678    4.8693 H   0  0  0  0  0  0  0  0  0  0  0  0
   23.8241   74.4174    4.2082 H   0  0  0  0  0  0  0  0  0  0  0  0
   27.0298   72.2520    5.5348 O   0  0  0  0  0  0  0  0  0  0  0  0
   30.2597   71.4132    2.3559 O   0  0  0  0  0  0  0  0  0  0  0  0
   26.3516   71.3887    3.4728 N   0  0  0  0  0  0  0  0  0  0  0  0
   28.6364   71.8334    3.9506 N   0  0  0  0  0  0  0  0  0  0  0  0
   27.3107   71.8539    4.4024 C   0  0  0  0  0  0  0  0  0  0  0  0
   26.7522   70.9538    2.2141 C   0  0  0  0  0  0  0  0  0  0  0  0
   28.0204   70.9418    1.7982 C   0  0  0  0  0  0  0  0  0  0  0  0
   29.0844   71.4118    2.7088 C   0  0  0  0  0  0  0  0  0  0  0  0
   29.3218   72.1534    4.5811 H   0  0  0  0  0  0  0  0  0  0  0  0
   20.1456   71.2412   -1.0545 O   0  0  0  0  0  0  0  0  0  0  0  0
   18.6880   71.0098   -1.7139 P   0  0  2  0  0  0  0  0  0  0  0  0
   17.7783   72.1489   -1.0121 O   0  0  0  0  0  0  0  0  0  0  0  0
   18.1583   69.6133   -1.5614 O   0  0  0  0  0  0  0  0  0  0  0  0
   18.8486   71.5010   -3.2429 O   0  0  0  0  0  0  0  0  0  0  0  0
   18.1214   70.1397   -5.0413 O   0  0  0  0  0  0  0  0  0  0  0  0
   20.8729   72.4727   -7.0505 O   0  0  0  0  0  0  0  0  0  0  0  0
   18.0666   72.8849   -7.5009 O   0  0  0  0  0  0  0  0  0  0  0  0
   21.4260   71.5911   -4.3493 O   0  0  0  0  0  0  0  0  0  0  0  0
   19.8616   72.1973   -6.0775 C   0  0  1  0  0  0  0  0  0  0  0  0
   18.5957   71.7543   -6.8137 C   0  0  1  0  0  0  0  0  0  0  0  0
   20.3546   71.0935   -5.1438 C   0  0  2  0  0  0  0  0  0  0  0  0
   17.5562   71.1881   -5.8370 C   0  0  1  0  0  0  0  0  0  0  0  0
   19.2312   70.5669   -4.2490 C   0  0  1  0  0  0  0  0  0  0  0  0
   20.5663   73.1732   -7.6463 H   0  0  0  0  0  0  0  0  0  0  0  0
   18.7330   73.2331   -8.1141 H   0  0  0  0  0  0  0  0  0  0  0  0
   22.1308   71.9211   -4.9274 H   0  0  0  0  0  0  0  0  0  0  0  0
   15.9580   69.4129   -5.8933 O   0  0  0  0  0  0  0  0  0  0  0  0
   16.3510   70.5960   -6.5643 C   0  0  0  0  0  0  0  0  0  0  0  0
   15.1916   69.0252   -6.3450 H   0  0  0  0  0  0  0  0  0  0  0  0
 25 28  1  0
 25 24  1  0
 25 26  1  1
 25 27  2  0
  1  4  1  0
  1 24  1  0
  1  2  1  1
  1  3  2  0
  6 11  1  0
  6 12  1  0
 29 36  1  0
 29 37  1  0
  9  7  1  1
  7 13  1  0
 10  8  1  1
  8 14  1  0
 37 28  1  1
  4  5  1  0
 33 30  1  6
 30 38  1  0
 34 31  1  1
 31 39  1  0
 35 32  1  1
 32 40  1  0
 41 42  1  0
 41 43  1  0
 15 19  2  0
 16 22  2  0
 12 17  1  6
 17 19  1  0
 17 20  1  0
 18 19  1  0
 18 22  1  0
 18 23  1  0
  9 10  1  0
  9 11  1  0
 10 12  1  0
 11  5  1  6
 33 34  1  0
 33 35  1  0
 34 36  1  0
 35 37  1  0
 36 42  1  6
 20 21  2  0
 21 22  1  0
M  CHG  2   2  -1  26  -1
M  END
>  <COMPND>  (28) 
    8629 

>  <AUTHOR>  (28) 
    GENERATED BY OPEN BABEL 3.1.1

>  <MASTER>  (28) 
        0    0    0    0    0    0    0    0   58    0   58    0

>  <minimizedAffinity>  (28) 
-8.85261

>  <CNNscore>  (28) 
0.6263056993

>  <CNNaffinity>  (28) 
4.6173629761

>  <CNN_VS>  (28) 
2.8918807507

>  <CNNaffinity_variance>  (28) 
0.0192319211

$$$$
29
     RDKit          3D

 43 45  0  0  0  0  0  0  0  0999 V2000
   22.2715   69.6431    0.0998 P   0  0  2  0  0  0  0  0  0  0  0  0
   20.7213   69.4815    0.5336 O   0  0  0  0  0  0  0  0  0  0  0  0
   22.9679   68.3616   -0.2525 O   0  0  0  0  0  0  0  0  0  0  0  0
   22.9280   70.4891    1.3127 O   0  0  0  0  0  0  0  0  0  0  0  0
   23.6922   69.7963    2.2843 C   0  0  0  0  0  0  0  0  0  0  0  0
   24.7352   70.4282    4.3547 O   0  0  0  0  0  0  0  0  0  0  0  0
   22.4016   72.2685    4.7523 O   0  0  0  0  0  0  0  0  0  0  0  0
   24.3527   73.9626    3.8808 O   0  0  0  0  0  0  0  0  0  0  0  0
   23.0793   71.9185    3.5467 C   0  0  1  0  0  0  0  0  0  0  0  0
   24.4255   72.6093    3.4808 C   0  0  2  0  0  0  0  0  0  0  0  0
   23.4790   70.4514    3.6421 C   0  0  1  0  0  0  0  0  0  0  0  0
   25.2602   71.7639    4.4277 C   0  0  2  0  0  0  0  0  0  0  0  0
   22.1362   73.2013    4.7147 H   0  0  0  0  0  0  0  0  0  0  0  0
   23.8114   74.4586    3.2469 H   0  0  0  0  0  0  0  0  0  0  0  0
   27.1762   73.6415    5.3115 O   0  0  0  0  0  0  0  0  0  0  0  0
   30.5566   71.5747    2.9573 O   0  0  0  0  0  0  0  0  0  0  0  0
   26.6483   71.7400    4.0615 N   0  0  0  0  0  0  0  0  0  0  0  0
   28.8578   72.6108    4.1387 N   0  0  0  0  0  0  0  0  0  0  0  0
   27.5271   72.7301    4.5594 C   0  0  0  0  0  0  0  0  0  0  0  0
   27.1254   70.7426    3.2181 C   0  0  0  0  0  0  0  0  0  0  0  0
   28.3971   70.6436    2.8254 C   0  0  0  0  0  0  0  0  0  0  0  0
   29.3801   71.6385    3.3005 C   0  0  0  0  0  0  0  0  0  0  0  0
   29.4882   73.2897    4.4727 H   0  0  0  0  0  0  0  0  0  0  0  0
   22.2023   70.7232   -1.1008 O   0  0  0  0  0  0  0  0  0  0  0  0
   22.3757   70.5473   -2.6983 P   0  0  2  0  0  0  0  0  0  0  0  0
   20.9897   69.8433   -3.1467 O   0  0  0  0  0  0  0  0  0  0  0  0
   23.6110   69.7969   -3.1042 O   0  0  0  0  0  0  0  0  0  0  0  0
   22.2803   72.0470   -3.2871 O   0  0  0  0  0  0  0  0  0  0  0  0
   23.8499   73.1670   -4.6650 O   0  0  0  0  0  0  0  0  0  0  0  0
   22.4207   76.3999   -2.5304 O   0  0  0  0  0  0  0  0  0  0  0  0
   21.6839   76.0841   -5.2882 O   0  0  0  0  0  0  0  0  0  0  0  0
   22.8114   73.8549   -1.2076 O   0  0  0  0  0  0  0  0  0  0  0  0
   22.3355   75.1347   -3.1917 C   0  0  1  0  0  0  0  0  0  0  0  0
   22.7193   75.3339   -4.6593 C   0  0  1  0  0  0  0  0  0  0  0  0
   23.2896   74.1524   -2.5149 C   0  0  2  0  0  0  0  0  0  0  0  0
   22.9103   73.9871   -5.3697 C   0  0  1  0  0  0  0  0  0  0  0  0
   23.4461   72.8660   -3.3278 C   0  0  1  0  0  0  0  0  0  0  0  0
   21.8168   77.0281   -2.9549 H   0  0  0  0  0  0  0  0  0  0  0  0
   21.5732   76.9319   -4.8298 H   0  0  0  0  0  0  0  0  0  0  0  0
   22.7169   74.6773   -0.7030 H   0  0  0  0  0  0  0  0  0  0  0  0
   22.3555   74.4274   -7.6516 O   0  0  0  0  0  0  0  0  0  0  0  0
   23.4460   74.1601   -6.7893 C   0  0  0  0  0  0  0  0  0  0  0  0
   22.6814   74.5402   -8.5586 H   0  0  0  0  0  0  0  0  0  0  0  0
 25 28  1  0
 25 24  1  0
 25 26  1  6
 25 27  2  0
  1  4  1  0
  1 24  1  0
  1  2  1  1
  1  3  2  0
  6 11  1  0
  6 12  1  0
 29 36  1  0
 29 37  1  0
  9  7  1  1
  7 13  1  0
 10  8  1  1
  8 14  1  0
 37 28  1  6
  4  5  1  0
 33 30  1  1
 30 38  1  0
 34 31  1  6
 31 39  1  0
 35 32  1  1
 32 40  1  0
 41 42  1  0
 41 43  1  0
 15 19  2  0
 16 22  2  0
 12 17  1  6
 17 19  1  0
 17 20  1  0
 18 19  1  0
 18 22  1  0
 18 23  1  0
  9 10  1  0
  9 11  1  0
 10 12  1  0
 11  5  1  6
 33 34  1  0
 33 35  1  0
 34 36  1  0
 35 37  1  0
 36 42  1  6
 20 21  2  0
 21 22  1  0
M  CHG  2   2  -1  26  -1
M  END
>  <COMPND>  (29) 
    8629 

>  <AUTHOR>  (29) 
    GENERATED BY OPEN BABEL 3.1.1

>  <MASTER>  (29) 
        0    0    0    0    0    0    0    0   58    0   58    0

>  <minimizedAffinity>  (29) 
-7.81734

>  <CNNscore>  (29) 
0.5836535692

>  <CNNaffinity>  (29) 
4.4524974823

>  <CNN_VS>  (29) 
2.5987160206

>  <CNNaffinity_variance>  (29) 
0.3016706109

$$$$
30
     RDKit          3D

 43 45  0  0  0  0  0  0  0  0999 V2000
   22.0505   71.1443   -3.1050 P   0  0  2  0  0  0  0  0  0  0  0  0
   22.4708   71.8901   -1.7322 O   0  0  0  0  0  0  0  0  0  0  0  0
   22.6570   71.7206   -4.3506 O   0  0  0  0  0  0  0  0  0  0  0  0
   20.4334   71.1229   -3.0559 O   0  0  0  0  0  0  0  0  0  0  0  0
   19.7470   72.3450   -2.8482 C   0  0  0  0  0  0  0  0  0  0  0  0
   17.7316   72.2744   -4.1547 O   0  0  0  0  0  0  0  0  0  0  0  0
   16.5732   70.6236   -1.9357 O   0  0  0  0  0  0  0  0  0  0  0  0
   17.2064   68.7437   -3.8070 O   0  0  0  0  0  0  0  0  0  0  0  0
   17.9037   70.6370   -2.4503 C   0  0  1  0  0  0  0  0  0  0  0  0
   17.9543   69.9425   -3.7952 C   0  0  2  0  0  0  0  0  0  0  0  0
   18.2490   72.0739   -2.8211 C   0  0  1  0  0  0  0  0  0  0  0  0
   17.3762   71.0014   -4.7186 C   0  0  2  0  0  0  0  0  0  0  0  0
   16.3302   69.7163   -1.6916 H   0  0  0  0  0  0  0  0  0  0  0  0
   17.6140   68.1022   -3.2044 H   0  0  0  0  0  0  0  0  0  0  0  0
   15.9148   70.1116   -6.9660 O   0  0  0  0  0  0  0  0  0  0  0  0
   19.5171   70.7157   -9.7767 O   0  0  0  0  0  0  0  0  0  0  0  0
   17.9073   70.9164   -6.0498 N   0  0  0  0  0  0  0  0  0  0  0  0
   17.7096   70.4133   -8.3637 N   0  0  0  0  0  0  0  0  0  0  0  0
   17.0901   70.4555   -7.1081 C   0  0  0  0  0  0  0  0  0  0  0  0
   19.2247   71.2881   -6.2953 C   0  0  0  0  0  0  0  0  0  0  0  0
   19.8008   71.2408   -7.4982 C   0  0  0  0  0  0  0  0  0  0  0  0
   19.0159   70.7708   -8.6579 C   0  0  0  0  0  0  0  0  0  0  0  0
   17.1596   70.0951   -9.1160 H   0  0  0  0  0  0  0  0  0  0  0  0
   22.4432   69.6031   -2.8163 O   0  0  0  0  0  0  0  0  0  0  0  0
   23.5664   68.9569   -1.8500 P   0  0  2  0  0  0  0  0  0  0  0  0
   24.9543   69.5012   -2.4786 O   0  0  0  0  0  0  0  0  0  0  0  0
   23.4863   67.4629   -1.7266 O   0  0  0  0  0  0  0  0  0  0  0  0
   23.4114   69.7526   -0.4544 O   0  0  0  0  0  0  0  0  0  0  0  0
   23.4490   69.1598    1.8399 O   0  0  0  0  0  0  0  0  0  0  0  0
   20.1430   71.6338    1.8518 O   0  0  0  0  0  0  0  0  0  0  0  0
   22.5947   72.5378    3.0433 O   0  0  0  0  0  0  0  0  0  0  0  0
   20.6079   69.8559   -0.3848 O   0  0  0  0  0  0  0  0  0  0  0  0
   21.4391   71.1931    1.4380 C   0  0  1  0  0  0  0  0  0  0  0  0
   22.3566   71.1856    2.6622 C   0  0  1  0  0  0  0  0  0  0  0  0
   21.3233   69.7905    0.8442 C   0  0  2  0  0  0  0  0  0  0  0  0
   23.6821   70.4752    2.3567 C   0  0  1  0  0  0  0  0  0  0  0  0
   22.6974   69.1549    0.6246 C   0  0  1  0  0  0  0  0  0  0  0  0
   20.2094   72.5241    2.2294 H   0  0  0  0  0  0  0  0  0  0  0  0
   21.7498   72.9751    3.2330 H   0  0  0  0  0  0  0  0  0  0  0  0
   19.7399   70.2598   -0.2324 H   0  0  0  0  0  0  0  0  0  0  0  0
   23.7031   70.3313    4.7417 O   0  0  0  0  0  0  0  0  0  0  0  0
   24.5472   70.3170    3.6052 C   0  0  0  0  0  0  0  0  0  0  0  0
   24.2400   70.2312    5.5438 H   0  0  0  0  0  0  0  0  0  0  0  0
 25 28  1  0
 25 24  1  0
 25 26  1  6
 25 27  2  0
  1  4  1  0
  1 24  1  0
  1  2  1  1
  1  3  2  0
  6 11  1  0
  6 12  1  0
 29 36  1  0
 29 37  1  0
  9  7  1  6
  7 13  1  0
 10  8  1  1
  8 14  1  0
 37 28  1  6
  4  5  1  0
 33 30  1  1
 30 38  1  0
 34 31  1  6
 31 39  1  0
 35 32  1  6
 32 40  1  0
 41 42  1  0
 41 43  1  0
 15 19  2  0
 16 22  2  0
 12 17  1  6
 17 19  1  0
 17 20  1  0
 18 19  1  0
 18 22  1  0
 18 23  1  0
  9 10  1  0
  9 11  1  0
 10 12  1  0
 11  5  1  6
 33 34  1  0
 33 35  1  0
 34 36  1  0
 35 37  1  0
 36 42  1  1
 20 21  2  0
 21 22  1  0
M  CHG  2   2  -1  26  -1
M  END
>  <COMPND>  (30) 
    8629 

>  <AUTHOR>  (30) 
    GENERATED BY OPEN BABEL 3.1.1

>  <MASTER>  (30) 
        0    0    0    0    0    0    0    0   58    0   58    0

>  <minimizedAffinity>  (30) 
-8.74459

>  <CNNscore>  (30) 
0.4855701327

>  <CNNaffinity>  (30) 
4.5500588417

>  <CNN_VS>  (30) 
2.2093727589

>  <CNNaffinity_variance>  (30) 
0.1239511967

$$$$
31
     RDKit          3D

 43 45  0  0  0  0  0  0  0  0999 V2000
   21.6362   69.9773    0.2199 P   0  0  2  0  0  0  0  0  0  0  0  0
   20.0184   69.9812    0.2364 O   0  0  0  0  0  0  0  0  0  0  0  0
   22.2655   68.6203    0.1011 O   0  0  0  0  0  0  0  0  0  0  0  0
   22.0401   70.8263    1.5366 O   0  0  0  0  0  0  0  0  0  0  0  0
   23.2176   70.4667    2.2381 C   0  0  0  0  0  0  0  0  0  0  0  0
   24.3610   70.6853    4.3401 O   0  0  0  0  0  0  0  0  0  0  0  0
   22.2840   72.7300    5.0442 O   0  0  0  0  0  0  0  0  0  0  0  0
   24.4209   74.2712    4.3406 O   0  0  0  0  0  0  0  0  0  0  0  0
   22.8952   72.4621    3.7833 C   0  0  1  0  0  0  0  0  0  0  0  0
   24.3167   72.9843    3.7664 C   0  0  2  0  0  0  0  0  0  0  0  0
   23.1079   70.9573    3.6753 C   0  0  1  0  0  0  0  0  0  0  0  0
   25.0513   71.9245    4.5697 C   0  0  2  0  0  0  0  0  0  0  0  0
   22.1379   73.6851    5.1360 H   0  0  0  0  0  0  0  0  0  0  0  0
   23.9376   74.9097    3.7933 H   0  0  0  0  0  0  0  0  0  0  0  0
   27.1685   73.5631    5.4698 O   0  0  0  0  0  0  0  0  0  0  0  0
   30.2619   71.2730    2.9345 O   0  0  0  0  0  0  0  0  0  0  0  0
   26.4200   71.7785    4.1614 N   0  0  0  0  0  0  0  0  0  0  0  0
   28.7071   72.4214    4.2068 N   0  0  0  0  0  0  0  0  0  0  0  0
   27.4065   72.6542    4.6716 C   0  0  0  0  0  0  0  0  0  0  0  0
   26.7724   70.7755    3.2649 C   0  0  0  0  0  0  0  0  0  0  0  0
   28.0172   70.5675    2.8305 C   0  0  0  0  0  0  0  0  0  0  0  0
   29.1072   71.4387    3.3152 C   0  0  0  0  0  0  0  0  0  0  0  0
   29.4109   73.0195    4.5485 H   0  0  0  0  0  0  0  0  0  0  0  0
   21.9898   70.9909   -0.9886 O   0  0  0  0  0  0  0  0  0  0  0  0
   22.0183   70.7657   -2.5891 P   0  0  2  0  0  0  0  0  0  0  0  0
   22.8983   69.4187   -2.7586 O   0  0  0  0  0  0  0  0  0  0  0  0
   22.5315   71.9426   -3.3671 O   0  0  0  0  0  0  0  0  0  0  0  0
   20.5136   70.3196   -2.9657 O   0  0  0  0  0  0  0  0  0  0  0  0
   19.4250   72.1950   -3.9219 O   0  0  0  0  0  0  0  0  0  0  0  0
   16.2599   69.5434   -3.8839 O   0  0  0  0  0  0  0  0  0  0  0  0
   17.5128   70.2200   -6.3779 O   0  0  0  0  0  0  0  0  0  0  0  0
   18.1306   69.5906   -1.6754 O   0  0  0  0  0  0  0  0  0  0  0  0
   17.6298   69.9353   -4.0060 C   0  0  1  0  0  0  0  0  0  0  0  0
   17.7429   70.9292   -5.1637 C   0  0  1  0  0  0  0  0  0  0  0  0
   18.0830   70.5802   -2.6975 C   0  0  2  0  0  0  0  0  0  0  0  0
   19.1248   71.5963   -5.1881 C   0  0  1  0  0  0  0  0  0  0  0  0
   19.4470   71.2571   -2.8441 C   0  0  1  0  0  0  0  0  0  0  0  0
   15.9660   69.1327   -4.7113 H   0  0  0  0  0  0  0  0  0  0  0  0
   16.6373   69.8032   -6.3494 H   0  0  0  0  0  0  0  0  0  0  0  0
   17.2612   69.1698   -1.5922 H   0  0  0  0  0  0  0  0  0  0  0  0
   19.4729   72.1133   -7.4947 O   0  0  0  0  0  0  0  0  0  0  0  0
   19.2066   72.7041   -6.2360 C   0  0  0  0  0  0  0  0  0  0  0  0
   19.5274   72.8065   -8.1716 H   0  0  0  0  0  0  0  0  0  0  0  0
 25 28  1  0
 25 24  1  0
 25 26  1  1
 25 27  2  0
  1  4  1  0
  1 24  1  0
  1  2  1  1
  1  3  2  0
  6 11  1  0
  6 12  1  0
 29 36  1  0
 29 37  1  0
  9  7  1  1
  7 13  1  0
 10  8  1  1
  8 14  1  0
 37 28  1  6
  4  5  1  0
 33 30  1  1
 30 38  1  0
 34 31  1  6
 31 39  1  0
 35 32  1  1
 32 40  1  0
 41 42  1  0
 41 43  1  0
 15 19  2  0
 16 22  2  0
 12 17  1  6
 17 19  1  0
 17 20  1  0
 18 19  1  0
 18 22  1  0
 18 23  1  0
  9 10  1  0
  9 11  1  0
 10 12  1  0
 11  5  1  6
 33 34  1  0
 33 35  1  0
 34 36  1  0
 35 37  1  0
 36 42  1  6
 20 21  2  0
 21 22  1  0
M  CHG  2   2  -1  26  -1
M  END
>  <COMPND>  (31) 
    8629 

>  <AUTHOR>  (31) 
    GENERATED BY OPEN BABEL 3.1.1

>  <MASTER>  (31) 
        0    0    0    0    0    0    0    0   58    0   58    0

>  <minimizedAffinity>  (31) 
-9.17348

>  <CNNscore>  (31) 
0.4800407290

>  <CNNaffinity>  (31) 
4.8035087585

>  <CNN_VS>  (31) 
2.3058798313

>  <CNNaffinity_variance>  (31) 
0.4464749396

$$$$
32
     RDKit          3D

 43 45  0  0  0  0  0  0  0  0999 V2000
   21.9738   71.1403   -3.1124 P   0  0  2  0  0  0  0  0  0  0  0  0
   22.4331   71.9300   -1.7772 O   0  0  0  0  0  0  0  0  0  0  0  0
   22.5501   71.6707   -4.3923 O   0  0  0  0  0  0  0  0  0  0  0  0
   20.3585   71.1288   -3.0207 O   0  0  0  0  0  0  0  0  0  0  0  0
   19.6790   72.3670   -2.9062 C   0  0  0  0  0  0  0  0  0  0  0  0
   17.6959   72.3081   -4.2617 O   0  0  0  0  0  0  0  0  0  0  0  0
   16.4659   70.6846   -2.0613 O   0  0  0  0  0  0  0  0  0  0  0  0
   17.1255   68.7854   -3.9038 O   0  0  0  0  0  0  0  0  0  0  0  0
   17.8088   70.6808   -2.5429 C   0  0  1  0  0  0  0  0  0  0  0  0
   17.8854   69.9766   -3.8815 C   0  0  2  0  0  0  0  0  0  0  0  0
   18.1781   72.1115   -2.9145 C   0  0  1  0  0  0  0  0  0  0  0  0
   17.3413   71.0350   -4.8258 C   0  0  2  0  0  0  0  0  0  0  0  0
   16.2075   69.7814   -1.8173 H   0  0  0  0  0  0  0  0  0  0  0  0
   17.5114   68.1440   -3.2871 H   0  0  0  0  0  0  0  0  0  0  0  0
   15.9141   70.1887   -7.1116 O   0  0  0  0  0  0  0  0  0  0  0  0
   19.6042   70.6904   -9.8268 O   0  0  0  0  0  0  0  0  0  0  0  0
   17.9043   70.9354   -6.1429 N   0  0  0  0  0  0  0  0  0  0  0  0
   17.7526   70.4394   -8.4618 N   0  0  0  0  0  0  0  0  0  0  0  0
   17.1020   70.4987   -7.2227 C   0  0  0  0  0  0  0  0  0  0  0  0
   19.2378   71.2692   -6.3535 C   0  0  0  0  0  0  0  0  0  0  0  0
   19.8435   71.2059   -7.5411 C   0  0  0  0  0  0  0  0  0  0  0  0
   19.0758   70.7593   -8.7214 C   0  0  0  0  0  0  0  0  0  0  0  0
   17.2135   70.1375   -9.2286 H   0  0  0  0  0  0  0  0  0  0  0  0
   22.3674   69.6077   -2.7817 O   0  0  0  0  0  0  0  0  0  0  0  0
   23.5265   68.9889   -1.8401 P   0  0  2  0  0  0  0  0  0  0  0  0
   24.8844   69.5982   -2.4744 O   0  0  0  0  0  0  0  0  0  0  0  0
   23.5061   67.4908   -1.7432 O   0  0  0  0  0  0  0  0  0  0  0  0
   23.3573   69.7528   -0.4285 O   0  0  0  0  0  0  0  0  0  0  0  0
   23.3385   69.0800    1.8438 O   0  0  0  0  0  0  0  0  0  0  0  0
   20.1245   71.6720    1.8966 O   0  0  0  0  0  0  0  0  0  0  0  0
   22.5891   72.4435    3.1531 O   0  0  0  0  0  0  0  0  0  0  0  0
   20.5587   69.9566   -0.3944 O   0  0  0  0  0  0  0  0  0  0  0  0
   21.4100   71.1985    1.4856 C   0  0  1  0  0  0  0  0  0  0  0  0
   22.3079   71.1150    2.7215 C   0  0  1  0  0  0  0  0  0  0  0  0
   21.2525   69.8225    0.8414 C   0  0  2  0  0  0  0  0  0  0  0  0
   23.6113   70.3673    2.4097 C   0  0  1  0  0  0  0  0  0  0  0  0
   22.6058   69.1448    0.6188 C   0  0  1  0  0  0  0  0  0  0  0  0
   20.2174   72.5456    2.3060 H   0  0  0  0  0  0  0  0  0  0  0  0
   21.7577   72.9048    3.3462 H   0  0  0  0  0  0  0  0  0  0  0  0
   19.7036   70.3866   -0.2400 H   0  0  0  0  0  0  0  0  0  0  0  0
   23.5778   69.9861    4.7682 O   0  0  0  0  0  0  0  0  0  0  0  0
   24.4510   70.1344    3.6638 C   0  0  0  0  0  0  0  0  0  0  0  0
   24.0984   69.8369    5.5735 H   0  0  0  0  0  0  0  0  0  0  0  0
 25 28  1  0
 25 24  1  0
 25 26  1  6
 25 27  2  0
  1  4  1  0
  1 24  1  0
  1  2  1  1
  1  3  2  0
  6 11  1  0
  6 12  1  0
 29 36  1  0
 29 37  1  0
  9  7  1  6
  7 13  1  0
 10  8  1  1
  8 14  1  0
 37 28  1  6
  4  5  1  0
 33 30  1  1
 30 38  1  0
 34 31  1  6
 31 39  1  0
 35 32  1  6
 32 40  1  0
 41 42  1  0
 41 43  1  0
 15 19  2  0
 16 22  2  0
 12 17  1  6
 17 19  1  0
 17 20  1  0
 18 19  1  0
 18 22  1  0
 18 23  1  0
  9 10  1  0
  9 11  1  0
 10 12  1  0
 11  5  1  6
 33 34  1  0
 33 35  1  0
 34 36  1  0
 35 37  1  0
 36 42  1  1
 20 21  2  0
 21 22  1  0
M  CHG  2   2  -1  26  -1
M  END
>  <COMPND>  (32) 
    8629 

>  <AUTHOR>  (32) 
    GENERATED BY OPEN BABEL 3.1.1

>  <MASTER>  (32) 
        0    0    0    0    0    0    0    0   58    0   58    0

>  <minimizedAffinity>  (32) 
-8.82231

>  <CNNscore>  (32) 
0.4587223530

>  <CNNaffinity>  (32) 
4.7463884354

>  <CNN_VS>  (32) 
2.1772744656

>  <CNNaffinity_variance>  (32) 
0.1309700757

$$$$
33
     RDKit          3D

 43 45  0  0  0  0  0  0  0  0999 V2000
   22.4359   71.7115   -2.6548 P   0  0  2  0  0  0  0  0  0  0  0  0
   22.6593   73.2030   -2.0691 O   0  0  0  0  0  0  0  0  0  0  0  0
   23.5747   71.1737   -3.4704 O   0  0  0  0  0  0  0  0  0  0  0  0
   21.0095   71.8017   -3.4132 O   0  0  0  0  0  0  0  0  0  0  0  0
   20.4087   73.0748   -3.5743 C   0  0  0  0  0  0  0  0  0  0  0  0
   19.8819   72.1633   -5.7343 O   0  0  0  0  0  0  0  0  0  0  0  0
   19.5095   74.9996   -6.6329 O   0  0  0  0  0  0  0  0  0  0  0  0
   16.9446   74.1548   -6.2532 O   0  0  0  0  0  0  0  0  0  0  0  0
   19.1980   74.4036   -5.3747 C   0  0  1  0  0  0  0  0  0  0  0  0
   17.9636   73.5345   -5.4959 C   0  0  2  0  0  0  0  0  0  0  0  0
   20.2798   73.3776   -5.0609 C   0  0  1  0  0  0  0  0  0  0  0  0
   18.5185   72.2912   -6.1700 C   0  0  2  0  0  0  0  0  0  0  0  0
   18.8326   75.6588   -6.8547 H   0  0  0  0  0  0  0  0  0  0  0  0
   16.6244   74.9402   -5.7827 H   0  0  0  0  0  0  0  0  0  0  0  0
   16.1868   71.3745   -7.4741 O   0  0  0  0  0  0  0  0  0  0  0  0
   15.8420   67.7217   -4.6849 O   0  0  0  0  0  0  0  0  0  0  0  0
   17.7992   71.1033   -5.8056 N   0  0  0  0  0  0  0  0  0  0  0  0
   16.0171   69.5563   -6.0844 N   0  0  0  0  0  0  0  0  0  0  0  0
   16.6391   70.7317   -6.5244 C   0  0  0  0  0  0  0  0  0  0  0  0
   18.2453   70.3205   -4.7463 C   0  0  0  0  0  0  0  0  0  0  0  0
   17.6401   69.2031   -4.3384 C   0  0  0  0  0  0  0  0  0  0  0  0
   16.4214   68.7449   -5.0361 C   0  0  0  0  0  0  0  0  0  0  0  0
   15.2069   69.2781   -6.5700 H   0  0  0  0  0  0  0  0  0  0  0  0
   22.0901   70.8496   -1.3317 O   0  0  0  0  0  0  0  0  0  0  0  0
   21.0841   71.1494   -0.1024 P   0  0  2  0  0  0  0  0  0  0  0  0
   20.4550   69.6953    0.2252 O   0  0  0  0  0  0  0  0  0  0  0  0
   20.0655   72.2150   -0.3866 O   0  0  0  0  0  0  0  0  0  0  0  0
   22.0521   71.4662    1.1496 O   0  0  0  0  0  0  0  0  0  0  0  0
   24.1848   72.4010    1.5905 O   0  0  0  0  0  0  0  0  0  0  0  0
   24.6253   68.7962    3.5558 O   0  0  0  0  0  0  0  0  0  0  0  0
   24.3250   71.2134    5.0774 O   0  0  0  0  0  0  0  0  0  0  0  0
   23.1937   68.9049    1.0422 O   0  0  0  0  0  0  0  0  0  0  0  0
   23.9171   69.9478    3.0892 C   0  0  1  0  0  0  0  0  0  0  0  0
   24.5855   71.1924    3.6767 C   0  0  1  0  0  0  0  0  0  0  0  0
   23.9676   69.9803    1.5629 C   0  0  2  0  0  0  0  0  0  0  0  0
   24.0540   72.4711    3.0152 C   0  0  1  0  0  0  0  0  0  0  0  0
   23.4622   71.3138    1.0093 C   0  0  1  0  0  0  0  0  0  0  0  0
   24.5967   68.7694    4.5243 H   0  0  0  0  0  0  0  0  0  0  0  0
   24.6651   70.4003    5.4830 H   0  0  0  0  0  0  0  0  0  0  0  0
   23.5237   68.0664    1.3999 H   0  0  0  0  0  0  0  0  0  0  0  0
   26.0275   73.2962    4.0797 O   0  0  0  0  0  0  0  0  0  0  0  0
   24.8179   73.7117    3.4728 C   0  0  0  0  0  0  0  0  0  0  0  0
   26.5244   74.0755    4.3757 H   0  0  0  0  0  0  0  0  0  0  0  0
 25 28  1  0
 25 24  1  0
 25 26  1  1
 25 27  2  0
  1  4  1  0
  1 24  1  0
  1  2  1  1
  1  3  2  0
  6 11  1  0
  6 12  1  0
 29 36  1  0
 29 37  1  0
  9  7  1  6
  7 13  1  0
 10  8  1  6
  8 14  1  0
 37 28  1  1
  4  5  1  0
 33 30  1  1
 30 38  1  0
 34 31  1  1
 31 39  1  0
 35 32  1  6
 32 40  1  0
 41 42  1  0
 41 43  1  0
 15 19  2  0
 16 22  2  0
 12 17  1  1
 17 19  1  0
 17 20  1  0
 18 19  1  0
 18 22  1  0
 18 23  1  0
  9 10  1  0
  9 11  1  0
 10 12  1  0
 11  5  1  1
 33 34  1  0
 33 35  1  0
 34 36  1  0
 35 37  1  0
 36 42  1  1
 20 21  2  0
 21 22  1  0
M  CHG  2   2  -1  26  -1
M  END
>  <COMPND>  (33) 
    8629 

>  <AUTHOR>  (33) 
    GENERATED BY OPEN BABEL 3.1.1

>  <MASTER>  (33) 
        0    0    0    0    0    0    0    0   58    0   58    0

>  <minimizedAffinity>  (33) 
-8.52678

>  <CNNscore>  (33) 
0.4514280260

>  <CNNaffinity>  (33) 
4.2781872749

>  <CNN_VS>  (33) 
1.9312936068

>  <CNNaffinity_variance>  (33) 
0.1163909286

$$$$
34
     RDKit          3D

 43 45  0  0  0  0  0  0  0  0999 V2000
   22.4396   69.6627   -0.1389 P   0  0  2  0  0  0  0  0  0  0  0  0
   21.1228   69.1936    0.6757 O   0  0  0  0  0  0  0  0  0  0  0  0
   22.4837   69.2307   -1.5752 O   0  0  0  0  0  0  0  0  0  0  0  0
   23.6682   69.1575    0.7848 O   0  0  0  0  0  0  0  0  0  0  0  0
   24.4862   70.1294    1.4127 C   0  0  0  0  0  0  0  0  0  0  0  0
   25.5724   70.0599    3.5549 O   0  0  0  0  0  0  0  0  0  0  0  0
   22.9272   70.8673    4.7132 O   0  0  0  0  0  0  0  0  0  0  0  0
   24.3105   73.2174    4.6954 O   0  0  0  0  0  0  0  0  0  0  0  0
   23.5306   71.2604    3.4817 C   0  0  1  0  0  0  0  0  0  0  0  0
   24.6580   72.2387    3.7371 C   0  0  2  0  0  0  0  0  0  0  0  0
   24.2756   70.0564    2.9188 C   0  0  1  0  0  0  0  0  0  0  0  0
   25.7696   71.3205    4.2159 C   0  0  2  0  0  0  0  0  0  0  0  0
   22.4452   71.6199    5.0916 H   0  0  0  0  0  0  0  0  0  0  0  0
   23.5999   73.7762    4.3440 H   0  0  0  0  0  0  0  0  0  0  0  0
   27.1049   73.3592    5.6436 O   0  0  0  0  0  0  0  0  0  0  0  0
   30.7706   73.1624    2.8571 O   0  0  0  0  0  0  0  0  0  0  0  0
   27.0741   71.8212    3.8856 N   0  0  0  0  0  0  0  0  0  0  0  0
   28.9291   73.2594    4.2551 N   0  0  0  0  0  0  0  0  0  0  0  0
   27.6551   72.8476    4.6663 C   0  0  0  0  0  0  0  0  0  0  0  0
   27.7635   71.2952    2.7985 C   0  0  0  0  0  0  0  0  0  0  0  0
   28.9772   71.6998    2.4187 C   0  0  0  0  0  0  0  0  0  0  0  0
   29.6546   72.7684    3.1812 C   0  0  0  0  0  0  0  0  0  0  0  0
   29.3534   73.9737    4.7839 H   0  0  0  0  0  0  0  0  0  0  0  0
   22.4529   71.2638    0.0827 O   0  0  0  0  0  0  0  0  0  0  0  0
   21.3059   72.3779   -0.1546 P   0  0  2  0  0  0  0  0  0  0  0  0
   22.1315   73.7692   -0.1407 O   0  0  0  0  0  0  0  0  0  0  0  0
   20.1764   72.3182    0.8325 O   0  0  0  0  0  0  0  0  0  0  0  0
   20.8602   72.1838   -1.6937 O   0  0  0  0  0  0  0  0  0  0  0  0
   19.3077   73.1473   -3.2030 O   0  0  0  0  0  0  0  0  0  0  0  0
   18.4289   69.1585   -3.8095 O   0  0  0  0  0  0  0  0  0  0  0  0
   19.8365   70.6247   -5.8384 O   0  0  0  0  0  0  0  0  0  0  0  0
   19.0477   70.1122   -1.1473 O   0  0  0  0  0  0  0  0  0  0  0  0
   19.2743   70.2800   -3.5393 C   0  0  1  0  0  0  0  0  0  0  0  0
   19.1910   71.2405   -4.7274 C   0  0  1  0  0  0  0  0  0  0  0  0
   18.8001   70.9657   -2.2594 C   0  0  2  0  0  0  0  0  0  0  0  0
   19.8558   72.5845   -4.4007 C   0  0  1  0  0  0  0  0  0  0  0  0
   19.4877   72.3167   -2.0543 C   0  0  1  0  0  0  0  0  0  0  0  0
   18.7249   68.7184   -4.6207 H   0  0  0  0  0  0  0  0  0  0  0  0
   19.4075   69.7768   -6.0340 H   0  0  0  0  0  0  0  0  0  0  0  0
   18.6069   69.2604   -1.2891 H   0  0  0  0  0  0  0  0  0  0  0  0
   20.6493   73.4209   -6.4935 O   0  0  0  0  0  0  0  0  0  0  0  0
   19.6469   73.6109   -5.5120 C   0  0  0  0  0  0  0  0  0  0  0  0
   20.5287   74.0671   -7.2073 H   0  0  0  0  0  0  0  0  0  0  0  0
 25 28  1  0
 25 24  1  0
 25 26  1  6
 25 27  2  0
  1  4  1  0
  1 24  1  0
  1  2  1  1
  1  3  2  0
  6 11  1  0
  6 12  1  0
 29 36  1  0
 29 37  1  0
  9  7  1  1
  7 13  1  0
 10  8  1  1
  8 14  1  0
 37 28  1  6
  4  5  1  0
 33 30  1  6
 30 38  1  0
 34 31  1  6
 31 39  1  0
 35 32  1  1
 32 40  1  0
 41 42  1  0
 41 43  1  0
 15 19  2  0
 16 22  2  0
 12 17  1  6
 17 19  1  0
 17 20  1  0
 18 19  1  0
 18 22  1  0
 18 23  1  0
  9 10  1  0
  9 11  1  0
 10 12  1  0
 11  5  1  6
 33 34  1  0
 33 35  1  0
 34 36  1  0
 35 37  1  0
 36 42  1  6
 20 21  2  0
 21 22  1  0
M  CHG  2   2  -1  26  -1
M  END
>  <COMPND>  (34) 
    8629 

>  <AUTHOR>  (34) 
    GENERATED BY OPEN BABEL 3.1.1

>  <MASTER>  (34) 
        0    0    0    0    0    0    0    0   58    0   58    0

>  <minimizedAffinity>  (34) 
-8.31991

>  <CNNscore>  (34) 
0.4384328425

>  <CNNaffinity>  (34) 
4.5162649155

>  <CNN_VS>  (34) 
1.9800788164

>  <CNNaffinity_variance>  (34) 
0.0239239968

$$$$
35
     RDKit          3D

 43 45  0  0  0  0  0  0  0  0999 V2000
   20.7445   70.8386   -0.6507 P   0  0  2  0  0  0  0  0  0  0  0  0
   20.2465   69.8029    0.4880 O   0  0  0  0  0  0  0  0  0  0  0  0
   20.8491   72.2677   -0.2054 O   0  0  0  0  0  0  0  0  0  0  0  0
   19.7448   70.5609   -1.8923 O   0  0  0  0  0  0  0  0  0  0  0  0
   19.4910   71.6149   -2.8047 C   0  0  0  0  0  0  0  0  0  0  0  0
   17.7172   72.2164   -4.3099 O   0  0  0  0  0  0  0  0  0  0  0  0
   15.8743   70.8268   -2.3959 O   0  0  0  0  0  0  0  0  0  0  0  0
   16.1881   68.9727   -4.3709 O   0  0  0  0  0  0  0  0  0  0  0  0
   17.2095   70.4895   -2.7686 C   0  0  1  0  0  0  0  0  0  0  0  0
   17.2332   69.9010   -4.1638 C   0  0  2  0  0  0  0  0  0  0  0  0
   17.9859   71.7868   -2.9573 C   0  0  1  0  0  0  0  0  0  0  0  0
   17.0946   71.1406   -5.0311 C   0  0  2  0  0  0  0  0  0  0  0  0
   15.3590   70.0141   -2.2694 H   0  0  0  0  0  0  0  0  0  0  0  0
   16.3212   68.2023   -3.7969 H   0  0  0  0  0  0  0  0  0  0  0  0
   15.8146   70.2405   -7.3825 O   0  0  0  0  0  0  0  0  0  0  0  0
   19.6865   70.6179   -9.8537 O   0  0  0  0  0  0  0  0  0  0  0  0
   17.7442   70.9945   -6.3031 N   0  0  0  0  0  0  0  0  0  0  0  0
   17.7435   70.4293   -8.6111 N   0  0  0  0  0  0  0  0  0  0  0  0
   17.0113   70.5338   -7.4216 C   0  0  0  0  0  0  0  0  0  0  0  0
   19.0932   71.3069   -6.4323 C   0  0  0  0  0  0  0  0  0  0  0  0
   19.7771   71.2006   -7.5734 C   0  0  0  0  0  0  0  0  0  0  0  0
   19.0854   70.7265   -8.7895 C   0  0  0  0  0  0  0  0  0  0  0  0
   17.2537   70.1100   -9.4035 H   0  0  0  0  0  0  0  0  0  0  0  0
   22.1361   70.1864   -1.1517 O   0  0  0  0  0  0  0  0  0  0  0  0
   23.2918   69.3988   -0.3412 P   0  0  2  0  0  0  0  0  0  0  0  0
   24.5814   69.5340   -1.3089 O   0  0  0  0  0  0  0  0  0  0  0  0
   22.9353   67.9864    0.0218 O   0  0  0  0  0  0  0  0  0  0  0  0
   23.6268   70.3493    0.9195 O   0  0  0  0  0  0  0  0  0  0  0  0
   24.8739   69.4484    2.7221 O   0  0  0  0  0  0  0  0  0  0  0  0
   23.1725   72.6809    4.6474 O   0  0  0  0  0  0  0  0  0  0  0  0
   25.9711   72.7259    4.0039 O   0  0  0  0  0  0  0  0  0  0  0  0
   21.6321   71.1793    2.7104 O   0  0  0  0  0  0  0  0  0  0  0  0
   23.7469   71.9765    3.5432 C   0  0  1  0  0  0  0  0  0  0  0  0
   25.1653   71.5531    3.9300 C   0  0  1  0  0  0  0  0  0  0  0  0
   22.8872   70.7534    3.2298 C   0  0  2  0  0  0  0  0  0  0  0  0
   25.7477   70.5682    2.9073 C   0  0  1  0  0  0  0  0  0  0  0  0
   23.5797   69.8149    2.2399 C   0  0  1  0  0  0  0  0  0  0  0  0
   23.7133   73.4591    4.8512 H   0  0  0  0  0  0  0  0  0  0  0  0
   25.5922   73.3396    4.6528 H   0  0  0  0  0  0  0  0  0  0  0  0
   21.2037   71.7725    3.3464 H   0  0  0  0  0  0  0  0  0  0  0  0
   28.0894   70.4552    2.4464 O   0  0  0  0  0  0  0  0  0  0  0  0
   27.0977   70.0114    3.3541 C   0  0  0  0  0  0  0  0  0  0  0  0
   28.9541   70.1088    2.7184 H   0  0  0  0  0  0  0  0  0  0  0  0
 25 28  1  0
 25 24  1  0
 25 26  1  6
 25 27  2  0
  1  4  1  0
  1 24  1  0
  1  2  1  1
  1  3  2  0
  6 11  1  0
  6 12  1  0
 29 36  1  0
 29 37  1  0
  9  7  1  6
  7 13  1  0
 10  8  1  1
  8 14  1  0
 37 28  1  6
  4  5  1  0
 33 30  1  1
 30 38  1  0
 34 31  1  6
 31 39  1  0
 35 32  1  6
 32 40  1  0
 41 42  1  0
 41 43  1  0
 15 19  2  0
 16 22  2  0
 12 17  1  6
 17 19  1  0
 17 20  1  0
 18 19  1  0
 18 22  1  0
 18 23  1  0
  9 10  1  0
  9 11  1  0
 10 12  1  0
 11  5  1  6
 33 34  1  0
 33 35  1  0
 34 36  1  0
 35 37  1  0
 36 42  1  1
 20 21  2  0
 21 22  1  0
M  CHG  2   2  -1  26  -1
M  END
>  <COMPND>  (35) 
    8629 

>  <AUTHOR>  (35) 
    GENERATED BY OPEN BABEL 3.1.1

>  <MASTER>  (35) 
        0    0    0    0    0    0    0    0   58    0   58    0

>  <minimizedAffinity>  (35) 
-9.10800

>  <CNNscore>  (35) 
0.4185473025

>  <CNNaffinity>  (35) 
4.7647576332

>  <CNN_VS>  (35) 
1.9942764044

>  <CNNaffinity_variance>  (35) 
0.2172062397

$$$$
36
     RDKit          3D

 43 45  0  0  0  0  0  0  0  0999 V2000
   19.4193   72.2684    0.1970 P   0  0  2  0  0  0  0  0  0  0  0  0
   19.1198   71.9298    1.7504 O   0  0  0  0  0  0  0  0  0  0  0  0
   18.9826   73.6326   -0.2499 O   0  0  0  0  0  0  0  0  0  0  0  0
   18.7662   71.0239   -0.6046 O   0  0  0  0  0  0  0  0  0  0  0  0
   18.3872   71.2146   -1.9566 C   0  0  0  0  0  0  0  0  0  0  0  0
   18.5316   70.0778   -4.0686 O   0  0  0  0  0  0  0  0  0  0  0  0
   21.4898   69.9630   -3.5925 O   0  0  0  0  0  0  0  0  0  0  0  0
   21.2497   72.0401   -5.3430 O   0  0  0  0  0  0  0  0  0  0  0  0
   20.5616   70.9938   -3.2590 C   0  0  1  0  0  0  0  0  0  0  0  0
   20.1502   71.7535   -4.5029 C   0  0  2  0  0  0  0  0  0  0  0  0
   19.2539   70.3315   -2.8438 C   0  0  1  0  0  0  0  0  0  0  0  0
   19.1590   70.7967   -5.1431 C   0  0  2  0  0  0  0  0  0  0  0  0
   22.3330   70.3617   -3.8606 H   0  0  0  0  0  0  0  0  0  0  0  0
   21.8511   72.6524   -4.8912 H   0  0  0  0  0  0  0  0  0  0  0  0
   19.3260   71.3314   -7.9115 O   0  0  0  0  0  0  0  0  0  0  0  0
   15.2217   73.4280   -7.9401 O   0  0  0  0  0  0  0  0  0  0  0  0
   18.1482   71.4803   -5.8996 N   0  0  0  0  0  0  0  0  0  0  0  0
   17.2822   72.3747   -7.9235 N   0  0  0  0  0  0  0  0  0  0  0  0
   18.3300   71.6991   -7.2851 C   0  0  0  0  0  0  0  0  0  0  0  0
   16.9922   71.9256   -5.2678 C   0  0  0  0  0  0  0  0  0  0  0  0
   16.0029   72.5695   -5.8907 C   0  0  0  0  0  0  0  0  0  0  0  0
   16.1142   72.8382   -7.3389 C   0  0  0  0  0  0  0  0  0  0  0  0
   17.3870   72.5387   -8.8889 H   0  0  0  0  0  0  0  0  0  0  0  0
   21.0066   71.9931    0.0645 O   0  0  0  0  0  0  0  0  0  0  0  0
   21.9001   70.7118    0.4802 P   0  0  2  0  0  0  0  0  0  0  0  0
   22.7844   70.4303   -0.8451 O   0  0  0  0  0  0  0  0  0  0  0  0
   21.1014   69.5321    0.9538 O   0  0  0  0  0  0  0  0  0  0  0  0
   22.9549   71.2824    1.5604 O   0  0  0  0  0  0  0  0  0  0  0  0
   24.9969   70.1702    2.0186 O   0  0  0  0  0  0  0  0  0  0  0  0
   24.5593   72.2347    5.5678 O   0  0  0  0  0  0  0  0  0  0  0  0
   26.5575   73.0671    3.6804 O   0  0  0  0  0  0  0  0  0  0  0  0
   22.2399   71.0909    4.2673 O   0  0  0  0  0  0  0  0  0  0  0  0
   24.4534   72.0337    4.1558 C   0  0  1  0  0  0  0  0  0  0  0  0
   25.8614   71.8268    3.5940 C   0  0  1  0  0  0  0  0  0  0  0  0
   23.5829   70.8070    3.8901 C   0  0  2  0  0  0  0  0  0  0  0  0
   25.8114   71.3423    2.1387 C   0  0  1  0  0  0  0  0  0  0  0  0
   23.6423   70.3794    2.4226 C   0  0  1  0  0  0  0  0  0  0  0  0
   25.1104   73.0125    5.7434 H   0  0  0  0  0  0  0  0  0  0  0  0
   26.5815   73.3621    4.6043 H   0  0  0  0  0  0  0  0  0  0  0  0
   22.2156   71.3601    5.1983 H   0  0  0  0  0  0  0  0  0  0  0  0
   27.9112   72.1758    1.3608 O   0  0  0  0  0  0  0  0  0  0  0  0
   27.1969   70.9790    1.6090 C   0  0  0  0  0  0  0  0  0  0  0  0
   28.7952   71.9600    1.0235 H   0  0  0  0  0  0  0  0  0  0  0  0
 25 28  1  0
 25 24  1  0
 25 26  1  6
 25 27  2  0
  1  4  1  0
  1 24  1  0
  1  2  1  1
  1  3  2  0
  6 11  1  0
  6 12  1  0
 29 36  1  0
 29 37  1  0
  9  7  1  6
  7 13  1  0
 10  8  1  6
  8 14  1  0
 37 28  1  6
  4  5  1  0
 33 30  1  1
 30 38  1  0
 34 31  1  6
 31 39  1  0
 35 32  1  6
 32 40  1  0
 41 42  1  0
 41 43  1  0
 15 19  2  0
 16 22  2  0
 12 17  1  1
 17 19  1  0
 17 20  1  0
 18 19  1  0
 18 22  1  0
 18 23  1  0
  9 10  1  0
  9 11  1  0
 10 12  1  0
 11  5  1  1
 33 34  1  0
 33 35  1  0
 34 36  1  0
 35 37  1  0
 36 42  1  1
 20 21  2  0
 21 22  1  0
M  CHG  2   2  -1  26  -1
M  END
>  <COMPND>  (36) 
    8629 

>  <AUTHOR>  (36) 
    GENERATED BY OPEN BABEL 3.1.1

>  <MASTER>  (36) 
        0    0    0    0    0    0    0    0   58    0   58    0

>  <minimizedAffinity>  (36) 
-8.00840

>  <CNNscore>  (36) 
0.3968610168

>  <CNNaffinity>  (36) 
4.6195173264

>  <CNN_VS>  (36) 
1.8333063126

>  <CNNaffinity_variance>  (36) 
0.3574183583

$$$$
37
     RDKit          3D

 43 45  0  0  0  0  0  0  0  0999 V2000
   22.7317   73.2421   -3.4693 P   0  0  2  0  0  0  0  0  0  0  0  0
   23.4241   71.8234   -3.8230 O   0  0  0  0  0  0  0  0  0  0  0  0
   23.6380   74.4334   -3.5744 O   0  0  0  0  0  0  0  0  0  0  0  0
   22.0606   72.9957   -2.0179 O   0  0  0  0  0  0  0  0  0  0  0  0
   22.8359   72.3661   -1.0126 C   0  0  0  0  0  0  0  0  0  0  0  0
   21.9367   70.1378   -1.0204 O   0  0  0  0  0  0  0  0  0  0  0  0
   21.4173   70.5383    1.9054 O   0  0  0  0  0  0  0  0  0  0  0  0
   23.6932   69.0360    1.9060 O   0  0  0  0  0  0  0  0  0  0  0  0
   22.5068   71.0036    1.1106 C   0  0  1  0  0  0  0  0  0  0  0  0
   23.4461   69.8609    0.7856 C   0  0  2  0  0  0  0  0  0  0  0  0
   21.9621   71.3685   -0.2647 C   0  0  1  0  0  0  0  0  0  0  0  0
   22.6928   69.1379   -0.3180 C   0  0  2  0  0  0  0  0  0  0  0  0
   21.7405   70.2995    2.7888 H   0  0  0  0  0  0  0  0  0  0  0  0
   24.1743   69.5412    2.5799 H   0  0  0  0  0  0  0  0  0  0  0  0
   23.0021   66.3375   -0.5178 O   0  0  0  0  0  0  0  0  0  0  0  0
   26.1006   66.7375   -3.9061 O   0  0  0  0  0  0  0  0  0  0  0  0
   23.5733   68.4831   -1.2439 N   0  0  0  0  0  0  0  0  0  0  0  0
   24.5445   66.5390   -2.2049 N   0  0  0  0  0  0  0  0  0  0  0  0
   23.6552   67.0712   -1.2627 C   0  0  0  0  0  0  0  0  0  0  0  0
   24.3436   69.2393   -2.1207 C   0  0  0  0  0  0  0  0  0  0  0  0
   25.1878   68.7164   -3.0124 C   0  0  0  0  0  0  0  0  0  0  0  0
   25.3326   67.2488   -3.0969 C   0  0  0  0  0  0  0  0  0  0  0  0
   24.6184   65.5575   -2.2359 H   0  0  0  0  0  0  0  0  0  0  0  0
   21.4539   73.2797   -4.4587 O   0  0  0  0  0  0  0  0  0  0  0  0
   21.3278   73.7013   -6.0141 P   0  0  2  0  0  0  0  0  0  0  0  0
   22.6032   72.9790   -6.6990 O   0  0  0  0  0  0  0  0  0  0  0  0
   21.2566   75.1829   -6.2462 O   0  0  0  0  0  0  0  0  0  0  0  0
   20.0515   72.8770   -6.5586 O   0  0  0  0  0  0  0  0  0  0  0  0
   18.9969   70.9672   -5.6327 O   0  0  0  0  0  0  0  0  0  0  0  0
   18.5075   70.1122   -9.6427 O   0  0  0  0  0  0  0  0  0  0  0  0
   16.2395   70.9237   -8.0789 O   0  0  0  0  0  0  0  0  0  0  0  0
   20.9639   71.3310   -8.7156 O   0  0  0  0  0  0  0  0  0  0  0  0
   18.5952   70.9566   -8.4918 C   0  0  1  0  0  0  0  0  0  0  0  0
   17.4923   70.5490   -7.5129 C   0  0  1  0  0  0  0  0  0  0  0  0
   19.9718   70.7868   -7.8519 C   0  0  2  0  0  0  0  0  0  0  0  0
   17.6855   71.2243   -6.1484 C   0  0  1  0  0  0  0  0  0  0  0  0
   20.0417   71.4541   -6.4771 C   0  0  1  0  0  0  0  0  0  0  0  0
   17.6359   70.2155  -10.0541 H   0  0  0  0  0  0  0  0  0  0  0  0
   16.1301   70.4910   -8.9403 H   0  0  0  0  0  0  0  0  0  0  0  0
   20.9095   70.9002   -9.5823 H   0  0  0  0  0  0  0  0  0  0  0  0
   16.0888   69.5305   -5.6091 O   0  0  0  0  0  0  0  0  0  0  0  0
   16.6896   70.7115   -5.1104 C   0  0  0  0  0  0  0  0  0  0  0  0
   15.4527   69.1926   -4.9587 H   0  0  0  0  0  0  0  0  0  0  0  0
 25 28  1  0
 25 24  1  0
 25 26  1  6
 25 27  2  0
  1  4  1  0
  1 24  1  0
  1  2  1  6
  1  3  2  0
  6 11  1  0
  6 12  1  0
 29 36  1  0
 29 37  1  0
  9  7  1  1
  7 13  1  0
 10  8  1  1
  8 14  1  0
 37 28  1  6
  4  5  1  0
 33 30  1  6
 30 38  1  0
 34 31  1  6
 31 39  1  0
 35 32  1  6
 32 40  1  0
 41 42  1  0
 41 43  1  0
 15 19  2  0
 16 22  2  0
 12 17  1  6
 17 19  1  0
 17 20  1  0
 18 19  1  0
 18 22  1  0
 18 23  1  0
  9 10  1  0
  9 11  1  0
 10 12  1  0
 11  5  1  6
 33 34  1  0
 33 35  1  0
 34 36  1  0
 35 37  1  0
 36 42  1  1
 20 21  2  0
 21 22  1  0
M  CHG  2   2  -1  26  -1
M  END
>  <COMPND>  (37) 
    8629 

>  <AUTHOR>  (37) 
    GENERATED BY OPEN BABEL 3.1.1

>  <MASTER>  (37) 
        0    0    0    0    0    0    0    0   58    0   58    0

>  <minimizedAffinity>  (37) 
-9.17614

>  <CNNscore>  (37) 
0.3665800095

>  <CNNaffinity>  (37) 
4.3807711601

>  <CNN_VS>  (37) 
1.6059031487

>  <CNNaffinity_variance>  (37) 
0.4687358737

$$$$
38
     RDKit          3D

 43 45  0  0  0  0  0  0  0  0999 V2000
   20.5551   71.0894   -0.9861 P   0  0  2  0  0  0  0  0  0  0  0  0
   21.5958   70.1068   -1.7402 O   0  0  0  0  0  0  0  0  0  0  0  0
   20.5051   72.4904   -1.5209 O   0  0  0  0  0  0  0  0  0  0  0  0
   20.9496   70.9475    0.5767 O   0  0  0  0  0  0  0  0  0  0  0  0
   21.8970   69.9613    0.9480 C   0  0  0  0  0  0  0  0  0  0  0  0
   22.8789   72.0143    1.7194 O   0  0  0  0  0  0  0  0  0  0  0  0
   25.2156   70.3503    2.5924 O   0  0  0  0  0  0  0  0  0  0  0  0
   23.8663   70.7518    4.9279 O   0  0  0  0  0  0  0  0  0  0  0  0
   23.8252   70.0309    2.6063 C   0  0  1  0  0  0  0  0  0  0  0  0
   23.1259   70.7752    3.7246 C   0  0  2  0  0  0  0  0  0  0  0  0
   23.1895   70.6484    1.3670 C   0  0  1  0  0  0  0  0  0  0  0  0
   23.0003   72.1729    3.1424 C   0  0  2  0  0  0  0  0  0  0  0  0
   25.6432   69.9662    3.3744 H   0  0  0  0  0  0  0  0  0  0  0  0
   23.9179   69.8414    5.2583 H   0  0  0  0  0  0  0  0  0  0  0  0
   22.8909   73.5360    5.6139 O   0  0  0  0  0  0  0  0  0  0  0  0
   18.5147   74.8081    4.9269 O   0  0  0  0  0  0  0  0  0  0  0  0
   21.8451   72.8693    3.6343 N   0  0  0  0  0  0  0  0  0  0  0  0
   20.7121   74.1684    5.2697 N   0  0  0  0  0  0  0  0  0  0  0  0
   21.8941   73.5207    4.8887 C   0  0  0  0  0  0  0  0  0  0  0  0
   20.6803   72.9018    2.8753 C   0  0  0  0  0  0  0  0  0  0  0  0
   19.5611   73.5228    3.2534 C   0  0  0  0  0  0  0  0  0  0  0  0
   19.5286   74.2279    4.5510 C   0  0  0  0  0  0  0  0  0  0  0  0
   20.7226   74.6288    6.1402 H   0  0  0  0  0  0  0  0  0  0  0  0
   19.1579   70.2822   -1.0828 O   0  0  0  0  0  0  0  0  0  0  0  0
   18.0482   70.2177   -2.2564 P   0  0  2  0  0  0  0  0  0  0  0  0
   16.8433   71.1296   -1.6782 O   0  0  0  0  0  0  0  0  0  0  0  0
   17.6408   68.8252   -2.6422 O   0  0  0  0  0  0  0  0  0  0  0  0
   18.6767   71.0887   -3.4611 O   0  0  0  0  0  0  0  0  0  0  0  0
   18.1823   70.1820   -5.5942 O   0  0  0  0  0  0  0  0  0  0  0  0
   21.0039   72.9842   -6.7062 O   0  0  0  0  0  0  0  0  0  0  0  0
   18.2367   73.4338   -7.3295 O   0  0  0  0  0  0  0  0  0  0  0  0
   21.3399   71.4941   -4.2474 O   0  0  0  0  0  0  0  0  0  0  0  0
   19.9191   72.4633   -5.9335 C   0  0  1  0  0  0  0  0  0  0  0  0
   18.7487   72.1830   -6.8782 C   0  0  1  0  0  0  0  0  0  0  0  0
   20.3709   71.1787   -5.2414 C   0  0  2  0  0  0  0  0  0  0  0  0
   17.6483   71.3783   -6.1733 C   0  0  1  0  0  0  0  0  0  0  0  0
   19.1929   70.4303   -4.6149 C   0  0  1  0  0  0  0  0  0  0  0  0
   20.7238   73.8003   -7.1480 H   0  0  0  0  0  0  0  0  0  0  0  0
   18.9416   73.9322   -7.7723 H   0  0  0  0  0  0  0  0  0  0  0  0
   22.0805   71.9673   -4.6566 H   0  0  0  0  0  0  0  0  0  0  0  0
   15.9134   72.1157   -7.6414 O   0  0  0  0  0  0  0  0  0  0  0  0
   16.5440   70.9523   -7.1383 C   0  0  0  0  0  0  0  0  0  0  0  0
   15.2085   71.8600   -8.2574 H   0  0  0  0  0  0  0  0  0  0  0  0
 25 28  1  0
 25 24  1  0
 25 26  1  1
 25 27  2  0
  1  4  1  0
  1 24  1  0
  1  2  1  6
  1  3  2  0
  6 11  1  0
  6 12  1  0
 29 36  1  0
 29 37  1  0
  9  7  1  6
  7 13  1  0
 10  8  1  1
  8 14  1  0
 37 28  1  1
  4  5  1  0
 33 30  1  6
 30 38  1  0
 34 31  1  1
 31 39  1  0
 35 32  1  1
 32 40  1  0
 41 42  1  0
 41 43  1  0
 15 19  2  0
 16 22  2  0
 12 17  1  1
 17 19  1  0
 17 20  1  0
 18 19  1  0
 18 22  1  0
 18 23  1  0
  9 10  1  0
  9 11  1  0
 10 12  1  0
 11  5  1  1
 33 34  1  0
 33 35  1  0
 34 36  1  0
 35 37  1  0
 36 42  1  6
 20 21  2  0
 21 22  1  0
M  CHG  2   2  -1  26  -1
M  END
>  <COMPND>  (38) 
    8629 

>  <AUTHOR>  (38) 
    GENERATED BY OPEN BABEL 3.1.1

>  <MASTER>  (38) 
        0    0    0    0    0    0    0    0   58    0   58    0

>  <minimizedAffinity>  (38) 
-7.50532

>  <CNNscore>  (38) 
0.3620789647

>  <CNNaffinity>  (38) 
4.1902513504

>  <CNN_VS>  (38) 
1.5172019005

>  <CNNaffinity_variance>  (38) 
0.0764166862

$$$$
39
     RDKit          3D

 43 45  0  0  0  0  0  0  0  0999 V2000
   22.4859   71.2135   -3.2653 P   0  0  2  0  0  0  0  0  0  0  0  0
   21.2109   70.2184   -3.2268 O   0  0  0  0  0  0  0  0  0  0  0  0
   23.8144   70.5354   -3.4289 O   0  0  0  0  0  0  0  0  0  0  0  0
   22.3161   72.1139   -1.9317 O   0  0  0  0  0  0  0  0  0  0  0  0
   23.1393   71.8288   -0.8141 C   0  0  0  0  0  0  0  0  0  0  0  0
   23.2852   70.5025    1.1842 O   0  0  0  0  0  0  0  0  0  0  0  0
   20.4916   69.6045    0.5680 O   0  0  0  0  0  0  0  0  0  0  0  0
   20.0977   71.4893    2.4990 O   0  0  0  0  0  0  0  0  0  0  0  0
   21.0938   70.8819    0.3659 C   0  0  1  0  0  0  0  0  0  0  0  0
   21.2487   71.6051    1.6874 C   0  0  2  0  0  0  0  0  0  0  0  0
   22.5435   70.6573   -0.0456 C   0  0  1  0  0  0  0  0  0  0  0  0
   22.4592   70.9101    2.2871 C   0  0  2  0  0  0  0  0  0  0  0  0
   19.5648   69.7221    0.8312 H   0  0  0  0  0  0  0  0  0  0  0  0
   19.3554   71.9473    2.0748 H   0  0  0  0  0  0  0  0  0  0  0  0
   23.4592   70.1693    4.8227 O   0  0  0  0  0  0  0  0  0  0  0  0
   25.3608   74.3146    5.4870 O   0  0  0  0  0  0  0  0  0  0  0  0
   23.2193   71.7759    3.1439 N   0  0  0  0  0  0  0  0  0  0  0  0
   24.4054   72.2339    5.1513 N   0  0  0  0  0  0  0  0  0  0  0  0
   23.6739   71.3066    4.3983 C   0  0  0  0  0  0  0  0  0  0  0  0
   23.5070   73.0744    2.7377 C   0  0  0  0  0  0  0  0  0  0  0  0
   24.2046   73.9467    3.4682 C   0  0  0  0  0  0  0  0  0  0  0  0
   24.7162   73.5357    4.7916 C   0  0  0  0  0  0  0  0  0  0  0  0
   24.7320   71.9292    6.0290 H   0  0  0  0  0  0  0  0  0  0  0  0
   22.1064   72.2448   -4.4507 O   0  0  0  0  0  0  0  0  0  0  0  0
   20.7908   73.1541   -4.6861 P   0  0  2  0  0  0  0  0  0  0  0  0
   21.4036   74.5956   -5.0910 O   0  0  0  0  0  0  0  0  0  0  0  0
   19.8490   73.1878   -3.5174 O   0  0  0  0  0  0  0  0  0  0  0  0
   20.1423   72.5886   -6.0516 O   0  0  0  0  0  0  0  0  0  0  0  0
   18.9670   70.5929   -5.5491 O   0  0  0  0  0  0  0  0  0  0  0  0
   18.5263   70.6023   -9.6548 O   0  0  0  0  0  0  0  0  0  0  0  0
   16.2687   71.2049   -7.9850 O   0  0  0  0  0  0  0  0  0  0  0  0
   21.0216   71.4658   -8.4685 O   0  0  0  0  0  0  0  0  0  0  0  0
   18.6318   71.1881   -8.3544 C   0  0  1  0  0  0  0  0  0  0  0  0
   17.4865   70.6525   -7.4928 C   0  0  1  0  0  0  0  0  0  0  0  0
   19.9823   70.8139   -7.7464 C   0  0  2  0  0  0  0  0  0  0  0  0
   17.6834   71.0234   -6.0168 C   0  0  1  0  0  0  0  0  0  0  0  0
   20.0555   71.1819   -6.2634 C   0  0  1  0  0  0  0  0  0  0  0  0
   17.6712   70.8365  -10.0466 H   0  0  0  0  0  0  0  0  0  0  0  0
   16.1567   70.9638   -8.9180 H   0  0  0  0  0  0  0  0  0  0  0  0
   20.9645   71.2245   -9.4057 H   0  0  0  0  0  0  0  0  0  0  0  0
   15.9216   69.4149   -5.8826 O   0  0  0  0  0  0  0  0  0  0  0  0
   16.6380   70.3669   -5.1178 C   0  0  0  0  0  0  0  0  0  0  0  0
   15.2529   68.9888   -5.3232 H   0  0  0  0  0  0  0  0  0  0  0  0
 25 28  1  0
 25 24  1  0
 25 26  1  6
 25 27  2  0
  1  4  1  0
  1 24  1  0
  1  2  1  1
  1  3  2  0
  6 11  1  0
  6 12  1  0
 29 36  1  0
 29 37  1  0
  9  7  1  1
  7 13  1  0
 10  8  1  1
  8 14  1  0
 37 28  1  6
  4  5  1  0
 33 30  1  6
 30 38  1  0
 34 31  1  6
 31 39  1  0
 35 32  1  6
 32 40  1  0
 41 42  1  0
 41 43  1  0
 15 19  2  0
 16 22  2  0
 12 17  1  1
 17 19  1  0
 17 20  1  0
 18 19  1  0
 18 22  1  0
 18 23  1  0
  9 10  1  0
  9 11  1  0
 10 12  1  0
 11  5  1  1
 33 34  1  0
 33 35  1  0
 34 36  1  0
 35 37  1  0
 36 42  1  1
 20 21  2  0
 21 22  1  0
M  CHG  2   2  -1  26  -1
M  END
>  <COMPND>  (39) 
    8629 

>  <AUTHOR>  (39) 
    GENERATED BY OPEN BABEL 3.1.1

>  <MASTER>  (39) 
        0    0    0    0    0    0    0    0   58    0   58    0

>  <minimizedAffinity>  (39) 
-9.05730

>  <CNNscore>  (39) 
0.3575322628

>  <CNNaffinity>  (39) 
3.9772262573

>  <CNN_VS>  (39) 
1.4219866991

>  <CNNaffinity_variance>  (39) 
0.1717371792

$$$$
40
     RDKit          3D

 43 45  0  0  0  0  0  0  0  0999 V2000
   21.8855   69.8131    0.2556 P   0  0  2  0  0  0  0  0  0  0  0  0
   20.2697   69.7713    0.3260 O   0  0  0  0  0  0  0  0  0  0  0  0
   22.5497   68.4727    0.1393 O   0  0  0  0  0  0  0  0  0  0  0  0
   22.3076   70.6971    1.5433 O   0  0  0  0  0  0  0  0  0  0  0  0
   23.3123   70.1957    2.4077 C   0  0  0  0  0  0  0  0  0  0  0  0
   24.4085   70.7126    4.4824 O   0  0  0  0  0  0  0  0  0  0  0  0
   22.2166   72.7098    4.9271 O   0  0  0  0  0  0  0  0  0  0  0  0
   24.2813   74.2735    4.0736 O   0  0  0  0  0  0  0  0  0  0  0  0
   22.8613   72.3335    3.7113 C   0  0  1  0  0  0  0  0  0  0  0  0
   24.2537   72.9259    3.6493 C   0  0  2  0  0  0  0  0  0  0  0  0
   23.1539   70.8397    3.7782 C   0  0  1  0  0  0  0  0  0  0  0  0
   25.0294   72.0052    4.5759 C   0  0  2  0  0  0  0  0  0  0  0  0
   22.0194   73.6599    4.9076 H   0  0  0  0  0  0  0  0  0  0  0  0
   23.7744   74.8188    3.4520 H   0  0  0  0  0  0  0  0  0  0  0  0
   27.0637   73.7837    5.3983 O   0  0  0  0  0  0  0  0  0  0  0  0
   30.2917   71.4559    3.0739 O   0  0  0  0  0  0  0  0  0  0  0  0
   26.4103   71.8874    4.2008 N   0  0  0  0  0  0  0  0  0  0  0  0
   28.6694   72.6231    4.2404 N   0  0  0  0  0  0  0  0  0  0  0  0
   27.3520   72.8340    4.6671 C   0  0  0  0  0  0  0  0  0  0  0  0
   26.8186   70.8419    3.3797 C   0  0  0  0  0  0  0  0  0  0  0  0
   28.0785   70.6556    2.9808 C   0  0  0  0  0  0  0  0  0  0  0  0
   29.1243   71.6001    3.4236 C   0  0  0  0  0  0  0  0  0  0  0  0
   29.3427   73.2704    4.5526 H   0  0  0  0  0  0  0  0  0  0  0  0
   22.1696   70.8142   -0.9813 O   0  0  0  0  0  0  0  0  0  0  0  0
   22.1975   70.5503   -2.5758 P   0  0  2  0  0  0  0  0  0  0  0  0
   22.9595   69.1289   -2.7034 O   0  0  0  0  0  0  0  0  0  0  0  0
   22.8198   71.6603   -3.3725 O   0  0  0  0  0  0  0  0  0  0  0  0
   20.6644   70.2271   -2.9633 O   0  0  0  0  0  0  0  0  0  0  0  0
   19.6688   72.1781   -3.8683 O   0  0  0  0  0  0  0  0  0  0  0  0
   16.3393   69.7393   -3.7351 O   0  0  0  0  0  0  0  0  0  0  0  0
   17.5462   70.3541   -6.2676 O   0  0  0  0  0  0  0  0  0  0  0  0
   18.2851   69.6445   -1.5940 O   0  0  0  0  0  0  0  0  0  0  0  0
   17.7270   70.0417   -3.9032 C   0  0  1  0  0  0  0  0  0  0  0  0
   17.8647   71.0361   -5.0577 C   0  0  1  0  0  0  0  0  0  0  0  0
   18.2670   70.6441   -2.6075 C   0  0  2  0  0  0  0  0  0  0  0  0
   19.2858   71.6114   -5.1268 C   0  0  1  0  0  0  0  0  0  0  0  0
   19.6666   71.2314   -2.7980 C   0  0  1  0  0  0  0  0  0  0  0  0
   15.9903   69.3560   -4.5542 H   0  0  0  0  0  0  0  0  0  0  0  0
   16.6466   69.9953   -6.2107 H   0  0  0  0  0  0  0  0  0  0  0  0
   17.3933   69.2809   -1.4828 H   0  0  0  0  0  0  0  0  0  0  0  0
   19.6214   72.1256   -7.4359 O   0  0  0  0  0  0  0  0  0  0  0  0
   19.4037   72.7206   -6.1698 C   0  0  0  0  0  0  0  0  0  0  0  0
   19.6981   72.8197   -8.1097 H   0  0  0  0  0  0  0  0  0  0  0  0
 25 28  1  0
 25 24  1  0
 25 26  1  1
 25 27  2  0
  1  4  1  0
  1 24  1  0
  1  2  1  1
  1  3  2  0
  6 11  1  0
  6 12  1  0
 29 36  1  0
 29 37  1  0
  9  7  1  1
  7 13  1  0
 10  8  1  1
  8 14  1  0
 37 28  1  6
  4  5  1  0
 33 30  1  1
 30 38  1  0
 34 31  1  6
 31 39  1  0
 35 32  1  1
 32 40  1  0
 41 42  1  0
 41 43  1  0
 15 19  2  0
 16 22  2  0
 12 17  1  6
 17 19  1  0
 17 20  1  0
 18 19  1  0
 18 22  1  0
 18 23  1  0
  9 10  1  0
  9 11  1  0
 10 12  1  0
 11  5  1  6
 33 34  1  0
 33 35  1  0
 34 36  1  0
 35 37  1  0
 36 42  1  6
 20 21  2  0
 21 22  1  0
M  CHG  2   2  -1  26  -1
M  END
>  <COMPND>  (40) 
    8629 

>  <AUTHOR>  (40) 
    GENERATED BY OPEN BABEL 3.1.1

>  <MASTER>  (40) 
        0    0    0    0    0    0    0    0   58    0   58    0

>  <minimizedAffinity>  (40) 
-9.06506

>  <CNNscore>  (40) 
0.3540799320

>  <CNNaffinity>  (40) 
4.6216526031

>  <CNN_VS>  (40) 
1.6364344358

>  <CNNaffinity_variance>  (40) 
0.0252067782

$$$$
41
     RDKit          3D

 43 45  0  0  0  0  0  0  0  0999 V2000
   22.3897   72.7715   -3.6239 P   0  0  2  0  0  0  0  0  0  0  0  0
   21.9675   74.2333   -4.1736 O   0  0  0  0  0  0  0  0  0  0  0  0
   23.6904   72.2457   -4.1561 O   0  0  0  0  0  0  0  0  0  0  0  0
   21.0888   71.8554   -3.9175 O   0  0  0  0  0  0  0  0  0  0  0  0
   20.5947   71.0296   -2.8775 C   0  0  0  0  0  0  0  0  0  0  0  0
   18.6014   71.8431   -3.9447 O   0  0  0  0  0  0  0  0  0  0  0  0
   17.0860   70.3652   -1.8211 O   0  0  0  0  0  0  0  0  0  0  0  0
   16.8957   68.6882   -3.9631 O   0  0  0  0  0  0  0  0  0  0  0  0
   18.2999   70.0058   -2.4787 C   0  0  1  0  0  0  0  0  0  0  0  0
   18.0155   69.5472   -3.8937 C   0  0  2  0  0  0  0  0  0  0  0  0
   19.1020   71.2800   -2.7123 C   0  0  1  0  0  0  0  0  0  0  0  0
   17.7861   70.8661   -4.6122 C   0  0  2  0  0  0  0  0  0  0  0  0
   16.5569   69.5675   -1.6608 H   0  0  0  0  0  0  0  0  0  0  0  0
   17.0911   67.8633   -3.4917 H   0  0  0  0  0  0  0  0  0  0  0  0
   16.0791   70.0300   -6.7015 O   0  0  0  0  0  0  0  0  0  0  0  0
   19.3488   70.6868   -9.8824 O   0  0  0  0  0  0  0  0  0  0  0  0
   18.1652   70.8092   -5.9958 N   0  0  0  0  0  0  0  0  0  0  0  0
   17.7085   70.3579   -8.2837 N   0  0  0  0  0  0  0  0  0  0  0  0
   17.2329   70.3739   -6.9663 C   0  0  0  0  0  0  0  0  0  0  0  0
   19.4489   71.1827   -6.3785 C   0  0  0  0  0  0  0  0  0  0  0  0
   19.8873   71.1605   -7.6389 C   0  0  0  0  0  0  0  0  0  0  0  0
   18.9756   70.7184   -8.7138 C   0  0  0  0  0  0  0  0  0  0  0  0
   17.0765   70.0578   -8.9768 H   0  0  0  0  0  0  0  0  0  0  0  0
   22.3466   72.9602   -2.0191 O   0  0  0  0  0  0  0  0  0  0  0  0
   22.9492   74.1218   -1.0702 P   0  0  2  0  0  0  0  0  0  0  0  0
   21.6458   74.9995   -0.6848 O   0  0  0  0  0  0  0  0  0  0  0  0
   24.0639   74.9100   -1.6948 O   0  0  0  0  0  0  0  0  0  0  0  0
   23.3501   73.3649    0.2978 O   0  0  0  0  0  0  0  0  0  0  0  0
   21.8971   71.5380    0.7074 O   0  0  0  0  0  0  0  0  0  0  0  0
   23.9464   71.5678    4.2921 O   0  0  0  0  0  0  0  0  0  0  0  0
   24.4556   69.4818    2.3850 O   0  0  0  0  0  0  0  0  0  0  0  0
   23.2386   74.0662    3.0127 O   0  0  0  0  0  0  0  0  0  0  0  0
   23.7901   71.7254    2.8793 C   0  0  1  0  0  0  0  0  0  0  0  0
   23.3545   70.3814    2.2921 C   0  0  1  0  0  0  0  0  0  0  0  0
   22.7353   72.7969    2.6101 C   0  0  2  0  0  0  0  0  0  0  0  0
   22.9102   70.5330    0.8311 C   0  0  1  0  0  0  0  0  0  0  0  0
   22.3283   72.8312    1.1359 C   0  0  1  0  0  0  0  0  0  0  0  0
   24.6152   70.8892    4.4699 H   0  0  0  0  0  0  0  0  0  0  0  0
   24.7267   69.3953    3.3125 H   0  0  0  0  0  0  0  0  0  0  0  0
   23.4924   74.0315    3.9477 H   0  0  0  0  0  0  0  0  0  0  0  0
   20.9662   69.1536    0.6669 O   0  0  0  0  0  0  0  0  0  0  0  0
   22.3238   69.2376    0.2743 C   0  0  0  0  0  0  0  0  0  0  0  0
   20.5798   68.3341    0.3193 H   0  0  0  0  0  0  0  0  0  0  0  0
 25 28  1  0
 25 24  1  0
 25 26  1  1
 25 27  2  0
  1  4  1  0
  1 24  1  0
  1  2  1  6
  1  3  2  0
  6 11  1  0
  6 12  1  0
 29 36  1  0
 29 37  1  0
  9  7  1  6
  7 13  1  0
 10  8  1  1
  8 14  1  0
 37 28  1  6
  4  5  1  0
 33 30  1  1
 30 38  1  0
 34 31  1  6
 31 39  1  0
 35 32  1  6
 32 40  1  0
 41 42  1  0
 41 43  1  0
 15 19  2  0
 16 22  2  0
 12 17  1  6
 17 19  1  0
 17 20  1  0
 18 19  1  0
 18 22  1  0
 18 23  1  0
  9 10  1  0
  9 11  1  0
 10 12  1  0
 11  5  1  6
 33 34  1  0
 33 35  1  0
 34 36  1  0
 35 37  1  0
 36 42  1  1
 20 21  2  0
 21 22  1  0
M  CHG  2   2  -1  26  -1
M  END
>  <COMPND>  (41) 
    8629 

>  <AUTHOR>  (41) 
    GENERATED BY OPEN BABEL 3.1.1

>  <MASTER>  (41) 
        0    0    0    0    0    0    0    0   58    0   58    0

>  <minimizedAffinity>  (41) 
-7.86449

>  <CNNscore>  (41) 
0.8965588808

>  <CNNaffinity>  (41) 
4.8624696732

>  <CNN_VS>  (41) 
4.3594903946

>  <CNNaffinity_variance>  (41) 
0.0524824150

$$$$
42
     RDKit          3D

 43 45  0  0  0  0  0  0  0  0999 V2000
   20.9125   70.2752    0.0790 P   0  0  2  0  0  0  0  0  0  0  0  0
   19.3560   70.7164    0.0745 O   0  0  0  0  0  0  0  0  0  0  0  0
   21.1860   68.9220    0.6668 O   0  0  0  0  0  0  0  0  0  0  0  0
   21.6660   71.5165    0.7927 O   0  0  0  0  0  0  0  0  0  0  0  0
   22.9054   71.2756    1.4360 C   0  0  0  0  0  0  0  0  0  0  0  0
   23.8556   70.7118    3.5698 O   0  0  0  0  0  0  0  0  0  0  0  0
   21.8721   72.6264    4.7491 O   0  0  0  0  0  0  0  0  0  0  0  0
   24.1708   74.0933    4.7227 O   0  0  0  0  0  0  0  0  0  0  0  0
   22.5802   72.7083    3.5132 C   0  0  1  0  0  0  0  0  0  0  0  0
   24.0304   73.0676    3.7610 C   0  0  2  0  0  0  0  0  0  0  0  0
   22.6943   71.2997    2.9436 C   0  0  1  0  0  0  0  0  0  0  0  0
   24.6074   71.7429    4.2304 C   0  0  2  0  0  0  0  0  0  0  0  0
   21.7864   73.5142    5.1318 H   0  0  0  0  0  0  0  0  0  0  0  0
   23.7888   74.9152    4.3773 H   0  0  0  0  0  0  0  0  0  0  0  0
   26.7412   72.7901    5.7564 O   0  0  0  0  0  0  0  0  0  0  0  0
   29.8905   71.1297    2.8296 O   0  0  0  0  0  0  0  0  0  0  0  0
   25.9949   71.5988    3.8906 N   0  0  0  0  0  0  0  0  0  0  0  0
   28.3076   71.9624    4.2979 N   0  0  0  0  0  0  0  0  0  0  0  0
   26.9885   72.1636    4.7239 C   0  0  0  0  0  0  0  0  0  0  0  0
   26.3586   70.9035    2.7425 C   0  0  0  0  0  0  0  0  0  0  0  0
   27.6211   70.7216    2.3495 C   0  0  0  0  0  0  0  0  0  0  0  0
   28.7195   71.2799    3.1642 C   0  0  0  0  0  0  0  0  0  0  0  0
   29.0166   72.3473    4.8626 H   0  0  0  0  0  0  0  0  0  0  0  0
   21.3398   70.4339   -1.4719 O   0  0  0  0  0  0  0  0  0  0  0  0
   20.8298   71.4577   -2.6140 P   0  0  2  0  0  0  0  0  0  0  0  0
   22.0220   71.4181   -3.7070 O   0  0  0  0  0  0  0  0  0  0  0  0
   20.5005   72.8316   -2.1063 O   0  0  0  0  0  0  0  0  0  0  0  0
   19.5985   70.6949   -3.3261 O   0  0  0  0  0  0  0  0  0  0  0  0
   17.8611   72.0952   -4.1243 O   0  0  0  0  0  0  0  0  0  0  0  0
   15.9003   68.4640   -4.2679 O   0  0  0  0  0  0  0  0  0  0  0  0
   16.7240   69.7282   -6.7115 O   0  0  0  0  0  0  0  0  0  0  0  0
   17.7008   69.0472   -2.0775 O   0  0  0  0  0  0  0  0  0  0  0  0
   17.0238   69.3430   -4.3700 C   0  0  1  0  0  0  0  0  0  0  0  0
   16.7204   70.3860   -5.4475 C   0  0  1  0  0  0  0  0  0  0  0  0
   17.2545   70.0173   -3.0189 C   0  0  2  0  0  0  0  0  0  0  0  0
   17.7570   71.5174   -5.4309 C   0  0  1  0  0  0  0  0  0  0  0  0
   18.2665   71.1597   -3.1232 C   0  0  1  0  0  0  0  0  0  0  0  0
   15.7487   68.0323   -5.1224 H   0  0  0  0  0  0  0  0  0  0  0  0
   16.0655   69.0158   -6.7085 H   0  0  0  0  0  0  0  0  0  0  0  0
   17.0514   68.3296   -2.0204 H   0  0  0  0  0  0  0  0  0  0  0  0
   16.0447   72.4636   -6.8026 O   0  0  0  0  0  0  0  0  0  0  0  0
   17.3865   72.6467   -6.3898 C   0  0  0  0  0  0  0  0  0  0  0  0
   15.7949   73.1753   -7.4132 H   0  0  0  0  0  0  0  0  0  0  0  0
 25 28  1  0
 25 24  1  0
 25 26  1  6
 25 27  2  0
  1  4  1  0
  1 24  1  0
  1  2  1  6
  1  3  2  0
  6 11  1  0
  6 12  1  0
 29 36  1  0
 29 37  1  0
  9  7  1  1
  7 13  1  0
 10  8  1  1
  8 14  1  0
 37 28  1  6
  4  5  1  0
 33 30  1  1
 30 38  1  0
 34 31  1  6
 31 39  1  0
 35 32  1  1
 32 40  1  0
 41 42  1  0
 41 43  1  0
 15 19  2  0
 16 22  2  0
 12 17  1  6
 17 19  1  0
 17 20  1  0
 18 19  1  0
 18 22  1  0
 18 23  1  0
  9 10  1  0
  9 11  1  0
 10 12  1  0
 11  5  1  6
 33 34  1  0
 33 35  1  0
 34 36  1  0
 35 37  1  0
 36 42  1  6
 20 21  2  0
 21 22  1  0
M  CHG  2   2  -1  26  -1
M  END
>  <COMPND>  (42) 
    8629 

>  <AUTHOR>  (42) 
    GENERATED BY OPEN BABEL 3.1.1

>  <MASTER>  (42) 
        0    0    0    0    0    0    0    0   58    0   58    0

>  <minimizedAffinity>  (42) 
-8.54565

>  <CNNscore>  (42) 
0.8103846312

>  <CNNaffinity>  (42) 
4.6667418480

>  <CNN_VS>  (42) 
3.7818558216

>  <CNNaffinity_variance>  (42) 
0.1219360977

$$$$
43
     RDKit          3D

 43 45  0  0  0  0  0  0  0  0999 V2000
   24.0799   70.4375    2.2771 P   0  0  2  0  0  0  0  0  0  0  0  0
   23.0150   71.2342    3.1983 O   0  0  0  0  0  0  0  0  0  0  0  0
   24.4528   69.0724    2.7759 O   0  0  0  0  0  0  0  0  0  0  0  0
   25.3038   71.4818    2.1065 O   0  0  0  0  0  0  0  0  0  0  0  0
   26.6050   71.0658    2.4829 C   0  0  0  0  0  0  0  0  0  0  0  0
   28.5810   71.7231    3.6818 O   0  0  0  0  0  0  0  0  0  0  0  0
   27.5270   74.5249    3.5092 O   0  0  0  0  0  0  0  0  0  0  0  0
   29.4032   74.4728    1.5309 O   0  0  0  0  0  0  0  0  0  0  0  0
   27.4402   73.4680    2.5549 C   0  0  1  0  0  0  0  0  0  0  0  0
   28.7809   73.2542    1.8838 C   0  0  2  0  0  0  0  0  0  0  0  0
   27.2540   72.1619    3.3169 C   0  0  1  0  0  0  0  0  0  0  0  0
   29.5494   72.4928    2.9506 C   0  0  2  0  0  0  0  0  0  0  0  0
   27.6458   75.3695    3.0461 H   0  0  0  0  0  0  0  0  0  0  0  0
   28.8766   74.9194    0.8497 H   0  0  0  0  0  0  0  0  0  0  0  0
   32.1722   72.1715    3.9482 O   0  0  0  0  0  0  0  0  0  0  0  0
   33.2128   69.0483    0.7226 O   0  0  0  0  0  0  0  0  0  0  0  0
   30.5266   71.6022    2.3910 N   0  0  0  0  0  0  0  0  0  0  0  0
   32.6882   70.6165    2.3414 N   0  0  0  0  0  0  0  0  0  0  0  0
   31.8156   71.5163    2.9667 C   0  0  0  0  0  0  0  0  0  0  0  0
   30.2028   70.8255    1.2838 C   0  0  0  0  0  0  0  0  0  0  0  0
   31.0468   69.9731    0.6985 C   0  0  0  0  0  0  0  0  0  0  0  0
   32.4136   69.8236    1.2384 C   0  0  0  0  0  0  0  0  0  0  0  0
   33.5920   70.5403    2.7249 H   0  0  0  0  0  0  0  0  0  0  0  0
   23.3826   70.4536    0.8188 O   0  0  0  0  0  0  0  0  0  0  0  0
   22.4433   69.3656    0.0792 P   0  0  2  0  0  0  0  0  0  0  0  0
   21.1177   69.3288    1.0060 O   0  0  0  0  0  0  0  0  0  0  0  0
   23.0939   68.0280   -0.1244 O   0  0  0  0  0  0  0  0  0  0  0  0
   21.9693   70.0929   -1.2814 O   0  0  0  0  0  0  0  0  0  0  0  0
   22.0416   72.4017   -1.8113 O   0  0  0  0  0  0  0  0  0  0  0  0
   18.6114   71.3614   -3.8613 O   0  0  0  0  0  0  0  0  0  0  0  0
   21.0149   71.9426   -5.3219 O   0  0  0  0  0  0  0  0  0  0  0  0
   19.1643   70.1786   -1.2778 O   0  0  0  0  0  0  0  0  0  0  0  0
   19.9280   71.1630   -3.3391 C   0  0  1  0  0  0  0  0  0  0  0  0
   20.8468   72.2305   -3.9366 C   0  0  1  0  0  0  0  0  0  0  0  0
   19.8843   71.2820   -1.8168 C   0  0  2  0  0  0  0  0  0  0  0  0
   22.2069   72.2514   -3.2262 C   0  0  1  0  0  0  0  0  0  0  0  0
   21.2892   71.3436   -1.2146 C   0  0  1  0  0  0  0  0  0  0  0  0
   18.6321   71.2866   -4.8275 H   0  0  0  0  0  0  0  0  0  0  0  0
   20.1487   71.9319   -5.7586 H   0  0  0  0  0  0  0  0  0  0  0  0
   18.2767   70.1508   -1.6666 H   0  0  0  0  0  0  0  0  0  0  0  0
   23.9081   72.9500   -4.7515 O   0  0  0  0  0  0  0  0  0  0  0  0
   23.0813   73.4108   -3.6988 C   0  0  0  0  0  0  0  0  0  0  0  0
   24.4700   73.6775   -5.0626 H   0  0  0  0  0  0  0  0  0  0  0  0
 25 28  1  0
 25 24  1  0
 25 26  1  1
 25 27  2  0
  1  4  1  0
  1 24  1  0
  1  2  1  1
  1  3  2  0
  6 11  1  0
  6 12  1  0
 29 36  1  0
 29 37  1  0
  9  7  1  1
  7 13  1  0
 10  8  1  1
  8 14  1  0
 37 28  1  6
  4  5  1  0
 33 30  1  6
 30 38  1  0
 34 31  1  6
 31 39  1  0
 35 32  1  1
 32 40  1  0
 41 42  1  0
 41 43  1  0
 15 19  2  0
 16 22  2  0
 12 17  1  6
 17 19  1  0
 17 20  1  0
 18 19  1  0
 18 22  1  0
 18 23  1  0
  9 10  1  0
  9 11  1  0
 10 12  1  0
 11  5  1  6
 33 34  1  0
 33 35  1  0
 34 36  1  0
 35 37  1  0
 36 42  1  6
 20 21  2  0
 21 22  1  0
M  CHG  2   2  -1  26  -1
M  END
>  <COMPND>  (43) 
    8629 

>  <AUTHOR>  (43) 
    GENERATED BY OPEN BABEL 3.1.1

>  <MASTER>  (43) 
        0    0    0    0    0    0    0    0   58    0   58    0

>  <minimizedAffinity>  (43) 
-8.92865

>  <CNNscore>  (43) 
0.7759346366

>  <CNNaffinity>  (43) 
4.9136719704

>  <CNN_VS>  (43) 
3.8126883507

>  <CNNaffinity_variance>  (43) 
0.1465715468

$$$$
44
     RDKit          3D

 43 45  0  0  0  0  0  0  0  0999 V2000
   21.4436   70.3597   -0.0030 P   0  0  2  0  0  0  0  0  0  0  0  0
   21.0216   68.9999    0.7653 O   0  0  0  0  0  0  0  0  0  0  0  0
   22.4871   70.1884   -1.0675 O   0  0  0  0  0  0  0  0  0  0  0  0
   21.8218   71.3807    1.1938 O   0  0  0  0  0  0  0  0  0  0  0  0
   23.1874   71.5505    1.5315 C   0  0  0  0  0  0  0  0  0  0  0  0
   24.8821   70.0687    2.3718 O   0  0  0  0  0  0  0  0  0  0  0  0
   23.4145   70.1741    4.9844 O   0  0  0  0  0  0  0  0  0  0  0  0
   25.4861   71.8989    5.3964 O   0  0  0  0  0  0  0  0  0  0  0  0
   23.6088   71.2040    4.0166 C   0  0  1  0  0  0  0  0  0  0  0  0
   25.0337   71.7143    4.0705 C   0  0  2  0  0  0  0  0  0  0  0  0
   23.5516   70.5659    2.6342 C   0  0  1  0  0  0  0  0  0  0  0  0
   25.7895   70.6157    3.3424 C   0  0  2  0  0  0  0  0  0  0  0  0
   23.4466   70.5576    5.8754 H   0  0  0  0  0  0  0  0  0  0  0  0
   24.9748   72.6077    5.8170 H   0  0  0  0  0  0  0  0  0  0  0  0
   25.9066   73.0710    1.9512 O   0  0  0  0  0  0  0  0  0  0  0  0
   30.3142   72.4066    0.7795 O   0  0  0  0  0  0  0  0  0  0  0  0
   26.9551   71.1093    2.6649 N   0  0  0  0  0  0  0  0  0  0  0  0
   28.1012   72.7383    1.3690 N   0  0  0  0  0  0  0  0  0  0  0  0
   26.9086   72.3542    1.9952 C   0  0  0  0  0  0  0  0  0  0  0  0
   28.1277   70.3618    2.6692 C   0  0  0  0  0  0  0  0  0  0  0  0
   29.2562   70.7415    2.0662 C   0  0  0  0  0  0  0  0  0  0  0  0
   29.2920   72.0296    1.3440 C   0  0  0  0  0  0  0  0  0  0  0  0
   28.0923   73.6019    0.8959 H   0  0  0  0  0  0  0  0  0  0  0  0
   20.0280   70.9312   -0.5345 O   0  0  0  0  0  0  0  0  0  0  0  0
   19.6375   72.3556   -1.1914 P   0  0  2  0  0  0  0  0  0  0  0  0
   21.0729   72.9853   -1.5922 O   0  0  0  0  0  0  0  0  0  0  0  0
   18.8019   73.2334   -0.3054 O   0  0  0  0  0  0  0  0  0  0  0  0
   18.9490   71.9799   -2.6020 O   0  0  0  0  0  0  0  0  0  0  0  0
   18.9013   69.8532   -3.6467 O   0  0  0  0  0  0  0  0  0  0  0  0
   18.9393   72.2421   -7.0146 O   0  0  0  0  0  0  0  0  0  0  0  0
   16.5302   70.8602   -6.2835 O   0  0  0  0  0  0  0  0  0  0  0  0
   20.5176   72.9801   -4.7029 O   0  0  0  0  0  0  0  0  0  0  0  0
   18.6001   71.8902   -5.6705 C   0  0  1  0  0  0  0  0  0  0  0  0
   17.8022   70.5851   -5.7033 C   0  0  1  0  0  0  0  0  0  0  0  0
   19.8837   71.7154   -4.8612 C   0  0  2  0  0  0  0  0  0  0  0  0
   17.6320   70.0043   -4.2931 C   0  0  1  0  0  0  0  0  0  0  0  0
   19.6084   71.0856   -3.4945 C   0  0  1  0  0  0  0  0  0  0  0  0
   18.1286   72.3550   -7.5338 H   0  0  0  0  0  0  0  0  0  0  0  0
   16.6518   71.2269   -7.1734 H   0  0  0  0  0  0  0  0  0  0  0  0
   20.6868   73.3682   -5.5751 H   0  0  0  0  0  0  0  0  0  0  0  0
   17.7023   67.7676   -3.4556 O   0  0  0  0  0  0  0  0  0  0  0  0
   16.9771   68.6249   -4.3179 C   0  0  0  0  0  0  0  0  0  0  0  0
   17.2966   66.8861   -3.4611 H   0  0  0  0  0  0  0  0  0  0  0  0
 25 28  1  0
 25 24  1  0
 25 26  1  6
 25 27  2  0
  1  4  1  0
  1 24  1  0
  1  2  1  1
  1  3  2  0
  6 11  1  0
  6 12  1  0
 29 36  1  0
 29 37  1  0
  9  7  1  1
  7 13  1  0
 10  8  1  1
  8 14  1  0
 37 28  1  1
  4  5  1  0
 33 30  1  6
 30 38  1  0
 34 31  1  1
 31 39  1  0
 35 32  1  1
 32 40  1  0
 41 42  1  0
 41 43  1  0
 15 19  2  0
 16 22  2  0
 12 17  1  6
 17 19  1  0
 17 20  1  0
 18 19  1  0
 18 22  1  0
 18 23  1  0
  9 10  1  0
  9 11  1  0
 10 12  1  0
 11  5  1  6
 33 34  1  0
 33 35  1  0
 34 36  1  0
 35 37  1  0
 36 42  1  6
 20 21  2  0
 21 22  1  0
M  CHG  2   2  -1  26  -1
M  END
>  <COMPND>  (44) 
    8629 

>  <AUTHOR>  (44) 
    GENERATED BY OPEN BABEL 3.1.1

>  <MASTER>  (44) 
        0    0    0    0    0    0    0    0   58    0   58    0

>  <minimizedAffinity>  (44) 
-8.38654

>  <CNNscore>  (44) 
0.7492843270

>  <CNNaffinity>  (44) 
4.6414928436

>  <CNN_VS>  (44) 
3.4777977467

>  <CNNaffinity_variance>  (44) 
0.0053597623

$$$$
45
     RDKit          3D

 43 45  0  0  0  0  0  0  0  0999 V2000
   22.6922   70.1060   -2.1393 P   0  0  2  0  0  0  0  0  0  0  0  0
   23.3749   71.2191   -3.0946 O   0  0  0  0  0  0  0  0  0  0  0  0
   23.1379   68.6956   -2.3909 O   0  0  0  0  0  0  0  0  0  0  0  0
   21.1053   70.3800   -2.2962 O   0  0  0  0  0  0  0  0  0  0  0  0
   20.6799   71.4023   -3.1804 C   0  0  0  0  0  0  0  0  0  0  0  0
   18.6486   72.0609   -4.2820 O   0  0  0  0  0  0  0  0  0  0  0  0
   17.2078   70.6772   -2.0458 O   0  0  0  0  0  0  0  0  0  0  0  0
   17.0688   68.8485   -4.0640 O   0  0  0  0  0  0  0  0  0  0  0  0
   18.4303   70.3203   -2.6888 C   0  0  1  0  0  0  0  0  0  0  0  0
   18.1543   69.7532   -4.0656 C   0  0  2  0  0  0  0  0  0  0  0  0
   19.1797   71.6053   -3.0184 C   0  0  1  0  0  0  0  0  0  0  0  0
   17.8678   71.0086   -4.8718 C   0  0  2  0  0  0  0  0  0  0  0  0
   16.7118   69.8727   -1.8253 H   0  0  0  0  0  0  0  0  0  0  0  0
   17.3000   68.0668   -3.5383 H   0  0  0  0  0  0  0  0  0  0  0  0
   16.1513   70.0440   -6.8969 O   0  0  0  0  0  0  0  0  0  0  0  0
   19.4004   70.5180  -10.1311 O   0  0  0  0  0  0  0  0  0  0  0  0
   18.2390   70.8699   -6.2518 N   0  0  0  0  0  0  0  0  0  0  0  0
   17.7704   70.2810   -8.5057 N   0  0  0  0  0  0  0  0  0  0  0  0
   17.3025   70.3746   -7.1888 C   0  0  0  0  0  0  0  0  0  0  0  0
   19.5193   71.2235   -6.6639 C   0  0  0  0  0  0  0  0  0  0  0  0
   19.9504   71.1270   -7.9233 C   0  0  0  0  0  0  0  0  0  0  0  0
   19.0339   70.6186   -8.9643 C   0  0  0  0  0  0  0  0  0  0  0  0
   17.1354   69.9381   -9.1757 H   0  0  0  0  0  0  0  0  0  0  0  0
   23.0110   70.6574   -0.6536 O   0  0  0  0  0  0  0  0  0  0  0  0
   22.6869   70.0340    0.8022 P   0  0  2  0  0  0  0  0  0  0  0  0
   23.0214   68.4621    0.6156 O   0  0  0  0  0  0  0  0  0  0  0  0
   21.2982   70.3170    1.2976 O   0  0  0  0  0  0  0  0  0  0  0  0
   23.8638   70.5907    1.7562 O   0  0  0  0  0  0  0  0  0  0  0  0
   25.4780   69.5298    3.1292 O   0  0  0  0  0  0  0  0  0  0  0  0
   24.4165   72.6340    5.6369 O   0  0  0  0  0  0  0  0  0  0  0  0
   26.9740   72.6773    4.3311 O   0  0  0  0  0  0  0  0  0  0  0  0
   22.3968   71.3157    4.0360 O   0  0  0  0  0  0  0  0  0  0  0  0
   24.6785   72.0069    4.3785 C   0  0  1  0  0  0  0  0  0  0  0  0
   26.1318   71.5287    4.3744 C   0  0  1  0  0  0  0  0  0  0  0  0
   23.7240   70.8278    4.1999 C   0  0  2  0  0  0  0  0  0  0  0  0
   26.4112   70.6156    3.1730 C   0  0  1  0  0  0  0  0  0  0  0  0
   24.1198   69.9564    3.0065 C   0  0  1  0  0  0  0  0  0  0  0  0
   25.0189   73.3839    5.7562 H   0  0  0  0  0  0  0  0  0  0  0  0
   26.7872   73.2457    5.0948 H   0  0  0  0  0  0  0  0  0  0  0  0
   22.1581   71.8655    4.7980 H   0  0  0  0  0  0  0  0  0  0  0  0
   28.5735   70.5178    2.1612 O   0  0  0  0  0  0  0  0  0  0  0  0
   27.8080   70.0012    3.2343 C   0  0  0  0  0  0  0  0  0  0  0  0
   29.4652   70.1357    2.1877 H   0  0  0  0  0  0  0  0  0  0  0  0
 25 28  1  0
 25 24  1  0
 25 26  1  6
 25 27  2  0
  1  4  1  0
  1 24  1  0
  1  2  1  6
  1  3  2  0
  6 11  1  0
  6 12  1  0
 29 36  1  0
 29 37  1  0
  9  7  1  6
  7 13  1  0
 10  8  1  1
  8 14  1  0
 37 28  1  6
  4  5  1  0
 33 30  1  1
 30 38  1  0
 34 31  1  6
 31 39  1  0
 35 32  1  6
 32 40  1  0
 41 42  1  0
 41 43  1  0
 15 19  2  0
 16 22  2  0
 12 17  1  6
 17 19  1  0
 17 20  1  0
 18 19  1  0
 18 22  1  0
 18 23  1  0
  9 10  1  0
  9 11  1  0
 10 12  1  0
 11  5  1  6
 33 34  1  0
 33 35  1  0
 34 36  1  0
 35 37  1  0
 36 42  1  1
 20 21  2  0
 21 22  1  0
M  CHG  2   2  -1  26  -1
M  END
>  <COMPND>  (45) 
    8629 

>  <AUTHOR>  (45) 
    GENERATED BY OPEN BABEL 3.1.1

>  <MASTER>  (45) 
        0    0    0    0    0    0    0    0   58    0   58    0

>  <minimizedAffinity>  (45) 
-9.20929

>  <CNNscore>  (45) 
0.7385721803

>  <CNNaffinity>  (45) 
4.7480535507

>  <CNN_VS>  (45) 
3.5067801476

>  <CNNaffinity_variance>  (45) 
0.1868343800

$$$$
46
     RDKit          3D

 43 45  0  0  0  0  0  0  0  0999 V2000
   20.9768   71.0617   -0.3722 P   0  0  2  0  0  0  0  0  0  0  0  0
   19.9418   72.2784   -0.6288 O   0  0  0  0  0  0  0  0  0  0  0  0
   20.3418   69.7648    0.0354 O   0  0  0  0  0  0  0  0  0  0  0  0
   22.0491   71.6775    0.6713 O   0  0  0  0  0  0  0  0  0  0  0  0
   22.9958   70.8043    1.2621 C   0  0  0  0  0  0  0  0  0  0  0  0
   24.1013   70.4106    3.3590 O   0  0  0  0  0  0  0  0  0  0  0  0
   22.0537   72.2374    4.5678 O   0  0  0  0  0  0  0  0  0  0  0  0
   24.2359   73.8571    4.3420 O   0  0  0  0  0  0  0  0  0  0  0  0
   22.6843   72.3088    3.2901 C   0  0  1  0  0  0  0  0  0  0  0  0
   24.1164   72.7793    3.4360 C   0  0  2  0  0  0  0  0  0  0  0  0
   22.8676   70.8859    2.7771 C   0  0  1  0  0  0  0  0  0  0  0  0
   24.8125   71.5218    3.9284 C   0  0  2  0  0  0  0  0  0  0  0  0
   21.9258   73.1343    4.9156 H   0  0  0  0  0  0  0  0  0  0  0  0
   23.7771   74.6330    3.9839 H   0  0  0  0  0  0  0  0  0  0  0  0
   27.0123   72.1092    5.5998 O   0  0  0  0  0  0  0  0  0  0  0  0
   30.0367   71.2453    2.2312 O   0  0  0  0  0  0  0  0  0  0  0  0
   26.1857   71.4581    3.5142 N   0  0  0  0  0  0  0  0  0  0  0  0
   28.5164   71.6784    3.9212 N   0  0  0  0  0  0  0  0  0  0  0  0
   27.2153   71.7739    4.4311 C   0  0  0  0  0  0  0  0  0  0  0  0
   26.5002   71.0856    2.2118 C   0  0  0  0  0  0  0  0  0  0  0  0
   27.7460   71.0007    1.7408 C   0  0  0  0  0  0  0  0  0  0  0  0
   28.8798   71.3140    2.6344 C   0  0  0  0  0  0  0  0  0  0  0  0
   29.2500   71.8941    4.5419 H   0  0  0  0  0  0  0  0  0  0  0  0
   21.8115   70.9968   -1.7549 O   0  0  0  0  0  0  0  0  0  0  0  0
   22.2022   72.1535   -2.8144 P   0  0  2  0  0  0  0  0  0  0  0  0
   23.3285   71.4471   -3.7364 O   0  0  0  0  0  0  0  0  0  0  0  0
   22.6386   73.4440   -2.1834 O   0  0  0  0  0  0  0  0  0  0  0  0
   20.9110   72.2813   -3.7743 O   0  0  0  0  0  0  0  0  0  0  0  0
   19.8964   70.1986   -4.2738 O   0  0  0  0  0  0  0  0  0  0  0  0
   17.9534   72.5612   -7.0475 O   0  0  0  0  0  0  0  0  0  0  0  0
   16.5228   71.6069   -4.7473 O   0  0  0  0  0  0  0  0  0  0  0  0
   20.7564   73.0090   -6.4801 O   0  0  0  0  0  0  0  0  0  0  0  0
   18.5711   72.2662   -5.7918 C   0  0  1  0  0  0  0  0  0  0  0  0
   17.8024   71.1164   -5.1377 C   0  0  1  0  0  0  0  0  0  0  0  0
   20.0270   71.8715   -6.0322 C   0  0  2  0  0  0  0  0  0  0  0  0
   18.5581   70.5667   -3.9203 C   0  0  1  0  0  0  0  0  0  0  0  0
   20.6706   71.2917   -4.7714 C   0  0  1  0  0  0  0  0  0  0  0  0
   17.0288   72.8130   -6.9019 H   0  0  0  0  0  0  0  0  0  0  0  0
   16.0563   71.9515   -5.5250 H   0  0  0  0  0  0  0  0  0  0  0  0
   20.3392   73.3665   -7.2789 H   0  0  0  0  0  0  0  0  0  0  0  0
   17.9553   69.3825   -1.9345 O   0  0  0  0  0  0  0  0  0  0  0  0
   17.8889   69.3193   -3.3473 C   0  0  0  0  0  0  0  0  0  0  0  0
   17.5330   68.5951   -1.5560 H   0  0  0  0  0  0  0  0  0  0  0  0
 25 28  1  0
 25 24  1  0
 25 26  1  6
 25 27  2  0
  1  4  1  0
  1 24  1  0
  1  2  1  6
  1  3  2  0
  6 11  1  0
  6 12  1  0
 29 36  1  0
 29 37  1  0
  9  7  1  1
  7 13  1  0
 10  8  1  1
  8 14  1  0
 37 28  1  1
  4  5  1  0
 33 30  1  6
 30 38  1  0
 34 31  1  1
 31 39  1  0
 35 32  1  1
 32 40  1  0
 41 42  1  0
 41 43  1  0
 15 19  2  0
 16 22  2  0
 12 17  1  6
 17 19  1  0
 17 20  1  0
 18 19  1  0
 18 22  1  0
 18 23  1  0
  9 10  1  0
  9 11  1  0
 10 12  1  0
 11  5  1  6
 33 34  1  0
 33 35  1  0
 34 36  1  0
 35 37  1  0
 36 42  1  6
 20 21  2  0
 21 22  1  0
M  CHG  2   2  -1  26  -1
M  END
>  <COMPND>  (46) 
    8629 

>  <AUTHOR>  (46) 
    GENERATED BY OPEN BABEL 3.1.1

>  <MASTER>  (46) 
        0    0    0    0    0    0    0    0   58    0   58    0

>  <minimizedAffinity>  (46) 
-7.84246

>  <CNNscore>  (46) 
0.7186920047

>  <CNNaffinity>  (46) 
4.8332643509

>  <CNN_VS>  (46) 
3.4736285210

>  <CNNaffinity_variance>  (46) 
0.2788917422

$$$$
47
     RDKit          3D

 43 45  0  0  0  0  0  0  0  0999 V2000
   21.7272   72.1046   -1.2513 P   0  0  2  0  0  0  0  0  0  0  0  0
   20.6758   72.2150   -0.0266 O   0  0  0  0  0  0  0  0  0  0  0  0
   22.7875   73.1660   -1.2739 O   0  0  0  0  0  0  0  0  0  0  0  0
   20.7861   72.0234   -2.5650 O   0  0  0  0  0  0  0  0  0  0  0  0
   19.9915   70.8660   -2.7569 C   0  0  0  0  0  0  0  0  0  0  0  0
   18.2400   71.8846   -4.0487 O   0  0  0  0  0  0  0  0  0  0  0  0
   16.3293   70.5670   -2.1503 O   0  0  0  0  0  0  0  0  0  0  0  0
   16.2346   68.9240   -4.3247 O   0  0  0  0  0  0  0  0  0  0  0  0
   17.5720   70.0851   -2.6590 C   0  0  1  0  0  0  0  0  0  0  0  0
   17.4196   69.6619   -4.1051 C   0  0  2  0  0  0  0  0  0  0  0  0
   18.5235   71.2696   -2.7728 C   0  0  1  0  0  0  0  0  0  0  0  0
   17.4176   70.9992   -4.8262 C   0  0  2  0  0  0  0  0  0  0  0  0
   15.7053   69.8282   -2.0685 H   0  0  0  0  0  0  0  0  0  0  0  0
   16.2843   68.0822   -3.8456 H   0  0  0  0  0  0  0  0  0  0  0  0
   15.9555   70.1471   -7.0876 O   0  0  0  0  0  0  0  0  0  0  0  0
   19.5921   70.6818   -9.8680 O   0  0  0  0  0  0  0  0  0  0  0  0
   17.9574   70.9066   -6.1534 N   0  0  0  0  0  0  0  0  0  0  0  0
   17.7674   70.4142   -8.4702 N   0  0  0  0  0  0  0  0  0  0  0  0
   17.1390   70.4661   -7.2195 C   0  0  0  0  0  0  0  0  0  0  0  0
   19.2843   71.2507   -6.3874 C   0  0  0  0  0  0  0  0  0  0  0  0
   19.8689   71.1944   -7.5859 C   0  0  0  0  0  0  0  0  0  0  0  0
   19.0833   70.7445   -8.7531 C   0  0  0  0  0  0  0  0  0  0  0  0
   17.2168   70.1099   -9.2279 H   0  0  0  0  0  0  0  0  0  0  0  0
   22.2891   70.5952   -1.1130 O   0  0  0  0  0  0  0  0  0  0  0  0
   22.4680   69.6435    0.1813 P   0  0  2  0  0  0  0  0  0  0  0  0
   23.4336   68.4624   -0.3573 O   0  0  0  0  0  0  0  0  0  0  0  0
   21.1755   69.1640    0.7759 O   0  0  0  0  0  0  0  0  0  0  0  0
   23.3929   70.4974    1.1915 O   0  0  0  0  0  0  0  0  0  0  0  0
   24.9964   69.7945    2.7887 O   0  0  0  0  0  0  0  0  0  0  0  0
   23.3446   72.9610    4.8614 O   0  0  0  0  0  0  0  0  0  0  0  0
   25.9835   73.2119    3.7562 O   0  0  0  0  0  0  0  0  0  0  0  0
   21.6516   71.2414    3.2626 O   0  0  0  0  0  0  0  0  0  0  0  0
   23.7922   72.2549    3.7010 C   0  0  1  0  0  0  0  0  0  0  0  0
   25.2876   71.9727    3.8584 C   0  0  1  0  0  0  0  0  0  0  0  0
   23.0087   70.9493    3.5781 C   0  0  2  0  0  0  0  0  0  0  0  0
   25.7822   70.9922    2.7865 C   0  0  1  0  0  0  0  0  0  0  0  0
   23.6125   70.0259    2.5184 C   0  0  1  0  0  0  0  0  0  0  0  0
   23.8378   73.7912    4.9450 H   0  0  0  0  0  0  0  0  0  0  0  0
   25.6615   73.8222    4.4382 H   0  0  0  0  0  0  0  0  0  0  0  0
   21.2808   71.8263    3.9410 H   0  0  0  0  0  0  0  0  0  0  0  0
   27.6788   71.1553    4.2305 O   0  0  0  0  0  0  0  0  0  0  0  0
   27.2326   70.5745    3.0190 C   0  0  0  0  0  0  0  0  0  0  0  0
   28.6005   70.8978    4.3916 H   0  0  0  0  0  0  0  0  0  0  0  0
 25 28  1  0
 25 24  1  0
 25 26  1  6
 25 27  2  0
  1  4  1  0
  1 24  1  0
  1  2  1  1
  1  3  2  0
  6 11  1  0
  6 12  1  0
 29 36  1  0
 29 37  1  0
  9  7  1  6
  7 13  1  0
 10  8  1  1
  8 14  1  0
 37 28  1  6
  4  5  1  0
 33 30  1  1
 30 38  1  0
 34 31  1  6
 31 39  1  0
 35 32  1  6
 32 40  1  0
 41 42  1  0
 41 43  1  0
 15 19  2  0
 16 22  2  0
 12 17  1  6
 17 19  1  0
 17 20  1  0
 18 19  1  0
 18 22  1  0
 18 23  1  0
  9 10  1  0
  9 11  1  0
 10 12  1  0
 11  5  1  6
 33 34  1  0
 33 35  1  0
 34 36  1  0
 35 37  1  0
 36 42  1  1
 20 21  2  0
 21 22  1  0
M  CHG  2   2  -1  26  -1
M  END
>  <COMPND>  (47) 
    8629 

>  <AUTHOR>  (47) 
    GENERATED BY OPEN BABEL 3.1.1

>  <MASTER>  (47) 
        0    0    0    0    0    0    0    0   58    0   58    0

>  <minimizedAffinity>  (47) 
-8.60686

>  <CNNscore>  (47) 
0.7134002447

>  <CNNaffinity>  (47) 
4.8830342293

>  <CNN_VS>  (47) 
3.4835577011

>  <CNNaffinity_variance>  (47) 
0.2597344816

$$$$
48
     RDKit          3D

 43 45  0  0  0  0  0  0  0  0999 V2000
   22.5056   71.1536   -1.7782 P   0  0  2  0  0  0  0  0  0  0  0  0
   23.0408   72.6424   -2.1165 O   0  0  0  0  0  0  0  0  0  0  0  0
   23.0613   70.0668   -2.6510 O   0  0  0  0  0  0  0  0  0  0  0  0
   20.8951   71.3081   -1.7882 O   0  0  0  0  0  0  0  0  0  0  0  0
   20.1606   70.6662   -2.8159 C   0  0  0  0  0  0  0  0  0  0  0  0
   18.4223   71.8030   -4.0242 O   0  0  0  0  0  0  0  0  0  0  0  0
   16.5120   70.5567   -2.0778 O   0  0  0  0  0  0  0  0  0  0  0  0
   16.2474   68.9622   -4.2743 O   0  0  0  0  0  0  0  0  0  0  0  0
   17.7068   70.0171   -2.6406 C   0  0  1  0  0  0  0  0  0  0  0  0
   17.4786   69.6299   -4.0869 C   0  0  2  0  0  0  0  0  0  0  0  0
   18.7176   71.1497   -2.7702 C   0  0  1  0  0  0  0  0  0  0  0  0
   17.5244   70.9785   -4.7850 C   0  0  2  0  0  0  0  0  0  0  0  0
   15.8514   69.8517   -1.9851 H   0  0  0  0  0  0  0  0  0  0  0  0
   16.2678   68.1101   -3.8113 H   0  0  0  0  0  0  0  0  0  0  0  0
   15.9459   70.2102   -6.9977 O   0  0  0  0  0  0  0  0  0  0  0  0
   19.4925   70.6388   -9.9095 O   0  0  0  0  0  0  0  0  0  0  0  0
   18.0096   70.8812   -6.1328 N   0  0  0  0  0  0  0  0  0  0  0  0
   17.7131   70.4244   -8.4458 N   0  0  0  0  0  0  0  0  0  0  0  0
   17.1349   70.4853   -7.1714 C   0  0  0  0  0  0  0  0  0  0  0  0
   19.3390   71.1771   -6.4138 C   0  0  0  0  0  0  0  0  0  0  0  0
   19.8751   71.1129   -7.6344 C   0  0  0  0  0  0  0  0  0  0  0  0
   19.0291   70.7075   -8.7753 C   0  0  0  0  0  0  0  0  0  0  0  0
   17.1228   70.1505   -9.1849 H   0  0  0  0  0  0  0  0  0  0  0  0
   22.8456   70.9937   -0.2060 O   0  0  0  0  0  0  0  0  0  0  0  0
   22.1672   70.0758    0.9387 P   0  0  2  0  0  0  0  0  0  0  0  0
   23.4253   69.2753    1.5663 O   0  0  0  0  0  0  0  0  0  0  0  0
   21.0573   69.1946    0.4434 O   0  0  0  0  0  0  0  0  0  0  0  0
   21.7306   71.1173    2.0918 O   0  0  0  0  0  0  0  0  0  0  0  0
   21.1262   73.4066    1.9897 O   0  0  0  0  0  0  0  0  0  0  0  0
   23.2836   73.4502    5.5102 O   0  0  0  0  0  0  0  0  0  0  0  0
   20.4238   73.6993    5.5966 O   0  0  0  0  0  0  0  0  0  0  0  0
   24.1692   71.8118    3.2942 O   0  0  0  0  0  0  0  0  0  0  0  0
   22.4061   72.8953    4.5266 C   0  0  1  0  0  0  0  0  0  0  0  0
   21.1878   73.8119    4.3991 C   0  0  1  0  0  0  0  0  0  0  0  0
   23.1474   72.7979    3.1946 C   0  0  2  0  0  0  0  0  0  0  0  0
   20.3334   73.4317    3.1824 C   0  0  1  0  0  0  0  0  0  0  0  0
   22.1978   72.4629    2.0429 C   0  0  1  0  0  0  0  0  0  0  0  0
   22.8192   73.5144    6.3586 H   0  0  0  0  0  0  0  0  0  0  0  0
   20.9750   73.9417    6.3573 H   0  0  0  0  0  0  0  0  0  0  0  0
   24.7638   72.0353    4.0266 H   0  0  0  0  0  0  0  0  0  0  0  0
   17.9774   73.7177    2.9062 O   0  0  0  0  0  0  0  0  0  0  0  0
   19.2012   74.4285    2.9446 C   0  0  0  0  0  0  0  0  0  0  0  0
   17.2476   74.3395    2.7558 H   0  0  0  0  0  0  0  0  0  0  0  0
 25 28  1  0
 25 24  1  0
 25 26  1  1
 25 27  2  0
  1  4  1  0
  1 24  1  0
  1  2  1  6
  1  3  2  0
  6 11  1  0
  6 12  1  0
 29 36  1  0
 29 37  1  0
  9  7  1  6
  7 13  1  0
 10  8  1  1
  8 14  1  0
 37 28  1  1
  4  5  1  0
 33 30  1  1
 30 38  1  0
 34 31  1  1
 31 39  1  0
 35 32  1  1
 32 40  1  0
 41 42  1  0
 41 43  1  0
 15 19  2  0
 16 22  2  0
 12 17  1  6
 17 19  1  0
 17 20  1  0
 18 19  1  0
 18 22  1  0
 18 23  1  0
  9 10  1  0
  9 11  1  0
 10 12  1  0
 11  5  1  6
 33 34  1  0
 33 35  1  0
 34 36  1  0
 35 37  1  0
 36 42  1  6
 20 21  2  0
 21 22  1  0
M  CHG  2   2  -1  26  -1
M  END
>  <COMPND>  (48) 
    8629 

>  <AUTHOR>  (48) 
    GENERATED BY OPEN BABEL 3.1.1

>  <MASTER>  (48) 
        0    0    0    0    0    0    0    0   58    0   58    0

>  <minimizedAffinity>  (48) 
-8.20220

>  <CNNscore>  (48) 
0.7027066946

>  <CNNaffinity>  (48) 
4.8091411591

>  <CNN_VS>  (48) 
3.3794157505

>  <CNNaffinity_variance>  (48) 
0.1406518519

$$$$
49
     RDKit          3D

 43 45  0  0  0  0  0  0  0  0999 V2000
   20.1732   70.8409   -0.0889 P   0  0  2  0  0  0  0  0  0  0  0  0
   20.8968   69.5278    0.5191 O   0  0  0  0  0  0  0  0  0  0  0  0
   19.1846   71.5009    0.8268 O   0  0  0  0  0  0  0  0  0  0  0  0
   19.5869   70.3381   -1.5106 O   0  0  0  0  0  0  0  0  0  0  0  0
   19.4592   71.2808   -2.5608 C   0  0  0  0  0  0  0  0  0  0  0  0
   17.8189   72.1125   -4.1071 O   0  0  0  0  0  0  0  0  0  0  0  0
   15.7722   70.7998   -2.3525 O   0  0  0  0  0  0  0  0  0  0  0  0
   16.0179   69.0257   -4.4089 O   0  0  0  0  0  0  0  0  0  0  0  0
   17.0893   70.3634   -2.6844 C   0  0  1  0  0  0  0  0  0  0  0  0
   17.1287   69.8453   -4.1069 C   0  0  2  0  0  0  0  0  0  0  0  0
   17.9838   71.5939   -2.7692 C   0  0  1  0  0  0  0  0  0  0  0  0
   17.1404   71.1340   -4.9115 C   0  0  2  0  0  0  0  0  0  0  0  0
   15.1827   70.0312   -2.2924 H   0  0  0  0  0  0  0  0  0  0  0  0
   16.0558   68.2189   -3.8720 H   0  0  0  0  0  0  0  0  0  0  0  0
   15.9575   70.1979   -7.2995 O   0  0  0  0  0  0  0  0  0  0  0  0
   19.9027   70.6363   -9.6413 O   0  0  0  0  0  0  0  0  0  0  0  0
   17.8351   70.9939   -6.1601 N   0  0  0  0  0  0  0  0  0  0  0  0
   17.9228   70.4171   -8.4636 N   0  0  0  0  0  0  0  0  0  0  0  0
   17.1491   70.5137   -7.3000 C   0  0  0  0  0  0  0  0  0  0  0  0
   19.1815   71.3312   -6.2457 C   0  0  0  0  0  0  0  0  0  0  0  0
   19.9054   71.2321   -7.3625 C   0  0  0  0  0  0  0  0  0  0  0  0
   19.2641   70.7388   -8.5984 C   0  0  0  0  0  0  0  0  0  0  0  0
   17.4661   70.0846   -9.2702 H   0  0  0  0  0  0  0  0  0  0  0  0
   21.4193   71.7759   -0.5199 O   0  0  0  0  0  0  0  0  0  0  0  0
   22.2365   72.9015    0.3036 P   0  0  2  0  0  0  0  0  0  0  0  0
   21.0693   73.8712    0.8647 O   0  0  0  0  0  0  0  0  0  0  0  0
   23.2934   73.6045   -0.4982 O   0  0  0  0  0  0  0  0  0  0  0  0
   22.7895   72.1312    1.6096 O   0  0  0  0  0  0  0  0  0  0  0  0
   25.0173   72.5825    2.2803 O   0  0  0  0  0  0  0  0  0  0  0  0
   24.4094   69.0560    4.3407 O   0  0  0  0  0  0  0  0  0  0  0  0
   24.5013   71.5405    5.7784 O   0  0  0  0  0  0  0  0  0  0  0  0
   23.3241   69.3772    1.6764 O   0  0  0  0  0  0  0  0  0  0  0  0
   24.0369   70.3163    3.7767 C   0  0  1  0  0  0  0  0  0  0  0  0
   24.9020   71.4032    4.4179 C   0  0  1  0  0  0  0  0  0  0  0  0
   24.2602   70.2729    2.2662 C   0  0  2  0  0  0  0  0  0  0  0  0
   24.7506   72.7396    3.6788 C   0  0  1  0  0  0  0  0  0  0  0  0
   24.1348   71.6613    1.6365 C   0  0  1  0  0  0  0  0  0  0  0  0
   24.2696   69.0768    5.2996 H   0  0  0  0  0  0  0  0  0  0  0  0
   24.6013   70.6896    6.2336 H   0  0  0  0  0  0  0  0  0  0  0  0
   23.4137   68.5018    2.0833 H   0  0  0  0  0  0  0  0  0  0  0  0
   25.2312   74.2842    5.4372 O   0  0  0  0  0  0  0  0  0  0  0  0
   25.7215   73.7957    4.2022 C   0  0  0  0  0  0  0  0  0  0  0  0
   25.8393   74.9572    5.7824 H   0  0  0  0  0  0  0  0  0  0  0  0
 25 28  1  0
 25 24  1  0
 25 26  1  1
 25 27  2  0
  1  4  1  0
  1 24  1  0
  1  2  1  1
  1  3  2  0
  6 11  1  0
  6 12  1  0
 29 36  1  0
 29 37  1  0
  9  7  1  6
  7 13  1  0
 10  8  1  6
  8 14  1  0
 37 28  1  1
  4  5  1  0
 33 30  1  1
 30 38  1  0
 34 31  1  1
 31 39  1  0
 35 32  1  6
 32 40  1  0
 41 42  1  0
 41 43  1  0
 15 19  2  0
 16 22  2  0
 12 17  1  6
 17 19  1  0
 17 20  1  0
 18 19  1  0
 18 22  1  0
 18 23  1  0
  9 10  1  0
  9 11  1  0
 10 12  1  0
 11  5  1  6
 33 34  1  0
 33 35  1  0
 34 36  1  0
 35 37  1  0
 36 42  1  1
 20 21  2  0
 21 22  1  0
M  CHG  2   2  -1  26  -1
M  END
>  <COMPND>  (49) 
    8629 

>  <AUTHOR>  (49) 
    GENERATED BY OPEN BABEL 3.1.1

>  <MASTER>  (49) 
        0    0    0    0    0    0    0    0   58    0   58    0

>  <minimizedAffinity>  (49) 
-8.37136

>  <CNNscore>  (49) 
0.6869441867

>  <CNNaffinity>  (49) 
4.7176256180

>  <CNN_VS>  (49) 
3.2407455444

>  <CNNaffinity_variance>  (49) 
0.1753382087

$$$$
50
     RDKit          3D

 43 45  0  0  0  0  0  0  0  0999 V2000
   22.7540   69.7526   -2.0958 P   0  0  2  0  0  0  0  0  0  0  0  0
   23.7474   70.6098   -3.0423 O   0  0  0  0  0  0  0  0  0  0  0  0
   23.1307   68.3105   -1.9232 O   0  0  0  0  0  0  0  0  0  0  0  0
   21.2879   70.0256   -2.7234 O   0  0  0  0  0  0  0  0  0  0  0  0
   21.0878   71.2021   -3.4873 C   0  0  0  0  0  0  0  0  0  0  0  0
   19.1854   72.1751   -4.5864 O   0  0  0  0  0  0  0  0  0  0  0  0
   17.5587   71.1156   -2.3012 O   0  0  0  0  0  0  0  0  0  0  0  0
   17.0783   69.2903   -4.2695 O   0  0  0  0  0  0  0  0  0  0  0  0
   18.6923   70.5373   -2.9462 C   0  0  1  0  0  0  0  0  0  0  0  0
   18.3034   69.9935   -4.3051 C   0  0  2  0  0  0  0  0  0  0  0  0
   19.6474   71.6651   -3.3164 C   0  0  1  0  0  0  0  0  0  0  0  0
   18.2267   71.2597   -5.1411 C   0  0  2  0  0  0  0  0  0  0  0  0
   16.9344   70.4144   -2.0550 H   0  0  0  0  0  0  0  0  0  0  0  0
   17.1784   68.4933   -3.7258 H   0  0  0  0  0  0  0  0  0  0  0  0
   16.3408   70.5625   -7.1249 O   0  0  0  0  0  0  0  0  0  0  0  0
   19.5786   70.3848  -10.4000 O   0  0  0  0  0  0  0  0  0  0  0  0
   18.5493   71.0257   -6.5204 N   0  0  0  0  0  0  0  0  0  0  0  0
   17.9545   70.4748   -8.7540 N   0  0  0  0  0  0  0  0  0  0  0  0
   17.5280   70.6798   -7.4357 C   0  0  0  0  0  0  0  0  0  0  0  0
   19.8659   71.1402   -6.9532 C   0  0  0  0  0  0  0  0  0  0  0  0
   20.2564   70.9402   -8.2137 C   0  0  0  0  0  0  0  0  0  0  0  0
   19.2512   70.5754   -9.2328 C   0  0  0  0  0  0  0  0  0  0  0  0
   17.2604   70.2325   -9.4092 H   0  0  0  0  0  0  0  0  0  0  0  0
   22.7280   70.6098   -0.7256 O   0  0  0  0  0  0  0  0  0  0  0  0
   21.6093   70.7210    0.4359 P   0  0  2  0  0  0  0  0  0  0  0  0
   21.1692   69.1827    0.6757 O   0  0  0  0  0  0  0  0  0  0  0  0
   20.4731   71.6465    0.1094 O   0  0  0  0  0  0  0  0  0  0  0  0
   22.4366   71.1199    1.7631 O   0  0  0  0  0  0  0  0  0  0  0  0
   23.0334   73.2687    2.5652 O   0  0  0  0  0  0  0  0  0  0  0  0
   26.3801   71.1655    3.7597 O   0  0  0  0  0  0  0  0  0  0  0  0
   24.4713   72.0279    5.7246 O   0  0  0  0  0  0  0  0  0  0  0  0
   25.1338   70.5721    1.2154 O   0  0  0  0  0  0  0  0  0  0  0  0
   24.9889   71.3556    3.4883 C   0  0  1  0  0  0  0  0  0  0  0  0
   24.4777   72.4912    4.3771 C   0  0  1  0  0  0  0  0  0  0  0  0
   24.8117   71.7068    2.0123 C   0  0  2  0  0  0  0  0  0  0  0  0
   23.0691   72.9322    3.9570 C   0  0  1  0  0  0  0  0  0  0  0  0
   23.3884   72.1795    1.7110 C   0  0  1  0  0  0  0  0  0  0  0  0
   26.4995   70.9418    4.6953 H   0  0  0  0  0  0  0  0  0  0  0  0
   25.3665   71.7521    5.9772 H   0  0  0  0  0  0  0  0  0  0  0  0
   26.0373   70.2827    1.4151 H   0  0  0  0  0  0  0  0  0  0  0  0
   21.8893   73.7386    5.8719 O   0  0  0  0  0  0  0  0  0  0  0  0
   22.6029   74.1663    4.7264 C   0  0  0  0  0  0  0  0  0  0  0  0
   21.5867   74.5136    6.3715 H   0  0  0  0  0  0  0  0  0  0  0  0
 25 28  1  0
 25 24  1  0
 25 26  1  1
 25 27  2  0
  1  4  1  0
  1 24  1  0
  1  2  1  6
  1  3  2  0
  6 11  1  0
  6 12  1  0
 29 36  1  0
 29 37  1  0
  9  7  1  6
  7 13  1  0
 10  8  1  1
  8 14  1  0
 37 28  1  1
  4  5  1  0
 33 30  1  6
 30 38  1  0
 34 31  1  1
 31 39  1  0
 35 32  1  6
 32 40  1  0
 41 42  1  0
 41 43  1  0
 15 19  2  0
 16 22  2  0
 12 17  1  6
 17 19  1  0
 17 20  1  0
 18 19  1  0
 18 22  1  0
 18 23  1  0
  9 10  1  0
  9 11  1  0
 10 12  1  0
 11  5  1  6
 33 34  1  0
 33 35  1  0
 34 36  1  0
 35 37  1  0
 36 42  1  1
 20 21  2  0
 21 22  1  0
M  CHG  2   2  -1  26  -1
M  END
>  <COMPND>  (50) 
    8629 

>  <AUTHOR>  (50) 
    GENERATED BY OPEN BABEL 3.1.1

>  <MASTER>  (50) 
        0    0    0    0    0    0    0    0   58    0   58    0

>  <minimizedAffinity>  (50) 
-8.59177

>  <CNNscore>  (50) 
0.6363707781

>  <CNNaffinity>  (50) 
4.6749196053

>  <CNN_VS>  (50) 
2.9749822617

>  <CNNaffinity_variance>  (50) 
0.2003125399

$$$$
51
     RDKit          3D

 43 45  0  0  0  0  0  0  0  0999 V2000
   21.0070   70.5907   -0.3074 P   0  0  2  0  0  0  0  0  0  0  0  0
   20.7555   69.3129    0.6524 O   0  0  0  0  0  0  0  0  0  0  0  0
   21.7530   70.2941   -1.5751 O   0  0  0  0  0  0  0  0  0  0  0  0
   21.6909   71.6829    0.6711 O   0  0  0  0  0  0  0  0  0  0  0  0
   22.9047   71.3441    1.3190 C   0  0  0  0  0  0  0  0  0  0  0  0
   23.8182   70.6801    3.4399 O   0  0  0  0  0  0  0  0  0  0  0  0
   21.8182   72.5429    4.6732 O   0  0  0  0  0  0  0  0  0  0  0  0
   24.1194   74.0040    4.7530 O   0  0  0  0  0  0  0  0  0  0  0  0
   22.5470   72.6800    3.4545 C   0  0  1  0  0  0  0  0  0  0  0  0
   23.9934   73.0241    3.7426 C   0  0  2  0  0  0  0  0  0  0  0  0
   22.6684   71.2990    2.8224 C   0  0  1  0  0  0  0  0  0  0  0  0
   24.5605   71.6778    4.1599 C   0  0  2  0  0  0  0  0  0  0  0  0
   21.7275   73.4122    5.0951 H   0  0  0  0  0  0  0  0  0  0  0  0
   23.7445   74.8418    4.4396 H   0  0  0  0  0  0  0  0  0  0  0  0
   26.6711   72.6161    5.7857 O   0  0  0  0  0  0  0  0  0  0  0  0
   29.8652   71.1192    2.8196 O   0  0  0  0  0  0  0  0  0  0  0  0
   25.9532   71.5463    3.8370 N   0  0  0  0  0  0  0  0  0  0  0  0
   28.2598   71.8698    4.3076 N   0  0  0  0  0  0  0  0  0  0  0  0
   26.9341   72.0527    4.7212 C   0  0  0  0  0  0  0  0  0  0  0  0
   26.3344   70.9206    2.6550 C   0  0  0  0  0  0  0  0  0  0  0  0
   27.6029   70.7554    2.2744 C   0  0  0  0  0  0  0  0  0  0  0  0
   28.6890   71.2558    3.1416 C   0  0  0  0  0  0  0  0  0  0  0  0
   28.9603   72.2149    4.9075 H   0  0  0  0  0  0  0  0  0  0  0  0
   19.5178   71.1803   -0.5254 O   0  0  0  0  0  0  0  0  0  0  0  0
   18.3933   70.8398   -1.6357 P   0  0  2  0  0  0  0  0  0  0  0  0
   17.1381   71.7559   -1.1854 O   0  0  0  0  0  0  0  0  0  0  0  0
   18.0783   69.3776   -1.7642 O   0  0  0  0  0  0  0  0  0  0  0  0
   18.9354   71.5289   -2.9908 O   0  0  0  0  0  0  0  0  0  0  0  0
   18.0523   70.5556   -4.9629 O   0  0  0  0  0  0  0  0  0  0  0  0
   21.0607   72.8326   -6.6409 O   0  0  0  0  0  0  0  0  0  0  0  0
   18.3229   73.6345   -6.9718 O   0  0  0  0  0  0  0  0  0  0  0  0
   21.5054   71.4864   -4.1171 O   0  0  0  0  0  0  0  0  0  0  0  0
   20.0238   72.5306   -5.7033 C   0  0  1  0  0  0  0  0  0  0  0  0
   18.7145   72.3576   -6.4755 C   0  0  1  0  0  0  0  0  0  0  0  0
   20.3828   71.2460   -4.9587 C   0  0  2  0  0  0  0  0  0  0  0  0
   17.6153   71.7730   -5.5783 C   0  0  1  0  0  0  0  0  0  0  0  0
   19.2048   70.7228   -4.1349 C   0  0  1  0  0  0  0  0  0  0  0  0
   20.8392   73.6475   -7.1167 H   0  0  0  0  0  0  0  0  0  0  0  0
   19.0258   73.9928   -7.5364 H   0  0  0  0  0  0  0  0  0  0  0  0
   22.2444   71.8169   -4.6505 H   0  0  0  0  0  0  0  0  0  0  0  0
   16.6830   71.3559   -7.7383 O   0  0  0  0  0  0  0  0  0  0  0  0
   16.3485   71.4451   -6.3656 C   0  0  0  0  0  0  0  0  0  0  0  0
   15.8864   71.1474   -8.2517 H   0  0  0  0  0  0  0  0  0  0  0  0
 25 28  1  0
 25 24  1  0
 25 26  1  1
 25 27  2  0
  1  4  1  0
  1 24  1  0
  1  2  1  1
  1  3  2  0
  6 11  1  0
  6 12  1  0
 29 36  1  0
 29 37  1  0
  9  7  1  1
  7 13  1  0
 10  8  1  1
  8 14  1  0
 37 28  1  1
  4  5  1  0
 33 30  1  6
 30 38  1  0
 34 31  1  1
 31 39  1  0
 35 32  1  1
 32 40  1  0
 41 42  1  0
 41 43  1  0
 15 19  2  0
 16 22  2  0
 12 17  1  6
 17 19  1  0
 17 20  1  0
 18 19  1  0
 18 22  1  0
 18 23  1  0
  9 10  1  0
  9 11  1  0
 10 12  1  0
 11  5  1  6
 33 34  1  0
 33 35  1  0
 34 36  1  0
 35 37  1  0
 36 42  1  6
 20 21  2  0
 21 22  1  0
M  CHG  2   2  -1  26  -1
M  END
>  <COMPND>  (51) 
    8629 

>  <AUTHOR>  (51) 
    GENERATED BY OPEN BABEL 3.1.1

>  <MASTER>  (51) 
        0    0    0    0    0    0    0    0   58    0   58    0

>  <minimizedAffinity>  (51) 
-8.45257

>  <CNNscore>  (51) 
0.5904347897

>  <CNNaffinity>  (51) 
4.4689316750

>  <CNN_VS>  (51) 
2.6386127472

>  <CNNaffinity_variance>  (51) 
0.0099207703

$$$$
52
     RDKit          3D

 43 45  0  0  0  0  0  0  0  0999 V2000
   21.9701   70.0149   -0.0938 P   0  0  2  0  0  0  0  0  0  0  0  0
   21.0355   69.0447    0.8022 O   0  0  0  0  0  0  0  0  0  0  0  0
   22.6302   69.3522   -1.2671 O   0  0  0  0  0  0  0  0  0  0  0  0
   22.9686   70.6948    0.9825 O   0  0  0  0  0  0  0  0  0  0  0  0
   23.6138   69.8595    1.9280 C   0  0  0  0  0  0  0  0  0  0  0  0
   24.5874   70.2962    4.0809 O   0  0  0  0  0  0  0  0  0  0  0  0
   22.2760   72.1497    4.5422 O   0  0  0  0  0  0  0  0  0  0  0  0
   24.2920   73.8653    3.8868 O   0  0  0  0  0  0  0  0  0  0  0  0
   22.9934   71.8845    3.3378 C   0  0  1  0  0  0  0  0  0  0  0  0
   24.3541   72.5479    3.3794 C   0  0  2  0  0  0  0  0  0  0  0  0
   23.3606   70.4059    3.3264 C   0  0  1  0  0  0  0  0  0  0  0  0
   25.1348   71.6093    4.2836 C   0  0  2  0  0  0  0  0  0  0  0  0
   22.0303   73.0882    4.5719 H   0  0  0  0  0  0  0  0  0  0  0  0
   23.7855   74.4235    3.2765 H   0  0  0  0  0  0  0  0  0  0  0  0
   27.0443   73.3913    5.3590 O   0  0  0  0  0  0  0  0  0  0  0  0
   30.4802   71.4208    3.0024 O   0  0  0  0  0  0  0  0  0  0  0  0
   26.5354   71.5843    3.9686 N   0  0  0  0  0  0  0  0  0  0  0  0
   28.7536   72.4086    4.1848 N   0  0  0  0  0  0  0  0  0  0  0  0
   27.4097   72.5242    4.5625 C   0  0  0  0  0  0  0  0  0  0  0  0
   27.0291   70.6352    3.0802 C   0  0  0  0  0  0  0  0  0  0  0  0
   28.3132   70.5390    2.7295 C   0  0  0  0  0  0  0  0  0  0  0  0
   29.2926   71.4834    3.3049 C   0  0  0  0  0  0  0  0  0  0  0  0
   29.3810   73.0531    4.5856 H   0  0  0  0  0  0  0  0  0  0  0  0
   20.9719   71.2265   -0.4794 O   0  0  0  0  0  0  0  0  0  0  0  0
   19.6397   71.2540   -1.3944 P   0  0  2  0  0  0  0  0  0  0  0  0
   18.7514   72.4267   -0.7213 O   0  0  0  0  0  0  0  0  0  0  0  0
   18.9392   69.9305   -1.5014 O   0  0  0  0  0  0  0  0  0  0  0  0
   20.1257   71.8695   -2.8051 O   0  0  0  0  0  0  0  0  0  0  0  0
   20.2639   70.8151   -4.9230 O   0  0  0  0  0  0  0  0  0  0  0  0
   23.5367   73.3159   -5.2162 O   0  0  0  0  0  0  0  0  0  0  0  0
   21.1708   73.8923   -6.7388 O   0  0  0  0  0  0  0  0  0  0  0  0
   22.9255   72.0268   -2.6974 O   0  0  0  0  0  0  0  0  0  0  0  0
   22.2180   72.9376   -4.8120 C   0  0  1  0  0  0  0  0  0  0  0  0
   21.3937   72.6544   -6.0694 C   0  0  1  0  0  0  0  0  0  0  0  0
   22.3036   71.6911   -3.9332 C   0  0  2  0  0  0  0  0  0  0  0  0
   20.0564   71.9891   -5.7169 C   0  0  1  0  0  0  0  0  0  0  0  0
   20.9236   71.0802   -3.6835 C   0  0  1  0  0  0  0  0  0  0  0  0
   23.4894   74.1070   -5.7742 H   0  0  0  0  0  0  0  0  0  0  0  0
   22.0230   74.3022   -6.9553 H   0  0  0  0  0  0  0  0  0  0  0  0
   23.7983   72.4123   -2.8690 H   0  0  0  0  0  0  0  0  0  0  0  0
   20.2019   71.4401   -8.0377 O   0  0  0  0  0  0  0  0  0  0  0  0
   19.2876   71.5549   -6.9629 C   0  0  0  0  0  0  0  0  0  0  0  0
   19.7267   71.1641   -8.8375 H   0  0  0  0  0  0  0  0  0  0  0  0
 25 28  1  0
 25 24  1  0
 25 26  1  1
 25 27  2  0
  1  4  1  0
  1 24  1  0
  1  2  1  1
  1  3  2  0
  6 11  1  0
  6 12  1  0
 29 36  1  0
 29 37  1  0
  9  7  1  1
  7 13  1  0
 10  8  1  1
  8 14  1  0
 37 28  1  1
  4  5  1  0
 33 30  1  6
 30 38  1  0
 34 31  1  1
 31 39  1  0
 35 32  1  1
 32 40  1  0
 41 42  1  0
 41 43  1  0
 15 19  2  0
 16 22  2  0
 12 17  1  6
 17 19  1  0
 17 20  1  0
 18 19  1  0
 18 22  1  0
 18 23  1  0
  9 10  1  0
  9 11  1  0
 10 12  1  0
 11  5  1  6
 33 34  1  0
 33 35  1  0
 34 36  1  0
 35 37  1  0
 36 42  1  6
 20 21  2  0
 21 22  1  0
M  CHG  2   2  -1  26  -1
M  END
>  <COMPND>  (52) 
    8629 

>  <AUTHOR>  (52) 
    GENERATED BY OPEN BABEL 3.1.1

>  <MASTER>  (52) 
        0    0    0    0    0    0    0    0   58    0   58    0

>  <minimizedAffinity>  (52) 
-9.26630

>  <CNNscore>  (52) 
0.5416002870

>  <CNNaffinity>  (52) 
4.6927328110

>  <CNN_VS>  (52) 
2.5415854454

>  <CNNaffinity_variance>  (52) 
0.0305293556

$$$$
53
     RDKit          3D

 43 45  0  0  0  0  0  0  0  0999 V2000
   20.7937   70.8178   -0.4901 P   0  0  2  0  0  0  0  0  0  0  0  0
   20.5337   69.5510    0.4819 O   0  0  0  0  0  0  0  0  0  0  0  0
   21.5956   70.5172   -1.7222 O   0  0  0  0  0  0  0  0  0  0  0  0
   21.4134   71.9422    0.4945 O   0  0  0  0  0  0  0  0  0  0  0  0
   22.6552   71.6792    1.1243 C   0  0  0  0  0  0  0  0  0  0  0  0
   23.5446   70.7627    3.1597 O   0  0  0  0  0  0  0  0  0  0  0  0
   21.6478   72.5909    4.5917 O   0  0  0  0  0  0  0  0  0  0  0  0
   24.0204   73.9202    4.7927 O   0  0  0  0  0  0  0  0  0  0  0  0
   22.3764   72.8122    3.3853 C   0  0  1  0  0  0  0  0  0  0  0  0
   23.8398   73.0533    3.6915 C   0  0  2  0  0  0  0  0  0  0  0  0
   22.4246   71.4966    2.6182 C   0  0  1  0  0  0  0  0  0  0  0  0
   24.3401   71.6456    3.9676 C   0  0  2  0  0  0  0  0  0  0  0  0
   21.6034   73.4174    5.0986 H   0  0  0  0  0  0  0  0  0  0  0  0
   23.6868   74.8028    4.5677 H   0  0  0  0  0  0  0  0  0  0  0  0
   26.4999   72.1665    5.7117 O   0  0  0  0  0  0  0  0  0  0  0  0
   29.6032   70.9668    2.5223 O   0  0  0  0  0  0  0  0  0  0  0  0
   25.7228   71.4776    3.6192 N   0  0  0  0  0  0  0  0  0  0  0  0
   28.0433   71.5685    4.1223 N   0  0  0  0  0  0  0  0  0  0  0  0
   26.7305   71.7679    4.5681 C   0  0  0  0  0  0  0  0  0  0  0  0
   26.0678   71.0291    2.3488 C   0  0  0  0  0  0  0  0  0  0  0  0
   27.3245   70.8454    1.9388 C   0  0  0  0  0  0  0  0  0  0  0  0
   28.4369   71.1258    2.8694 C   0  0  0  0  0  0  0  0  0  0  0  0
   28.7621   71.7647    4.7662 H   0  0  0  0  0  0  0  0  0  0  0  0
   19.3012   71.3685   -0.7766 O   0  0  0  0  0  0  0  0  0  0  0  0
   18.1631   70.8638   -1.8077 P   0  0  2  0  0  0  0  0  0  0  0  0
   16.8629   71.7241   -1.3755 O   0  0  0  0  0  0  0  0  0  0  0  0
   17.9498   69.3777   -1.8095 O   0  0  0  0  0  0  0  0  0  0  0  0
   18.6027   71.4781   -3.2340 O   0  0  0  0  0  0  0  0  0  0  0  0
   18.1054   70.1482   -5.1315 O   0  0  0  0  0  0  0  0  0  0  0  0
   20.8128   72.7540   -6.8434 O   0  0  0  0  0  0  0  0  0  0  0  0
   18.0225   72.9868   -7.4820 O   0  0  0  0  0  0  0  0  0  0  0  0
   21.2379   71.7971   -4.1446 O   0  0  0  0  0  0  0  0  0  0  0  0
   19.7586   72.3662   -5.9582 C   0  0  1  0  0  0  0  0  0  0  0  0
   18.5834   71.8675   -6.8015 C   0  0  1  0  0  0  0  0  0  0  0  0
   20.2644   71.2603   -5.0338 C   0  0  2  0  0  0  0  0  0  0  0  0
   17.5222   71.1878   -5.9258 C   0  0  1  0  0  0  0  0  0  0  0  0
   19.1224   70.6177   -4.2444 C   0  0  1  0  0  0  0  0  0  0  0  0
   20.4983   73.4563   -7.4328 H   0  0  0  0  0  0  0  0  0  0  0  0
   18.7029   73.4072   -8.0309 H   0  0  0  0  0  0  0  0  0  0  0  0
   21.9555   72.2007   -4.6565 H   0  0  0  0  0  0  0  0  0  0  0  0
   15.8686   69.4661   -6.0265 O   0  0  0  0  0  0  0  0  0  0  0  0
   16.4177   70.5444   -6.7614 C   0  0  0  0  0  0  0  0  0  0  0  0
   15.1640   69.0472   -6.5460 H   0  0  0  0  0  0  0  0  0  0  0  0
 25 28  1  0
 25 24  1  0
 25 26  1  1
 25 27  2  0
  1  4  1  0
  1 24  1  0
  1  2  1  1
  1  3  2  0
  6 11  1  0
  6 12  1  0
 29 36  1  0
 29 37  1  0
  9  7  1  1
  7 13  1  0
 10  8  1  1
  8 14  1  0
 37 28  1  1
  4  5  1  0
 33 30  1  6
 30 38  1  0
 34 31  1  1
 31 39  1  0
 35 32  1  1
 32 40  1  0
 41 42  1  0
 41 43  1  0
 15 19  2  0
 16 22  2  0
 12 17  1  6
 17 19  1  0
 17 20  1  0
 18 19  1  0
 18 22  1  0
 18 23  1  0
  9 10  1  0
  9 11  1  0
 10 12  1  0
 11  5  1  6
 33 34  1  0
 33 35  1  0
 34 36  1  0
 35 37  1  0
 36 42  1  6
 20 21  2  0
 21 22  1  0
M  CHG  2   2  -1  26  -1
M  END
>  <COMPND>  (53) 
    8629 

>  <AUTHOR>  (53) 
    GENERATED BY OPEN BABEL 3.1.1

>  <MASTER>  (53) 
        0    0    0    0    0    0    0    0   58    0   58    0

>  <minimizedAffinity>  (53) 
-8.47165

>  <CNNscore>  (53) 
0.5367015004

>  <CNNaffinity>  (53) 
4.4041748047

>  <CNN_VS>  (53) 
2.3637273312

>  <CNNaffinity_variance>  (53) 
0.1556468904

$$$$
54
     RDKit          3D

 43 45  0  0  0  0  0  0  0  0999 V2000
   22.3715   71.2364   -2.9409 P   0  0  2  0  0  0  0  0  0  0  0  0
   22.3592   72.0142   -1.5224 O   0  0  0  0  0  0  0  0  0  0  0  0
   23.3974   71.7231   -3.9217 O   0  0  0  0  0  0  0  0  0  0  0  0
   20.8335   71.3106   -3.4379 O   0  0  0  0  0  0  0  0  0  0  0  0
   20.0262   72.3815   -2.9807 C   0  0  0  0  0  0  0  0  0  0  0  0
   17.9158   72.0170   -4.0704 O   0  0  0  0  0  0  0  0  0  0  0  0
   17.2641   70.1882   -1.7854 O   0  0  0  0  0  0  0  0  0  0  0  0
   17.9684   68.4444   -3.7602 O   0  0  0  0  0  0  0  0  0  0  0  0
   18.5144   70.4089   -2.4359 C   0  0  1  0  0  0  0  0  0  0  0  0
   18.5243   69.7430   -3.7961 C   0  0  2  0  0  0  0  0  0  0  0  0
   18.5977   71.8851   -2.8039 C   0  0  1  0  0  0  0  0  0  0  0  0
   17.6976   70.7101   -4.6264 C   0  0  2  0  0  0  0  0  0  0  0  0
   17.1880   69.2521   -1.5405 H   0  0  0  0  0  0  0  0  0  0  0  0
   18.5302   67.8668   -3.2202 H   0  0  0  0  0  0  0  0  0  0  0  0
   16.0031   69.9974   -6.7708 O   0  0  0  0  0  0  0  0  0  0  0  0
   19.3092   70.7825   -9.8844 O   0  0  0  0  0  0  0  0  0  0  0  0
   18.0895   70.7196   -6.0076 N   0  0  0  0  0  0  0  0  0  0  0  0
   17.6506   70.3890   -8.3194 N   0  0  0  0  0  0  0  0  0  0  0  0
   17.1625   70.3430   -7.0073 C   0  0  0  0  0  0  0  0  0  0  0  0
   19.3801   71.0996   -6.3591 C   0  0  0  0  0  0  0  0  0  0  0  0
   19.8304   71.1370   -7.6150 C   0  0  0  0  0  0  0  0  0  0  0  0
   18.9251   70.7586   -8.7192 C   0  0  0  0  0  0  0  0  0  0  0  0
   17.0226   70.1305   -9.0326 H   0  0  0  0  0  0  0  0  0  0  0  0
   22.5383   69.6886   -2.5053 O   0  0  0  0  0  0  0  0  0  0  0  0
   23.6709   68.9517   -1.6181 P   0  0  2  0  0  0  0  0  0  0  0  0
   25.0412   69.2942   -2.4070 O   0  0  0  0  0  0  0  0  0  0  0  0
   23.4285   67.4854   -1.4056 O   0  0  0  0  0  0  0  0  0  0  0  0
   23.7546   69.8195   -0.2599 O   0  0  0  0  0  0  0  0  0  0  0  0
   24.1371   69.4754    2.0535 O   0  0  0  0  0  0  0  0  0  0  0  0
   20.6354   71.6519    2.2804 O   0  0  0  0  0  0  0  0  0  0  0  0
   23.1185   72.8774    3.0420 O   0  0  0  0  0  0  0  0  0  0  0  0
   20.9853   69.6947    0.1764 O   0  0  0  0  0  0  0  0  0  0  0  0
   21.9057   71.2802    1.7386 C   0  0  1  0  0  0  0  0  0  0  0  0
   22.9661   71.4777    2.8236 C   0  0  1  0  0  0  0  0  0  0  0  0
   21.8523   69.8184    1.2987 C   0  0  2  0  0  0  0  0  0  0  0  0
   24.3052   70.8525    2.4099 C   0  0  1  0  0  0  0  0  0  0  0  0
   23.2428   69.2805    0.9562 C   0  0  1  0  0  0  0  0  0  0  0  0
   20.6623   72.5792    2.5612 H   0  0  0  0  0  0  0  0  0  0  0  0
   22.2658   73.2600    3.3022 H   0  0  0  0  0  0  0  0  0  0  0  0
   20.1083   70.0383    0.4061 H   0  0  0  0  0  0  0  0  0  0  0  0
   25.9304   72.1816    3.5505 O   0  0  0  0  0  0  0  0  0  0  0  0
   25.3314   70.8988    3.5398 C   0  0  0  0  0  0  0  0  0  0  0  0
   26.5857   72.2258    4.2649 H   0  0  0  0  0  0  0  0  0  0  0  0
 25 28  1  0
 25 24  1  0
 25 26  1  6
 25 27  2  0
  1  4  1  0
  1 24  1  0
  1  2  1  1
  1  3  2  0
  6 11  1  0
  6 12  1  0
 29 36  1  0
 29 37  1  0
  9  7  1  6
  7 13  1  0
 10  8  1  1
  8 14  1  0
 37 28  1  6
  4  5  1  0
 33 30  1  1
 30 38  1  0
 34 31  1  6
 31 39  1  0
 35 32  1  6
 32 40  1  0
 41 42  1  0
 41 43  1  0
 15 19  2  0
 16 22  2  0
 12 17  1  6
 17 19  1  0
 17 20  1  0
 18 19  1  0
 18 22  1  0
 18 23  1  0
  9 10  1  0
  9 11  1  0
 10 12  1  0
 11  5  1  6
 33 34  1  0
 33 35  1  0
 34 36  1  0
 35 37  1  0
 36 42  1  1
 20 21  2  0
 21 22  1  0
M  CHG  2   2  -1  26  -1
M  END
>  <COMPND>  (54) 
    8629 

>  <AUTHOR>  (54) 
    GENERATED BY OPEN BABEL 3.1.1

>  <MASTER>  (54) 
        0    0    0    0    0    0    0    0   58    0   58    0

>  <minimizedAffinity>  (54) 
-9.17011

>  <CNNscore>  (54) 
0.5251976848

>  <CNNaffinity>  (54) 
4.6161031723

>  <CNN_VS>  (54) 
2.4243667126

>  <CNNaffinity_variance>  (54) 
0.0422771201

$$$$
55
     RDKit          3D

 43 45  0  0  0  0  0  0  0  0999 V2000
   22.6837   72.1107   -2.9647 P   0  0  2  0  0  0  0  0  0  0  0  0
   23.6835   72.2485   -4.2291 O   0  0  0  0  0  0  0  0  0  0  0  0
   22.7845   73.2149   -1.9537 O   0  0  0  0  0  0  0  0  0  0  0  0
   22.9670   70.6188   -2.4063 O   0  0  0  0  0  0  0  0  0  0  0  0
   23.6758   70.4763   -1.1877 C   0  0  0  0  0  0  0  0  0  0  0  0
   23.7296   69.2280    0.8648 O   0  0  0  0  0  0  0  0  0  0  0  0
   20.7352   69.2032    0.7099 O   0  0  0  0  0  0  0  0  0  0  0  0
   21.2199   71.1749    2.5303 O   0  0  0  0  0  0  0  0  0  0  0  0
   21.6497   70.2307    0.3315 C   0  0  1  0  0  0  0  0  0  0  0  0
   22.2138   70.9116    1.5610 C   0  0  2  0  0  0  0  0  0  0  0  0
   22.8863   69.5643   -0.2586 C   0  0  1  0  0  0  0  0  0  0  0  0
   23.2419   69.8997    2.0378 C   0  0  2  0  0  0  0  0  0  0  0  0
   19.9371   69.6045    1.0893 H   0  0  0  0  0  0  0  0  0  0  0  0
   20.5901   71.8240    2.1798 H   0  0  0  0  0  0  0  0  0  0  0  0
   23.2867   70.5082    4.7956 O   0  0  0  0  0  0  0  0  0  0  0  0
   27.5344   72.2757    4.5233 O   0  0  0  0  0  0  0  0  0  0  0  0
   24.3469   70.5187    2.7140 N   0  0  0  0  0  0  0  0  0  0  0  0
   25.4018   71.3877    4.6578 N   0  0  0  0  0  0  0  0  0  0  0  0
   24.2678   70.7823    4.1013 C   0  0  0  0  0  0  0  0  0  0  0  0
   25.4929   70.8573    2.0027 C   0  0  0  0  0  0  0  0  0  0  0  0
   26.5652   71.4353    2.5480 C   0  0  0  0  0  0  0  0  0  0  0  0
   26.5640   71.7445    3.9924 C   0  0  0  0  0  0  0  0  0  0  0  0
   25.3694   71.5811    5.6228 H   0  0  0  0  0  0  0  0  0  0  0  0
   21.2326   71.9680   -3.6626 O   0  0  0  0  0  0  0  0  0  0  0  0
   20.2398   73.0815   -4.2849 P   0  0  2  0  0  0  0  0  0  0  0  0
   21.1874   74.3850   -4.4279 O   0  0  0  0  0  0  0  0  0  0  0  0
   18.9907   73.3089   -3.4836 O   0  0  0  0  0  0  0  0  0  0  0  0
   19.9819   72.5965   -5.8025 O   0  0  0  0  0  0  0  0  0  0  0  0
   18.8418   70.5467   -5.4629 O   0  0  0  0  0  0  0  0  0  0  0  0
   18.5390   70.7971   -9.5735 O   0  0  0  0  0  0  0  0  0  0  0  0
   16.2120   71.2431   -7.9504 O   0  0  0  0  0  0  0  0  0  0  0  0
   20.9702   71.6447   -8.2504 O   0  0  0  0  0  0  0  0  0  0  0  0
   18.5858   71.3045   -8.2371 C   0  0  1  0  0  0  0  0  0  0  0  0
   17.4263   70.6904   -7.4502 C   0  0  1  0  0  0  0  0  0  0  0  0
   19.9242   70.9256   -7.6060 C   0  0  2  0  0  0  0  0  0  0  0  0
   17.5640   70.9747   -5.9484 C   0  0  1  0  0  0  0  0  0  0  0  0
   19.9382   71.2037   -6.1018 C   0  0  1  0  0  0  0  0  0  0  0  0
   17.6918   71.0346   -9.9801 H   0  0  0  0  0  0  0  0  0  0  0  0
   16.1375   71.0570   -8.8997 H   0  0  0  0  0  0  0  0  0  0  0  0
   20.9508   71.4600   -9.2019 H   0  0  0  0  0  0  0  0  0  0  0  0
   15.7942   69.3700   -5.9883 O   0  0  0  0  0  0  0  0  0  0  0  0
   16.5062   70.2400   -5.1279 C   0  0  0  0  0  0  0  0  0  0  0  0
   15.1177   68.8953   -5.4797 H   0  0  0  0  0  0  0  0  0  0  0  0
 25 28  1  0
 25 24  1  0
 25 26  1  6
 25 27  2  0
  1  4  1  0
  1 24  1  0
  1  2  1  6
  1  3  2  0
  6 11  1  0
  6 12  1  0
 29 36  1  0
 29 37  1  0
  9  7  1  1
  7 13  1  0
 10  8  1  1
  8 14  1  0
 37 28  1  6
  4  5  1  0
 33 30  1  6
 30 38  1  0
 34 31  1  6
 31 39  1  0
 35 32  1  6
 32 40  1  0
 41 42  1  0
 41 43  1  0
 15 19  2  0
 16 22  2  0
 12 17  1  6
 17 19  1  0
 17 20  1  0
 18 19  1  0
 18 22  1  0
 18 23  1  0
  9 10  1  0
  9 11  1  0
 10 12  1  0
 11  5  1  6
 33 34  1  0
 33 35  1  0
 34 36  1  0
 35 37  1  0
 36 42  1  1
 20 21  2  0
 21 22  1  0
M  CHG  2   2  -1  26  -1
M  END
>  <COMPND>  (55) 
    8629 

>  <AUTHOR>  (55) 
    GENERATED BY OPEN BABEL 3.1.1

>  <MASTER>  (55) 
        0    0    0    0    0    0    0    0   58    0   58    0

>  <minimizedAffinity>  (55) 
-9.40172

>  <CNNscore>  (55) 
0.4889073372

>  <CNNaffinity>  (55) 
4.4093861580

>  <CNN_VS>  (55) 
2.1557812691

>  <CNNaffinity_variance>  (55) 
0.0977124125

$$$$
56
     RDKit          3D

 43 45  0  0  0  0  0  0  0  0999 V2000
   22.3935   69.3496    0.2948 P   0  0  2  0  0  0  0  0  0  0  0  0
   20.8006   69.2964    0.5728 O   0  0  0  0  0  0  0  0  0  0  0  0
   22.9918   68.0697   -0.2104 O   0  0  0  0  0  0  0  0  0  0  0  0
   23.0107   69.9152    1.6794 O   0  0  0  0  0  0  0  0  0  0  0  0
   22.8348   71.2871    1.9874 C   0  0  0  0  0  0  0  0  0  0  0  0
   23.9177   70.8850    4.0944 O   0  0  0  0  0  0  0  0  0  0  0  0
   22.0575   72.9440    5.2308 O   0  0  0  0  0  0  0  0  0  0  0  0
   24.3774   74.3441    4.9231 O   0  0  0  0  0  0  0  0  0  0  0  0
   22.6808   72.9011    3.9482 C   0  0  1  0  0  0  0  0  0  0  0  0
   24.1513   73.2433    4.0664 C   0  0  2  0  0  0  0  0  0  0  0  0
   22.7279   71.4463    3.4979 C   0  0  1  0  0  0  0  0  0  0  0  0
   24.7331   71.9497    4.6107 C   0  0  2  0  0  0  0  0  0  0  0  0
   22.0157   73.8633    5.5391 H   0  0  0  0  0  0  0  0  0  0  0  0
   23.9888   75.1426    4.5332 H   0  0  0  0  0  0  0  0  0  0  0  0
   26.9351   73.4596    5.5321 O   0  0  0  0  0  0  0  0  0  0  0  0
   29.8973   71.0631    2.9392 O   0  0  0  0  0  0  0  0  0  0  0  0
   26.0909   71.7415    4.1933 N   0  0  0  0  0  0  0  0  0  0  0  0
   28.4083   72.2650    4.2404 N   0  0  0  0  0  0  0  0  0  0  0  0
   27.1230   72.5554    4.7157 C   0  0  0  0  0  0  0  0  0  0  0  0
   26.3881   70.7393    3.2761 C   0  0  0  0  0  0  0  0  0  0  0  0
   27.6188   70.4760    2.8321 C   0  0  0  0  0  0  0  0  0  0  0  0
   28.7540   71.2805    3.3283 C   0  0  0  0  0  0  0  0  0  0  0  0
   29.1432   72.8194    4.5902 H   0  0  0  0  0  0  0  0  0  0  0  0
   22.5452   70.6061   -0.7107 O   0  0  0  0  0  0  0  0  0  0  0  0
   22.5541   70.6784   -2.3255 P   0  0  2  0  0  0  0  0  0  0  0  0
   23.3765   69.3520   -2.7518 O   0  0  0  0  0  0  0  0  0  0  0  0
   23.1104   71.9573   -2.8812 O   0  0  0  0  0  0  0  0  0  0  0  0
   21.0298   70.3690   -2.7567 O   0  0  0  0  0  0  0  0  0  0  0  0
   19.9867   72.2838   -3.6853 O   0  0  0  0  0  0  0  0  0  0  0  0
   16.6846   69.8258   -3.3606 O   0  0  0  0  0  0  0  0  0  0  0  0
   17.7971   70.3712   -5.9516 O   0  0  0  0  0  0  0  0  0  0  0  0
   18.7048   69.8115   -1.2874 O   0  0  0  0  0  0  0  0  0  0  0  0
   18.0630   70.1331   -3.5865 C   0  0  1  0  0  0  0  0  0  0  0  0
   18.1519   71.0924   -4.7751 C   0  0  1  0  0  0  0  0  0  0  0  0
   18.6429   70.7791   -2.3296 C   0  0  2  0  0  0  0  0  0  0  0  0
   19.5648   71.6758   -4.9116 C   0  0  1  0  0  0  0  0  0  0  0  0
   20.0300   71.3705   -2.5871 C   0  0  1  0  0  0  0  0  0  0  0  0
   16.3105   69.4149   -4.1548 H   0  0  0  0  0  0  0  0  0  0  0  0
   16.9031   70.0077   -5.8522 H   0  0  0  0  0  0  0  0  0  0  0  0
   17.8206   69.4449   -1.1338 H   0  0  0  0  0  0  0  0  0  0  0  0
   19.9991   72.1396   -7.2149 O   0  0  0  0  0  0  0  0  0  0  0  0
   19.6368   72.7531   -5.9916 C   0  0  0  0  0  0  0  0  0  0  0  0
   20.0485   72.8133   -7.9116 H   0  0  0  0  0  0  0  0  0  0  0  0
 25 28  1  0
 25 24  1  0
 25 26  1  6
 25 27  2  0
  1  4  1  0
  1 24  1  0
  1  2  1  1
  1  3  2  0
  6 11  1  0
  6 12  1  0
 29 36  1  0
 29 37  1  0
  9  7  1  1
  7 13  1  0
 10  8  1  1
  8 14  1  0
 37 28  1  6
  4  5  1  0
 33 30  1  1
 30 38  1  0
 34 31  1  6
 31 39  1  0
 35 32  1  1
 32 40  1  0
 41 42  1  0
 41 43  1  0
 15 19  2  0
 16 22  2  0
 12 17  1  6
 17 19  1  0
 17 20  1  0
 18 19  1  0
 18 22  1  0
 18 23  1  0
  9 10  1  0
  9 11  1  0
 10 12  1  0
 11  5  1  6
 33 34  1  0
 33 35  1  0
 34 36  1  0
 35 37  1  0
 36 42  1  6
 20 21  2  0
 21 22  1  0
M  CHG  2   2  -1  26  -1
M  END
>  <COMPND>  (56) 
    8629 

>  <AUTHOR>  (56) 
    GENERATED BY OPEN BABEL 3.1.1

>  <MASTER>  (56) 
        0    0    0    0    0    0    0    0   58    0   58    0

>  <minimizedAffinity>  (56) 
-9.14064

>  <CNNscore>  (56) 
0.4860212207

>  <CNNaffinity>  (56) 
4.6997442245

>  <CNN_VS>  (56) 
2.2841753960

>  <CNNaffinity_variance>  (56) 
0.1465450525

$$$$
57
     RDKit          3D

 43 45  0  0  0  0  0  0  0  0999 V2000
   22.3998   69.5700    0.4775 P   0  0  2  0  0  0  0  0  0  0  0  0
   20.7984   69.3662    0.5850 O   0  0  0  0  0  0  0  0  0  0  0  0
   23.1758   68.3291    0.1466 O   0  0  0  0  0  0  0  0  0  0  0  0
   22.7935   70.2946    1.8696 O   0  0  0  0  0  0  0  0  0  0  0  0
   23.9101   69.8074    2.5932 C   0  0  0  0  0  0  0  0  0  0  0  0
   24.9112   71.9686    2.2760 O   0  0  0  0  0  0  0  0  0  0  0  0
   27.5433   70.5336    2.2183 O   0  0  0  0  0  0  0  0  0  0  0  0
   27.4710   71.5409    4.7514 O   0  0  0  0  0  0  0  0  0  0  0  0
   26.3814   70.2561    2.9982 C   0  0  1  0  0  0  0  0  0  0  0  0
   26.2400   71.2734    4.1112 C   0  0  2  0  0  0  0  0  0  0  0  0
   25.1582   70.5520    2.1395 C   0  0  1  0  0  0  0  0  0  0  0  0
   25.6935   72.4802    3.3674 C   0  0  2  0  0  0  0  0  0  0  0  0
   28.3375   70.3517    2.7456 H   0  0  0  0  0  0  0  0  0  0  0  0
   27.7771   70.7430    5.2102 H   0  0  0  0  0  0  0  0  0  0  0  0
   26.6402   74.5643    5.0222 O   0  0  0  0  0  0  0  0  0  0  0  0
   22.3922   75.5642    6.5042 O   0  0  0  0  0  0  0  0  0  0  0  0
   24.8569   73.3016    4.1961 N   0  0  0  0  0  0  0  0  0  0  0  0
   24.5242   75.0606    5.7587 N   0  0  0  0  0  0  0  0  0  0  0  0
   25.4321   74.3208    4.9903 C   0  0  0  0  0  0  0  0  0  0  0  0
   23.4821   73.0930    4.2154 C   0  0  0  0  0  0  0  0  0  0  0  0
   22.6301   73.8064    4.9547 C   0  0  0  0  0  0  0  0  0  0  0  0
   23.1499   74.8905    5.8129 C   0  0  0  0  0  0  0  0  0  0  0  0
   24.9023   75.7758    6.3202 H   0  0  0  0  0  0  0  0  0  0  0  0
   22.5426   70.7616   -0.6054 O   0  0  0  0  0  0  0  0  0  0  0  0
   22.5435   70.7327   -2.2216 P   0  0  2  0  0  0  0  0  0  0  0  0
   23.3658   69.3832   -2.5682 O   0  0  0  0  0  0  0  0  0  0  0  0
   23.0953   71.9750   -2.8590 O   0  0  0  0  0  0  0  0  0  0  0  0
   21.0176   70.3953   -2.6250 O   0  0  0  0  0  0  0  0  0  0  0  0
   20.0076   72.3221   -3.5652 O   0  0  0  0  0  0  0  0  0  0  0  0
   16.6993   69.8565   -3.4011 O   0  0  0  0  0  0  0  0  0  0  0  0
   17.9084   70.4398   -5.9399 O   0  0  0  0  0  0  0  0  0  0  0  0
   18.6394   69.8145   -1.2531 O   0  0  0  0  0  0  0  0  0  0  0  0
   18.0848   70.1683   -3.5701 C   0  0  1  0  0  0  0  0  0  0  0  0
   18.2173   71.1445   -4.7407 C   0  0  1  0  0  0  0  0  0  0  0  0
   18.6156   70.7969   -2.2831 C   0  0  2  0  0  0  0  0  0  0  0  0
   19.6334   71.7312   -4.8152 C   0  0  1  0  0  0  0  0  0  0  0  0
   20.0106   71.3932   -2.4793 C   0  0  1  0  0  0  0  0  0  0  0  0
   16.3562   69.4566   -4.2146 H   0  0  0  0  0  0  0  0  0  0  0  0
   17.0118   70.0741   -5.8797 H   0  0  0  0  0  0  0  0  0  0  0  0
   17.7506   69.4449   -1.1384 H   0  0  0  0  0  0  0  0  0  0  0  0
   20.0948   72.2202   -7.1080 O   0  0  0  0  0  0  0  0  0  0  0  0
   19.7447   72.8239   -5.8762 C   0  0  0  0  0  0  0  0  0  0  0  0
   20.1688   72.9038   -7.7928 H   0  0  0  0  0  0  0  0  0  0  0  0
 25 28  1  0
 25 24  1  0
 25 26  1  1
 25 27  2  0
  1  4  1  0
  1 24  1  0
  1  2  1  1
  1  3  2  0
  6 11  1  0
  6 12  1  0
 29 36  1  0
 29 37  1  0
  9  7  1  6
  7 13  1  0
 10  8  1  6
  8 14  1  0
 37 28  1  6
  4  5  1  0
 33 30  1  1
 30 38  1  0
 34 31  1  6
 31 39  1  0
 35 32  1  1
 32 40  1  0
 41 42  1  0
 41 43  1  0
 15 19  2  0
 16 22  2  0
 12 17  1  1
 17 19  1  0
 17 20  1  0
 18 19  1  0
 18 22  1  0
 18 23  1  0
  9 10  1  0
  9 11  1  0
 10 12  1  0
 11  5  1  1
 33 34  1  0
 33 35  1  0
 34 36  1  0
 35 37  1  0
 36 42  1  6
 20 21  2  0
 21 22  1  0
M  CHG  2   2  -1  26  -1
M  END
>  <COMPND>  (57) 
    8629 

>  <AUTHOR>  (57) 
    GENERATED BY OPEN BABEL 3.1.1

>  <MASTER>  (57) 
        0    0    0    0    0    0    0    0   58    0   58    0

>  <minimizedAffinity>  (57) 
-8.42328

>  <CNNscore>  (57) 
0.4104607105

>  <CNNaffinity>  (57) 
4.3796796799

>  <CNN_VS>  (57) 
1.7976864576

>  <CNNaffinity_variance>  (57) 
0.1509730816

$$$$
58
     RDKit          3D

 43 45  0  0  0  0  0  0  0  0999 V2000
   21.5508   74.1769   -2.0269 P   0  0  2  0  0  0  0  0  0  0  0  0
   23.0605   73.7350   -2.4050 O   0  0  0  0  0  0  0  0  0  0  0  0
   21.2244   75.6158   -2.2995 O   0  0  0  0  0  0  0  0  0  0  0  0
   21.3784   73.6960   -0.4916 O   0  0  0  0  0  0  0  0  0  0  0  0
   22.3830   72.8736    0.0762 C   0  0  0  0  0  0  0  0  0  0  0  0
   22.7046   70.8086    1.2618 O   0  0  0  0  0  0  0  0  0  0  0  0
   20.2333   71.5246    2.8015 O   0  0  0  0  0  0  0  0  0  0  0  0
   22.2289   72.1995    4.5332 O   0  0  0  0  0  0  0  0  0  0  0  0
   21.2665   72.3752    2.3073 C   0  0  1  0  0  0  0  0  0  0  0  0
   22.5163   72.2285    3.1499 C   0  0  2  0  0  0  0  0  0  0  0  0
   21.7236   71.8254    0.9619 C   0  0  1  0  0  0  0  0  0  0  0  0
   23.0853   70.9140    2.6434 C   0  0  2  0  0  0  0  0  0  0  0  0
   19.9250   71.8559    3.6601 H   0  0  0  0  0  0  0  0  0  0  0  0
   21.8696   73.0579    4.8069 H   0  0  0  0  0  0  0  0  0  0  0  0
   24.5455   68.6938    3.6006 O   0  0  0  0  0  0  0  0  0  0  0  0
   28.5755   70.8368    2.9616 O   0  0  0  0  0  0  0  0  0  0  0  0
   24.5171   70.8644    2.7377 N   0  0  0  0  0  0  0  0  0  0  0  0
   26.5510   69.7626    3.2815 N   0  0  0  0  0  0  0  0  0  0  0  0
   25.1524   69.7020    3.2332 C   0  0  0  0  0  0  0  0  0  0  0  0
   25.2760   71.9601    2.3409 C   0  0  0  0  0  0  0  0  0  0  0  0
   26.6089   72.0025    2.3945 C   0  0  0  0  0  0  0  0  0  0  0  0
   27.3499   70.8288    2.9000 C   0  0  0  0  0  0  0  0  0  0  0  0
   27.0152   68.9643    3.6236 H   0  0  0  0  0  0  0  0  0  0  0  0
   20.6460   73.1153   -2.8439 O   0  0  0  0  0  0  0  0  0  0  0  0
   19.2254   72.4329   -2.4843 P   0  0  2  0  0  0  0  0  0  0  0  0
   18.3616   73.6651   -1.8902 O   0  0  0  0  0  0  0  0  0  0  0  0
   19.3263   71.2485   -1.5673 O   0  0  0  0  0  0  0  0  0  0  0  0
   18.5510   72.1150   -3.9157 O   0  0  0  0  0  0  0  0  0  0  0  0
   16.7647   73.0664   -5.1489 O   0  0  0  0  0  0  0  0  0  0  0  0
   15.9294   69.0682   -5.7554 O   0  0  0  0  0  0  0  0  0  0  0  0
   16.9779   70.6415   -7.9172 O   0  0  0  0  0  0  0  0  0  0  0  0
   16.9030   69.9656   -3.1812 O   0  0  0  0  0  0  0  0  0  0  0  0
   16.7704   70.2106   -5.5737 C   0  0  1  0  0  0  0  0  0  0  0  0
   16.4841   71.2015   -6.7036 C   0  0  1  0  0  0  0  0  0  0  0  0
   16.4686   70.8417   -4.2157 C   0  0  2  0  0  0  0  0  0  0  0  0
   17.1479   72.5582   -6.4322 C   0  0  1  0  0  0  0  0  0  0  0  0
   17.1370   72.2097   -4.0676 C   0  0  1  0  0  0  0  0  0  0  0  0
   16.1164   68.6625   -6.6156 H   0  0  0  0  0  0  0  0  0  0  0  0
   16.5512   69.7849   -8.0767 H   0  0  0  0  0  0  0  0  0  0  0  0
   16.4726   69.1033   -3.2860 H   0  0  0  0  0  0  0  0  0  0  0  0
   15.6141   73.1348   -8.1711 O   0  0  0  0  0  0  0  0  0  0  0  0
   16.7466   73.6083   -7.4658 C   0  0  0  0  0  0  0  0  0  0  0  0
   15.3471   73.7931   -8.8322 H   0  0  0  0  0  0  0  0  0  0  0  0
 25 28  1  0
 25 24  1  0
 25 26  1  1
 25 27  2  0
  1  4  1  0
  1 24  1  0
  1  2  1  6
  1  3  2  0
  6 11  1  0
  6 12  1  0
 29 36  1  0
 29 37  1  0
  9  7  1  1
  7 13  1  0
 10  8  1  1
  8 14  1  0
 37 28  1  6
  4  5  1  0
 33 30  1  6
 30 38  1  0
 34 31  1  6
 31 39  1  0
 35 32  1  1
 32 40  1  0
 41 42  1  0
 41 43  1  0
 15 19  2  0
 16 22  2  0
 12 17  1  6
 17 19  1  0
 17 20  1  0
 18 19  1  0
 18 22  1  0
 18 23  1  0
  9 10  1  0
  9 11  1  0
 10 12  1  0
 11  5  1  6
 33 34  1  0
 33 35  1  0
 34 36  1  0
 35 37  1  0
 36 42  1  6
 20 21  2  0
 21 22  1  0
M  CHG  2   2  -1  26  -1
M  END
>  <COMPND>  (58) 
    8629 

>  <AUTHOR>  (58) 
    GENERATED BY OPEN BABEL 3.1.1

>  <MASTER>  (58) 
        0    0    0    0    0    0    0    0   58    0   58    0

>  <minimizedAffinity>  (58) 
-7.58145

>  <CNNscore>  (58) 
0.4061155915

>  <CNNaffinity>  (58) 
3.9990844727

>  <CNN_VS>  (58) 
1.6240905523

>  <CNNaffinity_variance>  (58) 
0.3836361766

$$$$
59
     RDKit          3D

 43 45  0  0  0  0  0  0  0  0999 V2000
   21.7697   70.4146    0.3123 P   0  0  2  0  0  0  0  0  0  0  0  0
   21.7048   71.7466    1.2284 O   0  0  0  0  0  0  0  0  0  0  0  0
   20.5090   69.6014    0.2862 O   0  0  0  0  0  0  0  0  0  0  0  0
   23.0916   69.6448    0.8393 O   0  0  0  0  0  0  0  0  0  0  0  0
   24.1486   70.4135    1.3868 C   0  0  0  0  0  0  0  0  0  0  0  0
   25.7912   70.2115    3.1289 O   0  0  0  0  0  0  0  0  0  0  0  0
   23.4802   69.9212    5.0172 O   0  0  0  0  0  0  0  0  0  0  0  0
   24.2152   72.5232    5.3728 O   0  0  0  0  0  0  0  0  0  0  0  0
   23.5947   70.7327    3.8494 C   0  0  1  0  0  0  0  0  0  0  0  0
   24.4889   71.9241    4.1226 C   0  0  2  0  0  0  0  0  0  0  0  0
   24.4039   69.9578    2.8170 C   0  0  1  0  0  0  0  0  0  0  0  0
   25.8726   71.2995    4.0639 C   0  0  2  0  0  0  0  0  0  0  0  0
   22.9669   70.3951    5.6909 H   0  0  0  0  0  0  0  0  0  0  0  0
   23.3241   72.9060    5.3599 H   0  0  0  0  0  0  0  0  0  0  0  0
   27.1636   73.1830    5.7264 O   0  0  0  0  0  0  0  0  0  0  0  0
   29.6944   74.8054    2.2330 O   0  0  0  0  0  0  0  0  0  0  0  0
   26.8732   72.2262    3.6152 N   0  0  0  0  0  0  0  0  0  0  0  0
   28.4228   73.9891    3.9856 N   0  0  0  0  0  0  0  0  0  0  0  0
   27.4587   73.1315    4.5306 C   0  0  0  0  0  0  0  0  0  0  0  0
   27.2645   72.2311    2.2807 C   0  0  0  0  0  0  0  0  0  0  0  0
   28.1844   73.0562    1.7766 C   0  0  0  0  0  0  0  0  0  0  0  0
   28.8448   74.0332    2.6663 C   0  0  0  0  0  0  0  0  0  0  0  0
   28.8440   74.6288    4.6046 H   0  0  0  0  0  0  0  0  0  0  0  0
   22.2317   70.9859   -1.1275 O   0  0  0  0  0  0  0  0  0  0  0  0
   22.4059   70.2490   -2.5557 P   0  0  2  0  0  0  0  0  0  0  0  0
   22.8193   68.7394   -2.1463 O   0  0  0  0  0  0  0  0  0  0  0  0
   23.3729   70.9259   -3.4834 O   0  0  0  0  0  0  0  0  0  0  0  0
   20.9046   70.1180   -3.1337 O   0  0  0  0  0  0  0  0  0  0  0  0
   19.9762   72.1007   -4.0412 O   0  0  0  0  0  0  0  0  0  0  0  0
   16.5217   69.8720   -3.6530 O   0  0  0  0  0  0  0  0  0  0  0  0
   17.6181   70.3448   -6.2650 O   0  0  0  0  0  0  0  0  0  0  0  0
   18.5762   69.7172   -1.6195 O   0  0  0  0  0  0  0  0  0  0  0  0
   17.9132   70.0854   -3.9056 C   0  0  1  0  0  0  0  0  0  0  0  0
   18.0439   71.0384   -5.0954 C   0  0  1  0  0  0  0  0  0  0  0  0
   18.5599   70.6885   -2.6601 C   0  0  2  0  0  0  0  0  0  0  0  0
   19.4902   71.5247   -5.2593 C   0  0  1  0  0  0  0  0  0  0  0  0
   19.9787   71.1848   -2.9444 C   0  0  1  0  0  0  0  0  0  0  0  0
   16.1052   69.4887   -4.4398 H   0  0  0  0  0  0  0  0  0  0  0  0
   16.7036   70.0426   -6.1482 H   0  0  0  0  0  0  0  0  0  0  0  0
   17.6722   69.4112   -1.4488 H   0  0  0  0  0  0  0  0  0  0  0  0
   20.9786   72.9527   -6.4652 O   0  0  0  0  0  0  0  0  0  0  0  0
   19.6142   72.5964   -6.3401 C   0  0  0  0  0  0  0  0  0  0  0  0
   21.0728   73.6339   -7.1499 H   0  0  0  0  0  0  0  0  0  0  0  0
 25 28  1  0
 25 24  1  0
 25 26  1  1
 25 27  2  0
  1  4  1  0
  1 24  1  0
  1  2  1  1
  1  3  2  0
  6 11  1  0
  6 12  1  0
 29 36  1  0
 29 37  1  0
  9  7  1  1
  7 13  1  0
 10  8  1  1
  8 14  1  0
 37 28  1  6
  4  5  1  0
 33 30  1  1
 30 38  1  0
 34 31  1  6
 31 39  1  0
 35 32  1  1
 32 40  1  0
 41 42  1  0
 41 43  1  0
 15 19  2  0
 16 22  2  0
 12 17  1  6
 17 19  1  0
 17 20  1  0
 18 19  1  0
 18 22  1  0
 18 23  1  0
  9 10  1  0
  9 11  1  0
 10 12  1  0
 11  5  1  6
 33 34  1  0
 33 35  1  0
 34 36  1  0
 35 37  1  0
 36 42  1  6
 20 21  2  0
 21 22  1  0
M  CHG  2   2  -1  26  -1
M  END
>  <COMPND>  (59) 
    8629 

>  <AUTHOR>  (59) 
    GENERATED BY OPEN BABEL 3.1.1

>  <MASTER>  (59) 
        0    0    0    0    0    0    0    0   58    0   58    0

>  <minimizedAffinity>  (59) 
-8.98957

>  <CNNscore>  (59) 
0.3913096189

>  <CNNaffinity>  (59) 
4.4371533394

>  <CNN_VS>  (59) 
1.7363008261

>  <CNNaffinity_variance>  (59) 
0.0025276006

$$$$
60
     RDKit          3D

 43 45  0  0  0  0  0  0  0  0999 V2000
   22.3361   70.7928   -2.8461 P   0  0  2  0  0  0  0  0  0  0  0  0
   23.6249   71.5060   -3.5150 O   0  0  0  0  0  0  0  0  0  0  0  0
   22.4617   69.3102   -2.6520 O   0  0  0  0  0  0  0  0  0  0  0  0
   21.1001   71.2782   -3.7706 O   0  0  0  0  0  0  0  0  0  0  0  0
   20.7765   72.6575   -3.7970 C   0  0  0  0  0  0  0  0  0  0  0  0
   19.9478   71.9361   -5.9340 O   0  0  0  0  0  0  0  0  0  0  0  0
   19.6597   74.8465   -6.5952 O   0  0  0  0  0  0  0  0  0  0  0  0
   17.1058   74.1235   -5.9696 O   0  0  0  0  0  0  0  0  0  0  0  0
   19.4563   74.1797   -5.3505 C   0  0  1  0  0  0  0  0  0  0  0  0
   18.1625   73.3932   -5.3806 C   0  0  2  0  0  0  0  0  0  0  0  0
   20.4981   73.0739   -5.2348 C   0  0  1  0  0  0  0  0  0  0  0  0
   18.5547   72.1724   -6.1955 C   0  0  2  0  0  0  0  0  0  0  0  0
   19.0061   75.5575   -6.6915 H   0  0  0  0  0  0  0  0  0  0  0  0
   16.8932   74.8897   -5.4141 H   0  0  0  0  0  0  0  0  0  0  0  0
   16.1739   71.3360   -7.4643 O   0  0  0  0  0  0  0  0  0  0  0  0
   15.7677   67.6747   -4.6945 O   0  0  0  0  0  0  0  0  0  0  0  0
   17.8063   71.0041   -5.8265 N   0  0  0  0  0  0  0  0  0  0  0  0
   15.9737   69.5135   -6.0843 N   0  0  0  0  0  0  0  0  0  0  0  0
   16.6231   70.6729   -6.5272 C   0  0  0  0  0  0  0  0  0  0  0  0
   18.2471   70.2003   -4.7808 C   0  0  0  0  0  0  0  0  0  0  0  0
   17.6156   69.0987   -4.3698 C   0  0  0  0  0  0  0  0  0  0  0  0
   16.3715   68.6825   -5.0490 C   0  0  0  0  0  0  0  0  0  0  0  0
   15.1470   69.2634   -6.5573 H   0  0  0  0  0  0  0  0  0  0  0  0
   22.1221   71.6340   -1.4824 O   0  0  0  0  0  0  0  0  0  0  0  0
   21.0595   71.4513   -0.2781 P   0  0  2  0  0  0  0  0  0  0  0  0
   20.5622   69.9215   -0.4509 O   0  0  0  0  0  0  0  0  0  0  0  0
   19.9526   72.4656   -0.2749 O   0  0  0  0  0  0  0  0  0  0  0  0
   21.9589   71.4387    1.0619 O   0  0  0  0  0  0  0  0  0  0  0  0
   24.0074   72.4985    1.6069 O   0  0  0  0  0  0  0  0  0  0  0  0
   24.6448   68.8513    3.4350 O   0  0  0  0  0  0  0  0  0  0  0  0
   24.1327   71.1739    5.0447 O   0  0  0  0  0  0  0  0  0  0  0  0
   23.2803   68.9693    0.8848 O   0  0  0  0  0  0  0  0  0  0  0  0
   23.8709   69.9703    2.9944 C   0  0  1  0  0  0  0  0  0  0  0  0
   24.4333   71.2315    3.6531 C   0  0  1  0  0  0  0  0  0  0  0  0
   23.9617   70.0721    1.4730 C   0  0  2  0  0  0  0  0  0  0  0  0
   23.8320   72.4978    3.0285 C   0  0  1  0  0  0  0  0  0  0  0  0
   23.3796   71.3902    0.9593 C   0  0  1  0  0  0  0  0  0  0  0  0
   24.5909   68.7807    4.4002 H   0  0  0  0  0  0  0  0  0  0  0  0
   24.5176   70.3695    5.4268 H   0  0  0  0  0  0  0  0  0  0  0  0
   23.6582   68.1409    1.2177 H   0  0  0  0  0  0  0  0  0  0  0  0
   25.7324   73.4158    4.1486 O   0  0  0  0  0  0  0  0  0  0  0  0
   24.4937   73.7673    3.5602 C   0  0  0  0  0  0  0  0  0  0  0  0
   26.1650   74.2141    4.4912 H   0  0  0  0  0  0  0  0  0  0  0  0
 25 28  1  0
 25 24  1  0
 25 26  1  6
 25 27  2  0
  1  4  1  0
  1 24  1  0
  1  2  1  6
  1  3  2  0
  6 11  1  0
  6 12  1  0
 29 36  1  0
 29 37  1  0
  9  7  1  6
  7 13  1  0
 10  8  1  6
  8 14  1  0
 37 28  1  1
  4  5  1  0
 33 30  1  1
 30 38  1  0
 34 31  1  1
 31 39  1  0
 35 32  1  6
 32 40  1  0
 41 42  1  0
 41 43  1  0
 15 19  2  0
 16 22  2  0
 12 17  1  1
 17 19  1  0
 17 20  1  0
 18 19  1  0
 18 22  1  0
 18 23  1  0
  9 10  1  0
  9 11  1  0
 10 12  1  0
 11  5  1  1
 33 34  1  0
 33 35  1  0
 34 36  1  0
 35 37  1  0
 36 42  1  1
 20 21  2  0
 21 22  1  0
M  CHG  2   2  -1  26  -1
M  END
>  <COMPND>  (60) 
    8629 

>  <AUTHOR>  (60) 
    GENERATED BY OPEN BABEL 3.1.1

>  <MASTER>  (60) 
        0    0    0    0    0    0    0    0   58    0   58    0

>  <minimizedAffinity>  (60) 
-8.55501

>  <CNNscore>  (60) 
0.3580721617

>  <CNNaffinity>  (60) 
4.2151002884

>  <CNN_VS>  (60) 
1.5093101263

>  <CNNaffinity_variance>  (60) 
0.0810130164

$$$$
61
     RDKit          3D

 43 45  0  0  0  0  0  0  0  0999 V2000
   21.8472   71.9444   -1.5436 P   0  0  2  0  0  0  0  0  0  0  0  0
   20.9566   72.2512   -0.2282 O   0  0  0  0  0  0  0  0  0  0  0  0
   22.9739   72.9057   -1.7845 O   0  0  0  0  0  0  0  0  0  0  0  0
   20.7563   71.8282   -2.7328 O   0  0  0  0  0  0  0  0  0  0  0  0
   19.8967   70.7019   -2.7541 C   0  0  0  0  0  0  0  0  0  0  0  0
   18.2288   71.8293   -4.0660 O   0  0  0  0  0  0  0  0  0  0  0  0
   16.2116   70.5844   -2.2296 O   0  0  0  0  0  0  0  0  0  0  0  0
   16.0799   68.9812   -4.4317 O   0  0  0  0  0  0  0  0  0  0  0  0
   17.4386   70.0463   -2.7197 C   0  0  1  0  0  0  0  0  0  0  0  0
   17.2962   69.6533   -4.1753 C   0  0  2  0  0  0  0  0  0  0  0  0
   18.4522   71.1814   -2.7945 C   0  0  1  0  0  0  0  0  0  0  0  0
   17.3791   70.9994   -4.8747 C   0  0  2  0  0  0  0  0  0  0  0  0
   15.5487   69.8779   -2.1729 H   0  0  0  0  0  0  0  0  0  0  0  0
   16.0756   68.1309   -3.9651 H   0  0  0  0  0  0  0  0  0  0  0  0
   15.9300   70.2359   -7.1759 O   0  0  0  0  0  0  0  0  0  0  0  0
   19.6438   70.6459   -9.8743 O   0  0  0  0  0  0  0  0  0  0  0  0
   17.9422   70.8987   -6.1916 N   0  0  0  0  0  0  0  0  0  0  0  0
   17.7803   70.4409   -8.5177 N   0  0  0  0  0  0  0  0  0  0  0  0
   17.1284   70.5056   -7.2796 C   0  0  0  0  0  0  0  0  0  0  0  0
   19.2872   71.1884   -6.3941 C   0  0  0  0  0  0  0  0  0  0  0  0
   19.8940   71.1206   -7.5809 C   0  0  0  0  0  0  0  0  0  0  0  0
   19.1147   70.7178   -8.7694 C   0  0  0  0  0  0  0  0  0  0  0  0
   17.2333   70.1688   -9.2901 H   0  0  0  0  0  0  0  0  0  0  0  0
   22.3073   70.4108   -1.3214 O   0  0  0  0  0  0  0  0  0  0  0  0
   22.3809   69.5079    0.0174 P   0  0  2  0  0  0  0  0  0  0  0  0
   23.1166   68.1576   -0.4857 O   0  0  0  0  0  0  0  0  0  0  0  0
   21.0529   69.2796    0.6794 O   0  0  0  0  0  0  0  0  0  0  0  0
   23.4742   70.2454    0.9478 O   0  0  0  0  0  0  0  0  0  0  0  0
   24.8807   69.6202    2.7499 O   0  0  0  0  0  0  0  0  0  0  0  0
   23.3843   73.1533    4.2759 O   0  0  0  0  0  0  0  0  0  0  0  0
   26.1102   73.0380    3.3790 O   0  0  0  0  0  0  0  0  0  0  0  0
   21.6610   71.3918    2.7569 O   0  0  0  0  0  0  0  0  0  0  0  0
   23.8487   72.2695    3.2519 C   0  0  1  0  0  0  0  0  0  0  0  0
   25.2950   71.8850    3.5699 C   0  0  1  0  0  0  0  0  0  0  0  0
   22.9572   71.0295    3.2206 C   0  0  2  0  0  0  0  0  0  0  0  0
   25.7737   70.7373    2.6706 C   0  0  1  0  0  0  0  0  0  0  0  0
   23.5488   69.9307    2.3359 C   0  0  1  0  0  0  0  0  0  0  0  0
   23.9458   73.9429    4.3007 H   0  0  0  0  0  0  0  0  0  0  0  0
   25.7970   73.7553    3.9523 H   0  0  0  0  0  0  0  0  0  0  0  0
   21.2973   72.0878    3.3254 H   0  0  0  0  0  0  0  0  0  0  0  0
   27.5856   70.9588    4.2123 O   0  0  0  0  0  0  0  0  0  0  0  0
   27.1569   70.2323    3.0753 C   0  0  0  0  0  0  0  0  0  0  0  0
   28.4646   70.6478    4.4815 H   0  0  0  0  0  0  0  0  0  0  0  0
 25 28  1  0
 25 24  1  0
 25 26  1  6
 25 27  2  0
  1  4  1  0
  1 24  1  0
  1  2  1  1
  1  3  2  0
  6 11  1  0
  6 12  1  0
 29 36  1  0
 29 37  1  0
  9  7  1  6
  7 13  1  0
 10  8  1  1
  8 14  1  0
 37 28  1  6
  4  5  1  0
 33 30  1  1
 30 38  1  0
 34 31  1  6
 31 39  1  0
 35 32  1  6
 32 40  1  0
 41 42  1  0
 41 43  1  0
 15 19  2  0
 16 22  2  0
 12 17  1  6
 17 19  1  0
 17 20  1  0
 18 19  1  0
 18 22  1  0
 18 23  1  0
  9 10  1  0
  9 11  1  0
 10 12  1  0
 11  5  1  6
 33 34  1  0
 33 35  1  0
 34 36  1  0
 35 37  1  0
 36 42  1  1
 20 21  2  0
 21 22  1  0
M  CHG  2   2  -1  26  -1
M  END
>  <COMPND>  (61) 
    8629 

>  <AUTHOR>  (61) 
    GENERATED BY OPEN BABEL 3.1.1

>  <MASTER>  (61) 
        0    0    0    0    0    0    0    0   58    0   58    0

>  <minimizedAffinity>  (61) 
-9.04548

>  <CNNscore>  (61) 
0.8145344853

>  <CNNaffinity>  (61) 
4.9004793167

>  <CNN_VS>  (61) 
3.9916093349

>  <CNNaffinity_variance>  (61) 
0.2421886474

$$$$
62
     RDKit          3D

 43 45  0  0  0  0  0  0  0  0999 V2000
   22.6741   70.1304   -2.1718 P   0  0  2  0  0  0  0  0  0  0  0  0
   23.2992   71.2857   -3.1163 O   0  0  0  0  0  0  0  0  0  0  0  0
   23.2344   68.7566   -2.3959 O   0  0  0  0  0  0  0  0  0  0  0  0
   21.0767   70.2803   -2.3803 O   0  0  0  0  0  0  0  0  0  0  0  0
   20.5739   71.4998   -2.8979 C   0  0  0  0  0  0  0  0  0  0  0  0
   18.4673   71.9746   -3.9517 O   0  0  0  0  0  0  0  0  0  0  0  0
   17.2178   70.3574   -1.7576 O   0  0  0  0  0  0  0  0  0  0  0  0
   17.2490   68.6030   -3.8451 O   0  0  0  0  0  0  0  0  0  0  0  0
   18.4624   70.1609   -2.4266 C   0  0  1  0  0  0  0  0  0  0  0  0
   18.2297   69.6201   -3.8220 C   0  0  2  0  0  0  0  0  0  0  0  0
   19.0630   71.5316   -2.7127 C   0  0  1  0  0  0  0  0  0  0  0  0
   17.7969   70.8668   -4.5748 C   0  0  2  0  0  0  0  0  0  0  0  0
   16.8154   69.4957   -1.5640 H   0  0  0  0  0  0  0  0  0  0  0  0
   17.5713   67.8317   -3.3532 H   0  0  0  0  0  0  0  0  0  0  0  0
   16.0988   69.9600   -6.6417 O   0  0  0  0  0  0  0  0  0  0  0  0
   19.3008   70.7396   -9.8636 O   0  0  0  0  0  0  0  0  0  0  0  0
   18.1610   70.8223   -5.9629 N   0  0  0  0  0  0  0  0  0  0  0  0
   17.6945   70.3491   -8.2443 N   0  0  0  0  0  0  0  0  0  0  0  0
   17.2348   70.3487   -6.9212 C   0  0  0  0  0  0  0  0  0  0  0  0
   19.4241   71.2456   -6.3619 C   0  0  0  0  0  0  0  0  0  0  0  0
   19.8475   71.2384   -7.6276 C   0  0  0  0  0  0  0  0  0  0  0  0
   18.9410   70.7586   -8.6906 C   0  0  0  0  0  0  0  0  0  0  0  0
   17.0664   70.0230   -8.9292 H   0  0  0  0  0  0  0  0  0  0  0  0
   22.9027   70.7154   -0.6824 O   0  0  0  0  0  0  0  0  0  0  0  0
   22.3891   70.1865    0.7562 P   0  0  2  0  0  0  0  0  0  0  0  0
   22.8549   68.6372    0.7698 O   0  0  0  0  0  0  0  0  0  0  0  0
   20.9225   70.3944    1.0005 O   0  0  0  0  0  0  0  0  0  0  0  0
   23.3550   70.9119    1.8267 O   0  0  0  0  0  0  0  0  0  0  0  0
   25.5482   70.1016    2.2139 O   0  0  0  0  0  0  0  0  0  0  0  0
   24.9597   72.1332    5.7603 O   0  0  0  0  0  0  0  0  0  0  0  0
   26.7496   73.2102    3.7894 O   0  0  0  0  0  0  0  0  0  0  0  0
   22.7759   70.6595    4.5609 O   0  0  0  0  0  0  0  0  0  0  0  0
   24.8301   71.9002    4.3552 C   0  0  1  0  0  0  0  0  0  0  0  0
   26.2310   71.8839    3.7405 C   0  0  1  0  0  0  0  0  0  0  0  0
   24.1302   70.5605    4.1339 C   0  0  2  0  0  0  0  0  0  0  0  0
   26.1947   71.3774    2.2924 C   0  0  1  0  0  0  0  0  0  0  0  0
   24.1938   70.1254    2.6687 C   0  0  1  0  0  0  0  0  0  0  0  0
   25.4029   72.9825    5.9078 H   0  0  0  0  0  0  0  0  0  0  0  0
   26.7667   73.5183    4.7092 H   0  0  0  0  0  0  0  0  0  0  0  0
   22.7492   70.9353    5.4899 H   0  0  0  0  0  0  0  0  0  0  0  0
   28.0448   72.4593    1.2362 O   0  0  0  0  0  0  0  0  0  0  0  0
   27.5965   71.2035    1.7120 C   0  0  0  0  0  0  0  0  0  0  0  0
   28.9360   72.3640    0.8642 H   0  0  0  0  0  0  0  0  0  0  0  0
 25 28  1  0
 25 24  1  0
 25 26  1  6
 25 27  2  0
  1  4  1  0
  1 24  1  0
  1  2  1  6
  1  3  2  0
  6 11  1  0
  6 12  1  0
 29 36  1  0
 29 37  1  0
  9  7  1  6
  7 13  1  0
 10  8  1  1
  8 14  1  0
 37 28  1  6
  4  5  1  0
 33 30  1  1
 30 38  1  0
 34 31  1  6
 31 39  1  0
 35 32  1  6
 32 40  1  0
 41 42  1  0
 41 43  1  0
 15 19  2  0
 16 22  2  0
 12 17  1  6
 17 19  1  0
 17 20  1  0
 18 19  1  0
 18 22  1  0
 18 23  1  0
  9 10  1  0
  9 11  1  0
 10 12  1  0
 11  5  1  6
 33 34  1  0
 33 35  1  0
 34 36  1  0
 35 37  1  0
 36 42  1  1
 20 21  2  0
 21 22  1  0
M  CHG  2   2  -1  26  -1
M  END
>  <COMPND>  (62) 
    8629 

>  <AUTHOR>  (62) 
    GENERATED BY OPEN BABEL 3.1.1

>  <MASTER>  (62) 
        0    0    0    0    0    0    0    0   58    0   58    0

>  <minimizedAffinity>  (62) 
-9.42225

>  <CNNscore>  (62) 
0.7709510922

>  <CNNaffinity>  (62) 
5.0699129105

>  <CNN_VS>  (62) 
3.9086549282

>  <CNNaffinity_variance>  (62) 
0.3342642486

$$$$
63
     RDKit          3D

 43 45  0  0  0  0  0  0  0  0999 V2000
   21.0532   70.2493   -0.0063 P   0  0  2  0  0  0  0  0  0  0  0  0
   19.4548   70.4994    0.0031 O   0  0  0  0  0  0  0  0  0  0  0  0
   21.4936   68.9422    0.5845 O   0  0  0  0  0  0  0  0  0  0  0  0
   21.6582   71.5764    0.6942 O   0  0  0  0  0  0  0  0  0  0  0  0
   22.9106   71.4834    1.3504 C   0  0  0  0  0  0  0  0  0  0  0  0
   23.8194   70.7420    3.4476 O   0  0  0  0  0  0  0  0  0  0  0  0
   21.8530   72.5986    4.7426 O   0  0  0  0  0  0  0  0  0  0  0  0
   24.1774   74.0199    4.8582 O   0  0  0  0  0  0  0  0  0  0  0  0
   22.5804   72.7605    3.5260 C   0  0  1  0  0  0  0  0  0  0  0  0
   24.0329   73.0728    3.8195 C   0  0  2  0  0  0  0  0  0  0  0  0
   22.6779   71.3972    2.8526 C   0  0  1  0  0  0  0  0  0  0  0  0
   24.5796   71.7058    4.1946 C   0  0  2  0  0  0  0  0  0  0  0  0
   21.7774   73.4563    5.1905 H   0  0  0  0  0  0  0  0  0  0  0  0
   23.8151   74.8726    4.5711 H   0  0  0  0  0  0  0  0  0  0  0  0
   26.7083   72.6222    5.8091 O   0  0  0  0  0  0  0  0  0  0  0  0
   29.8710   71.1001    2.8221 O   0  0  0  0  0  0  0  0  0  0  0  0
   25.9691   71.5619    3.8632 N   0  0  0  0  0  0  0  0  0  0  0  0
   28.2813   71.8634    4.3206 N   0  0  0  0  0  0  0  0  0  0  0  0
   26.9599   72.0579    4.7423 C   0  0  0  0  0  0  0  0  0  0  0  0
   26.3375   70.9343    2.6782 C   0  0  0  0  0  0  0  0  0  0  0  0
   27.6022   70.7579    2.2899 C   0  0  0  0  0  0  0  0  0  0  0  0
   28.6980   71.2470    3.1513 C   0  0  0  0  0  0  0  0  0  0  0  0
   28.9885   72.2012    4.9169 H   0  0  0  0  0  0  0  0  0  0  0  0
   21.4433   70.4497   -1.5621 O   0  0  0  0  0  0  0  0  0  0  0  0
   20.9099   71.5068   -2.6626 P   0  0  2  0  0  0  0  0  0  0  0  0
   22.0837   71.5072   -3.7761 O   0  0  0  0  0  0  0  0  0  0  0  0
   20.5838   72.8625   -2.1061 O   0  0  0  0  0  0  0  0  0  0  0  0
   19.6698   70.7613   -3.3777 O   0  0  0  0  0  0  0  0  0  0  0  0
   17.9543   72.1778   -4.1944 O   0  0  0  0  0  0  0  0  0  0  0  0
   15.9408   68.5742   -4.3004 O   0  0  0  0  0  0  0  0  0  0  0  0
   16.7864   69.7988   -6.7567 O   0  0  0  0  0  0  0  0  0  0  0  0
   17.7465   69.1556   -2.1138 O   0  0  0  0  0  0  0  0  0  0  0  0
   17.0772   69.4356   -4.4106 C   0  0  1  0  0  0  0  0  0  0  0  0
   16.7906   70.4707   -5.5002 C   0  0  1  0  0  0  0  0  0  0  0  0
   17.3158   70.1215   -3.0667 C   0  0  2  0  0  0  0  0  0  0  0  0
   17.8436   71.5870   -5.4946 C   0  0  1  0  0  0  0  0  0  0  0  0
   18.3446   71.2478   -3.1822 C   0  0  1  0  0  0  0  0  0  0  0  0
   15.7842   68.1352   -5.1502 H   0  0  0  0  0  0  0  0  0  0  0  0
   16.1176   69.0962   -6.7468 H   0  0  0  0  0  0  0  0  0  0  0  0
   17.0866   68.4483   -2.0497 H   0  0  0  0  0  0  0  0  0  0  0  0
   17.6466   72.2271   -7.7881 O   0  0  0  0  0  0  0  0  0  0  0  0
   17.4910   72.7107   -6.4667 C   0  0  0  0  0  0  0  0  0  0  0  0
   17.4252   72.9316   -8.4177 H   0  0  0  0  0  0  0  0  0  0  0  0
 25 28  1  0
 25 24  1  0
 25 26  1  6
 25 27  2  0
  1  4  1  0
  1 24  1  0
  1  2  1  6
  1  3  2  0
  6 11  1  0
  6 12  1  0
 29 36  1  0
 29 37  1  0
  9  7  1  1
  7 13  1  0
 10  8  1  1
  8 14  1  0
 37 28  1  6
  4  5  1  0
 33 30  1  1
 30 38  1  0
 34 31  1  6
 31 39  1  0
 35 32  1  1
 32 40  1  0
 41 42  1  0
 41 43  1  0
 15 19  2  0
 16 22  2  0
 12 17  1  6
 17 19  1  0
 17 20  1  0
 18 19  1  0
 18 22  1  0
 18 23  1  0
  9 10  1  0
  9 11  1  0
 10 12  1  0
 11  5  1  6
 33 34  1  0
 33 35  1  0
 34 36  1  0
 35 37  1  0
 36 42  1  6
 20 21  2  0
 21 22  1  0
M  CHG  2   2  -1  26  -1
M  END
>  <COMPND>  (63) 
    8629 

>  <AUTHOR>  (63) 
    GENERATED BY OPEN BABEL 3.1.1

>  <MASTER>  (63) 
        0    0    0    0    0    0    0    0   58    0   58    0

>  <minimizedAffinity>  (63) 
-8.59069

>  <CNNscore>  (63) 
0.7619287968

>  <CNNaffinity>  (63) 
4.6405787468

>  <CNN_VS>  (63) 
3.5357906818

>  <CNNaffinity_variance>  (63) 
0.0985460281

$$$$
64
     RDKit          3D

 43 45  0  0  0  0  0  0  0  0999 V2000
   22.4580   70.4161   -2.0989 P   0  0  2  0  0  0  0  0  0  0  0  0
   23.0111   71.7552   -2.8188 O   0  0  0  0  0  0  0  0  0  0  0  0
   23.1556   69.1485   -2.4965 O   0  0  0  0  0  0  0  0  0  0  0  0
   20.8642   70.4570   -2.3742 O   0  0  0  0  0  0  0  0  0  0  0  0
   20.2868   71.6702   -2.8244 C   0  0  0  0  0  0  0  0  0  0  0  0
   18.1888   71.9605   -3.9594 O   0  0  0  0  0  0  0  0  0  0  0  0
   16.9973   70.2580   -1.7977 O   0  0  0  0  0  0  0  0  0  0  0  0
   17.2528   68.4996   -3.8663 O   0  0  0  0  0  0  0  0  0  0  0  0
   18.2782   70.1622   -2.4187 C   0  0  1  0  0  0  0  0  0  0  0  0
   18.1437   69.5953   -3.8166 C   0  0  2  0  0  0  0  0  0  0  0  0
   18.7726   71.5766   -2.6952 C   0  0  1  0  0  0  0  0  0  0  0  0
   17.6370   70.7967   -4.5964 C   0  0  2  0  0  0  0  0  0  0  0  0
   16.6612   69.3669   -1.6111 H   0  0  0  0  0  0  0  0  0  0  0  0
   17.6196   67.7610   -3.3558 H   0  0  0  0  0  0  0  0  0  0  0  0
   15.9761   70.0584   -6.7584 O   0  0  0  0  0  0  0  0  0  0  0  0
   19.3492   70.7464   -9.8227 O   0  0  0  0  0  0  0  0  0  0  0  0
   18.0552   70.7743   -5.9697 N   0  0  0  0  0  0  0  0  0  0  0  0
   17.6570   70.4018   -8.2825 N   0  0  0  0  0  0  0  0  0  0  0  0
   17.1435   70.3872   -6.9793 C   0  0  0  0  0  0  0  0  0  0  0  0
   19.3563   71.1338   -6.3038 C   0  0  0  0  0  0  0  0  0  0  0  0
   19.8308   71.1411   -7.5512 C   0  0  0  0  0  0  0  0  0  0  0  0
   18.9427   70.7499   -8.6649 C   0  0  0  0  0  0  0  0  0  0  0  0
   17.0400   70.1354   -9.0023 H   0  0  0  0  0  0  0  0  0  0  0  0
   22.5646   70.7781   -0.5270 O   0  0  0  0  0  0  0  0  0  0  0  0
   22.1596   69.9291    0.7876 P   0  0  2  0  0  0  0  0  0  0  0  0
   23.4359   68.9603    1.0114 O   0  0  0  0  0  0  0  0  0  0  0  0
   20.8474   69.2086    0.6747 O   0  0  0  0  0  0  0  0  0  0  0  0
   22.2370   70.9918    1.9999 O   0  0  0  0  0  0  0  0  0  0  0  0
   22.8018   73.2931    2.0427 O   0  0  0  0  0  0  0  0  0  0  0  0
   24.6230   72.1015    5.5518 O   0  0  0  0  0  0  0  0  0  0  0  0
   22.2279   73.6823    5.6631 O   0  0  0  0  0  0  0  0  0  0  0  0
   24.6781   70.3668    3.2350 O   0  0  0  0  0  0  0  0  0  0  0  0
   23.6138   72.0901    4.5385 C   0  0  1  0  0  0  0  0  0  0  0  0
   22.9848   73.4831    4.4725 C   0  0  1  0  0  0  0  0  0  0  0  0
   24.2541   71.7253    3.2004 C   0  0  2  0  0  0  0  0  0  0  0  0
   22.0854   73.6269    3.2373 C   0  0  1  0  0  0  0  0  0  0  0  0
   23.2911   71.9505    2.0334 C   0  0  1  0  0  0  0  0  0  0  0  0
   24.2230   72.3320    6.4041 H   0  0  0  0  0  0  0  0  0  0  0  0
   22.8073   73.5883    6.4356 H   0  0  0  0  0  0  0  0  0  0  0  0
   25.2875   70.2372    3.9779 H   0  0  0  0  0  0  0  0  0  0  0  0
   22.5257   75.9438    3.6205 O   0  0  0  0  0  0  0  0  0  0  0  0
   21.5732   75.0553    3.0659 C   0  0  0  0  0  0  0  0  0  0  0  0
   22.2132   76.8568    3.5183 H   0  0  0  0  0  0  0  0  0  0  0  0
 25 28  1  0
 25 24  1  0
 25 26  1  1
 25 27  2  0
  1  4  1  0
  1 24  1  0
  1  2  1  6
  1  3  2  0
  6 11  1  0
  6 12  1  0
 29 36  1  0
 29 37  1  0
  9  7  1  6
  7 13  1  0
 10  8  1  1
  8 14  1  0
 37 28  1  1
  4  5  1  0
 33 30  1  1
 30 38  1  0
 34 31  1  1
 31 39  1  0
 35 32  1  1
 32 40  1  0
 41 42  1  0
 41 43  1  0
 15 19  2  0
 16 22  2  0
 12 17  1  6
 17 19  1  0
 17 20  1  0
 18 19  1  0
 18 22  1  0
 18 23  1  0
  9 10  1  0
  9 11  1  0
 10 12  1  0
 11  5  1  6
 33 34  1  0
 33 35  1  0
 34 36  1  0
 35 37  1  0
 36 42  1  6
 20 21  2  0
 21 22  1  0
M  CHG  2   2  -1  26  -1
M  END
>  <COMPND>  (64) 
    8629 

>  <AUTHOR>  (64) 
    GENERATED BY OPEN BABEL 3.1.1

>  <MASTER>  (64) 
        0    0    0    0    0    0    0    0   58    0   58    0

>  <minimizedAffinity>  (64) 
-8.50079

>  <CNNscore>  (64) 
0.6271941662

>  <CNNaffinity>  (64) 
4.8387184143

>  <CNN_VS>  (64) 
3.0348160267

>  <CNNaffinity_variance>  (64) 
0.3251174986

$$$$
65
     RDKit          3D

 43 45  0  0  0  0  0  0  0  0999 V2000
   22.1890   69.4656   -0.0120 P   0  0  2  0  0  0  0  0  0  0  0  0
   20.8830   69.5701    0.9371 O   0  0  0  0  0  0  0  0  0  0  0  0
   22.7810   68.0916   -0.1265 O   0  0  0  0  0  0  0  0  0  0  0  0
   23.1779   70.6112    0.5604 O   0  0  0  0  0  0  0  0  0  0  0  0
   24.3114   70.2125    1.3114 C   0  0  0  0  0  0  0  0  0  0  0  0
   25.2088   70.1443    3.5394 O   0  0  0  0  0  0  0  0  0  0  0  0
   22.6724   71.4915    4.4012 O   0  0  0  0  0  0  0  0  0  0  0  0
   24.4497   73.5587    4.3325 O   0  0  0  0  0  0  0  0  0  0  0  0
   23.4243   71.6665    3.2014 C   0  0  1  0  0  0  0  0  0  0  0  0
   24.6863   72.4553    3.4820 C   0  0  2  0  0  0  0  0  0  0  0  0
   23.9819   70.3082    2.7948 C   0  0  1  0  0  0  0  0  0  0  0  0
   25.5786   71.4050    4.1214 C   0  0  2  0  0  0  0  0  0  0  0  0
   22.3059   72.3457    4.6803 H   0  0  0  0  0  0  0  0  0  0  0  0
   23.8775   74.1984    3.8808 H   0  0  0  0  0  0  0  0  0  0  0  0
   27.1273   73.3593    5.4482 O   0  0  0  0  0  0  0  0  0  0  0  0
   30.9144   72.2326    3.0755 O   0  0  0  0  0  0  0  0  0  0  0  0
   26.9719   71.6437    3.8703 N   0  0  0  0  0  0  0  0  0  0  0  0
   29.0117   72.7966    4.2658 N   0  0  0  0  0  0  0  0  0  0  0  0
   27.6571   72.6499    4.5905 C   0  0  0  0  0  0  0  0  0  0  0  0
   27.6447   70.8842    2.9193 C   0  0  0  0  0  0  0  0  0  0  0  0
   28.9364   71.0375    2.6205 C   0  0  0  0  0  0  0  0  0  0  0  0
   29.7249   72.0672    3.3276 C   0  0  0  0  0  0  0  0  0  0  0  0
   29.5093   73.4918    4.7545 H   0  0  0  0  0  0  0  0  0  0  0  0
   21.6743   70.0949   -1.4092 O   0  0  0  0  0  0  0  0  0  0  0  0
   21.3460   71.6210   -1.8290 P   0  0  2  0  0  0  0  0  0  0  0  0
   22.6533   72.0629   -2.6735 O   0  0  0  0  0  0  0  0  0  0  0  0
   21.0225   72.5215   -0.6721 O   0  0  0  0  0  0  0  0  0  0  0  0
   20.1720   71.4983   -2.9298 O   0  0  0  0  0  0  0  0  0  0  0  0
   19.4178   69.5955   -4.1245 O   0  0  0  0  0  0  0  0  0  0  0  0
   18.9244   72.4565   -7.0608 O   0  0  0  0  0  0  0  0  0  0  0  0
   16.6170   71.3494   -5.7577 O   0  0  0  0  0  0  0  0  0  0  0  0
   21.2191   72.5752   -5.3002 O   0  0  0  0  0  0  0  0  0  0  0  0
   18.9319   71.9499   -5.7234 C   0  0  1  0  0  0  0  0  0  0  0  0
   17.9263   70.7998   -5.6406 C   0  0  1  0  0  0  0  0  0  0  0  0
   20.3382   71.4600   -5.3831 C   0  0  2  0  0  0  0  0  0  0  0  0
   18.0681   70.0342   -4.3182 C   0  0  1  0  0  0  0  0  0  0  0  0
   20.3594   70.6692   -4.0738 C   0  0  1  0  0  0  0  0  0  0  0  0
   18.0345   72.7696   -7.2831 H   0  0  0  0  0  0  0  0  0  0  0  0
   16.5408   71.8306   -6.5967 H   0  0  0  0  0  0  0  0  0  0  0  0
   21.1969   73.0674   -6.1351 H   0  0  0  0  0  0  0  0  0  0  0  0
   17.6991   67.9024   -3.3042 O   0  0  0  0  0  0  0  0  0  0  0  0
   17.1847   68.7891   -4.2806 C   0  0  0  0  0  0  0  0  0  0  0  0
   17.1466   67.1054   -3.2689 H   0  0  0  0  0  0  0  0  0  0  0  0
 25 28  1  0
 25 24  1  0
 25 26  1  6
 25 27  2  0
  1  4  1  0
  1 24  1  0
  1  2  1  1
  1  3  2  0
  6 11  1  0
  6 12  1  0
 29 36  1  0
 29 37  1  0
  9  7  1  1
  7 13  1  0
 10  8  1  1
  8 14  1  0
 37 28  1  1
  4  5  1  0
 33 30  1  6
 30 38  1  0
 34 31  1  1
 31 39  1  0
 35 32  1  1
 32 40  1  0
 41 42  1  0
 41 43  1  0
 15 19  2  0
 16 22  2  0
 12 17  1  6
 17 19  1  0
 17 20  1  0
 18 19  1  0
 18 22  1  0
 18 23  1  0
  9 10  1  0
  9 11  1  0
 10 12  1  0
 11  5  1  6
 33 34  1  0
 33 35  1  0
 34 36  1  0
 35 37  1  0
 36 42  1  6
 20 21  2  0
 21 22  1  0
M  CHG  2   2  -1  26  -1
M  END
>  <COMPND>  (65) 
    8629 

>  <AUTHOR>  (65) 
    GENERATED BY OPEN BABEL 3.1.1

>  <MASTER>  (65) 
        0    0    0    0    0    0    0    0   58    0   58    0

>  <minimizedAffinity>  (65) 
-8.94977

>  <CNNscore>  (65) 
0.6264449358

>  <CNNaffinity>  (65) 
4.8336911201

>  <CNN_VS>  (65) 
3.0280413628

>  <CNNaffinity_variance>  (65) 
0.3876577914

$$$$
66
     RDKit          3D

 43 45  0  0  0  0  0  0  0  0999 V2000
   22.0126   70.3221    0.8762 P   0  0  2  0  0  0  0  0  0  0  0  0
   20.8090   69.2611    0.6687 O   0  0  0  0  0  0  0  0  0  0  0  0
   23.3641   69.7110    1.1030 O   0  0  0  0  0  0  0  0  0  0  0  0
   21.4748   71.2944    2.0524 O   0  0  0  0  0  0  0  0  0  0  0  0
   22.2939   72.3750    2.4637 C   0  0  0  0  0  0  0  0  0  0  0  0
   23.4787   71.4956    4.3602 O   0  0  0  0  0  0  0  0  0  0  0  0
   22.2840   73.7603    5.9205 O   0  0  0  0  0  0  0  0  0  0  0  0
   24.8172   74.6449    5.4341 O   0  0  0  0  0  0  0  0  0  0  0  0
   22.7353   73.7362    4.5673 C   0  0  1  0  0  0  0  0  0  0  0  0
   24.2490   73.7313    4.5180 C   0  0  2  0  0  0  0  0  0  0  0  0
   22.3937   72.3712    3.9829 C   0  0  1  0  0  0  0  0  0  0  0  0
   24.5707   72.2860    4.8579 C   0  0  2  0  0  0  0  0  0  0  0  0
   22.4908   74.6226    6.3149 H   0  0  0  0  0  0  0  0  0  0  0  0
   24.5842   75.5500    5.1750 H   0  0  0  0  0  0  0  0  0  0  0  0
   27.1554   72.8238    5.8621 O   0  0  0  0  0  0  0  0  0  0  0  0
   29.1720   70.5147    2.4208 O   0  0  0  0  0  0  0  0  0  0  0  0
   25.7888   71.8372    4.2446 N   0  0  0  0  0  0  0  0  0  0  0  0
   28.1574   71.6734    4.1478 N   0  0  0  0  0  0  0  0  0  0  0  0
   27.0352   72.1623    4.8288 C   0  0  0  0  0  0  0  0  0  0  0  0
   25.7399   71.0831    3.0772 C   0  0  0  0  0  0  0  0  0  0  0  0
   26.8194   70.6256    2.4394 C   0  0  0  0  0  0  0  0  0  0  0  0
   28.1603   70.9211    2.9840 C   0  0  0  0  0  0  0  0  0  0  0  0
   29.0366   71.8879    4.5362 H   0  0  0  0  0  0  0  0  0  0  0  0
   21.9077   71.2530   -0.4411 O   0  0  0  0  0  0  0  0  0  0  0  0
   21.9214   70.8742   -2.0125 P   0  0  2  0  0  0  0  0  0  0  0  0
   22.5984   69.4050   -2.0341 O   0  0  0  0  0  0  0  0  0  0  0  0
   22.6087   71.8856   -2.8834 O   0  0  0  0  0  0  0  0  0  0  0  0
   20.3722   70.6146   -2.3836 O   0  0  0  0  0  0  0  0  0  0  0  0
   19.2289   69.4495   -4.1018 O   0  0  0  0  0  0  0  0  0  0  0  0
   16.9929   72.9206   -4.0577 O   0  0  0  0  0  0  0  0  0  0  0  0
   15.8707   70.4976   -3.0006 O   0  0  0  0  0  0  0  0  0  0  0  0
   19.8612   73.0460   -3.6884 O   0  0  0  0  0  0  0  0  0  0  0  0
   17.7716   71.8651   -3.4878 C   0  0  1  0  0  0  0  0  0  0  0  0
   17.0654   70.5388   -3.7760 C   0  0  1  0  0  0  0  0  0  0  0  0
   19.1652   71.8792   -4.1132 C   0  0  2  0  0  0  0  0  0  0  0  0
   17.9668   69.3452   -3.4326 C   0  0  1  0  0  0  0  0  0  0  0  0
   19.9608   70.6247   -3.7481 C   0  0  1  0  0  0  0  0  0  0  0  0
   16.1070   72.9175   -3.6645 H   0  0  0  0  0  0  0  0  0  0  0  0
   15.3107   71.2568   -3.2267 H   0  0  0  0  0  0  0  0  0  0  0  0
   19.3475   73.8332   -3.9255 H   0  0  0  0  0  0  0  0  0  0  0  0
   16.1306   68.2866   -4.5356 O   0  0  0  0  0  0  0  0  0  0  0  0
   17.3444   68.0173   -3.8585 C   0  0  0  0  0  0  0  0  0  0  0  0
   15.7234   67.4505   -4.8129 H   0  0  0  0  0  0  0  0  0  0  0  0
 25 28  1  0
 25 24  1  0
 25 26  1  1
 25 27  2  0
  1  4  1  0
  1 24  1  0
  1  2  1  6
  1  3  2  0
  6 11  1  0
  6 12  1  0
 29 36  1  0
 29 37  1  0
  9  7  1  1
  7 13  1  0
 10  8  1  1
  8 14  1  0
 37 28  1  1
  4  5  1  0
 33 30  1  6
 30 38  1  0
 34 31  1  1
 31 39  1  0
 35 32  1  1
 32 40  1  0
 41 42  1  0
 41 43  1  0
 15 19  2  0
 16 22  2  0
 12 17  1  6
 17 19  1  0
 17 20  1  0
 18 19  1  0
 18 22  1  0
 18 23  1  0
  9 10  1  0
  9 11  1  0
 10 12  1  0
 11  5  1  6
 33 34  1  0
 33 35  1  0
 34 36  1  0
 35 37  1  0
 36 42  1  6
 20 21  2  0
 21 22  1  0
M  CHG  2   2  -1  26  -1
M  END
>  <COMPND>  (66) 
    8629 

>  <AUTHOR>  (66) 
    GENERATED BY OPEN BABEL 3.1.1

>  <MASTER>  (66) 
        0    0    0    0    0    0    0    0   58    0   58    0

>  <minimizedAffinity>  (66) 
-8.14108

>  <CNNscore>  (66) 
0.6002184153

>  <CNNaffinity>  (66) 
4.4031953812

>  <CNN_VS>  (66) 
2.6428790092

>  <CNNaffinity_variance>  (66) 
0.1642538458

$$$$
67
     RDKit          3D

 43 45  0  0  0  0  0  0  0  0999 V2000
   21.2777   70.5017   -0.4084 P   0  0  2  0  0  0  0  0  0  0  0  0
   20.7184   69.3579    0.5897 O   0  0  0  0  0  0  0  0  0  0  0  0
   22.0012   69.9883   -1.6185 O   0  0  0  0  0  0  0  0  0  0  0  0
   22.1313   71.4780    0.5590 O   0  0  0  0  0  0  0  0  0  0  0  0
   23.2381   70.9370    1.2592 C   0  0  0  0  0  0  0  0  0  0  0  0
   24.1124   70.4847    3.4512 O   0  0  0  0  0  0  0  0  0  0  0  0
   21.9518   72.2908    4.4812 O   0  0  0  0  0  0  0  0  0  0  0  0
   24.1495   73.9045    4.5312 O   0  0  0  0  0  0  0  0  0  0  0  0
   22.7154   72.3913    3.2803 C   0  0  1  0  0  0  0  0  0  0  0  0
   24.1249   72.8505    3.5903 C   0  0  2  0  0  0  0  0  0  0  0  0
   22.9491   70.9809    2.7534 C   0  0  1  0  0  0  0  0  0  0  0  0
   24.7614   71.5775    4.1216 C   0  0  2  0  0  0  0  0  0  0  0  0
   21.7896   73.1793    4.8363 H   0  0  0  0  0  0  0  0  0  0  0  0
   23.7335   74.6916    4.1463 H   0  0  0  0  0  0  0  0  0  0  0  0
   26.7345   72.8854    5.6624 O   0  0  0  0  0  0  0  0  0  0  0  0
   30.1381   71.2767    3.0037 O   0  0  0  0  0  0  0  0  0  0  0  0
   26.1708   71.5172    3.8548 N   0  0  0  0  0  0  0  0  0  0  0  0
   28.4276   72.0832    4.3375 N   0  0  0  0  0  0  0  0  0  0  0  0
   27.0778   72.2113    4.6891 C   0  0  0  0  0  0  0  0  0  0  0  0
   26.6409   70.7758    2.7763 C   0  0  0  0  0  0  0  0  0  0  0  0
   27.9312   70.6648    2.4537 C   0  0  0  0  0  0  0  0  0  0  0  0
   28.9441   71.3592    3.2746 C   0  0  0  0  0  0  0  0  0  0  0  0
   29.0778   72.5584    4.9043 H   0  0  0  0  0  0  0  0  0  0  0  0
   19.9581   71.3766   -0.7345 O   0  0  0  0  0  0  0  0  0  0  0  0
   18.6192   71.0098   -1.5626 P   0  0  2  0  0  0  0  0  0  0  0  0
   17.5214   72.0386   -0.9677 O   0  0  0  0  0  0  0  0  0  0  0  0
   18.2216   69.5644   -1.4809 O   0  0  0  0  0  0  0  0  0  0  0  0
   18.9064   71.5409   -3.0595 O   0  0  0  0  0  0  0  0  0  0  0  0
   18.4045   70.1243   -4.8919 O   0  0  0  0  0  0  0  0  0  0  0  0
   21.0492   72.6944   -6.7497 O   0  0  0  0  0  0  0  0  0  0  0  0
   18.2474   72.8587   -7.3591 O   0  0  0  0  0  0  0  0  0  0  0  0
   21.5242   71.8596   -4.0190 O   0  0  0  0  0  0  0  0  0  0  0  0
   20.0126   72.3291   -5.8345 C   0  0  1  0  0  0  0  0  0  0  0  0
   18.8343   71.7778   -6.6397 C   0  0  1  0  0  0  0  0  0  0  0  0
   20.5474   71.2711   -4.8711 C   0  0  2  0  0  0  0  0  0  0  0  0
   17.7951   71.1204   -5.7214 C   0  0  1  0  0  0  0  0  0  0  0  0
   19.4259   70.6460   -4.0396 C   0  0  1  0  0  0  0  0  0  0  0  0
   20.7163   73.3662   -7.3640 H   0  0  0  0  0  0  0  0  0  0  0  0
   18.9141   73.2654   -7.9347 H   0  0  0  0  0  0  0  0  0  0  0  0
   22.2288   72.2515   -4.5573 H   0  0  0  0  0  0  0  0  0  0  0  0
   16.0427   69.4973   -5.6632 O   0  0  0  0  0  0  0  0  0  0  0  0
   16.6897   70.4259   -6.5138 C   0  0  0  0  0  0  0  0  0  0  0  0
   15.3364   69.0479   -6.1540 H   0  0  0  0  0  0  0  0  0  0  0  0
 25 28  1  0
 25 24  1  0
 25 26  1  1
 25 27  2  0
  1  4  1  0
  1 24  1  0
  1  2  1  1
  1  3  2  0
  6 11  1  0
  6 12  1  0
 29 36  1  0
 29 37  1  0
  9  7  1  1
  7 13  1  0
 10  8  1  1
  8 14  1  0
 37 28  1  1
  4  5  1  0
 33 30  1  6
 30 38  1  0
 34 31  1  1
 31 39  1  0
 35 32  1  1
 32 40  1  0
 41 42  1  0
 41 43  1  0
 15 19  2  0
 16 22  2  0
 12 17  1  6
 17 19  1  0
 17 20  1  0
 18 19  1  0
 18 22  1  0
 18 23  1  0
  9 10  1  0
  9 11  1  0
 10 12  1  0
 11  5  1  6
 33 34  1  0
 33 35  1  0
 34 36  1  0
 35 37  1  0
 36 42  1  6
 20 21  2  0
 21 22  1  0
M  CHG  2   2  -1  26  -1
M  END
>  <COMPND>  (67) 
    8629 

>  <AUTHOR>  (67) 
    GENERATED BY OPEN BABEL 3.1.1

>  <MASTER>  (67) 
        0    0    0    0    0    0    0    0   58    0   58    0

>  <minimizedAffinity>  (67) 
-8.67242

>  <CNNscore>  (67) 
0.5951139331

>  <CNNaffinity>  (67) 
4.5553407669

>  <CNN_VS>  (67) 
2.7109467983

>  <CNNaffinity_variance>  (67) 
0.0032604169

$$$$
68
     RDKit          3D

 43 45  0  0  0  0  0  0  0  0999 V2000
   20.3386   71.1687    0.6217 P   0  0  2  0  0  0  0  0  0  0  0  0
   21.1783   72.1652   -0.3371 O   0  0  0  0  0  0  0  0  0  0  0  0
   19.4293   71.8493    1.6022 O   0  0  0  0  0  0  0  0  0  0  0  0
   21.4679   70.2040    1.2635 O   0  0  0  0  0  0  0  0  0  0  0  0
   22.6607   70.7919    1.7528 C   0  0  0  0  0  0  0  0  0  0  0  0
   23.6819   70.6576    3.9238 O   0  0  0  0  0  0  0  0  0  0  0  0
   21.6909   72.7289    4.7820 O   0  0  0  0  0  0  0  0  0  0  0  0
   23.9558   74.2008    4.4071 O   0  0  0  0  0  0  0  0  0  0  0  0
   22.3625   72.5866    3.5314 C   0  0  1  0  0  0  0  0  0  0  0  0
   23.8109   73.0095    3.6612 C   0  0  2  0  0  0  0  0  0  0  0  0
   22.4911   71.0977    3.2346 C   0  0  1  0  0  0  0  0  0  0  0  0
   24.4293   71.8071    4.3540 C   0  0  2  0  0  0  0  0  0  0  0  0
   21.5967   73.6716    4.9927 H   0  0  0  0  0  0  0  0  0  0  0  0
   23.5466   74.9362    3.9249 H   0  0  0  0  0  0  0  0  0  0  0  0
   26.5812   73.1600    5.5854 O   0  0  0  0  0  0  0  0  0  0  0  0
   29.6835   71.0241    2.9292 O   0  0  0  0  0  0  0  0  0  0  0  0
   25.8096   71.6234    4.0041 N   0  0  0  0  0  0  0  0  0  0  0  0
   28.1242   72.0952    4.2620 N   0  0  0  0  0  0  0  0  0  0  0  0
   26.8133   72.3525    4.6833 C   0  0  0  0  0  0  0  0  0  0  0  0
   26.1563   70.7282    2.9980 C   0  0  0  0  0  0  0  0  0  0  0  0
   27.4110   70.4953    2.6071 C   0  0  0  0  0  0  0  0  0  0  0  0
   28.5192   71.2162    3.2660 C   0  0  0  0  0  0  0  0  0  0  0  0
   28.8401   72.5920    4.7207 H   0  0  0  0  0  0  0  0  0  0  0  0
   19.5876   70.1986   -0.4308 O   0  0  0  0  0  0  0  0  0  0  0  0
   18.3656   70.4819   -1.4503 P   0  0  2  0  0  0  0  0  0  0  0  0
   17.4643   71.5662   -0.6568 O   0  0  0  0  0  0  0  0  0  0  0  0
   17.6206   69.2498   -1.8754 O   0  0  0  0  0  0  0  0  0  0  0  0
   19.0300   71.3138   -2.6634 O   0  0  0  0  0  0  0  0  0  0  0  0
   18.9642   71.0351   -5.0159 O   0  0  0  0  0  0  0  0  0  0  0  0
   22.9293   72.1057   -4.5890 O   0  0  0  0  0  0  0  0  0  0  0  0
   21.0713   73.9739   -5.7317 O   0  0  0  0  0  0  0  0  0  0  0  0
   21.6783   70.3864   -2.6247 O   0  0  0  0  0  0  0  0  0  0  0  0
   21.5330   72.1292   -4.2809 C   0  0  1  0  0  0  0  0  0  0  0  0
   20.7750   72.5955   -5.5254 C   0  0  1  0  0  0  0  0  0  0  0  0
   21.0877   70.7255   -3.8748 C   0  0  2  0  0  0  0  0  0  0  0  0
   19.2627   72.3928   -5.3614 C   0  0  1  0  0  0  0  0  0  0  0  0
   19.5642   70.6193   -3.7875 C   0  0  1  0  0  0  0  0  0  0  0  0
   23.2185   72.9940   -4.8472 H   0  0  0  0  0  0  0  0  0  0  0  0
   22.0294   74.0882   -5.8333 H   0  0  0  0  0  0  0  0  0  0  0  0
   22.6428   70.4572   -2.6931 H   0  0  0  0  0  0  0  0  0  0  0  0
   18.4934   74.1064   -6.8381 O   0  0  0  0  0  0  0  0  0  0  0  0
   18.5011   72.7035   -6.6481 C   0  0  0  0  0  0  0  0  0  0  0  0
   18.0123   74.3190   -7.6536 H   0  0  0  0  0  0  0  0  0  0  0  0
 25 28  1  0
 25 24  1  0
 25 26  1  1
 25 27  2  0
  1  4  1  0
  1 24  1  0
  1  2  1  6
  1  3  2  0
  6 11  1  0
  6 12  1  0
 29 36  1  0
 29 37  1  0
  9  7  1  1
  7 13  1  0
 10  8  1  1
  8 14  1  0
 37 28  1  1
  4  5  1  0
 33 30  1  6
 30 38  1  0
 34 31  1  1
 31 39  1  0
 35 32  1  1
 32 40  1  0
 41 42  1  0
 41 43  1  0
 15 19  2  0
 16 22  2  0
 12 17  1  6
 17 19  1  0
 17 20  1  0
 18 19  1  0
 18 22  1  0
 18 23  1  0
  9 10  1  0
  9 11  1  0
 10 12  1  0
 11  5  1  6
 33 34  1  0
 33 35  1  0
 34 36  1  0
 35 37  1  0
 36 42  1  6
 20 21  2  0
 21 22  1  0
M  CHG  2   2  -1  26  -1
M  END
>  <COMPND>  (68) 
    8629 

>  <AUTHOR>  (68) 
    GENERATED BY OPEN BABEL 3.1.1

>  <MASTER>  (68) 
        0    0    0    0    0    0    0    0   58    0   58    0

>  <minimizedAffinity>  (68) 
-8.18059

>  <CNNscore>  (68) 
0.5923464298

>  <CNNaffinity>  (68) 
4.4575290680

>  <CNN_VS>  (68) 
2.6404013634

>  <CNNaffinity_variance>  (68) 
0.2755058706

$$$$
69
     RDKit          3D

 43 45  0  0  0  0  0  0  0  0999 V2000
   22.6834   69.0649    0.2608 P   0  0  2  0  0  0  0  0  0  0  0  0
   21.1244   69.2402    0.6562 O   0  0  0  0  0  0  0  0  0  0  0  0
   23.0091   67.8078   -0.4909 O   0  0  0  0  0  0  0  0  0  0  0  0
   23.4649   69.2676    1.6630 O   0  0  0  0  0  0  0  0  0  0  0  0
   24.2896   70.4093    1.8185 C   0  0  0  0  0  0  0  0  0  0  0  0
   25.7778   70.5024    3.7028 O   0  0  0  0  0  0  0  0  0  0  0  0
   23.7347   72.2793    4.9908 O   0  0  0  0  0  0  0  0  0  0  0  0
   25.6049   74.0608    4.1162 O   0  0  0  0  0  0  0  0  0  0  0  0
   24.1238   72.1975    3.6207 C   0  0  1  0  0  0  0  0  0  0  0  0
   25.4820   72.8369    3.4207 C   0  0  2  0  0  0  0  0  0  0  0  0
   24.4102   70.7356    3.3008 C   0  0  1  0  0  0  0  0  0  0  0  0
   26.4167   71.7647    3.9545 C   0  0  2  0  0  0  0  0  0  0  0  0
   23.5462   73.2037    5.2186 H   0  0  0  0  0  0  0  0  0  0  0  0
   24.9904   74.7099    3.7396 H   0  0  0  0  0  0  0  0  0  0  0  0
   28.4953   73.5802    4.5554 O   0  0  0  0  0  0  0  0  0  0  0  0
   31.2795   71.7253    1.3855 O   0  0  0  0  0  0  0  0  0  0  0  0
   27.6954   71.7785    3.3019 N   0  0  0  0  0  0  0  0  0  0  0  0
   29.8800   72.6550    2.9767 N   0  0  0  0  0  0  0  0  0  0  0  0
   28.6698   72.7325    3.6776 C   0  0  0  0  0  0  0  0  0  0  0  0
   27.9731   70.8530    2.3018 C   0  0  0  0  0  0  0  0  0  0  0  0
   29.1317   70.7932    1.6421 C   0  0  0  0  0  0  0  0  0  0  0  0
   30.2031   71.7545    1.9740 C   0  0  0  0  0  0  0  0  0  0  0  0
   30.5736   73.3099    3.2211 H   0  0  0  0  0  0  0  0  0  0  0  0
   23.0114   70.4310   -0.5387 O   0  0  0  0  0  0  0  0  0  0  0  0
   22.7231   70.8599   -2.0703 P   0  0  2  0  0  0  0  0  0  0  0  0
   23.5054   69.7311   -2.9253 O   0  0  0  0  0  0  0  0  0  0  0  0
   23.1184   72.2704   -2.3991 O   0  0  0  0  0  0  0  0  0  0  0  0
   21.1591   70.5331   -2.2985 O   0  0  0  0  0  0  0  0  0  0  0  0
   19.2192   71.1473   -3.5134 O   0  0  0  0  0  0  0  0  0  0  0  0
   17.9573   72.1408    0.2907 O   0  0  0  0  0  0  0  0  0  0  0  0
   16.8583   69.8274   -1.0088 O   0  0  0  0  0  0  0  0  0  0  0  0
   20.6990   72.6342   -0.4960 O   0  0  0  0  0  0  0  0  0  0  0  0
   18.6575   71.3709   -0.6903 C   0  0  1  0  0  0  0  0  0  0  0  0
   17.6347   70.8141   -1.6826 C   0  0  1  0  0  0  0  0  0  0  0  0
   19.6652   72.2699   -1.4043 C   0  0  2  0  0  0  0  0  0  0  0  0
   18.3276   70.2036   -2.9083 C   0  0  1  0  0  0  0  0  0  0  0  0
   20.2590   71.5852   -2.6366 C   0  0  1  0  0  0  0  0  0  0  0  0
   17.3162   71.5757    0.7481 H   0  0  0  0  0  0  0  0  0  0  0  0
   16.4266   70.2257   -0.2367 H   0  0  0  0  0  0  0  0  0  0  0  0
   20.3102   73.0669    0.2796 H   0  0  0  0  0  0  0  0  0  0  0  0
   16.0295   70.1685   -3.5615 O   0  0  0  0  0  0  0  0  0  0  0  0
   17.3257   69.7846   -3.9820 C   0  0  0  0  0  0  0  0  0  0  0  0
   15.3814   69.9084   -4.2353 H   0  0  0  0  0  0  0  0  0  0  0  0
 25 28  1  0
 25 24  1  0
 25 26  1  6
 25 27  2  0
  1  4  1  0
  1 24  1  0
  1  2  1  1
  1  3  2  0
  6 11  1  0
  6 12  1  0
 29 36  1  0
 29 37  1  0
  9  7  1  1
  7 13  1  0
 10  8  1  1
  8 14  1  0
 37 28  1  1
  4  5  1  0
 33 30  1  1
 30 38  1  0
 34 31  1  1
 31 39  1  0
 35 32  1  1
 32 40  1  0
 41 42  1  0
 41 43  1  0
 15 19  2  0
 16 22  2  0
 12 17  1  6
 17 19  1  0
 17 20  1  0
 18 19  1  0
 18 22  1  0
 18 23  1  0
  9 10  1  0
  9 11  1  0
 10 12  1  0
 11  5  1  6
 33 34  1  0
 33 35  1  0
 34 36  1  0
 35 37  1  0
 36 42  1  6
 20 21  2  0
 21 22  1  0
M  CHG  2   2  -1  26  -1
M  END
>  <COMPND>  (69) 
    8629 

>  <AUTHOR>  (69) 
    GENERATED BY OPEN BABEL 3.1.1

>  <MASTER>  (69) 
        0    0    0    0    0    0    0    0   58    0   58    0

>  <minimizedAffinity>  (69) 
-7.97251

>  <CNNscore>  (69) 
0.5879986882

>  <CNNaffinity>  (69) 
4.5640592575

>  <CNN_VS>  (69) 
2.6836607456

>  <CNNaffinity_variance>  (69) 
0.0653678998

$$$$
70
     RDKit          3D

 43 45  0  0  0  0  0  0  0  0999 V2000
   20.8485   70.7249    0.4930 P   0  0  2  0  0  0  0  0  0  0  0  0
   19.8328   71.4512    1.5216 O   0  0  0  0  0  0  0  0  0  0  0  0
   20.9265   69.2325    0.6271 O   0  0  0  0  0  0  0  0  0  0  0  0
   22.2418   71.5223    0.6948 O   0  0  0  0  0  0  0  0  0  0  0  0
   23.2991   70.8733    1.3796 C   0  0  0  0  0  0  0  0  0  0  0  0
   24.2246   70.4815    3.5622 O   0  0  0  0  0  0  0  0  0  0  0  0
   22.0864   72.3138    4.5925 O   0  0  0  0  0  0  0  0  0  0  0  0
   24.2827   73.9295    4.5474 O   0  0  0  0  0  0  0  0  0  0  0  0
   22.8218   72.3819    3.3719 C   0  0  1  0  0  0  0  0  0  0  0  0
   24.2375   72.8503    3.6364 C   0  0  2  0  0  0  0  0  0  0  0  0
   23.0448   70.9579    2.8783 C   0  0  1  0  0  0  0  0  0  0  0  0
   24.8877   71.5925    4.1873 C   0  0  2  0  0  0  0  0  0  0  0  0
   21.9314   73.2116    4.9269 H   0  0  0  0  0  0  0  0  0  0  0  0
   23.8569   74.7056    4.1509 H   0  0  0  0  0  0  0  0  0  0  0  0
   26.9010   72.8842    5.6894 O   0  0  0  0  0  0  0  0  0  0  0  0
   30.2371   71.2675    2.9512 O   0  0  0  0  0  0  0  0  0  0  0  0
   26.2906   71.5258    3.8896 N   0  0  0  0  0  0  0  0  0  0  0  0
   28.5605   72.0780    4.3249 N   0  0  0  0  0  0  0  0  0  0  0  0
   27.2194   72.2120    4.7064 C   0  0  0  0  0  0  0  0  0  0  0  0
   26.7331   70.7860    2.7983 C   0  0  0  0  0  0  0  0  0  0  0  0
   28.0154   70.6693    2.4472 C   0  0  0  0  0  0  0  0  0  0  0  0
   29.0497   71.3553    3.2483 C   0  0  0  0  0  0  0  0  0  0  0  0
   29.2253   72.5477    4.8791 H   0  0  0  0  0  0  0  0  0  0  0  0
   20.3380   71.2449   -0.9499 O   0  0  0  0  0  0  0  0  0  0  0  0
   18.9188   71.0639   -1.7023 P   0  0  2  0  0  0  0  0  0  0  0  0
   18.0000   72.2219   -1.0447 O   0  0  0  0  0  0  0  0  0  0  0  0
   18.3405   69.6822   -1.6010 O   0  0  0  0  0  0  0  0  0  0  0  0
   19.1898   71.5666   -3.2119 O   0  0  0  0  0  0  0  0  0  0  0  0
   18.7307   73.8392   -3.7030 O   0  0  0  0  0  0  0  0  0  0  0  0
   18.8153   72.3373   -7.5485 O   0  0  0  0  0  0  0  0  0  0  0  0
   20.9789   73.9824   -6.6208 O   0  0  0  0  0  0  0  0  0  0  0  0
   17.6404   70.7748   -5.4136 O   0  0  0  0  0  0  0  0  0  0  0  0
   19.2121   72.4323   -6.1777 C   0  0  1  0  0  0  0  0  0  0  0  0
   19.7410   73.8461   -5.9284 C   0  0  1  0  0  0  0  0  0  0  0  0
   18.0045   72.1452   -5.2875 C   0  0  2  0  0  0  0  0  0  0  0  0
   19.9358   74.1083   -4.4290 C   0  0  1  0  0  0  0  0  0  0  0  0
   18.2884   72.4858   -3.8234 C   0  0  1  0  0  0  0  0  0  0  0  0
   19.5777   72.5180   -8.1191 H   0  0  0  0  0  0  0  0  0  0  0  0
   20.8421   73.8139   -7.5664 H   0  0  0  0  0  0  0  0  0  0  0  0
   17.4629   70.5719   -6.3449 H   0  0  0  0  0  0  0  0  0  0  0  0
   21.7061   75.7106   -4.3413 O   0  0  0  0  0  0  0  0  0  0  0  0
   20.3118   75.5612   -4.1465 C   0  0  0  0  0  0  0  0  0  0  0  0
   21.9597   76.6306   -4.1654 H   0  0  0  0  0  0  0  0  0  0  0  0
 25 28  1  0
 25 24  1  0
 25 26  1  1
 25 27  2  0
  1  4  1  0
  1 24  1  0
  1  2  1  1
  1  3  2  0
  6 11  1  0
  6 12  1  0
 29 36  1  0
 29 37  1  0
  9  7  1  1
  7 13  1  0
 10  8  1  1
  8 14  1  0
 37 28  1  6
  4  5  1  0
 33 30  1  6
 30 38  1  0
 34 31  1  6
 31 39  1  0
 35 32  1  1
 32 40  1  0
 41 42  1  0
 41 43  1  0
 15 19  2  0
 16 22  2  0
 12 17  1  6
 17 19  1  0
 17 20  1  0
 18 19  1  0
 18 22  1  0
 18 23  1  0
  9 10  1  0
  9 11  1  0
 10 12  1  0
 11  5  1  6
 33 34  1  0
 33 35  1  0
 34 36  1  0
 35 37  1  0
 36 42  1  6
 20 21  2  0
 21 22  1  0
M  CHG  2   2  -1  26  -1
M  END
>  <COMPND>  (70) 
    8629 

>  <AUTHOR>  (70) 
    GENERATED BY OPEN BABEL 3.1.1

>  <MASTER>  (70) 
        0    0    0    0    0    0    0    0   58    0   58    0

>  <minimizedAffinity>  (70) 
-8.11560

>  <CNNscore>  (70) 
0.5635650158

>  <CNNaffinity>  (70) 
4.3873200417

>  <CNN_VS>  (70) 
2.4725401402

>  <CNNaffinity_variance>  (70) 
0.0806553438

$$$$
71
     RDKit          3D

 43 45  0  0  0  0  0  0  0  0999 V2000
   20.7494   70.8408   -0.4500 P   0  0  2  0  0  0  0  0  0  0  0  0
   20.5316   69.5485    0.4988 O   0  0  0  0  0  0  0  0  0  0  0  0
   21.5658   70.5907   -1.6839 O   0  0  0  0  0  0  0  0  0  0  0  0
   21.3252   71.9691    0.5566 O   0  0  0  0  0  0  0  0  0  0  0  0
   22.5807   71.7466    1.1747 C   0  0  0  0  0  0  0  0  0  0  0  0
   23.4876   70.8030    3.1898 O   0  0  0  0  0  0  0  0  0  0  0  0
   21.6392   72.6477    4.6633 O   0  0  0  0  0  0  0  0  0  0  0  0
   24.0334   73.9416    4.8373 O   0  0  0  0  0  0  0  0  0  0  0  0
   22.3525   72.8672    3.4474 C   0  0  1  0  0  0  0  0  0  0  0  0
   23.8238   73.0852    3.7330 C   0  0  2  0  0  0  0  0  0  0  0  0
   22.3701   71.5566    2.6706 C   0  0  1  0  0  0  0  0  0  0  0  0
   24.3079   71.6686    3.9916 C   0  0  2  0  0  0  0  0  0  0  0  0
   21.6143   73.4711    5.1765 H   0  0  0  0  0  0  0  0  0  0  0  0
   23.7091   74.8304    4.6235 H   0  0  0  0  0  0  0  0  0  0  0  0
   26.5014   72.1522    5.7040 O   0  0  0  0  0  0  0  0  0  0  0  0
   29.5381   70.9249    2.4616 O   0  0  0  0  0  0  0  0  0  0  0  0
   25.6825   71.4834    3.6209 N   0  0  0  0  0  0  0  0  0  0  0  0
   28.0117   71.5405    4.0882 N   0  0  0  0  0  0  0  0  0  0  0  0
   26.7088   71.7557    4.5553 C   0  0  0  0  0  0  0  0  0  0  0  0
   26.0016   71.0360    2.3435 C   0  0  0  0  0  0  0  0  0  0  0  0
   27.2492   70.8371    1.9131 C   0  0  0  0  0  0  0  0  0  0  0  0
   28.3797   71.0981    2.8274 C   0  0  0  0  0  0  0  0  0  0  0  0
   28.7429   71.7241    4.7217 H   0  0  0  0  0  0  0  0  0  0  0  0
   19.2391   71.3427   -0.7328 O   0  0  0  0  0  0  0  0  0  0  0  0
   18.1367   70.8409   -1.8032 P   0  0  2  0  0  0  0  0  0  0  0  0
   16.8206   71.6951   -1.4085 O   0  0  0  0  0  0  0  0  0  0  0  0
   17.9278   69.3543   -1.8205 O   0  0  0  0  0  0  0  0  0  0  0  0
   18.6205   71.4648   -3.2109 O   0  0  0  0  0  0  0  0  0  0  0  0
   18.0910   70.1571   -5.1152 O   0  0  0  0  0  0  0  0  0  0  0  0
   20.8276   72.7339   -6.8246 O   0  0  0  0  0  0  0  0  0  0  0  0
   18.0372   73.0143   -7.4437 O   0  0  0  0  0  0  0  0  0  0  0  0
   21.2546   71.7503   -4.1358 O   0  0  0  0  0  0  0  0  0  0  0  0
   19.7730   72.3556   -5.9357 C   0  0  1  0  0  0  0  0  0  0  0  0
   18.5851   71.8815   -6.7753 C   0  0  1  0  0  0  0  0  0  0  0  0
   20.2674   71.2352   -5.0227 C   0  0  2  0  0  0  0  0  0  0  0  0
   17.5190   71.2115   -5.8980 C   0  0  1  0  0  0  0  0  0  0  0  0
   19.1206   70.6042   -4.2310 C   0  0  1  0  0  0  0  0  0  0  0  0
   20.5203   73.4454   -7.4067 H   0  0  0  0  0  0  0  0  0  0  0  0
   18.7207   73.4284   -7.9938 H   0  0  0  0  0  0  0  0  0  0  0  0
   21.9751   72.1466   -4.6491 H   0  0  0  0  0  0  0  0  0  0  0  0
   15.8966   69.4632   -6.0398 O   0  0  0  0  0  0  0  0  0  0  0  0
   16.3996   70.5914   -6.7314 C   0  0  0  0  0  0  0  0  0  0  0  0
   15.1831   69.0584   -6.5584 H   0  0  0  0  0  0  0  0  0  0  0  0
 25 28  1  0
 25 24  1  0
 25 26  1  1
 25 27  2  0
  1  4  1  0
  1 24  1  0
  1  2  1  1
  1  3  2  0
  6 11  1  0
  6 12  1  0
 29 36  1  0
 29 37  1  0
  9  7  1  1
  7 13  1  0
 10  8  1  1
  8 14  1  0
 37 28  1  1
  4  5  1  0
 33 30  1  6
 30 38  1  0
 34 31  1  1
 31 39  1  0
 35 32  1  1
 32 40  1  0
 41 42  1  0
 41 43  1  0
 15 19  2  0
 16 22  2  0
 12 17  1  6
 17 19  1  0
 17 20  1  0
 18 19  1  0
 18 22  1  0
 18 23  1  0
  9 10  1  0
  9 11  1  0
 10 12  1  0
 11  5  1  6
 33 34  1  0
 33 35  1  0
 34 36  1  0
 35 37  1  0
 36 42  1  6
 20 21  2  0
 21 22  1  0
M  CHG  2   2  -1  26  -1
M  END
>  <COMPND>  (71) 
    8629 

>  <AUTHOR>  (71) 
    GENERATED BY OPEN BABEL 3.1.1

>  <MASTER>  (71) 
        0    0    0    0    0    0    0    0   58    0   58    0

>  <minimizedAffinity>  (71) 
-8.52787

>  <CNNscore>  (71) 
0.5458096862

>  <CNNaffinity>  (71) 
4.4525480270

>  <CNN_VS>  (71) 
2.4302437305

>  <CNNaffinity_variance>  (71) 
0.1170653701

$$$$
72
     RDKit          3D

 43 45  0  0  0  0  0  0  0  0999 V2000
   20.8903   71.1226   -0.4189 P   0  0  2  0  0  0  0  0  0  0  0  0
   20.1138   72.5357   -0.2865 O   0  0  0  0  0  0  0  0  0  0  0  0
   20.1458   69.9373    0.1216 O   0  0  0  0  0  0  0  0  0  0  0  0
   22.3354   71.4093    0.2499 O   0  0  0  0  0  0  0  0  0  0  0  0
   22.4619   72.5010    1.1443 C   0  0  0  0  0  0  0  0  0  0  0  0
   23.2996   71.1015    2.9088 O   0  0  0  0  0  0  0  0  0  0  0  0
   21.5377   72.6847    4.7472 O   0  0  0  0  0  0  0  0  0  0  0  0
   23.9950   73.7818    5.1881 O   0  0  0  0  0  0  0  0  0  0  0  0
   22.2726   73.1205    3.6047 C   0  0  1  0  0  0  0  0  0  0  0  0
   23.7506   73.1936    3.9267 C   0  0  2  0  0  0  0  0  0  0  0  0
   22.2281   72.0072    2.5655 C   0  0  1  0  0  0  0  0  0  0  0  0
   24.1571   71.7307    3.8751 C   0  0  2  0  0  0  0  0  0  0  0  0
   21.5516   73.3795    5.4247 H   0  0  0  0  0  0  0  0  0  0  0  0
   23.7200   74.7117    5.1702 H   0  0  0  0  0  0  0  0  0  0  0  0
   26.3798   72.0119    5.5951 O   0  0  0  0  0  0  0  0  0  0  0  0
   29.3533   71.0378    2.2112 O   0  0  0  0  0  0  0  0  0  0  0  0
   25.5233   71.5558    3.4701 N   0  0  0  0  0  0  0  0  0  0  0  0
   27.8585   71.5265    3.9088 N   0  0  0  0  0  0  0  0  0  0  0  0
   26.5657   71.7208    4.4117 C   0  0  0  0  0  0  0  0  0  0  0  0
   25.8184   71.2241    2.1522 C   0  0  0  0  0  0  0  0  0  0  0  0
   27.0567   71.0435    1.6882 C   0  0  0  0  0  0  0  0  0  0  0  0
   28.2028   71.1972    2.6074 C   0  0  0  0  0  0  0  0  0  0  0  0
   28.6007   71.6366    4.5466 H   0  0  0  0  0  0  0  0  0  0  0  0
   21.2301   71.0411   -1.9971 O   0  0  0  0  0  0  0  0  0  0  0  0
   21.5492   72.2020   -3.0757 P   0  0  2  0  0  0  0  0  0  0  0  0
   22.7509   71.5707   -3.9559 O   0  0  0  0  0  0  0  0  0  0  0  0
   21.8633   73.5380   -2.4669 O   0  0  0  0  0  0  0  0  0  0  0  0
   20.2747   72.2012   -4.0659 O   0  0  0  0  0  0  0  0  0  0  0  0
   19.3159   70.1831   -4.8561 O   0  0  0  0  0  0  0  0  0  0  0  0
   18.0600   72.7287   -7.8549 O   0  0  0  0  0  0  0  0  0  0  0  0
   16.1586   71.7474   -5.9393 O   0  0  0  0  0  0  0  0  0  0  0  0
   20.7009   73.0376   -6.7105 O   0  0  0  0  0  0  0  0  0  0  0  0
   18.3977   72.3605   -6.5149 C   0  0  1  0  0  0  0  0  0  0  0  0
   17.4741   71.2194   -6.0839 C   0  0  1  0  0  0  0  0  0  0  0  0
   19.8583   71.9152   -6.4726 C   0  0  2  0  0  0  0  0  0  0  0  0
   17.9463   70.5927   -4.7650 C   0  0  1  0  0  0  0  0  0  0  0  0
   20.2109   71.2614   -5.1354 C   0  0  1  0  0  0  0  0  0  0  0  0
   17.1339   73.0130   -7.8886 H   0  0  0  0  0  0  0  0  0  0  0  0
   15.8726   72.1406   -6.7788 H   0  0  0  0  0  0  0  0  0  0  0  0
   20.4678   73.4425   -7.5600 H   0  0  0  0  0  0  0  0  0  0  0  0
   15.9948   69.7638   -3.6635 O   0  0  0  0  0  0  0  0  0  0  0  0
   17.1335   69.3531   -4.3976 C   0  0  0  0  0  0  0  0  0  0  0  0
   15.4678   68.9852   -3.4230 H   0  0  0  0  0  0  0  0  0  0  0  0
 25 28  1  0
 25 24  1  0
 25 26  1  6
 25 27  2  0
  1  4  1  0
  1 24  1  0
  1  2  1  6
  1  3  2  0
  6 11  1  0
  6 12  1  0
 29 36  1  0
 29 37  1  0
  9  7  1  1
  7 13  1  0
 10  8  1  1
  8 14  1  0
 37 28  1  1
  4  5  1  0
 33 30  1  6
 30 38  1  0
 34 31  1  1
 31 39  1  0
 35 32  1  1
 32 40  1  0
 41 42  1  0
 41 43  1  0
 15 19  2  0
 16 22  2  0
 12 17  1  6
 17 19  1  0
 17 20  1  0
 18 19  1  0
 18 22  1  0
 18 23  1  0
  9 10  1  0
  9 11  1  0
 10 12  1  0
 11  5  1  6
 33 34  1  0
 33 35  1  0
 34 36  1  0
 35 37  1  0
 36 42  1  6
 20 21  2  0
 21 22  1  0
M  CHG  2   2  -1  26  -1
M  END
>  <COMPND>  (72) 
    8629 

>  <AUTHOR>  (72) 
    GENERATED BY OPEN BABEL 3.1.1

>  <MASTER>  (72) 
        0    0    0    0    0    0    0    0   58    0   58    0

>  <minimizedAffinity>  (72) 
-7.54475

>  <CNNscore>  (72) 
0.5372372270

>  <CNNaffinity>  (72) 
4.5925698280

>  <CNN_VS>  (72) 
2.4672994614

>  <CNNaffinity_variance>  (72) 
0.0936499089

$$$$
73
     RDKit          3D

 43 45  0  0  0  0  0  0  0  0999 V2000
   22.1104   70.1750    0.9564 P   0  0  2  0  0  0  0  0  0  0  0  0
   20.8946   69.1363    0.7103 O   0  0  0  0  0  0  0  0  0  0  0  0
   23.4472   69.5393    1.2018 O   0  0  0  0  0  0  0  0  0  0  0  0
   21.5643   71.1400    2.1347 O   0  0  0  0  0  0  0  0  0  0  0  0
   22.3520   72.2547    2.5153 C   0  0  0  0  0  0  0  0  0  0  0  0
   23.5758   71.4524    4.4212 O   0  0  0  0  0  0  0  0  0  0  0  0
   22.3284   73.7168    5.9402 O   0  0  0  0  0  0  0  0  0  0  0  0
   24.8316   74.6619    5.4135 O   0  0  0  0  0  0  0  0  0  0  0  0
   22.7701   73.6750    4.5843 C   0  0  1  0  0  0  0  0  0  0  0  0
   24.2828   73.7121    4.5227 C   0  0  2  0  0  0  0  0  0  0  0  0
   22.4633   72.2880    4.0334 C   0  0  1  0  0  0  0  0  0  0  0  0
   24.6484   72.2846    4.8922 C   0  0  2  0  0  0  0  0  0  0  0  0
   22.5135   74.5933    6.3135 H   0  0  0  0  0  0  0  0  0  0  0  0
   24.5708   75.5540    5.1362 H   0  0  0  0  0  0  0  0  0  0  0  0
   27.2228   73.0377    5.7771 O   0  0  0  0  0  0  0  0  0  0  0  0
   29.2801   70.5842    2.4621 O   0  0  0  0  0  0  0  0  0  0  0  0
   25.8742   71.8569    4.2791 N   0  0  0  0  0  0  0  0  0  0  0  0
   28.2451   71.8153    4.1258 N   0  0  0  0  0  0  0  0  0  0  0  0
   27.1144   72.2933    4.8005 C   0  0  0  0  0  0  0  0  0  0  0  0
   25.8388   71.0139    3.1737 C   0  0  0  0  0  0  0  0  0  0  0  0
   26.9261   70.5681    2.5410 C   0  0  0  0  0  0  0  0  0  0  0  0
   28.2614   70.9770    3.0224 C   0  0  0  0  0  0  0  0  0  0  0  0
   29.1202   72.1065    4.4711 H   0  0  0  0  0  0  0  0  0  0  0  0
   22.0468   71.1250   -0.3499 O   0  0  0  0  0  0  0  0  0  0  0  0
   22.0282   70.7636   -1.9254 P   0  0  2  0  0  0  0  0  0  0  0  0
   22.6335   69.2639   -1.9692 O   0  0  0  0  0  0  0  0  0  0  0  0
   22.7557   71.7506   -2.7917 O   0  0  0  0  0  0  0  0  0  0  0  0
   20.4651   70.5829   -2.2847 O   0  0  0  0  0  0  0  0  0  0  0  0
   19.2874   69.5320   -4.0525 O   0  0  0  0  0  0  0  0  0  0  0  0
   17.0876   73.0154   -3.7733 O   0  0  0  0  0  0  0  0  0  0  0  0
   15.9549   70.5448   -2.8452 O   0  0  0  0  0  0  0  0  0  0  0  0
   19.9618   73.0918   -3.4369 O   0  0  0  0  0  0  0  0  0  0  0  0
   17.8630   71.9208   -3.2773 C   0  0  1  0  0  0  0  0  0  0  0  0
   17.1396   70.6205   -3.6333 C   0  0  1  0  0  0  0  0  0  0  0  0
   19.2483   71.9586   -3.9200 C   0  0  2  0  0  0  0  0  0  0  0  0
   18.0332   69.4003   -3.3732 C   0  0  1  0  0  0  0  0  0  0  0  0
   20.0359   70.6774   -3.6404 C   0  0  1  0  0  0  0  0  0  0  0  0
   16.2070   72.9974   -3.3687 H   0  0  0  0  0  0  0  0  0  0  0  0
   15.3997   71.3214   -3.0185 H   0  0  0  0  0  0  0  0  0  0  0  0
   19.4530   73.8964   -3.6202 H   0  0  0  0  0  0  0  0  0  0  0  0
   16.1711   68.4258   -4.5097 O   0  0  0  0  0  0  0  0  0  0  0  0
   17.3917   68.1057   -3.8679 C   0  0  0  0  0  0  0  0  0  0  0  0
   15.7517   67.6114   -4.8301 H   0  0  0  0  0  0  0  0  0  0  0  0
 25 28  1  0
 25 24  1  0
 25 26  1  1
 25 27  2  0
  1  4  1  0
  1 24  1  0
  1  2  1  6
  1  3  2  0
  6 11  1  0
  6 12  1  0
 29 36  1  0
 29 37  1  0
  9  7  1  1
  7 13  1  0
 10  8  1  1
  8 14  1  0
 37 28  1  1
  4  5  1  0
 33 30  1  6
 30 38  1  0
 34 31  1  1
 31 39  1  0
 35 32  1  1
 32 40  1  0
 41 42  1  0
 41 43  1  0
 15 19  2  0
 16 22  2  0
 12 17  1  6
 17 19  1  0
 17 20  1  0
 18 19  1  0
 18 22  1  0
 18 23  1  0
  9 10  1  0
  9 11  1  0
 10 12  1  0
 11  5  1  6
 33 34  1  0
 33 35  1  0
 34 36  1  0
 35 37  1  0
 36 42  1  6
 20 21  2  0
 21 22  1  0
M  CHG  2   2  -1  26  -1
M  END
>  <COMPND>  (73) 
    8629 

>  <AUTHOR>  (73) 
    GENERATED BY OPEN BABEL 3.1.1

>  <MASTER>  (73) 
        0    0    0    0    0    0    0    0   58    0   58    0

>  <minimizedAffinity>  (73) 
-8.56024

>  <CNNscore>  (73) 
0.5129521489

>  <CNNaffinity>  (73) 
4.6701097488

>  <CNN_VS>  (73) 
2.3955428600

>  <CNNaffinity_variance>  (73) 
0.0551515892

$$$$
74
     RDKit          3D

 43 45  0  0  0  0  0  0  0  0999 V2000
   17.2540   72.8196   -0.3874 P   0  0  2  0  0  0  0  0  0  0  0  0
   16.2634   74.0242   -0.8176 O   0  0  0  0  0  0  0  0  0  0  0  0
   16.7080   71.8931    0.6589 O   0  0  0  0  0  0  0  0  0  0  0  0
   18.6365   73.5702   -0.0088 O   0  0  0  0  0  0  0  0  0  0  0  0
   19.6107   72.8584    0.7342 C   0  0  0  0  0  0  0  0  0  0  0  0
   21.9254   72.3781    0.3038 O   0  0  0  0  0  0  0  0  0  0  0  0
   20.9428   70.3111   -1.6333 O   0  0  0  0  0  0  0  0  0  0  0  0
   21.6004   68.8148    0.5497 O   0  0  0  0  0  0  0  0  0  0  0  0
   20.3898   70.7076   -0.3794 C   0  0  1  0  0  0  0  0  0  0  0  0
   21.2243   70.1606    0.7598 C   0  0  2  0  0  0  0  0  0  0  0  0
   20.5941   72.2101   -0.2306 C   0  0  1  0  0  0  0  0  0  0  0  0
   22.4132   71.1064    0.7619 C   0  0  2  0  0  0  0  0  0  0  0  0
   20.8239   69.3550   -1.7511 H   0  0  0  0  0  0  0  0  0  0  0  0
   20.8097   68.2531    0.5569 H   0  0  0  0  0  0  0  0  0  0  0  0
   23.9038   69.1228    2.1115 O   0  0  0  0  0  0  0  0  0  0  0  0
   24.5445   71.8399    5.7787 O   0  0  0  0  0  0  0  0  0  0  0  0
   22.9817   71.2688    2.0702 N   0  0  0  0  0  0  0  0  0  0  0  0
   24.2218   70.4774    3.9363 N   0  0  0  0  0  0  0  0  0  0  0  0
   23.7120   70.2104    2.6593 C   0  0  0  0  0  0  0  0  0  0  0  0
   22.8129   72.4672    2.7553 C   0  0  0  0  0  0  0  0  0  0  0  0
   23.3043   72.7054    3.9730 C   0  0  0  0  0  0  0  0  0  0  0  0
   24.0798   71.6516    4.6587 C   0  0  0  0  0  0  0  0  0  0  0  0
   24.7337   69.7545    4.3665 H   0  0  0  0  0  0  0  0  0  0  0  0
   17.5997   72.1116   -1.7988 O   0  0  0  0  0  0  0  0  0  0  0  0
   17.1611   70.6777   -2.4027 P   0  0  2  0  0  0  0  0  0  0  0  0
   15.5448   70.7418   -2.3740 O   0  0  0  0  0  0  0  0  0  0  0  0
   17.7471   69.5000   -1.6791 O   0  0  0  0  0  0  0  0  0  0  0  0
   17.5446   70.7592   -3.9683 O   0  0  0  0  0  0  0  0  0  0  0  0
   17.4328   72.8671   -5.0458 O   0  0  0  0  0  0  0  0  0  0  0  0
   17.3277   70.4202   -8.3704 O   0  0  0  0  0  0  0  0  0  0  0  0
   19.7034   71.9274   -7.7936 O   0  0  0  0  0  0  0  0  0  0  0  0
   15.9146   69.6490   -5.9646 O   0  0  0  0  0  0  0  0  0  0  0  0
   17.7219   70.8115   -7.0524 C   0  0  1  0  0  0  0  0  0  0  0  0
   18.4529   72.1521   -7.1486 C   0  0  1  0  0  0  0  0  0  0  0  0
   16.4771   70.9394   -6.1764 C   0  0  2  0  0  0  0  0  0  0  0  0
   18.6710   72.7651   -5.7587 C   0  0  1  0  0  0  0  0  0  0  0  0
   16.7954   71.6054   -4.8366 C   0  0  1  0  0  0  0  0  0  0  0  0
   18.1136   70.3368   -8.9316 H   0  0  0  0  0  0  0  0  0  0  0  0
   19.5516   71.5398   -8.6699 H   0  0  0  0  0  0  0  0  0  0  0  0
   15.7173   69.2380   -6.8202 H   0  0  0  0  0  0  0  0  0  0  0  0
   20.5572   74.0881   -6.3919 O   0  0  0  0  0  0  0  0  0  0  0  0
   19.2562   74.1733   -5.8402 C   0  0  0  0  0  0  0  0  0  0  0  0
   20.9420   74.9770   -6.4500 H   0  0  0  0  0  0  0  0  0  0  0  0
 25 28  1  0
 25 24  1  0
 25 26  1  6
 25 27  2  0
  1  4  1  0
  1 24  1  0
  1  2  1  6
  1  3  2  0
  6 11  1  0
  6 12  1  0
 29 36  1  0
 29 37  1  0
  9  7  1  6
  7 13  1  0
 10  8  1  6
  8 14  1  0
 37 28  1  1
  4  5  1  0
 33 30  1  6
 30 38  1  0
 34 31  1  1
 31 39  1  0
 35 32  1  1
 32 40  1  0
 41 42  1  0
 41 43  1  0
 15 19  2  0
 16 22  2  0
 12 17  1  1
 17 19  1  0
 17 20  1  0
 18 19  1  0
 18 22  1  0
 18 23  1  0
  9 10  1  0
  9 11  1  0
 10 12  1  0
 11  5  1  1
 33 34  1  0
 33 35  1  0
 34 36  1  0
 35 37  1  0
 36 42  1  6
 20 21  2  0
 21 22  1  0
M  CHG  2   2  -1  26  -1
M  END
>  <COMPND>  (74) 
    8629 

>  <AUTHOR>  (74) 
    GENERATED BY OPEN BABEL 3.1.1

>  <MASTER>  (74) 
        0    0    0    0    0    0    0    0   58    0   58    0

>  <minimizedAffinity>  (74) 
-8.31103

>  <CNNscore>  (74) 
0.5046144724

>  <CNNaffinity>  (74) 
4.5371046066

>  <CNN_VS>  (74) 
2.2894885540

>  <CNNaffinity_variance>  (74) 
0.1673830301

$$$$
75
     RDKit          3D

 43 45  0  0  0  0  0  0  0  0999 V2000
   22.0207   69.7476    0.2418 P   0  0  2  0  0  0  0  0  0  0  0  0
   20.4098   69.6791    0.3745 O   0  0  0  0  0  0  0  0  0  0  0  0
   22.7017   68.4185    0.0959 O   0  0  0  0  0  0  0  0  0  0  0  0
   22.4779   70.6354    1.5149 O   0  0  0  0  0  0  0  0  0  0  0  0
   23.4468   70.1001    2.3995 C   0  0  0  0  0  0  0  0  0  0  0  0
   24.5374   70.6361    4.4725 O   0  0  0  0  0  0  0  0  0  0  0  0
   22.3287   72.6171    4.9062 O   0  0  0  0  0  0  0  0  0  0  0  0
   24.3809   74.1937    4.0466 O   0  0  0  0  0  0  0  0  0  0  0  0
   22.9773   72.2403    3.6926 C   0  0  1  0  0  0  0  0  0  0  0  0
   24.3648   72.8440    3.6287 C   0  0  2  0  0  0  0  0  0  0  0  0
   23.2822   70.7494    3.7668 C   0  0  1  0  0  0  0  0  0  0  0  0
   25.1475   71.9341    4.5601 C   0  0  2  0  0  0  0  0  0  0  0  0
   22.1237   73.5654    4.8821 H   0  0  0  0  0  0  0  0  0  0  0  0
   23.8699   74.7319    3.4221 H   0  0  0  0  0  0  0  0  0  0  0  0
   27.1716   73.7163    5.3995 O   0  0  0  0  0  0  0  0  0  0  0  0
   30.4149   71.4223    3.0628 O   0  0  0  0  0  0  0  0  0  0  0  0
   26.5295   71.8260    4.1865 N   0  0  0  0  0  0  0  0  0  0  0  0
   28.7849   72.5725    4.2355 N   0  0  0  0  0  0  0  0  0  0  0  0
   27.4658   72.7737    4.6616 C   0  0  0  0  0  0  0  0  0  0  0  0
   26.9443   70.7889    3.3581 C   0  0  0  0  0  0  0  0  0  0  0  0
   28.2058   70.6118    2.9599 C   0  0  0  0  0  0  0  0  0  0  0  0
   29.2462   71.5581    3.4116 C   0  0  0  0  0  0  0  0  0  0  0  0
   29.4545   73.2207    4.5537 H   0  0  0  0  0  0  0  0  0  0  0  0
   22.2404   70.7562   -1.0022 O   0  0  0  0  0  0  0  0  0  0  0  0
   22.2684   70.4860   -2.5957 P   0  0  2  0  0  0  0  0  0  0  0  0
   22.9946   69.0452   -2.7150 O   0  0  0  0  0  0  0  0  0  0  0  0
   22.9221   71.5770   -3.3934 O   0  0  0  0  0  0  0  0  0  0  0  0
   20.7292   70.2005   -2.9887 O   0  0  0  0  0  0  0  0  0  0  0  0
   19.7570   72.1668   -3.8860 O   0  0  0  0  0  0  0  0  0  0  0  0
   16.3848   69.7915   -3.6948 O   0  0  0  0  0  0  0  0  0  0  0  0
   17.5653   70.3750   -6.2470 O   0  0  0  0  0  0  0  0  0  0  0  0
   18.3600   69.6674   -1.5823 O   0  0  0  0  0  0  0  0  0  0  0  0
   17.7752   70.0672   -3.8844 C   0  0  1  0  0  0  0  0  0  0  0  0
   17.9144   71.0549   -5.0445 C   0  0  1  0  0  0  0  0  0  0  0  0
   18.3456   70.6637   -2.5990 C   0  0  2  0  0  0  0  0  0  0  0  0
   19.3448   71.6032   -5.1366 C   0  0  1  0  0  0  0  0  0  0  0  0
   19.7530   71.2239   -2.8123 C   0  0  1  0  0  0  0  0  0  0  0  0
   16.0166   69.4120   -4.5072 H   0  0  0  0  0  0  0  0  0  0  0  0
   16.6601   70.0333   -6.1756 H   0  0  0  0  0  0  0  0  0  0  0  0
   17.4633   69.3209   -1.4566 H   0  0  0  0  0  0  0  0  0  0  0  0
   19.6399   72.1030   -7.4544 O   0  0  0  0  0  0  0  0  0  0  0  0
   19.4680   72.7064   -6.1853 C   0  0  0  0  0  0  0  0  0  0  0  0
   19.7194   72.7932   -8.1319 H   0  0  0  0  0  0  0  0  0  0  0  0
 25 28  1  0
 25 24  1  0
 25 26  1  1
 25 27  2  0
  1  4  1  0
  1 24  1  0
  1  2  1  1
  1  3  2  0
  6 11  1  0
  6 12  1  0
 29 36  1  0
 29 37  1  0
  9  7  1  1
  7 13  1  0
 10  8  1  1
  8 14  1  0
 37 28  1  6
  4  5  1  0
 33 30  1  1
 30 38  1  0
 34 31  1  6
 31 39  1  0
 35 32  1  1
 32 40  1  0
 41 42  1  0
 41 43  1  0
 15 19  2  0
 16 22  2  0
 12 17  1  6
 17 19  1  0
 17 20  1  0
 18 19  1  0
 18 22  1  0
 18 23  1  0
  9 10  1  0
  9 11  1  0
 10 12  1  0
 11  5  1  6
 33 34  1  0
 33 35  1  0
 34 36  1  0
 35 37  1  0
 36 42  1  6
 20 21  2  0
 21 22  1  0
M  CHG  2   2  -1  26  -1
M  END
>  <COMPND>  (75) 
    8629 

>  <AUTHOR>  (75) 
    GENERATED BY OPEN BABEL 3.1.1

>  <MASTER>  (75) 
        0    0    0    0    0    0    0    0   58    0   58    0

>  <minimizedAffinity>  (75) 
-9.15452

>  <CNNscore>  (75) 
0.4752603471

>  <CNNaffinity>  (75) 
4.5994887352

>  <CNN_VS>  (75) 
2.1859545708

>  <CNNaffinity_variance>  (75) 
0.1604192406

$$$$
76
     RDKit          3D

 43 45  0  0  0  0  0  0  0  0999 V2000
   20.8060   70.9638   -0.5155 P   0  0  2  0  0  0  0  0  0  0  0  0
   20.4001   70.0708    0.7710 O   0  0  0  0  0  0  0  0  0  0  0  0
   20.8633   72.4426   -0.2680 O   0  0  0  0  0  0  0  0  0  0  0  0
   19.7722   70.4832   -1.6637 O   0  0  0  0  0  0  0  0  0  0  0  0
   19.5652   71.3268   -2.7832 C   0  0  0  0  0  0  0  0  0  0  0  0
   17.8371   72.0994   -4.2632 O   0  0  0  0  0  0  0  0  0  0  0  0
   15.9045   70.7571   -2.4047 O   0  0  0  0  0  0  0  0  0  0  0  0
   16.1031   68.9656   -4.4511 O   0  0  0  0  0  0  0  0  0  0  0  0
   17.2161   70.3496   -2.7907 C   0  0  1  0  0  0  0  0  0  0  0  0
   17.2051   69.8159   -4.2079 C   0  0  2  0  0  0  0  0  0  0  0  0
   18.0746   71.6008   -2.9286 C   0  0  1  0  0  0  0  0  0  0  0  0
   17.1483   71.0950   -5.0258 C   0  0  2  0  0  0  0  0  0  0  0  0
   15.3378   69.9749   -2.3101 H   0  0  0  0  0  0  0  0  0  0  0  0
   16.1851   68.1663   -3.9078 H   0  0  0  0  0  0  0  0  0  0  0  0
   15.8359   70.2856   -7.3924 O   0  0  0  0  0  0  0  0  0  0  0  0
   19.7113   70.6008   -9.8670 O   0  0  0  0  0  0  0  0  0  0  0  0
   17.7901   70.9574   -6.3028 N   0  0  0  0  0  0  0  0  0  0  0  0
   17.7666   70.4434   -8.6226 N   0  0  0  0  0  0  0  0  0  0  0  0
   17.0408   70.5436   -7.4288 C   0  0  0  0  0  0  0  0  0  0  0  0
   19.1475   71.2319   -6.4294 C   0  0  0  0  0  0  0  0  0  0  0  0
   19.8250   71.1302   -7.5747 C   0  0  0  0  0  0  0  0  0  0  0  0
   19.1163   70.7040   -8.7987 C   0  0  0  0  0  0  0  0  0  0  0  0
   17.2654   70.1564   -9.4203 H   0  0  0  0  0  0  0  0  0  0  0  0
   22.2050   70.3061   -0.9878 O   0  0  0  0  0  0  0  0  0  0  0  0
   23.3468   69.5254   -0.1514 P   0  0  2  0  0  0  0  0  0  0  0  0
   24.6325   69.5873   -1.1316 O   0  0  0  0  0  0  0  0  0  0  0  0
   22.9585   68.1389    0.2739 O   0  0  0  0  0  0  0  0  0  0  0  0
   23.7138   70.5201    1.0656 O   0  0  0  0  0  0  0  0  0  0  0  0
   25.2567   69.8180    2.7218 O   0  0  0  0  0  0  0  0  0  0  0  0
   23.3343   72.8009    4.8331 O   0  0  0  0  0  0  0  0  0  0  0  0
   26.0161   73.2280    3.8984 O   0  0  0  0  0  0  0  0  0  0  0  0
   21.8226   71.0819    3.0613 O   0  0  0  0  0  0  0  0  0  0  0  0
   23.8817   72.1728    3.6707 C   0  0  1  0  0  0  0  0  0  0  0  0
   25.3779   71.9540    3.9035 C   0  0  1  0  0  0  0  0  0  0  0  0
   23.1723   70.8392    3.4431 C   0  0  2  0  0  0  0  0  0  0  0  0
   25.9808   71.0500    2.8198 C   0  0  1  0  0  0  0  0  0  0  0  0
   23.8806   69.9968    2.3807 C   0  0  1  0  0  0  0  0  0  0  0  0
   23.7800   73.6485    4.9829 H   0  0  0  0  0  0  0  0  0  0  0  0
   25.6258   73.7892    4.5868 H   0  0  0  0  0  0  0  0  0  0  0  0
   21.3851   71.6157    3.7420 H   0  0  0  0  0  0  0  0  0  0  0  0
   27.7857   71.2443    4.3734 O   0  0  0  0  0  0  0  0  0  0  0  0
   27.4346   70.6903    3.1187 C   0  0  0  0  0  0  0  0  0  0  0  0
   28.7084   71.0231    4.5770 H   0  0  0  0  0  0  0  0  0  0  0  0
 25 28  1  0
 25 24  1  0
 25 26  1  6
 25 27  2  0
  1  4  1  0
  1 24  1  0
  1  2  1  1
  1  3  2  0
  6 11  1  0
  6 12  1  0
 29 36  1  0
 29 37  1  0
  9  7  1  6
  7 13  1  0
 10  8  1  1
  8 14  1  0
 37 28  1  6
  4  5  1  0
 33 30  1  1
 30 38  1  0
 34 31  1  6
 31 39  1  0
 35 32  1  6
 32 40  1  0
 41 42  1  0
 41 43  1  0
 15 19  2  0
 16 22  2  0
 12 17  1  6
 17 19  1  0
 17 20  1  0
 18 19  1  0
 18 22  1  0
 18 23  1  0
  9 10  1  0
  9 11  1  0
 10 12  1  0
 11  5  1  6
 33 34  1  0
 33 35  1  0
 34 36  1  0
 35 37  1  0
 36 42  1  1
 20 21  2  0
 21 22  1  0
M  CHG  2   2  -1  26  -1
M  END
>  <COMPND>  (76) 
    8629 

>  <AUTHOR>  (76) 
    GENERATED BY OPEN BABEL 3.1.1

>  <MASTER>  (76) 
        0    0    0    0    0    0    0    0   58    0   58    0

>  <minimizedAffinity>  (76) 
-8.80076

>  <CNNscore>  (76) 
0.4308542013

>  <CNNaffinity>  (76) 
4.7556476593

>  <CNN_VS>  (76) 
2.0489907265

>  <CNNaffinity_variance>  (76) 
0.1956310570

$$$$
77
     RDKit          3D

 43 45  0  0  0  0  0  0  0  0999 V2000
   22.5956   71.9158   -3.0820 P   0  0  2  0  0  0  0  0  0  0  0  0
   23.6444   72.1989   -4.2809 O   0  0  0  0  0  0  0  0  0  0  0  0
   22.6456   72.9002   -1.9506 O   0  0  0  0  0  0  0  0  0  0  0  0
   22.8696   70.3720   -2.6827 O   0  0  0  0  0  0  0  0  0  0  0  0
   23.6440   70.0995   -1.5278 C   0  0  0  0  0  0  0  0  0  0  0  0
   23.6321   68.9144    0.5625 O   0  0  0  0  0  0  0  0  0  0  0  0
   20.6754   69.4107    0.6126 O   0  0  0  0  0  0  0  0  0  0  0  0
   21.6264   71.3132    2.3192 O   0  0  0  0  0  0  0  0  0  0  0  0
   21.7234   70.2520    0.1338 C   0  0  1  0  0  0  0  0  0  0  0  0
   22.4857   70.8549    1.2953 C   0  0  2  0  0  0  0  0  0  0  0  0
   22.7793   69.3642   -0.5131 C   0  0  1  0  0  0  0  0  0  0  0  0
   23.3556   69.6912    1.7393 C   0  0  2  0  0  0  0  0  0  0  0  0
   19.9888   69.9553    1.0297 H   0  0  0  0  0  0  0  0  0  0  0  0
   21.0943   72.0534    1.9877 H   0  0  0  0  0  0  0  0  0  0  0  0
   24.7012   68.3473    3.8277 O   0  0  0  0  0  0  0  0  0  0  0  0
   28.1136   71.4448    3.8688 O   0  0  0  0  0  0  0  0  0  0  0  0
   24.5977   70.1242    2.3147 N   0  0  0  0  0  0  0  0  0  0  0  0
   26.3993   69.8906    3.8464 N   0  0  0  0  0  0  0  0  0  0  0  0
   25.1898   69.3780    3.3602 C   0  0  0  0  0  0  0  0  0  0  0  0
   25.2159   71.2766    1.8420 C   0  0  0  0  0  0  0  0  0  0  0  0
   26.3686   71.7528    2.3172 C   0  0  0  0  0  0  0  0  0  0  0  0
   27.0527   71.0324    3.4104 C   0  0  0  0  0  0  0  0  0  0  0  0
   26.8300   69.3876    4.5752 H   0  0  0  0  0  0  0  0  0  0  0  0
   21.1753   71.8458   -3.8505 O   0  0  0  0  0  0  0  0  0  0  0  0
   19.6790   71.5904   -3.2947 P   0  0  2  0  0  0  0  0  0  0  0  0
   19.3028   72.9941   -2.5835 O   0  0  0  0  0  0  0  0  0  0  0  0
   19.5506   70.3900   -2.4023 O   0  0  0  0  0  0  0  0  0  0  0  0
   18.7547   71.5428   -4.6170 O   0  0  0  0  0  0  0  0  0  0  0  0
   19.8311   72.3373   -6.5732 O   0  0  0  0  0  0  0  0  0  0  0  0
   15.9406   72.2406   -7.9538 O   0  0  0  0  0  0  0  0  0  0  0  0
   17.8242   70.2820   -8.8834 O   0  0  0  0  0  0  0  0  0  0  0  0
   16.4884   73.0772   -5.2373 O   0  0  0  0  0  0  0  0  0  0  0  0
   17.0640   71.7917   -7.1910 C   0  0  1  0  0  0  0  0  0  0  0  0
   18.1974   71.4521   -8.1610 C   0  0  1  0  0  0  0  0  0  0  0  0
   17.4915   72.9009   -6.2318 C   0  0  2  0  0  0  0  0  0  0  0  0
   19.5166   71.2197   -7.4121 C   0  0  1  0  0  0  0  0  0  0  0  0
   18.8392   72.5930   -5.5768 C   0  0  1  0  0  0  0  0  0  0  0  0
   15.6639   71.5407   -8.5646 H   0  0  0  0  0  0  0  0  0  0  0  0
   16.9895   70.4419   -9.3513 H   0  0  0  0  0  0  0  0  0  0  0  0
   15.6403   73.2719   -5.6646 H   0  0  0  0  0  0  0  0  0  0  0  0
   21.7036   71.9637   -8.0224 O   0  0  0  0  0  0  0  0  0  0  0  0
   20.6926   71.0351   -8.3687 C   0  0  0  0  0  0  0  0  0  0  0  0
   22.4586   71.8576   -8.6227 H   0  0  0  0  0  0  0  0  0  0  0  0
 25 28  1  0
 25 24  1  0
 25 26  1  1
 25 27  2  0
  1  4  1  0
  1 24  1  0
  1  2  1  6
  1  3  2  0
  6 11  1  0
  6 12  1  0
 29 36  1  0
 29 37  1  0
  9  7  1  1
  7 13  1  0
 10  8  1  1
  8 14  1  0
 37 28  1  1
  4  5  1  0
 33 30  1  6
 30 38  1  0
 34 31  1  1
 31 39  1  0
 35 32  1  1
 32 40  1  0
 41 42  1  0
 41 43  1  0
 15 19  2  0
 16 22  2  0
 12 17  1  6
 17 19  1  0
 17 20  1  0
 18 19  1  0
 18 22  1  0
 18 23  1  0
  9 10  1  0
  9 11  1  0
 10 12  1  0
 11  5  1  6
 33 34  1  0
 33 35  1  0
 34 36  1  0
 35 37  1  0
 36 42  1  6
 20 21  2  0
 21 22  1  0
M  CHG  2   2  -1  26  -1
M  END
>  <COMPND>  (77) 
    8629 

>  <AUTHOR>  (77) 
    GENERATED BY OPEN BABEL 3.1.1

>  <MASTER>  (77) 
        0    0    0    0    0    0    0    0   58    0   58    0

>  <minimizedAffinity>  (77) 
-8.45810

>  <CNNscore>  (77) 
0.4202713370

>  <CNNaffinity>  (77) 
4.4022712708

>  <CNN_VS>  (77) 
1.8501484394

>  <CNNaffinity_variance>  (77) 
0.0177079253

$$$$
78
     RDKit          3D

 43 45  0  0  0  0  0  0  0  0999 V2000
   21.8780   71.9003   -3.0609 P   0  0  2  0  0  0  0  0  0  0  0  0
   22.7293   73.0891   -2.3685 O   0  0  0  0  0  0  0  0  0  0  0  0
   20.4157   71.8894   -2.7251 O   0  0  0  0  0  0  0  0  0  0  0  0
   22.6976   70.5598   -2.6746 O   0  0  0  0  0  0  0  0  0  0  0  0
   23.4363   70.5438   -1.4655 C   0  0  0  0  0  0  0  0  0  0  0  0
   23.7359   69.2043    0.5068 O   0  0  0  0  0  0  0  0  0  0  0  0
   20.7460   69.2042    0.7338 O   0  0  0  0  0  0  0  0  0  0  0  0
   21.4809   71.0893    2.5622 O   0  0  0  0  0  0  0  0  0  0  0  0
   21.6169   70.2422    0.2872 C   0  0  1  0  0  0  0  0  0  0  0  0
   22.3405   70.8639    1.4635 C   0  0  2  0  0  0  0  0  0  0  0  0
   22.7607   69.5957   -0.4842 C   0  0  1  0  0  0  0  0  0  0  0  0
   23.4090   69.8255    1.7606 C   0  0  2  0  0  0  0  0  0  0  0  0
   20.0073   69.5928    1.2289 H   0  0  0  0  0  0  0  0  0  0  0  0
   20.8193   71.7572    2.3235 H   0  0  0  0  0  0  0  0  0  0  0  0
   25.0264   68.5865    3.7168 O   0  0  0  0  0  0  0  0  0  0  0  0
   27.9466   72.1506    3.8231 O   0  0  0  0  0  0  0  0  0  0  0  0
   24.5980   70.4069    2.3169 N   0  0  0  0  0  0  0  0  0  0  0  0
   26.4792   70.3621    3.7680 N   0  0  0  0  0  0  0  0  0  0  0  0
   25.3379   69.7021    3.2948 C   0  0  0  0  0  0  0  0  0  0  0  0
   25.0196   71.6623    1.8924 C   0  0  0  0  0  0  0  0  0  0  0  0
   26.1096   72.2784    2.3545 C   0  0  0  0  0  0  0  0  0  0  0  0
   26.9386   71.6101    3.3783 C   0  0  0  0  0  0  0  0  0  0  0  0
   27.0101   69.8902    4.4501 H   0  0  0  0  0  0  0  0  0  0  0  0
   22.2060   72.0863   -4.6328 O   0  0  0  0  0  0  0  0  0  0  0  0
   21.6629   73.1618   -5.7104 P   0  0  2  0  0  0  0  0  0  0  0  0
   22.6791   72.9838   -6.9567 O   0  0  0  0  0  0  0  0  0  0  0  0
   21.5674   74.5649   -5.1849 O   0  0  0  0  0  0  0  0  0  0  0  0
   20.2653   72.5466   -6.2328 O   0  0  0  0  0  0  0  0  0  0  0  0
   19.0401   70.6177   -5.6044 O   0  0  0  0  0  0  0  0  0  0  0  0
   18.4670   70.4610   -9.6907 O   0  0  0  0  0  0  0  0  0  0  0  0
   16.2864   71.2159   -7.9810 O   0  0  0  0  0  0  0  0  0  0  0  0
   21.0273   71.2878   -8.6223 O   0  0  0  0  0  0  0  0  0  0  0  0
   18.6344   71.0996   -8.4220 C   0  0  1  0  0  0  0  0  0  0  0  0
   17.5002   70.6434   -7.5022 C   0  0  1  0  0  0  0  0  0  0  0  0
   19.9905   70.7054   -7.8398 C   0  0  2  0  0  0  0  0  0  0  0  0
   17.7572   71.0720   -6.0512 C   0  0  1  0  0  0  0  0  0  0  0  0
   20.1241   71.1358   -6.3779 C   0  0  1  0  0  0  0  0  0  0  0  0
   17.6081   70.7076  -10.0661 H   0  0  0  0  0  0  0  0  0  0  0  0
   16.1361   70.9379   -8.8982 H   0  0  0  0  0  0  0  0  0  0  0  0
   20.9317   71.0074   -9.5455 H   0  0  0  0  0  0  0  0  0  0  0  0
   15.9816   69.4972   -5.7752 O   0  0  0  0  0  0  0  0  0  0  0  0
   16.7200   70.4931   -5.0915 C   0  0  0  0  0  0  0  0  0  0  0  0
   15.3177   69.1196   -5.1765 H   0  0  0  0  0  0  0  0  0  0  0  0
 25 28  1  0
 25 24  1  0
 25 26  1  6
 25 27  2  0
  1  4  1  0
  1 24  1  0
  1  2  1  1
  1  3  2  0
  6 11  1  0
  6 12  1  0
 29 36  1  0
 29 37  1  0
  9  7  1  1
  7 13  1  0
 10  8  1  1
  8 14  1  0
 37 28  1  6
  4  5  1  0
 33 30  1  6
 30 38  1  0
 34 31  1  6
 31 39  1  0
 35 32  1  6
 32 40  1  0
 41 42  1  0
 41 43  1  0
 15 19  2  0
 16 22  2  0
 12 17  1  6
 17 19  1  0
 17 20  1  0
 18 19  1  0
 18 22  1  0
 18 23  1  0
  9 10  1  0
  9 11  1  0
 10 12  1  0
 11  5  1  6
 33 34  1  0
 33 35  1  0
 34 36  1  0
 35 37  1  0
 36 42  1  1
 20 21  2  0
 21 22  1  0
M  CHG  2   2  -1  26  -1
M  END
>  <COMPND>  (78) 
    8629 

>  <AUTHOR>  (78) 
    GENERATED BY OPEN BABEL 3.1.1

>  <MASTER>  (78) 
        0    0    0    0    0    0    0    0   58    0   58    0

>  <minimizedAffinity>  (78) 
-9.04866

>  <CNNscore>  (78) 
0.3661404848

>  <CNNaffinity>  (78) 
4.2910046577

>  <CNN_VS>  (78) 
1.5711104870

>  <CNNaffinity_variance>  (78) 
0.0563751645

$$$$
79
     RDKit          3D

 43 45  0  0  0  0  0  0  0  0999 V2000
   22.8633   70.4933   -2.7781 P   0  0  2  0  0  0  0  0  0  0  0  0
   22.7955   71.9432   -3.4927 O   0  0  0  0  0  0  0  0  0  0  0  0
   24.0791   69.6793   -3.1103 O   0  0  0  0  0  0  0  0  0  0  0  0
   21.4412   69.8135   -3.1432 O   0  0  0  0  0  0  0  0  0  0  0  0
   20.4473   70.6140   -3.7589 C   0  0  0  0  0  0  0  0  0  0  0  0
   18.4490   71.8414   -3.2355 O   0  0  0  0  0  0  0  0  0  0  0  0
   17.5676   69.4008   -1.7331 O   0  0  0  0  0  0  0  0  0  0  0  0
   16.1775   69.1944   -4.0701 O   0  0  0  0  0  0  0  0  0  0  0  0
   18.3127   69.4934   -2.9462 C   0  0  1  0  0  0  0  0  0  0  0  0
   17.4056   69.8932   -4.0912 C   0  0  2  0  0  0  0  0  0  0  0  0
   19.2380   70.6989   -2.8377 C   0  0  1  0  0  0  0  0  0  0  0  0
   17.2343   71.3836   -3.8518 C   0  0  2  0  0  0  0  0  0  0  0  0
   16.9696   68.6378   -1.7786 H   0  0  0  0  0  0  0  0  0  0  0  0
   16.3394   68.2511   -4.2270 H   0  0  0  0  0  0  0  0  0  0  0  0
   14.9823   73.0063   -4.3746 O   0  0  0  0  0  0  0  0  0  0  0  0
   16.5399   74.1361   -8.5625 O   0  0  0  0  0  0  0  0  0  0  0  0
   17.0258   72.1136   -5.0704 N   0  0  0  0  0  0  0  0  0  0  0  0
   15.7598   73.5677   -6.4594 N   0  0  0  0  0  0  0  0  0  0  0  0
   15.8605   72.8985   -5.2330 C   0  0  0  0  0  0  0  0  0  0  0  0
   17.9711   72.0473   -6.0883 C   0  0  0  0  0  0  0  0  0  0  0  0
   17.8595   72.6905   -7.2524 C   0  0  0  0  0  0  0  0  0  0  0  0
   16.6717   73.5323   -7.5024 C   0  0  0  0  0  0  0  0  0  0  0  0
   14.9561   74.1203   -6.5952 H   0  0  0  0  0  0  0  0  0  0  0  0
   22.7022   70.8529   -1.2103 O   0  0  0  0  0  0  0  0  0  0  0  0
   22.4732   69.9042    0.0783 P   0  0  2  0  0  0  0  0  0  0  0  0
   23.3539   68.5915   -0.2662 O   0  0  0  0  0  0  0  0  0  0  0  0
   21.0313   69.6197    0.3845 O   0  0  0  0  0  0  0  0  0  0  0  0
   23.2789   70.6341    1.2712 O   0  0  0  0  0  0  0  0  0  0  0  0
   24.5874   69.4726    2.8698 O   0  0  0  0  0  0  0  0  0  0  0  0
   23.6170   72.8049    5.1070 O   0  0  0  0  0  0  0  0  0  0  0  0
   26.2954   72.4911    4.1190 O   0  0  0  0  0  0  0  0  0  0  0  0
   21.6544   71.6392    3.3269 O   0  0  0  0  0  0  0  0  0  0  0  0
   23.9468   72.0866    3.9151 C   0  0  1  0  0  0  0  0  0  0  0  0
   25.3243   71.4485    4.1054 C   0  0  1  0  0  0  0  0  0  0  0  0
   22.8869   71.0145    3.6690 C   0  0  2  0  0  0  0  0  0  0  0  0
   25.6308   70.4474    2.9833 C   0  0  1  0  0  0  0  0  0  0  0  0
   23.3123   70.0422    2.5673 C   0  0  1  0  0  0  0  0  0  0  0  0
   24.2859   73.4876    5.2687 H   0  0  0  0  0  0  0  0  0  0  0  0
   26.0900   73.1165    4.8317 H   0  0  0  0  0  0  0  0  0  0  0  0
   21.3959   72.2519    4.0323 H   0  0  0  0  0  0  0  0  0  0  0  0
   28.0036   70.4349    2.7027 O   0  0  0  0  0  0  0  0  0  0  0  0
   26.9289   69.6839    3.2368 C   0  0  0  0  0  0  0  0  0  0  0  0
   28.8364   69.9613    2.8570 H   0  0  0  0  0  0  0  0  0  0  0  0
 25 28  1  0
 25 24  1  0
 25 26  1  6
 25 27  2  0
  1  4  1  0
  1 24  1  0
  1  2  1  6
  1  3  2  0
  6 11  1  0
  6 12  1  0
 29 36  1  0
 29 37  1  0
  9  7  1  1
  7 13  1  0
 10  8  1  1
  8 14  1  0
 37 28  1  6
  4  5  1  0
 33 30  1  1
 30 38  1  0
 34 31  1  6
 31 39  1  0
 35 32  1  6
 32 40  1  0
 41 42  1  0
 41 43  1  0
 15 19  2  0
 16 22  2  0
 12 17  1  6
 17 19  1  0
 17 20  1  0
 18 19  1  0
 18 22  1  0
 18 23  1  0
  9 10  1  0
  9 11  1  0
 10 12  1  0
 11  5  1  6
 33 34  1  0
 33 35  1  0
 34 36  1  0
 35 37  1  0
 36 42  1  1
 20 21  2  0
 21 22  1  0
M  CHG  2   2  -1  26  -1
M  END
>  <COMPND>  (79) 
    8629 

>  <AUTHOR>  (79) 
    GENERATED BY OPEN BABEL 3.1.1

>  <MASTER>  (79) 
        0    0    0    0    0    0    0    0   58    0   58    0

>  <minimizedAffinity>  (79) 
-8.54943

>  <CNNscore>  (79) 
0.3615825474

>  <CNNaffinity>  (79) 
4.3511319160

>  <CNN_VS>  (79) 
1.5732933283

>  <CNNaffinity_variance>  (79) 
0.0166034810

$$$$
80
     RDKit          3D

 43 45  0  0  0  0  0  0  0  0999 V2000
   20.1346   70.7400   -0.8586 P   0  0  2  0  0  0  0  0  0  0  0  0
   20.5069   69.7979    0.4028 O   0  0  0  0  0  0  0  0  0  0  0  0
   20.9242   70.4707   -2.1058 O   0  0  0  0  0  0  0  0  0  0  0  0
   20.2453   72.2421   -0.2675 O   0  0  0  0  0  0  0  0  0  0  0  0
   19.6485   72.5207    0.9871 C   0  0  0  0  0  0  0  0  0  0  0  0
   21.1041   73.2167    2.7678 O   0  0  0  0  0  0  0  0  0  0  0  0
   21.5934   75.6924    1.1485 O   0  0  0  0  0  0  0  0  0  0  0  0
   23.8198   74.2014    0.6422 O   0  0  0  0  0  0  0  0  0  0  0  0
   21.3939   74.3505    0.7072 C   0  0  1  0  0  0  0  0  0  0  0  0
   22.6296   73.5183    0.9794 C   0  0  2  0  0  0  0  0  0  0  0  0
   20.3654   73.7025    1.6256 C   0  0  1  0  0  0  0  0  0  0  0  0
   22.5095   73.2543    2.4707 C   0  0  2  0  0  0  0  0  0  0  0  0
   22.2463   76.1270    0.5768 H   0  0  0  0  0  0  0  0  0  0  0  0
   23.8495   74.3456   -0.3165 H   0  0  0  0  0  0  0  0  0  0  0  0
   23.1062   72.5223    5.1327 O   0  0  0  0  0  0  0  0  0  0  0  0
   24.7792   68.4314    3.8262 O   0  0  0  0  0  0  0  0  0  0  0  0
   23.1010   72.0037    2.8549 N   0  0  0  0  0  0  0  0  0  0  0  0
   23.9386   70.4859    4.4800 N   0  0  0  0  0  0  0  0  0  0  0  0
   23.3609   71.7350    4.2190 C   0  0  0  0  0  0  0  0  0  0  0  0
   23.4166   71.0592    1.8843 C   0  0  0  0  0  0  0  0  0  0  0  0
   23.9684   69.8733    2.1496 C   0  0  0  0  0  0  0  0  0  0  0  0
   24.2719   69.5141    3.5499 C   0  0  0  0  0  0  0  0  0  0  0  0
   24.1290   70.2769    5.4233 H   0  0  0  0  0  0  0  0  0  0  0  0
   18.5396   70.5270   -1.0131 O   0  0  0  0  0  0  0  0  0  0  0  0
   17.6489   70.0581   -2.2778 P   0  0  2  0  0  0  0  0  0  0  0  0
   16.1775   70.6332   -1.9289 O   0  0  0  0  0  0  0  0  0  0  0  0
   17.6892   68.5813   -2.5451 O   0  0  0  0  0  0  0  0  0  0  0  0
   18.1646   70.9739   -3.5027 O   0  0  0  0  0  0  0  0  0  0  0  0
   17.0139   70.9978   -5.5744 O   0  0  0  0  0  0  0  0  0  0  0  0
   20.7259   72.2632   -6.8668 O   0  0  0  0  0  0  0  0  0  0  0  0
   18.5528   74.1369   -6.7435 O   0  0  0  0  0  0  0  0  0  0  0  0
   20.5268   70.2259   -4.8201 O   0  0  0  0  0  0  0  0  0  0  0  0
   19.6321   72.1546   -5.9518 C   0  0  1  0  0  0  0  0  0  0  0  0
   18.3839   72.7269   -6.6265 C   0  0  1  0  0  0  0  0  0  0  0  0
   19.4240   70.6840   -5.5949 C   0  0  2  0  0  0  0  0  0  0  0  0
   17.1202   72.4054   -5.8173 C   0  0  1  0  0  0  0  0  0  0  0  0
   18.1148   70.4672   -4.8339 C   0  0  1  0  0  0  0  0  0  0  0  0
   20.8637   73.1946   -7.0971 H   0  0  0  0  0  0  0  0  0  0  0  0
   19.3544   74.3263   -7.2561 H   0  0  0  0  0  0  0  0  0  0  0  0
   21.3495   70.3683   -5.3128 H   0  0  0  0  0  0  0  0  0  0  0  0
   16.0491   72.6468   -7.9395 O   0  0  0  0  0  0  0  0  0  0  0  0
   15.8489   72.8289   -6.5499 C   0  0  0  0  0  0  0  0  0  0  0  0
   15.2479   72.9120   -8.4185 H   0  0  0  0  0  0  0  0  0  0  0  0
 25 28  1  0
 25 24  1  0
 25 26  1  1
 25 27  2  0
  1  4  1  0
  1 24  1  0
  1  2  1  1
  1  3  2  0
  6 11  1  0
  6 12  1  0
 29 36  1  0
 29 37  1  0
  9  7  1  1
  7 13  1  0
 10  8  1  1
  8 14  1  0
 37 28  1  1
  4  5  1  0
 33 30  1  6
 30 38  1  0
 34 31  1  1
 31 39  1  0
 35 32  1  1
 32 40  1  0
 41 42  1  0
 41 43  1  0
 15 19  2  0
 16 22  2  0
 12 17  1  6
 17 19  1  0
 17 20  1  0
 18 19  1  0
 18 22  1  0
 18 23  1  0
  9 10  1  0
  9 11  1  0
 10 12  1  0
 11  5  1  6
 33 34  1  0
 33 35  1  0
 34 36  1  0
 35 37  1  0
 36 42  1  6
 20 21  2  0
 21 22  1  0
M  CHG  2   2  -1  26  -1
M  END
>  <COMPND>  (80) 
    8629 

>  <AUTHOR>  (80) 
    GENERATED BY OPEN BABEL 3.1.1

>  <MASTER>  (80) 
        0    0    0    0    0    0    0    0   58    0   58    0

>  <minimizedAffinity>  (80) 
-7.97500

>  <CNNscore>  (80) 
0.3408544660

>  <CNNaffinity>  (80) 
4.1327514648

>  <CNN_VS>  (80) 
1.4086668491

>  <CNNaffinity_variance>  (80) 
0.1030138284

$$$$
81
     RDKit          3D

 43 45  0  0  0  0  0  0  0  0999 V2000
   21.8926   72.2884   -0.9679 P   0  0  2  0  0  0  0  0  0  0  0  0
   20.8974   72.3392    0.3067 O   0  0  0  0  0  0  0  0  0  0  0  0
   23.0085   73.2911   -0.9411 O   0  0  0  0  0  0  0  0  0  0  0  0
   20.8980   72.3779   -2.2410 O   0  0  0  0  0  0  0  0  0  0  0  0
   20.2687   71.1911   -2.6920 C   0  0  0  0  0  0  0  0  0  0  0  0
   18.2926   71.9013   -3.8601 O   0  0  0  0  0  0  0  0  0  0  0  0
   16.7498   70.3508   -1.8091 O   0  0  0  0  0  0  0  0  0  0  0  0
   16.7517   68.6640   -3.9518 O   0  0  0  0  0  0  0  0  0  0  0  0
   18.0116   70.0527   -2.4042 C   0  0  1  0  0  0  0  0  0  0  0  0
   17.8218   69.5787   -3.8300 C   0  0  2  0  0  0  0  0  0  0  0  0
   18.7589   71.3657   -2.6023 C   0  0  1  0  0  0  0  0  0  0  0  0
   17.5621   70.8834   -4.5638 C   0  0  2  0  0  0  0  0  0  0  0  0
   16.2543   69.5275   -1.6725 H   0  0  0  0  0  0  0  0  0  0  0  0
   16.9647   67.8506   -3.4683 H   0  0  0  0  0  0  0  0  0  0  0  0
   15.9888   70.0060   -6.7393 O   0  0  0  0  0  0  0  0  0  0  0  0
   19.3937   70.7751   -9.7487 O   0  0  0  0  0  0  0  0  0  0  0  0
   18.0121   70.8442   -5.9266 N   0  0  0  0  0  0  0  0  0  0  0  0
   17.6854   70.3899   -8.2360 N   0  0  0  0  0  0  0  0  0  0  0  0
   17.1436   70.3856   -6.9443 C   0  0  0  0  0  0  0  0  0  0  0  0
   19.3016   71.2579   -6.2427 C   0  0  0  0  0  0  0  0  0  0  0  0
   19.8036   71.2547   -7.4794 C   0  0  0  0  0  0  0  0  0  0  0  0
   18.9612   70.7902   -8.6004 C   0  0  0  0  0  0  0  0  0  0  0  0
   17.0986   70.0741   -8.9611 H   0  0  0  0  0  0  0  0  0  0  0  0
   22.3748   70.7457   -0.9912 O   0  0  0  0  0  0  0  0  0  0  0  0
   22.5448   69.6685    0.2019 P   0  0  2  0  0  0  0  0  0  0  0  0
   23.5221   68.5519   -0.4428 O   0  0  0  0  0  0  0  0  0  0  0  0
   21.2485   69.1260    0.7305 O   0  0  0  0  0  0  0  0  0  0  0  0
   23.4545   70.4193    1.3036 O   0  0  0  0  0  0  0  0  0  0  0  0
   24.7910   69.3888    2.9674 O   0  0  0  0  0  0  0  0  0  0  0  0
   23.7937   72.8560    4.9761 O   0  0  0  0  0  0  0  0  0  0  0  0
   26.4682   72.5086    3.9888 O   0  0  0  0  0  0  0  0  0  0  0  0
   21.8329   71.5442    3.2987 O   0  0  0  0  0  0  0  0  0  0  0  0
   24.1237   72.0608    3.8341 C   0  0  1  0  0  0  0  0  0  0  0  0
   25.5110   71.4551    4.0562 C   0  0  1  0  0  0  0  0  0  0  0  0
   23.0764   70.9606    3.6725 C   0  0  2  0  0  0  0  0  0  0  0  0
   25.8221   70.3824    3.0038 C   0  0  1  0  0  0  0  0  0  0  0  0
   23.5060   69.9195    2.6373 C   0  0  1  0  0  0  0  0  0  0  0  0
   24.4546   73.5568    5.0841 H   0  0  0  0  0  0  0  0  0  0  0  0
   26.2601   73.1794    4.6580 H   0  0  0  0  0  0  0  0  0  0  0  0
   21.5718   72.2011    3.9620 H   0  0  0  0  0  0  0  0  0  0  0  0
   28.1988   70.4147    2.7600 O   0  0  0  0  0  0  0  0  0  0  0  0
   27.1322   69.6551    3.2983 C   0  0  0  0  0  0  0  0  0  0  0  0
   29.0391   69.9641    2.9402 H   0  0  0  0  0  0  0  0  0  0  0  0
 25 28  1  0
 25 24  1  0
 25 26  1  6
 25 27  2  0
  1  4  1  0
  1 24  1  0
  1  2  1  1
  1  3  2  0
  6 11  1  0
  6 12  1  0
 29 36  1  0
 29 37  1  0
  9  7  1  6
  7 13  1  0
 10  8  1  1
  8 14  1  0
 37 28  1  6
  4  5  1  0
 33 30  1  1
 30 38  1  0
 34 31  1  6
 31 39  1  0
 35 32  1  6
 32 40  1  0
 41 42  1  0
 41 43  1  0
 15 19  2  0
 16 22  2  0
 12 17  1  6
 17 19  1  0
 17 20  1  0
 18 19  1  0
 18 22  1  0
 18 23  1  0
  9 10  1  0
  9 11  1  0
 10 12  1  0
 11  5  1  6
 33 34  1  0
 33 35  1  0
 34 36  1  0
 35 37  1  0
 36 42  1  1
 20 21  2  0
 21 22  1  0
M  CHG  2   2  -1  26  -1
M  END
>  <COMPND>  (81) 
    8629 

>  <AUTHOR>  (81) 
    GENERATED BY OPEN BABEL 3.1.1

>  <MASTER>  (81) 
        0    0    0    0    0    0    0    0   58    0   58    0

>  <minimizedAffinity>  (81) 
-9.15235

>  <CNNscore>  (81) 
0.8244850039

>  <CNNaffinity>  (81) 
4.8588194847

>  <CNN_VS>  (81) 
4.0060238838

>  <CNNaffinity_variance>  (81) 
0.2567853332

$$$$
82
     RDKit          3D

 43 45  0  0  0  0  0  0  0  0999 V2000
   24.0509   70.4188    3.0605 P   0  0  2  0  0  0  0  0  0  0  0  0
   24.1084   70.3743    4.6767 O   0  0  0  0  0  0  0  0  0  0  0  0
   23.7825   69.0988    2.3993 O   0  0  0  0  0  0  0  0  0  0  0  0
   25.4347   71.1455    2.6424 O   0  0  0  0  0  0  0  0  0  0  0  0
   26.6415   70.6907    3.2294 C   0  0  0  0  0  0  0  0  0  0  0  0
   28.6919   71.5264    4.1628 O   0  0  0  0  0  0  0  0  0  0  0  0
   27.3835   74.2243    4.1413 O   0  0  0  0  0  0  0  0  0  0  0  0
   28.9829   74.3217    1.9346 O   0  0  0  0  0  0  0  0  0  0  0  0
   27.2657   73.1570    3.2020 C   0  0  1  0  0  0  0  0  0  0  0  0
   28.5209   73.0560    2.3606 C   0  0  2  0  0  0  0  0  0  0  0  0
   27.2954   71.8451    3.9762 C   0  0  1  0  0  0  0  0  0  0  0  0
   29.4856   72.3723    3.3146 C   0  0  2  0  0  0  0  0  0  0  0  0
   27.3666   75.0727    3.6702 H   0  0  0  0  0  0  0  0  0  0  0  0
   28.3349   74.7158    1.3300 H   0  0  0  0  0  0  0  0  0  0  0  0
   32.2020   72.1641    4.0601 O   0  0  0  0  0  0  0  0  0  0  0  0
   33.1157   69.2510    0.6075 O   0  0  0  0  0  0  0  0  0  0  0  0
   30.4555   71.5663    2.6284 N   0  0  0  0  0  0  0  0  0  0  0  0
   32.6547   70.7136    2.3405 N   0  0  0  0  0  0  0  0  0  0  0  0
   31.7943   71.5322    3.0833 C   0  0  0  0  0  0  0  0  0  0  0  0
   30.0758   70.8206    1.5178 C   0  0  0  0  0  0  0  0  0  0  0  0
   30.9088   70.0460    0.8196 C   0  0  0  0  0  0  0  0  0  0  0  0
   32.3252   69.9544    1.2289 C   0  0  0  0  0  0  0  0  0  0  0  0
   33.5924   70.6745    2.6387 H   0  0  0  0  0  0  0  0  0  0  0  0
   22.9402   71.5561    2.7675 O   0  0  0  0  0  0  0  0  0  0  0  0
   21.9090   71.7407    1.5364 P   0  0  2  0  0  0  0  0  0  0  0  0
   21.9193   73.3381    1.2801 O   0  0  0  0  0  0  0  0  0  0  0  0
   20.5460   71.1619    1.7833 O   0  0  0  0  0  0  0  0  0  0  0  0
   22.6791   71.1184    0.2617 O   0  0  0  0  0  0  0  0  0  0  0  0
   21.1425   71.0583   -1.5416 O   0  0  0  0  0  0  0  0  0  0  0  0
   24.3665   69.2286   -3.3606 O   0  0  0  0  0  0  0  0  0  0  0  0
   23.6488   71.9071   -4.1081 O   0  0  0  0  0  0  0  0  0  0  0  0
   23.7701   68.6747   -0.5827 O   0  0  0  0  0  0  0  0  0  0  0  0
   23.7172   70.1530   -2.4835 C   0  0  1  0  0  0  0  0  0  0  0  0
   22.8149   71.0586   -3.3240 C   0  0  1  0  0  0  0  0  0  0  0  0
   22.8936   69.3747   -1.4591 C   0  0  2  0  0  0  0  0  0  0  0  0
   21.8869   71.8961   -2.4337 C   0  0  1  0  0  0  0  0  0  0  0  0
   21.9693   70.2955   -0.6605 C   0  0  1  0  0  0  0  0  0  0  0  0
   24.8916   69.7164   -4.0133 H   0  0  0  0  0  0  0  0  0  0  0  0
   24.2301   71.3659   -4.6653 H   0  0  0  0  0  0  0  0  0  0  0  0
   24.3497   68.0951   -1.1003 H   0  0  0  0  0  0  0  0  0  0  0  0
   20.9520   72.2656   -4.6013 O   0  0  0  0  0  0  0  0  0  0  0  0
   20.8710   72.6892   -3.2529 C   0  0  0  0  0  0  0  0  0  0  0  0
   20.3107   72.7617   -5.1345 H   0  0  0  0  0  0  0  0  0  0  0  0
 25 28  1  0
 25 24  1  0
 25 26  1  6
 25 27  2  0
  1  4  1  0
  1 24  1  0
  1  2  1  1
  1  3  2  0
  6 11  1  0
  6 12  1  0
 29 36  1  0
 29 37  1  0
  9  7  1  1
  7 13  1  0
 10  8  1  1
  8 14  1  0
 37 28  1  6
  4  5  1  0
 33 30  1  6
 30 38  1  0
 34 31  1  1
 31 39  1  0
 35 32  1  1
 32 40  1  0
 41 42  1  0
 41 43  1  0
 15 19  2  0
 16 22  2  0
 12 17  1  6
 17 19  1  0
 17 20  1  0
 18 19  1  0
 18 22  1  0
 18 23  1  0
  9 10  1  0
  9 11  1  0
 10 12  1  0
 11  5  1  6
 33 34  1  0
 33 35  1  0
 34 36  1  0
 35 37  1  0
 36 42  1  6
 20 21  2  0
 21 22  1  0
M  CHG  2   2  -1  26  -1
M  END
>  <COMPND>  (82) 
    8629 

>  <AUTHOR>  (82) 
    GENERATED BY OPEN BABEL 3.1.1

>  <MASTER>  (82) 
        0    0    0    0    0    0    0    0   58    0   58    0

>  <minimizedAffinity>  (82) 
-8.66214

>  <CNNscore>  (82) 
0.7868966460

>  <CNNaffinity>  (82) 
4.8511018753

>  <CNN_VS>  (82) 
3.8173158169

>  <CNNaffinity_variance>  (82) 
0.0329485163

$$$$
83
     RDKit          3D

 43 45  0  0  0  0  0  0  0  0999 V2000
   22.1187   69.6942    0.1696 P   0  0  2  0  0  0  0  0  0  0  0  0
   20.5089   69.6731    0.3298 O   0  0  0  0  0  0  0  0  0  0  0  0
   22.7560   68.3471   -0.0047 O   0  0  0  0  0  0  0  0  0  0  0  0
   22.6247   70.5511    1.4454 O   0  0  0  0  0  0  0  0  0  0  0  0
   23.5397   69.9491    2.3443 C   0  0  0  0  0  0  0  0  0  0  0  0
   24.6486   70.5102    4.4008 O   0  0  0  0  0  0  0  0  0  0  0  0
   22.3871   72.4195    4.8815 O   0  0  0  0  0  0  0  0  0  0  0  0
   24.3741   74.0630    3.9943 O   0  0  0  0  0  0  0  0  0  0  0  0
   23.0261   72.0682    3.6553 C   0  0  1  0  0  0  0  0  0  0  0  0
   24.3928   72.7151    3.5704 C   0  0  2  0  0  0  0  0  0  0  0  0
   23.3785   70.5872    3.7173 C   0  0  1  0  0  0  0  0  0  0  0  0
   25.2194   71.8263    4.4841 C   0  0  2  0  0  0  0  0  0  0  0  0
   22.1522   73.3610    4.8654 H   0  0  0  0  0  0  0  0  0  0  0  0
   23.8359   74.5875    3.3812 H   0  0  0  0  0  0  0  0  0  0  0  0
   27.1991   73.6732    5.2889 O   0  0  0  0  0  0  0  0  0  0  0  0
   30.4737   71.4851    2.8951 O   0  0  0  0  0  0  0  0  0  0  0  0
   26.5975   71.7629    4.0864 N   0  0  0  0  0  0  0  0  0  0  0  0
   28.8280   72.5821    4.0964 N   0  0  0  0  0  0  0  0  0  0  0  0
   27.5108   72.7405    4.5455 C   0  0  0  0  0  0  0  0  0  0  0  0
   27.0312   70.7397    3.2505 C   0  0  0  0  0  0  0  0  0  0  0  0
   28.2906   70.6035    2.8302 C   0  0  0  0  0  0  0  0  0  0  0  0
   29.3075   71.5830    3.2642 C   0  0  0  0  0  0  0  0  0  0  0  0
   29.4818   73.2516    4.4032 H   0  0  0  0  0  0  0  0  0  0  0  0
   22.3477   70.7117   -1.0654 O   0  0  0  0  0  0  0  0  0  0  0  0
   21.7382   72.1799   -1.3583 P   0  0  2  0  0  0  0  0  0  0  0  0
   22.9405   72.9323   -2.1367 O   0  0  0  0  0  0  0  0  0  0  0  0
   21.2478   72.8979   -0.1345 O   0  0  0  0  0  0  0  0  0  0  0  0
   20.6110   71.9364   -2.4876 O   0  0  0  0  0  0  0  0  0  0  0  0
   19.9753   69.9408   -3.5967 O   0  0  0  0  0  0  0  0  0  0  0  0
   19.5108   72.6061   -6.7162 O   0  0  0  0  0  0  0  0  0  0  0  0
   17.1888   71.4920   -5.4454 O   0  0  0  0  0  0  0  0  0  0  0  0
   21.7218   72.9118   -4.8729 O   0  0  0  0  0  0  0  0  0  0  0  0
   19.4780   72.1787   -5.3518 C   0  0  1  0  0  0  0  0  0  0  0  0
   18.5101   70.9990   -5.2420 C   0  0  1  0  0  0  0  0  0  0  0  0
   20.8843   71.7619   -4.9253 C   0  0  2  0  0  0  0  0  0  0  0  0
   18.6209   70.3172   -3.8716 C   0  0  1  0  0  0  0  0  0  0  0  0
   20.8762   71.0497   -3.5715 C   0  0  1  0  0  0  0  0  0  0  0  0
   18.6210   72.8727   -6.9931 H   0  0  0  0  0  0  0  0  0  0  0  0
   17.1324   71.9205   -6.3140 H   0  0  0  0  0  0  0  0  0  0  0  0
   21.7187   73.3535   -5.7359 H   0  0  0  0  0  0  0  0  0  0  0  0
   17.6245   68.6887   -2.4349 O   0  0  0  0  0  0  0  0  0  0  0  0
   17.7802   69.0445   -3.7963 C   0  0  0  0  0  0  0  0  0  0  0  0
   17.0911   67.8805   -2.3715 H   0  0  0  0  0  0  0  0  0  0  0  0
 25 28  1  0
 25 24  1  0
 25 26  1  6
 25 27  2  0
  1  4  1  0
  1 24  1  0
  1  2  1  1
  1  3  2  0
  6 11  1  0
  6 12  1  0
 29 36  1  0
 29 37  1  0
  9  7  1  1
  7 13  1  0
 10  8  1  1
  8 14  1  0
 37 28  1  1
  4  5  1  0
 33 30  1  6
 30 38  1  0
 34 31  1  1
 31 39  1  0
 35 32  1  1
 32 40  1  0
 41 42  1  0
 41 43  1  0
 15 19  2  0
 16 22  2  0
 12 17  1  6
 17 19  1  0
 17 20  1  0
 18 19  1  0
 18 22  1  0
 18 23  1  0
  9 10  1  0
  9 11  1  0
 10 12  1  0
 11  5  1  6
 33 34  1  0
 33 35  1  0
 34 36  1  0
 35 37  1  0
 36 42  1  6
 20 21  2  0
 21 22  1  0
M  CHG  2   2  -1  26  -1
M  END
>  <COMPND>  (83) 
    8629 

>  <AUTHOR>  (83) 
    GENERATED BY OPEN BABEL 3.1.1

>  <MASTER>  (83) 
        0    0    0    0    0    0    0    0   58    0   58    0

>  <minimizedAffinity>  (83) 
-8.53525

>  <CNNscore>  (83) 
0.7371571064

>  <CNNaffinity>  (83) 
4.8837838173

>  <CNN_VS>  (83) 
3.6001160145

>  <CNNaffinity_variance>  (83) 
0.3411601782

$$$$
84
     RDKit          3D

 43 45  0  0  0  0  0  0  0  0999 V2000
   22.4255   70.6847   -2.1386 P   0  0  2  0  0  0  0  0  0  0  0  0
   22.8225   72.1666   -2.6523 O   0  0  0  0  0  0  0  0  0  0  0  0
   23.1901   69.5651   -2.7816 O   0  0  0  0  0  0  0  0  0  0  0  0
   20.8181   70.6300   -2.3152 O   0  0  0  0  0  0  0  0  0  0  0  0
   20.1511   71.7840   -2.7961 C   0  0  0  0  0  0  0  0  0  0  0  0
   18.0445   71.9137   -3.9446 O   0  0  0  0  0  0  0  0  0  0  0  0
   16.9739   70.1201   -1.7934 O   0  0  0  0  0  0  0  0  0  0  0  0
   17.3780   68.3907   -3.8628 O   0  0  0  0  0  0  0  0  0  0  0  0
   18.2624   70.1246   -2.4060 C   0  0  1  0  0  0  0  0  0  0  0  0
   18.1813   69.5518   -3.8055 C   0  0  2  0  0  0  0  0  0  0  0  0
   18.6479   71.5735   -2.6771 C   0  0  1  0  0  0  0  0  0  0  0  0
   17.5884   70.7120   -4.5870 C   0  0  2  0  0  0  0  0  0  0  0  0
   16.7064   69.2053   -1.6104 H   0  0  0  0  0  0  0  0  0  0  0  0
   17.7975   67.6816   -3.3509 H   0  0  0  0  0  0  0  0  0  0  0  0
   15.9376   70.0463   -6.7800 O   0  0  0  0  0  0  0  0  0  0  0  0
   19.3370   70.7943   -9.8009 O   0  0  0  0  0  0  0  0  0  0  0  0
   18.0161   70.7247   -5.9575 N   0  0  0  0  0  0  0  0  0  0  0  0
   17.6315   70.4195   -8.2824 N   0  0  0  0  0  0  0  0  0  0  0  0
   17.1088   70.3725   -6.9837 C   0  0  0  0  0  0  0  0  0  0  0  0
   19.3221   71.0837   -6.2725 C   0  0  0  0  0  0  0  0  0  0  0  0
   19.8054   71.1222   -7.5160 C   0  0  0  0  0  0  0  0  0  0  0  0
   18.9224   70.7687   -8.6462 C   0  0  0  0  0  0  0  0  0  0  0  0
   17.0177   70.1778   -9.0136 H   0  0  0  0  0  0  0  0  0  0  0  0
   22.6116   70.7934   -0.5366 O   0  0  0  0  0  0  0  0  0  0  0  0
   22.2373   69.7593    0.6481 P   0  0  2  0  0  0  0  0  0  0  0  0
   23.2856   68.5470    0.4273 O   0  0  0  0  0  0  0  0  0  0  0  0
   20.7967   69.3372    0.6641 O   0  0  0  0  0  0  0  0  0  0  0  0
   22.7358   70.4882    1.9991 O   0  0  0  0  0  0  0  0  0  0  0  0
   22.8286   72.7365    2.7429 O   0  0  0  0  0  0  0  0  0  0  0  0
   26.5572   71.4745    3.9902 O   0  0  0  0  0  0  0  0  0  0  0  0
   24.4930   71.9355    5.9330 O   0  0  0  0  0  0  0  0  0  0  0  0
   25.4898   70.5486    1.4637 O   0  0  0  0  0  0  0  0  0  0  0  0
   25.1603   71.3387    3.7150 C   0  0  1  0  0  0  0  0  0  0  0  0
   24.4016   72.3526    4.5736 C   0  0  1  0  0  0  0  0  0  0  0  0
   24.9161   71.6020    2.2303 C   0  0  2  0  0  0  0  0  0  0  0  0
   22.9321   72.4534    4.1432 C   0  0  1  0  0  0  0  0  0  0  0  0
   23.4244   71.7334    1.9179 C   0  0  1  0  0  0  0  0  0  0  0  0
   26.7191   71.3081    4.9312 H   0  0  0  0  0  0  0  0  0  0  0  0
   25.4260   71.8754    6.1920 H   0  0  0  0  0  0  0  0  0  0  0  0
   26.4342   70.4758    1.6703 H   0  0  0  0  0  0  0  0  0  0  0  0
   20.8077   73.2942    4.8426 O   0  0  0  0  0  0  0  0  0  0  0  0
   22.1957   73.5704    4.8797 C   0  0  0  0  0  0  0  0  0  0  0  0
   20.3263   73.9967    5.3079 H   0  0  0  0  0  0  0  0  0  0  0  0
 25 28  1  0
 25 24  1  0
 25 26  1  6
 25 27  2  0
  1  4  1  0
  1 24  1  0
  1  2  1  6
  1  3  2  0
  6 11  1  0
  6 12  1  0
 29 36  1  0
 29 37  1  0
  9  7  1  6
  7 13  1  0
 10  8  1  1
  8 14  1  0
 37 28  1  1
  4  5  1  0
 33 30  1  6
 30 38  1  0
 34 31  1  1
 31 39  1  0
 35 32  1  6
 32 40  1  0
 41 42  1  0
 41 43  1  0
 15 19  2  0
 16 22  2  0
 12 17  1  6
 17 19  1  0
 17 20  1  0
 18 19  1  0
 18 22  1  0
 18 23  1  0
  9 10  1  0
  9 11  1  0
 10 12  1  0
 11  5  1  6
 33 34  1  0
 33 35  1  0
 34 36  1  0
 35 37  1  0
 36 42  1  1
 20 21  2  0
 21 22  1  0
M  CHG  2   2  -1  26  -1
M  END
>  <COMPND>  (84) 
    8629 

>  <AUTHOR>  (84) 
    GENERATED BY OPEN BABEL 3.1.1

>  <MASTER>  (84) 
        0    0    0    0    0    0    0    0   58    0   58    0

>  <minimizedAffinity>  (84) 
-9.11222

>  <CNNscore>  (84) 
0.7248589993

>  <CNNaffinity>  (84) 
4.7789902687

>  <CNN_VS>  (84) 
3.4640941620

>  <CNNaffinity_variance>  (84) 
0.1238126904

$$$$
85
     RDKit          3D

 43 45  0  0  0  0  0  0  0  0999 V2000
   21.2529   71.7834   -2.0228 P   0  0  2  0  0  0  0  0  0  0  0  0
   22.1406   70.9831   -3.1132 O   0  0  0  0  0  0  0  0  0  0  0  0
   20.7738   73.1350   -2.4645 O   0  0  0  0  0  0  0  0  0  0  0  0
   22.1669   71.7636   -0.6879 O   0  0  0  0  0  0  0  0  0  0  0  0
   22.5039   70.5110   -0.1177 C   0  0  0  0  0  0  0  0  0  0  0  0
   22.7885   69.9063    2.1904 O   0  0  0  0  0  0  0  0  0  0  0  0
   20.2563   71.4268    2.7069 O   0  0  0  0  0  0  0  0  0  0  0  0
   22.1804   73.1911    3.4955 O   0  0  0  0  0  0  0  0  0  0  0  0
   21.3041   71.7075    1.7802 C   0  0  1  0  0  0  0  0  0  0  0  0
   22.5210   72.2397    2.5078 C   0  0  2  0  0  0  0  0  0  0  0  0
   21.8153   70.3802    1.2340 C   0  0  1  0  0  0  0  0  0  0  0  0
   23.1150   70.9718    3.0976 C   0  0  2  0  0  0  0  0  0  0  0  0
   19.9135   72.2595    3.0690 H   0  0  0  0  0  0  0  0  0  0  0  0
   21.8070   73.9790    3.0705 H   0  0  0  0  0  0  0  0  0  0  0  0
   24.4508   71.8973    5.4078 O   0  0  0  0  0  0  0  0  0  0  0  0
   28.5941   71.2194    3.5065 O   0  0  0  0  0  0  0  0  0  0  0  0
   24.5422   71.0475    3.2337 N   0  0  0  0  0  0  0  0  0  0  0  0
   26.5128   71.5589    4.4593 N   0  0  0  0  0  0  0  0  0  0  0  0
   25.1126   71.5281    4.4355 C   0  0  0  0  0  0  0  0  0  0  0  0
   25.3607   70.6475    2.1831 C   0  0  0  0  0  0  0  0  0  0  0  0
   26.6943   70.6843    2.2212 C   0  0  0  0  0  0  0  0  0  0  0  0
   27.3696   71.1734    3.4405 C   0  0  0  0  0  0  0  0  0  0  0  0
   26.9323   71.8904    5.2862 H   0  0  0  0  0  0  0  0  0  0  0  0
   20.0748   70.7336   -1.6721 O   0  0  0  0  0  0  0  0  0  0  0  0
   18.5720   70.5923   -2.2504 P   0  0  2  0  0  0  0  0  0  0  0  0
   17.8842   71.9992   -1.8438 O   0  0  0  0  0  0  0  0  0  0  0  0
   17.8358   69.3789   -1.7610 O   0  0  0  0  0  0  0  0  0  0  0  0
   18.7421   70.6700   -3.8535 O   0  0  0  0  0  0  0  0  0  0  0  0
   19.3483   72.6380   -5.0266 O   0  0  0  0  0  0  0  0  0  0  0  0
   17.2232   70.7231   -8.0044 O   0  0  0  0  0  0  0  0  0  0  0  0
   20.0839   70.8947   -8.1902 O   0  0  0  0  0  0  0  0  0  0  0  0
   16.3154   70.5758   -5.2596 O   0  0  0  0  0  0  0  0  0  0  0  0
   18.0910   70.8066   -6.8707 C   0  0  1  0  0  0  0  0  0  0  0  0
   19.3092   71.6463   -7.2601 C   0  0  1  0  0  0  0  0  0  0  0  0
   17.3375   71.4574   -5.7122 C   0  0  2  0  0  0  0  0  0  0  0  0
   20.1520   72.0040   -6.0285 C   0  0  1  0  0  0  0  0  0  0  0  0
   18.2761   71.8173   -4.5591 C   0  0  1  0  0  0  0  0  0  0  0  0
   17.6954   70.3103   -8.7434 H   0  0  0  0  0  0  0  0  0  0  0  0
   19.5400   70.6749   -8.9629 H   0  0  0  0  0  0  0  0  0  0  0  0
   15.7278   70.3558   -5.9986 H   0  0  0  0  0  0  0  0  0  0  0  0
   22.4100   72.6430   -5.5790 O   0  0  0  0  0  0  0  0  0  0  0  0
   21.2832   72.9711   -6.3708 C   0  0  0  0  0  0  0  0  0  0  0  0
   23.1380   73.2502   -5.7865 H   0  0  0  0  0  0  0  0  0  0  0  0
 25 28  1  0
 25 24  1  0
 25 26  1  1
 25 27  2  0
  1  4  1  0
  1 24  1  0
  1  2  1  6
  1  3  2  0
  6 11  1  0
  6 12  1  0
 29 36  1  0
 29 37  1  0
  9  7  1  1
  7 13  1  0
 10  8  1  1
  8 14  1  0
 37 28  1  6
  4  5  1  0
 33 30  1  6
 30 38  1  0
 34 31  1  6
 31 39  1  0
 35 32  1  1
 32 40  1  0
 41 42  1  0
 41 43  1  0
 15 19  2  0
 16 22  2  0
 12 17  1  6
 17 19  1  0
 17 20  1  0
 18 19  1  0
 18 22  1  0
 18 23  1  0
  9 10  1  0
  9 11  1  0
 10 12  1  0
 11  5  1  6
 33 34  1  0
 33 35  1  0
 34 36  1  0
 35 37  1  0
 36 42  1  6
 20 21  2  0
 21 22  1  0
M  CHG  2   2  -1  26  -1
M  END
>  <COMPND>  (85) 
    8629 

>  <AUTHOR>  (85) 
    GENERATED BY OPEN BABEL 3.1.1

>  <MASTER>  (85) 
        0    0    0    0    0    0    0    0   58    0   58    0

>  <minimizedAffinity>  (85) 
-7.70348

>  <CNNscore>  (85) 
0.6884514689

>  <CNNaffinity>  (85) 
4.6903638840

>  <CNN_VS>  (85) 
3.2290878296

>  <CNNaffinity_variance>  (85) 
0.6574387550

$$$$
86
     RDKit          3D

 43 45  0  0  0  0  0  0  0  0999 V2000
   21.2591   70.6874   -0.1645 P   0  0  2  0  0  0  0  0  0  0  0  0
   22.2130   69.7509   -1.0758 O   0  0  0  0  0  0  0  0  0  0  0  0
   21.4051   72.1618   -0.4016 O   0  0  0  0  0  0  0  0  0  0  0  0
   21.5514   70.1863    1.3459 O   0  0  0  0  0  0  0  0  0  0  0  0
   22.8212   70.4560    1.9139 C   0  0  0  0  0  0  0  0  0  0  0  0
   23.8424   70.5966    4.0844 O   0  0  0  0  0  0  0  0  0  0  0  0
   21.7531   72.6488    4.7281 O   0  0  0  0  0  0  0  0  0  0  0  0
   23.9463   74.1798    4.1966 O   0  0  0  0  0  0  0  0  0  0  0  0
   22.4337   72.4094    3.4973 C   0  0  1  0  0  0  0  0  0  0  0  0
   23.8600   72.9119    3.5788 C   0  0  2  0  0  0  0  0  0  0  0  0
   22.6338   70.9056    3.3564 C   0  0  1  0  0  0  0  0  0  0  0  0
   24.5333   71.8187    4.3910 C   0  0  2  0  0  0  0  0  0  0  0  0
   21.6137   73.6027    4.8401 H   0  0  0  0  0  0  0  0  0  0  0  0
   23.5038   74.8409    3.6417 H   0  0  0  0  0  0  0  0  0  0  0  0
   26.6134   73.4055    5.4555 O   0  0  0  0  0  0  0  0  0  0  0  0
   29.8222   71.1422    3.0425 O   0  0  0  0  0  0  0  0  0  0  0  0
   25.9216   71.6656    4.0586 N   0  0  0  0  0  0  0  0  0  0  0  0
   28.2095   72.2771    4.2533 N   0  0  0  0  0  0  0  0  0  0  0  0
   26.8868   72.5147    4.6483 C   0  0  0  0  0  0  0  0  0  0  0  0
   26.3140   70.6819    3.1574 C   0  0  0  0  0  0  0  0  0  0  0  0
   27.5793   70.4690    2.7902 C   0  0  0  0  0  0  0  0  0  0  0  0
   28.6493   71.3130    3.3602 C   0  0  0  0  0  0  0  0  0  0  0  0
   28.8991   72.8568    4.6509 H   0  0  0  0  0  0  0  0  0  0  0  0
   19.7824   70.1011   -0.4624 O   0  0  0  0  0  0  0  0  0  0  0  0
   18.5333   70.7316   -1.2719 P   0  0  2  0  0  0  0  0  0  0  0  0
   18.1035   71.9988   -0.3625 O   0  0  0  0  0  0  0  0  0  0  0  0
   17.4223   69.7591   -1.5436 O   0  0  0  0  0  0  0  0  0  0  0  0
   19.1905   71.3830   -2.5943 O   0  0  0  0  0  0  0  0  0  0  0  0
   18.7248   70.1135   -4.5406 O   0  0  0  0  0  0  0  0  0  0  0  0
   21.5454   72.6967   -6.0969 O   0  0  0  0  0  0  0  0  0  0  0  0
   18.7834   73.0116   -6.8180 O   0  0  0  0  0  0  0  0  0  0  0  0
   21.8605   71.6623   -3.4117 O   0  0  0  0  0  0  0  0  0  0  0  0
   20.4543   72.3118   -5.2562 C   0  0  1  0  0  0  0  0  0  0  0  0
   19.2961   71.8626   -6.1493 C   0  0  1  0  0  0  0  0  0  0  0  0
   20.9044   71.1713   -4.3451 C   0  0  2  0  0  0  0  0  0  0  0  0
   18.1917   71.1863   -5.3259 C   0  0  1  0  0  0  0  0  0  0  0  0
   19.7230   70.5362   -3.6096 C   0  0  1  0  0  0  0  0  0  0  0  0
   21.2664   73.4209   -6.6776 H   0  0  0  0  0  0  0  0  0  0  0  0
   19.4908   73.4295   -7.3338 H   0  0  0  0  0  0  0  0  0  0  0  0
   22.6034   72.0616   -3.8898 H   0  0  0  0  0  0  0  0  0  0  0  0
   16.0887   70.0535   -5.3808 O   0  0  0  0  0  0  0  0  0  0  0  0
   17.1006   70.5905   -6.2127 C   0  0  0  0  0  0  0  0  0  0  0  0
   15.3873   69.6710   -5.9317 H   0  0  0  0  0  0  0  0  0  0  0  0
 25 28  1  0
 25 24  1  0
 25 26  1  1
 25 27  2  0
  1  4  1  0
  1 24  1  0
  1  2  1  6
  1  3  2  0
  6 11  1  0
  6 12  1  0
 29 36  1  0
 29 37  1  0
  9  7  1  1
  7 13  1  0
 10  8  1  1
  8 14  1  0
 37 28  1  1
  4  5  1  0
 33 30  1  6
 30 38  1  0
 34 31  1  1
 31 39  1  0
 35 32  1  1
 32 40  1  0
 41 42  1  0
 41 43  1  0
 15 19  2  0
 16 22  2  0
 12 17  1  6
 17 19  1  0
 17 20  1  0
 18 19  1  0
 18 22  1  0
 18 23  1  0
  9 10  1  0
  9 11  1  0
 10 12  1  0
 11  5  1  6
 33 34  1  0
 33 35  1  0
 34 36  1  0
 35 37  1  0
 36 42  1  6
 20 21  2  0
 21 22  1  0
M  CHG  2   2  -1  26  -1
M  END
>  <COMPND>  (86) 
    8629 

>  <AUTHOR>  (86) 
    GENERATED BY OPEN BABEL 3.1.1

>  <MASTER>  (86) 
        0    0    0    0    0    0    0    0   58    0   58    0

>  <minimizedAffinity>  (86) 
-8.65378

>  <CNNscore>  (86) 
0.6883013248

>  <CNNaffinity>  (86) 
4.5520019531

>  <CNN_VS>  (86) 
3.1331489086

>  <CNNaffinity_variance>  (86) 
0.0214821510

$$$$
87
     RDKit          3D

 43 45  0  0  0  0  0  0  0  0999 V2000
   24.3981   71.3875    4.3379 P   0  0  2  0  0  0  0  0  0  0  0  0
   24.1152   72.7233    5.2058 O   0  0  0  0  0  0  0  0  0  0  0  0
   23.4377   70.2601    4.5786 O   0  0  0  0  0  0  0  0  0  0  0  0
   25.9553   71.0581    4.6284 O   0  0  0  0  0  0  0  0  0  0  0  0
   26.9043   71.3256    3.6107 C   0  0  0  0  0  0  0  0  0  0  0  0
   29.0489   72.3114    4.0606 O   0  0  0  0  0  0  0  0  0  0  0  0
   27.7545   74.9480    3.4578 O   0  0  0  0  0  0  0  0  0  0  0  0
   29.0966   74.4027    1.1474 O   0  0  0  0  0  0  0  0  0  0  0  0
   27.5289   73.6739    2.8569 C   0  0  1  0  0  0  0  0  0  0  0  0
   28.6815   73.3117    1.9438 C   0  0  2  0  0  0  0  0  0  0  0  0
   27.6414   72.6148    3.9464 C   0  0  1  0  0  0  0  0  0  0  0  0
   29.7450   72.8748    2.9369 C   0  0  2  0  0  0  0  0  0  0  0  0
   27.6875   75.6408    2.7814 H   0  0  0  0  0  0  0  0  0  0  0  0
   28.3862   74.6430    0.5323 H   0  0  0  0  0  0  0  0  0  0  0  0
   32.4275   72.5129    3.7439 O   0  0  0  0  0  0  0  0  0  0  0  0
   33.0447   69.0426    0.7745 O   0  0  0  0  0  0  0  0  0  0  0  0
   30.6295   71.8839    2.3916 N   0  0  0  0  0  0  0  0  0  0  0  0
   32.7326   70.7851    2.2649 N   0  0  0  0  0  0  0  0  0  0  0  0
   31.9584   71.7859    2.8657 C   0  0  0  0  0  0  0  0  0  0  0  0
   30.1768   71.0223    1.3984 C   0  0  0  0  0  0  0  0  0  0  0  0
   30.9280   70.0740    0.8348 C   0  0  0  0  0  0  0  0  0  0  0  0
   32.3284   69.9051    1.2734 C   0  0  0  0  0  0  0  0  0  0  0  0
   33.6619   70.6985    2.5790 H   0  0  0  0  0  0  0  0  0  0  0  0
   24.4208   71.9393    2.8187 O   0  0  0  0  0  0  0  0  0  0  0  0
   23.2747   72.6562    1.9324 P   0  0  2  0  0  0  0  0  0  0  0  0
   23.9409   74.0787    1.5449 O   0  0  0  0  0  0  0  0  0  0  0  0
   21.9431   72.7623    2.6178 O   0  0  0  0  0  0  0  0  0  0  0  0
   23.2501   71.8269    0.5481 O   0  0  0  0  0  0  0  0  0  0  0  0
   21.5326   71.1756   -0.9495 O   0  0  0  0  0  0  0  0  0  0  0  0
   23.7030   67.6637   -0.8672 O   0  0  0  0  0  0  0  0  0  0  0  0
   23.7817   69.3246   -3.2088 O   0  0  0  0  0  0  0  0  0  0  0  0
   23.3671   69.2106    1.5564 O   0  0  0  0  0  0  0  0  0  0  0  0
   23.5175   69.0816   -0.8441 C   0  0  1  0  0  0  0  0  0  0  0  0
   22.8419   69.4983   -2.1520 C   0  0  1  0  0  0  0  0  0  0  0  0
   22.6445   69.4513    0.3537 C   0  0  2  0  0  0  0  0  0  0  0  0
   22.3696   70.9572   -2.0912 C   0  0  1  0  0  0  0  0  0  0  0  0
   22.1892   70.9104    0.2917 C   0  0  1  0  0  0  0  0  0  0  0  0
   24.2569   67.4223   -1.6251 H   0  0  0  0  0  0  0  0  0  0  0  0
   24.0722   68.3994   -3.2360 H   0  0  0  0  0  0  0  0  0  0  0  0
   23.6495   68.2836    1.5837 H   0  0  0  0  0  0  0  0  0  0  0  0
   20.1795   71.2645   -2.9958 O   0  0  0  0  0  0  0  0  0  0  0  0
   21.5546   71.3462   -3.3227 C   0  0  0  0  0  0  0  0  0  0  0  0
   19.6486   71.5098   -3.7701 H   0  0  0  0  0  0  0  0  0  0  0  0
 25 28  1  0
 25 24  1  0
 25 26  1  6
 25 27  2  0
  1  4  1  0
  1 24  1  0
  1  2  1  1
  1  3  2  0
  6 11  1  0
  6 12  1  0
 29 36  1  0
 29 37  1  0
  9  7  1  1
  7 13  1  0
 10  8  1  1
  8 14  1  0
 37 28  1  6
  4  5  1  0
 33 30  1  6
 30 38  1  0
 34 31  1  6
 31 39  1  0
 35 32  1  1
 32 40  1  0
 41 42  1  0
 41 43  1  0
 15 19  2  0
 16 22  2  0
 12 17  1  6
 17 19  1  0
 17 20  1  0
 18 19  1  0
 18 22  1  0
 18 23  1  0
  9 10  1  0
  9 11  1  0
 10 12  1  0
 11  5  1  6
 33 34  1  0
 33 35  1  0
 34 36  1  0
 35 37  1  0
 36 42  1  6
 20 21  2  0
 21 22  1  0
M  CHG  2   2  -1  26  -1
M  END
>  <COMPND>  (87) 
    8629 

>  <AUTHOR>  (87) 
    GENERATED BY OPEN BABEL 3.1.1

>  <MASTER>  (87) 
        0    0    0    0    0    0    0    0   58    0   58    0

>  <minimizedAffinity>  (87) 
-8.09406

>  <CNNscore>  (87) 
0.6501877308

>  <CNNaffinity>  (87) 
4.5336713791

>  <CNN_VS>  (87) 
2.9477374554

>  <CNNaffinity_variance>  (87) 
0.0499108806

$$$$
88
     RDKit          3D

 43 45  0  0  0  0  0  0  0  0999 V2000
   21.4257   70.4177    0.4845 P   0  0  2  0  0  0  0  0  0  0  0  0
   20.3650   71.1576    1.4565 O   0  0  0  0  0  0  0  0  0  0  0  0
   21.2636   68.9292    0.3859 O   0  0  0  0  0  0  0  0  0  0  0  0
   22.8644   70.9341    1.0149 O   0  0  0  0  0  0  0  0  0  0  0  0
   23.6278   70.0748    1.8435 C   0  0  0  0  0  0  0  0  0  0  0  0
   24.6534   70.2599    4.0086 O   0  0  0  0  0  0  0  0  0  0  0  0
   22.3846   72.0866    4.7202 O   0  0  0  0  0  0  0  0  0  0  0  0
   24.4160   73.8328    4.2096 O   0  0  0  0  0  0  0  0  0  0  0  0
   23.0721   71.9433    3.4784 C   0  0  1  0  0  0  0  0  0  0  0  0
   24.4447   72.5778    3.5610 C   0  0  2  0  0  0  0  0  0  0  0  0
   23.4133   70.4694    3.2983 C   0  0  1  0  0  0  0  0  0  0  0  0
   25.2276   71.5347    4.3402 C   0  0  2  0  0  0  0  0  0  0  0  0
   22.1559   73.0199    4.8572 H   0  0  0  0  0  0  0  0  0  0  0  0
   23.9067   74.4617    3.6750 H   0  0  0  0  0  0  0  0  0  0  0  0
   27.1649   73.2604    5.4567 O   0  0  0  0  0  0  0  0  0  0  0  0
   30.5424   71.4013    2.9313 O   0  0  0  0  0  0  0  0  0  0  0  0
   26.6207   71.5231    3.9929 N   0  0  0  0  0  0  0  0  0  0  0  0
   28.8451   72.3332    4.1985 N   0  0  0  0  0  0  0  0  0  0  0  0
   27.5103   72.4323    4.6114 C   0  0  0  0  0  0  0  0  0  0  0  0
   27.0921   70.6172    3.0490 C   0  0  0  0  0  0  0  0  0  0  0  0
   28.3678   70.5364    2.6652 C   0  0  0  0  0  0  0  0  0  0  0  0
   29.3620   71.4507    3.2632 C   0  0  0  0  0  0  0  0  0  0  0  0
   29.4829   72.9569    4.6156 H   0  0  0  0  0  0  0  0  0  0  0  0
   21.2493   71.2078   -0.9146 O   0  0  0  0  0  0  0  0  0  0  0  0
   21.6064   70.7749   -2.4305 P   0  0  2  0  0  0  0  0  0  0  0  0
   22.4752   69.4241   -2.2358 O   0  0  0  0  0  0  0  0  0  0  0  0
   22.2941   71.8436   -3.2298 O   0  0  0  0  0  0  0  0  0  0  0  0
   20.2047   70.2719   -3.0527 O   0  0  0  0  0  0  0  0  0  0  0  0
   18.9506   72.0908   -3.9103 O   0  0  0  0  0  0  0  0  0  0  0  0
   16.0983   69.1206   -4.2156 O   0  0  0  0  0  0  0  0  0  0  0  0
   17.3575   70.1270   -6.5925 O   0  0  0  0  0  0  0  0  0  0  0  0
   17.8720   69.1896   -1.9290 O   0  0  0  0  0  0  0  0  0  0  0  0
   17.4201   69.6658   -4.2464 C   0  0  1  0  0  0  0  0  0  0  0  0
   17.4642   70.7563   -5.3186 C   0  0  1  0  0  0  0  0  0  0  0  0
   17.7521   70.2478   -2.8737 C   0  0  2  0  0  0  0  0  0  0  0  0
   18.7639   71.5676   -5.2306 C   0  0  1  0  0  0  0  0  0  0  0  0
   19.0374   71.0767   -2.9074 C   0  0  1  0  0  0  0  0  0  0  0  0
   15.8814   68.7490   -5.0842 H   0  0  0  0  0  0  0  0  0  0  0  0
   16.5328   69.6177   -6.6349 H   0  0  0  0  0  0  0  0  0  0  0  0
   17.0520   68.6726   -1.9169 H   0  0  0  0  0  0  0  0  0  0  0  0
   18.9598   72.2791   -7.5031 O   0  0  0  0  0  0  0  0  0  0  0  0
   18.7604   72.7588   -6.1861 C   0  0  0  0  0  0  0  0  0  0  0  0
   18.9596   73.0263   -8.1222 H   0  0  0  0  0  0  0  0  0  0  0  0
 25 28  1  0
 25 24  1  0
 25 26  1  1
 25 27  2  0
  1  4  1  0
  1 24  1  0
  1  2  1  1
  1  3  2  0
  6 11  1  0
  6 12  1  0
 29 36  1  0
 29 37  1  0
  9  7  1  1
  7 13  1  0
 10  8  1  1
  8 14  1  0
 37 28  1  6
  4  5  1  0
 33 30  1  1
 30 38  1  0
 34 31  1  6
 31 39  1  0
 35 32  1  1
 32 40  1  0
 41 42  1  0
 41 43  1  0
 15 19  2  0
 16 22  2  0
 12 17  1  6
 17 19  1  0
 17 20  1  0
 18 19  1  0
 18 22  1  0
 18 23  1  0
  9 10  1  0
  9 11  1  0
 10 12  1  0
 11  5  1  6
 33 34  1  0
 33 35  1  0
 34 36  1  0
 35 37  1  0
 36 42  1  6
 20 21  2  0
 21 22  1  0
M  CHG  2   2  -1  26  -1
M  END
>  <COMPND>  (88) 
    8629 

>  <AUTHOR>  (88) 
    GENERATED BY OPEN BABEL 3.1.1

>  <MASTER>  (88) 
        0    0    0    0    0    0    0    0   58    0   58    0

>  <minimizedAffinity>  (88) 
-9.53195

>  <CNNscore>  (88) 
0.6484854221

>  <CNNaffinity>  (88) 
4.8021531105

>  <CNN_VS>  (88) 
3.1141262054

>  <CNNaffinity_variance>  (88) 
0.3079956174

$$$$
89
     RDKit          3D

 43 45  0  0  0  0  0  0  0  0999 V2000
   22.5276   71.3395   -3.0898 P   0  0  2  0  0  0  0  0  0  0  0  0
   22.5036   72.0877   -1.6555 O   0  0  0  0  0  0  0  0  0  0  0  0
   23.6069   71.7981   -4.0258 O   0  0  0  0  0  0  0  0  0  0  0  0
   21.0121   71.4952   -3.6345 O   0  0  0  0  0  0  0  0  0  0  0  0
   20.0027   70.6778   -3.0683 C   0  0  0  0  0  0  0  0  0  0  0  0
   18.5818   72.0481   -4.4383 O   0  0  0  0  0  0  0  0  0  0  0  0
   16.3526   71.2484   -2.5993 O   0  0  0  0  0  0  0  0  0  0  0  0
   15.9540   69.6281   -4.7562 O   0  0  0  0  0  0  0  0  0  0  0  0
   17.4661   70.4812   -3.0542 C   0  0  1  0  0  0  0  0  0  0  0  0
   17.2696   70.0755   -4.5000 C   0  0  2  0  0  0  0  0  0  0  0  0
   18.6702   71.4103   -3.1453 C   0  0  1  0  0  0  0  0  0  0  0  0
   17.6035   71.3618   -5.2363 C   0  0  2  0  0  0  0  0  0  0  0  0
   15.5715   70.6762   -2.5328 H   0  0  0  0  0  0  0  0  0  0  0  0
   15.7900   68.8077   -4.2655 H   0  0  0  0  0  0  0  0  0  0  0  0
   16.0636   70.8055   -7.5378 O   0  0  0  0  0  0  0  0  0  0  0  0
   19.8178   70.4471  -10.1871 O   0  0  0  0  0  0  0  0  0  0  0  0
   18.1526   71.1194   -6.5406 N   0  0  0  0  0  0  0  0  0  0  0  0
   17.9341   70.6276   -8.8551 N   0  0  0  0  0  0  0  0  0  0  0  0
   17.2921   70.8484   -7.6299 C   0  0  0  0  0  0  0  0  0  0  0  0
   19.5299   71.1522   -6.7297 C   0  0  0  0  0  0  0  0  0  0  0  0
   20.1265   70.9383   -7.9043 C   0  0  0  0  0  0  0  0  0  0  0  0
   19.2992   70.6483   -9.0932 C   0  0  0  0  0  0  0  0  0  0  0  0
   17.3548   70.4365   -9.6281 H   0  0  0  0  0  0  0  0  0  0  0  0
   22.6088   69.7771   -2.6833 O   0  0  0  0  0  0  0  0  0  0  0  0
   23.6500   68.9785   -1.7393 P   0  0  2  0  0  0  0  0  0  0  0  0
   25.0908   69.3674   -2.3641 O   0  0  0  0  0  0  0  0  0  0  0  0
   23.3919   67.5022   -1.6498 O   0  0  0  0  0  0  0  0  0  0  0  0
   23.5964   69.7538   -0.3248 O   0  0  0  0  0  0  0  0  0  0  0  0
   23.6410   69.2274    1.9855 O   0  0  0  0  0  0  0  0  0  0  0  0
   20.3022   71.6564    1.9265 O   0  0  0  0  0  0  0  0  0  0  0  0
   22.7412   72.6268    3.0918 O   0  0  0  0  0  0  0  0  0  0  0  0
   20.7918   69.8216   -0.2583 O   0  0  0  0  0  0  0  0  0  0  0  0
   21.6043   71.2214    1.5255 C   0  0  1  0  0  0  0  0  0  0  0  0
   22.5213   71.2612    2.7495 C   0  0  1  0  0  0  0  0  0  0  0  0
   21.5075   69.8009    0.9721 C   0  0  2  0  0  0  0  0  0  0  0  0
   23.8563   70.5601    2.4645 C   0  0  1  0  0  0  0  0  0  0  0  0
   22.8900   69.1778    0.7709 C   0  0  1  0  0  0  0  0  0  0  0  0
   20.3565   72.5579    2.2784 H   0  0  0  0  0  0  0  0  0  0  0  0
   21.8904   73.0580    3.2688 H   0  0  0  0  0  0  0  0  0  0  0  0
   19.9184   70.2180   -0.1175 H   0  0  0  0  0  0  0  0  0  0  0  0
   23.8930   70.6065    4.8531 O   0  0  0  0  0  0  0  0  0  0  0  0
   24.7230   70.4493    3.7170 C   0  0  0  0  0  0  0  0  0  0  0  0
   24.4310   70.5380    5.6578 H   0  0  0  0  0  0  0  0  0  0  0  0
 25 28  1  0
 25 24  1  0
 25 26  1  6
 25 27  2  0
  1  4  1  0
  1 24  1  0
  1  2  1  1
  1  3  2  0
  6 11  1  0
  6 12  1  0
 29 36  1  0
 29 37  1  0
  9  7  1  6
  7 13  1  0
 10  8  1  1
  8 14  1  0
 37 28  1  6
  4  5  1  0
 33 30  1  1
 30 38  1  0
 34 31  1  6
 31 39  1  0
 35 32  1  6
 32 40  1  0
 41 42  1  0
 41 43  1  0
 15 19  2  0
 16 22  2  0
 12 17  1  6
 17 19  1  0
 17 20  1  0
 18 19  1  0
 18 22  1  0
 18 23  1  0
  9 10  1  0
  9 11  1  0
 10 12  1  0
 11  5  1  6
 33 34  1  0
 33 35  1  0
 34 36  1  0
 35 37  1  0
 36 42  1  1
 20 21  2  0
 21 22  1  0
M  CHG  2   2  -1  26  -1
M  END
>  <COMPND>  (89) 
    8629 

>  <AUTHOR>  (89) 
    GENERATED BY OPEN BABEL 3.1.1

>  <MASTER>  (89) 
        0    0    0    0    0    0    0    0   58    0   58    0

>  <minimizedAffinity>  (89) 
-8.80506

>  <CNNscore>  (89) 
0.6121814847

>  <CNNaffinity>  (89) 
4.6727113724

>  <CNN_VS>  (89) 
2.8605473042

>  <CNNaffinity_variance>  (89) 
0.0606634617

$$$$
90
     RDKit          3D

 43 45  0  0  0  0  0  0  0  0999 V2000
   20.7710   71.0455   -0.4477 P   0  0  2  0  0  0  0  0  0  0  0  0
   20.3485   70.2933    0.9208 O   0  0  0  0  0  0  0  0  0  0  0  0
   20.7078   72.5437   -0.3930 O   0  0  0  0  0  0  0  0  0  0  0  0
   19.8489   70.3441   -1.5772 O   0  0  0  0  0  0  0  0  0  0  0  0
   19.6541   71.0207   -2.8068 C   0  0  0  0  0  0  0  0  0  0  0  0
   17.9824   71.9753   -4.2449 O   0  0  0  0  0  0  0  0  0  0  0  0
   15.9627   70.7114   -2.4244 O   0  0  0  0  0  0  0  0  0  0  0  0
   16.0184   68.9887   -4.5376 O   0  0  0  0  0  0  0  0  0  0  0  0
   17.2386   70.2223   -2.8344 C   0  0  1  0  0  0  0  0  0  0  0  0
   17.1819   69.7448   -4.2705 C   0  0  2  0  0  0  0  0  0  0  0  0
   18.1875   71.4103   -2.9315 C   0  0  1  0  0  0  0  0  0  0  0  0
   17.2174   71.0545   -5.0397 C   0  0  2  0  0  0  0  0  0  0  0  0
   15.3396   69.9706   -2.3550 H   0  0  0  0  0  0  0  0  0  0  0  0
   16.0428   68.1656   -4.0251 H   0  0  0  0  0  0  0  0  0  0  0  0
   15.8648   70.2846   -7.3967 O   0  0  0  0  0  0  0  0  0  0  0  0
   19.7147   70.5618   -9.9151 O   0  0  0  0  0  0  0  0  0  0  0  0
   17.8417   70.9179   -6.3253 N   0  0  0  0  0  0  0  0  0  0  0  0
   17.7828   70.4234   -8.6488 N   0  0  0  0  0  0  0  0  0  0  0  0
   17.0729   70.5247   -7.4455 C   0  0  0  0  0  0  0  0  0  0  0  0
   19.2015   71.1729   -6.4660 C   0  0  0  0  0  0  0  0  0  0  0  0
   19.8638   71.0705   -7.6202 C   0  0  0  0  0  0  0  0  0  0  0  0
   19.1342   70.6651   -8.8389 C   0  0  0  0  0  0  0  0  0  0  0  0
   17.2679   70.1507   -9.4427 H   0  0  0  0  0  0  0  0  0  0  0  0
   22.2403   70.4450   -0.7539 O   0  0  0  0  0  0  0  0  0  0  0  0
   23.1973   69.4818    0.1233 P   0  0  2  0  0  0  0  0  0  0  0  0
   24.6646   69.7441   -0.5058 O   0  0  0  0  0  0  0  0  0  0  0  0
   22.7766   68.0407    0.1338 O   0  0  0  0  0  0  0  0  0  0  0  0
   23.2487   70.1742    1.5803 O   0  0  0  0  0  0  0  0  0  0  0  0
   23.4655   72.5321    1.6797 O   0  0  0  0  0  0  0  0  0  0  0  0
   24.6433   71.5986    5.5257 O   0  0  0  0  0  0  0  0  0  0  0  0
   22.0835   72.8237    5.0846 O   0  0  0  0  0  0  0  0  0  0  0  0
   25.4325   69.8971    3.3208 O   0  0  0  0  0  0  0  0  0  0  0  0
   23.8853   71.4477    4.3224 C   0  0  1  0  0  0  0  0  0  0  0  0
   23.0973   72.7379    4.0871 C   0  0  1  0  0  0  0  0  0  0  0  0
   24.8408   71.1819    3.1606 C   0  0  2  0  0  0  0  0  0  0  0  0
   22.4713   72.7570    2.6860 C   0  0  1  0  0  0  0  0  0  0  0  0
   24.1274   71.2725    1.8104 C   0  0  1  0  0  0  0  0  0  0  0  0
   24.0424   71.7671    6.2674 H   0  0  0  0  0  0  0  0  0  0  0  0
   22.4919   72.8101    5.9645 H   0  0  0  0  0  0  0  0  0  0  0  0
   25.8812   69.8526    4.1790 H   0  0  0  0  0  0  0  0  0  0  0  0
   22.2037   74.4964    1.0699 O   0  0  0  0  0  0  0  0  0  0  0  0
   21.8139   74.0990    2.3716 C   0  0  0  0  0  0  0  0  0  0  0  0
   21.7925   75.3489    0.8560 H   0  0  0  0  0  0  0  0  0  0  0  0
 25 28  1  0
 25 24  1  0
 25 26  1  6
 25 27  2  0
  1  4  1  0
  1 24  1  0
  1  2  1  1
  1  3  2  0
  6 11  1  0
  6 12  1  0
 29 36  1  0
 29 37  1  0
  9  7  1  6
  7 13  1  0
 10  8  1  1
  8 14  1  0
 37 28  1  1
  4  5  1  0
 33 30  1  1
 30 38  1  0
 34 31  1  1
 31 39  1  0
 35 32  1  1
 32 40  1  0
 41 42  1  0
 41 43  1  0
 15 19  2  0
 16 22  2  0
 12 17  1  6
 17 19  1  0
 17 20  1  0
 18 19  1  0
 18 22  1  0
 18 23  1  0
  9 10  1  0
  9 11  1  0
 10 12  1  0
 11  5  1  6
 33 34  1  0
 33 35  1  0
 34 36  1  0
 35 37  1  0
 36 42  1  6
 20 21  2  0
 21 22  1  0
M  CHG  2   2  -1  26  -1
M  END
>  <COMPND>  (90) 
    8629 

>  <AUTHOR>  (90) 
    GENERATED BY OPEN BABEL 3.1.1

>  <MASTER>  (90) 
        0    0    0    0    0    0    0    0   58    0   58    0

>  <minimizedAffinity>  (90) 
-8.45002

>  <CNNscore>  (90) 
0.5830662847

>  <CNNaffinity>  (90) 
4.7034235001

>  <CNN_VS>  (90) 
2.7424075603

>  <CNNaffinity_variance>  (90) 
0.0982926488

$$$$
91
     RDKit          3D

 43 45  0  0  0  0  0  0  0  0999 V2000
   20.8462   70.6157   -0.3142 P   0  0  2  0  0  0  0  0  0  0  0  0
   20.7892   69.2909    0.6128 O   0  0  0  0  0  0  0  0  0  0  0  0
   21.6061   70.4583   -1.5984 O   0  0  0  0  0  0  0  0  0  0  0  0
   21.3873   71.7666    0.6859 O   0  0  0  0  0  0  0  0  0  0  0  0
   22.6513   71.5882    1.3011 C   0  0  0  0  0  0  0  0  0  0  0  0
   23.5914   70.7529    3.3486 O   0  0  0  0  0  0  0  0  0  0  0  0
   21.7254   72.6330    4.7536 O   0  0  0  0  0  0  0  0  0  0  0  0
   24.0991   73.9723    4.8456 O   0  0  0  0  0  0  0  0  0  0  0  0
   22.4244   72.8081    3.5223 C   0  0  1  0  0  0  0  0  0  0  0  0
   23.8942   73.0629    3.7836 C   0  0  2  0  0  0  0  0  0  0  0  0
   22.4570   71.4637    2.8061 C   0  0  1  0  0  0  0  0  0  0  0  0
   24.4041   71.6676    4.1021 C   0  0  2  0  0  0  0  0  0  0  0  0
   21.6913   73.4786    5.2289 H   0  0  0  0  0  0  0  0  0  0  0  0
   23.7583   74.8449    4.5945 H   0  0  0  0  0  0  0  0  0  0  0  0
   26.6042   72.2664    5.7692 O   0  0  0  0  0  0  0  0  0  0  0  0
   29.6324   70.9395    2.5582 O   0  0  0  0  0  0  0  0  0  0  0  0
   25.7783   71.4879    3.7273 N   0  0  0  0  0  0  0  0  0  0  0  0
   28.1102   71.6050    4.1690 N   0  0  0  0  0  0  0  0  0  0  0  0
   26.8081   71.8203    4.6382 C   0  0  0  0  0  0  0  0  0  0  0  0
   26.0936   70.9869    2.4689 C   0  0  0  0  0  0  0  0  0  0  0  0
   27.3406   70.7887    2.0364 C   0  0  0  0  0  0  0  0  0  0  0  0
   28.4745   71.1105    2.9267 C   0  0  0  0  0  0  0  0  0  0  0  0
   28.8438   71.8298    4.7863 H   0  0  0  0  0  0  0  0  0  0  0  0
   19.2864   70.9980   -0.4981 O   0  0  0  0  0  0  0  0  0  0  0  0
   18.2666   70.7359   -1.7246 P   0  0  2  0  0  0  0  0  0  0  0  0
   17.0482   71.7554   -1.4184 O   0  0  0  0  0  0  0  0  0  0  0  0
   17.8496   69.3023   -1.8825 O   0  0  0  0  0  0  0  0  0  0  0  0
   19.0084   71.3626   -3.0137 O   0  0  0  0  0  0  0  0  0  0  0  0
   20.3450   73.3086   -3.2211 O   0  0  0  0  0  0  0  0  0  0  0  0
   18.3857   73.4637   -6.8527 O   0  0  0  0  0  0  0  0  0  0  0  0
   21.1640   72.7410   -6.7702 O   0  0  0  0  0  0  0  0  0  0  0  0
   16.9649   72.6061   -4.4809 O   0  0  0  0  0  0  0  0  0  0  0  0
   19.0095   72.8258   -5.7349 C   0  0  1  0  0  0  0  0  0  0  0  0
   20.4627   73.2988   -5.6624 C   0  0  1  0  0  0  0  0  0  0  0  0
   18.2568   73.2036   -4.4606 C   0  0  2  0  0  0  0  0  0  0  0  0
   21.1196   72.8701   -4.3434 C   0  0  1  0  0  0  0  0  0  0  0  0
   19.0196   72.7747   -3.2058 C   0  0  1  0  0  0  0  0  0  0  0  0
   18.8586   73.2275   -7.6652 H   0  0  0  0  0  0  0  0  0  0  0  0
   20.7388   73.0190   -7.5967 H   0  0  0  0  0  0  0  0  0  0  0  0
   16.4920   72.8857   -5.2797 H   0  0  0  0  0  0  0  0  0  0  0  0
   23.4029   72.7718   -5.0404 O   0  0  0  0  0  0  0  0  0  0  0  0
   22.5168   73.4645   -4.1806 C   0  0  0  0  0  0  0  0  0  0  0  0
   24.2961   73.1397   -4.9477 H   0  0  0  0  0  0  0  0  0  0  0  0
 25 28  1  0
 25 24  1  0
 25 26  1  1
 25 27  2  0
  1  4  1  0
  1 24  1  0
  1  2  1  1
  1  3  2  0
  6 11  1  0
  6 12  1  0
 29 36  1  0
 29 37  1  0
  9  7  1  1
  7 13  1  0
 10  8  1  1
  8 14  1  0
 37 28  1  6
  4  5  1  0
 33 30  1  6
 30 38  1  0
 34 31  1  6
 31 39  1  0
 35 32  1  6
 32 40  1  0
 41 42  1  0
 41 43  1  0
 15 19  2  0
 16 22  2  0
 12 17  1  6
 17 19  1  0
 17 20  1  0
 18 19  1  0
 18 22  1  0
 18 23  1  0
  9 10  1  0
  9 11  1  0
 10 12  1  0
 11  5  1  6
 33 34  1  0
 33 35  1  0
 34 36  1  0
 35 37  1  0
 36 42  1  1
 20 21  2  0
 21 22  1  0
M  CHG  2   2  -1  26  -1
M  END
>  <COMPND>  (91) 
    8629 

>  <AUTHOR>  (91) 
    GENERATED BY OPEN BABEL 3.1.1

>  <MASTER>  (91) 
        0    0    0    0    0    0    0    0   58    0   58    0

>  <minimizedAffinity>  (91) 
-7.93351

>  <CNNscore>  (91) 
0.5344337225

>  <CNNaffinity>  (91) 
4.4340643883

>  <CNN_VS>  (91) 
2.3697135448

>  <CNNaffinity_variance>  (91) 
0.1700522453

$$$$
92
     RDKit          3D

 43 45  0  0  0  0  0  0  0  0999 V2000
   22.3513   69.2981    0.0717 P   0  0  2  0  0  0  0  0  0  0  0  0
   20.8378   69.2811    0.6428 O   0  0  0  0  0  0  0  0  0  0  0  0
   22.9762   67.9458   -0.1080 O   0  0  0  0  0  0  0  0  0  0  0  0
   23.1314   70.3057    1.0687 O   0  0  0  0  0  0  0  0  0  0  0  0
   24.1060   69.7687    1.9460 C   0  0  0  0  0  0  0  0  0  0  0  0
   25.0603   70.2335    4.1017 O   0  0  0  0  0  0  0  0  0  0  0  0
   22.5993   71.8622    4.6322 O   0  0  0  0  0  0  0  0  0  0  0  0
   24.4486   73.7662    4.0066 O   0  0  0  0  0  0  0  0  0  0  0  0
   23.3243   71.6932    3.4152 C   0  0  1  0  0  0  0  0  0  0  0  0
   24.6215   72.4733    3.4632 C   0  0  2  0  0  0  0  0  0  0  0  0
   23.8206   70.2537    3.3607 C   0  0  1  0  0  0  0  0  0  0  0  0
   25.4917   71.5842    4.3352 C   0  0  2  0  0  0  0  0  0  0  0  0
   22.2720   72.7741    4.6894 H   0  0  0  0  0  0  0  0  0  0  0  0
   23.8882   74.2931    3.4158 H   0  0  0  0  0  0  0  0  0  0  0  0
   27.1899   73.6495    5.2454 O   0  0  0  0  0  0  0  0  0  0  0  0
   30.8217   71.8958    3.0148 O   0  0  0  0  0  0  0  0  0  0  0  0
   26.8856   71.6917    4.0080 N   0  0  0  0  0  0  0  0  0  0  0  0
   28.9969   72.7745    4.1341 N   0  0  0  0  0  0  0  0  0  0  0  0
   27.6493   72.7682    4.5160 C   0  0  0  0  0  0  0  0  0  0  0  0
   27.4815   70.7361    3.1920 C   0  0  0  0  0  0  0  0  0  0  0  0
   28.7676   70.7572    2.8361 C   0  0  0  0  0  0  0  0  0  0  0  0
   29.6352   71.8485    3.3244 C   0  0  0  0  0  0  0  0  0  0  0  0
   29.5484   73.5154    4.4759 H   0  0  0  0  0  0  0  0  0  0  0  0
   22.2173   70.1632   -1.2873 O   0  0  0  0  0  0  0  0  0  0  0  0
   21.5632   71.6159   -1.5607 P   0  0  2  0  0  0  0  0  0  0  0  0
   20.1758   71.2622   -2.3141 O   0  0  0  0  0  0  0  0  0  0  0  0
   22.4542   72.5598   -2.3149 O   0  0  0  0  0  0  0  0  0  0  0  0
   21.1128   72.1420   -0.1029 O   0  0  0  0  0  0  0  0  0  0  0  0
   19.1585   73.2376    0.6699 O   0  0  0  0  0  0  0  0  0  0  0  0
   21.9854   75.3195    2.8436 O   0  0  0  0  0  0  0  0  0  0  0  0
   20.2813   73.4303    4.1758 O   0  0  0  0  0  0  0  0  0  0  0  0
   22.5479   74.5440    0.1120 O   0  0  0  0  0  0  0  0  0  0  0  0
   21.4174   74.1723    2.2061 C   0  0  1  0  0  0  0  0  0  0  0  0
   20.0565   73.8923    2.8467 C   0  0  1  0  0  0  0  0  0  0  0  0
   21.2606   74.4570    0.7136 C   0  0  2  0  0  0  0  0  0  0  0  0
   19.2706   72.8472    2.0435 C   0  0  1  0  0  0  0  0  0  0  0  0
   20.4221   73.3828    0.0186 C   0  0  1  0  0  0  0  0  0  0  0  0
   22.0881   75.1451    3.7916 H   0  0  0  0  0  0  0  0  0  0  0  0
   20.7788   74.0991    4.6721 H   0  0  0  0  0  0  0  0  0  0  0  0
   23.0688   75.2276    0.5606 H   0  0  0  0  0  0  0  0  0  0  0  0
   17.9109   71.9402    3.7864 O   0  0  0  0  0  0  0  0  0  0  0  0
   17.8497   72.6683    2.5738 C   0  0  0  0  0  0  0  0  0  0  0  0
   17.0137   71.8190    4.1357 H   0  0  0  0  0  0  0  0  0  0  0  0
 25 28  1  0
 25 24  1  0
 25 26  1  6
 25 27  2  0
  1  4  1  0
  1 24  1  0
  1  2  1  1
  1  3  2  0
  6 11  1  0
  6 12  1  0
 29 36  1  0
 29 37  1  0
  9  7  1  1
  7 13  1  0
 10  8  1  1
  8 14  1  0
 37 28  1  1
  4  5  1  0
 33 30  1  1
 30 38  1  0
 34 31  1  1
 31 39  1  0
 35 32  1  6
 32 40  1  0
 41 42  1  0
 41 43  1  0
 15 19  2  0
 16 22  2  0
 12 17  1  6
 17 19  1  0
 17 20  1  0
 18 19  1  0
 18 22  1  0
 18 23  1  0
  9 10  1  0
  9 11  1  0
 10 12  1  0
 11  5  1  6
 33 34  1  0
 33 35  1  0
 34 36  1  0
 35 37  1  0
 36 42  1  1
 20 21  2  0
 21 22  1  0
M  CHG  2   2  -1  26  -1
M  END
>  <COMPND>  (92) 
    8629 

>  <AUTHOR>  (92) 
    GENERATED BY OPEN BABEL 3.1.1

>  <MASTER>  (92) 
        0    0    0    0    0    0    0    0   58    0   58    0

>  <minimizedAffinity>  (92) 
-7.62321

>  <CNNscore>  (92) 
0.5076382756

>  <CNNaffinity>  (92) 
4.4875092506

>  <CNN_VS>  (92) 
2.2780313492

>  <CNNaffinity_variance>  (92) 
0.2723001540

$$$$
93
     RDKit          3D

 43 45  0  0  0  0  0  0  0  0999 V2000
   23.0005   69.6399   -2.0222 P   0  0  2  0  0  0  0  0  0  0  0  0
   23.7928   70.3521   -3.2399 O   0  0  0  0  0  0  0  0  0  0  0  0
   23.3113   68.1847   -1.8291 O   0  0  0  0  0  0  0  0  0  0  0  0
   21.4482   69.9949   -2.3086 O   0  0  0  0  0  0  0  0  0  0  0  0
   21.1404   70.8602   -3.3876 C   0  0  0  0  0  0  0  0  0  0  0  0
   19.3121   72.0300   -4.4185 O   0  0  0  0  0  0  0  0  0  0  0  0
   17.6425   71.0591   -2.1250 O   0  0  0  0  0  0  0  0  0  0  0  0
   16.9594   69.3388   -4.1276 O   0  0  0  0  0  0  0  0  0  0  0  0
   18.7059   70.3991   -2.8098 C   0  0  1  0  0  0  0  0  0  0  0  0
   18.2422   69.9297   -4.1729 C   0  0  2  0  0  0  0  0  0  0  0  0
   19.7516   71.4461   -3.1726 C   0  0  1  0  0  0  0  0  0  0  0  0
   18.2635   71.2200   -4.9746 C   0  0  2  0  0  0  0  0  0  0  0  0
   16.9624   70.4104   -1.8827 H   0  0  0  0  0  0  0  0  0  0  0  0
   16.9979   68.5215   -3.6068 H   0  0  0  0  0  0  0  0  0  0  0  0
   16.3042   70.5534   -6.8966 O   0  0  0  0  0  0  0  0  0  0  0  0
   19.4237   70.3812  -10.2849 O   0  0  0  0  0  0  0  0  0  0  0  0
   18.5358   70.9958   -6.3663 N   0  0  0  0  0  0  0  0  0  0  0  0
   17.8590   70.4684   -8.5822 N   0  0  0  0  0  0  0  0  0  0  0  0
   17.4805   70.6650   -7.2480 C   0  0  0  0  0  0  0  0  0  0  0  0
   19.8372   71.1047   -6.8442 C   0  0  0  0  0  0  0  0  0  0  0  0
   20.1817   70.9128   -8.1192 C   0  0  0  0  0  0  0  0  0  0  0  0
   19.1388   70.5640   -9.1054 C   0  0  0  0  0  0  0  0  0  0  0  0
   17.1405   70.2367   -9.2146 H   0  0  0  0  0  0  0  0  0  0  0  0
   23.3603   70.5785   -0.7563 O   0  0  0  0  0  0  0  0  0  0  0  0
   22.4667   71.0450    0.5073 P   0  0  2  0  0  0  0  0  0  0  0  0
   21.9303   69.6465    1.1189 O   0  0  0  0  0  0  0  0  0  0  0  0
   21.3839   72.0274    0.1660 O   0  0  0  0  0  0  0  0  0  0  0  0
   23.5377   71.5794    1.5901 O   0  0  0  0  0  0  0  0  0  0  0  0
   25.7387   70.7842    1.9637 O   0  0  0  0  0  0  0  0  0  0  0  0
   24.7751   71.8965    5.8219 O   0  0  0  0  0  0  0  0  0  0  0  0
   26.6417   73.4757    4.3152 O   0  0  0  0  0  0  0  0  0  0  0  0
   22.7733   70.6663    4.1311 O   0  0  0  0  0  0  0  0  0  0  0  0
   24.7632   71.9973    4.3953 C   0  0  1  0  0  0  0  0  0  0  0  0
   26.2044   72.1799    3.9154 C   0  0  1  0  0  0  0  0  0  0  0  0
   24.1589   70.7224    3.8098 C   0  0  2  0  0  0  0  0  0  0  0  0
   26.3041   72.0289    2.3915 C   0  0  1  0  0  0  0  0  0  0  0  0
   24.3553   70.6485    2.2945 C   0  0  1  0  0  0  0  0  0  0  0  0
   25.1572   72.7031    6.1999 H   0  0  0  0  0  0  0  0  0  0  0  0
   26.5732   73.5581    5.2795 H   0  0  0  0  0  0  0  0  0  0  0  0
   22.6623   70.7136    5.0931 H   0  0  0  0  0  0  0  0  0  0  0  0
   27.9368   70.9861    0.9929 O   0  0  0  0  0  0  0  0  0  0  0  0
   27.7526   72.0503    1.9082 C   0  0  0  0  0  0  0  0  0  0  0  0
   28.8542   70.9875    0.6766 H   0  0  0  0  0  0  0  0  0  0  0  0
 25 28  1  0
 25 24  1  0
 25 26  1  1
 25 27  2  0
  1  4  1  0
  1 24  1  0
  1  2  1  6
  1  3  2  0
  6 11  1  0
  6 12  1  0
 29 36  1  0
 29 37  1  0
  9  7  1  6
  7 13  1  0
 10  8  1  1
  8 14  1  0
 37 28  1  6
  4  5  1  0
 33 30  1  1
 30 38  1  0
 34 31  1  6
 31 39  1  0
 35 32  1  6
 32 40  1  0
 41 42  1  0
 41 43  1  0
 15 19  2  0
 16 22  2  0
 12 17  1  6
 17 19  1  0
 17 20  1  0
 18 19  1  0
 18 22  1  0
 18 23  1  0
  9 10  1  0
  9 11  1  0
 10 12  1  0
 11  5  1  6
 33 34  1  0
 33 35  1  0
 34 36  1  0
 35 37  1  0
 36 42  1  1
 20 21  2  0
 21 22  1  0
M  CHG  2   2  -1  26  -1
M  END
>  <COMPND>  (93) 
    8629 

>  <AUTHOR>  (93) 
    GENERATED BY OPEN BABEL 3.1.1

>  <MASTER>  (93) 
        0    0    0    0    0    0    0    0   58    0   58    0

>  <minimizedAffinity>  (93) 
-8.43878

>  <CNNscore>  (93) 
0.5019454956

>  <CNNaffinity>  (93) 
4.7405920029

>  <CNN_VS>  (93) 
2.3795187473

>  <CNNaffinity_variance>  (93) 
0.3472400010

$$$$
94
     RDKit          3D

 43 45  0  0  0  0  0  0  0  0999 V2000
   20.8550   70.7225    0.4758 P   0  0  2  0  0  0  0  0  0  0  0  0
   19.9380   71.4709    1.5787 O   0  0  0  0  0  0  0  0  0  0  0  0
   20.9056   69.2282    0.6022 O   0  0  0  0  0  0  0  0  0  0  0  0
   22.2791   71.4844    0.5731 O   0  0  0  0  0  0  0  0  0  0  0  0
   22.6752   72.0202    1.8237 C   0  0  0  0  0  0  0  0  0  0  0  0
   24.5784   70.6043    2.2072 O   0  0  0  0  0  0  0  0  0  0  0  0
   23.4127   70.0890    4.9213 O   0  0  0  0  0  0  0  0  0  0  0  0
   25.3573   71.9267    5.4487 O   0  0  0  0  0  0  0  0  0  0  0  0
   23.4044   71.2883    4.1487 C   0  0  1  0  0  0  0  0  0  0  0  0
   24.7755   71.9312    4.1609 C   0  0  2  0  0  0  0  0  0  0  0  0
   23.2475   70.9015    2.6834 C   0  0  1  0  0  0  0  0  0  0  0  0
   25.5380   71.0660    3.1719 C   0  0  2  0  0  0  0  0  0  0  0  0
   23.5116   70.3106    5.8610 H   0  0  0  0  0  0  0  0  0  0  0  0
   24.8363   72.4911    6.0410 H   0  0  0  0  0  0  0  0  0  0  0  0
   28.1358   70.0699    2.6846 O   0  0  0  0  0  0  0  0  0  0  0  0
   29.4202   73.9472    0.5496 O   0  0  0  0  0  0  0  0  0  0  0  0
   26.5712   71.7938    2.4905 N   0  0  0  0  0  0  0  0  0  0  0  0
   28.7731   72.0013    1.6218 N   0  0  0  0  0  0  0  0  0  0  0  0
   27.8418   71.2030    2.2982 C   0  0  0  0  0  0  0  0  0  0  0  0
   26.3196   73.0783    2.0208 C   0  0  0  0  0  0  0  0  0  0  0  0
   27.2189   73.8268    1.3788 C   0  0  0  0  0  0  0  0  0  0  0  0
   28.5712   73.2837    1.1368 C   0  0  0  0  0  0  0  0  0  0  0  0
   29.6654   71.6106    1.4766 H   0  0  0  0  0  0  0  0  0  0  0  0
   20.2507   71.2592   -0.9241 O   0  0  0  0  0  0  0  0  0  0  0  0
   18.7906   71.0713   -1.5916 P   0  0  2  0  0  0  0  0  0  0  0  0
   17.8945   72.1929   -0.8457 O   0  0  0  0  0  0  0  0  0  0  0  0
   18.2441   69.6764   -1.4937 O   0  0  0  0  0  0  0  0  0  0  0  0
   18.9574   71.6199   -3.1003 O   0  0  0  0  0  0  0  0  0  0  0  0
   18.2113   70.3339   -4.9459 O   0  0  0  0  0  0  0  0  0  0  0  0
   20.9766   72.7164   -6.8767 O   0  0  0  0  0  0  0  0  0  0  0  0
   18.1725   73.1703   -7.3000 O   0  0  0  0  0  0  0  0  0  0  0  0
   21.5314   71.7285   -4.2129 O   0  0  0  0  0  0  0  0  0  0  0  0
   19.9664   72.4135   -5.9107 C   0  0  1  0  0  0  0  0  0  0  0  0
   18.6938   72.0100   -6.6581 C   0  0  1  0  0  0  0  0  0  0  0  0
   20.4527   71.2708   -5.0212 C   0  0  2  0  0  0  0  0  0  0  0  0
   17.6528   71.4167   -5.6992 C   0  0  1  0  0  0  0  0  0  0  0  0
   19.3278   70.7210   -4.1425 C   0  0  1  0  0  0  0  0  0  0  0  0
   20.6742   73.4415   -7.4443 H   0  0  0  0  0  0  0  0  0  0  0  0
   18.8398   73.5354   -7.9023 H   0  0  0  0  0  0  0  0  0  0  0  0
   22.2371   72.0738   -4.7809 H   0  0  0  0  0  0  0  0  0  0  0  0
   16.7164   70.8834   -7.8318 O   0  0  0  0  0  0  0  0  0  0  0  0
   16.4396   70.8632   -6.4435 C   0  0  0  0  0  0  0  0  0  0  0  0
   15.9530   70.5335   -8.3182 H   0  0  0  0  0  0  0  0  0  0  0  0
 25 28  1  0
 25 24  1  0
 25 26  1  1
 25 27  2  0
  1  4  1  0
  1 24  1  0
  1  2  1  1
  1  3  2  0
  6 11  1  0
  6 12  1  0
 29 36  1  0
 29 37  1  0
  9  7  1  1
  7 13  1  0
 10  8  1  1
  8 14  1  0
 37 28  1  1
  4  5  1  0
 33 30  1  6
 30 38  1  0
 34 31  1  1
 31 39  1  0
 35 32  1  1
 32 40  1  0
 41 42  1  0
 41 43  1  0
 15 19  2  0
 16 22  2  0
 12 17  1  6
 17 19  1  0
 17 20  1  0
 18 19  1  0
 18 22  1  0
 18 23  1  0
  9 10  1  0
  9 11  1  0
 10 12  1  0
 11  5  1  6
 33 34  1  0
 33 35  1  0
 34 36  1  0
 35 37  1  0
 36 42  1  6
 20 21  2  0
 21 22  1  0
M  CHG  2   2  -1  26  -1
M  END
>  <COMPND>  (94) 
    8629 

>  <AUTHOR>  (94) 
    GENERATED BY OPEN BABEL 3.1.1

>  <MASTER>  (94) 
        0    0    0    0    0    0    0    0   58    0   58    0

>  <minimizedAffinity>  (94) 
-8.23637

>  <CNNscore>  (94) 
0.4535627663

>  <CNNaffinity>  (94) 
4.3482909203

>  <CNN_VS>  (94) 
1.9722228050

>  <CNNaffinity_variance>  (94) 
0.1631416231

$$$$
95
     RDKit          3D

 43 45  0  0  0  0  0  0  0  0999 V2000
   20.8039   70.8545   -0.4831 P   0  0  2  0  0  0  0  0  0  0  0  0
   20.4380   69.7479    0.6389 O   0  0  0  0  0  0  0  0  0  0  0  0
   20.6047   72.2793   -0.0567 O   0  0  0  0  0  0  0  0  0  0  0  0
   19.9600   70.3851   -1.7814 O   0  0  0  0  0  0  0  0  0  0  0  0
   19.7414   71.3228   -2.8210 C   0  0  0  0  0  0  0  0  0  0  0  0
   17.9758   72.1272   -4.2384 O   0  0  0  0  0  0  0  0  0  0  0  0
   16.0872   70.8138   -2.3151 O   0  0  0  0  0  0  0  0  0  0  0  0
   16.1838   69.0232   -4.3697 O   0  0  0  0  0  0  0  0  0  0  0  0
   17.3774   70.3852   -2.7474 C   0  0  1  0  0  0  0  0  0  0  0  0
   17.3079   69.8545   -4.1641 C   0  0  2  0  0  0  0  0  0  0  0  0
   18.2515   71.6220   -2.9136 C   0  0  1  0  0  0  0  0  0  0  0  0
   17.2440   71.1359   -4.9778 C   0  0  2  0  0  0  0  0  0  0  0  0
   15.5111   70.0410   -2.2017 H   0  0  0  0  0  0  0  0  0  0  0  0
   16.2714   68.2216   -3.8307 H   0  0  0  0  0  0  0  0  0  0  0  0
   15.8504   70.2893   -7.2842 O   0  0  0  0  0  0  0  0  0  0  0  0
   19.6263   70.6116   -9.9072 O   0  0  0  0  0  0  0  0  0  0  0  0
   17.8381   70.9901   -6.2767 N   0  0  0  0  0  0  0  0  0  0  0  0
   17.7316   70.4506   -8.5884 N   0  0  0  0  0  0  0  0  0  0  0  0
   17.0507   70.5575   -7.3690 C   0  0  0  0  0  0  0  0  0  0  0  0
   19.1872   71.2751   -6.4576 C   0  0  0  0  0  0  0  0  0  0  0  0
   19.8218   71.1669   -7.6266 C   0  0  0  0  0  0  0  0  0  0  0  0
   19.0713   70.7211   -8.8183 C   0  0  0  0  0  0  0  0  0  0  0  0
   17.2033   70.1506   -9.3634 H   0  0  0  0  0  0  0  0  0  0  0  0
   22.3243   70.4781   -0.8826 O   0  0  0  0  0  0  0  0  0  0  0  0
   23.4321   69.5829   -0.1182 P   0  0  2  0  0  0  0  0  0  0  0  0
   24.6840   69.5870   -1.1430 O   0  0  0  0  0  0  0  0  0  0  0  0
   22.9549   68.2137    0.2710 O   0  0  0  0  0  0  0  0  0  0  0  0
   23.9152   70.4996    1.1192 O   0  0  0  0  0  0  0  0  0  0  0  0
   25.3340   69.7444    2.8609 O   0  0  0  0  0  0  0  0  0  0  0  0
   23.2777   72.6803    4.9110 O   0  0  0  0  0  0  0  0  0  0  0  0
   26.0207   73.1171    4.1808 O   0  0  0  0  0  0  0  0  0  0  0  0
   21.8892   71.0182    2.9904 O   0  0  0  0  0  0  0  0  0  0  0  0
   23.9040   72.0806    3.7737 C   0  0  1  0  0  0  0  0  0  0  0  0
   25.3790   71.8471    4.1060 C   0  0  1  0  0  0  0  0  0  0  0  0
   23.2075   70.7577    3.4602 C   0  0  2  0  0  0  0  0  0  0  0  0
   26.0540   70.9691    3.0435 C   0  0  1  0  0  0  0  0  0  0  0  0
   23.9863   69.9401    2.4281 C   0  0  1  0  0  0  0  0  0  0  0  0
   23.7149   73.5210    5.1151 H   0  0  0  0  0  0  0  0  0  0  0  0
   25.5847   73.6618    4.8549 H   0  0  0  0  0  0  0  0  0  0  0  0
   21.4065   71.5360    3.6527 H   0  0  0  0  0  0  0  0  0  0  0  0
   28.2810   70.5875    2.2665 O   0  0  0  0  0  0  0  0  0  0  0  0
   27.4815   70.5933    3.4348 C   0  0  0  0  0  0  0  0  0  0  0  0
   29.1924   70.3503    2.5003 H   0  0  0  0  0  0  0  0  0  0  0  0
 25 28  1  0
 25 24  1  0
 25 26  1  6
 25 27  2  0
  1  4  1  0
  1 24  1  0
  1  2  1  1
  1  3  2  0
  6 11  1  0
  6 12  1  0
 29 36  1  0
 29 37  1  0
  9  7  1  6
  7 13  1  0
 10  8  1  1
  8 14  1  0
 37 28  1  6
  4  5  1  0
 33 30  1  1
 30 38  1  0
 34 31  1  6
 31 39  1  0
 35 32  1  6
 32 40  1  0
 41 42  1  0
 41 43  1  0
 15 19  2  0
 16 22  2  0
 12 17  1  6
 17 19  1  0
 17 20  1  0
 18 19  1  0
 18 22  1  0
 18 23  1  0
  9 10  1  0
  9 11  1  0
 10 12  1  0
 11  5  1  6
 33 34  1  0
 33 35  1  0
 34 36  1  0
 35 37  1  0
 36 42  1  1
 20 21  2  0
 21 22  1  0
M  CHG  2   2  -1  26  -1
M  END
>  <COMPND>  (95) 
    8629 

>  <AUTHOR>  (95) 
    GENERATED BY OPEN BABEL 3.1.1

>  <MASTER>  (95) 
        0    0    0    0    0    0    0    0   58    0   58    0

>  <minimizedAffinity>  (95) 
-8.79589

>  <CNNscore>  (95) 
0.4342014492

>  <CNNaffinity>  (95) 
4.6505188942

>  <CNN_VS>  (95) 
2.0192620754

>  <CNNaffinity_variance>  (95) 
0.2069262713

$$$$
96
     RDKit          3D

 43 45  0  0  0  0  0  0  0  0999 V2000
   20.0844   73.6467   -1.2525 P   0  0  2  0  0  0  0  0  0  0  0  0
   19.9755   74.2656   -2.7433 O   0  0  0  0  0  0  0  0  0  0  0  0
   19.6350   74.5621   -0.1518 O   0  0  0  0  0  0  0  0  0  0  0  0
   21.6151   73.1313   -1.1567 O   0  0  0  0  0  0  0  0  0  0  0  0
   22.2418   73.1061    0.1139 C   0  0  0  0  0  0  0  0  0  0  0  0
   22.5597   70.9740    1.1754 O   0  0  0  0  0  0  0  0  0  0  0  0
   20.1611   71.6556    2.8406 O   0  0  0  0  0  0  0  0  0  0  0  0
   22.2314   72.1958    4.5313 O   0  0  0  0  0  0  0  0  0  0  0  0
   21.1946   72.5107    2.3548 C   0  0  1  0  0  0  0  0  0  0  0  0
   22.4701   72.2935    3.1420 C   0  0  2  0  0  0  0  0  0  0  0  0
   21.5913   72.0251    0.9662 C   0  0  1  0  0  0  0  0  0  0  0  0
   22.9915   70.9971    2.5457 C   0  0  2  0  0  0  0  0  0  0  0  0
   19.8909   71.9462    3.7263 H   0  0  0  0  0  0  0  0  0  0  0  0
   21.9011   73.0451    4.8634 H   0  0  0  0  0  0  0  0  0  0  0  0
   24.4346   68.8354    3.6514 O   0  0  0  0  0  0  0  0  0  0  0  0
   28.4865   70.7853    2.6411 O   0  0  0  0  0  0  0  0  0  0  0  0
   24.4243   70.9136    2.5847 N   0  0  0  0  0  0  0  0  0  0  0  0
   26.4509   69.8080    3.1473 N   0  0  0  0  0  0  0  0  0  0  0  0
   25.0505   69.7851    3.1633 C   0  0  0  0  0  0  0  0  0  0  0  0
   25.1931   71.9430    2.0526 C   0  0  0  0  0  0  0  0  0  0  0  0
   26.5277   71.9502    2.0463 C   0  0  0  0  0  0  0  0  0  0  0  0
   27.2596   70.8083    2.6316 C   0  0  0  0  0  0  0  0  0  0  0  0
   26.9090   69.0324    3.5453 H   0  0  0  0  0  0  0  0  0  0  0  0
   19.2443   72.2705   -1.3680 O   0  0  0  0  0  0  0  0  0  0  0  0
   19.5440   70.9094   -2.1868 P   0  0  2  0  0  0  0  0  0  0  0  0
   18.5826   69.8247   -1.4681 O   0  0  0  0  0  0  0  0  0  0  0  0
   20.9938   70.5217   -2.2265 O   0  0  0  0  0  0  0  0  0  0  0  0
   18.8758   71.1491   -3.6364 O   0  0  0  0  0  0  0  0  0  0  0  0
   17.4460   72.8424   -4.4761 O   0  0  0  0  0  0  0  0  0  0  0  0
   15.7255   69.5615   -6.3000 O   0  0  0  0  0  0  0  0  0  0  0  0
   17.2490   71.4209   -7.8716 O   0  0  0  0  0  0  0  0  0  0  0  0
   16.7229   69.3497   -3.5908 O   0  0  0  0  0  0  0  0  0  0  0  0
   16.8006   70.3490   -5.7809 C   0  0  1  0  0  0  0  0  0  0  0  0
   16.8279   71.6799   -6.5352 C   0  0  1  0  0  0  0  0  0  0  0  0
   16.5735   70.5816   -4.2884 C   0  0  2  0  0  0  0  0  0  0  0  0
   17.7765   72.6798   -5.8603 C   0  0  1  0  0  0  0  0  0  0  0  0
   17.5369   71.6289   -3.7270 C   0  0  1  0  0  0  0  0  0  0  0  0
   15.8638   69.4098   -7.2473 H   0  0  0  0  0  0  0  0  0  0  0  0
   16.6420   70.7878   -8.2862 H   0  0  0  0  0  0  0  0  0  0  0  0
   16.1075   68.6952   -3.9553 H   0  0  0  0  0  0  0  0  0  0  0  0
   19.0164   74.5651   -6.6458 O   0  0  0  0  0  0  0  0  0  0  0  0
   17.7004   74.0632   -6.5026 C   0  0  0  0  0  0  0  0  0  0  0  0
   18.9836   75.4451   -7.0536 H   0  0  0  0  0  0  0  0  0  0  0  0
 25 28  1  0
 25 24  1  0
 25 26  1  1
 25 27  2  0
  1  4  1  0
  1 24  1  0
  1  2  1  6
  1  3  2  0
  6 11  1  0
  6 12  1  0
 29 36  1  0
 29 37  1  0
  9  7  1  1
  7 13  1  0
 10  8  1  1
  8 14  1  0
 37 28  1  6
  4  5  1  0
 33 30  1  6
 30 38  1  0
 34 31  1  6
 31 39  1  0
 35 32  1  1
 32 40  1  0
 41 42  1  0
 41 43  1  0
 15 19  2  0
 16 22  2  0
 12 17  1  6
 17 19  1  0
 17 20  1  0
 18 19  1  0
 18 22  1  0
 18 23  1  0
  9 10  1  0
  9 11  1  0
 10 12  1  0
 11  5  1  6
 33 34  1  0
 33 35  1  0
 34 36  1  0
 35 37  1  0
 36 42  1  6
 20 21  2  0
 21 22  1  0
M  CHG  2   2  -1  26  -1
M  END
>  <COMPND>  (96) 
    8629 

>  <AUTHOR>  (96) 
    GENERATED BY OPEN BABEL 3.1.1

>  <MASTER>  (96) 
        0    0    0    0    0    0    0    0   58    0   58    0

>  <minimizedAffinity>  (96) 
-7.76766

>  <CNNscore>  (96) 
0.4029038846

>  <CNNaffinity>  (96) 
4.0519447327

>  <CNN_VS>  (96) 
1.6325442791

>  <CNNaffinity_variance>  (96) 
0.3908222318

$$$$
97
     RDKit          3D

 43 45  0  0  0  0  0  0  0  0999 V2000
   22.4029   70.6879   -2.6859 P   0  0  2  0  0  0  0  0  0  0  0  0
   23.9067   70.3218   -3.1569 O   0  0  0  0  0  0  0  0  0  0  0  0
   21.3526   69.6961   -3.0917 O   0  0  0  0  0  0  0  0  0  0  0  0
   22.1856   72.1996   -3.2201 O   0  0  0  0  0  0  0  0  0  0  0  0
   20.8630   72.6494   -3.4573 C   0  0  0  0  0  0  0  0  0  0  0  0
   20.2077   71.8940   -5.6422 O   0  0  0  0  0  0  0  0  0  0  0  0
   20.0636   74.7926   -6.3960 O   0  0  0  0  0  0  0  0  0  0  0  0
   17.4443   74.1543   -5.9852 O   0  0  0  0  0  0  0  0  0  0  0  0
   19.7309   74.1645   -5.1590 C   0  0  1  0  0  0  0  0  0  0  0  0
   18.4228   73.4120   -5.2864 C   0  0  2  0  0  0  0  0  0  0  0  0
   20.7260   73.0349   -4.9238 C   0  0  1  0  0  0  0  0  0  0  0  0
   18.8508   72.1602   -6.0333 C   0  0  2  0  0  0  0  0  0  0  0  0
   19.4418   75.5178   -6.5677 H   0  0  0  0  0  0  0  0  0  0  0  0
   17.2052   74.9403   -5.4696 H   0  0  0  0  0  0  0  0  0  0  0  0
   16.5304   71.3936   -7.4496 O   0  0  0  0  0  0  0  0  0  0  0  0
   15.8150   67.7771   -4.6837 O   0  0  0  0  0  0  0  0  0  0  0  0
   18.0392   71.0222   -5.7053 N   0  0  0  0  0  0  0  0  0  0  0  0
   16.1762   69.5934   -6.0714 N   0  0  0  0  0  0  0  0  0  0  0  0
   16.8936   70.7250   -6.4797 C   0  0  0  0  0  0  0  0  0  0  0  0
   18.3819   70.2145   -4.6264 C   0  0  0  0  0  0  0  0  0  0  0  0
   17.6865   69.1396   -4.2493 C   0  0  0  0  0  0  0  0  0  0  0  0
   16.4758   68.7598   -5.0056 C   0  0  0  0  0  0  0  0  0  0  0  0
   15.3740   69.3672   -6.5959 H   0  0  0  0  0  0  0  0  0  0  0  0
   22.5601   70.8858   -1.0893 O   0  0  0  0  0  0  0  0  0  0  0  0
   22.6023   69.8083    0.1149 P   0  0  2  0  0  0  0  0  0  0  0  0
   23.5589   68.6399   -0.4660 O   0  0  0  0  0  0  0  0  0  0  0  0
   21.2504   69.3351    0.5649 O   0  0  0  0  0  0  0  0  0  0  0  0
   23.4804   70.5184    1.2680 O   0  0  0  0  0  0  0  0  0  0  0  0
   24.8271   69.4002    2.8657 O   0  0  0  0  0  0  0  0  0  0  0  0
   23.8099   72.7350    5.0783 O   0  0  0  0  0  0  0  0  0  0  0  0
   26.4847   72.4654    4.0682 O   0  0  0  0  0  0  0  0  0  0  0  0
   21.8549   71.5115    3.3288 O   0  0  0  0  0  0  0  0  0  0  0  0
   24.1431   72.0113    3.8906 C   0  0  1  0  0  0  0  0  0  0  0  0
   25.5350   71.4032    4.0742 C   0  0  1  0  0  0  0  0  0  0  0  0
   23.1030   70.9154    3.6654 C   0  0  2  0  0  0  0  0  0  0  0  0
   25.8514   70.3971    2.9594 C   0  0  1  0  0  0  0  0  0  0  0  0
   23.5378   69.9406    2.5696 C   0  0  1  0  0  0  0  0  0  0  0  0
   24.4661   73.4326    5.2268 H   0  0  0  0  0  0  0  0  0  0  0  0
   26.2733   73.0938    4.7764 H   0  0  0  0  0  0  0  0  0  0  0  0
   21.5905   72.1261    4.0304 H   0  0  0  0  0  0  0  0  0  0  0  0
   28.2321   70.4909    2.7795 O   0  0  0  0  0  0  0  0  0  0  0  0
   27.1670   69.6627    3.2083 C   0  0  0  0  0  0  0  0  0  0  0  0
   29.0759   70.0366    2.9321 H   0  0  0  0  0  0  0  0  0  0  0  0
 25 28  1  0
 25 24  1  0
 25 26  1  6
 25 27  2  0
  1  4  1  0
  1 24  1  0
  1  2  1  6
  1  3  2  0
  6 11  1  0
  6 12  1  0
 29 36  1  0
 29 37  1  0
  9  7  1  6
  7 13  1  0
 10  8  1  6
  8 14  1  0
 37 28  1  6
  4  5  1  0
 33 30  1  1
 30 38  1  0
 34 31  1  6
 31 39  1  0
 35 32  1  6
 32 40  1  0
 41 42  1  0
 41 43  1  0
 15 19  2  0
 16 22  2  0
 12 17  1  1
 17 19  1  0
 17 20  1  0
 18 19  1  0
 18 22  1  0
 18 23  1  0
  9 10  1  0
  9 11  1  0
 10 12  1  0
 11  5  1  1
 33 34  1  0
 33 35  1  0
 34 36  1  0
 35 37  1  0
 36 42  1  1
 20 21  2  0
 21 22  1  0
M  CHG  2   2  -1  26  -1
M  END
>  <COMPND>  (97) 
    8629 

>  <AUTHOR>  (97) 
    GENERATED BY OPEN BABEL 3.1.1

>  <MASTER>  (97) 
        0    0    0    0    0    0    0    0   58    0   58    0

>  <minimizedAffinity>  (97) 
-8.92751

>  <CNNscore>  (97) 
0.3870386481

>  <CNNaffinity>  (97) 
4.4183454514

>  <CNN_VS>  (97) 
1.7100704908

>  <CNNaffinity_variance>  (97) 
0.0629468188

$$$$
98
     RDKit          3D

 43 45  0  0  0  0  0  0  0  0999 V2000
   22.3237   70.8389   -2.8856 P   0  0  2  0  0  0  0  0  0  0  0  0
   23.6357   71.4849   -3.5775 O   0  0  0  0  0  0  0  0  0  0  0  0
   22.2783   69.3391   -2.8901 O   0  0  0  0  0  0  0  0  0  0  0  0
   21.0900   71.5814   -3.6234 O   0  0  0  0  0  0  0  0  0  0  0  0
   20.0673   70.7857   -4.1968 C   0  0  0  0  0  0  0  0  0  0  0  0
   17.9770   71.6701   -3.4078 O   0  0  0  0  0  0  0  0  0  0  0  0
   17.5617   69.0079   -2.0921 O   0  0  0  0  0  0  0  0  0  0  0  0
   16.0130   68.8138   -4.3282 O   0  0  0  0  0  0  0  0  0  0  0  0
   18.1793   69.3099   -3.3421 C   0  0  1  0  0  0  0  0  0  0  0  0
   17.1309   69.6771   -4.3715 C   0  0  2  0  0  0  0  0  0  0  0  0
   18.9424   70.6191   -3.1844 C   0  0  1  0  0  0  0  0  0  0  0  0
   16.7848   71.1021   -3.9743 C   0  0  2  0  0  0  0  0  0  0  0  0
   17.0685   68.1755   -2.1680 H   0  0  0  0  0  0  0  0  0  0  0  0
   16.2844   67.9199   -4.5890 H   0  0  0  0  0  0  0  0  0  0  0  0
   15.1829   73.4206   -3.7848 O   0  0  0  0  0  0  0  0  0  0  0  0
   15.2772   74.0806   -8.3452 O   0  0  0  0  0  0  0  0  0  0  0  0
   16.3760   71.8994   -5.0961 N   0  0  0  0  0  0  0  0  0  0  0  0
   15.2313   73.7474   -6.0557 N   0  0  0  0  0  0  0  0  0  0  0  0
   15.5706   73.0442   -4.8928 C   0  0  0  0  0  0  0  0  0  0  0  0
   16.7734   71.5439   -6.3805 C   0  0  0  0  0  0  0  0  0  0  0  0
   16.4402   72.2245   -7.4791 C   0  0  0  0  0  0  0  0  0  0  0  0
   15.6005   73.4334   -7.3540 C   0  0  0  0  0  0  0  0  0  0  0  0
   14.6704   74.5484   -5.9385 H   0  0  0  0  0  0  0  0  0  0  0  0
   22.3224   71.5075   -1.4139 O   0  0  0  0  0  0  0  0  0  0  0  0
   21.2320   71.4484   -0.2221 P   0  0  2  0  0  0  0  0  0  0  0  0
   20.7069   69.9190   -0.2750 O   0  0  0  0  0  0  0  0  0  0  0  0
   20.1465   72.4799   -0.3295 O   0  0  0  0  0  0  0  0  0  0  0  0
   22.1036   71.5335    1.1337 O   0  0  0  0  0  0  0  0  0  0  0  0
   24.1749   72.5128    1.7397 O   0  0  0  0  0  0  0  0  0  0  0  0
   24.6262   68.8345    3.5611 O   0  0  0  0  0  0  0  0  0  0  0  0
   24.1583   71.1661    5.1712 O   0  0  0  0  0  0  0  0  0  0  0  0
   23.3360   69.0172    0.9762 O   0  0  0  0  0  0  0  0  0  0  0  0
   23.9067   69.9841    3.1071 C   0  0  1  0  0  0  0  0  0  0  0  0
   24.4980   71.2198    3.7884 C   0  0  1  0  0  0  0  0  0  0  0  0
   24.0422   70.0905    1.5893 C   0  0  2  0  0  0  0  0  0  0  0  0
   23.9615   72.5111    3.1561 C   0  0  1  0  0  0  0  0  0  0  0  0
   23.5238   71.4322    1.0686 C   0  0  1  0  0  0  0  0  0  0  0  0
   24.5438   68.7609    4.5240 H   0  0  0  0  0  0  0  0  0  0  0  0
   24.5024   70.3458    5.5583 H   0  0  0  0  0  0  0  0  0  0  0  0
   23.6736   68.1735    1.3139 H   0  0  0  0  0  0  0  0  0  0  0  0
   25.7388   73.3352    4.5239 O   0  0  0  0  0  0  0  0  0  0  0  0
   24.6556   73.7520    3.7132 C   0  0  0  0  0  0  0  0  0  0  0  0
   26.1902   74.1146    4.8852 H   0  0  0  0  0  0  0  0  0  0  0  0
 25 28  1  0
 25 24  1  0
 25 26  1  1
 25 27  2  0
  1  4  1  0
  1 24  1  0
  1  2  1  6
  1  3  2  0
  6 11  1  0
  6 12  1  0
 29 36  1  0
 29 37  1  0
  9  7  1  1
  7 13  1  0
 10  8  1  1
  8 14  1  0
 37 28  1  1
  4  5  1  0
 33 30  1  1
 30 38  1  0
 34 31  1  1
 31 39  1  0
 35 32  1  6
 32 40  1  0
 41 42  1  0
 41 43  1  0
 15 19  2  0
 16 22  2  0
 12 17  1  6
 17 19  1  0
 17 20  1  0
 18 19  1  0
 18 22  1  0
 18 23  1  0
  9 10  1  0
  9 11  1  0
 10 12  1  0
 11  5  1  6
 33 34  1  0
 33 35  1  0
 34 36  1  0
 35 37  1  0
 36 42  1  1
 20 21  2  0
 21 22  1  0
M  CHG  2   2  -1  26  -1
M  END
>  <COMPND>  (98) 
    8629 

>  <AUTHOR>  (98) 
    GENERATED BY OPEN BABEL 3.1.1

>  <MASTER>  (98) 
        0    0    0    0    0    0    0    0   58    0   58    0

>  <minimizedAffinity>  (98) 
-8.52824

>  <CNNscore>  (98) 
0.3613708615

>  <CNNaffinity>  (98) 
4.2040448189

>  <CNN_VS>  (98) 
1.5192192793

>  <CNNaffinity_variance>  (98) 
0.1610043049

$$$$
99
     RDKit          3D

 43 45  0  0  0  0  0  0  0  0999 V2000
   18.8228   72.2289   -0.1296 P   0  0  2  0  0  0  0  0  0  0  0  0
   18.9567   73.6278   -0.9313 O   0  0  0  0  0  0  0  0  0  0  0  0
   18.7735   72.3569    1.3645 O   0  0  0  0  0  0  0  0  0  0  0  0
   20.0303   71.3269   -0.7181 O   0  0  0  0  0  0  0  0  0  0  0  0
   20.7227   70.4637    0.1669 C   0  0  0  0  0  0  0  0  0  0  0  0
   22.6793   71.7913    0.5945 O   0  0  0  0  0  0  0  0  0  0  0  0
   24.2647   69.3760   -0.2078 O   0  0  0  0  0  0  0  0  0  0  0  0
   24.3913   69.2925    2.5150 O   0  0  0  0  0  0  0  0  0  0  0  0
   23.0314   69.4496    0.5056 C   0  0  1  0  0  0  0  0  0  0  0  0
   23.2721   69.9214    1.9244 C   0  0  2  0  0  0  0  0  0  0  0  0
   22.2193   70.5989   -0.0783 C   0  0  1  0  0  0  0  0  0  0  0  0
   23.4755   71.4143    1.7298 C   0  0  2  0  0  0  0  0  0  0  0  0
   24.8005   68.6488    0.1471 H   0  0  0  0  0  0  0  0  0  0  0  0
   24.2129   68.3447    2.6177 H   0  0  0  0  0  0  0  0  0  0  0  0
   25.0494   71.8427    4.0357 O   0  0  0  0  0  0  0  0  0  0  0  0
   21.7510   74.3592    6.0430 O   0  0  0  0  0  0  0  0  0  0  0  0
   23.0530   72.1779    2.8699 N   0  0  0  0  0  0  0  0  0  0  0  0
   23.4059   73.0955    5.0332 N   0  0  0  0  0  0  0  0  0  0  0  0
   23.9193   72.3317    3.9773 C   0  0  0  0  0  0  0  0  0  0  0  0
   21.7924   72.7650    2.8822 C   0  0  0  0  0  0  0  0  0  0  0  0
   21.3173   73.4893    3.8975 C   0  0  0  0  0  0  0  0  0  0  0  0
   22.1593   73.6982    5.0931 C   0  0  0  0  0  0  0  0  0  0  0  0
   23.9916   73.2158    5.8156 H   0  0  0  0  0  0  0  0  0  0  0  0
   17.5106   71.5552   -0.7908 O   0  0  0  0  0  0  0  0  0  0  0  0
   17.3334   70.6672   -2.1298 P   0  0  2  0  0  0  0  0  0  0  0  0
   15.7415   70.7331   -2.4109 O   0  0  0  0  0  0  0  0  0  0  0  0
   17.8863   69.2755   -2.0229 O   0  0  0  0  0  0  0  0  0  0  0  0
   17.9917   71.5602   -3.3022 O   0  0  0  0  0  0  0  0  0  0  0  0
   18.3927   70.3547   -5.3029 O   0  0  0  0  0  0  0  0  0  0  0  0
   20.5618   73.7666   -6.1423 O   0  0  0  0  0  0  0  0  0  0  0  0
   18.0761   73.2964   -7.5017 O   0  0  0  0  0  0  0  0  0  0  0  0
   20.5598   72.6805   -3.4590 O   0  0  0  0  0  0  0  0  0  0  0  0
   19.4802   73.0142   -5.5861 C   0  0  1  0  0  0  0  0  0  0  0  0
   18.7502   72.3067   -6.7295 C   0  0  1  0  0  0  0  0  0  0  0  0
   20.0387   71.9963   -4.5934 C   0  0  2  0  0  0  0  0  0  0  0  0
   17.7495   71.2743   -6.1931 C   0  0  1  0  0  0  0  0  0  0  0  0
   18.9741   70.9866   -4.1607 C   0  0  1  0  0  0  0  0  0  0  0  0
   20.2139   74.4151   -6.7731 H   0  0  0  0  0  0  0  0  0  0  0  0
   18.7191   73.9424   -7.8340 H   0  0  0  0  0  0  0  0  0  0  0  0
   21.2328   73.3165   -3.7461 H   0  0  0  0  0  0  0  0  0  0  0  0
   16.1403   71.2338   -7.9587 O   0  0  0  0  0  0  0  0  0  0  0  0
   17.1251   70.4468   -7.3145 C   0  0  0  0  0  0  0  0  0  0  0  0
   15.7345   70.7200   -8.6751 H   0  0  0  0  0  0  0  0  0  0  0  0
 25 28  1  0
 25 24  1  0
 25 26  1  6
 25 27  2  0
  1  4  1  0
  1 24  1  0
  1  2  1  6
  1  3  2  0
  6 11  1  0
  6 12  1  0
 29 36  1  0
 29 37  1  0
  9  7  1  6
  7 13  1  0
 10  8  1  6
  8 14  1  0
 37 28  1  6
  4  5  1  0
 33 30  1  6
 30 38  1  0
 34 31  1  1
 31 39  1  0
 35 32  1  1
 32 40  1  0
 41 42  1  0
 41 43  1  0
 15 19  2  0
 16 22  2  0
 12 17  1  1
 17 19  1  0
 17 20  1  0
 18 19  1  0
 18 22  1  0
 18 23  1  0
  9 10  1  0
  9 11  1  0
 10 12  1  0
 11  5  1  1
 33 34  1  0
 33 35  1  0
 34 36  1  0
 35 37  1  0
 36 42  1  6
 20 21  2  0
 21 22  1  0
M  CHG  2   2  -1  26  -1
M  END
>  <COMPND>  (99) 
    8629 

>  <AUTHOR>  (99) 
    GENERATED BY OPEN BABEL 3.1.1

>  <MASTER>  (99) 
        0    0    0    0    0    0    0    0   58    0   58    0

>  <minimizedAffinity>  (99) 
-7.07549

>  <CNNscore>  (99) 
0.3405907750

>  <CNNaffinity>  (99) 
4.1534175873

>  <CNN_VS>  (99) 
1.4146157503

>  <CNNaffinity_variance>  (99) 
0.1296871006

$$$$
100
     RDKit          3D

 43 45  0  0  0  0  0  0  0  0999 V2000
   18.7057   72.2978   -0.0559 P   0  0  2  0  0  0  0  0  0  0  0  0
   18.4491   73.8732   -0.3195 O   0  0  0  0  0  0  0  0  0  0  0  0
   18.7977   71.9037    1.3890 O   0  0  0  0  0  0  0  0  0  0  0  0
   20.0036   71.9590   -0.9606 O   0  0  0  0  0  0  0  0  0  0  0  0
   21.2676   72.4386   -0.5361 C   0  0  0  0  0  0  0  0  0  0  0  0
   23.5321   71.6734   -0.2910 O   0  0  0  0  0  0  0  0  0  0  0  0
   22.7733   69.4258   -2.1250 O   0  0  0  0  0  0  0  0  0  0  0  0
   22.6830   68.2449    0.3314 O   0  0  0  0  0  0  0  0  0  0  0  0
   21.9947   70.0711   -1.1186 C   0  0  1  0  0  0  0  0  0  0  0  0
   22.4515   69.6370    0.2585 C   0  0  2  0  0  0  0  0  0  0  0  0
   22.3570   71.5510   -1.1220 C   0  0  1  0  0  0  0  0  0  0  0  0
   23.7212   70.4511    0.4405 C   0  0  2  0  0  0  0  0  0  0  0  0
   22.5589   68.4794   -2.1421 H   0  0  0  0  0  0  0  0  0  0  0  0
   21.8456   67.7709    0.2097 H   0  0  0  0  0  0  0  0  0  0  0  0
   26.2931   70.8669    1.5317 O   0  0  0  0  0  0  0  0  0  0  0  0
   24.5815   71.6548    5.7377 O   0  0  0  0  0  0  0  0  0  0  0  0
   23.9767   70.7667    1.8177 N   0  0  0  0  0  0  0  0  0  0  0  0
   25.4387   71.2591    3.6250 N   0  0  0  0  0  0  0  0  0  0  0  0
   25.3055   70.9551    2.2642 C   0  0  0  0  0  0  0  0  0  0  0  0
   22.9164   70.8867    2.7094 C   0  0  0  0  0  0  0  0  0  0  0  0
   23.0604   71.1758    4.0044 C   0  0  0  0  0  0  0  0  0  0  0  0
   24.4161   71.3878    4.5515 C   0  0  0  0  0  0  0  0  0  0  0  0
   26.3553   71.3942    3.9588 H   0  0  0  0  0  0  0  0  0  0  0  0
   17.5009   71.5920   -0.8703 O   0  0  0  0  0  0  0  0  0  0  0  0
   17.5173   70.6403   -2.1768 P   0  0  2  0  0  0  0  0  0  0  0  0
   15.9964   70.7309   -2.7210 O   0  0  0  0  0  0  0  0  0  0  0  0
   17.9988   69.2428   -1.9141 O   0  0  0  0  0  0  0  0  0  0  0  0
   18.3885   71.4546   -3.2644 O   0  0  0  0  0  0  0  0  0  0  0  0
   18.1589   70.2415   -5.2874 O   0  0  0  0  0  0  0  0  0  0  0  0
   20.6248   73.2763   -6.6142 O   0  0  0  0  0  0  0  0  0  0  0  0
   17.8659   73.2402   -7.4113 O   0  0  0  0  0  0  0  0  0  0  0  0
   21.0125   72.1500   -3.9759 O   0  0  0  0  0  0  0  0  0  0  0  0
   19.5775   72.6966   -5.8315 C   0  0  1  0  0  0  0  0  0  0  0  0
   18.5186   72.1393   -6.7849 C   0  0  1  0  0  0  0  0  0  0  0  0
   20.1606   71.5820   -4.9648 C   0  0  2  0  0  0  0  0  0  0  0  0
   17.4999   71.2707   -6.0347 C   0  0  1  0  0  0  0  0  0  0  0  0
   19.0622   70.7481   -4.3028 C   0  0  1  0  0  0  0  0  0  0  0  0
   20.2613   73.9851   -7.1664 H   0  0  0  0  0  0  0  0  0  0  0  0
   18.5203   73.7809   -7.8810 H   0  0  0  0  0  0  0  0  0  0  0  0
   21.7037   72.6751   -4.4076 H   0  0  0  0  0  0  0  0  0  0  0  0
   15.7999   69.6066   -6.2580 O   0  0  0  0  0  0  0  0  0  0  0  0
   16.5280   70.5776   -6.9871 C   0  0  0  0  0  0  0  0  0  0  0  0
   15.1770   69.1576   -6.8514 H   0  0  0  0  0  0  0  0  0  0  0  0
 25 28  1  0
 25 24  1  0
 25 26  1  6
 25 27  2  0
  1  4  1  0
  1 24  1  0
  1  2  1  1
  1  3  2  0
  6 11  1  0
  6 12  1  0
 29 36  1  0
 29 37  1  0
  9  7  1  6
  7 13  1  0
 10  8  1  6
  8 14  1  0
 37 28  1  1
  4  5  1  0
 33 30  1  6
 30 38  1  0
 34 31  1  1
 31 39  1  0
 35 32  1  1
 32 40  1  0
 41 42  1  0
 41 43  1  0
 15 19  2  0
 16 22  2  0
 12 17  1  1
 17 19  1  0
 17 20  1  0
 18 19  1  0
 18 22  1  0
 18 23  1  0
  9 10  1  0
  9 11  1  0
 10 12  1  0
 11  5  1  1
 33 34  1  0
 33 35  1  0
 34 36  1  0
 35 37  1  0
 36 42  1  6
 20 21  2  0
 21 22  1  0
M  CHG  2   2  -1  26  -1
M  END
>  <COMPND>  (100) 
    8629 

>  <AUTHOR>  (100) 
    GENERATED BY OPEN BABEL 3.1.1

>  <MASTER>  (100) 
        0    0    0    0    0    0    0    0   58    0   58    0

>  <minimizedAffinity>  (100) 
-8.33295

>  <CNNscore>  (100) 
0.3301613331

>  <CNNaffinity>  (100) 
4.2710237503

>  <CNN_VS>  (100) 
1.4101269245

>  <CNNaffinity_variance>  (100) 
0.2455500066

$$$$
101
     RDKit          3D

 43 45  0  0  0  0  0  0  0  0999 V2000
   22.3892   71.4592   -1.9144 P   0  0  2  0  0  0  0  0  0  0  0  0
   22.8239   72.2619   -0.5787 O   0  0  0  0  0  0  0  0  0  0  0  0
   23.1382   71.8432   -3.1566 O   0  0  0  0  0  0  0  0  0  0  0  0
   20.7834   71.6480   -1.9757 O   0  0  0  0  0  0  0  0  0  0  0  0
   20.0304   70.7717   -2.7959 C   0  0  0  0  0  0  0  0  0  0  0  0
   18.3006   71.8496   -4.0686 O   0  0  0  0  0  0  0  0  0  0  0  0
   16.3661   70.5858   -2.1578 O   0  0  0  0  0  0  0  0  0  0  0  0
   16.2006   68.9546   -4.3369 O   0  0  0  0  0  0  0  0  0  0  0  0
   17.5885   70.0669   -2.6791 C   0  0  1  0  0  0  0  0  0  0  0  0
   17.4101   69.6540   -4.1253 C   0  0  2  0  0  0  0  0  0  0  0  0
   18.5757   71.2213   -2.7974 C   0  0  1  0  0  0  0  0  0  0  0  0
   17.4440   70.9933   -4.8418 C   0  0  2  0  0  0  0  0  0  0  0  0
   15.7199   69.8666   -2.0729 H   0  0  0  0  0  0  0  0  0  0  0  0
   16.2280   68.1098   -3.8610 H   0  0  0  0  0  0  0  0  0  0  0  0
   15.9277   70.2287   -7.0988 O   0  0  0  0  0  0  0  0  0  0  0  0
   19.5634   70.6245   -9.9035 O   0  0  0  0  0  0  0  0  0  0  0  0
   17.9689   70.8886   -6.1740 N   0  0  0  0  0  0  0  0  0  0  0  0
   17.7392   70.4266   -8.4935 N   0  0  0  0  0  0  0  0  0  0  0  0
   17.1233   70.4953   -7.2374 C   0  0  0  0  0  0  0  0  0  0  0  0
   19.3081   71.1747   -6.4156 C   0  0  0  0  0  0  0  0  0  0  0  0
   19.8804   71.1031   -7.6192 C   0  0  0  0  0  0  0  0  0  0  0  0
   19.0664   70.6998   -8.7840 C   0  0  0  0  0  0  0  0  0  0  0  0
   17.1696   70.1543   -9.2493 H   0  0  0  0  0  0  0  0  0  0  0  0
   22.5567   69.9115   -1.4792 O   0  0  0  0  0  0  0  0  0  0  0  0
   22.4868   69.2035   -0.0277 P   0  0  2  0  0  0  0  0  0  0  0  0
   23.0487   67.7136   -0.3143 O   0  0  0  0  0  0  0  0  0  0  0  0
   21.1285   69.2409    0.6105 O   0  0  0  0  0  0  0  0  0  0  0  0
   23.6499   69.9193    0.8324 O   0  0  0  0  0  0  0  0  0  0  0  0
   24.9196   69.5940    2.8069 O   0  0  0  0  0  0  0  0  0  0  0  0
   23.4027   73.3499    3.6090 O   0  0  0  0  0  0  0  0  0  0  0  0
   26.1790   73.0562    2.9352 O   0  0  0  0  0  0  0  0  0  0  0  0
   21.7460   71.3745    2.2927 O   0  0  0  0  0  0  0  0  0  0  0  0
   23.9147   72.3006    2.7830 C   0  0  1  0  0  0  0  0  0  0  0  0
   25.3279   71.9607    3.2606 C   0  0  1  0  0  0  0  0  0  0  0  0
   23.0003   71.0826    2.8994 C   0  0  2  0  0  0  0  0  0  0  0  0
   25.8401   70.6723    2.6027 C   0  0  1  0  0  0  0  0  0  0  0  0
   23.6252   69.8436    2.2554 C   0  0  1  0  0  0  0  0  0  0  0  0
   23.9785   74.1265    3.5393 H   0  0  0  0  0  0  0  0  0  0  0  0
   25.8443   73.8635    3.3563 H   0  0  0  0  0  0  0  0  0  0  0  0
   21.3607   72.1605    2.7093 H   0  0  0  0  0  0  0  0  0  0  0  0
   27.4809   71.0447    4.2992 O   0  0  0  0  0  0  0  0  0  0  0  0
   27.1820   70.2289    3.1814 C   0  0  0  0  0  0  0  0  0  0  0  0
   28.3322   70.7738    4.6780 H   0  0  0  0  0  0  0  0  0  0  0  0
 25 28  1  0
 25 24  1  0
 25 26  1  6
 25 27  2  0
  1  4  1  0
  1 24  1  0
  1  2  1  1
  1  3  2  0
  6 11  1  0
  6 12  1  0
 29 36  1  0
 29 37  1  0
  9  7  1  6
  7 13  1  0
 10  8  1  1
  8 14  1  0
 37 28  1  6
  4  5  1  0
 33 30  1  1
 30 38  1  0
 34 31  1  6
 31 39  1  0
 35 32  1  6
 32 40  1  0
 41 42  1  0
 41 43  1  0
 15 19  2  0
 16 22  2  0
 12 17  1  6
 17 19  1  0
 17 20  1  0
 18 19  1  0
 18 22  1  0
 18 23  1  0
  9 10  1  0
  9 11  1  0
 10 12  1  0
 11  5  1  6
 33 34  1  0
 33 35  1  0
 34 36  1  0
 35 37  1  0
 36 42  1  1
 20 21  2  0
 21 22  1  0
M  CHG  2   2  -1  26  -1
M  END
>  <COMPND>  (101) 
    8629 

>  <AUTHOR>  (101) 
    GENERATED BY OPEN BABEL 3.1.1

>  <MASTER>  (101) 
        0    0    0    0    0    0    0    0   58    0   58    0

>  <minimizedAffinity>  (101) 
-9.28536

>  <CNNscore>  (101) 
0.8344950080

>  <CNNaffinity>  (101) 
5.1486825943

>  <CNN_VS>  (101) 
4.2965497971

>  <CNNaffinity_variance>  (101) 
0.2198428661

$$$$
102
     RDKit          3D

 43 45  0  0  0  0  0  0  0  0999 V2000
   21.7461   72.1111   -1.3505 P   0  0  2  0  0  0  0  0  0  0  0  0
   20.6716   72.2825   -0.1532 O   0  0  0  0  0  0  0  0  0  0  0  0
   22.8151   73.1630   -1.3980 O   0  0  0  0  0  0  0  0  0  0  0  0
   20.8306   71.9792   -2.6780 O   0  0  0  0  0  0  0  0  0  0  0  0
   20.0165   70.8290   -2.8263 C   0  0  0  0  0  0  0  0  0  0  0  0
   18.2772   71.8696   -4.1170 O   0  0  0  0  0  0  0  0  0  0  0  0
   16.3519   70.5873   -2.2092 O   0  0  0  0  0  0  0  0  0  0  0  0
   16.2267   68.9386   -4.3778 O   0  0  0  0  0  0  0  0  0  0  0  0
   17.5858   70.0850   -2.7195 C   0  0  1  0  0  0  0  0  0  0  0  0
   17.4232   69.6593   -4.1638 C   0  0  2  0  0  0  0  0  0  0  0  0
   18.5547   71.2547   -2.8398 C   0  0  1  0  0  0  0  0  0  0  0  0
   17.4395   70.9940   -4.8894 C   0  0  2  0  0  0  0  0  0  0  0  0
   15.7170   69.8583   -2.1233 H   0  0  0  0  0  0  0  0  0  0  0  0
   16.2649   68.0978   -3.8958 H   0  0  0  0  0  0  0  0  0  0  0  0
   15.9458   70.2051   -7.1532 O   0  0  0  0  0  0  0  0  0  0  0  0
   19.5962   70.6242   -9.9353 O   0  0  0  0  0  0  0  0  0  0  0  0
   17.9743   70.8887   -6.2177 N   0  0  0  0  0  0  0  0  0  0  0  0
   17.7646   70.4146   -8.5366 N   0  0  0  0  0  0  0  0  0  0  0  0
   17.1397   70.4827   -7.2849 C   0  0  0  0  0  0  0  0  0  0  0  0
   19.3123   71.1868   -6.4516 C   0  0  0  0  0  0  0  0  0  0  0  0
   19.8933   71.1156   -7.6510 C   0  0  0  0  0  0  0  0  0  0  0  0
   19.0911   70.6994   -8.8195 C   0  0  0  0  0  0  0  0  0  0  0  0
   17.2028   70.1336   -9.2950 H   0  0  0  0  0  0  0  0  0  0  0  0
   22.2930   70.6053   -1.1352 O   0  0  0  0  0  0  0  0  0  0  0  0
   22.4413   69.7109    0.2030 P   0  0  2  0  0  0  0  0  0  0  0  0
   23.4728   68.5464   -0.2413 O   0  0  0  0  0  0  0  0  0  0  0  0
   21.1388   69.2072    0.7540 O   0  0  0  0  0  0  0  0  0  0  0  0
   23.2851   70.6361    1.2213 O   0  0  0  0  0  0  0  0  0  0  0  0
   24.8747   69.8290    2.7829 O   0  0  0  0  0  0  0  0  0  0  0  0
   23.6453   73.2233    4.7874 O   0  0  0  0  0  0  0  0  0  0  0  0
   26.2466   73.1582    3.5721 O   0  0  0  0  0  0  0  0  0  0  0  0
   21.7188   71.6319    3.3261 O   0  0  0  0  0  0  0  0  0  0  0  0
   23.9685   72.4327    3.6402 C   0  0  1  0  0  0  0  0  0  0  0  0
   25.4325   72.0026    3.7513 C   0  0  1  0  0  0  0  0  0  0  0  0
   23.0510   71.2121    3.6006 C   0  0  2  0  0  0  0  0  0  0  0  0
   25.7781   70.9376    2.7018 C   0  0  1  0  0  0  0  0  0  0  0  0
   23.5115   70.1930    2.5569 C   0  0  1  0  0  0  0  0  0  0  0  0
   24.2239   74.0003    4.8182 H   0  0  0  0  0  0  0  0  0  0  0  0
   26.0180   73.8231    4.2407 H   0  0  0  0  0  0  0  0  0  0  0  0
   21.4389   72.2765    3.9939 H   0  0  0  0  0  0  0  0  0  0  0  0
   27.7540   70.9812    4.0445 O   0  0  0  0  0  0  0  0  0  0  0  0
   27.1867   70.3802    2.8950 C   0  0  0  0  0  0  0  0  0  0  0  0
   28.6507   70.6356    4.1800 H   0  0  0  0  0  0  0  0  0  0  0  0
 25 28  1  0
 25 24  1  0
 25 26  1  6
 25 27  2  0
  1  4  1  0
  1 24  1  0
  1  2  1  1
  1  3  2  0
  6 11  1  0
  6 12  1  0
 29 36  1  0
 29 37  1  0
  9  7  1  6
  7 13  1  0
 10  8  1  1
  8 14  1  0
 37 28  1  6
  4  5  1  0
 33 30  1  1
 30 38  1  0
 34 31  1  6
 31 39  1  0
 35 32  1  6
 32 40  1  0
 41 42  1  0
 41 43  1  0
 15 19  2  0
 16 22  2  0
 12 17  1  6
 17 19  1  0
 17 20  1  0
 18 19  1  0
 18 22  1  0
 18 23  1  0
  9 10  1  0
  9 11  1  0
 10 12  1  0
 11  5  1  6
 33 34  1  0
 33 35  1  0
 34 36  1  0
 35 37  1  0
 36 42  1  1
 20 21  2  0
 21 22  1  0
M  CHG  2   2  -1  26  -1
M  END
>  <COMPND>  (102) 
    8629 

>  <AUTHOR>  (102) 
    GENERATED BY OPEN BABEL 3.1.1

>  <MASTER>  (102) 
        0    0    0    0    0    0    0    0   58    0   58    0

>  <minimizedAffinity>  (102) 
-9.04441

>  <CNNscore>  (102) 
0.8224978447

>  <CNNaffinity>  (102) 
4.8735160828

>  <CNN_VS>  (102) 
4.0084567070

>  <CNNaffinity_variance>  (102) 
0.2481400222

$$$$
103
     RDKit          3D

 43 45  0  0  0  0  0  0  0  0999 V2000
   21.9390   71.1585   -1.9516 P   0  0  2  0  0  0  0  0  0  0  0  0
   22.8764   72.3463   -2.5243 O   0  0  0  0  0  0  0  0  0  0  0  0
   21.8496   69.9435   -2.8275 O   0  0  0  0  0  0  0  0  0  0  0  0
   20.5355   71.8944   -1.6254 O   0  0  0  0  0  0  0  0  0  0  0  0
   19.7640   72.3887   -2.7063 C   0  0  0  0  0  0  0  0  0  0  0  0
   17.6977   71.9915   -3.8667 O   0  0  0  0  0  0  0  0  0  0  0  0
   17.0048   70.1394   -1.6128 O   0  0  0  0  0  0  0  0  0  0  0  0
   17.8056   68.4188   -3.5711 O   0  0  0  0  0  0  0  0  0  0  0  0
   18.2716   70.3862   -2.2207 C   0  0  1  0  0  0  0  0  0  0  0  0
   18.3384   69.7275   -3.5828 C   0  0  2  0  0  0  0  0  0  0  0  0
   18.3399   71.8655   -2.5790 C   0  0  1  0  0  0  0  0  0  0  0  0
   17.5219   70.6836   -4.4355 C   0  0  2  0  0  0  0  0  0  0  0  0
   16.9379   69.2008   -1.3748 H   0  0  0  0  0  0  0  0  0  0  0  0
   18.3598   67.8488   -3.0155 H   0  0  0  0  0  0  0  0  0  0  0  0
   15.9059   69.9707   -6.6396 O   0  0  0  0  0  0  0  0  0  0  0  0
   19.3044   70.8112   -9.6371 O   0  0  0  0  0  0  0  0  0  0  0  0
   17.9588   70.7073   -5.8030 N   0  0  0  0  0  0  0  0  0  0  0  0
   17.5993   70.3900   -8.1303 N   0  0  0  0  0  0  0  0  0  0  0  0
   17.0689   70.3293   -6.8353 C   0  0  0  0  0  0  0  0  0  0  0  0
   19.2565   71.1025   -6.1092 C   0  0  0  0  0  0  0  0  0  0  0  0
   19.7473   71.1536   -7.3492 C   0  0  0  0  0  0  0  0  0  0  0  0
   18.8825   70.7748   -8.4853 C   0  0  0  0  0  0  0  0  0  0  0  0
   16.9977   70.1308   -8.8656 H   0  0  0  0  0  0  0  0  0  0  0  0
   22.5558   70.8850   -0.4827 O   0  0  0  0  0  0  0  0  0  0  0  0
   22.1820   69.7804    0.6368 P   0  0  2  0  0  0  0  0  0  0  0  0
   23.2531   68.5989    0.3645 O   0  0  0  0  0  0  0  0  0  0  0  0
   20.7484   69.3355    0.6076 O   0  0  0  0  0  0  0  0  0  0  0  0
   22.6492   70.4402    2.0337 O   0  0  0  0  0  0  0  0  0  0  0  0
   23.1384   72.7575    1.9467 O   0  0  0  0  0  0  0  0  0  0  0  0
   24.8758   71.8524    5.5816 O   0  0  0  0  0  0  0  0  0  0  0  0
   22.4290   73.3546    5.5145 O   0  0  0  0  0  0  0  0  0  0  0  0
   25.0654   69.9779    3.3840 O   0  0  0  0  0  0  0  0  0  0  0  0
   23.9027   71.7427    4.5393 C   0  0  1  0  0  0  0  0  0  0  0  0
   23.2321   73.1066    4.3639 C   0  0  1  0  0  0  0  0  0  0  0  0
   24.5996   71.3162    3.2487 C   0  0  2  0  0  0  0  0  0  0  0  0
   22.3714   73.1414    3.0939 C   0  0  1  0  0  0  0  0  0  0  0  0
   23.6703   71.4345    2.0393 C   0  0  1  0  0  0  0  0  0  0  0  0
   24.4398   72.1224    6.4041 H   0  0  0  0  0  0  0  0  0  0  0  0
   22.9844   73.3293    6.3095 H   0  0  0  0  0  0  0  0  0  0  0  0
   25.6528   69.9162    4.1527 H   0  0  0  0  0  0  0  0  0  0  0  0
   22.5694   75.4753    3.5658 O   0  0  0  0  0  0  0  0  0  0  0  0
   21.8200   74.5379    2.8148 C   0  0  0  0  0  0  0  0  0  0  0  0
   22.2298   76.3687    3.3979 H   0  0  0  0  0  0  0  0  0  0  0  0
 25 28  1  0
 25 24  1  0
 25 26  1  6
 25 27  2  0
  1  4  1  0
  1 24  1  0
  1  2  1  6
  1  3  2  0
  6 11  1  0
  6 12  1  0
 29 36  1  0
 29 37  1  0
  9  7  1  6
  7 13  1  0
 10  8  1  1
  8 14  1  0
 37 28  1  1
  4  5  1  0
 33 30  1  1
 30 38  1  0
 34 31  1  1
 31 39  1  0
 35 32  1  1
 32 40  1  0
 41 42  1  0
 41 43  1  0
 15 19  2  0
 16 22  2  0
 12 17  1  6
 17 19  1  0
 17 20  1  0
 18 19  1  0
 18 22  1  0
 18 23  1  0
  9 10  1  0
  9 11  1  0
 10 12  1  0
 11  5  1  6
 33 34  1  0
 33 35  1  0
 34 36  1  0
 35 37  1  0
 36 42  1  6
 20 21  2  0
 21 22  1  0
M  CHG  2   2  -1  26  -1
M  END
>  <COMPND>  (103) 
    8629 

>  <AUTHOR>  (103) 
    GENERATED BY OPEN BABEL 3.1.1

>  <MASTER>  (103) 
        0    0    0    0    0    0    0    0   58    0   58    0

>  <minimizedAffinity>  (103) 
-8.52988

>  <CNNscore>  (103) 
0.7583668828

>  <CNNaffinity>  (103) 
4.7323331833

>  <CNN_VS>  (103) 
3.5888447762

>  <CNNaffinity_variance>  (103) 
0.1197596192

$$$$
104
     RDKit          3D

 43 45  0  0  0  0  0  0  0  0999 V2000
   20.8212   70.3693    0.0378 P   0  0  2  0  0  0  0  0  0  0  0  0
   19.2540   70.7658    0.1016 O   0  0  0  0  0  0  0  0  0  0  0  0
   21.1657   69.0457    0.6549 O   0  0  0  0  0  0  0  0  0  0  0  0
   21.5733   71.6556    0.6685 O   0  0  0  0  0  0  0  0  0  0  0  0
   22.8175   71.4602    1.3177 C   0  0  0  0  0  0  0  0  0  0  0  0
   23.7293   70.7444    3.4225 O   0  0  0  0  0  0  0  0  0  0  0  0
   21.7647   72.6167    4.6975 O   0  0  0  0  0  0  0  0  0  0  0  0
   24.0893   74.0393    4.7925 O   0  0  0  0  0  0  0  0  0  0  0  0
   22.4904   72.7638    3.4780 C   0  0  1  0  0  0  0  0  0  0  0  0
   23.9434   73.0796    3.7656 C   0  0  2  0  0  0  0  0  0  0  0  0
   22.5870   71.3924    2.8212 C   0  0  1  0  0  0  0  0  0  0  0  0
   24.4905   71.7173    4.1566 C   0  0  2  0  0  0  0  0  0  0  0  0
   21.6898   73.4798    5.1350 H   0  0  0  0  0  0  0  0  0  0  0  0
   23.7266   74.8884    4.4956 H   0  0  0  0  0  0  0  0  0  0  0  0
   26.6216   72.6522    5.7573 O   0  0  0  0  0  0  0  0  0  0  0  0
   29.7800   71.0948    2.7841 O   0  0  0  0  0  0  0  0  0  0  0  0
   25.8796   71.5693    3.8250 N   0  0  0  0  0  0  0  0  0  0  0  0
   28.1925   71.8758    4.2757 N   0  0  0  0  0  0  0  0  0  0  0  0
   26.8716   72.0754    4.6969 C   0  0  0  0  0  0  0  0  0  0  0  0
   26.2464   70.9279    2.6469 C   0  0  0  0  0  0  0  0  0  0  0  0
   27.5105   70.7468    2.2589 C   0  0  0  0  0  0  0  0  0  0  0  0
   28.6075   71.2458    3.1131 C   0  0  0  0  0  0  0  0  0  0  0  0
   28.9005   72.2205    4.8670 H   0  0  0  0  0  0  0  0  0  0  0  0
   21.1617   70.4859   -1.5381 O   0  0  0  0  0  0  0  0  0  0  0  0
   20.7191   71.5811   -2.6416 P   0  0  2  0  0  0  0  0  0  0  0  0
   21.9714   71.6029   -3.6657 O   0  0  0  0  0  0  0  0  0  0  0  0
   20.3639   72.9227   -2.0690 O   0  0  0  0  0  0  0  0  0  0  0  0
   19.5290   70.8702   -3.4682 O   0  0  0  0  0  0  0  0  0  0  0  0
   17.6940   72.1507   -4.2490 O   0  0  0  0  0  0  0  0  0  0  0  0
   15.9441   68.4106   -4.2676 O   0  0  0  0  0  0  0  0  0  0  0  0
   16.6320   69.6666   -6.7570 O   0  0  0  0  0  0  0  0  0  0  0  0
   17.7617   69.1438   -2.1373 O   0  0  0  0  0  0  0  0  0  0  0  0
   17.0119   69.3503   -4.4168 C   0  0  1  0  0  0  0  0  0  0  0  0
   16.6217   70.3504   -5.5070 C   0  0  1  0  0  0  0  0  0  0  0  0
   17.2366   70.0659   -3.0861 C   0  0  2  0  0  0  0  0  0  0  0  0
   17.5911   71.5396   -5.5404 C   0  0  1  0  0  0  0  0  0  0  0  0
   18.1778   71.2620   -3.2400 C   0  0  1  0  0  0  0  0  0  0  0  0
   15.7966   67.9524   -5.1089 H   0  0  0  0  0  0  0  0  0  0  0  0
   16.0162   68.9177   -6.7224 H   0  0  0  0  0  0  0  0  0  0  0  0
   17.1567   68.3915   -2.0487 H   0  0  0  0  0  0  0  0  0  0  0  0
   17.2199   72.1143   -7.8297 O   0  0  0  0  0  0  0  0  0  0  0  0
   17.1319   72.6246   -6.5120 C   0  0  0  0  0  0  0  0  0  0  0  0
   16.9304   72.7940   -8.4589 H   0  0  0  0  0  0  0  0  0  0  0  0
 25 28  1  0
 25 24  1  0
 25 26  1  6
 25 27  2  0
  1  4  1  0
  1 24  1  0
  1  2  1  6
  1  3  2  0
  6 11  1  0
  6 12  1  0
 29 36  1  0
 29 37  1  0
  9  7  1  1
  7 13  1  0
 10  8  1  1
  8 14  1  0
 37 28  1  6
  4  5  1  0
 33 30  1  1
 30 38  1  0
 34 31  1  6
 31 39  1  0
 35 32  1  1
 32 40  1  0
 41 42  1  0
 41 43  1  0
 15 19  2  0
 16 22  2  0
 12 17  1  6
 17 19  1  0
 17 20  1  0
 18 19  1  0
 18 22  1  0
 18 23  1  0
  9 10  1  0
  9 11  1  0
 10 12  1  0
 11  5  1  6
 33 34  1  0
 33 35  1  0
 34 36  1  0
 35 37  1  0
 36 42  1  6
 20 21  2  0
 21 22  1  0
M  CHG  2   2  -1  26  -1
M  END
>  <COMPND>  (104) 
    8629 

>  <AUTHOR>  (104) 
    GENERATED BY OPEN BABEL 3.1.1

>  <MASTER>  (104) 
        0    0    0    0    0    0    0    0   58    0   58    0

>  <minimizedAffinity>  (104) 
-8.71384

>  <CNNscore>  (104) 
0.7258631587

>  <CNNaffinity>  (104) 
4.6608905792

>  <CNN_VS>  (104) 
3.3831686974

>  <CNNaffinity_variance>  (104) 
0.1004342437

$$$$
105
     RDKit          3D

 43 45  0  0  0  0  0  0  0  0999 V2000
   22.5835   71.1632   -3.0171 P   0  0  2  0  0  0  0  0  0  0  0  0
   22.3955   71.9931   -1.6411 O   0  0  0  0  0  0  0  0  0  0  0  0
   23.7372   71.6029   -3.8698 O   0  0  0  0  0  0  0  0  0  0  0  0
   21.1260   71.2345   -3.7159 O   0  0  0  0  0  0  0  0  0  0  0  0
   20.0805   70.4413   -3.1815 C   0  0  0  0  0  0  0  0  0  0  0  0
   18.7123   71.9086   -4.5040 O   0  0  0  0  0  0  0  0  0  0  0  0
   16.4644   71.1659   -2.6638 O   0  0  0  0  0  0  0  0  0  0  0  0
   15.9738   69.6196   -4.8557 O   0  0  0  0  0  0  0  0  0  0  0  0
   17.5377   70.3603   -3.1479 C   0  0  1  0  0  0  0  0  0  0  0  0
   17.3107   70.0001   -4.6013 C   0  0  2  0  0  0  0  0  0  0  0  0
   18.7823   71.2355   -3.2279 C   0  0  1  0  0  0  0  0  0  0  0  0
   17.6969   71.2877   -5.3091 C   0  0  2  0  0  0  0  0  0  0  0  0
   15.6585   70.6284   -2.6038 H   0  0  0  0  0  0  0  0  0  0  0  0
   15.7765   68.7955   -4.3838 H   0  0  0  0  0  0  0  0  0  0  0  0
   16.1181   70.7295   -7.5837 O   0  0  0  0  0  0  0  0  0  0  0  0
   19.8249   70.4031  -10.3030 O   0  0  0  0  0  0  0  0  0  0  0  0
   18.2233   71.0531   -6.6241 N   0  0  0  0  0  0  0  0  0  0  0  0
   17.9651   70.5676   -8.9359 N   0  0  0  0  0  0  0  0  0  0  0  0
   17.3445   70.7803   -7.6983 C   0  0  0  0  0  0  0  0  0  0  0  0
   19.5966   71.0950   -6.8385 C   0  0  0  0  0  0  0  0  0  0  0  0
   20.1727   70.8887   -8.0246 C   0  0  0  0  0  0  0  0  0  0  0  0
   19.3254   70.5975   -9.1991 C   0  0  0  0  0  0  0  0  0  0  0  0
   17.3727   70.3755   -9.6987 H   0  0  0  0  0  0  0  0  0  0  0  0
   22.6682   69.6311   -2.5088 O   0  0  0  0  0  0  0  0  0  0  0  0
   23.7090   68.8995   -1.5116 P   0  0  2  0  0  0  0  0  0  0  0  0
   25.1518   69.2794   -2.1372 O   0  0  0  0  0  0  0  0  0  0  0  0
   23.4731   67.4257   -1.3491 O   0  0  0  0  0  0  0  0  0  0  0  0
   23.6239   69.7457   -0.1398 O   0  0  0  0  0  0  0  0  0  0  0  0
   23.6676   69.3178    2.1908 O   0  0  0  0  0  0  0  0  0  0  0  0
   20.3112   71.7172    2.0232 O   0  0  0  0  0  0  0  0  0  0  0  0
   22.7405   72.7541    3.1506 O   0  0  0  0  0  0  0  0  0  0  0  0
   20.8187   69.7953   -0.0811 O   0  0  0  0  0  0  0  0  0  0  0  0
   21.6172   71.2753    1.6432 C   0  0  1  0  0  0  0  0  0  0  0  0
   22.5314   71.3737    2.8661 C   0  0  1  0  0  0  0  0  0  0  0  0
   21.5320   69.8320    1.1502 C   0  0  2  0  0  0  0  0  0  0  0  0
   23.8721   70.6711    2.6133 C   0  0  1  0  0  0  0  0  0  0  0  0
   22.9195   69.2112    0.9780 C   0  0  1  0  0  0  0  0  0  0  0  0
   20.3581   72.6332    2.3367 H   0  0  0  0  0  0  0  0  0  0  0  0
   21.8862   73.1861    3.3077 H   0  0  0  0  0  0  0  0  0  0  0  0
   19.9421   70.1908    0.0412 H   0  0  0  0  0  0  0  0  0  0  0  0
   25.2633   71.9127    4.1073 O   0  0  0  0  0  0  0  0  0  0  0  0
   24.7370   70.6198    3.8709 C   0  0  0  0  0  0  0  0  0  0  0  0
   25.8157   71.8953    4.9050 H   0  0  0  0  0  0  0  0  0  0  0  0
 25 28  1  0
 25 24  1  0
 25 26  1  6
 25 27  2  0
  1  4  1  0
  1 24  1  0
  1  2  1  1
  1  3  2  0
  6 11  1  0
  6 12  1  0
 29 36  1  0
 29 37  1  0
  9  7  1  6
  7 13  1  0
 10  8  1  1
  8 14  1  0
 37 28  1  6
  4  5  1  0
 33 30  1  1
 30 38  1  0
 34 31  1  6
 31 39  1  0
 35 32  1  6
 32 40  1  0
 41 42  1  0
 41 43  1  0
 15 19  2  0
 16 22  2  0
 12 17  1  6
 17 19  1  0
 17 20  1  0
 18 19  1  0
 18 22  1  0
 18 23  1  0
  9 10  1  0
  9 11  1  0
 10 12  1  0
 11  5  1  6
 33 34  1  0
 33 35  1  0
 34 36  1  0
 35 37  1  0
 36 42  1  1
 20 21  2  0
 21 22  1  0
M  CHG  2   2  -1  26  -1
M  END
>  <COMPND>  (105) 
    8629 

>  <AUTHOR>  (105) 
    GENERATED BY OPEN BABEL 3.1.1

>  <MASTER>  (105) 
        0    0    0    0    0    0    0    0   58    0   58    0

>  <minimizedAffinity>  (105) 
-8.87911

>  <CNNscore>  (105) 
0.7212058306

>  <CNNaffinity>  (105) 
4.6402840614

>  <CNN_VS>  (105) 
3.3465998173

>  <CNNaffinity_variance>  (105) 
0.0514239296

$$$$
106
     RDKit          3D

 43 45  0  0  0  0  0  0  0  0999 V2000
   20.2462   70.7759   -0.0362 P   0  0  2  0  0  0  0  0  0  0  0  0
   20.7741   69.3703    0.5662 O   0  0  0  0  0  0  0  0  0  0  0  0
   19.3560   71.5635    0.8795 O   0  0  0  0  0  0  0  0  0  0  0  0
   19.6023   70.3693   -1.4638 O   0  0  0  0  0  0  0  0  0  0  0  0
   19.4655   71.3732   -2.4543 C   0  0  0  0  0  0  0  0  0  0  0  0
   17.8131   72.1675   -4.0077 O   0  0  0  0  0  0  0  0  0  0  0  0
   15.7857   70.8417   -2.2405 O   0  0  0  0  0  0  0  0  0  0  0  0
   16.0563   69.0527   -4.2808 O   0  0  0  0  0  0  0  0  0  0  0  0
   17.1089   70.4212   -2.5688 C   0  0  1  0  0  0  0  0  0  0  0  0
   17.1554   69.8907   -3.9866 C   0  0  2  0  0  0  0  0  0  0  0  0
   17.9858   71.6634   -2.6651 C   0  0  1  0  0  0  0  0  0  0  0  0
   17.1485   71.1721   -4.8028 C   0  0  2  0  0  0  0  0  0  0  0  0
   15.2072   70.0653   -2.1732 H   0  0  0  0  0  0  0  0  0  0  0  0
   16.1058   68.2514   -3.7365 H   0  0  0  0  0  0  0  0  0  0  0  0
   15.9946   70.1433   -7.1668 O   0  0  0  0  0  0  0  0  0  0  0  0
   19.9159   70.6736   -9.5296 O   0  0  0  0  0  0  0  0  0  0  0  0
   17.8449   71.0305   -6.0504 N   0  0  0  0  0  0  0  0  0  0  0  0
   17.9480   70.4084   -8.3414 N   0  0  0  0  0  0  0  0  0  0  0  0
   17.1740   70.5017   -7.1777 C   0  0  0  0  0  0  0  0  0  0  0  0
   19.1781   71.4142   -6.1472 C   0  0  0  0  0  0  0  0  0  0  0  0
   19.9024   71.3175   -7.2640 C   0  0  0  0  0  0  0  0  0  0  0  0
   19.2765   70.7752   -8.4872 C   0  0  0  0  0  0  0  0  0  0  0  0
   17.5017   70.0425   -9.1393 H   0  0  0  0  0  0  0  0  0  0  0  0
   21.6141   71.5281   -0.4558 O   0  0  0  0  0  0  0  0  0  0  0  0
   22.3157   72.8608    0.1313 P   0  0  2  0  0  0  0  0  0  0  0  0
   21.0585   73.8072    0.5071 O   0  0  0  0  0  0  0  0  0  0  0  0
   23.3106   73.4930   -0.7985 O   0  0  0  0  0  0  0  0  0  0  0  0
   22.9252   72.4081    1.5556 O   0  0  0  0  0  0  0  0  0  0  0  0
   25.1571   72.6892    2.3013 O   0  0  0  0  0  0  0  0  0  0  0  0
   24.2318   69.1921    4.2925 O   0  0  0  0  0  0  0  0  0  0  0  0
   24.4559   71.6465    5.7668 O   0  0  0  0  0  0  0  0  0  0  0  0
   23.2580   69.6220    1.6005 O   0  0  0  0  0  0  0  0  0  0  0  0
   23.9690   70.4826    3.7348 C   0  0  1  0  0  0  0  0  0  0  0  0
   24.8890   71.4965    4.4177 C   0  0  1  0  0  0  0  0  0  0  0  0
   24.2368   70.4407    2.2315 C   0  0  2  0  0  0  0  0  0  0  0  0
   24.8578   72.8489    3.6929 C   0  0  1  0  0  0  0  0  0  0  0  0
   24.2317   71.8419    1.6176 C   0  0  1  0  0  0  0  0  0  0  0  0
   24.0631   69.2117    5.2468 H   0  0  0  0  0  0  0  0  0  0  0  0
   24.4799   70.7854    6.2130 H   0  0  0  0  0  0  0  0  0  0  0  0
   23.2715   68.7377    1.9977 H   0  0  0  0  0  0  0  0  0  0  0  0
   26.9265   73.0819    4.8657 O   0  0  0  0  0  0  0  0  0  0  0  0
   25.8849   73.8259    4.2609 C   0  0  0  0  0  0  0  0  0  0  0  0
   27.5877   73.6907    5.2313 H   0  0  0  0  0  0  0  0  0  0  0  0
 25 28  1  0
 25 24  1  0
 25 26  1  1
 25 27  2  0
  1  4  1  0
  1 24  1  0
  1  2  1  1
  1  3  2  0
  6 11  1  0
  6 12  1  0
 29 36  1  0
 29 37  1  0
  9  7  1  6
  7 13  1  0
 10  8  1  6
  8 14  1  0
 37 28  1  1
  4  5  1  0
 33 30  1  1
 30 38  1  0
 34 31  1  1
 31 39  1  0
 35 32  1  6
 32 40  1  0
 41 42  1  0
 41 43  1  0
 15 19  2  0
 16 22  2  0
 12 17  1  6
 17 19  1  0
 17 20  1  0
 18 19  1  0
 18 22  1  0
 18 23  1  0
  9 10  1  0
  9 11  1  0
 10 12  1  0
 11  5  1  6
 33 34  1  0
 33 35  1  0
 34 36  1  0
 35 37  1  0
 36 42  1  1
 20 21  2  0
 21 22  1  0
M  CHG  2   2  -1  26  -1
M  END
>  <COMPND>  (106) 
    8629 

>  <AUTHOR>  (106) 
    GENERATED BY OPEN BABEL 3.1.1

>  <MASTER>  (106) 
        0    0    0    0    0    0    0    0   58    0   58    0

>  <minimizedAffinity>  (106) 
-8.48158

>  <CNNscore>  (106) 
0.6857910752

>  <CNNaffinity>  (106) 
4.8040647507

>  <CNN_VS>  (106) 
3.2945847511

>  <CNNaffinity_variance>  (106) 
0.1909812391

$$$$
107
     RDKit          3D

 43 45  0  0  0  0  0  0  0  0999 V2000
   20.9752   70.5029    0.3751 P   0  0  2  0  0  0  0  0  0  0  0  0
   20.0173   71.2404    1.4503 O   0  0  0  0  0  0  0  0  0  0  0  0
   21.1756   69.0342    0.6075 O   0  0  0  0  0  0  0  0  0  0  0  0
   22.3194   71.4035    0.3706 O   0  0  0  0  0  0  0  0  0  0  0  0
   23.4888   70.8757    0.9720 C   0  0  0  0  0  0  0  0  0  0  0  0
   24.4831   70.2667    3.0730 O   0  0  0  0  0  0  0  0  0  0  0  0
   22.2783   71.8399    4.3593 O   0  0  0  0  0  0  0  0  0  0  0  0
   24.3875   73.5642    4.4802 O   0  0  0  0  0  0  0  0  0  0  0  0
   22.9809   72.0981    3.1448 C   0  0  1  0  0  0  0  0  0  0  0  0
   24.3766   72.6053    3.4424 C   0  0  2  0  0  0  0  0  0  0  0  0
   23.2651   70.7601    2.4736 C   0  0  1  0  0  0  0  0  0  0  0  0
   25.1027   71.3257    3.8211 C   0  0  2  0  0  0  0  0  0  0  0  0
   22.0853   72.6798    4.8058 H   0  0  0  0  0  0  0  0  0  0  0  0
   23.9135   74.3594    4.1909 H   0  0  0  0  0  0  0  0  0  0  0  0
   27.0981   72.4178    5.4955 O   0  0  0  0  0  0  0  0  0  0  0  0
   30.4310   71.4493    2.4632 O   0  0  0  0  0  0  0  0  0  0  0  0
   26.5000   71.3717    3.4942 N   0  0  0  0  0  0  0  0  0  0  0  0
   28.7560   71.9345    3.9844 N   0  0  0  0  0  0  0  0  0  0  0  0
   27.4198   71.9426    4.4045 C   0  0  0  0  0  0  0  0  0  0  0  0
   26.9458   70.8541    2.2829 C   0  0  0  0  0  0  0  0  0  0  0  0
   28.2233   70.8553    1.8966 C   0  0  0  0  0  0  0  0  0  0  0  0
   29.2482   71.4332    2.7897 C   0  0  0  0  0  0  0  0  0  0  0  0
   29.4146   72.3274    4.6021 H   0  0  0  0  0  0  0  0  0  0  0  0
   20.2856   70.8723   -1.0394 O   0  0  0  0  0  0  0  0  0  0  0  0
   20.9257   71.0900   -2.5077 P   0  0  2  0  0  0  0  0  0  0  0  0
   21.9713   69.8627   -2.6423 O   0  0  0  0  0  0  0  0  0  0  0  0
   21.5328   72.4467   -2.7193 O   0  0  0  0  0  0  0  0  0  0  0  0
   19.7332   70.7238   -3.5317 O   0  0  0  0  0  0  0  0  0  0  0  0
   18.0294   72.1494   -4.3571 O   0  0  0  0  0  0  0  0  0  0  0  0
   15.9193   68.6021   -4.2338 O   0  0  0  0  0  0  0  0  0  0  0  0
   16.7149   69.6912   -6.7693 O   0  0  0  0  0  0  0  0  0  0  0  0
   17.8111   69.2306   -2.1348 O   0  0  0  0  0  0  0  0  0  0  0  0
   17.0737   69.4257   -4.4195 C   0  0  1  0  0  0  0  0  0  0  0  0
   16.7785   70.4184   -5.5456 C   0  0  1  0  0  0  0  0  0  0  0  0
   17.3746   70.1643   -3.1167 C   0  0  2  0  0  0  0  0  0  0  0  0
   17.8602   71.5041   -5.6247 C   0  0  1  0  0  0  0  0  0  0  0  0
   18.4284   71.2552   -3.3164 C   0  0  1  0  0  0  0  0  0  0  0  0
   15.7230   68.1299   -5.0572 H   0  0  0  0  0  0  0  0  0  0  0  0
   16.0285   69.0086   -6.7059 H   0  0  0  0  0  0  0  0  0  0  0  0
   17.1353   68.5454   -2.0174 H   0  0  0  0  0  0  0  0  0  0  0  0
   17.6389   72.0562   -7.9388 O   0  0  0  0  0  0  0  0  0  0  0  0
   17.5053   72.5925   -6.6354 C   0  0  0  0  0  0  0  0  0  0  0  0
   17.4159   72.7377   -8.5927 H   0  0  0  0  0  0  0  0  0  0  0  0
 25 28  1  0
 25 24  1  0
 25 26  1  6
 25 27  2  0
  1  4  1  0
  1 24  1  0
  1  2  1  1
  1  3  2  0
  6 11  1  0
  6 12  1  0
 29 36  1  0
 29 37  1  0
  9  7  1  1
  7 13  1  0
 10  8  1  1
  8 14  1  0
 37 28  1  6
  4  5  1  0
 33 30  1  1
 30 38  1  0
 34 31  1  6
 31 39  1  0
 35 32  1  1
 32 40  1  0
 41 42  1  0
 41 43  1  0
 15 19  2  0
 16 22  2  0
 12 17  1  6
 17 19  1  0
 17 20  1  0
 18 19  1  0
 18 22  1  0
 18 23  1  0
  9 10  1  0
  9 11  1  0
 10 12  1  0
 11  5  1  6
 33 34  1  0
 33 35  1  0
 34 36  1  0
 35 37  1  0
 36 42  1  6
 20 21  2  0
 21 22  1  0
M  CHG  2   2  -1  26  -1
M  END
>  <COMPND>  (107) 
    8629 

>  <AUTHOR>  (107) 
    GENERATED BY OPEN BABEL 3.1.1

>  <MASTER>  (107) 
        0    0    0    0    0    0    0    0   58    0   58    0

>  <minimizedAffinity>  (107) 
-8.58368

>  <CNNscore>  (107) 
0.6782276034

>  <CNNaffinity>  (107) 
4.6635003090

>  <CNN_VS>  (107) 
3.1629147530

>  <CNNaffinity_variance>  (107) 
0.1357373595

$$$$
108
     RDKit          3D

 43 45  0  0  0  0  0  0  0  0999 V2000
   21.1603   70.4104    0.5172 P   0  0  2  0  0  0  0  0  0  0  0  0
   20.2490   71.1554    1.6272 O   0  0  0  0  0  0  0  0  0  0  0  0
   21.1768   68.9130    0.6120 O   0  0  0  0  0  0  0  0  0  0  0  0
   22.5996   71.1384    0.6441 O   0  0  0  0  0  0  0  0  0  0  0  0
   23.6271   70.4835    1.3675 C   0  0  0  0  0  0  0  0  0  0  0  0
   24.5504   70.2519    3.5737 O   0  0  0  0  0  0  0  0  0  0  0  0
   22.3051   72.0125    4.4953 O   0  0  0  0  0  0  0  0  0  0  0  0
   24.4103   73.7424    4.3856 O   0  0  0  0  0  0  0  0  0  0  0  0
   23.0479   72.0604    3.2782 C   0  0  1  0  0  0  0  0  0  0  0  0
   24.4332   72.6185    3.5295 C   0  0  2  0  0  0  0  0  0  0  0  0
   23.3534   70.6281    2.8582 C   0  0  1  0  0  0  0  0  0  0  0  0
   25.1455   71.4273    4.1474 C   0  0  2  0  0  0  0  0  0  0  0  0
   22.0979   72.9159    4.7832 H   0  0  0  0  0  0  0  0  0  0  0  0
   23.9467   74.4733    3.9477 H   0  0  0  0  0  0  0  0  0  0  0  0
   27.0516   73.0090    5.5051 O   0  0  0  0  0  0  0  0  0  0  0  0
   30.5178   71.3307    2.9733 O   0  0  0  0  0  0  0  0  0  0  0  0
   26.5530   71.4233    3.8637 N   0  0  0  0  0  0  0  0  0  0  0  0
   28.7760   72.1719    4.2435 N   0  0  0  0  0  0  0  0  0  0  0  0
   27.4248   72.2560    4.6032 C   0  0  0  0  0  0  0  0  0  0  0  0
   27.0557   70.5997    2.8622 C   0  0  0  0  0  0  0  0  0  0  0  0
   28.3467   70.5322    2.5306 C   0  0  0  0  0  0  0  0  0  0  0  0
   29.3241   71.3701    3.2548 C   0  0  0  0  0  0  0  0  0  0  0  0
   29.4019   72.7434    4.7449 H   0  0  0  0  0  0  0  0  0  0  0  0
   20.5816   70.9899   -0.8765 O   0  0  0  0  0  0  0  0  0  0  0  0
   21.3195   71.3224   -2.2758 P   0  0  2  0  0  0  0  0  0  0  0  0
   22.0498   69.9283   -2.6506 O   0  0  0  0  0  0  0  0  0  0  0  0
   22.2390   72.5078   -2.2200 O   0  0  0  0  0  0  0  0  0  0  0  0
   20.1206   71.4558   -3.3481 O   0  0  0  0  0  0  0  0  0  0  0  0
   19.0497   69.6908   -4.5121 O   0  0  0  0  0  0  0  0  0  0  0  0
   18.7187   72.6586   -7.3641 O   0  0  0  0  0  0  0  0  0  0  0  0
   16.3864   71.8196   -5.9135 O   0  0  0  0  0  0  0  0  0  0  0  0
   21.1274   72.4477   -5.7725 O   0  0  0  0  0  0  0  0  0  0  0  0
   18.7555   72.1241   -6.0381 C   0  0  1  0  0  0  0  0  0  0  0  0
   17.6205   71.1076   -5.8991 C   0  0  1  0  0  0  0  0  0  0  0  0
   20.1087   71.4540   -5.8073 C   0  0  2  0  0  0  0  0  0  0  0  0
   17.7562   70.2997   -4.6015 C   0  0  1  0  0  0  0  0  0  0  0  0
   20.1209   70.6365   -4.5144 C   0  0  1  0  0  0  0  0  0  0  0  0
   17.8623   73.0859   -7.5169 H   0  0  0  0  0  0  0  0  0  0  0  0
   16.3134   72.3260   -6.7378 H   0  0  0  0  0  0  0  0  0  0  0  0
   21.1094   72.9581   -6.5965 H   0  0  0  0  0  0  0  0  0  0  0  0
   16.0049   69.1348   -5.7350 O   0  0  0  0  0  0  0  0  0  0  0  0
   16.7269   69.1746   -4.5179 C   0  0  0  0  0  0  0  0  0  0  0  0
   15.3463   68.4231   -5.6964 H   0  0  0  0  0  0  0  0  0  0  0  0
 25 28  1  0
 25 24  1  0
 25 26  1  6
 25 27  2  0
  1  4  1  0
  1 24  1  0
  1  2  1  1
  1  3  2  0
  6 11  1  0
  6 12  1  0
 29 36  1  0
 29 37  1  0
  9  7  1  1
  7 13  1  0
 10  8  1  1
  8 14  1  0
 37 28  1  1
  4  5  1  0
 33 30  1  6
 30 38  1  0
 34 31  1  1
 31 39  1  0
 35 32  1  1
 32 40  1  0
 41 42  1  0
 41 43  1  0
 15 19  2  0
 16 22  2  0
 12 17  1  6
 17 19  1  0
 17 20  1  0
 18 19  1  0
 18 22  1  0
 18 23  1  0
  9 10  1  0
  9 11  1  0
 10 12  1  0
 11  5  1  6
 33 34  1  0
 33 35  1  0
 34 36  1  0
 35 37  1  0
 36 42  1  6
 20 21  2  0
 21 22  1  0
M  CHG  2   2  -1  26  -1
M  END
>  <COMPND>  (108) 
    8629 

>  <AUTHOR>  (108) 
    GENERATED BY OPEN BABEL 3.1.1

>  <MASTER>  (108) 
        0    0    0    0    0    0    0    0   58    0   58    0

>  <minimizedAffinity>  (108) 
-8.67856

>  <CNNscore>  (108) 
0.6748665571

>  <CNNaffinity>  (108) 
4.7148447037

>  <CNN_VS>  (108) 
3.1818909645

>  <CNNaffinity_variance>  (108) 
0.3481862545

$$$$
109
     RDKit          3D

 43 45  0  0  0  0  0  0  0  0999 V2000
   22.2861   69.3986   -0.2346 P   0  0  2  0  0  0  0  0  0  0  0  0
   20.7749   69.6300    0.2948 O   0  0  0  0  0  0  0  0  0  0  0  0
   22.8041   67.9988   -0.0807 O   0  0  0  0  0  0  0  0  0  0  0  0
   23.1407   70.5505    0.5142 O   0  0  0  0  0  0  0  0  0  0  0  0
   24.3078   70.1731    1.2236 C   0  0  0  0  0  0  0  0  0  0  0  0
   25.2459   70.0384    3.4316 O   0  0  0  0  0  0  0  0  0  0  0  0
   22.6320   71.1376    4.4064 O   0  0  0  0  0  0  0  0  0  0  0  0
   24.2501   73.3324    4.4421 O   0  0  0  0  0  0  0  0  0  0  0  0
   23.3482   71.4402    3.2102 C   0  0  1  0  0  0  0  0  0  0  0  0
   24.5530   72.3030    3.5226 C   0  0  2  0  0  0  0  0  0  0  0  0
   23.9977   70.1544    2.7141 C   0  0  1  0  0  0  0  0  0  0  0  0
   25.5314   71.2859    4.0851 C   0  0  2  0  0  0  0  0  0  0  0  0
   22.2081   71.9436    4.7420 H   0  0  0  0  0  0  0  0  0  0  0  0
   23.6245   73.9535    4.0377 H   0  0  0  0  0  0  0  0  0  0  0  0
   26.9463   73.2845    5.4928 O   0  0  0  0  0  0  0  0  0  0  0  0
   30.7730   72.5713    3.0253 O   0  0  0  0  0  0  0  0  0  0  0  0
   26.8988   71.6429    3.8315 N   0  0  0  0  0  0  0  0  0  0  0  0
   28.8506   72.9276    4.2632 N   0  0  0  0  0  0  0  0  0  0  0  0
   27.5159   72.6615    4.5945 C   0  0  0  0  0  0  0  0  0  0  0  0
   27.6134   70.9857    2.8359 C   0  0  0  0  0  0  0  0  0  0  0  0
   28.8852   71.2522    2.5315 C   0  0  0  0  0  0  0  0  0  0  0  0
   29.6033   72.3028    3.2815 C   0  0  0  0  0  0  0  0  0  0  0  0
   29.3009   73.6337    4.7813 H   0  0  0  0  0  0  0  0  0  0  0  0
   22.2216   69.9281   -1.7606 O   0  0  0  0  0  0  0  0  0  0  0  0
   21.3810   71.1352   -2.4308 P   0  0  2  0  0  0  0  0  0  0  0  0
   22.2014   71.4490   -3.7895 O   0  0  0  0  0  0  0  0  0  0  0  0
   21.1901   72.3241   -1.5341 O   0  0  0  0  0  0  0  0  0  0  0  0
   20.0092   70.4484   -2.9322 O   0  0  0  0  0  0  0  0  0  0  0  0
   18.6363   72.1898   -3.7686 O   0  0  0  0  0  0  0  0  0  0  0  0
   16.0456   69.0124   -4.2620 O   0  0  0  0  0  0  0  0  0  0  0  0
   17.2867   70.2005   -6.5633 O   0  0  0  0  0  0  0  0  0  0  0  0
   17.7410   69.1428   -1.9193 O   0  0  0  0  0  0  0  0  0  0  0  0
   17.3189   69.6630   -4.2329 C   0  0  1  0  0  0  0  0  0  0  0  0
   17.3050   70.7908   -5.2666 C   0  0  1  0  0  0  0  0  0  0  0  0
   17.5626   70.2207   -2.8318 C   0  0  2  0  0  0  0  0  0  0  0  0
   18.5311   71.7004   -5.1107 C   0  0  1  0  0  0  0  0  0  0  0  0
   18.7765   71.1510   -2.7975 C   0  0  1  0  0  0  0  0  0  0  0  0
   15.8850   68.6556   -5.1488 H   0  0  0  0  0  0  0  0  0  0  0  0
   16.5079   69.6284   -6.6485 H   0  0  0  0  0  0  0  0  0  0  0  0
   16.9659   68.5614   -1.9503 H   0  0  0  0  0  0  0  0  0  0  0  0
   18.9953   72.5687   -7.2878 O   0  0  0  0  0  0  0  0  0  0  0  0
   18.4582   72.9206   -6.0260 C   0  0  0  0  0  0  0  0  0  0  0  0
   18.9551   73.3356   -7.8809 H   0  0  0  0  0  0  0  0  0  0  0  0
 25 28  1  0
 25 24  1  0
 25 26  1  6
 25 27  2  0
  1  4  1  0
  1 24  1  0
  1  2  1  1
  1  3  2  0
  6 11  1  0
  6 12  1  0
 29 36  1  0
 29 37  1  0
  9  7  1  1
  7 13  1  0
 10  8  1  1
  8 14  1  0
 37 28  1  6
  4  5  1  0
 33 30  1  1
 30 38  1  0
 34 31  1  6
 31 39  1  0
 35 32  1  1
 32 40  1  0
 41 42  1  0
 41 43  1  0
 15 19  2  0
 16 22  2  0
 12 17  1  6
 17 19  1  0
 17 20  1  0
 18 19  1  0
 18 22  1  0
 18 23  1  0
  9 10  1  0
  9 11  1  0
 10 12  1  0
 11  5  1  6
 33 34  1  0
 33 35  1  0
 34 36  1  0
 35 37  1  0
 36 42  1  6
 20 21  2  0
 21 22  1  0
M  CHG  2   2  -1  26  -1
M  END
>  <COMPND>  (109) 
    8629 

>  <AUTHOR>  (109) 
    GENERATED BY OPEN BABEL 3.1.1

>  <MASTER>  (109) 
        0    0    0    0    0    0    0    0   58    0   58    0

>  <minimizedAffinity>  (109) 
-9.28340

>  <CNNscore>  (109) 
0.6401379704

>  <CNNaffinity>  (109) 
4.9699120522

>  <CNN_VS>  (109) 
3.1814293861

>  <CNNaffinity_variance>  (109) 
0.4077430665

$$$$
110
     RDKit          3D

 43 45  0  0  0  0  0  0  0  0999 V2000
   21.3509   70.4740   -0.4478 P   0  0  2  0  0  0  0  0  0  0  0  0
   20.7818   69.3464    0.5632 O   0  0  0  0  0  0  0  0  0  0  0  0
   22.0285   69.9404   -1.6756 O   0  0  0  0  0  0  0  0  0  0  0  0
   22.2574   71.4226    0.4990 O   0  0  0  0  0  0  0  0  0  0  0  0
   23.3372   70.8381    1.2062 C   0  0  0  0  0  0  0  0  0  0  0  0
   24.1920   70.3918    3.4071 O   0  0  0  0  0  0  0  0  0  0  0  0
   21.9858   72.1532    4.4176 O   0  0  0  0  0  0  0  0  0  0  0  0
   24.1527   73.8067    4.5025 O   0  0  0  0  0  0  0  0  0  0  0  0
   22.7625   72.2732    3.2269 C   0  0  1  0  0  0  0  0  0  0  0  0
   24.1592   72.7568    3.5567 C   0  0  2  0  0  0  0  0  0  0  0  0
   23.0287   70.8698    2.6968 C   0  0  1  0  0  0  0  0  0  0  0  0
   24.8123   71.4932    4.0905 C   0  0  2  0  0  0  0  0  0  0  0  0
   21.8028   73.0370    4.7745 H   0  0  0  0  0  0  0  0  0  0  0  0
   23.7271   74.5878    4.1158 H   0  0  0  0  0  0  0  0  0  0  0  0
   26.7468   72.7771    5.6990 O   0  0  0  0  0  0  0  0  0  0  0  0
   30.2070   71.2990    3.0376 O   0  0  0  0  0  0  0  0  0  0  0  0
   26.2259   71.4600    3.8413 N   0  0  0  0  0  0  0  0  0  0  0  0
   28.4682   72.0399    4.3726 N   0  0  0  0  0  0  0  0  0  0  0  0
   27.1122   72.1390    4.7096 C   0  0  0  0  0  0  0  0  0  0  0  0
   26.7203   70.7597    2.7463 C   0  0  0  0  0  0  0  0  0  0  0  0
   28.0161   70.6760    2.4381 C   0  0  0  0  0  0  0  0  0  0  0  0
   29.0085   71.3571    3.2945 C   0  0  0  0  0  0  0  0  0  0  0  0
   29.1042   72.5053    4.9631 H   0  0  0  0  0  0  0  0  0  0  0  0
   20.0509   71.3889   -0.7407 O   0  0  0  0  0  0  0  0  0  0  0  0
   18.6694   71.0549   -1.5108 P   0  0  2  0  0  0  0  0  0  0  0  0
   17.6222   72.1070   -0.8672 O   0  0  0  0  0  0  0  0  0  0  0  0
   18.2427   69.6188   -1.4141 O   0  0  0  0  0  0  0  0  0  0  0  0
   18.9037   71.5831   -3.0178 O   0  0  0  0  0  0  0  0  0  0  0  0
   18.1295   70.2767   -4.8372 O   0  0  0  0  0  0  0  0  0  0  0  0
   20.9299   72.5744   -6.8193 O   0  0  0  0  0  0  0  0  0  0  0  0
   18.1330   73.0696   -7.2432 O   0  0  0  0  0  0  0  0  0  0  0  0
   21.4757   71.6261   -4.1393 O   0  0  0  0  0  0  0  0  0  0  0  0
   19.9176   72.3071   -5.8451 C   0  0  1  0  0  0  0  0  0  0  0  0
   18.6359   71.9123   -6.5814 C   0  0  1  0  0  0  0  0  0  0  0  0
   20.3867   71.1727   -4.9361 C   0  0  2  0  0  0  0  0  0  0  0  0
   17.5877   71.3550   -5.6088 C   0  0  1  0  0  0  0  0  0  0  0  0
   19.2551   70.6589   -4.0442 C   0  0  1  0  0  0  0  0  0  0  0  0
   20.6385   73.2941   -7.3995 H   0  0  0  0  0  0  0  0  0  0  0  0
   18.8046   73.4118   -7.8539 H   0  0  0  0  0  0  0  0  0  0  0  0
   22.1856   71.9485   -4.7156 H   0  0  0  0  0  0  0  0  0  0  0  0
   16.1072   69.4980   -5.8708 O   0  0  0  0  0  0  0  0  0  0  0  0
   16.3627   70.8093   -6.3394 C   0  0  0  0  0  0  0  0  0  0  0  0
   15.3299   69.1380   -6.3268 H   0  0  0  0  0  0  0  0  0  0  0  0
 25 28  1  0
 25 24  1  0
 25 26  1  1
 25 27  2  0
  1  4  1  0
  1 24  1  0
  1  2  1  1
  1  3  2  0
  6 11  1  0
  6 12  1  0
 29 36  1  0
 29 37  1  0
  9  7  1  1
  7 13  1  0
 10  8  1  1
  8 14  1  0
 37 28  1  1
  4  5  1  0
 33 30  1  6
 30 38  1  0
 34 31  1  1
 31 39  1  0
 35 32  1  1
 32 40  1  0
 41 42  1  0
 41 43  1  0
 15 19  2  0
 16 22  2  0
 12 17  1  6
 17 19  1  0
 17 20  1  0
 18 19  1  0
 18 22  1  0
 18 23  1  0
  9 10  1  0
  9 11  1  0
 10 12  1  0
 11  5  1  6
 33 34  1  0
 33 35  1  0
 34 36  1  0
 35 37  1  0
 36 42  1  6
 20 21  2  0
 21 22  1  0
M  CHG  2   2  -1  26  -1
M  END
>  <COMPND>  (110) 
    8629 

>  <AUTHOR>  (110) 
    GENERATED BY OPEN BABEL 3.1.1

>  <MASTER>  (110) 
        0    0    0    0    0    0    0    0   58    0   58    0

>  <minimizedAffinity>  (110) 
-8.85782

>  <CNNscore>  (110) 
0.6372323632

>  <CNNaffinity>  (110) 
4.4950094223

>  <CNN_VS>  (110) 
2.8643655777

>  <CNNaffinity_variance>  (110) 
0.0038934015

$$$$
111
     RDKit          3D

 43 45  0  0  0  0  0  0  0  0999 V2000
   21.1075   70.8036    0.7613 P   0  0  2  0  0  0  0  0  0  0  0  0
   21.1210   69.1863    0.8046 O   0  0  0  0  0  0  0  0  0  0  0  0
   22.1159   71.4213   -0.1623 O   0  0  0  0  0  0  0  0  0  0  0  0
   21.2224   71.2347    2.3165 O   0  0  0  0  0  0  0  0  0  0  0  0
   22.0629   72.3238    2.6559 C   0  0  0  0  0  0  0  0  0  0  0  0
   23.2886   71.5018    4.5522 O   0  0  0  0  0  0  0  0  0  0  0  0
   22.1889   73.8567    6.0475 O   0  0  0  0  0  0  0  0  0  0  0  0
   24.7229   74.6651    5.4462 O   0  0  0  0  0  0  0  0  0  0  0  0
   22.5972   73.7646    4.6836 C   0  0  1  0  0  0  0  0  0  0  0  0
   24.1081   73.7253    4.5886 C   0  0  2  0  0  0  0  0  0  0  0  0
   22.2101   72.3834    4.1702 C   0  0  1  0  0  0  0  0  0  0  0  0
   24.4112   72.2894    4.9815 C   0  0  2  0  0  0  0  0  0  0  0  0
   22.4253   74.7306    6.3973 H   0  0  0  0  0  0  0  0  0  0  0  0
   24.5001   75.5630    5.1549 H   0  0  0  0  0  0  0  0  0  0  0  0
   27.0379   72.8570    5.8514 O   0  0  0  0  0  0  0  0  0  0  0  0
   28.8975   70.3143    2.4871 O   0  0  0  0  0  0  0  0  0  0  0  0
   25.6003   71.7886    4.3517 N   0  0  0  0  0  0  0  0  0  0  0  0
   27.9617   71.5903    4.1757 N   0  0  0  0  0  0  0  0  0  0  0  0
   26.8714   72.1341    4.8667 C   0  0  0  0  0  0  0  0  0  0  0  0
   25.4990   70.9642    3.2363 C   0  0  0  0  0  0  0  0  0  0  0  0
   26.5485   70.4548    2.5880 C   0  0  0  0  0  0  0  0  0  0  0  0
   27.9123   70.7672    3.0618 C   0  0  0  0  0  0  0  0  0  0  0  0
   28.8573   71.8177    4.5162 H   0  0  0  0  0  0  0  0  0  0  0  0
   19.5687   71.1447    0.4024 O   0  0  0  0  0  0  0  0  0  0  0  0
   18.7597   71.0560   -0.9942 P   0  0  2  0  0  0  0  0  0  0  0  0
   17.3839   71.8460   -0.6768 O   0  0  0  0  0  0  0  0  0  0  0  0
   18.5670   69.6579   -1.5060 O   0  0  0  0  0  0  0  0  0  0  0  0
   19.5670   72.0299   -1.9966 O   0  0  0  0  0  0  0  0  0  0  0  0
   19.3966   72.6870   -4.2672 O   0  0  0  0  0  0  0  0  0  0  0  0
   23.4354   71.8389   -4.1271 O   0  0  0  0  0  0  0  0  0  0  0  0
   22.5648   74.5715   -4.2795 O   0  0  0  0  0  0  0  0  0  0  0  0
   21.5597   70.1758   -2.6797 O   0  0  0  0  0  0  0  0  0  0  0  0
   22.1835   72.3052   -3.6166 C   0  0  1  0  0  0  0  0  0  0  0  0
   21.7041   73.4578   -4.5012 C   0  0  1  0  0  0  0  0  0  0  0  0
   21.1768   71.1565   -3.6378 C   0  0  2  0  0  0  0  0  0  0  0  0
   20.2508   73.8336   -4.1821 C   0  0  1  0  0  0  0  0  0  0  0  0
   19.7551   71.6461   -3.3562 C   0  0  1  0  0  0  0  0  0  0  0  0
   24.0792   72.5634   -4.1159 H   0  0  0  0  0  0  0  0  0  0  0  0
   23.4793   74.3207   -4.4842 H   0  0  0  0  0  0  0  0  0  0  0  0
   22.4612   69.8737   -2.8690 H   0  0  0  0  0  0  0  0  0  0  0  0
   20.4531   74.8061   -6.3552 O   0  0  0  0  0  0  0  0  0  0  0  0
   19.7015   74.8725   -5.1573 C   0  0  0  0  0  0  0  0  0  0  0  0
   20.1144   75.4617   -6.9855 H   0  0  0  0  0  0  0  0  0  0  0  0
 25 28  1  0
 25 24  1  0
 25 26  1  1
 25 27  2  0
  1  4  1  0
  1 24  1  0
  1  2  1  1
  1  3  2  0
  6 11  1  0
  6 12  1  0
 29 36  1  0
 29 37  1  0
  9  7  1  1
  7 13  1  0
 10  8  1  1
  8 14  1  0
 37 28  1  1
  4  5  1  0
 33 30  1  6
 30 38  1  0
 34 31  1  1
 31 39  1  0
 35 32  1  1
 32 40  1  0
 41 42  1  0
 41 43  1  0
 15 19  2  0
 16 22  2  0
 12 17  1  6
 17 19  1  0
 17 20  1  0
 18 19  1  0
 18 22  1  0
 18 23  1  0
  9 10  1  0
  9 11  1  0
 10 12  1  0
 11  5  1  6
 33 34  1  0
 33 35  1  0
 34 36  1  0
 35 37  1  0
 36 42  1  6
 20 21  2  0
 21 22  1  0
M  CHG  2   2  -1  26  -1
M  END
>  <COMPND>  (111) 
    8629 

>  <AUTHOR>  (111) 
    GENERATED BY OPEN BABEL 3.1.1

>  <MASTER>  (111) 
        0    0    0    0    0    0    0    0   58    0   58    0

>  <minimizedAffinity>  (111) 
-8.09691

>  <CNNscore>  (111) 
0.6097125411

>  <CNNaffinity>  (111) 
4.4755849838

>  <CNN_VS>  (111) 
2.7288203239

>  <CNNaffinity_variance>  (111) 
0.2190939188

$$$$
112
     RDKit          3D

 43 45  0  0  0  0  0  0  0  0999 V2000
   20.8397   70.7564    0.5908 P   0  0  2  0  0  0  0  0  0  0  0  0
   19.7953   71.4826    1.5905 O   0  0  0  0  0  0  0  0  0  0  0  0
   20.8778   69.2598    0.6921 O   0  0  0  0  0  0  0  0  0  0  0  0
   22.2402   71.5157    0.8738 O   0  0  0  0  0  0  0  0  0  0  0  0
   23.2636   70.8138    1.5577 C   0  0  0  0  0  0  0  0  0  0  0  0
   24.2411   70.5055    3.7310 O   0  0  0  0  0  0  0  0  0  0  0  0
   22.1278   72.3775    4.7409 O   0  0  0  0  0  0  0  0  0  0  0  0
   24.3221   73.9888    4.5813 O   0  0  0  0  0  0  0  0  0  0  0  0
   22.8338   72.3982    3.5014 C   0  0  1  0  0  0  0  0  0  0  0  0
   24.2553   72.8753    3.7138 C   0  0  2  0  0  0  0  0  0  0  0  0
   23.0452   70.9560    3.0578 C   0  0  1  0  0  0  0  0  0  0  0  0
   24.9188   71.6392    4.2969 C   0  0  2  0  0  0  0  0  0  0  0  0
   21.9806   73.2877    5.0442 H   0  0  0  0  0  0  0  0  0  0  0  0
   23.8867   74.7493    4.1656 H   0  0  0  0  0  0  0  0  0  0  0  0
   26.9590   73.0475    5.6505 O   0  0  0  0  0  0  0  0  0  0  0  0
   30.2375   71.2599    2.9492 O   0  0  0  0  0  0  0  0  0  0  0  0
   26.3142   71.5601    3.9685 N   0  0  0  0  0  0  0  0  0  0  0  0
   28.5898   72.1561    4.3045 N   0  0  0  0  0  0  0  0  0  0  0  0
   27.2578   72.3087    4.7100 C   0  0  0  0  0  0  0  0  0  0  0  0
   26.7347   70.7469    2.9217 C   0  0  0  0  0  0  0  0  0  0  0  0
   28.0086   70.6134    2.5468 C   0  0  0  0  0  0  0  0  0  0  0  0
   29.0574   71.3613    3.2699 C   0  0  0  0  0  0  0  0  0  0  0  0
   29.2647   72.6684    4.8063 H   0  0  0  0  0  0  0  0  0  0  0  0
   20.4067   71.3217   -0.8604 O   0  0  0  0  0  0  0  0  0  0  0  0
   19.0662   71.0895   -1.7333 P   0  0  2  0  0  0  0  0  0  0  0  0
   18.0896   72.2802   -1.2374 O   0  0  0  0  0  0  0  0  0  0  0  0
   18.4794   69.7135   -1.6056 O   0  0  0  0  0  0  0  0  0  0  0  0
   19.4814   71.5026   -3.2373 O   0  0  0  0  0  0  0  0  0  0  0  0
   20.4126   73.5874   -3.8722 O   0  0  0  0  0  0  0  0  0  0  0  0
   18.4823   72.6269   -7.3939 O   0  0  0  0  0  0  0  0  0  0  0  0
   21.3478   72.4853   -7.2633 O   0  0  0  0  0  0  0  0  0  0  0  0
   17.2428   72.0072   -4.8525 O   0  0  0  0  0  0  0  0  0  0  0  0
   19.2122   72.3598   -6.1934 C   0  0  1  0  0  0  0  0  0  0  0  0
   20.5443   73.1089   -6.2654 C   0  0  1  0  0  0  0  0  0  0  0  0
   18.3926   72.8342   -4.9949 C   0  0  2  0  0  0  0  0  0  0  0  0
   21.2646   73.0895   -4.9104 C   0  0  1  0  0  0  0  0  0  0  0  0
   19.2172   72.8222   -3.7064 C   0  0  1  0  0  0  0  0  0  0  0  0
   18.9970   72.3276   -8.1588 H   0  0  0  0  0  0  0  0  0  0  0  0
   20.8813   72.5037   -8.1138 H   0  0  0  0  0  0  0  0  0  0  0  0
   16.7291   72.0235   -5.6745 H   0  0  0  0  0  0  0  0  0  0  0  0
   23.5982   73.1946   -5.4129 O   0  0  0  0  0  0  0  0  0  0  0  0
   22.5175   73.9626   -4.9162 C   0  0  0  0  0  0  0  0  0  0  0  0
   24.4024   73.7376   -5.4226 H   0  0  0  0  0  0  0  0  0  0  0  0
 25 28  1  0
 25 24  1  0
 25 26  1  1
 25 27  2  0
  1  4  1  0
  1 24  1  0
  1  2  1  1
  1  3  2  0
  6 11  1  0
  6 12  1  0
 29 36  1  0
 29 37  1  0
  9  7  1  1
  7 13  1  0
 10  8  1  1
  8 14  1  0
 37 28  1  6
  4  5  1  0
 33 30  1  6
 30 38  1  0
 34 31  1  6
 31 39  1  0
 35 32  1  1
 32 40  1  0
 41 42  1  0
 41 43  1  0
 15 19  2  0
 16 22  2  0
 12 17  1  6
 17 19  1  0
 17 20  1  0
 18 19  1  0
 18 22  1  0
 18 23  1  0
  9 10  1  0
  9 11  1  0
 10 12  1  0
 11  5  1  6
 33 34  1  0
 33 35  1  0
 34 36  1  0
 35 37  1  0
 36 42  1  6
 20 21  2  0
 21 22  1  0
M  CHG  2   2  -1  26  -1
M  END
>  <COMPND>  (112) 
    8629 

>  <AUTHOR>  (112) 
    GENERATED BY OPEN BABEL 3.1.1

>  <MASTER>  (112) 
        0    0    0    0    0    0    0    0   58    0   58    0

>  <minimizedAffinity>  (112) 
-8.40448

>  <CNNscore>  (112) 
0.5922911763

>  <CNNaffinity>  (112) 
4.5080456734

>  <CNN_VS>  (112) 
2.6700756550

>  <CNNaffinity_variance>  (112) 
0.1330337822

$$$$
113
     RDKit          3D

 43 45  0  0  0  0  0  0  0  0999 V2000
   21.6705   70.2626   -0.4881 P   0  0  2  0  0  0  0  0  0  0  0  0
   22.5339   69.3228   -1.4824 O   0  0  0  0  0  0  0  0  0  0  0  0
   20.6245   69.5448    0.3132 O   0  0  0  0  0  0  0  0  0  0  0  0
   21.1302   71.4489   -1.4465 O   0  0  0  0  0  0  0  0  0  0  0  0
   20.4968   71.0984   -2.6646 C   0  0  0  0  0  0  0  0  0  0  0  0
   18.4960   71.8669   -3.7510 O   0  0  0  0  0  0  0  0  0  0  0  0
   16.9943   70.3147   -1.6710 O   0  0  0  0  0  0  0  0  0  0  0  0
   16.8864   68.6631   -3.8383 O   0  0  0  0  0  0  0  0  0  0  0  0
   18.2282   70.0010   -2.3149 C   0  0  1  0  0  0  0  0  0  0  0  0
   17.9788   69.5541   -3.7402 C   0  0  2  0  0  0  0  0  0  0  0  0
   18.9949   71.3017   -2.5189 C   0  0  1  0  0  0  0  0  0  0  0  0
   17.7204   70.8755   -4.4441 C   0  0  2  0  0  0  0  0  0  0  0  0
   16.4871   69.4993   -1.5297 H   0  0  0  0  0  0  0  0  0  0  0  0
   17.0995   67.8379   -3.3753 H   0  0  0  0  0  0  0  0  0  0  0  0
   16.0881   69.9709   -6.5643 O   0  0  0  0  0  0  0  0  0  0  0  0
   19.3650   70.8196   -9.6921 O   0  0  0  0  0  0  0  0  0  0  0  0
   18.1216   70.8494   -5.8224 N   0  0  0  0  0  0  0  0  0  0  0  0
   17.7210   70.3944   -8.1200 N   0  0  0  0  0  0  0  0  0  0  0  0
   17.2266   70.3752   -6.8096 C   0  0  0  0  0  0  0  0  0  0  0  0
   19.3899   71.2910   -6.1835 C   0  0  0  0  0  0  0  0  0  0  0  0
   19.8466   71.3016   -7.4375 C   0  0  0  0  0  0  0  0  0  0  0  0
   18.9741   70.8225   -8.5289 C   0  0  0  0  0  0  0  0  0  0  0  0
   17.1151   70.0682   -8.8245 H   0  0  0  0  0  0  0  0  0  0  0  0
   22.8072   70.9982    0.3950 O   0  0  0  0  0  0  0  0  0  0  0  0
   23.2848   70.7610    1.9209 P   0  0  2  0  0  0  0  0  0  0  0  0
   23.5809   69.1714    1.9742 O   0  0  0  0  0  0  0  0  0  0  0  0
   22.3079   71.2439    2.9536 O   0  0  0  0  0  0  0  0  0  0  0  0
   24.7419   71.4501    2.0047 O   0  0  0  0  0  0  0  0  0  0  0  0
   27.0068   70.7665    2.1438 O   0  0  0  0  0  0  0  0  0  0  0  0
   26.9469   73.4869    5.2497 O   0  0  0  0  0  0  0  0  0  0  0  0
   28.3081   74.1506    2.8095 O   0  0  0  0  0  0  0  0  0  0  0  0
   24.6635   71.7676    4.7918 O   0  0  0  0  0  0  0  0  0  0  0  0
   26.5852   72.9637    3.9687 C   0  0  1  0  0  0  0  0  0  0  0  0
   27.8561   72.8370    3.1263 C   0  0  1  0  0  0  0  0  0  0  0  0
   25.9255   71.5986    4.1552 C   0  0  2  0  0  0  0  0  0  0  0  0
   27.5924   72.0385    1.8425 C   0  0  1  0  0  0  0  0  0  0  0  0
   25.7534   70.8676    2.8225 C   0  0  1  0  0  0  0  0  0  0  0  0
   27.3659   74.3538    5.1383 H   0  0  0  0  0  0  0  0  0  0  0  0
   28.4704   74.6443    3.6286 H   0  0  0  0  0  0  0  0  0  0  0  0
   24.7860   72.2312    5.6344 H   0  0  0  0  0  0  0  0  0  0  0  0
   29.1246   72.8615    0.2043 O   0  0  0  0  0  0  0  0  0  0  0  0
   28.8779   71.7649    1.0650 C   0  0  0  0  0  0  0  0  0  0  0  0
   29.9401   72.7014   -0.2968 H   0  0  0  0  0  0  0  0  0  0  0  0
 25 28  1  0
 25 24  1  0
 25 26  1  6
 25 27  2  0
  1  4  1  0
  1 24  1  0
  1  2  1  6
  1  3  2  0
  6 11  1  0
  6 12  1  0
 29 36  1  0
 29 37  1  0
  9  7  1  6
  7 13  1  0
 10  8  1  1
  8 14  1  0
 37 28  1  6
  4  5  1  0
 33 30  1  1
 30 38  1  0
 34 31  1  6
 31 39  1  0
 35 32  1  6
 32 40  1  0
 41 42  1  0
 41 43  1  0
 15 19  2  0
 16 22  2  0
 12 17  1  6
 17 19  1  0
 17 20  1  0
 18 19  1  0
 18 22  1  0
 18 23  1  0
  9 10  1  0
  9 11  1  0
 10 12  1  0
 11  5  1  6
 33 34  1  0
 33 35  1  0
 34 36  1  0
 35 37  1  0
 36 42  1  1
 20 21  2  0
 21 22  1  0
M  CHG  2   2  -1  26  -1
M  END
>  <COMPND>  (113) 
    8629 

>  <AUTHOR>  (113) 
    GENERATED BY OPEN BABEL 3.1.1

>  <MASTER>  (113) 
        0    0    0    0    0    0    0    0   58    0   58    0

>  <minimizedAffinity>  (113) 
-8.73277

>  <CNNscore>  (113) 
0.5723880529

>  <CNNaffinity>  (113) 
4.8529882431

>  <CNN_VS>  (113) 
2.7777924538

>  <CNNaffinity_variance>  (113) 
0.4425486028

$$$$
114
     RDKit          3D

 43 45  0  0  0  0  0  0  0  0999 V2000
   21.7005   71.0182   -2.4603 P   0  0  2  0  0  0  0  0  0  0  0  0
   22.8742   72.0994   -2.1940 O   0  0  0  0  0  0  0  0  0  0  0  0
   21.4773   70.6672   -3.9020 O   0  0  0  0  0  0  0  0  0  0  0  0
   20.4226   71.6322   -1.6807 O   0  0  0  0  0  0  0  0  0  0  0  0
   19.5324   72.4704   -2.3968 C   0  0  0  0  0  0  0  0  0  0  0  0
   17.4382   72.0947   -3.5134 O   0  0  0  0  0  0  0  0  0  0  0  0
   16.8212   70.1625   -1.3050 O   0  0  0  0  0  0  0  0  0  0  0  0
   17.5811   68.5152   -3.3410 O   0  0  0  0  0  0  0  0  0  0  0  0
   18.0690   70.4402   -1.9384 C   0  0  1  0  0  0  0  0  0  0  0  0
   18.1035   69.8280   -3.3232 C   0  0  2  0  0  0  0  0  0  0  0  0
   18.1163   71.9312   -2.2486 C   0  0  1  0  0  0  0  0  0  0  0  0
   17.2568   70.8051   -4.1209 C   0  0  2  0  0  0  0  0  0  0  0  0
   16.7680   69.2161   -1.0969 H   0  0  0  0  0  0  0  0  0  0  0  0
   18.1546   67.9317   -2.8201 H   0  0  0  0  0  0  0  0  0  0  0  0
   15.9965   69.4028   -6.2240 O   0  0  0  0  0  0  0  0  0  0  0  0
   18.8745   71.1604   -9.3655 O   0  0  0  0  0  0  0  0  0  0  0  0
   17.6559   70.8781   -5.4981 N   0  0  0  0  0  0  0  0  0  0  0  0
   17.4304   70.2793   -7.7866 N   0  0  0  0  0  0  0  0  0  0  0  0
   16.9569   70.1333   -6.4764 C   0  0  0  0  0  0  0  0  0  0  0  0
   18.7292   71.6818   -5.8669 C   0  0  0  0  0  0  0  0  0  0  0  0
   19.1691   71.8092   -7.1205 C   0  0  0  0  0  0  0  0  0  0  0  0
   18.4937   71.0646   -8.2029 C   0  0  0  0  0  0  0  0  0  0  0  0
   16.9591   69.7694   -8.4849 H   0  0  0  0  0  0  0  0  0  0  0  0
   22.1336   69.7736   -1.5242 O   0  0  0  0  0  0  0  0  0  0  0  0
   22.1363   69.6049    0.0834 P   0  0  2  0  0  0  0  0  0  0  0  0
   23.1987   68.4097    0.3293 O   0  0  0  0  0  0  0  0  0  0  0  0
   20.7800   69.3602    0.6787 O   0  0  0  0  0  0  0  0  0  0  0  0
   22.8784   70.9292    0.6318 O   0  0  0  0  0  0  0  0  0  0  0  0
   22.6967   71.2978    2.9658 O   0  0  0  0  0  0  0  0  0  0  0  0
   24.0239   75.0330    1.8092 O   0  0  0  0  0  0  0  0  0  0  0  0
   25.8041   73.2661    3.2080 O   0  0  0  0  0  0  0  0  0  0  0  0
   22.1386   73.5930    0.1504 O   0  0  0  0  0  0  0  0  0  0  0  0
   23.9360   73.6066    1.7537 C   0  0  1  0  0  0  0  0  0  0  0  0
   24.4008   73.0448    3.0987 C   0  0  1  0  0  0  0  0  0  0  0  0
   22.4885   73.2062    1.4750 C   0  0  2  0  0  0  0  0  0  0  0  0
   24.0855   71.5472    3.2122 C   0  0  1  0  0  0  0  0  0  0  0  0
   22.2719   71.7036    1.6632 C   0  0  1  0  0  0  0  0  0  0  0  0
   24.9406   75.2940    1.9854 H   0  0  0  0  0  0  0  0  0  0  0  0
   25.9897   74.2154    3.1343 H   0  0  0  0  0  0  0  0  0  0  0  0
   22.2798   74.5462    0.0442 H   0  0  0  0  0  0  0  0  0  0  0  0
   24.4652   72.0882    5.5083 O   0  0  0  0  0  0  0  0  0  0  0  0
   24.3967   71.0011    4.6040 C   0  0  0  0  0  0  0  0  0  0  0  0
   24.6623   71.7557    6.3984 H   0  0  0  0  0  0  0  0  0  0  0  0
 25 28  1  0
 25 24  1  0
 25 26  1  6
 25 27  2  0
  1  4  1  0
  1 24  1  0
  1  2  1  6
  1  3  2  0
  6 11  1  0
  6 12  1  0
 29 36  1  0
 29 37  1  0
  9  7  1  6
  7 13  1  0
 10  8  1  1
  8 14  1  0
 37 28  1  6
  4  5  1  0
 33 30  1  1
 30 38  1  0
 34 31  1  6
 31 39  1  0
 35 32  1  6
 32 40  1  0
 41 42  1  0
 41 43  1  0
 15 19  2  0
 16 22  2  0
 12 17  1  6
 17 19  1  0
 17 20  1  0
 18 19  1  0
 18 22  1  0
 18 23  1  0
  9 10  1  0
  9 11  1  0
 10 12  1  0
 11  5  1  6
 33 34  1  0
 33 35  1  0
 34 36  1  0
 35 37  1  0
 36 42  1  1
 20 21  2  0
 21 22  1  0
M  CHG  2   2  -1  26  -1
M  END
>  <COMPND>  (114) 
    8629 

>  <AUTHOR>  (114) 
    GENERATED BY OPEN BABEL 3.1.1

>  <MASTER>  (114) 
        0    0    0    0    0    0    0    0   58    0   58    0

>  <minimizedAffinity>  (114) 
-8.17565

>  <CNNscore>  (114) 
0.5646708608

>  <CNNaffinity>  (114) 
4.6338477135

>  <CNN_VS>  (114) 
2.6165988445

>  <CNNaffinity_variance>  (114) 
0.1774127781

$$$$
115
     RDKit          3D

 43 45  0  0  0  0  0  0  0  0999 V2000
   21.4306   73.8414   -1.2172 P   0  0  2  0  0  0  0  0  0  0  0  0
   21.9154   75.3319   -1.6180 O   0  0  0  0  0  0  0  0  0  0  0  0
   22.5269   72.8208   -1.1287 O   0  0  0  0  0  0  0  0  0  0  0  0
   20.2530   73.5174   -2.2784 O   0  0  0  0  0  0  0  0  0  0  0  0
   20.0722   72.1765   -2.6992 C   0  0  0  0  0  0  0  0  0  0  0  0
   17.9497   72.0207   -3.8147 O   0  0  0  0  0  0  0  0  0  0  0  0
   17.1180   70.2060   -1.5773 O   0  0  0  0  0  0  0  0  0  0  0  0
   17.6889   68.4511   -3.5851 O   0  0  0  0  0  0  0  0  0  0  0  0
   18.3895   70.3314   -2.2121 C   0  0  1  0  0  0  0  0  0  0  0  0
   18.3557   69.6970   -3.5869 C   0  0  2  0  0  0  0  0  0  0  0  0
   18.6043   71.8024   -2.5458 C   0  0  1  0  0  0  0  0  0  0  0  0
   17.6247   70.7502   -4.4020 C   0  0  2  0  0  0  0  0  0  0  0  0
   16.9586   69.2750   -1.3543 H   0  0  0  0  0  0  0  0  0  0  0  0
   18.1929   67.8153   -3.0536 H   0  0  0  0  0  0  0  0  0  0  0  0
   15.9788   69.9497   -6.5534 O   0  0  0  0  0  0  0  0  0  0  0  0
   19.2870   70.8118   -9.6444 O   0  0  0  0  0  0  0  0  0  0  0  0
   18.0302   70.7557   -5.7793 N   0  0  0  0  0  0  0  0  0  0  0  0
   17.6273   70.3798   -8.0907 N   0  0  0  0  0  0  0  0  0  0  0  0
   17.1276   70.3334   -6.7830 C   0  0  0  0  0  0  0  0  0  0  0  0
   19.3102   71.1770   -6.1231 C   0  0  0  0  0  0  0  0  0  0  0  0
   19.7717   71.2140   -7.3748 C   0  0  0  0  0  0  0  0  0  0  0  0
   18.8919   70.7893   -8.4828 C   0  0  0  0  0  0  0  0  0  0  0  0
   17.0163   70.0898   -8.8065 H   0  0  0  0  0  0  0  0  0  0  0  0
   20.6215   74.0808    0.1615 O   0  0  0  0  0  0  0  0  0  0  0  0
   21.1054   74.6659    1.5886 P   0  0  2  0  0  0  0  0  0  0  0  0
   19.7853   74.5269    2.5135 O   0  0  0  0  0  0  0  0  0  0  0  0
   21.6729   76.0543    1.5239 O   0  0  0  0  0  0  0  0  0  0  0  0
   22.1240   73.5530    2.1621 O   0  0  0  0  0  0  0  0  0  0  0  0
   21.0160   71.4581    2.1766 O   0  0  0  0  0  0  0  0  0  0  0  0
   24.5449   70.3507    4.0127 O   0  0  0  0  0  0  0  0  0  0  0  0
   24.0266   69.5132    1.3150 O   0  0  0  0  0  0  0  0  0  0  0  0
   23.3546   72.9223    4.6040 O   0  0  0  0  0  0  0  0  0  0  0  0
   23.7272   71.0822    3.0953 C   0  0  1  0  0  0  0  0  0  0  0  0
   23.0358   70.0820    2.1665 C   0  0  1  0  0  0  0  0  0  0  0  0
   22.6948   71.8890    3.8805 C   0  0  2  0  0  0  0  0  0  0  0  0
   21.9427   70.7642    1.3331 C   0  0  1  0  0  0  0  0  0  0  0  0
   21.6258   72.4841    2.9624 C   0  0  1  0  0  0  0  0  0  0  0  0
   25.2029   69.8366    3.5205 H   0  0  0  0  0  0  0  0  0  0  0  0
   24.7111   69.0860    1.8537 H   0  0  0  0  0  0  0  0  0  0  0  0
   24.0287   72.5327    5.1818 H   0  0  0  0  0  0  0  0  0  0  0  0
   21.5977   69.7911   -0.8217 O   0  0  0  0  0  0  0  0  0  0  0  0
   21.1350   69.7582    0.5159 C   0  0  0  0  0  0  0  0  0  0  0  0
   21.0928   69.1555   -1.3535 H   0  0  0  0  0  0  0  0  0  0  0  0
 25 28  1  0
 25 24  1  0
 25 26  1  1
 25 27  2  0
  1  4  1  0
  1 24  1  0
  1  2  1  6
  1  3  2  0
  6 11  1  0
  6 12  1  0
 29 36  1  0
 29 37  1  0
  9  7  1  6
  7 13  1  0
 10  8  1  1
  8 14  1  0
 37 28  1  6
  4  5  1  0
 33 30  1  1
 30 38  1  0
 34 31  1  6
 31 39  1  0
 35 32  1  6
 32 40  1  0
 41 42  1  0
 41 43  1  0
 15 19  2  0
 16 22  2  0
 12 17  1  6
 17 19  1  0
 17 20  1  0
 18 19  1  0
 18 22  1  0
 18 23  1  0
  9 10  1  0
  9 11  1  0
 10 12  1  0
 11  5  1  6
 33 34  1  0
 33 35  1  0
 34 36  1  0
 35 37  1  0
 36 42  1  1
 20 21  2  0
 21 22  1  0
M  CHG  2   2  -1  26  -1
M  END
>  <COMPND>  (115) 
    8629 

>  <AUTHOR>  (115) 
    GENERATED BY OPEN BABEL 3.1.1

>  <MASTER>  (115) 
        0    0    0    0    0    0    0    0   58    0   58    0

>  <minimizedAffinity>  (115) 
-7.39266

>  <CNNscore>  (115) 
0.5377620459

>  <CNNaffinity>  (115) 
4.6766800880

>  <CNN_VS>  (115) 
2.5149409771

>  <CNNaffinity_variance>  (115) 
0.0442302600

$$$$
116
     RDKit          3D

 43 45  0  0  0  0  0  0  0  0999 V2000
   22.7226   72.1385   -2.9485 P   0  0  2  0  0  0  0  0  0  0  0  0
   23.8096   72.2686   -4.1397 O   0  0  0  0  0  0  0  0  0  0  0  0
   22.7715   73.2334   -1.9237 O   0  0  0  0  0  0  0  0  0  0  0  0
   22.9420   70.6379   -2.3846 O   0  0  0  0  0  0  0  0  0  0  0  0
   23.6633   70.4683   -1.1768 C   0  0  0  0  0  0  0  0  0  0  0  0
   23.7221   69.1936    0.8592 O   0  0  0  0  0  0  0  0  0  0  0  0
   20.7261   69.2120    0.7373 O   0  0  0  0  0  0  0  0  0  0  0  0
   21.2581   71.1537    2.5767 O   0  0  0  0  0  0  0  0  0  0  0  0
   21.6507   70.2315    0.3616 C   0  0  1  0  0  0  0  0  0  0  0  0
   22.2376   70.8890    1.5932 C   0  0  2  0  0  0  0  0  0  0  0  0
   22.8713   69.5556   -0.2505 C   0  0  1  0  0  0  0  0  0  0  0  0
   23.2566   69.8571    2.0458 C   0  0  2  0  0  0  0  0  0  0  0  0
   19.9379   69.6195    1.1305 H   0  0  0  0  0  0  0  0  0  0  0  0
   20.6337   71.8158    2.2413 H   0  0  0  0  0  0  0  0  0  0  0  0
   23.3192   70.4813    4.7998 O   0  0  0  0  0  0  0  0  0  0  0  0
   27.6099   72.1394    4.5135 O   0  0  0  0  0  0  0  0  0  0  0  0
   24.3775   70.4522    2.7174 N   0  0  0  0  0  0  0  0  0  0  0  0
   25.4557   71.3062    4.6550 N   0  0  0  0  0  0  0  0  0  0  0  0
   24.3063   70.7262    4.1031 C   0  0  0  0  0  0  0  0  0  0  0  0
   25.5310   70.7574    2.0032 C   0  0  0  0  0  0  0  0  0  0  0  0
   26.6180   71.3115    2.5441 C   0  0  0  0  0  0  0  0  0  0  0  0
   26.6259   71.6296    3.9866 C   0  0  0  0  0  0  0  0  0  0  0  0
   25.4290   71.5064    5.6189 H   0  0  0  0  0  0  0  0  0  0  0  0
   21.3212   72.0257   -3.7461 O   0  0  0  0  0  0  0  0  0  0  0  0
   20.3831   73.1624   -4.4100 P   0  0  2  0  0  0  0  0  0  0  0  0
   21.4034   74.3963   -4.6425 O   0  0  0  0  0  0  0  0  0  0  0  0
   19.1678   73.5082   -3.5991 O   0  0  0  0  0  0  0  0  0  0  0  0
   20.0632   72.6129   -5.8935 O   0  0  0  0  0  0  0  0  0  0  0  0
   18.9243   70.5788   -5.4669 O   0  0  0  0  0  0  0  0  0  0  0  0
   18.6210   70.6538   -9.5843 O   0  0  0  0  0  0  0  0  0  0  0  0
   16.2939   71.1673   -7.9816 O   0  0  0  0  0  0  0  0  0  0  0  0
   21.0519   71.5583   -8.2987 O   0  0  0  0  0  0  0  0  0  0  0  0
   18.6676   71.2176   -8.2708 C   0  0  1  0  0  0  0  0  0  0  0  0
   17.5085   70.6370   -7.4583 C   0  0  1  0  0  0  0  0  0  0  0  0
   20.0063   70.8667   -7.6241 C   0  0  2  0  0  0  0  0  0  0  0  0
   17.6462   70.9851   -5.9700 C   0  0  1  0  0  0  0  0  0  0  0  0
   20.0203   71.2086   -6.1332 C   0  0  1  0  0  0  0  0  0  0  0  0
   17.7737   70.8734  -10.0006 H   0  0  0  0  0  0  0  0  0  0  0  0
   16.2195   70.9409   -8.9220 H   0  0  0  0  0  0  0  0  0  0  0  0
   21.0325   71.3332   -9.2415 H   0  0  0  0  0  0  0  0  0  0  0  0
   15.8762   69.3804   -5.9419 O   0  0  0  0  0  0  0  0  0  0  0  0
   16.5888   70.2854   -5.1189 C   0  0  0  0  0  0  0  0  0  0  0  0
   15.1999   68.9275   -5.4134 H   0  0  0  0  0  0  0  0  0  0  0  0
 25 28  1  0
 25 24  1  0
 25 26  1  6
 25 27  2  0
  1  4  1  0
  1 24  1  0
  1  2  1  6
  1  3  2  0
  6 11  1  0
  6 12  1  0
 29 36  1  0
 29 37  1  0
  9  7  1  1
  7 13  1  0
 10  8  1  1
  8 14  1  0
 37 28  1  6
  4  5  1  0
 33 30  1  6
 30 38  1  0
 34 31  1  6
 31 39  1  0
 35 32  1  6
 32 40  1  0
 41 42  1  0
 41 43  1  0
 15 19  2  0
 16 22  2  0
 12 17  1  6
 17 19  1  0
 17 20  1  0
 18 19  1  0
 18 22  1  0
 18 23  1  0
  9 10  1  0
  9 11  1  0
 10 12  1  0
 11  5  1  6
 33 34  1  0
 33 35  1  0
 34 36  1  0
 35 37  1  0
 36 42  1  1
 20 21  2  0
 21 22  1  0
M  CHG  2   2  -1  26  -1
M  END
>  <COMPND>  (116) 
    8629 

>  <AUTHOR>  (116) 
    GENERATED BY OPEN BABEL 3.1.1

>  <MASTER>  (116) 
        0    0    0    0    0    0    0    0   58    0   58    0

>  <minimizedAffinity>  (116) 
-9.20543

>  <CNNscore>  (116) 
0.4787427783

>  <CNNaffinity>  (116) 
4.1458582878

>  <CNN_VS>  (116) 
1.9847997427

>  <CNNaffinity_variance>  (116) 
0.4308804870

$$$$
117
     RDKit          3D

 43 45  0  0  0  0  0  0  0  0999 V2000
   20.8622   70.7188    0.3975 P   0  0  2  0  0  0  0  0  0  0  0  0
   19.8922   71.4540    1.4633 O   0  0  0  0  0  0  0  0  0  0  0  0
   20.9896   69.2344    0.5754 O   0  0  0  0  0  0  0  0  0  0  0  0
   22.2428   71.5581    0.4855 O   0  0  0  0  0  0  0  0  0  0  0  0
   22.6451   72.0676    1.7450 C   0  0  0  0  0  0  0  0  0  0  0  0
   24.5633   70.6640    2.0972 O   0  0  0  0  0  0  0  0  0  0  0  0
   23.3939   70.0610    4.7915 O   0  0  0  0  0  0  0  0  0  0  0  0
   25.3148   71.9060    5.3768 O   0  0  0  0  0  0  0  0  0  0  0  0
   23.3743   71.2808    4.0520 C   0  0  1  0  0  0  0  0  0  0  0  0
   24.7378   71.9390    4.0873 C   0  0  2  0  0  0  0  0  0  0  0  0
   23.2273   70.9325    2.5761 C   0  0  1  0  0  0  0  0  0  0  0  0
   25.5140   71.1101    3.0780 C   0  0  2  0  0  0  0  0  0  0  0  0
   23.4867   70.2579    5.7373 H   0  0  0  0  0  0  0  0  0  0  0  0
   24.7851   72.4478    5.9822 H   0  0  0  0  0  0  0  0  0  0  0  0
   28.1571   70.2004    2.6731 O   0  0  0  0  0  0  0  0  0  0  0  0
   29.3701   74.1048    0.5459 O   0  0  0  0  0  0  0  0  0  0  0  0
   26.5411   71.8682    2.4209 N   0  0  0  0  0  0  0  0  0  0  0  0
   28.7589   72.1451    1.6141 N   0  0  0  0  0  0  0  0  0  0  0  0
   27.8361   71.3201    2.2697 C   0  0  0  0  0  0  0  0  0  0  0  0
   26.2596   73.1401    1.9342 C   0  0  0  0  0  0  0  0  0  0  0  0
   27.1511   73.9147    1.3125 C   0  0  0  0  0  0  0  0  0  0  0  0
   28.5275   73.4166    1.1136 C   0  0  0  0  0  0  0  0  0  0  0  0
   29.6677   71.7843    1.4976 H   0  0  0  0  0  0  0  0  0  0  0  0
   20.2496   71.1756   -1.0269 O   0  0  0  0  0  0  0  0  0  0  0  0
   18.7628   71.0201   -1.6419 P   0  0  2  0  0  0  0  0  0  0  0  0
   17.9301   72.1926   -0.9006 O   0  0  0  0  0  0  0  0  0  0  0  0
   18.1728   69.6483   -1.4863 O   0  0  0  0  0  0  0  0  0  0  0  0
   18.8986   71.5203   -3.1704 O   0  0  0  0  0  0  0  0  0  0  0  0
   18.2968   70.1377   -4.9987 O   0  0  0  0  0  0  0  0  0  0  0  0
   20.9752   72.6317   -6.9111 O   0  0  0  0  0  0  0  0  0  0  0  0
   18.1647   72.8973   -7.4393 O   0  0  0  0  0  0  0  0  0  0  0  0
   21.4978   71.7575   -4.2014 O   0  0  0  0  0  0  0  0  0  0  0  0
   19.9528   72.2943   -5.9696 C   0  0  1  0  0  0  0  0  0  0  0  0
   18.7340   71.7907   -6.7452 C   0  0  1  0  0  0  0  0  0  0  0  0
   20.4777   71.2103   -5.0300 C   0  0  2  0  0  0  0  0  0  0  0  0
   17.6990   71.1613   -5.8029 C   0  0  1  0  0  0  0  0  0  0  0  0
   19.3591   70.6167   -4.1717 C   0  0  1  0  0  0  0  0  0  0  0  0
   20.6485   73.3199   -7.5104 H   0  0  0  0  0  0  0  0  0  0  0  0
   18.8286   73.2858   -8.0304 H   0  0  0  0  0  0  0  0  0  0  0  0
   22.2000   72.1297   -4.7565 H   0  0  0  0  0  0  0  0  0  0  0  0
   15.9794   69.5032   -5.7546 O   0  0  0  0  0  0  0  0  0  0  0  0
   16.5485   70.5120   -6.5688 C   0  0  0  0  0  0  0  0  0  0  0  0
   15.2455   69.0813   -6.2291 H   0  0  0  0  0  0  0  0  0  0  0  0
 25 28  1  0
 25 24  1  0
 25 26  1  1
 25 27  2  0
  1  4  1  0
  1 24  1  0
  1  2  1  1
  1  3  2  0
  6 11  1  0
  6 12  1  0
 29 36  1  0
 29 37  1  0
  9  7  1  1
  7 13  1  0
 10  8  1  1
  8 14  1  0
 37 28  1  1
  4  5  1  0
 33 30  1  6
 30 38  1  0
 34 31  1  1
 31 39  1  0
 35 32  1  1
 32 40  1  0
 41 42  1  0
 41 43  1  0
 15 19  2  0
 16 22  2  0
 12 17  1  6
 17 19  1  0
 17 20  1  0
 18 19  1  0
 18 22  1  0
 18 23  1  0
  9 10  1  0
  9 11  1  0
 10 12  1  0
 11  5  1  6
 33 34  1  0
 33 35  1  0
 34 36  1  0
 35 37  1  0
 36 42  1  6
 20 21  2  0
 21 22  1  0
M  CHG  2   2  -1  26  -1
M  END
>  <COMPND>  (117) 
    8629 

>  <AUTHOR>  (117) 
    GENERATED BY OPEN BABEL 3.1.1

>  <MASTER>  (117) 
        0    0    0    0    0    0    0    0   58    0   58    0

>  <minimizedAffinity>  (117) 
-8.36468

>  <CNNscore>  (117) 
0.4629385173

>  <CNNaffinity>  (117) 
4.2652420998

>  <CNN_VS>  (117) 
1.9745448828

>  <CNNaffinity_variance>  (117) 
0.2576645017

$$$$
118
     RDKit          3D

 43 45  0  0  0  0  0  0  0  0999 V2000
   20.3901   71.2702   -1.0694 P   0  0  2  0  0  0  0  0  0  0  0  0
   18.9045   71.6461   -1.5884 O   0  0  0  0  0  0  0  0  0  0  0  0
   20.5002   69.9496   -0.3655 O   0  0  0  0  0  0  0  0  0  0  0  0
   20.8400   72.5646   -0.2091 O   0  0  0  0  0  0  0  0  0  0  0  0
   21.9975   72.4679    0.6025 C   0  0  0  0  0  0  0  0  0  0  0  0
   22.5128   71.0345    2.4609 O   0  0  0  0  0  0  0  0  0  0  0  0
   20.7873   72.8557    4.1030 O   0  0  0  0  0  0  0  0  0  0  0  0
   23.3050   73.6844    4.7442 O   0  0  0  0  0  0  0  0  0  0  0  0
   21.6644   73.1744    3.0239 C   0  0  1  0  0  0  0  0  0  0  0  0
   23.1071   73.0915    3.4769 C   0  0  2  0  0  0  0  0  0  0  0  0
   21.5853   72.0439    2.0055 C   0  0  1  0  0  0  0  0  0  0  0  0
   23.3479   71.5915    3.4891 C   0  0  2  0  0  0  0  0  0  0  0  0
   20.8204   73.5636    4.7661 H   0  0  0  0  0  0  0  0  0  0  0  0
   23.1399   74.6383    4.6844 H   0  0  0  0  0  0  0  0  0  0  0  0
   24.4989   69.0604    3.9857 O   0  0  0  0  0  0  0  0  0  0  0  0
   28.6061   70.4115    2.3899 O   0  0  0  0  0  0  0  0  0  0  0  0
   24.7158   71.2541    3.2126 N   0  0  0  0  0  0  0  0  0  0  0  0
   26.5430   69.7352    3.1906 N   0  0  0  0  0  0  0  0  0  0  0  0
   25.1947   69.9547    3.5002 C   0  0  0  0  0  0  0  0  0  0  0  0
   25.5667   72.2063    2.6620 C   0  0  0  0  0  0  0  0  0  0  0  0
   26.8503   71.9814    2.3738 C   0  0  0  0  0  0  0  0  0  0  0  0
   27.4293   70.6495    2.6437 C   0  0  0  0  0  0  0  0  0  0  0  0
   26.8987   68.8372    3.3827 H   0  0  0  0  0  0  0  0  0  0  0  0
   21.2857   71.3952   -2.4092 O   0  0  0  0  0  0  0  0  0  0  0  0
   21.2989   72.5130   -3.5768 P   0  0  2  0  0  0  0  0  0  0  0  0
   22.6066   72.1253   -4.4469 O   0  0  0  0  0  0  0  0  0  0  0  0
   21.2864   73.9277   -3.0744 O   0  0  0  0  0  0  0  0  0  0  0  0
   20.0501   72.1287   -4.5244 O   0  0  0  0  0  0  0  0  0  0  0  0
   19.4174   69.8471   -4.6259 O   0  0  0  0  0  0  0  0  0  0  0  0
   17.5313   71.2073   -8.0382 O   0  0  0  0  0  0  0  0  0  0  0  0
   15.9668   70.5346   -5.7256 O   0  0  0  0  0  0  0  0  0  0  0  0
   20.1442   72.2304   -7.3272 O   0  0  0  0  0  0  0  0  0  0  0  0
   18.0173   71.2931   -6.6958 C   0  0  1  0  0  0  0  0  0  0  0  0
   17.3430   70.1952   -5.8706 C   0  0  1  0  0  0  0  0  0  0  0  0
   19.5335   71.1073   -6.7010 C   0  0  2  0  0  0  0  0  0  0  0  0
   18.0058   70.0509   -4.4940 C   0  0  1  0  0  0  0  0  0  0  0  0
   20.0849   70.9245   -5.2859 C   0  0  1  0  0  0  0  0  0  0  0  0
   16.5692   71.3248   -8.0420 H   0  0  0  0  0  0  0  0  0  0  0  0
   15.5603   70.6232   -6.6020 H   0  0  0  0  0  0  0  0  0  0  0  0
   19.7870   72.3352   -8.2224 H   0  0  0  0  0  0  0  0  0  0  0  0
   17.8233   68.9994   -2.3563 O   0  0  0  0  0  0  0  0  0  0  0  0
   17.4537   68.8587   -3.7156 C   0  0  0  0  0  0  0  0  0  0  0  0
   17.4784   68.2477   -1.8486 H   0  0  0  0  0  0  0  0  0  0  0  0
 25 28  1  0
 25 24  1  0
 25 26  1  6
 25 27  2  0
  1  4  1  0
  1 24  1  0
  1  2  1  6
  1  3  2  0
  6 11  1  0
  6 12  1  0
 29 36  1  0
 29 37  1  0
  9  7  1  1
  7 13  1  0
 10  8  1  1
  8 14  1  0
 37 28  1  1
  4  5  1  0
 33 30  1  6
 30 38  1  0
 34 31  1  1
 31 39  1  0
 35 32  1  1
 32 40  1  0
 41 42  1  0
 41 43  1  0
 15 19  2  0
 16 22  2  0
 12 17  1  6
 17 19  1  0
 17 20  1  0
 18 19  1  0
 18 22  1  0
 18 23  1  0
  9 10  1  0
  9 11  1  0
 10 12  1  0
 11  5  1  6
 33 34  1  0
 33 35  1  0
 34 36  1  0
 35 37  1  0
 36 42  1  6
 20 21  2  0
 21 22  1  0
M  CHG  2   2  -1  26  -1
M  END
>  <COMPND>  (118) 
    8629 

>  <AUTHOR>  (118) 
    GENERATED BY OPEN BABEL 3.1.1

>  <MASTER>  (118) 
        0    0    0    0    0    0    0    0   58    0   58    0

>  <minimizedAffinity>  (118) 
-7.84061

>  <CNNscore>  (118) 
0.4278692901

>  <CNNaffinity>  (118) 
4.3638100624

>  <CNN_VS>  (118) 
1.8671402931

>  <CNNaffinity_variance>  (118) 
0.2336709201

$$$$
119
     RDKit          3D

 43 45  0  0  0  0  0  0  0  0999 V2000
   19.4951   74.2475   -2.3018 P   0  0  2  0  0  0  0  0  0  0  0  0
   19.2450   75.7369   -2.8818 O   0  0  0  0  0  0  0  0  0  0  0  0
   18.4580   73.7625   -1.3320 O   0  0  0  0  0  0  0  0  0  0  0  0
   21.0120   74.2987   -1.7412 O   0  0  0  0  0  0  0  0  0  0  0  0
   21.3476   73.4938   -0.6243 C   0  0  0  0  0  0  0  0  0  0  0  0
   23.1789   71.9729   -0.2973 O   0  0  0  0  0  0  0  0  0  0  0  0
   21.5863   70.0044   -1.9034 O   0  0  0  0  0  0  0  0  0  0  0  0
   21.1498   69.1738    0.6571 O   0  0  0  0  0  0  0  0  0  0  0  0
   21.1335   70.9820   -0.9682 C   0  0  1  0  0  0  0  0  0  0  0  0
   21.4441   70.5398    0.4466 C   0  0  2  0  0  0  0  0  0  0  0  0
   22.0142   72.2164   -1.1162 C   0  0  1  0  0  0  0  0  0  0  0  0
   22.9295   70.8408    0.5518 C   0  0  2  0  0  0  0  0  0  0  0  0
   21.0386   69.2068   -1.8278 H   0  0  0  0  0  0  0  0  0  0  0  0
   20.1932   69.0334    0.5799 H   0  0  0  0  0  0  0  0  0  0  0  0
   23.9090   68.9668    2.4245 O   0  0  0  0  0  0  0  0  0  0  0  0
   24.4294   72.2024    5.6651 O   0  0  0  0  0  0  0  0  0  0  0  0
   23.3287   71.1661    1.8920 N   0  0  0  0  0  0  0  0  0  0  0  0
   24.1675   70.5794    4.0365 N   0  0  0  0  0  0  0  0  0  0  0  0
   23.8059   70.1505    2.7530 C   0  0  0  0  0  0  0  0  0  0  0  0
   23.2455   72.4799    2.3403 C   0  0  0  0  0  0  0  0  0  0  0  0
   23.5931   72.8723    3.5677 C   0  0  0  0  0  0  0  0  0  0  0  0
   24.1017   71.8731    4.5293 C   0  0  0  0  0  0  0  0  0  0  0  0
   24.5024   69.8891    4.6538 H   0  0  0  0  0  0  0  0  0  0  0  0
   19.6331   73.3540   -3.6419 O   0  0  0  0  0  0  0  0  0  0  0  0
   20.7970   73.2929   -4.7619 P   0  0  2  0  0  0  0  0  0  0  0  0
   21.7647   72.1117   -4.2272 O   0  0  0  0  0  0  0  0  0  0  0  0
   21.4916   74.6025   -4.9996 O   0  0  0  0  0  0  0  0  0  0  0  0
   20.0771   72.6713   -6.0658 O   0  0  0  0  0  0  0  0  0  0  0  0
   18.9476   70.6610   -5.5184 O   0  0  0  0  0  0  0  0  0  0  0  0
   18.5442   70.5469   -9.6263 O   0  0  0  0  0  0  0  0  0  0  0  0
   16.2571   71.1377   -7.9929 O   0  0  0  0  0  0  0  0  0  0  0  0
   21.0062   71.5053   -8.4432 O   0  0  0  0  0  0  0  0  0  0  0  0
   18.6231   71.1705   -8.3417 C   0  0  1  0  0  0  0  0  0  0  0  0
   17.4838   70.6300   -7.4754 C   0  0  1  0  0  0  0  0  0  0  0  0
   19.9770   70.8474   -7.7123 C   0  0  2  0  0  0  0  0  0  0  0  0
   17.6578   71.0460   -6.0085 C   0  0  1  0  0  0  0  0  0  0  0  0
   20.0274   71.2576   -6.2394 C   0  0  1  0  0  0  0  0  0  0  0  0
   17.6871   70.7486  -10.0316 H   0  0  0  0  0  0  0  0  0  0  0  0
   16.1597   70.8684   -8.9198 H   0  0  0  0  0  0  0  0  0  0  0  0
   20.9638   71.2371   -9.3739 H   0  0  0  0  0  0  0  0  0  0  0  0
   15.9292   69.4044   -5.8475 O   0  0  0  0  0  0  0  0  0  0  0  0
   16.6210   70.3881   -5.1006 C   0  0  0  0  0  0  0  0  0  0  0  0
   15.2661   68.9771   -5.2823 H   0  0  0  0  0  0  0  0  0  0  0  0
 25 28  1  0
 25 24  1  0
 25 26  1  1
 25 27  2  0
  1  4  1  0
  1 24  1  0
  1  2  1  6
  1  3  2  0
  6 11  1  0
  6 12  1  0
 29 36  1  0
 29 37  1  0
  9  7  1  6
  7 13  1  0
 10  8  1  6
  8 14  1  0
 37 28  1  6
  4  5  1  0
 33 30  1  6
 30 38  1  0
 34 31  1  6
 31 39  1  0
 35 32  1  6
 32 40  1  0
 41 42  1  0
 41 43  1  0
 15 19  2  0
 16 22  2  0
 12 17  1  1
 17 19  1  0
 17 20  1  0
 18 19  1  0
 18 22  1  0
 18 23  1  0
  9 10  1  0
  9 11  1  0
 10 12  1  0
 11  5  1  1
 33 34  1  0
 33 35  1  0
 34 36  1  0
 35 37  1  0
 36 42  1  1
 20 21  2  0
 21 22  1  0
M  CHG  2   2  -1  26  -1
M  END
>  <COMPND>  (119) 
    8629 

>  <AUTHOR>  (119) 
    GENERATED BY OPEN BABEL 3.1.1

>  <MASTER>  (119) 
        0    0    0    0    0    0    0    0   58    0   58    0

>  <minimizedAffinity>  (119) 
-8.42552

>  <CNNscore>  (119) 
0.4042488337

>  <CNNaffinity>  (119) 
4.2036080360

>  <CNN_VS>  (119) 
1.6993036270

>  <CNNaffinity_variance>  (119) 
0.2205622643

$$$$
120
     RDKit          3D

 43 45  0  0  0  0  0  0  0  0999 V2000
   21.6732   70.2729    0.2643 P   0  0  2  0  0  0  0  0  0  0  0  0
   22.3450   68.9789   -0.4370 O   0  0  0  0  0  0  0  0  0  0  0  0
   22.1786   71.5960   -0.2308 O   0  0  0  0  0  0  0  0  0  0  0  0
   21.8599   69.9972    1.8477 O   0  0  0  0  0  0  0  0  0  0  0  0
   23.1512   70.1451    2.4120 C   0  0  0  0  0  0  0  0  0  0  0  0
   24.2841   70.6713    4.4647 O   0  0  0  0  0  0  0  0  0  0  0  0
   22.1389   72.7194    4.9055 O   0  0  0  0  0  0  0  0  0  0  0  0
   24.2238   74.2273    4.0022 O   0  0  0  0  0  0  0  0  0  0  0  0
   22.7603   72.3114    3.6878 C   0  0  1  0  0  0  0  0  0  0  0  0
   24.1635   72.8742    3.5992 C   0  0  2  0  0  0  0  0  0  0  0  0
   23.0234   70.8132    3.7742 C   0  0  1  0  0  0  0  0  0  0  0  0
   24.9322   71.9521    4.5303 C   0  0  2  0  0  0  0  0  0  0  0  0
   21.9607   73.6729    4.8737 H   0  0  0  0  0  0  0  0  0  0  0  0
   23.7201   74.7733    3.3785 H   0  0  0  0  0  0  0  0  0  0  0  0
   27.0288   73.6432    5.3800 O   0  0  0  0  0  0  0  0  0  0  0  0
   30.1618   71.2756    2.9676 O   0  0  0  0  0  0  0  0  0  0  0  0
   26.3055   71.8004    4.1400 N   0  0  0  0  0  0  0  0  0  0  0  0
   28.5871   72.4629    4.1783 N   0  0  0  0  0  0  0  0  0  0  0  0
   27.2807   72.7042    4.6221 C   0  0  0  0  0  0  0  0  0  0  0  0
   26.6735   70.7643    3.2886 C   0  0  0  0  0  0  0  0  0  0  0  0
   27.9235   70.5485    2.8737 C   0  0  0  0  0  0  0  0  0  0  0  0
   29.0025   71.4476    3.3313 C   0  0  0  0  0  0  0  0  0  0  0  0
   29.2833   73.0801    4.5009 H   0  0  0  0  0  0  0  0  0  0  0  0
   20.0914   70.0292    0.0371 O   0  0  0  0  0  0  0  0  0  0  0  0
   19.0577   70.6828   -1.0199 P   0  0  2  0  0  0  0  0  0  0  0  0
   18.1003   71.5945   -0.0873 O   0  0  0  0  0  0  0  0  0  0  0  0
   18.3264   69.6807   -1.8653 O   0  0  0  0  0  0  0  0  0  0  0  0
   19.9430   71.7431   -1.8547 O   0  0  0  0  0  0  0  0  0  0  0  0
   19.5665   72.8522   -3.9150 O   0  0  0  0  0  0  0  0  0  0  0  0
   23.5963   72.0496   -4.3245 O   0  0  0  0  0  0  0  0  0  0  0  0
   22.7302   74.7424   -3.8280 O   0  0  0  0  0  0  0  0  0  0  0  0
   21.8538   70.0977   -3.0863 O   0  0  0  0  0  0  0  0  0  0  0  0
   22.3996   72.3831   -3.6159 C   0  0  1  0  0  0  0  0  0  0  0  0
   21.8466   73.6866   -4.1953 C   0  0  1  0  0  0  0  0  0  0  0  0
   21.3891   71.2496   -3.7817 C   0  0  2  0  0  0  0  0  0  0  0  0
   20.4312   73.9683   -3.6734 C   0  0  1  0  0  0  0  0  0  0  0  0
   20.0023   71.6508   -3.2757 C   0  0  1  0  0  0  0  0  0  0  0  0
   24.2423   72.7650   -4.2228 H   0  0  0  0  0  0  0  0  0  0  0  0
   23.6205   74.5520   -4.1631 H   0  0  0  0  0  0  0  0  0  0  0  0
   22.7322   69.8537   -3.4159 H   0  0  0  0  0  0  0  0  0  0  0  0
   20.2916   76.3527   -3.7390 O   0  0  0  0  0  0  0  0  0  0  0  0
   19.7995   75.1784   -4.3581 C   0  0  0  0  0  0  0  0  0  0  0  0
   19.8983   77.1310   -4.1648 H   0  0  0  0  0  0  0  0  0  0  0  0
 25 28  1  0
 25 24  1  0
 25 26  1  1
 25 27  2  0
  1  4  1  0
  1 24  1  0
  1  2  1  6
  1  3  2  0
  6 11  1  0
  6 12  1  0
 29 36  1  0
 29 37  1  0
  9  7  1  1
  7 13  1  0
 10  8  1  1
  8 14  1  0
 37 28  1  1
  4  5  1  0
 33 30  1  6
 30 38  1  0
 34 31  1  1
 31 39  1  0
 35 32  1  1
 32 40  1  0
 41 42  1  0
 41 43  1  0
 15 19  2  0
 16 22  2  0
 12 17  1  6
 17 19  1  0
 17 20  1  0
 18 19  1  0
 18 22  1  0
 18 23  1  0
  9 10  1  0
  9 11  1  0
 10 12  1  0
 11  5  1  6
 33 34  1  0
 33 35  1  0
 34 36  1  0
 35 37  1  0
 36 42  1  6
 20 21  2  0
 21 22  1  0
M  CHG  2   2  -1  26  -1
M  END
>  <COMPND>  (120) 
    8629 

>  <AUTHOR>  (120) 
    GENERATED BY OPEN BABEL 3.1.1

>  <MASTER>  (120) 
        0    0    0    0    0    0    0    0   58    0   58    0

>  <minimizedAffinity>  (120) 
-8.51259

>  <CNNscore>  (120) 
0.4008252323

>  <CNNaffinity>  (120) 
4.4673547745

>  <CNN_VS>  (120) 
1.7906285524

>  <CNNaffinity_variance>  (120) 
0.0075062797

$$$$
121
     RDKit          3D

 43 45  0  0  0  0  0  0  0  0999 V2000
   21.7664   72.0367   -1.3257 P   0  0  2  0  0  0  0  0  0  0  0  0
   20.8329   72.2356   -0.0194 O   0  0  0  0  0  0  0  0  0  0  0  0
   22.9086   73.0028   -1.4415 O   0  0  0  0  0  0  0  0  0  0  0  0
   20.7169   72.0387   -2.5571 O   0  0  0  0  0  0  0  0  0  0  0  0
   19.9196   70.8864   -2.7678 C   0  0  0  0  0  0  0  0  0  0  0  0
   18.1843   71.9022   -4.0834 O   0  0  0  0  0  0  0  0  0  0  0  0
   16.2510   70.6100   -2.1904 O   0  0  0  0  0  0  0  0  0  0  0  0
   16.1672   68.9489   -4.3515 O   0  0  0  0  0  0  0  0  0  0  0  0
   17.4957   70.1179   -2.6842 C   0  0  1  0  0  0  0  0  0  0  0  0
   17.3537   69.6831   -4.1280 C   0  0  2  0  0  0  0  0  0  0  0  0
   18.4538   71.2969   -2.7999 C   0  0  1  0  0  0  0  0  0  0  0  0
   17.3644   71.0141   -4.8604 C   0  0  2  0  0  0  0  0  0  0  0  0
   15.6227   69.8749   -2.1078 H   0  0  0  0  0  0  0  0  0  0  0  0
   16.2086   68.1110   -3.8648 H   0  0  0  0  0  0  0  0  0  0  0  0
   15.8973   70.2260   -7.1418 O   0  0  0  0  0  0  0  0  0  0  0  0
   19.5817   70.6392   -9.8796 O   0  0  0  0  0  0  0  0  0  0  0  0
   17.9152   70.9075   -6.1820 N   0  0  0  0  0  0  0  0  0  0  0  0
   17.7330   70.4326   -8.5032 N   0  0  0  0  0  0  0  0  0  0  0  0
   17.0930   70.5020   -7.2591 C   0  0  0  0  0  0  0  0  0  0  0  0
   19.2563   71.2037   -6.3999 C   0  0  0  0  0  0  0  0  0  0  0  0
   19.8517   71.1313   -7.5921 C   0  0  0  0  0  0  0  0  0  0  0  0
   19.0632   70.7156   -8.7700 C   0  0  0  0  0  0  0  0  0  0  0  0
   17.1801   70.1520   -9.2682 H   0  0  0  0  0  0  0  0  0  0  0  0
   22.2059   70.4844   -1.2254 O   0  0  0  0  0  0  0  0  0  0  0  0
   22.3723   69.5086    0.0526 P   0  0  2  0  0  0  0  0  0  0  0  0
   23.1246   68.2155   -0.5634 O   0  0  0  0  0  0  0  0  0  0  0  0
   21.0857   69.1975    0.7609 O   0  0  0  0  0  0  0  0  0  0  0  0
   23.4858   70.2278    0.9734 O   0  0  0  0  0  0  0  0  0  0  0  0
   24.9024   69.5957    2.7651 O   0  0  0  0  0  0  0  0  0  0  0  0
   23.4251   73.1298    4.3073 O   0  0  0  0  0  0  0  0  0  0  0  0
   26.1447   73.0092    3.3925 O   0  0  0  0  0  0  0  0  0  0  0  0
   21.6874   71.3756    2.7964 O   0  0  0  0  0  0  0  0  0  0  0  0
   23.8805   72.2467    3.2787 C   0  0  1  0  0  0  0  0  0  0  0  0
   25.3279   71.8579    3.5866 C   0  0  1  0  0  0  0  0  0  0  0  0
   22.9856   71.0091    3.2509 C   0  0  2  0  0  0  0  0  0  0  0  0
   25.7977   70.7107    2.6820 C   0  0  1  0  0  0  0  0  0  0  0  0
   23.5686   69.9104    2.3603 C   0  0  1  0  0  0  0  0  0  0  0  0
   23.9888   73.9180    4.3299 H   0  0  0  0  0  0  0  0  0  0  0  0
   25.8372   73.7262    3.9690 H   0  0  0  0  0  0  0  0  0  0  0  0
   21.3291   72.0715    3.3685 H   0  0  0  0  0  0  0  0  0  0  0  0
   27.6654   70.9952    4.1448 O   0  0  0  0  0  0  0  0  0  0  0  0
   27.1822   70.2014    3.0768 C   0  0  0  0  0  0  0  0  0  0  0  0
   28.5458   70.6824    4.4069 H   0  0  0  0  0  0  0  0  0  0  0  0
 25 28  1  0
 25 24  1  0
 25 26  1  6
 25 27  2  0
  1  4  1  0
  1 24  1  0
  1  2  1  1
  1  3  2  0
  6 11  1  0
  6 12  1  0
 29 36  1  0
 29 37  1  0
  9  7  1  6
  7 13  1  0
 10  8  1  1
  8 14  1  0
 37 28  1  6
  4  5  1  0
 33 30  1  1
 30 38  1  0
 34 31  1  6
 31 39  1  0
 35 32  1  6
 32 40  1  0
 41 42  1  0
 41 43  1  0
 15 19  2  0
 16 22  2  0
 12 17  1  6
 17 19  1  0
 17 20  1  0
 18 19  1  0
 18 22  1  0
 18 23  1  0
  9 10  1  0
  9 11  1  0
 10 12  1  0
 11  5  1  6
 33 34  1  0
 33 35  1  0
 34 36  1  0
 35 37  1  0
 36 42  1  1
 20 21  2  0
 21 22  1  0
M  CHG  2   2  -1  26  -1
M  END
>  <COMPND>  (121) 
    8629 

>  <AUTHOR>  (121) 
    GENERATED BY OPEN BABEL 3.1.1

>  <MASTER>  (121) 
        0    0    0    0    0    0    0    0   58    0   58    0

>  <minimizedAffinity>  (121) 
-9.10935

>  <CNNscore>  (121) 
0.7985277176

>  <CNNaffinity>  (121) 
4.8901343346

>  <CNN_VS>  (121) 
3.9049077034

>  <CNNaffinity_variance>  (121) 
0.2717023790

$$$$
122
     RDKit          3D

 43 45  0  0  0  0  0  0  0  0999 V2000
   20.8169   70.3333    0.0689 P   0  0  2  0  0  0  0  0  0  0  0  0
   19.2480   70.7279    0.0555 O   0  0  0  0  0  0  0  0  0  0  0  0
   21.1342   69.0186    0.7188 O   0  0  0  0  0  0  0  0  0  0  0  0
   21.5378   71.6291    0.7162 O   0  0  0  0  0  0  0  0  0  0  0  0
   22.7824   71.4540    1.3707 C   0  0  0  0  0  0  0  0  0  0  0  0
   23.6875   70.7570    3.4846 O   0  0  0  0  0  0  0  0  0  0  0  0
   21.7283   72.6508    4.7360 O   0  0  0  0  0  0  0  0  0  0  0  0
   24.0585   74.0649    4.8200 O   0  0  0  0  0  0  0  0  0  0  0  0
   22.4567   72.7819    3.5164 C   0  0  1  0  0  0  0  0  0  0  0  0
   23.9105   73.0949    3.8032 C   0  0  2  0  0  0  0  0  0  0  0  0
   22.5489   71.4032    2.8744 C   0  0  1  0  0  0  0  0  0  0  0  0
   24.4514   71.7346    4.2097 C   0  0  2  0  0  0  0  0  0  0  0  0
   21.6561   73.5188    5.1642 H   0  0  0  0  0  0  0  0  0  0  0  0
   23.6997   74.9122    4.5134 H   0  0  0  0  0  0  0  0  0  0  0  0
   26.5817   72.7448    5.7650 O   0  0  0  0  0  0  0  0  0  0  0  0
   29.7407   71.0725    2.8556 O   0  0  0  0  0  0  0  0  0  0  0  0
   25.8404   71.5774    3.8823 N   0  0  0  0  0  0  0  0  0  0  0  0
   28.1529   71.9111    4.3152 N   0  0  0  0  0  0  0  0  0  0  0  0
   26.8320   72.1240    4.7299 C   0  0  0  0  0  0  0  0  0  0  0  0
   26.2075   70.8874    2.7321 C   0  0  0  0  0  0  0  0  0  0  0  0
   27.4716   70.6942    2.3500 C   0  0  0  0  0  0  0  0  0  0  0  0
   28.5682   71.2333    3.1799 C   0  0  0  0  0  0  0  0  0  0  0  0
   28.8607   72.2833    4.8899 H   0  0  0  0  0  0  0  0  0  0  0  0
   21.2293   70.4294   -1.4911 O   0  0  0  0  0  0  0  0  0  0  0  0
   20.8175   71.4956   -2.6342 P   0  0  2  0  0  0  0  0  0  0  0  0
   22.0698   71.4450   -3.6572 O   0  0  0  0  0  0  0  0  0  0  0  0
   20.5002   72.8667   -2.1112 O   0  0  0  0  0  0  0  0  0  0  0  0
   19.6078   70.7888   -3.4353 O   0  0  0  0  0  0  0  0  0  0  0  0
   17.8495   72.1313   -4.2856 O   0  0  0  0  0  0  0  0  0  0  0  0
   15.9315   68.4747   -4.2537 O   0  0  0  0  0  0  0  0  0  0  0  0
   16.7269   69.6368   -6.7567 O   0  0  0  0  0  0  0  0  0  0  0  0
   17.7366   69.1772   -2.1025 O   0  0  0  0  0  0  0  0  0  0  0  0
   17.0438   69.3613   -4.4020 C   0  0  1  0  0  0  0  0  0  0  0  0
   16.7222   70.3509   -5.5236 C   0  0  1  0  0  0  0  0  0  0  0  0
   17.2737   70.0985   -3.0840 C   0  0  2  0  0  0  0  0  0  0  0  0
   17.7453   71.4939   -5.5642 C   0  0  1  0  0  0  0  0  0  0  0  0
   18.2715   71.2467   -3.2457 C   0  0  1  0  0  0  0  0  0  0  0  0
   15.7805   68.0031   -5.0869 H   0  0  0  0  0  0  0  0  0  0  0  0
   16.0769   68.9176   -6.7177 H   0  0  0  0  0  0  0  0  0  0  0  0
   17.0962   68.4554   -2.0093 H   0  0  0  0  0  0  0  0  0  0  0  0
   17.6824   72.1164   -7.8701 O   0  0  0  0  0  0  0  0  0  0  0  0
   17.3562   72.5744   -6.5708 C   0  0  0  0  0  0  0  0  0  0  0  0
   17.4400   72.7938   -8.5213 H   0  0  0  0  0  0  0  0  0  0  0  0
 25 28  1  0
 25 24  1  0
 25 26  1  6
 25 27  2  0
  1  4  1  0
  1 24  1  0
  1  2  1  6
  1  3  2  0
  6 11  1  0
  6 12  1  0
 29 36  1  0
 29 37  1  0
  9  7  1  1
  7 13  1  0
 10  8  1  1
  8 14  1  0
 37 28  1  6
  4  5  1  0
 33 30  1  1
 30 38  1  0
 34 31  1  6
 31 39  1  0
 35 32  1  1
 32 40  1  0
 41 42  1  0
 41 43  1  0
 15 19  2  0
 16 22  2  0
 12 17  1  6
 17 19  1  0
 17 20  1  0
 18 19  1  0
 18 22  1  0
 18 23  1  0
  9 10  1  0
  9 11  1  0
 10 12  1  0
 11  5  1  6
 33 34  1  0
 33 35  1  0
 34 36  1  0
 35 37  1  0
 36 42  1  6
 20 21  2  0
 21 22  1  0
M  CHG  2   2  -1  26  -1
M  END
>  <COMPND>  (122) 
    8629 

>  <AUTHOR>  (122) 
    GENERATED BY OPEN BABEL 3.1.1

>  <MASTER>  (122) 
        0    0    0    0    0    0    0    0   58    0   58    0

>  <minimizedAffinity>  (122) 
-8.63793

>  <CNNscore>  (122) 
0.7723457813

>  <CNNaffinity>  (122) 
4.6778993607

>  <CNN_VS>  (122) 
3.6129558086

>  <CNNaffinity_variance>  (122) 
0.1203056574

$$$$
123
     RDKit          3D

 43 45  0  0  0  0  0  0  0  0999 V2000
   22.2327   70.1481    0.8087 P   0  0  2  0  0  0  0  0  0  0  0  0
   21.0552   69.0448    0.6908 O   0  0  0  0  0  0  0  0  0  0  0  0
   22.6725   70.7473   -0.4947 O   0  0  0  0  0  0  0  0  0  0  0  0
   23.3847   69.3970    1.6611 O   0  0  0  0  0  0  0  0  0  0  0  0
   24.6315   70.0481    1.8330 C   0  0  0  0  0  0  0  0  0  0  0  0
   26.3426   70.1173    3.5185 O   0  0  0  0  0  0  0  0  0  0  0  0
   24.2836   71.3862    5.2909 O   0  0  0  0  0  0  0  0  0  0  0  0
   25.7634   73.5257    4.4728 O   0  0  0  0  0  0  0  0  0  0  0  0
   24.4852   71.5421    3.8872 C   0  0  1  0  0  0  0  0  0  0  0  0
   25.7064   72.3979    3.6233 C   0  0  2  0  0  0  0  0  0  0  0  0
   24.9137   70.1936    3.3221 C   0  0  1  0  0  0  0  0  0  0  0  0
   26.8390   71.4174    3.8765 C   0  0  2  0  0  0  0  0  0  0  0  0
   24.0090   72.2345    5.6742 H   0  0  0  0  0  0  0  0  0  0  0  0
   25.0225   74.1189    4.2729 H   0  0  0  0  0  0  0  0  0  0  0  0
   28.7441   73.4053    4.5066 O   0  0  0  0  0  0  0  0  0  0  0  0
   31.2578   72.4410    0.7659 O   0  0  0  0  0  0  0  0  0  0  0  0
   28.0013   71.7070    3.0849 N   0  0  0  0  0  0  0  0  0  0  0  0
   29.9943   72.9234    2.6436 N   0  0  0  0  0  0  0  0  0  0  0  0
   28.8950   72.7261    3.4889 C   0  0  0  0  0  0  0  0  0  0  0  0
   28.2458   70.9839    1.9225 C   0  0  0  0  0  0  0  0  0  0  0  0
   29.2981   71.1853    1.1266 C   0  0  0  0  0  0  0  0  0  0  0  0
   30.2800   72.2316    1.4772 C   0  0  0  0  0  0  0  0  0  0  0  0
   30.6302   73.6285    2.9048 H   0  0  0  0  0  0  0  0  0  0  0  0
   21.6308   71.2101    1.8683 O   0  0  0  0  0  0  0  0  0  0  0  0
   20.4763   72.3303    1.7092 P   0  0  2  0  0  0  0  0  0  0  0  0
   21.1757   73.4544    0.7791 O   0  0  0  0  0  0  0  0  0  0  0  0
   19.9398   72.8503    3.0114 O   0  0  0  0  0  0  0  0  0  0  0  0
   19.3694   71.6437    0.7561 O   0  0  0  0  0  0  0  0  0  0  0  0
   19.5438   72.1327   -1.5562 O   0  0  0  0  0  0  0  0  0  0  0  0
   15.7001   70.6252   -1.4886 O   0  0  0  0  0  0  0  0  0  0  0  0
   17.8145   69.0661   -2.6492 O   0  0  0  0  0  0  0  0  0  0  0  0
   16.6384   72.2857    0.6890 O   0  0  0  0  0  0  0  0  0  0  0  0
   17.0701   70.7191   -1.0889 C   0  0  1  0  0  0  0  0  0  0  0  0
   17.9466   70.4444   -2.3125 C   0  0  1  0  0  0  0  0  0  0  0  0
   17.3353   72.1202   -0.5412 C   0  0  2  0  0  0  0  0  0  0  0  0
   19.4155   70.7870   -2.0298 C   0  0  1  0  0  0  0  0  0  0  0  0
   18.8305   72.3751   -0.3420 C   0  0  1  0  0  0  0  0  0  0  0  0
   15.5250   69.7378   -1.8369 H   0  0  0  0  0  0  0  0  0  0  0  0
   16.8823   68.8628   -2.8248 H   0  0  0  0  0  0  0  0  0  0  0  0
   15.6931   72.1219    0.5495 H   0  0  0  0  0  0  0  0  0  0  0  0
   21.3962   69.8510   -2.9836 O   0  0  0  0  0  0  0  0  0  0  0  0
   20.2812   70.6705   -3.2825 C   0  0  0  0  0  0  0  0  0  0  0  0
   21.9561   69.7677   -3.7719 H   0  0  0  0  0  0  0  0  0  0  0  0
 25 28  1  0
 25 24  1  0
 25 26  1  6
 25 27  2  0
  1  4  1  0
  1 24  1  0
  1  2  1  6
  1  3  2  0
  6 11  1  0
  6 12  1  0
 29 36  1  0
 29 37  1  0
  9  7  1  1
  7 13  1  0
 10  8  1  1
  8 14  1  0
 37 28  1  1
  4  5  1  0
 33 30  1  6
 30 38  1  0
 34 31  1  1
 31 39  1  0
 35 32  1  1
 32 40  1  0
 41 42  1  0
 41 43  1  0
 15 19  2  0
 16 22  2  0
 12 17  1  6
 17 19  1  0
 17 20  1  0
 18 19  1  0
 18 22  1  0
 18 23  1  0
  9 10  1  0
  9 11  1  0
 10 12  1  0
 11  5  1  6
 33 34  1  0
 33 35  1  0
 34 36  1  0
 35 37  1  0
 36 42  1  6
 20 21  2  0
 21 22  1  0
M  CHG  2   2  -1  26  -1
M  END
>  <COMPND>  (123) 
    8629 

>  <AUTHOR>  (123) 
    GENERATED BY OPEN BABEL 3.1.1

>  <MASTER>  (123) 
        0    0    0    0    0    0    0    0   58    0   58    0

>  <minimizedAffinity>  (123) 
-8.07368

>  <CNNscore>  (123) 
0.7318888903

>  <CNNaffinity>  (123) 
4.6271882057

>  <CNN_VS>  (123) 
3.3865876198

>  <CNNaffinity_variance>  (123) 
0.0126963910

$$$$
124
     RDKit          3D

 43 45  0  0  0  0  0  0  0  0999 V2000
   20.1459   71.2543   -1.0133 P   0  0  2  0  0  0  0  0  0  0  0  0
   20.8491   71.3760   -2.4653 O   0  0  0  0  0  0  0  0  0  0  0  0
   20.1570   69.8774   -0.4172 O   0  0  0  0  0  0  0  0  0  0  0  0
   18.6846   71.9131   -1.2330 O   0  0  0  0  0  0  0  0  0  0  0  0
   18.4347   72.6181   -2.4365 C   0  0  0  0  0  0  0  0  0  0  0  0
   16.9206   72.5270   -4.3001 O   0  0  0  0  0  0  0  0  0  0  0  0
   15.0895   70.9828   -2.4964 O   0  0  0  0  0  0  0  0  0  0  0  0
   16.2195   69.0211   -4.0168 O   0  0  0  0  0  0  0  0  0  0  0  0
   16.5138   70.9555   -2.5736 C   0  0  1  0  0  0  0  0  0  0  0  0
   16.9590   70.2079   -3.8132 C   0  0  2  0  0  0  0  0  0  0  0  0
   16.9950   72.3712   -2.8660 C   0  0  1  0  0  0  0  0  0  0  0  0
   16.7230   71.2383   -4.9044 C   0  0  2  0  0  0  0  0  0  0  0  0
   14.7588   70.0896   -2.3100 H   0  0  0  0  0  0  0  0  0  0  0  0
   16.4036   68.3977   -3.2969 H   0  0  0  0  0  0  0  0  0  0  0  0
   15.9432   70.7890   -7.5817 O   0  0  0  0  0  0  0  0  0  0  0  0
   20.3168   70.6945   -9.0321 O   0  0  0  0  0  0  0  0  0  0  0  0
   17.6371   71.0928   -6.0019 N   0  0  0  0  0  0  0  0  0  0  0  0
   18.1215   70.7425   -8.3017 N   0  0  0  0  0  0  0  0  0  0  0  0
   17.1425   70.8690   -7.3080 C   0  0  0  0  0  0  0  0  0  0  0  0
   19.0072   71.1727   -5.7779 C   0  0  0  0  0  0  0  0  0  0  0  0
   19.9278   71.0486   -6.7362 C   0  0  0  0  0  0  0  0  0  0  0  0
   19.4948   70.8130   -8.1287 C   0  0  0  0  0  0  0  0  0  0  0  0
   17.8004   70.5857   -9.2194 H   0  0  0  0  0  0  0  0  0  0  0  0
   20.9207   72.3719   -0.1395 O   0  0  0  0  0  0  0  0  0  0  0  0
   20.7296   72.8389    1.3963 P   0  0  2  0  0  0  0  0  0  0  0  0
   19.7476   71.7083    2.0084 O   0  0  0  0  0  0  0  0  0  0  0  0
   20.2289   74.2454    1.5540 O   0  0  0  0  0  0  0  0  0  0  0  0
   22.1592   72.5561    2.0900 O   0  0  0  0  0  0  0  0  0  0  0  0
   24.4234   72.7403    1.4148 O   0  0  0  0  0  0  0  0  0  0  0  0
   24.5764   69.0360    3.2330 O   0  0  0  0  0  0  0  0  0  0  0  0
   25.7878   71.2990    4.5212 O   0  0  0  0  0  0  0  0  0  0  0  0
   22.2567   69.7831    1.6708 O   0  0  0  0  0  0  0  0  0  0  0  0
   24.1320   70.3840    3.0577 C   0  0  1  0  0  0  0  0  0  0  0  0
   25.3470   71.3075    3.1663 C   0  0  1  0  0  0  0  0  0  0  0  0
   23.4754   70.5186    1.6850 C   0  0  2  0  0  0  0  0  0  0  0  0
   24.9982   72.7359    2.7268 C   0  0  1  0  0  0  0  0  0  0  0  0
   23.2155   71.9823    1.3243 C   0  0  1  0  0  0  0  0  0  0  0  0
   24.9939   68.9437    4.1029 H   0  0  0  0  0  0  0  0  0  0  0  0
   26.0044   70.3912    4.7863 H   0  0  0  0  0  0  0  0  0  0  0  0
   22.4347   68.8581    1.9004 H   0  0  0  0  0  0  0  0  0  0  0  0
   27.3806   72.8176    2.5642 O   0  0  0  0  0  0  0  0  0  0  0  0
   26.2309   73.6360    2.6768 C   0  0  0  0  0  0  0  0  0  0  0  0
   28.1729   73.3769    2.5310 H   0  0  0  0  0  0  0  0  0  0  0  0
 25 28  1  0
 25 24  1  0
 25 26  1  1
 25 27  2  0
  1  4  1  0
  1 24  1  0
  1  2  1  6
  1  3  2  0
  6 11  1  0
  6 12  1  0
 29 36  1  0
 29 37  1  0
  9  7  1  6
  7 13  1  0
 10  8  1  6
  8 14  1  0
 37 28  1  1
  4  5  1  0
 33 30  1  6
 30 38  1  0
 34 31  1  1
 31 39  1  0
 35 32  1  1
 32 40  1  0
 41 42  1  0
 41 43  1  0
 15 19  2  0
 16 22  2  0
 12 17  1  6
 17 19  1  0
 17 20  1  0
 18 19  1  0
 18 22  1  0
 18 23  1  0
  9 10  1  0
  9 11  1  0
 10 12  1  0
 11  5  1  6
 33 34  1  0
 33 35  1  0
 34 36  1  0
 35 37  1  0
 36 42  1  6
 20 21  2  0
 21 22  1  0
M  CHG  2   2  -1  26  -1
M  END
>  <COMPND>  (124) 
    8629 

>  <AUTHOR>  (124) 
    GENERATED BY OPEN BABEL 3.1.1

>  <MASTER>  (124) 
        0    0    0    0    0    0    0    0   58    0   58    0

>  <minimizedAffinity>  (124) 
-7.73418

>  <CNNscore>  (124) 
0.7003210783

>  <CNNaffinity>  (124) 
4.7876558304

>  <CNN_VS>  (124) 
3.3528962135

>  <CNNaffinity_variance>  (124) 
0.0390454456

$$$$
125
     RDKit          3D

 43 45  0  0  0  0  0  0  0  0999 V2000
   20.7624   70.7185    0.3447 P   0  0  2  0  0  0  0  0  0  0  0  0
   19.7706   71.4506    1.3925 O   0  0  0  0  0  0  0  0  0  0  0  0
   20.9533   69.2480    0.5742 O   0  0  0  0  0  0  0  0  0  0  0  0
   22.1071   71.6171    0.3899 O   0  0  0  0  0  0  0  0  0  0  0  0
   23.2367   71.1094    1.0784 C   0  0  0  0  0  0  0  0  0  0  0  0
   24.0745   70.5007    3.2467 O   0  0  0  0  0  0  0  0  0  0  0  0
   21.9167   72.2559    4.3665 O   0  0  0  0  0  0  0  0  0  0  0  0
   24.1290   73.8390    4.5563 O   0  0  0  0  0  0  0  0  0  0  0  0
   22.6987   72.4292    3.1860 C   0  0  1  0  0  0  0  0  0  0  0  0
   24.1079   72.8514    3.5459 C   0  0  2  0  0  0  0  0  0  0  0  0
   22.9264   71.0553    2.5680 C   0  0  1  0  0  0  0  0  0  0  0  0
   24.7242   71.5386    3.9986 C   0  0  2  0  0  0  0  0  0  0  0  0
   21.7579   73.1201    4.7788 H   0  0  0  0  0  0  0  0  0  0  0  0
   23.7262   74.6547    4.2199 H   0  0  0  0  0  0  0  0  0  0  0  0
   26.6947   72.5996    5.7217 O   0  0  0  0  0  0  0  0  0  0  0  0
   30.1131   71.2631    2.9343 O   0  0  0  0  0  0  0  0  0  0  0  0
   26.1367   71.4816    3.7480 N   0  0  0  0  0  0  0  0  0  0  0  0
   28.3952   71.9331    4.3325 N   0  0  0  0  0  0  0  0  0  0  0  0
   27.0421   72.0456    4.6767 C   0  0  0  0  0  0  0  0  0  0  0  0
   26.6113   70.8711    2.5921 C   0  0  0  0  0  0  0  0  0  0  0  0
   27.9048   70.7733    2.2779 C   0  0  0  0  0  0  0  0  0  0  0  0
   28.9163   71.3370    3.1950 C   0  0  0  0  0  0  0  0  0  0  0  0
   29.0443   72.3192    4.9644 H   0  0  0  0  0  0  0  0  0  0  0  0
   20.1201   71.0977   -1.0894 O   0  0  0  0  0  0  0  0  0  0  0  0
   18.6057   70.9724   -1.6408 P   0  0  2  0  0  0  0  0  0  0  0  0
   17.8275   72.1567   -0.8602 O   0  0  0  0  0  0  0  0  0  0  0  0
   17.9976   69.6111   -1.4653 O   0  0  0  0  0  0  0  0  0  0  0  0
   18.6854   71.4771   -3.1718 O   0  0  0  0  0  0  0  0  0  0  0  0
   18.0362   70.1987   -5.0589 O   0  0  0  0  0  0  0  0  0  0  0  0
   20.9271   72.5600   -6.8245 O   0  0  0  0  0  0  0  0  0  0  0  0
   18.1558   73.0371   -7.4078 O   0  0  0  0  0  0  0  0  0  0  0  0
   21.3199   71.5656   -4.1345 O   0  0  0  0  0  0  0  0  0  0  0  0
   19.8606   72.2647   -5.9186 C   0  0  1  0  0  0  0  0  0  0  0  0
   18.6299   71.8721   -6.7384 C   0  0  1  0  0  0  0  0  0  0  0  0
   20.2858   71.1174   -5.0041 C   0  0  2  0  0  0  0  0  0  0  0  0
   17.5307   71.2865   -5.8417 C   0  0  1  0  0  0  0  0  0  0  0  0
   19.1078   70.5760   -4.1921 C   0  0  1  0  0  0  0  0  0  0  0  0
   20.6637   73.2880   -7.4078 H   0  0  0  0  0  0  0  0  0  0  0  0
   18.8595   73.3973   -7.9702 H   0  0  0  0  0  0  0  0  0  0  0  0
   22.0599   71.9056   -4.6606 H   0  0  0  0  0  0  0  0  0  0  0  0
   16.0188   69.4631   -6.1552 O   0  0  0  0  0  0  0  0  0  0  0  0
   16.3579   70.7435   -6.6551 C   0  0  0  0  0  0  0  0  0  0  0  0
   15.2735   69.1053   -6.6633 H   0  0  0  0  0  0  0  0  0  0  0  0
 25 28  1  0
 25 24  1  0
 25 26  1  1
 25 27  2  0
  1  4  1  0
  1 24  1  0
  1  2  1  1
  1  3  2  0
  6 11  1  0
  6 12  1  0
 29 36  1  0
 29 37  1  0
  9  7  1  1
  7 13  1  0
 10  8  1  1
  8 14  1  0
 37 28  1  1
  4  5  1  0
 33 30  1  6
 30 38  1  0
 34 31  1  1
 31 39  1  0
 35 32  1  1
 32 40  1  0
 41 42  1  0
 41 43  1  0
 15 19  2  0
 16 22  2  0
 12 17  1  6
 17 19  1  0
 17 20  1  0
 18 19  1  0
 18 22  1  0
 18 23  1  0
  9 10  1  0
  9 11  1  0
 10 12  1  0
 11  5  1  6
 33 34  1  0
 33 35  1  0
 34 36  1  0
 35 37  1  0
 36 42  1  6
 20 21  2  0
 21 22  1  0
M  CHG  2   2  -1  26  -1
M  END
>  <COMPND>  (125) 
    8629 

>  <AUTHOR>  (125) 
    GENERATED BY OPEN BABEL 3.1.1

>  <MASTER>  (125) 
        0    0    0    0    0    0    0    0   58    0   58    0

>  <minimizedAffinity>  (125) 
-8.99491

>  <CNNscore>  (125) 
0.6678323150

>  <CNNaffinity>  (125) 
4.5199041367

>  <CNN_VS>  (125) 
3.0185379982

>  <CNNaffinity_variance>  (125) 
0.0117259687

$$$$
126
     RDKit          3D

 43 45  0  0  0  0  0  0  0  0999 V2000
   21.1296   70.4510    0.5438 P   0  0  2  0  0  0  0  0  0  0  0  0
   20.1039   71.2994    1.4633 O   0  0  0  0  0  0  0  0  0  0  0  0
   21.0306   68.9612    0.6930 O   0  0  0  0  0  0  0  0  0  0  0  0
   22.5753   71.0961    0.8778 O   0  0  0  0  0  0  0  0  0  0  0  0
   23.4897   70.3410    1.6535 C   0  0  0  0  0  0  0  0  0  0  0  0
   24.4704   70.3405    3.8471 O   0  0  0  0  0  0  0  0  0  0  0  0
   22.2445   72.1871    4.6385 O   0  0  0  0  0  0  0  0  0  0  0  0
   24.3411   73.8967    4.2947 O   0  0  0  0  0  0  0  0  0  0  0  0
   22.9555   72.1082    3.4042 C   0  0  1  0  0  0  0  0  0  0  0  0
   24.3452   72.6897    3.5598 C   0  0  2  0  0  0  0  0  0  0  0  0
   23.2542   70.6400    3.1277 C   0  0  1  0  0  0  0  0  0  0  0  0
   25.0767   71.5695    4.2796 C   0  0  2  0  0  0  0  0  0  0  0  0
   22.0422   73.1155    4.8361 H   0  0  0  0  0  0  0  0  0  0  0  0
   23.8643   74.5778    3.7953 H   0  0  0  0  0  0  0  0  0  0  0  0
   27.0305   73.2021    5.5025 O   0  0  0  0  0  0  0  0  0  0  0  0
   30.4162   71.3565    2.9782 O   0  0  0  0  0  0  0  0  0  0  0  0
   26.4764   71.5361    3.9614 N   0  0  0  0  0  0  0  0  0  0  0  0
   28.7148   72.2816    4.2447 N   0  0  0  0  0  0  0  0  0  0  0  0
   27.3740   72.3984    4.6331 C   0  0  0  0  0  0  0  0  0  0  0  0
   26.9462   70.6554    2.9932 C   0  0  0  0  0  0  0  0  0  0  0  0
   28.2276   70.5573    2.6334 C   0  0  0  0  0  0  0  0  0  0  0  0
   29.2304   71.4228    3.2870 C   0  0  0  0  0  0  0  0  0  0  0  0
   29.3583   72.8727    4.6989 H   0  0  0  0  0  0  0  0  0  0  0  0
   20.8221   70.9999   -0.9452 O   0  0  0  0  0  0  0  0  0  0  0  0
   19.4380   71.1026   -1.7739 P   0  0  2  0  0  0  0  0  0  0  0  0
   18.8041   72.5016   -1.2653 O   0  0  0  0  0  0  0  0  0  0  0  0
   18.5327   69.9164   -1.6093 O   0  0  0  0  0  0  0  0  0  0  0  0
   19.8932   71.3906   -3.2953 O   0  0  0  0  0  0  0  0  0  0  0  0
   20.2002   73.1680   -4.8326 O   0  0  0  0  0  0  0  0  0  0  0  0
   17.5084   70.8927   -6.9838 O   0  0  0  0  0  0  0  0  0  0  0  0
   20.2576   70.9931   -7.8083 O   0  0  0  0  0  0  0  0  0  0  0  0
   17.2208   71.1401   -4.1140 O   0  0  0  0  0  0  0  0  0  0  0  0
   18.6003   71.1188   -6.0883 C   0  0  1  0  0  0  0  0  0  0  0  0
   19.6920   71.8778   -6.8452 C   0  0  1  0  0  0  0  0  0  0  0  0
   18.1066   71.9349   -4.8952 C   0  0  2  0  0  0  0  0  0  0  0  0
   20.7767   72.3893   -5.8876 C   0  0  1  0  0  0  0  0  0  0  0  0
   19.2677   72.4363   -4.0345 C   0  0  1  0  0  0  0  0  0  0  0  0
   17.8151   70.3745   -7.7434 H   0  0  0  0  0  0  0  0  0  0  0  0
   19.5622   70.6770   -8.4064 H   0  0  0  0  0  0  0  0  0  0  0  0
   16.4901   70.8291   -4.6701 H   0  0  0  0  0  0  0  0  0  0  0  0
   22.3623   72.5516   -7.6676 O   0  0  0  0  0  0  0  0  0  0  0  0
   21.7917   73.2824   -6.5977 C   0  0  0  0  0  0  0  0  0  0  0  0
   23.0101   73.1076   -8.1290 H   0  0  0  0  0  0  0  0  0  0  0  0
 25 28  1  0
 25 24  1  0
 25 26  1  1
 25 27  2  0
  1  4  1  0
  1 24  1  0
  1  2  1  1
  1  3  2  0
  6 11  1  0
  6 12  1  0
 29 36  1  0
 29 37  1  0
  9  7  1  1
  7 13  1  0
 10  8  1  1
  8 14  1  0
 37 28  1  6
  4  5  1  0
 33 30  1  6
 30 38  1  0
 34 31  1  6
 31 39  1  0
 35 32  1  1
 32 40  1  0
 41 42  1  0
 41 43  1  0
 15 19  2  0
 16 22  2  0
 12 17  1  6
 17 19  1  0
 17 20  1  0
 18 19  1  0
 18 22  1  0
 18 23  1  0
  9 10  1  0
  9 11  1  0
 10 12  1  0
 11  5  1  6
 33 34  1  0
 33 35  1  0
 34 36  1  0
 35 37  1  0
 36 42  1  6
 20 21  2  0
 21 22  1  0
M  CHG  2   2  -1  26  -1
M  END
>  <COMPND>  (126) 
    8629 

>  <AUTHOR>  (126) 
    GENERATED BY OPEN BABEL 3.1.1

>  <MASTER>  (126) 
        0    0    0    0    0    0    0    0   58    0   58    0

>  <minimizedAffinity>  (126) 
-8.53133

>  <CNNscore>  (126) 
0.6503336430

>  <CNNaffinity>  (126) 
4.5128145218

>  <CNN_VS>  (126) 
2.9348351955

>  <CNNaffinity_variance>  (126) 
0.1699845940

$$$$
127
     RDKit          3D

 43 45  0  0  0  0  0  0  0  0999 V2000
   21.1327   70.4823    0.7205 P   0  0  2  0  0  0  0  0  0  0  0  0
   20.2101   71.2238    1.8234 O   0  0  0  0  0  0  0  0  0  0  0  0
   21.0756   68.9833    0.7509 O   0  0  0  0  0  0  0  0  0  0  0  0
   22.5975   71.1342    0.9378 O   0  0  0  0  0  0  0  0  0  0  0  0
   23.5616   70.4009    1.6731 C   0  0  0  0  0  0  0  0  0  0  0  0
   24.5820   70.3397    3.8476 O   0  0  0  0  0  0  0  0  0  0  0  0
   22.3716   72.1634    4.7303 O   0  0  0  0  0  0  0  0  0  0  0  0
   24.4624   73.8820    4.3960 O   0  0  0  0  0  0  0  0  0  0  0  0
   23.0601   72.1188    3.4815 C   0  0  1  0  0  0  0  0  0  0  0  0
   24.4526   72.6959    3.6280 C   0  0  2  0  0  0  0  0  0  0  0  0
   23.3531   70.6588    3.1591 C   0  0  1  0  0  0  0  0  0  0  0  0
   25.1966   71.5561    4.3030 C   0  0  2  0  0  0  0  0  0  0  0  0
   22.1733   73.0859    4.9573 H   0  0  0  0  0  0  0  0  0  0  0  0
   23.9768   74.5767    3.9244 H   0  0  0  0  0  0  0  0  0  0  0  0
   27.1632   73.1978    5.4926 O   0  0  0  0  0  0  0  0  0  0  0  0
   30.5120   71.3776    2.9015 O   0  0  0  0  0  0  0  0  0  0  0  0
   26.5902   71.5318    3.9586 N   0  0  0  0  0  0  0  0  0  0  0  0
   28.8291   72.2900    4.2016 N   0  0  0  0  0  0  0  0  0  0  0  0
   27.4952   72.3980    4.6153 C   0  0  0  0  0  0  0  0  0  0  0  0
   27.0470   70.6559    2.9798 C   0  0  0  0  0  0  0  0  0  0  0  0
   28.3220   70.5661    2.5959 C   0  0  0  0  0  0  0  0  0  0  0  0
   29.3318   71.4362    3.2325 C   0  0  0  0  0  0  0  0  0  0  0  0
   29.4775   72.8840    4.6450 H   0  0  0  0  0  0  0  0  0  0  0  0
   20.6421   71.1462   -0.6693 O   0  0  0  0  0  0  0  0  0  0  0  0
   19.1585   71.4407   -1.2396 P   0  0  2  0  0  0  0  0  0  0  0  0
   18.7931   72.8801   -0.5975 O   0  0  0  0  0  0  0  0  0  0  0  0
   18.1598   70.3594   -0.9442 O   0  0  0  0  0  0  0  0  0  0  0  0
   19.3766   71.7388   -2.8108 O   0  0  0  0  0  0  0  0  0  0  0  0
   18.9481   69.7321   -3.9966 O   0  0  0  0  0  0  0  0  0  0  0  0
   20.1569   72.1141   -7.1456 O   0  0  0  0  0  0  0  0  0  0  0  0
   17.3851   71.4097   -6.8831 O   0  0  0  0  0  0  0  0  0  0  0  0
   21.4731   72.3385   -4.5771 O   0  0  0  0  0  0  0  0  0  0  0  0
   19.5227   71.8296   -5.8957 C   0  0  1  0  0  0  0  0  0  0  0  0
   18.4290   70.7877   -6.1390 C   0  0  1  0  0  0  0  0  0  0  0  0
   20.5664   71.2949   -4.9167 C   0  0  2  0  0  0  0  0  0  0  0  0
   17.8853   70.2356   -4.8144 C   0  0  1  0  0  0  0  0  0  0  0  0
   19.9170   70.7251   -3.6543 C   0  0  1  0  0  0  0  0  0  0  0  0
   19.4997   72.4545   -7.7715 H   0  0  0  0  0  0  0  0  0  0  0  0
   17.7417   71.7544   -7.7168 H   0  0  0  0  0  0  0  0  0  0  0  0
   21.8777   72.6906   -5.3847 H   0  0  0  0  0  0  0  0  0  0  0  0
   15.7750   69.5805   -5.7234 O   0  0  0  0  0  0  0  0  0  0  0  0
   16.9070   69.0837   -5.0335 C   0  0  0  0  0  0  0  0  0  0  0  0
   15.1438   68.8582   -5.8702 H   0  0  0  0  0  0  0  0  0  0  0  0
 25 28  1  0
 25 24  1  0
 25 26  1  1
 25 27  2  0
  1  4  1  0
  1 24  1  0
  1  2  1  1
  1  3  2  0
  6 11  1  0
  6 12  1  0
 29 36  1  0
 29 37  1  0
  9  7  1  1
  7 13  1  0
 10  8  1  1
  8 14  1  0
 37 28  1  6
  4  5  1  0
 33 30  1  6
 30 38  1  0
 34 31  1  1
 31 39  1  0
 35 32  1  1
 32 40  1  0
 41 42  1  0
 41 43  1  0
 15 19  2  0
 16 22  2  0
 12 17  1  6
 17 19  1  0
 17 20  1  0
 18 19  1  0
 18 22  1  0
 18 23  1  0
  9 10  1  0
  9 11  1  0
 10 12  1  0
 11  5  1  6
 33 34  1  0
 33 35  1  0
 34 36  1  0
 35 37  1  0
 36 42  1  6
 20 21  2  0
 21 22  1  0
M  CHG  2   2  -1  26  -1
M  END
>  <COMPND>  (127) 
    8629 

>  <AUTHOR>  (127) 
    GENERATED BY OPEN BABEL 3.1.1

>  <MASTER>  (127) 
        0    0    0    0    0    0    0    0   58    0   58    0

>  <minimizedAffinity>  (127) 
-8.69698

>  <CNNscore>  (127) 
0.6412986517

>  <CNNaffinity>  (127) 
4.5538849831

>  <CNN_VS>  (127) 
2.9204003811

>  <CNNaffinity_variance>  (127) 
0.0692188293

$$$$
128
     RDKit          3D

 43 45  0  0  0  0  0  0  0  0999 V2000
   22.7217   69.9540   -2.3105 P   0  0  2  0  0  0  0  0  0  0  0  0
   23.8494   70.5784   -3.2881 O   0  0  0  0  0  0  0  0  0  0  0  0
   22.9736   68.5408   -1.8737 O   0  0  0  0  0  0  0  0  0  0  0  0
   21.3353   70.2072   -3.1052 O   0  0  0  0  0  0  0  0  0  0  0  0
   21.1511   71.4474   -3.7653 C   0  0  0  0  0  0  0  0  0  0  0  0
   19.2139   72.2967   -4.9053 O   0  0  0  0  0  0  0  0  0  0  0  0
   17.6353   71.3402   -2.5422 O   0  0  0  0  0  0  0  0  0  0  0  0
   17.1902   69.3814   -4.3866 O   0  0  0  0  0  0  0  0  0  0  0  0
   18.7794   70.7533   -3.1603 C   0  0  1  0  0  0  0  0  0  0  0  0
   18.3951   70.1140   -4.4784 C   0  0  2  0  0  0  0  0  0  0  0  0
   19.6999   71.8810   -3.6102 C   0  0  1  0  0  0  0  0  0  0  0  0
   18.2766   71.3222   -5.3918 C   0  0  2  0  0  0  0  0  0  0  0  0
   17.0327   70.6393   -2.2463 H   0  0  0  0  0  0  0  0  0  0  0  0
   17.3167   68.6236   -3.7947 H   0  0  0  0  0  0  0  0  0  0  0  0
   16.4031   70.4092   -7.2983 O   0  0  0  0  0  0  0  0  0  0  0  0
   19.6103   70.1550  -10.5984 O   0  0  0  0  0  0  0  0  0  0  0  0
   18.5946   71.0101   -6.7567 N   0  0  0  0  0  0  0  0  0  0  0  0
   18.0016   70.2835   -8.9400 N   0  0  0  0  0  0  0  0  0  0  0  0
   17.5803   70.5580   -7.6326 C   0  0  0  0  0  0  0  0  0  0  0  0
   19.9000   71.1537   -7.2143 C   0  0  0  0  0  0  0  0  0  0  0  0
   20.2856   70.8865   -8.4638 C   0  0  0  0  0  0  0  0  0  0  0  0
   19.2871   70.4093   -9.4422 C   0  0  0  0  0  0  0  0  0  0  0  0
   17.3122   69.9668   -9.5678 H   0  0  0  0  0  0  0  0  0  0  0  0
   22.6507   71.0283   -1.1047 O   0  0  0  0  0  0  0  0  0  0  0  0
   21.5219   71.2846    0.0236 P   0  0  2  0  0  0  0  0  0  0  0  0
   20.8661   69.8203    0.2317 O   0  0  0  0  0  0  0  0  0  0  0  0
   20.5355   72.3610   -0.3262 O   0  0  0  0  0  0  0  0  0  0  0  0
   22.3541   71.5550    1.3799 O   0  0  0  0  0  0  0  0  0  0  0  0
   24.3967   72.5122    2.1066 O   0  0  0  0  0  0  0  0  0  0  0  0
   24.7846   68.7657    3.7991 O   0  0  0  0  0  0  0  0  0  0  0  0
   24.2459   71.0318    5.4792 O   0  0  0  0  0  0  0  0  0  0  0  0
   23.5987   69.0483    1.1736 O   0  0  0  0  0  0  0  0  0  0  0  0
   24.0807   69.9315    3.3620 C   0  0  1  0  0  0  0  0  0  0  0  0
   24.6408   71.1401    4.1145 C   0  0  1  0  0  0  0  0  0  0  0  0
   24.2767   70.0975    1.8562 C   0  0  2  0  0  0  0  0  0  0  0  0
   24.1266   72.4546    3.5121 C   0  0  1  0  0  0  0  0  0  0  0  0
   23.7759   71.4581    1.3681 C   0  0  1  0  0  0  0  0  0  0  0  0
   24.6638   68.6543    4.7544 H   0  0  0  0  0  0  0  0  0  0  0  0
   24.5765   70.1973    5.8475 H   0  0  0  0  0  0  0  0  0  0  0  0
   23.9248   68.1924    1.4912 H   0  0  0  0  0  0  0  0  0  0  0  0
   26.0831   73.2973    4.5941 O   0  0  0  0  0  0  0  0  0  0  0  0
   24.7943   73.6735    4.1450 C   0  0  0  0  0  0  0  0  0  0  0  0
   26.5201   74.0633    4.9990 H   0  0  0  0  0  0  0  0  0  0  0  0
 25 28  1  0
 25 24  1  0
 25 26  1  1
 25 27  2  0
  1  4  1  0
  1 24  1  0
  1  2  1  6
  1  3  2  0
  6 11  1  0
  6 12  1  0
 29 36  1  0
 29 37  1  0
  9  7  1  6
  7 13  1  0
 10  8  1  1
  8 14  1  0
 37 28  1  1
  4  5  1  0
 33 30  1  1
 30 38  1  0
 34 31  1  1
 31 39  1  0
 35 32  1  6
 32 40  1  0
 41 42  1  0
 41 43  1  0
 15 19  2  0
 16 22  2  0
 12 17  1  6
 17 19  1  0
 17 20  1  0
 18 19  1  0
 18 22  1  0
 18 23  1  0
  9 10  1  0
  9 11  1  0
 10 12  1  0
 11  5  1  6
 33 34  1  0
 33 35  1  0
 34 36  1  0
 35 37  1  0
 36 42  1  1
 20 21  2  0
 21 22  1  0
M  CHG  2   2  -1  26  -1
M  END
>  <COMPND>  (128) 
    8629 

>  <AUTHOR>  (128) 
    GENERATED BY OPEN BABEL 3.1.1

>  <MASTER>  (128) 
        0    0    0    0    0    0    0    0   58    0   58    0

>  <minimizedAffinity>  (128) 
-8.97738

>  <CNNscore>  (128) 
0.6306604743

>  <CNNaffinity>  (128) 
4.7512135506

>  <CNN_VS>  (128) 
2.9964025021

>  <CNNaffinity_variance>  (128) 
0.1662574410

$$$$
129
     RDKit          3D

 43 45  0  0  0  0  0  0  0  0999 V2000
   21.8408   71.1364   -1.9594 P   0  0  2  0  0  0  0  0  0  0  0  0
   22.6686   72.4149   -2.5050 O   0  0  0  0  0  0  0  0  0  0  0  0
   21.7789   69.9717   -2.9033 O   0  0  0  0  0  0  0  0  0  0  0  0
   20.4144   71.7579   -1.5157 O   0  0  0  0  0  0  0  0  0  0  0  0
   19.6166   72.3905   -2.5012 C   0  0  0  0  0  0  0  0  0  0  0  0
   17.5935   71.9615   -3.7248 O   0  0  0  0  0  0  0  0  0  0  0  0
   16.8665   70.0877   -1.4997 O   0  0  0  0  0  0  0  0  0  0  0  0
   17.7565   68.3901   -3.4395 O   0  0  0  0  0  0  0  0  0  0  0  0
   18.1464   70.3596   -2.0683 C   0  0  1  0  0  0  0  0  0  0  0  0
   18.2659   69.7081   -3.4302 C   0  0  2  0  0  0  0  0  0  0  0  0
   18.1988   71.8414   -2.4188 C   0  0  1  0  0  0  0  0  0  0  0  0
   17.4584   70.6532   -4.3035 C   0  0  2  0  0  0  0  0  0  0  0  0
   16.8094   69.1471   -1.2673 H   0  0  0  0  0  0  0  0  0  0  0  0
   18.3039   67.8277   -2.8696 H   0  0  0  0  0  0  0  0  0  0  0  0
   15.9074   69.9661   -6.5619 O   0  0  0  0  0  0  0  0  0  0  0  0
   19.3944   70.8325   -9.4483 O   0  0  0  0  0  0  0  0  0  0  0  0
   17.9356   70.6905   -5.6571 N   0  0  0  0  0  0  0  0  0  0  0  0
   17.6449   70.3982   -7.9973 N   0  0  0  0  0  0  0  0  0  0  0  0
   17.0763   70.3248   -6.7193 C   0  0  0  0  0  0  0  0  0  0  0  0
   19.2423   71.0868   -5.9205 C   0  0  0  0  0  0  0  0  0  0  0  0
   19.7697   71.1502   -7.1449 C   0  0  0  0  0  0  0  0  0  0  0  0
   18.9385   70.7847   -8.3100 C   0  0  0  0  0  0  0  0  0  0  0  0
   17.0650   70.1478   -8.7528 H   0  0  0  0  0  0  0  0  0  0  0  0
   22.5545   70.8183   -0.5443 O   0  0  0  0  0  0  0  0  0  0  0  0
   22.1901   69.7487    0.6116 P   0  0  2  0  0  0  0  0  0  0  0  0
   23.2834   68.5768    0.3908 O   0  0  0  0  0  0  0  0  0  0  0  0
   20.7646   69.2782    0.5874 O   0  0  0  0  0  0  0  0  0  0  0  0
   22.6342   70.4667    1.9872 O   0  0  0  0  0  0  0  0  0  0  0  0
   23.2618   72.7484    1.8593 O   0  0  0  0  0  0  0  0  0  0  0  0
   24.9150   71.8139    5.5260 O   0  0  0  0  0  0  0  0  0  0  0  0
   22.5630   73.4579    5.4085 O   0  0  0  0  0  0  0  0  0  0  0  0
   25.0083   69.8879    3.3670 O   0  0  0  0  0  0  0  0  0  0  0  0
   23.9448   71.7418    4.4777 C   0  0  1  0  0  0  0  0  0  0  0  0
   23.3583   73.1395    4.2699 C   0  0  1  0  0  0  0  0  0  0  0  0
   24.6245   71.2487    3.2016 C   0  0  2  0  0  0  0  0  0  0  0  0
   22.5107   73.2003    2.9921 C   0  0  1  0  0  0  0  0  0  0  0  0
   23.7129   71.3981    1.9823 C   0  0  1  0  0  0  0  0  0  0  0  0
   24.4898   72.1259    6.3392 H   0  0  0  0  0  0  0  0  0  0  0  0
   23.1100   73.4154    6.2086 H   0  0  0  0  0  0  0  0  0  0  0  0
   25.5853   69.8067    4.1418 H   0  0  0  0  0  0  0  0  0  0  0  0
   20.8957   74.8983    3.4586 O   0  0  0  0  0  0  0  0  0  0  0  0
   22.0459   74.6213    2.6811 C   0  0  0  0  0  0  0  0  0  0  0  0
   20.5889   75.7997    3.2713 H   0  0  0  0  0  0  0  0  0  0  0  0
 25 28  1  0
 25 24  1  0
 25 26  1  6
 25 27  2  0
  1  4  1  0
  1 24  1  0
  1  2  1  6
  1  3  2  0
  6 11  1  0
  6 12  1  0
 29 36  1  0
 29 37  1  0
  9  7  1  6
  7 13  1  0
 10  8  1  1
  8 14  1  0
 37 28  1  1
  4  5  1  0
 33 30  1  1
 30 38  1  0
 34 31  1  1
 31 39  1  0
 35 32  1  1
 32 40  1  0
 41 42  1  0
 41 43  1  0
 15 19  2  0
 16 22  2  0
 12 17  1  6
 17 19  1  0
 17 20  1  0
 18 19  1  0
 18 22  1  0
 18 23  1  0
  9 10  1  0
  9 11  1  0
 10 12  1  0
 11  5  1  6
 33 34  1  0
 33 35  1  0
 34 36  1  0
 35 37  1  0
 36 42  1  6
 20 21  2  0
 21 22  1  0
M  CHG  2   2  -1  26  -1
M  END
>  <COMPND>  (129) 
    8629 

>  <AUTHOR>  (129) 
    GENERATED BY OPEN BABEL 3.1.1

>  <MASTER>  (129) 
        0    0    0    0    0    0    0    0   58    0   58    0

>  <minimizedAffinity>  (129) 
-8.29766

>  <CNNscore>  (129) 
0.6082863212

>  <CNNaffinity>  (129) 
4.5785646439

>  <CNN_VS>  (129) 
2.7850782871

>  <CNNaffinity_variance>  (129) 
0.0772362873

$$$$
130
     RDKit          3D

 43 45  0  0  0  0  0  0  0  0999 V2000
   21.3408   70.3781    0.2911 P   0  0  2  0  0  0  0  0  0  0  0  0
   19.8088   70.8641    0.4762 O   0  0  0  0  0  0  0  0  0  0  0  0
   21.5313   68.8909    0.2334 O   0  0  0  0  0  0  0  0  0  0  0  0
   22.1366   71.1430    1.4740 O   0  0  0  0  0  0  0  0  0  0  0  0
   23.0513   70.4019    2.2627 C   0  0  0  0  0  0  0  0  0  0  0  0
   24.2064   70.5761    4.3625 O   0  0  0  0  0  0  0  0  0  0  0  0
   22.1517   72.6284    5.1090 O   0  0  0  0  0  0  0  0  0  0  0  0
   24.2996   74.1609    4.4201 O   0  0  0  0  0  0  0  0  0  0  0  0
   22.7546   72.3751    3.8411 C   0  0  1  0  0  0  0  0  0  0  0  0
   24.1808   72.8844    3.8259 C   0  0  2  0  0  0  0  0  0  0  0  0
   22.9528   70.8703    3.7080 C   0  0  1  0  0  0  0  0  0  0  0  0
   24.9092   71.8051    4.6086 C   0  0  2  0  0  0  0  0  0  0  0  0
   22.0149   73.5832    5.2168 H   0  0  0  0  0  0  0  0  0  0  0  0
   23.8198   74.8125    3.8853 H   0  0  0  0  0  0  0  0  0  0  0  0
   27.0372   73.4427    5.4848 O   0  0  0  0  0  0  0  0  0  0  0  0
   30.1064   71.1301    2.9405 O   0  0  0  0  0  0  0  0  0  0  0  0
   26.2745   71.6530    4.1915 N   0  0  0  0  0  0  0  0  0  0  0  0
   28.5637   72.2898    4.2174 N   0  0  0  0  0  0  0  0  0  0  0  0
   27.2670   72.5288    4.6900 C   0  0  0  0  0  0  0  0  0  0  0  0
   26.6180   70.6442    3.2980 C   0  0  0  0  0  0  0  0  0  0  0  0
   27.8590   70.4304    2.8561 C   0  0  0  0  0  0  0  0  0  0  0  0
   28.9548   71.3011    3.3284 C   0  0  0  0  0  0  0  0  0  0  0  0
   29.2716   72.8877    4.5508 H   0  0  0  0  0  0  0  0  0  0  0  0
   21.8152   71.1691   -1.0364 O   0  0  0  0  0  0  0  0  0  0  0  0
   22.0116   70.6645   -2.5595 P   0  0  2  0  0  0  0  0  0  0  0  0
   22.7728   69.2475   -2.3857 O   0  0  0  0  0  0  0  0  0  0  0  0
   22.7233   71.6452   -3.4458 O   0  0  0  0  0  0  0  0  0  0  0  0
   20.5264   70.2713   -3.0543 O   0  0  0  0  0  0  0  0  0  0  0  0
   19.4391   72.1151   -4.0714 O   0  0  0  0  0  0  0  0  0  0  0  0
   16.2478   69.5035   -3.8569 O   0  0  0  0  0  0  0  0  0  0  0  0
   17.4592   70.0561   -6.4015 O   0  0  0  0  0  0  0  0  0  0  0  0
   18.1614   69.6264   -1.6883 O   0  0  0  0  0  0  0  0  0  0  0  0
   17.6192   69.8743   -4.0220 C   0  0  1  0  0  0  0  0  0  0  0  0
   17.7202   70.8151   -5.2242 C   0  0  1  0  0  0  0  0  0  0  0  0
   18.1043   70.5708   -2.7520 C   0  0  2  0  0  0  0  0  0  0  0  0
   19.1082   71.4649   -5.3041 C   0  0  1  0  0  0  0  0  0  0  0  0
   19.4722   71.2252   -2.9540 C   0  0  1  0  0  0  0  0  0  0  0  0
   15.9337   69.0603   -4.6596 H   0  0  0  0  0  0  0  0  0  0  0  0
   16.5801   69.6507   -6.3381 H   0  0  0  0  0  0  0  0  0  0  0  0
   17.2895   69.2194   -1.5703 H   0  0  0  0  0  0  0  0  0  0  0  0
   19.4292   71.8774   -7.6355 O   0  0  0  0  0  0  0  0  0  0  0  0
   19.1812   72.5247   -6.4011 C   0  0  0  0  0  0  0  0  0  0  0  0
   19.4779   72.5397   -8.3432 H   0  0  0  0  0  0  0  0  0  0  0  0
 25 28  1  0
 25 24  1  0
 25 26  1  1
 25 27  2  0
  1  4  1  0
  1 24  1  0
  1  2  1  1
  1  3  2  0
  6 11  1  0
  6 12  1  0
 29 36  1  0
 29 37  1  0
  9  7  1  1
  7 13  1  0
 10  8  1  1
  8 14  1  0
 37 28  1  6
  4  5  1  0
 33 30  1  1
 30 38  1  0
 34 31  1  6
 31 39  1  0
 35 32  1  1
 32 40  1  0
 41 42  1  0
 41 43  1  0
 15 19  2  0
 16 22  2  0
 12 17  1  6
 17 19  1  0
 17 20  1  0
 18 19  1  0
 18 22  1  0
 18 23  1  0
  9 10  1  0
  9 11  1  0
 10 12  1  0
 11  5  1  6
 33 34  1  0
 33 35  1  0
 34 36  1  0
 35 37  1  0
 36 42  1  6
 20 21  2  0
 21 22  1  0
M  CHG  2   2  -1  26  -1
M  END
>  <COMPND>  (130) 
    8629 

>  <AUTHOR>  (130) 
    GENERATED BY OPEN BABEL 3.1.1

>  <MASTER>  (130) 
        0    0    0    0    0    0    0    0   58    0   58    0

>  <minimizedAffinity>  (130) 
-9.13609

>  <CNNscore>  (130) 
0.5579138398

>  <CNNaffinity>  (130) 
4.7593317032

>  <CNN_VS>  (130) 
2.6552970409

>  <CNNaffinity_variance>  (130) 
0.4079028070

$$$$
131
     RDKit          3D

 43 45  0  0  0  0  0  0  0  0999 V2000
   24.6107   71.1429    3.9327 P   0  0  2  0  0  0  0  0  0  0  0  0
   24.4838   71.9018    5.3559 O   0  0  0  0  0  0  0  0  0  0  0  0
   23.6663   69.9928    3.7414 O   0  0  0  0  0  0  0  0  0  0  0  0
   26.1848   70.7854    3.8222 O   0  0  0  0  0  0  0  0  0  0  0  0
   27.0183   71.6335    3.0515 C   0  0  0  0  0  0  0  0  0  0  0  0
   29.1421   71.8242    4.1590 O   0  0  0  0  0  0  0  0  0  0  0  0
   28.4747   74.7232    4.5352 O   0  0  0  0  0  0  0  0  0  0  0  0
   30.1882   74.7781    2.4145 O   0  0  0  0  0  0  0  0  0  0  0  0
   28.1792   73.8648    3.4346 C   0  0  1  0  0  0  0  0  0  0  0  0
   29.4294   73.6040    2.6206 C   0  0  2  0  0  0  0  0  0  0  0  0
   27.8667   72.4807    3.9898 C   0  0  1  0  0  0  0  0  0  0  0  0
   30.1558   72.5813    3.4777 C   0  0  2  0  0  0  0  0  0  0  0  0
   28.6772   75.6132    4.2054 H   0  0  0  0  0  0  0  0  0  0  0  0
   29.6835   75.3970    1.8640 H   0  0  0  0  0  0  0  0  0  0  0  0
   32.9122   72.1329    3.9011 O   0  0  0  0  0  0  0  0  0  0  0  0
   33.1441   69.1226    0.4189 O   0  0  0  0  0  0  0  0  0  0  0  0
   30.9612   71.6853    2.6967 N   0  0  0  0  0  0  0  0  0  0  0  0
   33.0254   70.6342    2.1670 N   0  0  0  0  0  0  0  0  0  0  0  0
   32.3362   71.5332    2.9910 C   0  0  0  0  0  0  0  0  0  0  0  0
   30.3867   70.9687    1.6525 C   0  0  0  0  0  0  0  0  0  0  0  0
   31.0580   70.1163    0.8753 C   0  0  0  0  0  0  0  0  0  0  0  0
   32.4992   69.8996    1.1162 C   0  0  0  0  0  0  0  0  0  0  0  0
   33.9847   70.5123    2.3531 H   0  0  0  0  0  0  0  0  0  0  0  0
   24.4347   72.3429    2.8640 O   0  0  0  0  0  0  0  0  0  0  0  0
   23.2842   72.6245    1.7641 P   0  0  2  0  0  0  0  0  0  0  0  0
   23.7122   74.0531    1.1368 O   0  0  0  0  0  0  0  0  0  0  0  0
   21.8866   72.5819    2.3107 O   0  0  0  0  0  0  0  0  0  0  0  0
   23.5747   71.5590    0.5870 O   0  0  0  0  0  0  0  0  0  0  0  0
   22.0980   71.3062   -1.2492 O   0  0  0  0  0  0  0  0  0  0  0  0
   23.8943   67.5891   -1.3306 O   0  0  0  0  0  0  0  0  0  0  0  0
   24.5356   69.5185   -3.3589 O   0  0  0  0  0  0  0  0  0  0  0  0
   23.2752   68.8384    1.2062 O   0  0  0  0  0  0  0  0  0  0  0  0
   23.8361   69.0039   -1.1303 C   0  0  1  0  0  0  0  0  0  0  0  0
   23.4430   69.6601   -2.4553 C   0  0  1  0  0  0  0  0  0  0  0  0
   22.8017   69.3129   -0.0496 C   0  0  2  0  0  0  0  0  0  0  0  0
   23.1007   71.1431   -2.2590 C   0  0  1  0  0  0  0  0  0  0  0  0
   22.4978   70.8101    0.0298 C   0  0  1  0  0  0  0  0  0  0  0  0
   24.5497   67.3861   -2.0153 H   0  0  0  0  0  0  0  0  0  0  0  0
   24.7419   68.5775   -3.4738 H   0  0  0  0  0  0  0  0  0  0  0  0
   23.4637   67.8895    1.1430 H   0  0  0  0  0  0  0  0  0  0  0  0
   23.6466   72.2417   -4.3094 O   0  0  0  0  0  0  0  0  0  0  0  0
   22.5550   71.7781   -3.5362 C   0  0  0  0  0  0  0  0  0  0  0  0
   23.3144   72.6481   -5.1256 H   0  0  0  0  0  0  0  0  0  0  0  0
 25 28  1  0
 25 24  1  0
 25 26  1  6
 25 27  2  0
  1  4  1  0
  1 24  1  0
  1  2  1  1
  1  3  2  0
  6 11  1  0
  6 12  1  0
 29 36  1  0
 29 37  1  0
  9  7  1  1
  7 13  1  0
 10  8  1  1
  8 14  1  0
 37 28  1  6
  4  5  1  0
 33 30  1  6
 30 38  1  0
 34 31  1  6
 31 39  1  0
 35 32  1  1
 32 40  1  0
 41 42  1  0
 41 43  1  0
 15 19  2  0
 16 22  2  0
 12 17  1  6
 17 19  1  0
 17 20  1  0
 18 19  1  0
 18 22  1  0
 18 23  1  0
  9 10  1  0
  9 11  1  0
 10 12  1  0
 11  5  1  6
 33 34  1  0
 33 35  1  0
 34 36  1  0
 35 37  1  0
 36 42  1  6
 20 21  2  0
 21 22  1  0
M  CHG  2   2  -1  26  -1
M  END
>  <COMPND>  (131) 
    8629 

>  <AUTHOR>  (131) 
    GENERATED BY OPEN BABEL 3.1.1

>  <MASTER>  (131) 
        0    0    0    0    0    0    0    0   58    0   58    0

>  <minimizedAffinity>  (131) 
-8.88142

>  <CNNscore>  (131) 
0.5437725186

>  <CNNaffinity>  (131) 
4.7084755898

>  <CNN_VS>  (131) 
2.5603396893

>  <CNNaffinity_variance>  (131) 
0.0655182898

$$$$
132
     RDKit          3D

 43 45  0  0  0  0  0  0  0  0999 V2000
   17.1983   72.8757   -0.3873 P   0  0  2  0  0  0  0  0  0  0  0  0
   16.1749   74.0697   -0.7671 O   0  0  0  0  0  0  0  0  0  0  0  0
   16.7053   71.9302    0.6684 O   0  0  0  0  0  0  0  0  0  0  0  0
   18.5830   73.6427   -0.0524 O   0  0  0  0  0  0  0  0  0  0  0  0
   19.5777   72.9519    0.6832 C   0  0  0  0  0  0  0  0  0  0  0  0
   21.8759   72.4317    0.2120 O   0  0  0  0  0  0  0  0  0  0  0  0
   20.8235   70.3410   -1.6621 O   0  0  0  0  0  0  0  0  0  0  0  0
   21.5092   68.8787    0.5352 O   0  0  0  0  0  0  0  0  0  0  0  0
   20.3036   70.7694   -0.4045 C   0  0  1  0  0  0  0  0  0  0  0  0
   21.1557   70.2334    0.7269 C   0  0  2  0  0  0  0  0  0  0  0  0
   20.5309   72.2715   -0.2898 C   0  0  1  0  0  0  0  0  0  0  0  0
   22.3568   71.1627    0.6844 C   0  0  2  0  0  0  0  0  0  0  0  0
   20.6895   69.3846   -1.7583 H   0  0  0  0  0  0  0  0  0  0  0  0
   20.7116   68.3281    0.5708 H   0  0  0  0  0  0  0  0  0  0  0  0
   24.1194   69.3186    1.8969 O   0  0  0  0  0  0  0  0  0  0  0  0
   24.5938   71.9575    5.6456 O   0  0  0  0  0  0  0  0  0  0  0  0
   22.9560   71.3428    1.9766 N   0  0  0  0  0  0  0  0  0  0  0  0
   24.3543   70.6341    3.7624 N   0  0  0  0  0  0  0  0  0  0  0  0
   23.8266   70.3560    2.4950 C   0  0  0  0  0  0  0  0  0  0  0  0
   22.6790   72.4878    2.7155 C   0  0  0  0  0  0  0  0  0  0  0  0
   23.1893   72.7375    3.9231 C   0  0  0  0  0  0  0  0  0  0  0  0
   24.1082   71.7569    4.5366 C   0  0  0  0  0  0  0  0  0  0  0  0
   24.9631   69.9606    4.1438 H   0  0  0  0  0  0  0  0  0  0  0  0
   17.5010   72.1876   -1.8183 O   0  0  0  0  0  0  0  0  0  0  0  0
   17.1111   70.7304   -2.3993 P   0  0  2  0  0  0  0  0  0  0  0  0
   15.4934   70.7517   -2.3995 O   0  0  0  0  0  0  0  0  0  0  0  0
   17.7152   69.5839   -1.6412 O   0  0  0  0  0  0  0  0  0  0  0  0
   17.5198   70.7899   -3.9595 O   0  0  0  0  0  0  0  0  0  0  0  0
   17.4494   72.8907   -5.0542 O   0  0  0  0  0  0  0  0  0  0  0  0
   17.3841   70.4203   -8.3624 O   0  0  0  0  0  0  0  0  0  0  0  0
   19.7629   71.9086   -7.7509 O   0  0  0  0  0  0  0  0  0  0  0  0
   15.9174   69.6807   -5.9788 O   0  0  0  0  0  0  0  0  0  0  0  0
   17.7567   70.8175   -7.0400 C   0  0  1  0  0  0  0  0  0  0  0  0
   18.5025   72.1502   -7.1317 C   0  0  1  0  0  0  0  0  0  0  0  0
   16.4967   70.9640   -6.1890 C   0  0  2  0  0  0  0  0  0  0  0  0
   18.7000   72.7713   -5.7424 C   0  0  1  0  0  0  0  0  0  0  0  0
   16.7957   71.6368   -4.8481 C   0  0  1  0  0  0  0  0  0  0  0  0
   18.1797   70.3251   -8.9077 H   0  0  0  0  0  0  0  0  0  0  0  0
   19.6242   71.5160   -8.6271 H   0  0  0  0  0  0  0  0  0  0  0  0
   15.7326   69.2653   -6.8350 H   0  0  0  0  0  0  0  0  0  0  0  0
   20.6063   74.0725   -6.3603 O   0  0  0  0  0  0  0  0  0  0  0  0
   19.3005   74.1731   -5.8227 C   0  0  0  0  0  0  0  0  0  0  0  0
   21.0008   74.9573   -6.4176 H   0  0  0  0  0  0  0  0  0  0  0  0
 25 28  1  0
 25 24  1  0
 25 26  1  6
 25 27  2  0
  1  4  1  0
  1 24  1  0
  1  2  1  6
  1  3  2  0
  6 11  1  0
  6 12  1  0
 29 36  1  0
 29 37  1  0
  9  7  1  6
  7 13  1  0
 10  8  1  6
  8 14  1  0
 37 28  1  1
  4  5  1  0
 33 30  1  6
 30 38  1  0
 34 31  1  1
 31 39  1  0
 35 32  1  1
 32 40  1  0
 41 42  1  0
 41 43  1  0
 15 19  2  0
 16 22  2  0
 12 17  1  1
 17 19  1  0
 17 20  1  0
 18 19  1  0
 18 22  1  0
 18 23  1  0
  9 10  1  0
  9 11  1  0
 10 12  1  0
 11  5  1  1
 33 34  1  0
 33 35  1  0
 34 36  1  0
 35 37  1  0
 36 42  1  6
 20 21  2  0
 21 22  1  0
M  CHG  2   2  -1  26  -1
M  END
>  <COMPND>  (132) 
    8629 

>  <AUTHOR>  (132) 
    GENERATED BY OPEN BABEL 3.1.1

>  <MASTER>  (132) 
        0    0    0    0    0    0    0    0   58    0   58    0

>  <minimizedAffinity>  (132) 
-8.28426

>  <CNNscore>  (132) 
0.4908852875

>  <CNNaffinity>  (132) 
4.5662322044

>  <CNN_VS>  (132) 
2.2414963245

>  <CNNaffinity_variance>  (132) 
0.2459667176

$$$$
133
     RDKit          3D

 43 45  0  0  0  0  0  0  0  0999 V2000
   22.8872   69.7616   -2.2559 P   0  0  2  0  0  0  0  0  0  0  0  0
   23.7648   70.7084   -3.2311 O   0  0  0  0  0  0  0  0  0  0  0  0
   23.2704   68.3109   -2.2681 O   0  0  0  0  0  0  0  0  0  0  0  0
   21.3578   70.0879   -2.6711 O   0  0  0  0  0  0  0  0  0  0  0  0
   21.0577   71.3709   -3.1922 C   0  0  0  0  0  0  0  0  0  0  0  0
   19.0188   72.1598   -4.1895 O   0  0  0  0  0  0  0  0  0  0  0  0
   17.6095   70.8727   -1.8769 O   0  0  0  0  0  0  0  0  0  0  0  0
   17.2478   69.0566   -3.8788 O   0  0  0  0  0  0  0  0  0  0  0  0
   18.7713   70.4371   -2.5811 C   0  0  1  0  0  0  0  0  0  0  0  0
   18.3880   69.8890   -3.9398 C   0  0  2  0  0  0  0  0  0  0  0  0
   19.5842   71.6708   -2.9535 C   0  0  1  0  0  0  0  0  0  0  0  0
   18.1420   71.1603   -4.7345 C   0  0  2  0  0  0  0  0  0  0  0  0
   17.0745   70.1020   -1.6282 H   0  0  0  0  0  0  0  0  0  0  0  0
   17.4549   68.2616   -3.3632 H   0  0  0  0  0  0  0  0  0  0  0  0
   16.2586   70.3285   -6.6680 O   0  0  0  0  0  0  0  0  0  0  0  0
   19.3649   70.5697  -10.0641 O   0  0  0  0  0  0  0  0  0  0  0  0
   18.4314   70.9976   -6.1313 N   0  0  0  0  0  0  0  0  0  0  0  0
   17.8068   70.4495   -8.3575 N   0  0  0  0  0  0  0  0  0  0  0  0
   17.4145   70.5744   -7.0186 C   0  0  0  0  0  0  0  0  0  0  0  0
   19.7115   71.2572   -6.6086 C   0  0  0  0  0  0  0  0  0  0  0  0
   20.0697   71.1320   -7.8882 C   0  0  0  0  0  0  0  0  0  0  0  0
   19.0667   70.6945   -8.8803 C   0  0  0  0  0  0  0  0  0  0  0  0
   17.1151   70.1555   -8.9938 H   0  0  0  0  0  0  0  0  0  0  0  0
   23.0354   70.4845   -0.8177 O   0  0  0  0  0  0  0  0  0  0  0  0
   22.5271   70.0403    0.6510 P   0  0  2  0  0  0  0  0  0  0  0  0
   23.0220   68.5043    0.7661 O   0  0  0  0  0  0  0  0  0  0  0  0
   21.0559   70.2355    0.8782 O   0  0  0  0  0  0  0  0  0  0  0  0
   23.4754   70.8519    1.6743 O   0  0  0  0  0  0  0  0  0  0  0  0
   25.4534   69.9641    2.6312 O   0  0  0  0  0  0  0  0  0  0  0  0
   24.4523   72.6745    5.5812 O   0  0  0  0  0  0  0  0  0  0  0  0
   26.6857   73.2143    3.8583 O   0  0  0  0  0  0  0  0  0  0  0  0
   22.3758   71.1714    4.2363 O   0  0  0  0  0  0  0  0  0  0  0  0
   24.5593   72.1882    4.2405 C   0  0  1  0  0  0  0  0  0  0  0  0
   26.0388   71.9471    3.9345 C   0  0  1  0  0  0  0  0  0  0  0  0
   23.7658   70.8888    4.1160 C   0  0  2  0  0  0  0  0  0  0  0  0
   26.2141   71.1777    2.6182 C   0  0  1  0  0  0  0  0  0  0  0  0
   24.0497   70.1784    2.7913 C   0  0  1  0  0  0  0  0  0  0  0  0
   24.9535   73.4996    5.6669 H   0  0  0  0  0  0  0  0  0  0  0  0
   26.5671   73.6901    4.6955 H   0  0  0  0  0  0  0  0  0  0  0  0
   22.2091   71.6208    5.0790 H   0  0  0  0  0  0  0  0  0  0  0  0
   27.9746   71.0243    1.0101 O   0  0  0  0  0  0  0  0  0  0  0  0
   27.6703   70.7888    2.3726 C   0  0  0  0  0  0  0  0  0  0  0  0
   28.8984   70.7815    0.8392 H   0  0  0  0  0  0  0  0  0  0  0  0
 25 28  1  0
 25 24  1  0
 25 26  1  6
 25 27  2  0
  1  4  1  0
  1 24  1  0
  1  2  1  6
  1  3  2  0
  6 11  1  0
  6 12  1  0
 29 36  1  0
 29 37  1  0
  9  7  1  1
  7 13  1  0
 10  8  1  1
  8 14  1  0
 37 28  1  6
  4  5  1  0
 33 30  1  1
 30 38  1  0
 34 31  1  6
 31 39  1  0
 35 32  1  6
 32 40  1  0
 41 42  1  0
 41 43  1  0
 15 19  2  0
 16 22  2  0
 12 17  1  6
 17 19  1  0
 17 20  1  0
 18 19  1  0
 18 22  1  0
 18 23  1  0
  9 10  1  0
  9 11  1  0
 10 12  1  0
 11  5  1  6
 33 34  1  0
 33 35  1  0
 34 36  1  0
 35 37  1  0
 36 42  1  1
 20 21  2  0
 21 22  1  0
M  CHG  2   2  -1  26  -1
M  END
>  <COMPND>  (133) 
    8629 

>  <AUTHOR>  (133) 
    GENERATED BY OPEN BABEL 3.1.1

>  <MASTER>  (133) 
        0    0    0    0    0    0    0    0   58    0   58    0

>  <minimizedAffinity>  (133) 
-9.07598

>  <CNNscore>  (133) 
0.4576728344

>  <CNNaffinity>  (133) 
4.8938255310

>  <CNN_VS>  (133) 
2.2397708893

>  <CNNaffinity_variance>  (133) 
0.3340057433

$$$$
134
     RDKit          3D

 43 45  0  0  0  0  0  0  0  0999 V2000
   22.3794   71.5999   -2.5635 P   0  0  2  0  0  0  0  0  0  0  0  0
   22.6573   73.0567   -1.9168 O   0  0  0  0  0  0  0  0  0  0  0  0
   23.4572   71.0965   -3.4780 O   0  0  0  0  0  0  0  0  0  0  0  0
   20.9084   71.7416   -3.2223 O   0  0  0  0  0  0  0  0  0  0  0  0
   20.3914   73.0412   -3.4490 C   0  0  0  0  0  0  0  0  0  0  0  0
   19.9727   72.0807   -5.6114 O   0  0  0  0  0  0  0  0  0  0  0  0
   19.7082   74.8976   -6.6043 O   0  0  0  0  0  0  0  0  0  0  0  0
   17.1097   74.1096   -6.3528 O   0  0  0  0  0  0  0  0  0  0  0  0
   19.3129   74.3418   -5.3513 C   0  0  1  0  0  0  0  0  0  0  0  0
   18.0709   73.4920   -5.5213 C   0  0  2  0  0  0  0  0  0  0  0  0
   20.3546   73.3056   -4.9480 C   0  0  1  0  0  0  0  0  0  0  0  0
   18.6396   72.2210   -6.1290 C   0  0  2  0  0  0  0  0  0  0  0  0
   19.0582   75.5625   -6.8824 H   0  0  0  0  0  0  0  0  0  0  0  0
   16.7782   74.9131   -5.9225 H   0  0  0  0  0  0  0  0  0  0  0  0
   16.3450   71.3348   -7.5173 O   0  0  0  0  0  0  0  0  0  0  0  0
   15.7944   67.7413   -4.6845 O   0  0  0  0  0  0  0  0  0  0  0  0
   17.8773   71.0566   -5.7762 N   0  0  0  0  0  0  0  0  0  0  0  0
   16.0728   69.5462   -6.1058 N   0  0  0  0  0  0  0  0  0  0  0  0
   16.7407   70.6990   -6.5382 C   0  0  0  0  0  0  0  0  0  0  0  0
   18.2590   70.2828   -4.6856 C   0  0  0  0  0  0  0  0  0  0  0  0
   17.6105   69.1871   -4.2855 C   0  0  0  0  0  0  0  0  0  0  0  0
   16.4124   68.7445   -5.0275 C   0  0  0  0  0  0  0  0  0  0  0  0
   15.2778   69.2779   -6.6213 H   0  0  0  0  0  0  0  0  0  0  0  0
   22.1093   70.6725   -1.2674 O   0  0  0  0  0  0  0  0  0  0  0  0
   21.1474   70.8919    0.0131 P   0  0  2  0  0  0  0  0  0  0  0  0
   20.7326   69.3842    0.4282 O   0  0  0  0  0  0  0  0  0  0  0  0
   19.9842   71.8065   -0.2406 O   0  0  0  0  0  0  0  0  0  0  0  0
   22.1385   71.3806    1.1895 O   0  0  0  0  0  0  0  0  0  0  0  0
   24.2681   72.3463    1.5749 O   0  0  0  0  0  0  0  0  0  0  0  0
   24.7744   68.7946    3.6193 O   0  0  0  0  0  0  0  0  0  0  0  0
   24.4730   71.2448    5.0868 O   0  0  0  0  0  0  0  0  0  0  0  0
   23.3039   68.8286    1.1261 O   0  0  0  0  0  0  0  0  0  0  0  0
   24.0478   69.9276    3.1361 C   0  0  1  0  0  0  0  0  0  0  0  0
   24.7124   71.1925    3.6832 C   0  0  1  0  0  0  0  0  0  0  0  0
   24.0748   69.9237    1.6088 C   0  0  2  0  0  0  0  0  0  0  0  0
   24.1582   72.4496    2.9993 C   0  0  1  0  0  0  0  0  0  0  0  0
   23.5477   71.2385    1.0312 C   0  0  1  0  0  0  0  0  0  0  0  0
   24.7607   68.7909    4.5885 H   0  0  0  0  0  0  0  0  0  0  0  0
   24.8273   70.4451    5.5065 H   0  0  0  0  0  0  0  0  0  0  0  0
   23.6477   68.0022    1.4987 H   0  0  0  0  0  0  0  0  0  0  0  0
   26.2790   73.3715    3.6003 O   0  0  0  0  0  0  0  0  0  0  0  0
   24.9164   73.7082    3.4152 C   0  0  0  0  0  0  0  0  0  0  0  0
   26.7740   74.1631    3.8649 H   0  0  0  0  0  0  0  0  0  0  0  0
 25 28  1  0
 25 24  1  0
 25 26  1  1
 25 27  2  0
  1  4  1  0
  1 24  1  0
  1  2  1  1
  1  3  2  0
  6 11  1  0
  6 12  1  0
 29 36  1  0
 29 37  1  0
  9  7  1  6
  7 13  1  0
 10  8  1  6
  8 14  1  0
 37 28  1  1
  4  5  1  0
 33 30  1  1
 30 38  1  0
 34 31  1  1
 31 39  1  0
 35 32  1  6
 32 40  1  0
 41 42  1  0
 41 43  1  0
 15 19  2  0
 16 22  2  0
 12 17  1  1
 17 19  1  0
 17 20  1  0
 18 19  1  0
 18 22  1  0
 18 23  1  0
  9 10  1  0
  9 11  1  0
 10 12  1  0
 11  5  1  1
 33 34  1  0
 33 35  1  0
 34 36  1  0
 35 37  1  0
 36 42  1  1
 20 21  2  0
 21 22  1  0
M  CHG  2   2  -1  26  -1
M  END
>  <COMPND>  (134) 
    8629 

>  <AUTHOR>  (134) 
    GENERATED BY OPEN BABEL 3.1.1

>  <MASTER>  (134) 
        0    0    0    0    0    0    0    0   58    0   58    0

>  <minimizedAffinity>  (134) 
-8.66113

>  <CNNscore>  (134) 
0.4502047300

>  <CNNaffinity>  (134) 
4.2938241959

>  <CNN_VS>  (134) 
1.9330999851

>  <CNNaffinity_variance>  (134) 
0.1435016096

$$$$
135
     RDKit          3D

 43 45  0  0  0  0  0  0  0  0999 V2000
   22.4610   69.4402    0.4142 P   0  0  2  0  0  0  0  0  0  0  0  0
   20.8880   69.1446    0.6500 O   0  0  0  0  0  0  0  0  0  0  0  0
   23.2660   68.2598   -0.0443 O   0  0  0  0  0  0  0  0  0  0  0  0
   22.9404   70.1214    1.8012 O   0  0  0  0  0  0  0  0  0  0  0  0
   22.5015   71.4361    2.0959 C   0  0  0  0  0  0  0  0  0  0  0  0
   23.6475   71.0142    4.1653 O   0  0  0  0  0  0  0  0  0  0  0  0
   21.9203   73.1635    5.3435 O   0  0  0  0  0  0  0  0  0  0  0  0
   24.2829   74.4606    4.9283 O   0  0  0  0  0  0  0  0  0  0  0  0
   22.4910   73.0788    4.0387 C   0  0  1  0  0  0  0  0  0  0  0  0
   23.9780   73.3600    4.0960 C   0  0  2  0  0  0  0  0  0  0  0  0
   22.4600   71.6180    3.6070 C   0  0  1  0  0  0  0  0  0  0  0  0
   24.5260   72.0497    4.6354 C   0  0  2  0  0  0  0  0  0  0  0  0
   21.9288   74.0874    5.6405 H   0  0  0  0  0  0  0  0  0  0  0  0
   23.9131   75.2700    4.5425 H   0  0  0  0  0  0  0  0  0  0  0  0
   26.8627   73.2079    5.7199 O   0  0  0  0  0  0  0  0  0  0  0  0
   29.5782   70.9398    2.7664 O   0  0  0  0  0  0  0  0  0  0  0  0
   25.8568   71.7793    4.1693 N   0  0  0  0  0  0  0  0  0  0  0  0
   28.2129   72.0775    4.2485 N   0  0  0  0  0  0  0  0  0  0  0  0
   26.9623   72.4141    4.7820 C   0  0  0  0  0  0  0  0  0  0  0  0
   26.0556   70.8932    3.1162 C   0  0  0  0  0  0  0  0  0  0  0  0
   27.2546   70.5839    2.6182 C   0  0  0  0  0  0  0  0  0  0  0  0
   28.4617   71.2037    3.2020 C   0  0  0  0  0  0  0  0  0  0  0  0
   28.9976   72.5079    4.6594 H   0  0  0  0  0  0  0  0  0  0  0  0
   22.4464   70.6855   -0.6163 O   0  0  0  0  0  0  0  0  0  0  0  0
   22.2054   70.7387   -2.2138 P   0  0  2  0  0  0  0  0  0  0  0  0
   22.8842   69.3667   -2.7373 O   0  0  0  0  0  0  0  0  0  0  0  0
   22.7302   71.9806   -2.8742 O   0  0  0  0  0  0  0  0  0  0  0  0
   20.6189   70.5039   -2.3956 O   0  0  0  0  0  0  0  0  0  0  0  0
   19.1776   71.9005   -3.6561 O   0  0  0  0  0  0  0  0  0  0  0  0
   16.4636   70.4779   -0.8882 O   0  0  0  0  0  0  0  0  0  0  0  0
   16.3431   69.5443   -3.6015 O   0  0  0  0  0  0  0  0  0  0  0  0
   19.1688   71.1023   -0.0688 O   0  0  0  0  0  0  0  0  0  0  0  0
   17.5977   70.4066   -1.7566 C   0  0  1  0  0  0  0  0  0  0  0  0
   17.1224   70.6633   -3.1880 C   0  0  1  0  0  0  0  0  0  0  0  0
   18.6186   71.4604   -1.3319 C   0  0  2  0  0  0  0  0  0  0  0  0
   18.3103   70.8674   -4.1379 C   0  0  1  0  0  0  0  0  0  0  0  0
   19.7316   71.6189   -2.3693 C   0  0  1  0  0  0  0  0  0  0  0  0
   15.8117   69.8109   -1.1521 H   0  0  0  0  0  0  0  0  0  0  0  0
   15.5966   69.4262   -2.9931 H   0  0  0  0  0  0  0  0  0  0  0  0
   18.4543   71.0053    0.5792 H   0  0  0  0  0  0  0  0  0  0  0  0
   17.1739   70.1915   -6.1281 O   0  0  0  0  0  0  0  0  0  0  0  0
   17.8593   71.2803   -5.5373 C   0  0  0  0  0  0  0  0  0  0  0  0
   16.8807   70.4399   -7.0191 H   0  0  0  0  0  0  0  0  0  0  0  0
 25 28  1  0
 25 24  1  0
 25 26  1  6
 25 27  2  0
  1  4  1  0
  1 24  1  0
  1  2  1  1
  1  3  2  0
  6 11  1  0
  6 12  1  0
 29 36  1  0
 29 37  1  0
  9  7  1  1
  7 13  1  0
 10  8  1  1
  8 14  1  0
 37 28  1  6
  4  5  1  0
 33 30  1  1
 30 38  1  0
 34 31  1  6
 31 39  1  0
 35 32  1  1
 32 40  1  0
 41 42  1  0
 41 43  1  0
 15 19  2  0
 16 22  2  0
 12 17  1  6
 17 19  1  0
 17 20  1  0
 18 19  1  0
 18 22  1  0
 18 23  1  0
  9 10  1  0
  9 11  1  0
 10 12  1  0
 11  5  1  6
 33 34  1  0
 33 35  1  0
 34 36  1  0
 35 37  1  0
 36 42  1  6
 20 21  2  0
 21 22  1  0
M  CHG  2   2  -1  26  -1
M  END
>  <COMPND>  (135) 
    8629 

>  <AUTHOR>  (135) 
    GENERATED BY OPEN BABEL 3.1.1

>  <MASTER>  (135) 
        0    0    0    0    0    0    0    0   58    0   58    0

>  <minimizedAffinity>  (135) 
-8.16259

>  <CNNscore>  (135) 
0.3922865987

>  <CNNaffinity>  (135) 
4.3120279312

>  <CNN_VS>  (135) 
1.6915507317

>  <CNNaffinity_variance>  (135) 
0.0796685740

$$$$
136
     RDKit          3D

 43 45  0  0  0  0  0  0  0  0999 V2000
   20.6240   70.8882   -0.2472 P   0  0  2  0  0  0  0  0  0  0  0  0
   20.6736   69.3456    0.2381 O   0  0  0  0  0  0  0  0  0  0  0  0
   21.5251   71.2190   -1.4005 O   0  0  0  0  0  0  0  0  0  0  0  0
   20.8815   71.7308    1.1099 O   0  0  0  0  0  0  0  0  0  0  0  0
   22.0788   72.4800    1.2236 C   0  0  0  0  0  0  0  0  0  0  0  0
   24.3006   72.2917    2.1192 O   0  0  0  0  0  0  0  0  0  0  0  0
   23.7702   69.3471    2.3158 O   0  0  0  0  0  0  0  0  0  0  0  0
   23.3932   70.1915    4.8812 O   0  0  0  0  0  0  0  0  0  0  0  0
   22.8763   70.4403    2.5186 C   0  0  1  0  0  0  0  0  0  0  0  0
   23.1681   71.1200    3.8401 C   0  0  2  0  0  0  0  0  0  0  0  0
   23.2324   71.5300    1.5150 C   0  0  1  0  0  0  0  0  0  0  0  0
   24.4051   71.9370    3.5078 C   0  0  2  0  0  0  0  0  0  0  0  0
   23.5620   68.6384    2.9453 H   0  0  0  0  0  0  0  0  0  0  0  0
   22.5774   69.6967    5.0554 H   0  0  0  0  0  0  0  0  0  0  0  0
   26.8283   73.0858    4.3948 O   0  0  0  0  0  0  0  0  0  0  0  0
   24.6293   76.5433    6.5047 O   0  0  0  0  0  0  0  0  0  0  0  0
   24.4951   73.1375    4.2902 N   0  0  0  0  0  0  0  0  0  0  0  0
   25.7314   74.8065    5.4445 N   0  0  0  0  0  0  0  0  0  0  0  0
   25.7608   73.6299    4.6851 C   0  0  0  0  0  0  0  0  0  0  0  0
   23.3368   73.8136    4.6577 C   0  0  0  0  0  0  0  0  0  0  0  0
   23.3257   74.9337    5.3833 C   0  0  0  0  0  0  0  0  0  0  0  0
   24.6062   75.5145    5.8362 C   0  0  0  0  0  0  0  0  0  0  0  0
   26.6014   75.1679    5.7312 H   0  0  0  0  0  0  0  0  0  0  0  0
   19.0512   71.1293   -0.5317 O   0  0  0  0  0  0  0  0  0  0  0  0
   18.1178   70.6893   -1.7759 P   0  0  2  0  0  0  0  0  0  0  0  0
   16.7349   71.4830   -1.5013 O   0  0  0  0  0  0  0  0  0  0  0  0
   17.9592   69.2046   -1.9314 O   0  0  0  0  0  0  0  0  0  0  0  0
   18.7659   71.4304   -3.0549 O   0  0  0  0  0  0  0  0  0  0  0  0
   18.4302   70.0864   -4.9778 O   0  0  0  0  0  0  0  0  0  0  0  0
   20.8012   73.0319   -6.6372 O   0  0  0  0  0  0  0  0  0  0  0  0
   18.0024   72.9384   -7.2740 O   0  0  0  0  0  0  0  0  0  0  0  0
   21.3422   72.0823   -3.9566 O   0  0  0  0  0  0  0  0  0  0  0  0
   19.8026   72.5030   -5.7606 C   0  0  1  0  0  0  0  0  0  0  0  0
   18.6951   71.8823   -6.6144 C   0  0  1  0  0  0  0  0  0  0  0  0
   20.4394   71.4489   -4.8568 C   0  0  2  0  0  0  0  0  0  0  0  0
   17.7248   71.0630   -5.7528 C   0  0  1  0  0  0  0  0  0  0  0  0
   19.3844   70.6583   -4.0809 C   0  0  1  0  0  0  0  0  0  0  0  0
   20.4036   73.7022   -7.2134 H   0  0  0  0  0  0  0  0  0  0  0  0
   18.6264   73.4482   -7.8142 H   0  0  0  0  0  0  0  0  0  0  0  0
   22.0052   72.5792   -4.4600 H   0  0  0  0  0  0  0  0  0  0  0  0
   15.8810   69.5434   -5.7400 O   0  0  0  0  0  0  0  0  0  0  0  0
   16.7050   70.3070   -6.6016 C   0  0  0  0  0  0  0  0  0  0  0  0
   15.2268   69.0570   -6.2664 H   0  0  0  0  0  0  0  0  0  0  0  0
 25 28  1  0
 25 24  1  0
 25 26  1  1
 25 27  2  0
  1  4  1  0
  1 24  1  0
  1  2  1  1
  1  3  2  0
  6 11  1  0
  6 12  1  0
 29 36  1  0
 29 37  1  0
  9  7  1  6
  7 13  1  0
 10  8  1  1
  8 14  1  0
 37 28  1  1
  4  5  1  0
 33 30  1  6
 30 38  1  0
 34 31  1  1
 31 39  1  0
 35 32  1  1
 32 40  1  0
 41 42  1  0
 41 43  1  0
 15 19  2  0
 16 22  2  0
 12 17  1  1
 17 19  1  0
 17 20  1  0
 18 19  1  0
 18 22  1  0
 18 23  1  0
  9 10  1  0
  9 11  1  0
 10 12  1  0
 11  5  1  1
 33 34  1  0
 33 35  1  0
 34 36  1  0
 35 37  1  0
 36 42  1  6
 20 21  2  0
 21 22  1  0
M  CHG  2   2  -1  26  -1
M  END
>  <COMPND>  (136) 
    8629 

>  <AUTHOR>  (136) 
    GENERATED BY OPEN BABEL 3.1.1

>  <MASTER>  (136) 
        0    0    0    0    0    0    0    0   58    0   58    0

>  <minimizedAffinity>  (136) 
-8.12678

>  <CNNscore>  (136) 
0.3872490227

>  <CNNaffinity>  (136) 
4.2768239975

>  <CNN_VS>  (136) 
1.6561958790

>  <CNNaffinity_variance>  (136) 
0.0812208876

$$$$
137
     RDKit          3D

 43 45  0  0  0  0  0  0  0  0999 V2000
   21.3175   70.5127    0.6560 P   0  0  2  0  0  0  0  0  0  0  0  0
   21.2962   68.8955    0.6947 O   0  0  0  0  0  0  0  0  0  0  0  0
   22.2722   71.1104   -0.3353 O   0  0  0  0  0  0  0  0  0  0  0  0
   21.5521   70.9351    2.2001 O   0  0  0  0  0  0  0  0  0  0  0  0
   22.8153   70.6760    2.7875 C   0  0  0  0  0  0  0  0  0  0  0  0
   24.1646   71.0651    4.7374 O   0  0  0  0  0  0  0  0  0  0  0  0
   22.3000   73.3332    5.3454 O   0  0  0  0  0  0  0  0  0  0  0  0
   24.4554   74.6086    4.2666 O   0  0  0  0  0  0  0  0  0  0  0  0
   22.7703   72.8657    4.0822 C   0  0  1  0  0  0  0  0  0  0  0  0
   24.2145   73.2722    3.8757 C   0  0  2  0  0  0  0  0  0  0  0  0
   22.8742   71.3473    4.1528 C   0  0  1  0  0  0  0  0  0  0  0  0
   24.9520   72.2670    4.7439 C   0  0  2  0  0  0  0  0  0  0  0  0
   22.2251   74.3006    5.3245 H   0  0  0  0  0  0  0  0  0  0  0  0
   23.9647   75.2094    3.6845 H   0  0  0  0  0  0  0  0  0  0  0  0
   27.2707   73.7630    5.3468 O   0  0  0  0  0  0  0  0  0  0  0  0
   29.9299   71.0281    2.7604 O   0  0  0  0  0  0  0  0  0  0  0  0
   26.2635   71.9680    4.2420 N   0  0  0  0  0  0  0  0  0  0  0  0
   28.5929   72.3999    4.0586 N   0  0  0  0  0  0  0  0  0  0  0  0
   27.3612   72.7829    4.6047 C   0  0  0  0  0  0  0  0  0  0  0  0
   26.4513   70.8771    3.4003 C   0  0  0  0  0  0  0  0  0  0  0  0
   27.6322   70.5260    2.8870 C   0  0  0  0  0  0  0  0  0  0  0  0
   28.8301   71.3251    3.2165 C   0  0  0  0  0  0  0  0  0  0  0  0
   29.3719   72.9531    4.2972 H   0  0  0  0  0  0  0  0  0  0  0  0
   19.7656   70.8908    0.4076 O   0  0  0  0  0  0  0  0  0  0  0  0
   18.9311   71.1056   -0.9600 P   0  0  2  0  0  0  0  0  0  0  0  0
   17.6156   71.9096   -0.4696 O   0  0  0  0  0  0  0  0  0  0  0  0
   18.6387   69.8372   -1.7081 O   0  0  0  0  0  0  0  0  0  0  0  0
   19.7856   72.1919   -1.7936 O   0  0  0  0  0  0  0  0  0  0  0  0
   19.6322   73.3317   -3.8658 O   0  0  0  0  0  0  0  0  0  0  0  0
   23.5182   71.9650   -4.1506 O   0  0  0  0  0  0  0  0  0  0  0  0
   23.0274   74.7559   -3.6842 O   0  0  0  0  0  0  0  0  0  0  0  0
   21.4804   70.2860   -2.9641 O   0  0  0  0  0  0  0  0  0  0  0  0
   22.3600   72.4682   -3.4794 C   0  0  1  0  0  0  0  0  0  0  0  0
   22.0148   73.8337   -4.0771 C   0  0  1  0  0  0  0  0  0  0  0  0
   21.2046   71.4882   -3.6747 C   0  0  2  0  0  0  0  0  0  0  0  0
   20.6384   74.3156   -3.5992 C   0  0  1  0  0  0  0  0  0  0  0  0
   19.8740   72.0843   -3.2120 C   0  0  1  0  0  0  0  0  0  0  0  0
   24.2557   72.5824   -4.0301 H   0  0  0  0  0  0  0  0  0  0  0  0
   23.8914   74.4396   -3.9917 H   0  0  0  0  0  0  0  0  0  0  0  0
   22.3250   69.9184   -3.2663 H   0  0  0  0  0  0  0  0  0  0  0  0
   20.8826   76.6900   -3.7082 O   0  0  0  0  0  0  0  0  0  0  0  0
   20.2053   75.5991   -4.3044 C   0  0  0  0  0  0  0  0  0  0  0  0
   20.6170   77.5136   -4.1472 H   0  0  0  0  0  0  0  0  0  0  0  0
 25 28  1  0
 25 24  1  0
 25 26  1  1
 25 27  2  0
  1  4  1  0
  1 24  1  0
  1  2  1  1
  1  3  2  0
  6 11  1  0
  6 12  1  0
 29 36  1  0
 29 37  1  0
  9  7  1  1
  7 13  1  0
 10  8  1  1
  8 14  1  0
 37 28  1  1
  4  5  1  0
 33 30  1  6
 30 38  1  0
 34 31  1  1
 31 39  1  0
 35 32  1  1
 32 40  1  0
 41 42  1  0
 41 43  1  0
 15 19  2  0
 16 22  2  0
 12 17  1  6
 17 19  1  0
 17 20  1  0
 18 19  1  0
 18 22  1  0
 18 23  1  0
  9 10  1  0
  9 11  1  0
 10 12  1  0
 11  5  1  6
 33 34  1  0
 33 35  1  0
 34 36  1  0
 35 37  1  0
 36 42  1  6
 20 21  2  0
 21 22  1  0
M  CHG  2   2  -1  26  -1
M  END
>  <COMPND>  (137) 
    8629 

>  <AUTHOR>  (137) 
    GENERATED BY OPEN BABEL 3.1.1

>  <MASTER>  (137) 
        0    0    0    0    0    0    0    0   58    0   58    0

>  <minimizedAffinity>  (137) 
-8.22250

>  <CNNscore>  (137) 
0.3711932302

>  <CNNaffinity>  (137) 
4.5157198906

>  <CNN_VS>  (137) 
1.6762046814

>  <CNNaffinity_variance>  (137) 
0.0393717550

$$$$
138
     RDKit          3D

 43 45  0  0  0  0  0  0  0  0999 V2000
   26.8958   71.0522    3.5432 P   0  0  2  0  0  0  0  0  0  0  0  0
   26.7536   71.4884    5.0946 O   0  0  0  0  0  0  0  0  0  0  0  0
   27.4146   69.6620    3.3207 O   0  0  0  0  0  0  0  0  0  0  0  0
   27.7709   72.2426    2.8836 O   0  0  0  0  0  0  0  0  0  0  0  0
   27.1407   73.1132    1.9601 C   0  0  0  0  0  0  0  0  0  0  0  0
   29.4030   73.9194    2.0362 O   0  0  0  0  0  0  0  0  0  0  0  0
   28.4917   76.0958    0.1859 O   0  0  0  0  0  0  0  0  0  0  0  0
   29.7419   74.3613   -1.5067 O   0  0  0  0  0  0  0  0  0  0  0  0
   28.0887   74.7282    0.2379 C   0  0  1  0  0  0  0  0  0  0  0  0
   29.1782   73.8374   -0.3216 C   0  0  2  0  0  0  0  0  0  0  0  0
   28.0520   74.3051    1.7011 C   0  0  1  0  0  0  0  0  0  0  0  0
   30.1705   73.7934    0.8280 C   0  0  2  0  0  0  0  0  0  0  0  0
   28.5221   76.3888   -0.7388 H   0  0  0  0  0  0  0  0  0  0  0  0
   29.0718   74.3686   -2.2079 H   0  0  0  0  0  0  0  0  0  0  0  0
   32.9720   73.5970    0.5260 O   0  0  0  0  0  0  0  0  0  0  0  0
   32.8860   69.0137    1.0030 O   0  0  0  0  0  0  0  0  0  0  0  0
   30.9064   72.5613    0.8694 N   0  0  0  0  0  0  0  0  0  0  0  0
   32.9269   71.3151    0.7640 N   0  0  0  0  0  0  0  0  0  0  0  0
   32.3113   72.5719    0.7058 C   0  0  0  0  0  0  0  0  0  0  0  0
   30.2356   71.3598    1.0707 C   0  0  0  0  0  0  0  0  0  0  0  0
   30.8372   70.1696    1.1223 C   0  0  0  0  0  0  0  0  0  0  0  0
   32.3035   70.0930    0.9606 C   0  0  0  0  0  0  0  0  0  0  0  0
   33.9051   71.2979    0.6522 H   0  0  0  0  0  0  0  0  0  0  0  0
   25.4149   71.3201    2.9531 O   0  0  0  0  0  0  0  0  0  0  0  0
   24.0719   70.4221    3.0079 P   0  0  2  0  0  0  0  0  0  0  0  0
   23.2297   71.0877    4.2183 O   0  0  0  0  0  0  0  0  0  0  0  0
   24.3219   68.9500    3.1636 O   0  0  0  0  0  0  0  0  0  0  0  0
   23.2566   70.8247    1.6744 O   0  0  0  0  0  0  0  0  0  0  0  0
   21.6624   72.5782    1.6811 O   0  0  0  0  0  0  0  0  0  0  0  0
   20.2638   70.4272   -1.5543 O   0  0  0  0  0  0  0  0  0  0  0  0
   21.5880   72.9387   -1.9868 O   0  0  0  0  0  0  0  0  0  0  0  0
   21.2918   69.0379    0.7678 O   0  0  0  0  0  0  0  0  0  0  0  0
   21.2588   70.9638   -0.6783 C   0  0  1  0  0  0  0  0  0  0  0  0
   21.1507   72.4897   -0.7072 C   0  0  1  0  0  0  0  0  0  0  0  0
   21.0180   70.4344    0.7342 C   0  0  2  0  0  0  0  0  0  0  0  0
   21.9997   73.1263    0.4014 C   0  0  1  0  0  0  0  0  0  0  0  0
   21.8764   71.1680    1.7663 C   0  0  1  0  0  0  0  0  0  0  0  0
   20.4112   70.7591   -2.4530 H   0  0  0  0  0  0  0  0  0  0  0  0
   21.0441   72.5290   -2.6779 H   0  0  0  0  0  0  0  0  0  0  0  0
   20.7420   68.5848    0.1103 H   0  0  0  0  0  0  0  0  0  0  0  0
   21.8075   75.0119    1.8561 O   0  0  0  0  0  0  0  0  0  0  0  0
   21.7842   74.6354    0.4915 C   0  0  0  0  0  0  0  0  0  0  0  0
   21.6719   75.9701    1.9288 H   0  0  0  0  0  0  0  0  0  0  0  0
 25 28  1  0
 25 24  1  0
 25 26  1  1
 25 27  2  0
  1  4  1  0
  1 24  1  0
  1  2  1  1
  1  3  2  0
  6 11  1  0
  6 12  1  0
 29 36  1  0
 29 37  1  0
  9  7  1  1
  7 13  1  0
 10  8  1  6
  8 14  1  0
 37 28  1  6
  4  5  1  0
 33 30  1  6
 30 38  1  0
 34 31  1  6
 31 39  1  0
 35 32  1  6
 32 40  1  0
 41 42  1  0
 41 43  1  0
 15 19  2  0
 16 22  2  0
 12 17  1  1
 17 19  1  0
 17 20  1  0
 18 19  1  0
 18 22  1  0
 18 23  1  0
  9 10  1  0
  9 11  1  0
 10 12  1  0
 11  5  1  6
 33 34  1  0
 33 35  1  0
 34 36  1  0
 35 37  1  0
 36 42  1  1
 20 21  2  0
 21 22  1  0
M  CHG  2   2  -1  26  -1
M  END
>  <COMPND>  (138) 
    8629 

>  <AUTHOR>  (138) 
    GENERATED BY OPEN BABEL 3.1.1

>  <MASTER>  (138) 
        0    0    0    0    0    0    0    0   58    0   58    0

>  <minimizedAffinity>  (138) 
-7.49085

>  <CNNscore>  (138) 
0.3642118871

>  <CNNaffinity>  (138) 
3.9706599712

>  <CNN_VS>  (138) 
1.4461615086

>  <CNNaffinity_variance>  (138) 
0.3803143501

$$$$
139
     RDKit          3D

 43 45  0  0  0  0  0  0  0  0999 V2000
   19.6696   74.5024   -2.4452 P   0  0  2  0  0  0  0  0  0  0  0  0
   20.9996   75.4175   -2.5512 O   0  0  0  0  0  0  0  0  0  0  0  0
   18.4096   75.2506   -2.1227 O   0  0  0  0  0  0  0  0  0  0  0  0
   20.0819   73.3374   -1.4008 O   0  0  0  0  0  0  0  0  0  0  0  0
   21.3871   73.3546   -0.8495 C   0  0  0  0  0  0  0  0  0  0  0  0
   23.2492   71.9112   -0.3769 O   0  0  0  0  0  0  0  0  0  0  0  0
   21.7848   69.8183   -1.9474 O   0  0  0  0  0  0  0  0  0  0  0  0
   21.2692   69.0959    0.6311 O   0  0  0  0  0  0  0  0  0  0  0  0
   21.2643   70.8238   -1.0793 C   0  0  1  0  0  0  0  0  0  0  0  0
   21.5299   70.4592    0.3664 C   0  0  2  0  0  0  0  0  0  0  0  0
   22.1122   72.0778   -1.2521 C   0  0  1  0  0  0  0  0  0  0  0  0
   22.9999   70.8130    0.5156 C   0  0  2  0  0  0  0  0  0  0  0  0
   21.2591   69.0078   -1.8549 H   0  0  0  0  0  0  0  0  0  0  0  0
   20.3213   68.9209    0.5231 H   0  0  0  0  0  0  0  0  0  0  0  0
   23.9307   69.0572    2.5227 O   0  0  0  0  0  0  0  0  0  0  0  0
   24.2478   72.4629    5.6116 O   0  0  0  0  0  0  0  0  0  0  0  0
   23.3337   71.2141    1.8531 N   0  0  0  0  0  0  0  0  0  0  0  0
   24.0880   70.7544    4.0590 N   0  0  0  0  0  0  0  0  0  0  0  0
   23.7913   70.2536    2.7850 C   0  0  0  0  0  0  0  0  0  0  0  0
   23.2064   72.5469    2.2291 C   0  0  0  0  0  0  0  0  0  0  0  0
   23.4923   73.0082    3.4484 C   0  0  0  0  0  0  0  0  0  0  0  0
   23.9766   72.0697    4.4812 C   0  0  0  0  0  0  0  0  0  0  0  0
   24.4082   70.1034    4.7250 H   0  0  0  0  0  0  0  0  0  0  0  0
   19.6475   73.7275   -3.8637 O   0  0  0  0  0  0  0  0  0  0  0  0
   20.7597   73.6196   -5.0317 P   0  0  2  0  0  0  0  0  0  0  0  0
   21.8073   72.5340   -4.4473 O   0  0  0  0  0  0  0  0  0  0  0  0
   21.3782   74.9325   -5.4158 O   0  0  0  0  0  0  0  0  0  0  0  0
   20.0108   72.8543   -6.2394 O   0  0  0  0  0  0  0  0  0  0  0  0
   18.9640   70.8554   -5.5145 O   0  0  0  0  0  0  0  0  0  0  0  0
   18.5744   70.3617   -9.5956 O   0  0  0  0  0  0  0  0  0  0  0  0
   16.2614   70.9998   -8.0173 O   0  0  0  0  0  0  0  0  0  0  0  0
   20.9923   71.5218   -8.5057 O   0  0  0  0  0  0  0  0  0  0  0  0
   18.6248   71.0992   -8.3713 C   0  0  1  0  0  0  0  0  0  0  0  0
   17.5069   70.5909   -7.4588 C   0  0  1  0  0  0  0  0  0  0  0  0
   19.9895   70.8892   -7.7179 C   0  0  2  0  0  0  0  0  0  0  0  0
   17.6606   71.1419   -6.0348 C   0  0  1  0  0  0  0  0  0  0  0  0
   20.0199   71.4299   -6.2872 C   0  0  1  0  0  0  0  0  0  0  0  0
   17.7106   70.4911  -10.0158 H   0  0  0  0  0  0  0  0  0  0  0  0
   16.1771   70.6457   -8.9166 H   0  0  0  0  0  0  0  0  0  0  0  0
   20.9629   71.1708   -9.4089 H   0  0  0  0  0  0  0  0  0  0  0  0
   15.9829   69.4672   -5.7348 O   0  0  0  0  0  0  0  0  0  0  0  0
   16.6498   70.5247   -5.0706 C   0  0  0  0  0  0  0  0  0  0  0  0
   15.3367   69.0648   -5.1331 H   0  0  0  0  0  0  0  0  0  0  0  0
 25 28  1  0
 25 24  1  0
 25 26  1  1
 25 27  2  0
  1  4  1  0
  1 24  1  0
  1  2  1  6
  1  3  2  0
  6 11  1  0
  6 12  1  0
 29 36  1  0
 29 37  1  0
  9  7  1  6
  7 13  1  0
 10  8  1  6
  8 14  1  0
 37 28  1  6
  4  5  1  0
 33 30  1  6
 30 38  1  0
 34 31  1  6
 31 39  1  0
 35 32  1  6
 32 40  1  0
 41 42  1  0
 41 43  1  0
 15 19  2  0
 16 22  2  0
 12 17  1  1
 17 19  1  0
 17 20  1  0
 18 19  1  0
 18 22  1  0
 18 23  1  0
  9 10  1  0
  9 11  1  0
 10 12  1  0
 11  5  1  1
 33 34  1  0
 33 35  1  0
 34 36  1  0
 35 37  1  0
 36 42  1  1
 20 21  2  0
 21 22  1  0
M  CHG  2   2  -1  26  -1
M  END
>  <COMPND>  (139) 
    8629 

>  <AUTHOR>  (139) 
    GENERATED BY OPEN BABEL 3.1.1

>  <MASTER>  (139) 
        0    0    0    0    0    0    0    0   58    0   58    0

>  <minimizedAffinity>  (139) 
-7.90121

>  <CNNscore>  (139) 
0.3627361357

>  <CNNaffinity>  (139) 
4.0648822784

>  <CNN_VS>  (139) 
1.4744796753

>  <CNNaffinity_variance>  (139) 
0.2186610252

$$$$
140
     RDKit          3D

 43 45  0  0  0  0  0  0  0  0999 V2000
   19.0118   70.9005   -0.9310 P   0  0  2  0  0  0  0  0  0  0  0  0
   17.8928   71.7655   -0.1455 O   0  0  0  0  0  0  0  0  0  0  0  0
   18.4743   69.7656   -1.7522 O   0  0  0  0  0  0  0  0  0  0  0  0
   20.0691   70.4930    0.2239 O   0  0  0  0  0  0  0  0  0  0  0  0
   21.0405   71.4463    0.6181 C   0  0  0  0  0  0  0  0  0  0  0  0
   21.7351   71.2374    2.9089 O   0  0  0  0  0  0  0  0  0  0  0  0
   20.1522   73.7320    3.4209 O   0  0  0  0  0  0  0  0  0  0  0  0
   22.7112   74.6664    3.2982 O   0  0  0  0  0  0  0  0  0  0  0  0
   20.9244   73.3724    2.2764 C   0  0  1  0  0  0  0  0  0  0  0  0
   22.4031   73.4877    2.5824 C   0  0  2  0  0  0  0  0  0  0  0  0
   20.7618   71.8741    2.0525 C   0  0  1  0  0  0  0  0  0  0  0  0
   22.6562   72.2282    3.3935 C   0  0  2  0  0  0  0  0  0  0  0  0
   20.2401   74.6847    3.5837 H   0  0  0  0  0  0  0  0  0  0  0  0
   22.5336   75.4395    2.7401 H   0  0  0  0  0  0  0  0  0  0  0  0
   24.4893   71.8875    5.5152 O   0  0  0  0  0  0  0  0  0  0  0  0
   27.7691   70.3333    2.6747 O   0  0  0  0  0  0  0  0  0  0  0  0
   23.9957   71.7358    3.2369 N   0  0  0  0  0  0  0  0  0  0  0  0
   26.1208   71.1137    4.0991 N   0  0  0  0  0  0  0  0  0  0  0  0
   24.8360   71.6032    4.3669 C   0  0  0  0  0  0  0  0  0  0  0  0
   24.4638   71.3901    1.9739 C   0  0  0  0  0  0  0  0  0  0  0  0
   25.6921   70.9260    1.7352 C   0  0  0  0  0  0  0  0  0  0  0  0
   26.6329   70.7576    2.8615 C   0  0  0  0  0  0  0  0  0  0  0  0
   26.7239   71.0133    4.8711 H   0  0  0  0  0  0  0  0  0  0  0  0
   19.8115   72.0227   -1.7762 O   0  0  0  0  0  0  0  0  0  0  0  0
   20.8356   71.8858   -3.0193 P   0  0  2  0  0  0  0  0  0  0  0  0
   21.2667   70.3270   -2.9750 O   0  0  0  0  0  0  0  0  0  0  0  0
   21.9871   72.8482   -2.9767 O   0  0  0  0  0  0  0  0  0  0  0  0
   19.9048   72.0142   -4.3315 O   0  0  0  0  0  0  0  0  0  0  0  0
   18.7958   70.0157   -4.9585 O   0  0  0  0  0  0  0  0  0  0  0  0
   18.2116   72.2052   -8.4103 O   0  0  0  0  0  0  0  0  0  0  0  0
   16.0000   71.7314   -6.6404 O   0  0  0  0  0  0  0  0  0  0  0  0
   20.7255   72.3955   -6.9878 O   0  0  0  0  0  0  0  0  0  0  0  0
   18.3485   72.0070   -7.0006 C   0  0  1  0  0  0  0  0  0  0  0  0
   17.2472   71.0492   -6.5418 C   0  0  1  0  0  0  0  0  0  0  0  0
   19.7280   71.4184   -6.7109 C   0  0  2  0  0  0  0  0  0  0  0  0
   17.4867   70.5793   -5.1007 C   0  0  1  0  0  0  0  0  0  0  0  0
   19.8442   70.9375   -5.2634 C   0  0  1  0  0  0  0  0  0  0  0  0
   17.3380   72.5793   -8.6010 H   0  0  0  0  0  0  0  0  0  0  0  0
   15.8612   72.0233   -7.5552 H   0  0  0  0  0  0  0  0  0  0  0  0
   20.6415   72.6917   -7.9071 H   0  0  0  0  0  0  0  0  0  0  0  0
   15.8742   68.9779   -5.8387 O   0  0  0  0  0  0  0  0  0  0  0  0
   16.4893   69.5033   -4.6768 C   0  0  0  0  0  0  0  0  0  0  0  0
   15.2371   68.2916   -5.5843 H   0  0  0  0  0  0  0  0  0  0  0  0
 25 28  1  0
 25 24  1  0
 25 26  1  6
 25 27  2  0
  1  4  1  0
  1 24  1  0
  1  2  1  1
  1  3  2  0
  6 11  1  0
  6 12  1  0
 29 36  1  0
 29 37  1  0
  9  7  1  1
  7 13  1  0
 10  8  1  1
  8 14  1  0
 37 28  1  1
  4  5  1  0
 33 30  1  6
 30 38  1  0
 34 31  1  1
 31 39  1  0
 35 32  1  1
 32 40  1  0
 41 42  1  0
 41 43  1  0
 15 19  2  0
 16 22  2  0
 12 17  1  6
 17 19  1  0
 17 20  1  0
 18 19  1  0
 18 22  1  0
 18 23  1  0
  9 10  1  0
  9 11  1  0
 10 12  1  0
 11  5  1  6
 33 34  1  0
 33 35  1  0
 34 36  1  0
 35 37  1  0
 36 42  1  6
 20 21  2  0
 21 22  1  0
M  CHG  2   2  -1  26  -1
M  END
>  <COMPND>  (140) 
    8629 

>  <AUTHOR>  (140) 
    GENERATED BY OPEN BABEL 3.1.1

>  <MASTER>  (140) 
        0    0    0    0    0    0    0    0   58    0   58    0

>  <minimizedAffinity>  (140) 
-7.91266

>  <CNNscore>  (140) 
0.3623712957

>  <CNNaffinity>  (140) 
4.2734551430

>  <CNN_VS>  (140) 
1.5485774279

>  <CNNaffinity_variance>  (140) 
0.0348568521

$$$$
141
     RDKit          3D

 43 45  0  0  0  0  0  0  0  0999 V2000
   22.1816   69.8912    0.5117 P   0  0  2  0  0  0  0  0  0  0  0  0
   22.1772   71.4509    0.9415 O   0  0  0  0  0  0  0  0  0  0  0  0
   20.8528   69.2019    0.6141 O   0  0  0  0  0  0  0  0  0  0  0  0
   23.3763   69.2487    1.3936 O   0  0  0  0  0  0  0  0  0  0  0  0
   24.5301   70.0327    1.6421 C   0  0  0  0  0  0  0  0  0  0  0  0
   26.1943   70.0242    3.3753 O   0  0  0  0  0  0  0  0  0  0  0  0
   24.0756   71.1765    5.1568 O   0  0  0  0  0  0  0  0  0  0  0  0
   25.5553   73.3701    4.4975 O   0  0  0  0  0  0  0  0  0  0  0  0
   24.3134   71.4107    3.7698 C   0  0  1  0  0  0  0  0  0  0  0  0
   25.5327   72.2901    3.5865 C   0  0  2  0  0  0  0  0  0  0  0  0
   24.7705   70.0988    3.1441 C   0  0  1  0  0  0  0  0  0  0  0  0
   26.6678   71.3070    3.8171 C   0  0  2  0  0  0  0  0  0  0  0  0
   23.7822   72.0002    5.5780 H   0  0  0  0  0  0  0  0  0  0  0  0
   24.8142   73.9671    4.3099 H   0  0  0  0  0  0  0  0  0  0  0  0
   28.5195   73.2943    4.5914 O   0  0  0  0  0  0  0  0  0  0  0  0
   31.1593   72.5359    0.8904 O   0  0  0  0  0  0  0  0  0  0  0  0
   27.8481   71.6494    3.0747 N   0  0  0  0  0  0  0  0  0  0  0  0
   29.8325   72.9150    2.7480 N   0  0  0  0  0  0  0  0  0  0  0  0
   28.7120   72.6633    3.5500 C   0  0  0  0  0  0  0  0  0  0  0  0
   28.1392   70.9824    1.8896 C   0  0  0  0  0  0  0  0  0  0  0  0
   29.2111   71.2352    1.1358 C   0  0  0  0  0  0  0  0  0  0  0  0
   30.1644   72.2801    1.5617 C   0  0  0  0  0  0  0  0  0  0  0  0
   30.4484   73.6176    3.0592 H   0  0  0  0  0  0  0  0  0  0  0  0
   22.8081   69.9265   -0.9780 O   0  0  0  0  0  0  0  0  0  0  0  0
   22.5704   70.9509   -2.2056 P   0  0  2  0  0  0  0  0  0  0  0  0
   23.5929   70.4152   -3.3392 O   0  0  0  0  0  0  0  0  0  0  0  0
   22.7494   72.3970   -1.8438 O   0  0  0  0  0  0  0  0  0  0  0  0
   21.1048   70.5791   -2.7701 O   0  0  0  0  0  0  0  0  0  0  0  0
   19.9525   72.3981   -3.7600 O   0  0  0  0  0  0  0  0  0  0  0  0
   16.8153   69.7343   -3.4234 O   0  0  0  0  0  0  0  0  0  0  0  0
   17.9307   70.2917   -6.0105 O   0  0  0  0  0  0  0  0  0  0  0  0
   18.7985   69.9026   -1.3214 O   0  0  0  0  0  0  0  0  0  0  0  0
   18.1738   70.1272   -3.6367 C   0  0  1  0  0  0  0  0  0  0  0  0
   18.2182   71.0622   -4.8469 C   0  0  1  0  0  0  0  0  0  0  0  0
   18.6895   70.8395   -2.3877 C   0  0  2  0  0  0  0  0  0  0  0  0
   19.5914   71.7349   -4.9772 C   0  0  1  0  0  0  0  0  0  0  0  0
   20.0384   71.5156   -2.6394 C   0  0  1  0  0  0  0  0  0  0  0  0
   16.4820   69.2809   -4.2126 H   0  0  0  0  0  0  0  0  0  0  0  0
   17.0613   69.8720   -5.9152 H   0  0  0  0  0  0  0  0  0  0  0  0
   17.9381   69.4817   -1.1717 H   0  0  0  0  0  0  0  0  0  0  0  0
   20.9558   73.1290   -6.3569 O   0  0  0  0  0  0  0  0  0  0  0  0
   19.6093   72.7891   -6.0819 C   0  0  0  0  0  0  0  0  0  0  0  0
   20.9828   73.7989   -7.0584 H   0  0  0  0  0  0  0  0  0  0  0  0
 25 28  1  0
 25 24  1  0
 25 26  1  6
 25 27  2  0
  1  4  1  0
  1 24  1  0
  1  2  1  1
  1  3  2  0
  6 11  1  0
  6 12  1  0
 29 36  1  0
 29 37  1  0
  9  7  1  1
  7 13  1  0
 10  8  1  1
  8 14  1  0
 37 28  1  6
  4  5  1  0
 33 30  1  1
 30 38  1  0
 34 31  1  6
 31 39  1  0
 35 32  1  1
 32 40  1  0
 41 42  1  0
 41 43  1  0
 15 19  2  0
 16 22  2  0
 12 17  1  6
 17 19  1  0
 17 20  1  0
 18 19  1  0
 18 22  1  0
 18 23  1  0
  9 10  1  0
  9 11  1  0
 10 12  1  0
 11  5  1  6
 33 34  1  0
 33 35  1  0
 34 36  1  0
 35 37  1  0
 36 42  1  6
 20 21  2  0
 21 22  1  0
M  CHG  2   2  -1  26  -1
M  END
>  <COMPND>  (141) 
    8629 

>  <AUTHOR>  (141) 
    GENERATED BY OPEN BABEL 3.1.1

>  <MASTER>  (141) 
        0    0    0    0    0    0    0    0   58    0   58    0

>  <minimizedAffinity>  (141) 
-8.51229

>  <CNNscore>  (141) 
0.8001729846

>  <CNNaffinity>  (141) 
4.8946113586

>  <CNN_VS>  (141) 
3.9165358543

>  <CNNaffinity_variance>  (141) 
0.0381343365

$$$$
142
     RDKit          3D

 43 45  0  0  0  0  0  0  0  0999 V2000
   20.7953   70.8135   -0.6598 P   0  0  2  0  0  0  0  0  0  0  0  0
   20.3010   69.8539    0.5453 O   0  0  0  0  0  0  0  0  0  0  0  0
   20.9894   72.2533   -0.2846 O   0  0  0  0  0  0  0  0  0  0  0  0
   19.7271   70.5335   -1.8424 O   0  0  0  0  0  0  0  0  0  0  0  0
   19.5064   71.5467   -2.8081 C   0  0  0  0  0  0  0  0  0  0  0  0
   17.7580   72.2145   -4.3150 O   0  0  0  0  0  0  0  0  0  0  0  0
   15.8667   70.8586   -2.4242 O   0  0  0  0  0  0  0  0  0  0  0  0
   16.1369   69.0169   -4.4172 O   0  0  0  0  0  0  0  0  0  0  0  0
   17.1935   70.4870   -2.7943 C   0  0  1  0  0  0  0  0  0  0  0  0
   17.2072   69.9125   -4.1955 C   0  0  2  0  0  0  0  0  0  0  0  0
   18.0076   71.7633   -2.9658 C   0  0  1  0  0  0  0  0  0  0  0  0
   17.1084   71.1646   -5.0503 C   0  0  2  0  0  0  0  0  0  0  0  0
   15.3277   70.0597   -2.3087 H   0  0  0  0  0  0  0  0  0  0  0  0
   16.2450   68.2371   -3.8508 H   0  0  0  0  0  0  0  0  0  0  0  0
   15.8353   70.2401   -7.3960 O   0  0  0  0  0  0  0  0  0  0  0  0
   19.7067   70.6223   -9.8674 O   0  0  0  0  0  0  0  0  0  0  0  0
   17.7598   71.0131   -6.3208 N   0  0  0  0  0  0  0  0  0  0  0  0
   17.7640   70.4313   -8.6247 N   0  0  0  0  0  0  0  0  0  0  0  0
   17.0303   70.5401   -7.4365 C   0  0  0  0  0  0  0  0  0  0  0  0
   19.1069   71.3325   -6.4514 C   0  0  0  0  0  0  0  0  0  0  0  0
   19.7923   71.2219   -7.5912 C   0  0  0  0  0  0  0  0  0  0  0  0
   19.1042   70.7350   -8.8043 C   0  0  0  0  0  0  0  0  0  0  0  0
   17.2766   70.1034   -9.4151 H   0  0  0  0  0  0  0  0  0  0  0  0
   22.1291   70.0712   -1.1918 O   0  0  0  0  0  0  0  0  0  0  0  0
   23.2947   69.2834   -0.3957 P   0  0  2  0  0  0  0  0  0  0  0  0
   24.5323   69.3004   -1.4375 O   0  0  0  0  0  0  0  0  0  0  0  0
   22.9004   67.9135    0.0753 O   0  0  0  0  0  0  0  0  0  0  0  0
   23.7394   70.2933    0.7821 O   0  0  0  0  0  0  0  0  0  0  0  0
   24.8217   69.3855    2.6850 O   0  0  0  0  0  0  0  0  0  0  0  0
   23.6131   72.9996    4.2750 O   0  0  0  0  0  0  0  0  0  0  0  0
   26.3913   72.5656    3.6911 O   0  0  0  0  0  0  0  0  0  0  0  0
   21.8789   71.5738    2.4477 O   0  0  0  0  0  0  0  0  0  0  0  0
   24.0832   72.1186    3.2512 C   0  0  1  0  0  0  0  0  0  0  0  0
   25.4182   71.5249    3.7052 C   0  0  1  0  0  0  0  0  0  0  0  0
   23.0511   71.0143    3.0303 C   0  0  2  0  0  0  0  0  0  0  0  0
   25.8532   70.3741    2.7879 C   0  0  1  0  0  0  0  0  0  0  0  0
   23.6016   69.8958    2.1438 C   0  0  1  0  0  0  0  0  0  0  0  0
   24.2636   73.7034    4.4199 H   0  0  0  0  0  0  0  0  0  0  0  0
   26.1043   73.2862    4.2738 H   0  0  0  0  0  0  0  0  0  0  0  0
   21.5399   72.2804    3.0184 H   0  0  0  0  0  0  0  0  0  0  0  0
   28.2414   70.3712    2.8616 O   0  0  0  0  0  0  0  0  0  0  0  0
   27.1000   69.6649    3.3120 C   0  0  0  0  0  0  0  0  0  0  0  0
   29.0425   69.9314    3.1879 H   0  0  0  0  0  0  0  0  0  0  0  0
 25 28  1  0
 25 24  1  0
 25 26  1  6
 25 27  2  0
  1  4  1  0
  1 24  1  0
  1  2  1  1
  1  3  2  0
  6 11  1  0
  6 12  1  0
 29 36  1  0
 29 37  1  0
  9  7  1  6
  7 13  1  0
 10  8  1  1
  8 14  1  0
 37 28  1  6
  4  5  1  0
 33 30  1  1
 30 38  1  0
 34 31  1  6
 31 39  1  0
 35 32  1  6
 32 40  1  0
 41 42  1  0
 41 43  1  0
 15 19  2  0
 16 22  2  0
 12 17  1  6
 17 19  1  0
 17 20  1  0
 18 19  1  0
 18 22  1  0
 18 23  1  0
  9 10  1  0
  9 11  1  0
 10 12  1  0
 11  5  1  6
 33 34  1  0
 33 35  1  0
 34 36  1  0
 35 37  1  0
 36 42  1  1
 20 21  2  0
 21 22  1  0
M  CHG  2   2  -1  26  -1
M  END
>  <COMPND>  (142) 
    8629 

>  <AUTHOR>  (142) 
    GENERATED BY OPEN BABEL 3.1.1

>  <MASTER>  (142) 
        0    0    0    0    0    0    0    0   58    0   58    0

>  <minimizedAffinity>  (142) 
-9.16362

>  <CNNscore>  (142) 
0.7136628032

>  <CNNaffinity>  (142) 
4.7681961060

>  <CNN_VS>  (142) 
3.4028842449

>  <CNNaffinity_variance>  (142) 
0.2649938464

$$$$
143
     RDKit          3D

 43 45  0  0  0  0  0  0  0  0999 V2000
   20.7200   70.5185   -0.0052 P   0  0  2  0  0  0  0  0  0  0  0  0
   19.1701   70.9551   -0.1628 O   0  0  0  0  0  0  0  0  0  0  0  0
   20.9422   69.2141    0.7022 O   0  0  0  0  0  0  0  0  0  0  0  0
   21.4212   71.8116    0.6685 O   0  0  0  0  0  0  0  0  0  0  0  0
   22.6935   71.6533    1.2720 C   0  0  0  0  0  0  0  0  0  0  0  0
   23.6516   70.7744    3.2927 O   0  0  0  0  0  0  0  0  0  0  0  0
   21.8006   72.6262    4.7541 O   0  0  0  0  0  0  0  0  0  0  0  0
   24.1764   73.9612    4.8521 O   0  0  0  0  0  0  0  0  0  0  0  0
   22.4883   72.8264    3.5203 C   0  0  1  0  0  0  0  0  0  0  0  0
   23.9608   73.0744    3.7733 C   0  0  2  0  0  0  0  0  0  0  0  0
   22.5130   71.4973    2.7757 C   0  0  1  0  0  0  0  0  0  0  0  0
   24.4721   71.6724    4.0577 C   0  0  2  0  0  0  0  0  0  0  0  0
   21.7718   73.4616    5.2472 H   0  0  0  0  0  0  0  0  0  0  0  0
   23.8342   74.8392    4.6225 H   0  0  0  0  0  0  0  0  0  0  0  0
   26.6863   72.1636    5.7412 O   0  0  0  0  0  0  0  0  0  0  0  0
   29.6853   70.9761    2.4493 O   0  0  0  0  0  0  0  0  0  0  0  0
   25.8427   71.4995    3.6665 N   0  0  0  0  0  0  0  0  0  0  0  0
   28.1778   71.5717    4.1008 N   0  0  0  0  0  0  0  0  0  0  0  0
   26.8801   71.7747    4.5876 C   0  0  0  0  0  0  0  0  0  0  0  0
   26.1468   71.0612    2.3822 C   0  0  0  0  0  0  0  0  0  0  0  0
   27.3895   70.8739    1.9331 C   0  0  0  0  0  0  0  0  0  0  0  0
   28.5310   71.1387    2.8325 C   0  0  0  0  0  0  0  0  0  0  0  0
   28.9166   71.7575    4.7247 H   0  0  0  0  0  0  0  0  0  0  0  0
   21.2658   70.5604   -1.5262 O   0  0  0  0  0  0  0  0  0  0  0  0
   20.8879   71.5298   -2.7633 P   0  0  2  0  0  0  0  0  0  0  0  0
   22.1402   71.3497   -3.7717 O   0  0  0  0  0  0  0  0  0  0  0  0
   20.6102   72.9514   -2.3685 O   0  0  0  0  0  0  0  0  0  0  0  0
   19.6594   70.7888   -3.5025 O   0  0  0  0  0  0  0  0  0  0  0  0
   17.9512   72.1577   -4.4107 O   0  0  0  0  0  0  0  0  0  0  0  0
   15.9316   68.5572   -4.3173 O   0  0  0  0  0  0  0  0  0  0  0  0
   16.7935   69.6346   -6.8361 O   0  0  0  0  0  0  0  0  0  0  0  0
   17.7258   69.2628   -2.1580 O   0  0  0  0  0  0  0  0  0  0  0  0
   17.0702   69.4088   -4.4710 C   0  0  1  0  0  0  0  0  0  0  0  0
   16.7918   70.3788   -5.6210 C   0  0  1  0  0  0  0  0  0  0  0  0
   17.3024   70.1719   -3.1683 C   0  0  2  0  0  0  0  0  0  0  0  0
   17.8468   71.4919   -5.6746 C   0  0  1  0  0  0  0  0  0  0  0  0
   18.3339   71.2879   -3.3435 C   0  0  1  0  0  0  0  0  0  0  0  0
   15.7790   68.0694   -5.1408 H   0  0  0  0  0  0  0  0  0  0  0  0
   16.1233   68.9347   -6.7890 H   0  0  0  0  0  0  0  0  0  0  0  0
   17.0643   68.5614   -2.0564 H   0  0  0  0  0  0  0  0  0  0  0  0
   18.0000   72.1378   -7.9699 O   0  0  0  0  0  0  0  0  0  0  0  0
   17.5019   72.5574   -6.7129 C   0  0  0  0  0  0  0  0  0  0  0  0
   17.7875   72.8061   -8.6406 H   0  0  0  0  0  0  0  0  0  0  0  0
 25 28  1  0
 25 24  1  0
 25 26  1  6
 25 27  2  0
  1  4  1  0
  1 24  1  0
  1  2  1  6
  1  3  2  0
  6 11  1  0
  6 12  1  0
 29 36  1  0
 29 37  1  0
  9  7  1  1
  7 13  1  0
 10  8  1  1
  8 14  1  0
 37 28  1  6
  4  5  1  0
 33 30  1  1
 30 38  1  0
 34 31  1  6
 31 39  1  0
 35 32  1  1
 32 40  1  0
 41 42  1  0
 41 43  1  0
 15 19  2  0
 16 22  2  0
 12 17  1  6
 17 19  1  0
 17 20  1  0
 18 19  1  0
 18 22  1  0
 18 23  1  0
  9 10  1  0
  9 11  1  0
 10 12  1  0
 11  5  1  6
 33 34  1  0
 33 35  1  0
 34 36  1  0
 35 37  1  0
 36 42  1  6
 20 21  2  0
 21 22  1  0
M  CHG  2   2  -1  26  -1
M  END
>  <COMPND>  (143) 
    8629 

>  <AUTHOR>  (143) 
    GENERATED BY OPEN BABEL 3.1.1

>  <MASTER>  (143) 
        0    0    0    0    0    0    0    0   58    0   58    0

>  <minimizedAffinity>  (143) 
-8.54607

>  <CNNscore>  (143) 
0.6751197577

>  <CNNaffinity>  (143) 
4.6488776207

>  <CNN_VS>  (143) 
3.1385490894

>  <CNNaffinity_variance>  (143) 
0.0787086487

$$$$
144
     RDKit          3D

 43 45  0  0  0  0  0  0  0  0999 V2000
   22.0472   70.9137   -2.1175 P   0  0  2  0  0  0  0  0  0  0  0  0
   22.9649   72.1573   -2.5957 O   0  0  0  0  0  0  0  0  0  0  0  0
   21.9115   69.8044   -3.1186 O   0  0  0  0  0  0  0  0  0  0  0  0
   20.6640   71.6097   -1.6481 O   0  0  0  0  0  0  0  0  0  0  0  0
   19.8732   72.2673   -2.6228 C   0  0  0  0  0  0  0  0  0  0  0  0
   17.7834   71.9692   -3.7706 O   0  0  0  0  0  0  0  0  0  0  0  0
   17.0394   70.1063   -1.5420 O   0  0  0  0  0  0  0  0  0  0  0  0
   17.7569   68.3904   -3.5364 O   0  0  0  0  0  0  0  0  0  0  0  0
   18.3095   70.3151   -2.1573 C   0  0  1  0  0  0  0  0  0  0  0  0
   18.3394   69.6779   -3.5309 C   0  0  2  0  0  0  0  0  0  0  0  0
   18.4312   71.7966   -2.4912 C   0  0  1  0  0  0  0  0  0  0  0  0
   17.5528   70.6790   -4.3598 C   0  0  2  0  0  0  0  0  0  0  0  0
   16.9387   69.1670   -1.3192 H   0  0  0  0  0  0  0  0  0  0  0  0
   18.2936   67.7903   -2.9956 H   0  0  0  0  0  0  0  0  0  0  0  0
   15.9216   69.9683   -6.5535 O   0  0  0  0  0  0  0  0  0  0  0  0
   19.2927   70.8332   -9.5750 O   0  0  0  0  0  0  0  0  0  0  0  0
   17.9785   70.7096   -5.7307 N   0  0  0  0  0  0  0  0  0  0  0  0
   17.6014   70.3997   -8.0562 N   0  0  0  0  0  0  0  0  0  0  0  0
   17.0817   70.3321   -6.7572 C   0  0  0  0  0  0  0  0  0  0  0  0
   19.2722   71.1108   -6.0458 C   0  0  0  0  0  0  0  0  0  0  0  0
   19.7527   71.1686   -7.2895 C   0  0  0  0  0  0  0  0  0  0  0  0
   18.8802   70.7908   -8.4201 C   0  0  0  0  0  0  0  0  0  0  0  0
   16.9948   70.1410   -8.7876 H   0  0  0  0  0  0  0  0  0  0  0  0
   22.7275   70.4771   -0.7176 O   0  0  0  0  0  0  0  0  0  0  0  0
   22.2961   69.3618    0.3700 P   0  0  2  0  0  0  0  0  0  0  0  0
   22.9510   68.0021   -0.2132 O   0  0  0  0  0  0  0  0  0  0  0  0
   20.8172   69.2811    0.6153 O   0  0  0  0  0  0  0  0  0  0  0  0
   23.1735   69.7076    1.6798 O   0  0  0  0  0  0  0  0  0  0  0  0
   23.1318   72.0660    1.4493 O   0  0  0  0  0  0  0  0  0  0  0  0
   24.4932   71.8073    5.3391 O   0  0  0  0  0  0  0  0  0  0  0  0
   21.8047   72.6812    4.8329 O   0  0  0  0  0  0  0  0  0  0  0  0
   25.4139   69.9083    3.3577 O   0  0  0  0  0  0  0  0  0  0  0  0
   23.7290   71.4109    4.1970 C   0  0  1  0  0  0  0  0  0  0  0  0
   22.7986   72.5650    3.8185 C   0  0  1  0  0  0  0  0  0  0  0  0
   24.6810   71.0884    3.0468 C   0  0  2  0  0  0  0  0  0  0  0  0
   22.1423   72.3224    2.4527 C   0  0  1  0  0  0  0  0  0  0  0  0
   23.9311   70.9140    1.7249 C   0  0  1  0  0  0  0  0  0  0  0  0
   23.8946   72.0130    6.0732 H   0  0  0  0  0  0  0  0  0  0  0  0
   22.2323   72.8337    5.6903 H   0  0  0  0  0  0  0  0  0  0  0  0
   25.8844   70.0316    4.1963 H   0  0  0  0  0  0  0  0  0  0  0  0
   21.3935   73.5896    0.5706 O   0  0  0  0  0  0  0  0  0  0  0  0
   21.3342   73.5304    1.9838 C   0  0  0  0  0  0  0  0  0  0  0  0
   20.8832   74.3536    0.2579 H   0  0  0  0  0  0  0  0  0  0  0  0
 25 28  1  0
 25 24  1  0
 25 26  1  6
 25 27  2  0
  1  4  1  0
  1 24  1  0
  1  2  1  6
  1  3  2  0
  6 11  1  0
  6 12  1  0
 29 36  1  0
 29 37  1  0
  9  7  1  6
  7 13  1  0
 10  8  1  1
  8 14  1  0
 37 28  1  1
  4  5  1  0
 33 30  1  1
 30 38  1  0
 34 31  1  1
 31 39  1  0
 35 32  1  1
 32 40  1  0
 41 42  1  0
 41 43  1  0
 15 19  2  0
 16 22  2  0
 12 17  1  6
 17 19  1  0
 17 20  1  0
 18 19  1  0
 18 22  1  0
 18 23  1  0
  9 10  1  0
  9 11  1  0
 10 12  1  0
 11  5  1  6
 33 34  1  0
 33 35  1  0
 34 36  1  0
 35 37  1  0
 36 42  1  6
 20 21  2  0
 21 22  1  0
M  CHG  2   2  -1  26  -1
M  END
>  <COMPND>  (144) 
    8629 

>  <AUTHOR>  (144) 
    GENERATED BY OPEN BABEL 3.1.1

>  <MASTER>  (144) 
        0    0    0    0    0    0    0    0   58    0   58    0

>  <minimizedAffinity>  (144) 
-8.91610

>  <CNNscore>  (144) 
0.6645767689

>  <CNNaffinity>  (144) 
4.7498569489

>  <CNN_VS>  (144) 
3.1566445827

>  <CNNaffinity_variance>  (144) 
0.1221247539

$$$$
145
     RDKit          3D

 43 45  0  0  0  0  0  0  0  0999 V2000
   22.0973   69.9470   -0.4288 P   0  0  2  0  0  0  0  0  0  0  0  0
   21.0422   69.3243    0.6278 O   0  0  0  0  0  0  0  0  0  0  0  0
   22.6938   68.9577   -1.3864 O   0  0  0  0  0  0  0  0  0  0  0  0
   23.1514   70.7482    0.5011 O   0  0  0  0  0  0  0  0  0  0  0  0
   24.1219   70.0050    1.2177 C   0  0  0  0  0  0  0  0  0  0  0  0
   25.0172   69.8487    3.4420 O   0  0  0  0  0  0  0  0  0  0  0  0
   22.5156   71.2335    4.3448 O   0  0  0  0  0  0  0  0  0  0  0  0
   24.3444   73.2563    4.3357 O   0  0  0  0  0  0  0  0  0  0  0  0
   23.2716   71.4247    3.1502 C   0  0  1  0  0  0  0  0  0  0  0  0
   24.5531   72.1728    3.4530 C   0  0  2  0  0  0  0  0  0  0  0  0
   23.7949   70.0653    2.7035 C   0  0  1  0  0  0  0  0  0  0  0  0
   25.4187   71.0820    4.0606 C   0  0  2  0  0  0  0  0  0  0  0  0
   22.1706   72.0881    4.6492 H   0  0  0  0  0  0  0  0  0  0  0  0
   23.7885   73.9233    3.9034 H   0  0  0  0  0  0  0  0  0  0  0  0
   27.0192   72.9468    5.4530 O   0  0  0  0  0  0  0  0  0  0  0  0
   30.7735   71.8059    3.0353 O   0  0  0  0  0  0  0  0  0  0  0  0
   26.8176   71.2928    3.8157 N   0  0  0  0  0  0  0  0  0  0  0  0
   28.8873   72.3771    4.2482 N   0  0  0  0  0  0  0  0  0  0  0  0
   27.5295   72.2545    4.5698 C   0  0  0  0  0  0  0  0  0  0  0  0
   27.4694   70.5501    2.8372 C   0  0  0  0  0  0  0  0  0  0  0  0
   28.7644   70.6799    2.5418 C   0  0  0  0  0  0  0  0  0  0  0  0
   29.5803   71.6629    3.2836 C   0  0  0  0  0  0  0  0  0  0  0  0
   29.4034   73.0412    4.7604 H   0  0  0  0  0  0  0  0  0  0  0  0
   21.2532   71.1352   -1.1280 O   0  0  0  0  0  0  0  0  0  0  0  0
   19.6865   71.2407   -1.5116 P   0  0  2  0  0  0  0  0  0  0  0  0
   19.3234   72.7796   -1.1690 O   0  0  0  0  0  0  0  0  0  0  0  0
   18.8150   70.2307   -0.8229 O   0  0  0  0  0  0  0  0  0  0  0  0
   19.6545   71.1634   -3.1234 O   0  0  0  0  0  0  0  0  0  0  0  0
   19.7193   72.3177   -5.1922 O   0  0  0  0  0  0  0  0  0  0  0  0
   15.6842   71.4534   -5.0451 O   0  0  0  0  0  0  0  0  0  0  0  0
   17.3712   70.0381   -6.8888 O   0  0  0  0  0  0  0  0  0  0  0  0
   17.0916   72.1928   -2.6260 O   0  0  0  0  0  0  0  0  0  0  0  0
   17.0770   71.2131   -4.8264 C   0  0  1  0  0  0  0  0  0  0  0  0
   17.7816   71.2067   -6.1844 C   0  0  1  0  0  0  0  0  0  0  0  0
   17.6398   72.3176   -3.9338 C   0  0  2  0  0  0  0  0  0  0  0  0
   19.3070   71.2217   -6.0171 C   0  0  1  0  0  0  0  0  0  0  0  0
   19.1678   72.2724   -3.8748 C   0  0  1  0  0  0  0  0  0  0  0  0
   15.3205   70.7553   -5.6107 H   0  0  0  0  0  0  0  0  0  0  0  0
   16.4060   70.0406   -6.9872 H   0  0  0  0  0  0  0  0  0  0  0  0
   16.1240   72.2232   -2.6769 H   0  0  0  0  0  0  0  0  0  0  0  0
   20.9152   72.4736   -7.2642 O   0  0  0  0  0  0  0  0  0  0  0  0
   20.0276   71.3745   -7.3548 C   0  0  0  0  0  0  0  0  0  0  0  0
   21.3811   72.5827   -8.1084 H   0  0  0  0  0  0  0  0  0  0  0  0
 25 28  1  0
 25 24  1  0
 25 26  1  6
 25 27  2  0
  1  4  1  0
  1 24  1  0
  1  2  1  1
  1  3  2  0
  6 11  1  0
  6 12  1  0
 29 36  1  0
 29 37  1  0
  9  7  1  1
  7 13  1  0
 10  8  1  1
  8 14  1  0
 37 28  1  6
  4  5  1  0
 33 30  1  6
 30 38  1  0
 34 31  1  1
 31 39  1  0
 35 32  1  1
 32 40  1  0
 41 42  1  0
 41 43  1  0
 15 19  2  0
 16 22  2  0
 12 17  1  6
 17 19  1  0
 17 20  1  0
 18 19  1  0
 18 22  1  0
 18 23  1  0
  9 10  1  0
  9 11  1  0
 10 12  1  0
 11  5  1  6
 33 34  1  0
 33 35  1  0
 34 36  1  0
 35 37  1  0
 36 42  1  6
 20 21  2  0
 21 22  1  0
M  CHG  2   2  -1  26  -1
M  END
>  <COMPND>  (145) 
    8629 

>  <AUTHOR>  (145) 
    GENERATED BY OPEN BABEL 3.1.1

>  <MASTER>  (145) 
        0    0    0    0    0    0    0    0   58    0   58    0

>  <minimizedAffinity>  (145) 
-8.49540

>  <CNNscore>  (145) 
0.6336773634

>  <CNNaffinity>  (145) 
4.6334600449

>  <CNN_VS>  (145) 
2.9361188412

>  <CNNaffinity_variance>  (145) 
0.0402065888

$$$$
146
     RDKit          3D

 43 45  0  0  0  0  0  0  0  0999 V2000
   20.2813   70.7934   -0.0215 P   0  0  2  0  0  0  0  0  0  0  0  0
   20.8326   69.3890    0.5627 O   0  0  0  0  0  0  0  0  0  0  0  0
   19.3687   71.5484    0.8996 O   0  0  0  0  0  0  0  0  0  0  0  0
   19.6564   70.3969   -1.4603 O   0  0  0  0  0  0  0  0  0  0  0  0
   19.4941   71.4163   -2.4310 C   0  0  0  0  0  0  0  0  0  0  0  0
   17.8131   72.1749   -3.9714 O   0  0  0  0  0  0  0  0  0  0  0  0
   15.8259   70.8261   -2.1763 O   0  0  0  0  0  0  0  0  0  0  0  0
   16.1048   69.0304   -4.2096 O   0  0  0  0  0  0  0  0  0  0  0  0
   17.1523   70.4254   -2.5160 C   0  0  1  0  0  0  0  0  0  0  0  0
   17.1929   69.8879   -3.9313 C   0  0  2  0  0  0  0  0  0  0  0  0
   18.0077   71.6812   -2.6280 C   0  0  1  0  0  0  0  0  0  0  0  0
   17.1567   71.1644   -4.7543 C   0  0  2  0  0  0  0  0  0  0  0  0
   15.2609   70.0408   -2.0988 H   0  0  0  0  0  0  0  0  0  0  0  0
   16.1728   68.2331   -3.6616 H   0  0  0  0  0  0  0  0  0  0  0  0
   15.9879   70.1277   -7.1074 O   0  0  0  0  0  0  0  0  0  0  0  0
   19.8837   70.6836   -9.5063 O   0  0  0  0  0  0  0  0  0  0  0  0
   17.8425   71.0272   -6.0082 N   0  0  0  0  0  0  0  0  0  0  0  0
   17.9286   70.4055   -8.3000 N   0  0  0  0  0  0  0  0  0  0  0  0
   17.1648   70.4939   -7.1292 C   0  0  0  0  0  0  0  0  0  0  0  0
   19.1722   71.4197   -6.1174 C   0  0  0  0  0  0  0  0  0  0  0  0
   19.8868   71.3277   -7.2408 C   0  0  0  0  0  0  0  0  0  0  0  0
   19.2532   70.7811   -8.4581 C   0  0  0  0  0  0  0  0  0  0  0  0
   17.4774   70.0366   -9.0938 H   0  0  0  0  0  0  0  0  0  0  0  0
   21.6371   71.5792   -0.4183 O   0  0  0  0  0  0  0  0  0  0  0  0
   22.2763   72.9490    0.1542 P   0  0  2  0  0  0  0  0  0  0  0  0
   20.9767   73.8326    0.5388 O   0  0  0  0  0  0  0  0  0  0  0  0
   23.2279   73.6256   -0.7896 O   0  0  0  0  0  0  0  0  0  0  0  0
   22.9231   72.5358    1.5740 O   0  0  0  0  0  0  0  0  0  0  0  0
   25.1435   72.8491    2.3409 O   0  0  0  0  0  0  0  0  0  0  0  0
   24.3070   69.2542    4.1924 O   0  0  0  0  0  0  0  0  0  0  0  0
   24.4579   71.6555    5.7606 O   0  0  0  0  0  0  0  0  0  0  0  0
   23.3323   69.7602    1.5141 O   0  0  0  0  0  0  0  0  0  0  0  0
   24.0110   70.5575    3.6832 C   0  0  1  0  0  0  0  0  0  0  0  0
   24.9002   71.5692    4.4088 C   0  0  1  0  0  0  0  0  0  0  0  0
   24.2857   70.5806    2.1807 C   0  0  2  0  0  0  0  0  0  0  0  0
   24.8346   72.9470    3.7362 C   0  0  1  0  0  0  0  0  0  0  0  0
   24.2444   72.0036    1.6208 C   0  0  1  0  0  0  0  0  0  0  0  0
   24.1342   69.2327    5.1459 H   0  0  0  0  0  0  0  0  0  0  0  0
   24.5038   70.7789    6.1737 H   0  0  0  0  0  0  0  0  0  0  0  0
   23.3685   68.8621    1.8773 H   0  0  0  0  0  0  0  0  0  0  0  0
   25.2488   74.5031    5.5014 O   0  0  0  0  0  0  0  0  0  0  0  0
   25.8322   73.9293    4.3461 C   0  0  0  0  0  0  0  0  0  0  0  0
   25.8726   75.1302    5.9004 H   0  0  0  0  0  0  0  0  0  0  0  0
 25 28  1  0
 25 24  1  0
 25 26  1  1
 25 27  2  0
  1  4  1  0
  1 24  1  0
  1  2  1  1
  1  3  2  0
  6 11  1  0
  6 12  1  0
 29 36  1  0
 29 37  1  0
  9  7  1  6
  7 13  1  0
 10  8  1  6
  8 14  1  0
 37 28  1  1
  4  5  1  0
 33 30  1  1
 30 38  1  0
 34 31  1  1
 31 39  1  0
 35 32  1  6
 32 40  1  0
 41 42  1  0
 41 43  1  0
 15 19  2  0
 16 22  2  0
 12 17  1  6
 17 19  1  0
 17 20  1  0
 18 19  1  0
 18 22  1  0
 18 23  1  0
  9 10  1  0
  9 11  1  0
 10 12  1  0
 11  5  1  6
 33 34  1  0
 33 35  1  0
 34 36  1  0
 35 37  1  0
 36 42  1  1
 20 21  2  0
 21 22  1  0
M  CHG  2   2  -1  26  -1
M  END
>  <COMPND>  (146) 
    8629 

>  <AUTHOR>  (146) 
    GENERATED BY OPEN BABEL 3.1.1

>  <MASTER>  (146) 
        0    0    0    0    0    0    0    0   58    0   58    0

>  <minimizedAffinity>  (146) 
-8.62557

>  <CNNscore>  (146) 
0.6325659752

>  <CNNaffinity>  (146) 
4.8696026802

>  <CNN_VS>  (146) 
3.0803449154

>  <CNNaffinity_variance>  (146) 
0.1499530077

$$$$
147
     RDKit          3D

 43 45  0  0  0  0  0  0  0  0999 V2000
   21.6876   70.2404   -0.4724 P   0  0  2  0  0  0  0  0  0  0  0  0
   22.5463   69.3185   -1.4873 O   0  0  0  0  0  0  0  0  0  0  0  0
   20.6565   69.5057    0.3328 O   0  0  0  0  0  0  0  0  0  0  0  0
   21.1272   71.4333   -1.4109 O   0  0  0  0  0  0  0  0  0  0  0  0
   20.4948   71.0924   -2.6322 C   0  0  0  0  0  0  0  0  0  0  0  0
   18.4781   71.8380   -3.7049 O   0  0  0  0  0  0  0  0  0  0  0  0
   17.0088   70.2497   -1.6291 O   0  0  0  0  0  0  0  0  0  0  0  0
   16.9162   68.6112   -3.8070 O   0  0  0  0  0  0  0  0  0  0  0  0
   18.2444   69.9588   -2.2803 C   0  0  1  0  0  0  0  0  0  0  0  0
   17.9955   69.5177   -3.7075 C   0  0  2  0  0  0  0  0  0  0  0  0
   18.9907   71.2722   -2.4788 C   0  0  1  0  0  0  0  0  0  0  0  0
   17.7145   70.8397   -4.4014 C   0  0  2  0  0  0  0  0  0  0  0  0
   16.5144   69.4260   -1.4912 H   0  0  0  0  0  0  0  0  0  0  0  0
   17.1436   67.7862   -3.3505 H   0  0  0  0  0  0  0  0  0  0  0  0
   16.0716   69.9636   -6.5254 O   0  0  0  0  0  0  0  0  0  0  0  0
   19.3378   70.8413   -9.6563 O   0  0  0  0  0  0  0  0  0  0  0  0
   18.1100   70.8288   -5.7816 N   0  0  0  0  0  0  0  0  0  0  0  0
   17.6992   70.4015   -8.0826 N   0  0  0  0  0  0  0  0  0  0  0  0
   17.2099   70.3682   -6.7706 C   0  0  0  0  0  0  0  0  0  0  0  0
   19.3778   71.2718   -6.1426 C   0  0  0  0  0  0  0  0  0  0  0  0
   19.8296   71.2960   -7.3982 C   0  0  0  0  0  0  0  0  0  0  0  0
   18.9516   70.8316   -8.4916 C   0  0  0  0  0  0  0  0  0  0  0  0
   17.0897   70.0850   -8.7884 H   0  0  0  0  0  0  0  0  0  0  0  0
   22.8291   70.9747    0.4057 O   0  0  0  0  0  0  0  0  0  0  0  0
   23.3189   70.7311    1.9268 P   0  0  2  0  0  0  0  0  0  0  0  0
   23.6330   69.1445    1.9659 O   0  0  0  0  0  0  0  0  0  0  0  0
   22.3433   71.1952    2.9692 O   0  0  0  0  0  0  0  0  0  0  0  0
   24.7688   71.4358    2.0068 O   0  0  0  0  0  0  0  0  0  0  0  0
   27.0469   70.7870    2.0840 O   0  0  0  0  0  0  0  0  0  0  0  0
   26.9900   73.3799    5.2971 O   0  0  0  0  0  0  0  0  0  0  0  0
   28.3010   74.1642    2.8652 O   0  0  0  0  0  0  0  0  0  0  0  0
   24.7291   71.6403    4.8053 O   0  0  0  0  0  0  0  0  0  0  0  0
   26.6171   72.9019    4.0018 C   0  0  1  0  0  0  0  0  0  0  0  0
   27.8764   72.8313    3.1358 C   0  0  1  0  0  0  0  0  0  0  0  0
   25.9836   71.5191    4.1434 C   0  0  2  0  0  0  0  0  0  0  0  0
   27.6059   72.0801    1.8252 C   0  0  1  0  0  0  0  0  0  0  0  0
   25.8028   70.8390    2.7851 C   0  0  1  0  0  0  0  0  0  0  0  0
   27.3925   74.2578    5.2144 H   0  0  0  0  0  0  0  0  0  0  0  0
   28.4679   74.6276    3.7010 H   0  0  0  0  0  0  0  0  0  0  0  0
   24.8571   72.0721    5.6638 H   0  0  0  0  0  0  0  0  0  0  0  0
   29.0746   72.9753    0.1667 O   0  0  0  0  0  0  0  0  0  0  0  0
   28.8835   71.8603    1.0179 C   0  0  0  0  0  0  0  0  0  0  0  0
   29.8843   72.8495   -0.3531 H   0  0  0  0  0  0  0  0  0  0  0  0
 25 28  1  0
 25 24  1  0
 25 26  1  6
 25 27  2  0
  1  4  1  0
  1 24  1  0
  1  2  1  6
  1  3  2  0
  6 11  1  0
  6 12  1  0
 29 36  1  0
 29 37  1  0
  9  7  1  6
  7 13  1  0
 10  8  1  1
  8 14  1  0
 37 28  1  6
  4  5  1  0
 33 30  1  1
 30 38  1  0
 34 31  1  6
 31 39  1  0
 35 32  1  6
 32 40  1  0
 41 42  1  0
 41 43  1  0
 15 19  2  0
 16 22  2  0
 12 17  1  6
 17 19  1  0
 17 20  1  0
 18 19  1  0
 18 22  1  0
 18 23  1  0
  9 10  1  0
  9 11  1  0
 10 12  1  0
 11  5  1  6
 33 34  1  0
 33 35  1  0
 34 36  1  0
 35 37  1  0
 36 42  1  1
 20 21  2  0
 21 22  1  0
M  CHG  2   2  -1  26  -1
M  END
>  <COMPND>  (147) 
    8629 

>  <AUTHOR>  (147) 
    GENERATED BY OPEN BABEL 3.1.1

>  <MASTER>  (147) 
        0    0    0    0    0    0    0    0   58    0   58    0

>  <minimizedAffinity>  (147) 
-8.68608

>  <CNNscore>  (147) 
0.6205531359

>  <CNNaffinity>  (147) 
4.8492884636

>  <CNN_VS>  (147) 
3.0092411041

>  <CNNaffinity_variance>  (147) 
0.4413745999

$$$$
148
     RDKit          3D

 43 45  0  0  0  0  0  0  0  0999 V2000
   20.6330   70.8133    0.3031 P   0  0  2  0  0  0  0  0  0  0  0  0
   19.6302   71.4624    1.3942 O   0  0  0  0  0  0  0  0  0  0  0  0
   20.8919   69.3453    0.4747 O   0  0  0  0  0  0  0  0  0  0  0  0
   21.9380   71.7681    0.3585 O   0  0  0  0  0  0  0  0  0  0  0  0
   23.1301   71.2516    0.9241 C   0  0  0  0  0  0  0  0  0  0  0  0
   24.1290   70.4802    2.9689 O   0  0  0  0  0  0  0  0  0  0  0  0
   22.0687   72.1384    4.3818 O   0  0  0  0  0  0  0  0  0  0  0  0
   24.2940   73.7082    4.5232 O   0  0  0  0  0  0  0  0  0  0  0  0
   22.7588   72.4041    3.1618 C   0  0  1  0  0  0  0  0  0  0  0  0
   24.1927   72.8011    3.4445 C   0  0  2  0  0  0  0  0  0  0  0  0
   22.9342   71.0823    2.4245 C   0  0  1  0  0  0  0  0  0  0  0  0
   24.8375   71.4591    3.7465 C   0  0  2  0  0  0  0  0  0  0  0  0
   21.9446   72.9680    4.8701 H   0  0  0  0  0  0  0  0  0  0  0  0
   23.8694   74.5463    4.2821 H   0  0  0  0  0  0  0  0  0  0  0  0
   26.9566   72.1314    5.4888 O   0  0  0  0  0  0  0  0  0  0  0  0
   30.1276   71.2940    2.2509 O   0  0  0  0  0  0  0  0  0  0  0  0
   26.2266   71.4252    3.3851 N   0  0  0  0  0  0  0  0  0  0  0  0
   28.5338   71.7137    3.8752 N   0  0  0  0  0  0  0  0  0  0  0  0
   27.2123   71.7828    4.3344 C   0  0  0  0  0  0  0  0  0  0  0  0
   26.5997   71.0403    2.1019 C   0  0  0  0  0  0  0  0  0  0  0  0
   27.8642   70.9809    1.6794 C   0  0  0  0  0  0  0  0  0  0  0  0
   28.9548   71.3385    2.6093 C   0  0  0  0  0  0  0  0  0  0  0  0
   29.2375   71.9587    4.5191 H   0  0  0  0  0  0  0  0  0  0  0  0
   19.9480   71.2156   -1.1047 O   0  0  0  0  0  0  0  0  0  0  0  0
   18.4707   70.9184   -1.6897 P   0  0  2  0  0  0  0  0  0  0  0  0
   17.5335   71.9555   -0.8751 O   0  0  0  0  0  0  0  0  0  0  0  0
   18.0439   69.4830   -1.5831 O   0  0  0  0  0  0  0  0  0  0  0  0
   18.5041   71.4962   -3.1964 O   0  0  0  0  0  0  0  0  0  0  0  0
   18.2572   70.3594   -5.2612 O   0  0  0  0  0  0  0  0  0  0  0  0
   21.0544   73.1792   -6.3907 O   0  0  0  0  0  0  0  0  0  0  0  0
   18.3445   73.4228   -7.3098 O   0  0  0  0  0  0  0  0  0  0  0  0
   21.2118   71.9579   -3.7709 O   0  0  0  0  0  0  0  0  0  0  0  0
   19.9223   72.6821   -5.6719 C   0  0  1  0  0  0  0  0  0  0  0  0
   18.8618   72.2504   -6.6867 C   0  0  1  0  0  0  0  0  0  0  0  0
   20.3578   71.4968   -4.8123 C   0  0  2  0  0  0  0  0  0  0  0  0
   17.7327   71.4639   -6.0073 C   0  0  1  0  0  0  0  0  0  0  0  0
   19.1568   70.7545   -4.2236 C   0  0  1  0  0  0  0  0  0  0  0  0
   20.7848   73.9322   -6.9381 H   0  0  0  0  0  0  0  0  0  0  0  0
   19.0676   73.9105   -7.7346 H   0  0  0  0  0  0  0  0  0  0  0  0
   21.9683   72.4257   -4.1565 H   0  0  0  0  0  0  0  0  0  0  0  0
   16.1023   71.9633   -7.6810 O   0  0  0  0  0  0  0  0  0  0  0  0
   16.7459   70.8888   -7.0211 C   0  0  0  0  0  0  0  0  0  0  0  0
   15.4715   71.6123   -8.3296 H   0  0  0  0  0  0  0  0  0  0  0  0
 25 28  1  0
 25 24  1  0
 25 26  1  1
 25 27  2  0
  1  4  1  0
  1 24  1  0
  1  2  1  1
  1  3  2  0
  6 11  1  0
  6 12  1  0
 29 36  1  0
 29 37  1  0
  9  7  1  1
  7 13  1  0
 10  8  1  1
  8 14  1  0
 37 28  1  1
  4  5  1  0
 33 30  1  6
 30 38  1  0
 34 31  1  1
 31 39  1  0
 35 32  1  1
 32 40  1  0
 41 42  1  0
 41 43  1  0
 15 19  2  0
 16 22  2  0
 12 17  1  6
 17 19  1  0
 17 20  1  0
 18 19  1  0
 18 22  1  0
 18 23  1  0
  9 10  1  0
  9 11  1  0
 10 12  1  0
 11  5  1  6
 33 34  1  0
 33 35  1  0
 34 36  1  0
 35 37  1  0
 36 42  1  6
 20 21  2  0
 21 22  1  0
M  CHG  2   2  -1  26  -1
M  END
>  <COMPND>  (148) 
    8629 

>  <AUTHOR>  (148) 
    GENERATED BY OPEN BABEL 3.1.1

>  <MASTER>  (148) 
        0    0    0    0    0    0    0    0   58    0   58    0

>  <minimizedAffinity>  (148) 
-8.82384

>  <CNNscore>  (148) 
0.5878385305

>  <CNNaffinity>  (148) 
4.5122485161

>  <CNN_VS>  (148) 
2.6524734497

>  <CNNaffinity_variance>  (148) 
0.0203889813

$$$$
149
     RDKit          3D

 43 45  0  0  0  0  0  0  0  0999 V2000
   22.3098   70.7789   -2.1902 P   0  0  2  0  0  0  0  0  0  0  0  0
   22.6750   72.2622   -2.7229 O   0  0  0  0  0  0  0  0  0  0  0  0
   23.0895   69.6667   -2.8279 O   0  0  0  0  0  0  0  0  0  0  0  0
   20.7023   70.6927   -2.3522 O   0  0  0  0  0  0  0  0  0  0  0  0
   19.9995   71.8571   -2.7501 C   0  0  0  0  0  0  0  0  0  0  0  0
   17.9100   71.8998   -3.9357 O   0  0  0  0  0  0  0  0  0  0  0  0
   16.8712   70.0778   -1.7929 O   0  0  0  0  0  0  0  0  0  0  0  0
   17.3774   68.3543   -3.8447 O   0  0  0  0  0  0  0  0  0  0  0  0
   18.1691   70.1285   -2.3830 C   0  0  1  0  0  0  0  0  0  0  0  0
   18.1345   69.5457   -3.7803 C   0  0  2  0  0  0  0  0  0  0  0  0
   18.5036   71.5897   -2.6560 C   0  0  1  0  0  0  0  0  0  0  0  0
   17.5115   70.6781   -4.5788 C   0  0  2  0  0  0  0  0  0  0  0  0
   16.6357   69.1543   -1.6091 H   0  0  0  0  0  0  0  0  0  0  0  0
   17.8146   67.6645   -3.3214 H   0  0  0  0  0  0  0  0  0  0  0  0
   15.8911   70.0522   -6.8059 O   0  0  0  0  0  0  0  0  0  0  0  0
   19.3487   70.7942   -9.7615 O   0  0  0  0  0  0  0  0  0  0  0  0
   17.9624   70.7000   -5.9417 N   0  0  0  0  0  0  0  0  0  0  0  0
   17.6140   70.4223   -8.2758 N   0  0  0  0  0  0  0  0  0  0  0  0
   17.0689   70.3679   -6.9866 C   0  0  0  0  0  0  0  0  0  0  0  0
   19.2773   71.0483   -6.2311 C   0  0  0  0  0  0  0  0  0  0  0  0
   19.7819   71.0941   -7.4658 C   0  0  0  0  0  0  0  0  0  0  0  0
   18.9144   70.7614   -8.6143 C   0  0  0  0  0  0  0  0  0  0  0  0
   17.0101   70.1946   -9.0196 H   0  0  0  0  0  0  0  0  0  0  0  0
   22.5074   70.9081   -0.5911 O   0  0  0  0  0  0  0  0  0  0  0  0
   22.2462   69.8469    0.6000 P   0  0  2  0  0  0  0  0  0  0  0  0
   23.2945   68.6584    0.2746 O   0  0  0  0  0  0  0  0  0  0  0  0
   20.8189   69.3976    0.7218 O   0  0  0  0  0  0  0  0  0  0  0  0
   22.8374   70.5616    1.9209 O   0  0  0  0  0  0  0  0  0  0  0  0
   23.2352   72.8272    2.4916 O   0  0  0  0  0  0  0  0  0  0  0  0
   26.6529   71.1374    4.0774 O   0  0  0  0  0  0  0  0  0  0  0  0
   24.5832   72.0681    5.8376 O   0  0  0  0  0  0  0  0  0  0  0  0
   25.5926   70.1643    1.5658 O   0  0  0  0  0  0  0  0  0  0  0  0
   25.2685   71.1877    3.7219 C   0  0  1  0  0  0  0  0  0  0  0  0
   24.6301   72.3742    4.4467 C   0  0  1  0  0  0  0  0  0  0  0  0
   25.1476   71.3541    2.2083 C   0  0  2  0  0  0  0  0  0  0  0  0
   23.2187   72.6549    3.9135 C   0  0  1  0  0  0  0  0  0  0  0  0
   23.7128   71.6785    1.7885 C   0  0  1  0  0  0  0  0  0  0  0  0
   26.7366   71.0314    5.0372 H   0  0  0  0  0  0  0  0  0  0  0  0
   25.4806   71.8925    6.1617 H   0  0  0  0  0  0  0  0  0  0  0  0
   26.5021   69.9699    1.8394 H   0  0  0  0  0  0  0  0  0  0  0  0
   22.0884   73.6209    5.7838 O   0  0  0  0  0  0  0  0  0  0  0  0
   22.6247   73.9289    4.5103 C   0  0  0  0  0  0  0  0  0  0  0  0
   21.7071   74.4225    6.1759 H   0  0  0  0  0  0  0  0  0  0  0  0
 25 28  1  0
 25 24  1  0
 25 26  1  6
 25 27  2  0
  1  4  1  0
  1 24  1  0
  1  2  1  6
  1  3  2  0
  6 11  1  0
  6 12  1  0
 29 36  1  0
 29 37  1  0
  9  7  1  6
  7 13  1  0
 10  8  1  1
  8 14  1  0
 37 28  1  1
  4  5  1  0
 33 30  1  6
 30 38  1  0
 34 31  1  1
 31 39  1  0
 35 32  1  6
 32 40  1  0
 41 42  1  0
 41 43  1  0
 15 19  2  0
 16 22  2  0
 12 17  1  6
 17 19  1  0
 17 20  1  0
 18 19  1  0
 18 22  1  0
 18 23  1  0
  9 10  1  0
  9 11  1  0
 10 12  1  0
 11  5  1  6
 33 34  1  0
 33 35  1  0
 34 36  1  0
 35 37  1  0
 36 42  1  1
 20 21  2  0
 21 22  1  0
M  CHG  2   2  -1  26  -1
M  END
>  <COMPND>  (149) 
    8629 

>  <AUTHOR>  (149) 
    GENERATED BY OPEN BABEL 3.1.1

>  <MASTER>  (149) 
        0    0    0    0    0    0    0    0   58    0   58    0

>  <minimizedAffinity>  (149) 
-8.32772

>  <CNNscore>  (149) 
0.5803855062

>  <CNNaffinity>  (149) 
4.5278983116

>  <CNN_VS>  (149) 
2.6279265881

>  <CNNaffinity_variance>  (149) 
0.0795827582

$$$$
150
     RDKit          3D

 43 45  0  0  0  0  0  0  0  0999 V2000
   20.6761   70.8160    0.5219 P   0  0  2  0  0  0  0  0  0  0  0  0
   19.6547   71.4839    1.5839 O   0  0  0  0  0  0  0  0  0  0  0  0
   20.7945   69.3228    0.6093 O   0  0  0  0  0  0  0  0  0  0  0  0
   22.0507   71.6433    0.7320 O   0  0  0  0  0  0  0  0  0  0  0  0
   23.1277   71.0070    1.3976 C   0  0  0  0  0  0  0  0  0  0  0  0
   24.0591   70.5460    3.5641 O   0  0  0  0  0  0  0  0  0  0  0  0
   21.9778   72.4120    4.6491 O   0  0  0  0  0  0  0  0  0  0  0  0
   24.2156   73.9702    4.6192 O   0  0  0  0  0  0  0  0  0  0  0  0
   22.7054   72.4861    3.4242 C   0  0  1  0  0  0  0  0  0  0  0  0
   24.1350   72.9116    3.6867 C   0  0  2  0  0  0  0  0  0  0  0  0
   22.8871   71.0671    2.8998 C   0  0  1  0  0  0  0  0  0  0  0  0
   24.7560   71.6261    4.2064 C   0  0  2  0  0  0  0  0  0  0  0  0
   21.8491   73.3064    5.0031 H   0  0  0  0  0  0  0  0  0  0  0  0
   23.8073   74.7652    4.2422 H   0  0  0  0  0  0  0  0  0  0  0  0
   26.8198   72.7570    5.7684 O   0  0  0  0  0  0  0  0  0  0  0  0
   30.0851   71.1908    2.9178 O   0  0  0  0  0  0  0  0  0  0  0  0
   26.1544   71.5289    3.8959 N   0  0  0  0  0  0  0  0  0  0  0  0
   28.4440   71.9761    4.3478 N   0  0  0  0  0  0  0  0  0  0  0  0
   27.1101   72.1334    4.7454 C   0  0  0  0  0  0  0  0  0  0  0  0
   26.5658   70.8399    2.7602 C   0  0  0  0  0  0  0  0  0  0  0  0
   27.8417   70.7001    2.3943 C   0  0  0  0  0  0  0  0  0  0  0  0
   28.9028   71.3016    3.2275 C   0  0  0  0  0  0  0  0  0  0  0  0
   29.1273   72.3891    4.9242 H   0  0  0  0  0  0  0  0  0  0  0  0
   20.1346   71.3659   -0.8985 O   0  0  0  0  0  0  0  0  0  0  0  0
   18.7521   71.0858   -1.6879 P   0  0  2  0  0  0  0  0  0  0  0  0
   17.7141   72.1155   -0.9952 O   0  0  0  0  0  0  0  0  0  0  0  0
   18.3099   69.6513   -1.6646 O   0  0  0  0  0  0  0  0  0  0  0  0
   18.9968   71.6864   -3.1659 O   0  0  0  0  0  0  0  0  0  0  0  0
   18.1106   70.4925   -5.0114 O   0  0  0  0  0  0  0  0  0  0  0  0
   20.8927   72.8085   -6.9983 O   0  0  0  0  0  0  0  0  0  0  0  0
   18.0962   73.3993   -7.2784 O   0  0  0  0  0  0  0  0  0  0  0  0
   21.5206   71.7150   -4.3926 O   0  0  0  0  0  0  0  0  0  0  0  0
   19.9140   72.5210   -5.9958 C   0  0  1  0  0  0  0  0  0  0  0  0
   18.5921   72.1977   -6.6949 C   0  0  1  0  0  0  0  0  0  0  0  0
   20.3870   71.3309   -5.1631 C   0  0  2  0  0  0  0  0  0  0  0  0
   17.5690   71.6218   -5.7066 C   0  0  1  0  0  0  0  0  0  0  0  0
   19.2786   70.8046   -4.2496 C   0  0  1  0  0  0  0  0  0  0  0  0
   20.5986   73.5635   -7.5302 H   0  0  0  0  0  0  0  0  0  0  0  0
   18.7517   73.7529   -7.9000 H   0  0  0  0  0  0  0  0  0  0  0  0
   22.2152   72.0461   -4.9824 H   0  0  0  0  0  0  0  0  0  0  0  0
   16.5937   70.9435   -7.7797 O   0  0  0  0  0  0  0  0  0  0  0  0
   16.2997   71.1460   -6.4097 C   0  0  0  0  0  0  0  0  0  0  0  0
   15.7950   70.6402   -8.2398 H   0  0  0  0  0  0  0  0  0  0  0  0
 25 28  1  0
 25 24  1  0
 25 26  1  1
 25 27  2  0
  1  4  1  0
  1 24  1  0
  1  2  1  1
  1  3  2  0
  6 11  1  0
  6 12  1  0
 29 36  1  0
 29 37  1  0
  9  7  1  1
  7 13  1  0
 10  8  1  1
  8 14  1  0
 37 28  1  1
  4  5  1  0
 33 30  1  6
 30 38  1  0
 34 31  1  1
 31 39  1  0
 35 32  1  1
 32 40  1  0
 41 42  1  0
 41 43  1  0
 15 19  2  0
 16 22  2  0
 12 17  1  6
 17 19  1  0
 17 20  1  0
 18 19  1  0
 18 22  1  0
 18 23  1  0
  9 10  1  0
  9 11  1  0
 10 12  1  0
 11  5  1  6
 33 34  1  0
 33 35  1  0
 34 36  1  0
 35 37  1  0
 36 42  1  6
 20 21  2  0
 21 22  1  0
M  CHG  2   2  -1  26  -1
M  END
>  <COMPND>  (150) 
    8629 

>  <AUTHOR>  (150) 
    GENERATED BY OPEN BABEL 3.1.1

>  <MASTER>  (150) 
        0    0    0    0    0    0    0    0   58    0   58    0

>  <minimizedAffinity>  (150) 
-8.26730

>  <CNNscore>  (150) 
0.5679057240

>  <CNNaffinity>  (150) 
4.3970451355

>  <CNN_VS>  (150) 
2.4971070290

>  <CNNaffinity_variance>  (150) 
0.0862927958

$$$$
151
     RDKit          3D

 43 45  0  0  0  0  0  0  0  0999 V2000
   20.8308   71.3194   -0.3839 P   0  0  2  0  0  0  0  0  0  0  0  0
   19.8194   70.0790   -0.1478 O   0  0  0  0  0  0  0  0  0  0  0  0
   20.9807   72.2465    0.7864 O   0  0  0  0  0  0  0  0  0  0  0  0
   20.3007   71.9975   -1.7540 O   0  0  0  0  0  0  0  0  0  0  0  0
   19.7220   71.1625   -2.7417 C   0  0  0  0  0  0  0  0  0  0  0  0
   17.9814   72.0190   -4.1596 O   0  0  0  0  0  0  0  0  0  0  0  0
   16.0577   70.6656   -2.2998 O   0  0  0  0  0  0  0  0  0  0  0  0
   16.1704   68.9329   -4.4026 O   0  0  0  0  0  0  0  0  0  0  0  0
   17.3508   70.2401   -2.7266 C   0  0  1  0  0  0  0  0  0  0  0  0
   17.2971   69.7500   -4.1585 C   0  0  2  0  0  0  0  0  0  0  0  0
   18.2354   71.4749   -2.8460 C   0  0  1  0  0  0  0  0  0  0  0  0
   17.2530   71.0542   -4.9365 C   0  0  2  0  0  0  0  0  0  0  0  0
   15.4749   69.8941   -2.2161 H   0  0  0  0  0  0  0  0  0  0  0  0
   16.2452   68.1159   -3.8853 H   0  0  0  0  0  0  0  0  0  0  0  0
   15.9180   70.1563   -7.2580 O   0  0  0  0  0  0  0  0  0  0  0  0
   19.6975   70.6583   -9.8474 O   0  0  0  0  0  0  0  0  0  0  0  0
   17.8640   70.9408   -6.2308 N   0  0  0  0  0  0  0  0  0  0  0  0
   17.8009   70.4072   -8.5455 N   0  0  0  0  0  0  0  0  0  0  0  0
   17.1057   70.4782   -7.3315 C   0  0  0  0  0  0  0  0  0  0  0  0
   19.2004   71.2865   -6.3990 C   0  0  0  0  0  0  0  0  0  0  0  0
   19.8490   71.2119   -7.5631 C   0  0  0  0  0  0  0  0  0  0  0  0
   19.1291   70.7382   -8.7628 C   0  0  0  0  0  0  0  0  0  0  0  0
   17.2931   70.0873   -9.3262 H   0  0  0  0  0  0  0  0  0  0  0  0
   22.1983   70.5908   -0.8444 O   0  0  0  0  0  0  0  0  0  0  0  0
   23.1973   69.6044   -0.0433 P   0  0  2  0  0  0  0  0  0  0  0  0
   24.4838   69.5065   -1.0195 O   0  0  0  0  0  0  0  0  0  0  0  0
   22.5931   68.2788    0.3197 O   0  0  0  0  0  0  0  0  0  0  0  0
   23.7071   70.4746    1.2168 O   0  0  0  0  0  0  0  0  0  0  0  0
   25.0776   69.4282    2.8426 O   0  0  0  0  0  0  0  0  0  0  0  0
   23.7482   72.6414    5.0695 O   0  0  0  0  0  0  0  0  0  0  0  0
   26.4677   72.5830    4.1480 O   0  0  0  0  0  0  0  0  0  0  0  0
   21.9464   71.3115    3.2353 O   0  0  0  0  0  0  0  0  0  0  0  0
   24.1724   71.9647    3.8831 C   0  0  1  0  0  0  0  0  0  0  0  0
   25.5978   71.4552    4.1052 C   0  0  1  0  0  0  0  0  0  0  0  0
   23.2226   70.8009    3.6056 C   0  0  2  0  0  0  0  0  0  0  0  0
   26.0232   70.4944    2.9868 C   0  0  1  0  0  0  0  0  0  0  0  0
   23.7631   69.8796    2.5106 C   0  0  1  0  0  0  0  0  0  0  0  0
   24.3468   73.3818    5.2511 H   0  0  0  0  0  0  0  0  0  0  0  0
   26.1878   73.1820    4.8580 H   0  0  0  0  0  0  0  0  0  0  0  0
   21.6149   71.8929    3.9367 H   0  0  0  0  0  0  0  0  0  0  0  0
   28.3898   70.6705    2.7086 O   0  0  0  0  0  0  0  0  0  0  0  0
   27.3797   69.8524    3.2695 C   0  0  0  0  0  0  0  0  0  0  0  0
   29.2587   70.2744    2.8811 H   0  0  0  0  0  0  0  0  0  0  0  0
 25 28  1  0
 25 24  1  0
 25 26  1  6
 25 27  2  0
  1  4  1  0
  1 24  1  0
  1  2  1  1
  1  3  2  0
  6 11  1  0
  6 12  1  0
 29 36  1  0
 29 37  1  0
  9  7  1  6
  7 13  1  0
 10  8  1  1
  8 14  1  0
 37 28  1  6
  4  5  1  0
 33 30  1  1
 30 38  1  0
 34 31  1  6
 31 39  1  0
 35 32  1  6
 32 40  1  0
 41 42  1  0
 41 43  1  0
 15 19  2  0
 16 22  2  0
 12 17  1  6
 17 19  1  0
 17 20  1  0
 18 19  1  0
 18 22  1  0
 18 23  1  0
  9 10  1  0
  9 11  1  0
 10 12  1  0
 11  5  1  6
 33 34  1  0
 33 35  1  0
 34 36  1  0
 35 37  1  0
 36 42  1  1
 20 21  2  0
 21 22  1  0
M  CHG  2   2  -1  26  -1
M  END
>  <COMPND>  (151) 
    8629 

>  <AUTHOR>  (151) 
    GENERATED BY OPEN BABEL 3.1.1

>  <MASTER>  (151) 
        0    0    0    0    0    0    0    0   58    0   58    0

>  <minimizedAffinity>  (151) 
-8.73045

>  <CNNscore>  (151) 
0.5624534488

>  <CNNaffinity>  (151) 
4.5660524368

>  <CNN_VS>  (151) 
2.5681920052

>  <CNNaffinity_variance>  (151) 
0.1403506398

$$$$
152
     RDKit          3D

 43 45  0  0  0  0  0  0  0  0999 V2000
   22.6783   72.1081   -2.9431 P   0  0  2  0  0  0  0  0  0  0  0  0
   23.7451   72.3019   -4.1439 O   0  0  0  0  0  0  0  0  0  0  0  0
   22.6970   73.1853   -1.8987 O   0  0  0  0  0  0  0  0  0  0  0  0
   22.9625   70.6073   -2.4096 O   0  0  0  0  0  0  0  0  0  0  0  0
   23.6925   70.4444   -1.2062 C   0  0  0  0  0  0  0  0  0  0  0  0
   23.7555   69.2057    0.8519 O   0  0  0  0  0  0  0  0  0  0  0  0
   20.7601   69.1895    0.7160 O   0  0  0  0  0  0  0  0  0  0  0  0
   21.2624   71.1684    2.5239 O   0  0  0  0  0  0  0  0  0  0  0  0
   21.6753   70.2123    0.3269 C   0  0  1  0  0  0  0  0  0  0  0  0
   22.2493   70.8973    1.5496 C   0  0  2  0  0  0  0  0  0  0  0  0
   22.9061   69.5393   -0.2678 C   0  0  1  0  0  0  0  0  0  0  0  0
   23.2773   69.8845    2.0247 C   0  0  2  0  0  0  0  0  0  0  0  0
   19.9657   69.5951    1.0985 H   0  0  0  0  0  0  0  0  0  0  0  0
   20.6324   71.8177    2.1742 H   0  0  0  0  0  0  0  0  0  0  0  0
   23.3567   70.4706    4.7866 O   0  0  0  0  0  0  0  0  0  0  0  0
   27.5919   72.2609    4.4713 O   0  0  0  0  0  0  0  0  0  0  0  0
   24.3884   70.5033    2.6909 N   0  0  0  0  0  0  0  0  0  0  0  0
   25.4655   71.3614    4.6274 N   0  0  0  0  0  0  0  0  0  0  0  0
   24.3270   70.7551    4.0814 C   0  0  0  0  0  0  0  0  0  0  0  0
   25.5230   70.8534    1.9670 C   0  0  0  0  0  0  0  0  0  0  0  0
   26.5998   71.4321    2.5024 C   0  0  0  0  0  0  0  0  0  0  0  0
   26.6168   71.7294    3.9493 C   0  0  0  0  0  0  0  0  0  0  0  0
   25.4453   71.5467    5.5944 H   0  0  0  0  0  0  0  0  0  0  0  0
   21.2728   71.9551   -3.7267 O   0  0  0  0  0  0  0  0  0  0  0  0
   20.3008   73.0637   -4.3894 P   0  0  2  0  0  0  0  0  0  0  0  0
   21.2602   74.3581   -4.5364 O   0  0  0  0  0  0  0  0  0  0  0  0
   19.0371   73.3139   -3.6185 O   0  0  0  0  0  0  0  0  0  0  0  0
   20.0708   72.5528   -5.9031 O   0  0  0  0  0  0  0  0  0  0  0  0
   18.9094   70.5244   -5.5119 O   0  0  0  0  0  0  0  0  0  0  0  0
   18.5620   70.7013   -9.6227 O   0  0  0  0  0  0  0  0  0  0  0  0
   16.2597   71.2070   -7.9821 O   0  0  0  0  0  0  0  0  0  0  0  0
   21.0187   71.5428   -8.3437 O   0  0  0  0  0  0  0  0  0  0  0  0
   18.6306   71.2330   -8.2968 C   0  0  1  0  0  0  0  0  0  0  0  0
   17.4728   70.6485   -7.4852 C   0  0  1  0  0  0  0  0  0  0  0  0
   19.9715   70.8492   -7.6738 C   0  0  2  0  0  0  0  0  0  0  0  0
   17.6315   70.9593   -5.9908 C   0  0  1  0  0  0  0  0  0  0  0  0
   20.0064   71.1554   -6.1754 C   0  0  1  0  0  0  0  0  0  0  0  0
   17.7132   70.9418  -10.0241 H   0  0  0  0  0  0  0  0  0  0  0  0
   16.1720   71.0041   -8.9267 H   0  0  0  0  0  0  0  0  0  0  0  0
   20.9860   71.3405   -9.2912 H   0  0  0  0  0  0  0  0  0  0  0  0
   15.8588   69.3573   -5.9748 O   0  0  0  0  0  0  0  0  0  0  0  0
   16.5742   70.2535   -5.1445 C   0  0  0  0  0  0  0  0  0  0  0  0
   15.1825   68.9007   -5.4495 H   0  0  0  0  0  0  0  0  0  0  0  0
 25 28  1  0
 25 24  1  0
 25 26  1  6
 25 27  2  0
  1  4  1  0
  1 24  1  0
  1  2  1  6
  1  3  2  0
  6 11  1  0
  6 12  1  0
 29 36  1  0
 29 37  1  0
  9  7  1  1
  7 13  1  0
 10  8  1  1
  8 14  1  0
 37 28  1  6
  4  5  1  0
 33 30  1  6
 30 38  1  0
 34 31  1  6
 31 39  1  0
 35 32  1  6
 32 40  1  0
 41 42  1  0
 41 43  1  0
 15 19  2  0
 16 22  2  0
 12 17  1  6
 17 19  1  0
 17 20  1  0
 18 19  1  0
 18 22  1  0
 18 23  1  0
  9 10  1  0
  9 11  1  0
 10 12  1  0
 11  5  1  6
 33 34  1  0
 33 35  1  0
 34 36  1  0
 35 37  1  0
 36 42  1  1
 20 21  2  0
 21 22  1  0
M  CHG  2   2  -1  26  -1
M  END
>  <COMPND>  (152) 
    8629 

>  <AUTHOR>  (152) 
    GENERATED BY OPEN BABEL 3.1.1

>  <MASTER>  (152) 
        0    0    0    0    0    0    0    0   58    0   58    0

>  <minimizedAffinity>  (152) 
-9.51417

>  <CNNscore>  (152) 
0.5420868993

>  <CNNaffinity>  (152) 
4.4923758507

>  <CNN_VS>  (152) 
2.4352581501

>  <CNNaffinity_variance>  (152) 
0.0652344003

$$$$
153
     RDKit          3D

 43 45  0  0  0  0  0  0  0  0999 V2000
   21.3205   71.2203   -1.2674 P   0  0  2  0  0  0  0  0  0  0  0  0
   21.1664   72.6405   -0.5080 O   0  0  0  0  0  0  0  0  0  0  0  0
   20.0528   70.4273   -1.3917 O   0  0  0  0  0  0  0  0  0  0  0  0
   22.5322   70.4897   -0.4826 O   0  0  0  0  0  0  0  0  0  0  0  0
   23.3278   71.2607    0.4007 C   0  0  0  0  0  0  0  0  0  0  0  0
   24.0018   70.3556    2.5222 O   0  0  0  0  0  0  0  0  0  0  0  0
   21.6939   71.8717    3.6909 O   0  0  0  0  0  0  0  0  0  0  0  0
   23.8223   73.4616    4.3064 O   0  0  0  0  0  0  0  0  0  0  0  0
   22.5656   72.2380    2.6227 C   0  0  1  0  0  0  0  0  0  0  0  0
   23.9229   72.6355    3.1644 C   0  0  2  0  0  0  0  0  0  0  0  0
   22.8952   70.9775    1.8328 C   0  0  1  0  0  0  0  0  0  0  0  0
   24.5470   71.2851    3.4727 C   0  0  2  0  0  0  0  0  0  0  0  0
   21.4691   72.6606    4.2096 H   0  0  0  0  0  0  0  0  0  0  0  0
   23.4194   74.3084    4.0587 H   0  0  0  0  0  0  0  0  0  0  0  0
   26.3287   72.0293    5.5342 O   0  0  0  0  0  0  0  0  0  0  0  0
   30.0127   71.3062    2.8609 O   0  0  0  0  0  0  0  0  0  0  0  0
   25.9768   71.3001    3.3429 N   0  0  0  0  0  0  0  0  0  0  0  0
   28.1616   71.6685    4.2014 N   0  0  0  0  0  0  0  0  0  0  0  0
   26.7813   71.6909    4.4386 C   0  0  0  0  0  0  0  0  0  0  0  0
   26.5672   70.9297    2.1396 C   0  0  0  0  0  0  0  0  0  0  0  0
   27.8851   70.9149    1.9293 C   0  0  0  0  0  0  0  0  0  0  0  0
   28.7963   71.3093    3.0229 C   0  0  0  0  0  0  0  0  0  0  0  0
   28.7419   71.9372    4.9503 H   0  0  0  0  0  0  0  0  0  0  0  0
   21.9967   71.6330   -2.6764 O   0  0  0  0  0  0  0  0  0  0  0  0
   21.5469   72.7100   -3.7947 P   0  0  2  0  0  0  0  0  0  0  0  0
   22.6174   72.4778   -4.9854 O   0  0  0  0  0  0  0  0  0  0  0  0
   21.4748   74.1235   -3.2938 O   0  0  0  0  0  0  0  0  0  0  0  0
   20.1563   72.1357   -4.3790 O   0  0  0  0  0  0  0  0  0  0  0  0
   19.4028   69.8926   -4.5105 O   0  0  0  0  0  0  0  0  0  0  0  0
   17.7264   71.3568   -7.9885 O   0  0  0  0  0  0  0  0  0  0  0  0
   16.0400   70.7705   -5.7391 O   0  0  0  0  0  0  0  0  0  0  0  0
   20.3628   72.2334   -7.1759 O   0  0  0  0  0  0  0  0  0  0  0  0
   18.1647   71.4149   -6.6284 C   0  0  1  0  0  0  0  0  0  0  0  0
   17.3999   70.3556   -5.8324 C   0  0  1  0  0  0  0  0  0  0  0  0
   19.6674   71.1456   -6.5763 C   0  0  2  0  0  0  0  0  0  0  0  0
   18.0006   70.1742   -4.4319 C   0  0  1  0  0  0  0  0  0  0  0  0
   20.1535   70.9317   -5.1417 C   0  0  1  0  0  0  0  0  0  0  0  0
   16.7731   71.5274   -8.0287 H   0  0  0  0  0  0  0  0  0  0  0  0
   15.6727   70.8819   -6.6301 H   0  0  0  0  0  0  0  0  0  0  0  0
   20.0464   72.3583   -8.0837 H   0  0  0  0  0  0  0  0  0  0  0  0
   17.8572   69.0016   -2.3550 O   0  0  0  0  0  0  0  0  0  0  0  0
   17.3541   69.0139   -3.6783 C   0  0  0  0  0  0  0  0  0  0  0  0
   17.4543   68.2684   -1.8633 H   0  0  0  0  0  0  0  0  0  0  0  0
 25 28  1  0
 25 24  1  0
 25 26  1  6
 25 27  2  0
  1  4  1  0
  1 24  1  0
  1  2  1  1
  1  3  2  0
  6 11  1  0
  6 12  1  0
 29 36  1  0
 29 37  1  0
  9  7  1  1
  7 13  1  0
 10  8  1  1
  8 14  1  0
 37 28  1  1
  4  5  1  0
 33 30  1  6
 30 38  1  0
 34 31  1  1
 31 39  1  0
 35 32  1  1
 32 40  1  0
 41 42  1  0
 41 43  1  0
 15 19  2  0
 16 22  2  0
 12 17  1  6
 17 19  1  0
 17 20  1  0
 18 19  1  0
 18 22  1  0
 18 23  1  0
  9 10  1  0
  9 11  1  0
 10 12  1  0
 11  5  1  6
 33 34  1  0
 33 35  1  0
 34 36  1  0
 35 37  1  0
 36 42  1  6
 20 21  2  0
 21 22  1  0
M  CHG  2   2  -1  26  -1
M  END
>  <COMPND>  (153) 
    8629 

>  <AUTHOR>  (153) 
    GENERATED BY OPEN BABEL 3.1.1

>  <MASTER>  (153) 
        0    0    0    0    0    0    0    0   58    0   58    0

>  <minimizedAffinity>  (153) 
-7.67318

>  <CNNscore>  (153) 
0.4879429936

>  <CNNaffinity>  (153) 
4.6151075363

>  <CNN_VS>  (153) 
2.2519094944

>  <CNNaffinity_variance>  (153) 
0.0375492647

$$$$
154
     RDKit          3D

 43 45  0  0  0  0  0  0  0  0999 V2000
   21.3358   74.1712   -1.9090 P   0  0  2  0  0  0  0  0  0  0  0  0
   22.3547   75.2292   -2.5871 O   0  0  0  0  0  0  0  0  0  0  0  0
   20.3333   74.7710   -0.9673 O   0  0  0  0  0  0  0  0  0  0  0  0
   22.3099   73.0457   -1.2747 O   0  0  0  0  0  0  0  0  0  0  0  0
   22.6365   73.1319    0.1014 C   0  0  0  0  0  0  0  0  0  0  0  0
   22.9018   70.9637    1.1025 O   0  0  0  0  0  0  0  0  0  0  0  0
   20.3515   71.5365    2.5717 O   0  0  0  0  0  0  0  0  0  0  0  0
   22.2521   72.0414    4.4610 O   0  0  0  0  0  0  0  0  0  0  0  0
   21.4066   72.4278    2.2145 C   0  0  1  0  0  0  0  0  0  0  0  0
   22.6112   72.1999    3.1036 C   0  0  2  0  0  0  0  0  0  0  0  0
   21.9348   72.0063    0.8489 C   0  0  1  0  0  0  0  0  0  0  0  0
   23.2096   70.9378    2.5059 C   0  0  2  0  0  0  0  0  0  0  0  0
   19.9979   71.7861    3.4404 H   0  0  0  0  0  0  0  0  0  0  0  0
   21.8766   72.8708    4.7953 H   0  0  0  0  0  0  0  0  0  0  0  0
   24.5997   68.7225    3.5728 O   0  0  0  0  0  0  0  0  0  0  0  0
   28.6773   70.8154    3.0886 O   0  0  0  0  0  0  0  0  0  0  0  0
   24.6347   70.8766    2.6697 N   0  0  0  0  0  0  0  0  0  0  0  0
   26.6289   69.7664    3.3307 N   0  0  0  0  0  0  0  0  0  0  0  0
   25.2337   69.7179    3.2164 C   0  0  0  0  0  0  0  0  0  0  0  0
   25.4229   71.9575    2.2897 C   0  0  0  0  0  0  0  0  0  0  0  0
   26.7521   71.9884    2.4064 C   0  0  0  0  0  0  0  0  0  0  0  0
   27.4560   70.8177    2.9684 C   0  0  0  0  0  0  0  0  0  0  0  0
   27.0680   68.9704    3.7094 H   0  0  0  0  0  0  0  0  0  0  0  0
   20.6922   73.4170   -3.1856 O   0  0  0  0  0  0  0  0  0  0  0  0
   21.3166   72.3222   -4.1978 P   0  0  2  0  0  0  0  0  0  0  0  0
   21.1909   70.9377   -3.3702 O   0  0  0  0  0  0  0  0  0  0  0  0
   22.7073   72.6397   -4.6660 O   0  0  0  0  0  0  0  0  0  0  0  0
   20.2263   72.1906   -5.3805 O   0  0  0  0  0  0  0  0  0  0  0  0
   18.8192   70.2864   -5.4824 O   0  0  0  0  0  0  0  0  0  0  0  0
   18.5460   71.5198   -9.4137 O   0  0  0  0  0  0  0  0  0  0  0  0
   16.3039   71.8801   -7.6555 O   0  0  0  0  0  0  0  0  0  0  0  0
   21.0720   71.7102   -8.0128 O   0  0  0  0  0  0  0  0  0  0  0  0
   18.6635   71.6931   -7.9989 C   0  0  1  0  0  0  0  0  0  0  0  0
   17.4328   71.0716   -7.3358 C   0  0  1  0  0  0  0  0  0  0  0  0
   19.9393   71.0055   -7.5161 C   0  0  2  0  0  0  0  0  0  0  0  0
   17.6104   70.9796   -5.8143 C   0  0  1  0  0  0  0  0  0  0  0  0
   19.9935   70.9233   -5.9896 C   0  0  1  0  0  0  0  0  0  0  0  0
   17.7382   71.9545   -9.7268 H   0  0  0  0  0  0  0  0  0  0  0  0
   16.2032   71.9304   -8.6191 H   0  0  0  0  0  0  0  0  0  0  0  0
   21.0261   71.7551   -8.9802 H   0  0  0  0  0  0  0  0  0  0  0  0
   15.8053   69.4476   -6.1357 O   0  0  0  0  0  0  0  0  0  0  0  0
   16.4641   70.2206   -5.1495 C   0  0  0  0  0  0  0  0  0  0  0  0
   15.0734   68.9587   -5.7269 H   0  0  0  0  0  0  0  0  0  0  0  0
 25 28  1  0
 25 24  1  0
 25 26  1  1
 25 27  2  0
  1  4  1  0
  1 24  1  0
  1  2  1  6
  1  3  2  0
  6 11  1  0
  6 12  1  0
 29 36  1  0
 29 37  1  0
  9  7  1  1
  7 13  1  0
 10  8  1  1
  8 14  1  0
 37 28  1  1
  4  5  1  0
 33 30  1  6
 30 38  1  0
 34 31  1  1
 31 39  1  0
 35 32  1  1
 32 40  1  0
 41 42  1  0
 41 43  1  0
 15 19  2  0
 16 22  2  0
 12 17  1  6
 17 19  1  0
 17 20  1  0
 18 19  1  0
 18 22  1  0
 18 23  1  0
  9 10  1  0
  9 11  1  0
 10 12  1  0
 11  5  1  1
 33 34  1  0
 33 35  1  0
 34 36  1  0
 35 37  1  0
 36 42  1  1
 20 21  2  0
 21 22  1  0
M  CHG  2   2  -1  26  -1
M  END
>  <COMPND>  (154) 
    8629 

>  <AUTHOR>  (154) 
    GENERATED BY OPEN BABEL 3.1.1

>  <MASTER>  (154) 
        0    0    0    0    0    0    0    0   58    0   58    0

>  <minimizedAffinity>  (154) 
-8.16422

>  <CNNscore>  (154) 
0.4758297205

>  <CNNaffinity>  (154) 
4.1759834290

>  <CNN_VS>  (154) 
1.9870569706

>  <CNNaffinity_variance>  (154) 
0.3107810616

$$$$
155
     RDKit          3D

 43 45  0  0  0  0  0  0  0  0999 V2000
   22.3968   71.0612   -3.0080 P   0  0  2  0  0  0  0  0  0  0  0  0
   22.1094   71.9305   -1.6742 O   0  0  0  0  0  0  0  0  0  0  0  0
   23.5617   71.5285   -3.8302 O   0  0  0  0  0  0  0  0  0  0  0  0
   20.9683   71.0307   -3.7671 O   0  0  0  0  0  0  0  0  0  0  0  0
   19.7918   70.8970   -2.9888 C   0  0  0  0  0  0  0  0  0  0  0  0
   19.2010   72.7242   -4.4332 O   0  0  0  0  0  0  0  0  0  0  0  0
   16.8343   73.1329   -2.6380 O   0  0  0  0  0  0  0  0  0  0  0  0
   15.7477   71.8138   -4.7630 O   0  0  0  0  0  0  0  0  0  0  0  0
   17.4614   71.9165   -3.0413 C   0  0  1  0  0  0  0  0  0  0  0  0
   17.1156   71.5991   -4.4812 C   0  0  2  0  0  0  0  0  0  0  0  0
   18.9621   72.1666   -3.1223 C   0  0  1  0  0  0  0  0  0  0  0  0
   18.0252   72.5500   -5.2406 C   0  0  2  0  0  0  0  0  0  0  0  0
   15.8751   72.9978   -2.5789 H   0  0  0  0  0  0  0  0  0  0  0  0
   15.2105   71.1849   -4.2563 H   0  0  0  0  0  0  0  0  0  0  0  0
   16.6177   73.0206   -7.6439 O   0  0  0  0  0  0  0  0  0  0  0  0
   19.6019   70.5080  -10.0979 O   0  0  0  0  0  0  0  0  0  0  0  0
   18.4122   72.0313   -6.5222 N   0  0  0  0  0  0  0  0  0  0  0  0
   18.1049   71.7693   -8.8639 N   0  0  0  0  0  0  0  0  0  0  0  0
   17.6358   72.3259   -7.6672 C   0  0  0  0  0  0  0  0  0  0  0  0
   19.5505   71.2403   -6.6347 C   0  0  0  0  0  0  0  0  0  0  0  0
   19.9836   70.7160   -7.7831 C   0  0  0  0  0  0  0  0  0  0  0  0
   19.2295   70.9759   -9.0264 C   0  0  0  0  0  0  0  0  0  0  0  0
   17.5797   71.9608   -9.6746 H   0  0  0  0  0  0  0  0  0  0  0  0
   22.5372   69.5554   -2.4372 O   0  0  0  0  0  0  0  0  0  0  0  0
   23.7254   68.8421   -1.6051 P   0  0  2  0  0  0  0  0  0  0  0  0
   25.0335   69.1170   -2.5165 O   0  0  0  0  0  0  0  0  0  0  0  0
   23.4778   67.3935   -1.2980 O   0  0  0  0  0  0  0  0  0  0  0  0
   23.9310   69.7758   -0.3048 O   0  0  0  0  0  0  0  0  0  0  0  0
   24.3551   69.6131    2.0212 O   0  0  0  0  0  0  0  0  0  0  0  0
   20.8908   71.8571    2.1376 O   0  0  0  0  0  0  0  0  0  0  0  0
   23.4064   73.0998    2.7503 O   0  0  0  0  0  0  0  0  0  0  0  0
   21.1695   69.7313    0.1926 O   0  0  0  0  0  0  0  0  0  0  0  0
   22.1443   71.4225    1.6037 C   0  0  1  0  0  0  0  0  0  0  0  0
   23.2292   71.6896    2.6489 C   0  0  1  0  0  0  0  0  0  0  0  0
   22.0608   69.9310    1.2845 C   0  0  2  0  0  0  0  0  0  0  0  0
   24.5504   71.0116    2.2617 C   0  0  1  0  0  0  0  0  0  0  0  0
   23.4361   69.3448    0.9604 C   0  0  1  0  0  0  0  0  0  0  0  0
   20.9369   72.8035    2.3419 H   0  0  0  0  0  0  0  0  0  0  0  0
   22.5648   73.5158    2.9948 H   0  0  0  0  0  0  0  0  0  0  0  0
   20.3025   70.1064    0.4104 H   0  0  0  0  0  0  0  0  0  0  0  0
   26.1705   72.4263    3.3022 O   0  0  0  0  0  0  0  0  0  0  0  0
   25.5998   71.1322    3.3646 C   0  0  0  0  0  0  0  0  0  0  0  0
   26.8401   72.5177    3.9986 H   0  0  0  0  0  0  0  0  0  0  0  0
 25 28  1  0
 25 24  1  0
 25 26  1  6
 25 27  2  0
  1  4  1  0
  1 24  1  0
  1  2  1  1
  1  3  2  0
  6 11  1  0
  6 12  1  0
 29 36  1  0
 29 37  1  0
  9  7  1  6
  7 13  1  0
 10  8  1  1
  8 14  1  0
 37 28  1  6
  4  5  1  0
 33 30  1  1
 30 38  1  0
 34 31  1  6
 31 39  1  0
 35 32  1  6
 32 40  1  0
 41 42  1  0
 41 43  1  0
 15 19  2  0
 16 22  2  0
 12 17  1  6
 17 19  1  0
 17 20  1  0
 18 19  1  0
 18 22  1  0
 18 23  1  0
  9 10  1  0
  9 11  1  0
 10 12  1  0
 11  5  1  6
 33 34  1  0
 33 35  1  0
 34 36  1  0
 35 37  1  0
 36 42  1  1
 20 21  2  0
 21 22  1  0
M  CHG  2   2  -1  26  -1
M  END
>  <COMPND>  (155) 
    8629 

>  <AUTHOR>  (155) 
    GENERATED BY OPEN BABEL 3.1.1

>  <MASTER>  (155) 
        0    0    0    0    0    0    0    0   58    0   58    0

>  <minimizedAffinity>  (155) 
-8.48343

>  <CNNscore>  (155) 
0.4680175185

>  <CNNaffinity>  (155) 
4.5130901337

>  <CNN_VS>  (155) 
2.1122052670

>  <CNNaffinity_variance>  (155) 
0.2045194209

$$$$
156
     RDKit          3D

 43 45  0  0  0  0  0  0  0  0999 V2000
   19.9061   73.0469    2.0340 P   0  0  2  0  0  0  0  0  0  0  0  0
   19.0732   73.8578    3.1592 O   0  0  0  0  0  0  0  0  0  0  0  0
   19.7043   71.5601    2.0448 O   0  0  0  0  0  0  0  0  0  0  0  0
   21.4298   73.5507    2.2404 O   0  0  0  0  0  0  0  0  0  0  0  0
   22.4111   72.6001    2.6163 C   0  0  0  0  0  0  0  0  0  0  0  0
   23.6047   71.6885    4.4919 O   0  0  0  0  0  0  0  0  0  0  0  0
   22.4496   73.9495    6.0870 O   0  0  0  0  0  0  0  0  0  0  0  0
   24.9875   74.8120    5.5849 O   0  0  0  0  0  0  0  0  0  0  0  0
   22.8876   73.9346    4.7294 C   0  0  1  0  0  0  0  0  0  0  0  0
   24.4005   73.9141    4.6651 C   0  0  2  0  0  0  0  0  0  0  0  0
   22.5256   72.5795    4.1344 C   0  0  1  0  0  0  0  0  0  0  0  0
   24.7099   72.4620    4.9870 C   0  0  2  0  0  0  0  0  0  0  0  0
   22.6696   74.8055    6.4882 H   0  0  0  0  0  0  0  0  0  0  0  0
   24.7617   75.7223    5.3374 H   0  0  0  0  0  0  0  0  0  0  0  0
   27.3100   73.2369    5.7725 O   0  0  0  0  0  0  0  0  0  0  0  0
   29.2679   70.6526    2.4969 O   0  0  0  0  0  0  0  0  0  0  0  0
   25.9171   72.0066    4.3572 N   0  0  0  0  0  0  0  0  0  0  0  0
   28.2828   71.9493    4.1410 N   0  0  0  0  0  0  0  0  0  0  0  0
   27.1725   72.4569    4.8278 C   0  0  0  0  0  0  0  0  0  0  0  0
   25.8488   71.1230    3.2855 C   0  0  0  0  0  0  0  0  0  0  0  0
   26.9169   70.6493    2.6405 C   0  0  0  0  0  0  0  0  0  0  0  0
   28.2662   71.0704    3.0696 C   0  0  0  0  0  0  0  0  0  0  0  0
   29.1679   72.2495    4.4511 H   0  0  0  0  0  0  0  0  0  0  0  0
   19.4655   73.7756    0.6601 O   0  0  0  0  0  0  0  0  0  0  0  0
   20.0735   73.6799   -0.8346 P   0  0  2  0  0  0  0  0  0  0  0  0
   21.2779   72.6112   -0.6775 O   0  0  0  0  0  0  0  0  0  0  0  0
   20.4891   75.0004   -1.4156 O   0  0  0  0  0  0  0  0  0  0  0  0
   18.9451   72.9002   -1.6855 O   0  0  0  0  0  0  0  0  0  0  0  0
   16.5993   72.6408   -1.4707 O   0  0  0  0  0  0  0  0  0  0  0  0
   17.6082   68.7526   -2.4270 O   0  0  0  0  0  0  0  0  0  0  0  0
   16.2729   70.3903   -4.3719 O   0  0  0  0  0  0  0  0  0  0  0  0
   19.3263   70.3045   -0.6894 O   0  0  0  0  0  0  0  0  0  0  0  0
   17.7186   70.1776   -2.4784 C   0  0  1  0  0  0  0  0  0  0  0  0
   16.3947   70.7427   -2.9967 C   0  0  1  0  0  0  0  0  0  0  0  0
   18.0166   70.7060   -1.0765 C   0  0  2  0  0  0  0  0  0  0  0  0
   16.3394   72.2671   -2.8288 C   0  0  1  0  0  0  0  0  0  0  0  0
   17.8866   72.2287   -1.0073 C   0  0  1  0  0  0  0  0  0  0  0  0
   17.4195   68.4106   -3.3141 H   0  0  0  0  0  0  0  0  0  0  0  0
   16.3098   69.4252   -4.4642 H   0  0  0  0  0  0  0  0  0  0  0  0
   19.3957   69.3387   -0.7371 H   0  0  0  0  0  0  0  0  0  0  0  0
   14.6904   73.9239   -2.3340 O   0  0  0  0  0  0  0  0  0  0  0  0
   14.9687   72.8333   -3.1928 C   0  0  0  0  0  0  0  0  0  0  0  0
   13.8211   74.2945   -2.5544 H   0  0  0  0  0  0  0  0  0  0  0  0
 25 28  1  0
 25 24  1  0
 25 26  1  1
 25 27  2  0
  1  4  1  0
  1 24  1  0
  1  2  1  1
  1  3  2  0
  6 11  1  0
  6 12  1  0
 29 36  1  0
 29 37  1  0
  9  7  1  1
  7 13  1  0
 10  8  1  1
  8 14  1  0
 37 28  1  6
  4  5  1  0
 33 30  1  1
 30 38  1  0
 34 31  1  6
 31 39  1  0
 35 32  1  6
 32 40  1  0
 41 42  1  0
 41 43  1  0
 15 19  2  0
 16 22  2  0
 12 17  1  6
 17 19  1  0
 17 20  1  0
 18 19  1  0
 18 22  1  0
 18 23  1  0
  9 10  1  0
  9 11  1  0
 10 12  1  0
 11  5  1  6
 33 34  1  0
 33 35  1  0
 34 36  1  0
 35 37  1  0
 36 42  1  1
 20 21  2  0
 21 22  1  0
M  CHG  2   2  -1  26  -1
M  END
>  <COMPND>  (156) 
    8629 

>  <AUTHOR>  (156) 
    GENERATED BY OPEN BABEL 3.1.1

>  <MASTER>  (156) 
        0    0    0    0    0    0    0    0   58    0   58    0

>  <minimizedAffinity>  (156) 
-7.12409

>  <CNNscore>  (156) 
0.4659829736

>  <CNNaffinity>  (156) 
4.2965435982

>  <CNN_VS>  (156) 
2.0021162033

>  <CNNaffinity_variance>  (156) 
0.1082803980

$$$$
157
     RDKit          3D

 43 45  0  0  0  0  0  0  0  0999 V2000
   20.9063   70.3575    0.3229 P   0  0  2  0  0  0  0  0  0  0  0  0
   19.3248   70.6961    0.2807 O   0  0  0  0  0  0  0  0  0  0  0  0
   21.2403   68.9287    0.6367 O   0  0  0  0  0  0  0  0  0  0  0  0
   21.5126   71.4605    1.3396 O   0  0  0  0  0  0  0  0  0  0  0  0
   22.9201   71.6007    1.4241 C   0  0  0  0  0  0  0  0  0  0  0  0
   24.8432   70.3707    2.1743 O   0  0  0  0  0  0  0  0  0  0  0  0
   23.4119   70.0954    4.7946 O   0  0  0  0  0  0  0  0  0  0  0  0
   25.1821   72.1090    5.2929 O   0  0  0  0  0  0  0  0  0  0  0  0
   23.4242   71.1939    3.8844 C   0  0  1  0  0  0  0  0  0  0  0  0
   24.7483   71.9251    3.9607 C   0  0  2  0  0  0  0  0  0  0  0  0
   23.4532   70.6303    2.4692 C   0  0  1  0  0  0  0  0  0  0  0  0
   25.6625   71.0047    3.1700 C   0  0  2  0  0  0  0  0  0  0  0  0
   23.3930   70.4305    5.7053 H   0  0  0  0  0  0  0  0  0  0  0  0
   24.5682   72.7016    5.7541 H   0  0  0  0  0  0  0  0  0  0  0  0
   28.2533   69.9653    2.7398 O   0  0  0  0  0  0  0  0  0  0  0  0
   29.6549   73.8274    0.6515 O   0  0  0  0  0  0  0  0  0  0  0  0
   26.7239   71.7169    2.5161 N   0  0  0  0  0  0  0  0  0  0  0  0
   28.9490   71.8891    1.7002 N   0  0  0  0  0  0  0  0  0  0  0  0
   27.9883   71.1048    2.3512 C   0  0  0  0  0  0  0  0  0  0  0  0
   26.5058   73.0073    2.0458 C   0  0  0  0  0  0  0  0  0  0  0  0
   27.4329   73.7423    1.4282 C   0  0  0  0  0  0  0  0  0  0  0  0
   28.7809   73.1767    1.2159 C   0  0  0  0  0  0  0  0  0  0  0  0
   29.8376   71.4835    1.5745 H   0  0  0  0  0  0  0  0  0  0  0  0
   21.4261   70.8687   -1.1198 O   0  0  0  0  0  0  0  0  0  0  0  0
   20.7998   71.9406   -2.1551 P   0  0  2  0  0  0  0  0  0  0  0  0
   21.9867   72.1515   -3.2341 O   0  0  0  0  0  0  0  0  0  0  0  0
   20.3158   73.2076   -1.5113 O   0  0  0  0  0  0  0  0  0  0  0  0
   19.6629   71.1201   -2.9547 O   0  0  0  0  0  0  0  0  0  0  0  0
   17.9469   72.4699   -3.8768 O   0  0  0  0  0  0  0  0  0  0  0  0
   16.1574   68.7691   -4.2676 O   0  0  0  0  0  0  0  0  0  0  0  0
   17.1414   70.1219   -6.6021 O   0  0  0  0  0  0  0  0  0  0  0  0
   17.7315   69.3705   -1.9139 O   0  0  0  0  0  0  0  0  0  0  0  0
   17.2485   69.6936   -4.2513 C   0  0  1  0  0  0  0  0  0  0  0  0
   16.9990   70.7490   -5.3305 C   0  0  1  0  0  0  0  0  0  0  0  0
   17.3308   70.3443   -2.8718 C   0  0  2  0  0  0  0  0  0  0  0  0
   17.9827   71.9194   -5.1987 C   0  0  1  0  0  0  0  0  0  0  0  0
   18.3003   71.5275   -2.8624 C   0  0  1  0  0  0  0  0  0  0  0  0
   16.0999   68.3521   -5.1407 H   0  0  0  0  0  0  0  0  0  0  0  0
   16.5151   69.3844   -6.6722 H   0  0  0  0  0  0  0  0  0  0  0  0
   17.1097   68.6269   -1.9294 H   0  0  0  0  0  0  0  0  0  0  0  0
   18.2581   72.7750   -7.4126 O   0  0  0  0  0  0  0  0  0  0  0  0
   17.6524   73.0556   -6.1641 C   0  0  0  0  0  0  0  0  0  0  0  0
   18.0561   73.4896   -8.0372 H   0  0  0  0  0  0  0  0  0  0  0  0
 25 28  1  0
 25 24  1  0
 25 26  1  6
 25 27  2  0
  1  4  1  0
  1 24  1  0
  1  2  1  6
  1  3  2  0
  6 11  1  0
  6 12  1  0
 29 36  1  0
 29 37  1  0
  9  7  1  1
  7 13  1  0
 10  8  1  1
  8 14  1  0
 37 28  1  6
  4  5  1  0
 33 30  1  1
 30 38  1  0
 34 31  1  6
 31 39  1  0
 35 32  1  1
 32 40  1  0
 41 42  1  0
 41 43  1  0
 15 19  2  0
 16 22  2  0
 12 17  1  6
 17 19  1  0
 17 20  1  0
 18 19  1  0
 18 22  1  0
 18 23  1  0
  9 10  1  0
  9 11  1  0
 10 12  1  0
 11  5  1  6
 33 34  1  0
 33 35  1  0
 34 36  1  0
 35 37  1  0
 36 42  1  6
 20 21  2  0
 21 22  1  0
M  CHG  2   2  -1  26  -1
M  END
>  <COMPND>  (157) 
    8629 

>  <AUTHOR>  (157) 
    GENERATED BY OPEN BABEL 3.1.1

>  <MASTER>  (157) 
        0    0    0    0    0    0    0    0   58    0   58    0

>  <minimizedAffinity>  (157) 
-8.11107

>  <CNNscore>  (157) 
0.4650941193

>  <CNNaffinity>  (157) 
4.2859196663

>  <CNN_VS>  (157) 
1.9933559895

>  <CNNaffinity_variance>  (157) 
0.2825632691

$$$$
158
     RDKit          3D

 43 45  0  0  0  0  0  0  0  0999 V2000
   22.2642   72.0726   -2.9782 P   0  0  2  0  0  0  0  0  0  0  0  0
   23.4735   71.3757   -3.7963 O   0  0  0  0  0  0  0  0  0  0  0  0
   21.9354   73.4733   -3.4041 O   0  0  0  0  0  0  0  0  0  0  0  0
   22.6890   71.8913   -1.4275 O   0  0  0  0  0  0  0  0  0  0  0  0
   23.5914   70.8520   -1.0909 C   0  0  0  0  0  0  0  0  0  0  0  0
   23.7546   69.3964    0.8140 O   0  0  0  0  0  0  0  0  0  0  0  0
   20.7591   69.2809    0.7471 O   0  0  0  0  0  0  0  0  0  0  0  0
   21.2405   71.0651    2.7524 O   0  0  0  0  0  0  0  0  0  0  0  0
   21.6266   70.3747    0.4533 C   0  0  1  0  0  0  0  0  0  0  0  0
   22.2093   70.9415    1.7311 C   0  0  2  0  0  0  0  0  0  0  0  0
   22.8636   69.8192   -0.2413 C   0  0  1  0  0  0  0  0  0  0  0  0
   23.2850   69.9224    2.0660 C   0  0  2  0  0  0  0  0  0  0  0  0
   19.9616   69.6110    1.1909 H   0  0  0  0  0  0  0  0  0  0  0  0
   20.5786   71.7246    2.4922 H   0  0  0  0  0  0  0  0  0  0  0  0
   23.3227   70.4181    4.8465 O   0  0  0  0  0  0  0  0  0  0  0  0
   27.5836   72.1650    4.6626 O   0  0  0  0  0  0  0  0  0  0  0  0
   24.3915   70.5055    2.7711 N   0  0  0  0  0  0  0  0  0  0  0  0
   25.4443   71.2874    4.7527 N   0  0  0  0  0  0  0  0  0  0  0  0
   24.3085   70.7131    4.1677 C   0  0  0  0  0  0  0  0  0  0  0  0
   25.5427   70.8646    2.0786 C   0  0  0  0  0  0  0  0  0  0  0  0
   26.6167   71.4124    2.6511 C   0  0  0  0  0  0  0  0  0  0  0  0
   26.6117   71.6627    4.1068 C   0  0  0  0  0  0  0  0  0  0  0  0
   25.4092   71.4417    5.7247 H   0  0  0  0  0  0  0  0  0  0  0  0
   21.0532   71.0157   -3.1491 O   0  0  0  0  0  0  0  0  0  0  0  0
   19.5017   71.0976   -2.7027 P   0  0  2  0  0  0  0  0  0  0  0  0
   19.3972   72.5453   -1.9880 O   0  0  0  0  0  0  0  0  0  0  0  0
   19.0459   69.9507   -1.8480 O   0  0  0  0  0  0  0  0  0  0  0  0
   18.6870   71.2662   -4.0858 O   0  0  0  0  0  0  0  0  0  0  0  0
   19.3616   72.1236   -6.1898 O   0  0  0  0  0  0  0  0  0  0  0  0
   15.5045   73.5942   -6.0838 O   0  0  0  0  0  0  0  0  0  0  0  0
   16.1462   71.4233   -7.8511 O   0  0  0  0  0  0  0  0  0  0  0  0
   17.0959   73.5393   -3.6663 O   0  0  0  0  0  0  0  0  0  0  0  0
   16.5442   72.6446   -5.8335 C   0  0  1  0  0  0  0  0  0  0  0  0
   17.1279   72.2069   -7.1783 C   0  0  1  0  0  0  0  0  0  0  0  0
   17.6197   73.2985   -4.9679 C   0  0  2  0  0  0  0  0  0  0  0  0
   18.4174   71.3975   -6.9854 C   0  0  1  0  0  0  0  0  0  0  0  0
   18.8782   72.4333   -4.8812 C   0  0  1  0  0  0  0  0  0  0  0  0
   14.8182   73.1852   -6.6325 H   0  0  0  0  0  0  0  0  0  0  0  0
   15.3369   71.9458   -7.9661 H   0  0  0  0  0  0  0  0  0  0  0  0
   16.2997   74.0883   -3.7348 H   0  0  0  0  0  0  0  0  0  0  0  0
   18.3795   70.0518   -8.9594 O   0  0  0  0  0  0  0  0  0  0  0  0
   19.1010   71.0855   -8.3149 C   0  0  0  0  0  0  0  0  0  0  0  0
   18.8030   69.8429   -9.8072 H   0  0  0  0  0  0  0  0  0  0  0  0
 25 28  1  0
 25 24  1  0
 25 26  1  1
 25 27  2  0
  1  4  1  0
  1 24  1  0
  1  2  1  6
  1  3  2  0
  6 11  1  0
  6 12  1  0
 29 36  1  0
 29 37  1  0
  9  7  1  1
  7 13  1  0
 10  8  1  1
  8 14  1  0
 37 28  1  6
  4  5  1  0
 33 30  1  6
 30 38  1  0
 34 31  1  1
 31 39  1  0
 35 32  1  1
 32 40  1  0
 41 42  1  0
 41 43  1  0
 15 19  2  0
 16 22  2  0
 12 17  1  6
 17 19  1  0
 17 20  1  0
 18 19  1  0
 18 22  1  0
 18 23  1  0
  9 10  1  0
  9 11  1  0
 10 12  1  0
 11  5  1  1
 33 34  1  0
 33 35  1  0
 34 36  1  0
 35 37  1  0
 36 42  1  6
 20 21  2  0
 21 22  1  0
M  CHG  2   2  -1  26  -1
M  END
>  <COMPND>  (158) 
    8629 

>  <AUTHOR>  (158) 
    GENERATED BY OPEN BABEL 3.1.1

>  <MASTER>  (158) 
        0    0    0    0    0    0    0    0   58    0   58    0

>  <minimizedAffinity>  (158) 
-8.15568

>  <CNNscore>  (158) 
0.4501907825

>  <CNNaffinity>  (158) 
4.4336371422

>  <CNN_VS>  (158) 
1.9959825277

>  <CNNaffinity_variance>  (158) 
0.0097279567

$$$$
159
     RDKit          3D

 43 45  0  0  0  0  0  0  0  0999 V2000
   20.6672   70.8740   -0.2055 P   0  0  2  0  0  0  0  0  0  0  0  0
   20.3687   72.3118    0.4735 O   0  0  0  0  0  0  0  0  0  0  0  0
   19.4506   70.0441   -0.4931 O   0  0  0  0  0  0  0  0  0  0  0  0
   21.7613   70.1998    0.7775 O   0  0  0  0  0  0  0  0  0  0  0  0
   22.7205   71.0383    1.3978 C   0  0  0  0  0  0  0  0  0  0  0  0
   24.7993   70.1950    2.2589 O   0  0  0  0  0  0  0  0  0  0  0  0
   23.4048   69.9912    4.9055 O   0  0  0  0  0  0  0  0  0  0  0  0
   24.8520   72.2872    5.1714 O   0  0  0  0  0  0  0  0  0  0  0  0
   23.2606   70.9759    3.8833 C   0  0  1  0  0  0  0  0  0  0  0  0
   24.4606   71.8997    3.8701 C   0  0  2  0  0  0  0  0  0  0  0  0
   23.3839   70.2751    2.5360 C   0  0  1  0  0  0  0  0  0  0  0  0
   25.5076   71.0465    3.1744 C   0  0  2  0  0  0  0  0  0  0  0  0
   23.3294   70.4151    5.7754 H   0  0  0  0  0  0  0  0  0  0  0  0
   24.1533   72.8278    5.5718 H   0  0  0  0  0  0  0  0  0  0  0  0
   28.1435   70.2250    2.5787 O   0  0  0  0  0  0  0  0  0  0  0  0
   29.0594   74.1534    0.3493 O   0  0  0  0  0  0  0  0  0  0  0  0
   26.4562   71.8346    2.4394 N   0  0  0  0  0  0  0  0  0  0  0  0
   28.5973   72.1816    1.4690 N   0  0  0  0  0  0  0  0  0  0  0  0
   27.7548   71.3301    2.1950 C   0  0  0  0  0  0  0  0  0  0  0  0
   26.0955   73.0926    1.9690 C   0  0  0  0  0  0  0  0  0  0  0  0
   26.9112   73.8927    1.2793 C   0  0  0  0  0  0  0  0  0  0  0  0
   28.2856   73.4408    0.9812 C   0  0  0  0  0  0  0  0  0  0  0  0
   29.5071   71.8513    1.2871 H   0  0  0  0  0  0  0  0  0  0  0  0
   21.5404   71.2620   -1.5093 O   0  0  0  0  0  0  0  0  0  0  0  0
   21.1652   72.1353   -2.8168 P   0  0  2  0  0  0  0  0  0  0  0  0
   22.3357   71.7535   -3.8664 O   0  0  0  0  0  0  0  0  0  0  0  0
   21.0245   73.6067   -2.5544 O   0  0  0  0  0  0  0  0  0  0  0  0
   19.8395   71.4321   -3.4111 O   0  0  0  0  0  0  0  0  0  0  0  0
   19.1701   69.2940   -4.1839 O   0  0  0  0  0  0  0  0  0  0  0  0
   17.8658   71.5830   -7.3635 O   0  0  0  0  0  0  0  0  0  0  0  0
   15.9482   70.4558   -5.5469 O   0  0  0  0  0  0  0  0  0  0  0  0
   20.3648   72.2251   -6.0512 O   0  0  0  0  0  0  0  0  0  0  0  0
   18.1423   71.2989   -5.9894 C   0  0  1  0  0  0  0  0  0  0  0  0
   17.3210   70.0754   -5.5780 C   0  0  1  0  0  0  0  0  0  0  0  0
   19.6360   71.0229   -5.8275 C   0  0  2  0  0  0  0  0  0  0  0  0
   17.7608   69.5490   -4.2052 C   0  0  1  0  0  0  0  0  0  0  0  0
   19.9590   70.4568   -4.4435 C   0  0  1  0  0  0  0  0  0  0  0  0
   16.9191   71.7596   -7.4731 H   0  0  0  0  0  0  0  0  0  0  0  0
   15.6833   70.7868   -6.4196 H   0  0  0  0  0  0  0  0  0  0  0  0
   20.1519   72.5733   -6.9306 H   0  0  0  0  0  0  0  0  0  0  0  0
   15.9032   68.1120   -4.6449 O   0  0  0  0  0  0  0  0  0  0  0  0
   17.0648   68.2382   -3.8455 C   0  0  0  0  0  0  0  0  0  0  0  0
   15.4501   67.2820   -4.4271 H   0  0  0  0  0  0  0  0  0  0  0  0
 25 28  1  0
 25 24  1  0
 25 26  1  6
 25 27  2  0
  1  4  1  0
  1 24  1  0
  1  2  1  1
  1  3  2  0
  6 11  1  0
  6 12  1  0
 29 36  1  0
 29 37  1  0
  9  7  1  1
  7 13  1  0
 10  8  1  1
  8 14  1  0
 37 28  1  1
  4  5  1  0
 33 30  1  6
 30 38  1  0
 34 31  1  1
 31 39  1  0
 35 32  1  1
 32 40  1  0
 41 42  1  0
 41 43  1  0
 15 19  2  0
 16 22  2  0
 12 17  1  6
 17 19  1  0
 17 20  1  0
 18 19  1  0
 18 22  1  0
 18 23  1  0
  9 10  1  0
  9 11  1  0
 10 12  1  0
 11  5  1  6
 33 34  1  0
 33 35  1  0
 34 36  1  0
 35 37  1  0
 36 42  1  6
 20 21  2  0
 21 22  1  0
M  CHG  2   2  -1  26  -1
M  END
>  <COMPND>  (159) 
    8629 

>  <AUTHOR>  (159) 
    GENERATED BY OPEN BABEL 3.1.1

>  <MASTER>  (159) 
        0    0    0    0    0    0    0    0   58    0   58    0

>  <minimizedAffinity>  (159) 
-7.89425

>  <CNNscore>  (159) 
0.4450925887

>  <CNNaffinity>  (159) 
4.3778195381

>  <CNN_VS>  (159) 
1.9485350847

>  <CNNaffinity_variance>  (159) 
0.0837783217

$$$$
160
     RDKit          3D

 43 45  0  0  0  0  0  0  0  0999 V2000
   22.8290   72.7639   -3.2208 P   0  0  2  0  0  0  0  0  0  0  0  0
   23.7879   71.7274   -4.0105 O   0  0  0  0  0  0  0  0  0  0  0  0
   23.4218   74.1220   -2.9852 O   0  0  0  0  0  0  0  0  0  0  0  0
   22.3871   71.9503   -1.8939 O   0  0  0  0  0  0  0  0  0  0  0  0
   23.2716   70.9730   -1.3741 C   0  0  0  0  0  0  0  0  0  0  0  0
   23.3746   69.4561    0.4866 O   0  0  0  0  0  0  0  0  0  0  0  0
   20.3840   69.6550    0.5735 O   0  0  0  0  0  0  0  0  0  0  0  0
   21.1496   71.3232    2.5904 O   0  0  0  0  0  0  0  0  0  0  0  0
   21.3463   70.6603    0.2595 C   0  0  1  0  0  0  0  0  0  0  0  0
   22.0482   71.1278    1.5175 C   0  0  2  0  0  0  0  0  0  0  0  0
   22.4820   69.9985   -0.5111 C   0  0  1  0  0  0  0  0  0  0  0  0
   23.0258   69.9933    1.7729 C   0  0  2  0  0  0  0  0  0  0  0  0
   19.6488   70.0540    1.0656 H   0  0  0  0  0  0  0  0  0  0  0  0
   20.5488   72.0550    2.3799 H   0  0  0  0  0  0  0  0  0  0  0  0
   23.2429   70.4395    4.5535 O   0  0  0  0  0  0  0  0  0  0  0  0
   27.6607   71.7016    4.1913 O   0  0  0  0  0  0  0  0  0  0  0  0
   24.2211   70.4383    2.4321 N   0  0  0  0  0  0  0  0  0  0  0  0
   25.4425   71.0674    4.3709 N   0  0  0  0  0  0  0  0  0  0  0  0
   24.2244   70.6327    3.8331 C   0  0  0  0  0  0  0  0  0  0  0  0
   25.3734   70.6769    1.6910 C   0  0  0  0  0  0  0  0  0  0  0  0
   26.5266   71.0924    2.2189 C   0  0  0  0  0  0  0  0  0  0  0  0
   26.6146   71.3196    3.6758 C   0  0  0  0  0  0  0  0  0  0  0  0
   25.4683   71.2100    5.3450 H   0  0  0  0  0  0  0  0  0  0  0  0
   21.4810   72.7638   -4.1129 O   0  0  0  0  0  0  0  0  0  0  0  0
   21.0221   73.7067   -5.3431 P   0  0  2  0  0  0  0  0  0  0  0  0
   22.2570   73.5887   -6.3817 O   0  0  0  0  0  0  0  0  0  0  0  0
   20.6795   75.1133   -4.9458 O   0  0  0  0  0  0  0  0  0  0  0  0
   19.8167   72.8987   -6.0495 O   0  0  0  0  0  0  0  0  0  0  0  0
   18.8173   70.8400   -5.4333 O   0  0  0  0  0  0  0  0  0  0  0  0
   18.5929   70.4792   -9.5407 O   0  0  0  0  0  0  0  0  0  0  0  0
   16.2031   70.9796   -8.0286 O   0  0  0  0  0  0  0  0  0  0  0  0
   20.9265   71.6831   -8.3223 O   0  0  0  0  0  0  0  0  0  0  0  0
   18.5726   71.1738   -8.2907 C   0  0  1  0  0  0  0  0  0  0  0  0
   17.4416   70.5946   -7.4385 C   0  0  1  0  0  0  0  0  0  0  0  0
   19.9195   70.9882   -7.5945 C   0  0  2  0  0  0  0  0  0  0  0  0
   17.5240   71.0993   -5.9916 C   0  0  1  0  0  0  0  0  0  0  0  0
   19.8789   71.4781   -6.1459 C   0  0  1  0  0  0  0  0  0  0  0  0
   17.7407   70.5934   -9.9881 H   0  0  0  0  0  0  0  0  0  0  0  0
   16.1641   70.6551   -8.9420 H   0  0  0  0  0  0  0  0  0  0  0  0
   20.9423   71.3638   -9.2375 H   0  0  0  0  0  0  0  0  0  0  0  0
   15.9415   69.3204   -5.7915 O   0  0  0  0  0  0  0  0  0  0  0  0
   16.5022   70.4133   -5.0875 C   0  0  0  0  0  0  0  0  0  0  0  0
   15.2895   68.8739   -5.2282 H   0  0  0  0  0  0  0  0  0  0  0  0
 25 28  1  0
 25 24  1  0
 25 26  1  6
 25 27  2  0
  1  4  1  0
  1 24  1  0
  1  2  1  6
  1  3  2  0
  6 11  1  0
  6 12  1  0
 29 36  1  0
 29 37  1  0
  9  7  1  1
  7 13  1  0
 10  8  1  1
  8 14  1  0
 37 28  1  6
  4  5  1  0
 33 30  1  6
 30 38  1  0
 34 31  1  6
 31 39  1  0
 35 32  1  6
 32 40  1  0
 41 42  1  0
 41 43  1  0
 15 19  2  0
 16 22  2  0
 12 17  1  6
 17 19  1  0
 17 20  1  0
 18 19  1  0
 18 22  1  0
 18 23  1  0
  9 10  1  0
  9 11  1  0
 10 12  1  0
 11  5  1  1
 33 34  1  0
 33 35  1  0
 34 36  1  0
 35 37  1  0
 36 42  1  1
 20 21  2  0
 21 22  1  0
M  CHG  2   2  -1  26  -1
M  END
>  <COMPND>  (160) 
    8629 

>  <AUTHOR>  (160) 
    GENERATED BY OPEN BABEL 3.1.1

>  <MASTER>  (160) 
        0    0    0    0    0    0    0    0   58    0   58    0

>  <minimizedAffinity>  (160) 
-9.19137

>  <CNNscore>  (160) 
0.4386148751

>  <CNNaffinity>  (160) 
4.3830122948

>  <CNN_VS>  (160) 
1.9224543571

>  <CNNaffinity_variance>  (160) 
0.1180710644

$$$$
161
     RDKit          3D

 43 45  0  0  0  0  0  0  0  0999 V2000
   22.5784   72.2751    0.3905 P   0  0  2  0  0  0  0  0  0  0  0  0
   23.4836   70.9824    0.0341 O   0  0  0  0  0  0  0  0  0  0  0  0
   23.2281   73.5993    0.1145 O   0  0  0  0  0  0  0  0  0  0  0  0
   22.1244   72.0210    1.9225 O   0  0  0  0  0  0  0  0  0  0  0  0
   22.8572   71.0896    2.6992 C   0  0  0  0  0  0  0  0  0  0  0  0
   24.2056   71.1674    4.6866 O   0  0  0  0  0  0  0  0  0  0  0  0
   22.4846   73.4702    5.5387 O   0  0  0  0  0  0  0  0  0  0  0  0
   24.7308   74.7146    4.6207 O   0  0  0  0  0  0  0  0  0  0  0  0
   22.9387   73.1180    4.2329 C   0  0  1  0  0  0  0  0  0  0  0  0
   24.4085   73.4494    4.0801 C   0  0  2  0  0  0  0  0  0  0  0  0
   22.9433   71.5977    4.1319 C   0  0  1  0  0  0  0  0  0  0  0  0
   25.0691   72.3067    4.8324 C   0  0  2  0  0  0  0  0  0  0  0  0
   22.4728   74.4366    5.6270 H   0  0  0  0  0  0  0  0  0  0  0  0
   24.2869   75.4080    4.1080 H   0  0  0  0  0  0  0  0  0  0  0  0
   27.4209   73.7816    5.3532 O   0  0  0  0  0  0  0  0  0  0  0  0
   29.9821   70.9635    2.7572 O   0  0  0  0  0  0  0  0  0  0  0  0
   26.3643   71.9806    4.3058 N   0  0  0  0  0  0  0  0  0  0  0  0
   28.6943   72.3771    4.0603 N   0  0  0  0  0  0  0  0  0  0  0  0
   27.4810   72.7869    4.6276 C   0  0  0  0  0  0  0  0  0  0  0  0
   26.5178   70.8719    3.4805 C   0  0  0  0  0  0  0  0  0  0  0  0
   27.6816   70.4954    2.9465 C   0  0  0  0  0  0  0  0  0  0  0  0
   28.8974   71.2839    3.2331 C   0  0  0  0  0  0  0  0  0  0  0  0
   29.4859   72.9239    4.2703 H   0  0  0  0  0  0  0  0  0  0  0  0
   21.2183   72.0068   -0.4408 O   0  0  0  0  0  0  0  0  0  0  0  0
   19.9988   70.9790   -0.1779 P   0  0  2  0  0  0  0  0  0  0  0  0
   19.0840   71.7579    0.9056 O   0  0  0  0  0  0  0  0  0  0  0  0
   20.4320   69.6066    0.2499 O   0  0  0  0  0  0  0  0  0  0  0  0
   19.1347   71.0131   -1.5406 O   0  0  0  0  0  0  0  0  0  0  0  0
   16.9275   70.2240   -1.1912 O   0  0  0  0  0  0  0  0  0  0  0  0
   16.9060   70.4394   -5.3148 O   0  0  0  0  0  0  0  0  0  0  0  0
   15.4219   72.3655   -3.7866 O   0  0  0  0  0  0  0  0  0  0  0  0
   19.2845   69.5456   -3.9279 O   0  0  0  0  0  0  0  0  0  0  0  0
   17.2594   70.8480   -3.9905 C   0  0  1  0  0  0  0  0  0  0  0  0
   15.9726   71.1750   -3.2302 C   0  0  1  0  0  0  0  0  0  0  0  0
   18.0164   69.7131   -3.3033 C   0  0  2  0  0  0  0  0  0  0  0  0
   16.2470   71.3625   -1.7319 C   0  0  1  0  0  0  0  0  0  0  0  0
   18.1931   69.9769   -1.8068 C   0  0  1  0  0  0  0  0  0  0  0  0
   16.4255   71.1557   -5.7568 H   0  0  0  0  0  0  0  0  0  0  0  0
   15.2539   72.2339   -4.7329 H   0  0  0  0  0  0  0  0  0  0  0  0
   19.1590   69.3789   -4.8746 H   0  0  0  0  0  0  0  0  0  0  0  0
   13.9712   70.6794   -1.4809 O   0  0  0  0  0  0  0  0  0  0  0  0
   14.9577   71.5333   -0.9315 C   0  0  0  0  0  0  0  0  0  0  0  0
   13.1451   70.7772   -0.9811 H   0  0  0  0  0  0  0  0  0  0  0  0
 25 28  1  0
 25 24  1  0
 25 26  1  1
 25 27  2  0
  1  4  1  0
  1 24  1  0
  1  2  1  6
  1  3  2  0
  6 11  1  0
  6 12  1  0
 29 36  1  0
 29 37  1  0
  9  7  1  1
  7 13  1  0
 10  8  1  1
  8 14  1  0
 37 28  1  6
  4  5  1  0
 33 30  1  6
 30 38  1  0
 34 31  1  6
 31 39  1  0
 35 32  1  6
 32 40  1  0
 41 42  1  0
 41 43  1  0
 15 19  2  0
 16 22  2  0
 12 17  1  6
 17 19  1  0
 17 20  1  0
 18 19  1  0
 18 22  1  0
 18 23  1  0
  9 10  1  0
  9 11  1  0
 10 12  1  0
 11  5  1  6
 33 34  1  0
 33 35  1  0
 34 36  1  0
 35 37  1  0
 36 42  1  1
 20 21  2  0
 21 22  1  0
M  CHG  2   2  -1  26  -1
M  END
>  <COMPND>  (161) 
    8629 

>  <AUTHOR>  (161) 
    GENERATED BY OPEN BABEL 3.1.1

>  <MASTER>  (161) 
        0    0    0    0    0    0    0    0   58    0   58    0

>  <minimizedAffinity>  (161) 
-7.92035

>  <CNNscore>  (161) 
0.7726088762

>  <CNNaffinity>  (161) 
4.6216335297

>  <CNN_VS>  (161) 
3.5707151890

>  <CNNaffinity_variance>  (161) 
0.1297366619

$$$$
162
     RDKit          3D

 43 45  0  0  0  0  0  0  0  0999 V2000
   22.0044   70.9713   -1.9760 P   0  0  2  0  0  0  0  0  0  0  0  0
   22.7503   72.2931   -2.5365 O   0  0  0  0  0  0  0  0  0  0  0  0
   22.1475   69.7502   -2.8361 O   0  0  0  0  0  0  0  0  0  0  0  0
   20.4880   71.4664   -1.7054 O   0  0  0  0  0  0  0  0  0  0  0  0
   19.8069   72.1552   -2.7396 C   0  0  0  0  0  0  0  0  0  0  0  0
   17.7477   72.0454   -3.9730 O   0  0  0  0  0  0  0  0  0  0  0  0
   16.7494   70.2562   -1.7838 O   0  0  0  0  0  0  0  0  0  0  0  0
   17.3920   68.4833   -3.7537 O   0  0  0  0  0  0  0  0  0  0  0  0
   18.0572   70.3506   -2.3458 C   0  0  1  0  0  0  0  0  0  0  0  0
   18.0865   69.7135   -3.7195 C   0  0  2  0  0  0  0  0  0  0  0  0
   18.3245   71.8154   -2.6689 C   0  0  1  0  0  0  0  0  0  0  0  0
   17.4272   70.7811   -4.5761 C   0  0  2  0  0  0  0  0  0  0  0  0
   16.5561   69.3297   -1.5689 H   0  0  0  0  0  0  0  0  0  0  0  0
   17.8503   67.8375   -3.1937 H   0  0  0  0  0  0  0  0  0  0  0  0
   15.8936   69.9940   -6.8136 O   0  0  0  0  0  0  0  0  0  0  0  0
   19.3835   70.7916   -9.7163 O   0  0  0  0  0  0  0  0  0  0  0  0
   17.9099   70.7737   -5.9282 N   0  0  0  0  0  0  0  0  0  0  0  0
   17.6325   70.3919   -8.2571 N   0  0  0  0  0  0  0  0  0  0  0  0
   17.0592   70.3595   -6.9795 C   0  0  0  0  0  0  0  0  0  0  0  0
   19.2134   71.1743   -6.2009 C   0  0  0  0  0  0  0  0  0  0  0  0
   19.7454   71.1982   -7.4247 C   0  0  0  0  0  0  0  0  0  0  0  0
   18.9233   70.7808   -8.5788 C   0  0  0  0  0  0  0  0  0  0  0  0
   17.0587   70.1073   -9.0051 H   0  0  0  0  0  0  0  0  0  0  0  0
   22.6083   70.8182   -0.4844 O   0  0  0  0  0  0  0  0  0  0  0  0
   22.1716   69.8636    0.7448 P   0  0  2  0  0  0  0  0  0  0  0  0
   23.3160   68.7200    0.7512 O   0  0  0  0  0  0  0  0  0  0  0  0
   20.7695   69.3360    0.6461 O   0  0  0  0  0  0  0  0  0  0  0  0
   22.4646   70.7409    2.0674 O   0  0  0  0  0  0  0  0  0  0  0  0
   22.2816   72.9747    2.8377 O   0  0  0  0  0  0  0  0  0  0  0  0
   26.2720   72.3146    3.6697 O   0  0  0  0  0  0  0  0  0  0  0  0
   24.3766   72.4416    5.8237 O   0  0  0  0  0  0  0  0  0  0  0  0
   25.1035   71.2355    1.2511 O   0  0  0  0  0  0  0  0  0  0  0  0
   24.8925   71.9606    3.5382 C   0  0  1  0  0  0  0  0  0  0  0  0
   24.0788   72.8411    4.4887 C   0  0  1  0  0  0  0  0  0  0  0  0
   24.4556   72.1842    2.0917 C   0  0  2  0  0  0  0  0  0  0  0  0
   22.5746   72.7095    4.2145 C   0  0  1  0  0  0  0  0  0  0  0  0
   22.9372   72.0792    1.9377 C   0  0  1  0  0  0  0  0  0  0  0  0
   26.5559   72.1745    4.5858 H   0  0  0  0  0  0  0  0  0  0  0  0
   25.3295   72.5290    5.9837 H   0  0  0  0  0  0  0  0  0  0  0  0
   26.0641   71.3122    1.3575 H   0  0  0  0  0  0  0  0  0  0  0  0
   22.6117   74.7280    5.4925 O   0  0  0  0  0  0  0  0  0  0  0  0
   21.7539   73.6953    5.0432 C   0  0  0  0  0  0  0  0  0  0  0  0
   22.1029   75.3631    6.0211 H   0  0  0  0  0  0  0  0  0  0  0  0
 25 28  1  0
 25 24  1  0
 25 26  1  1
 25 27  2  0
  1  4  1  0
  1 24  1  0
  1  2  1  6
  1  3  2  0
  6 11  1  0
  6 12  1  0
 29 36  1  0
 29 37  1  0
  9  7  1  6
  7 13  1  0
 10  8  1  1
  8 14  1  0
 37 28  1  1
  4  5  1  0
 33 30  1  6
 30 38  1  0
 34 31  1  1
 31 39  1  0
 35 32  1  6
 32 40  1  0
 41 42  1  0
 41 43  1  0
 15 19  2  0
 16 22  2  0
 12 17  1  6
 17 19  1  0
 17 20  1  0
 18 19  1  0
 18 22  1  0
 18 23  1  0
  9 10  1  0
  9 11  1  0
 10 12  1  0
 11  5  1  6
 33 34  1  0
 33 35  1  0
 34 36  1  0
 35 37  1  0
 36 42  1  1
 20 21  2  0
 21 22  1  0
M  CHG  2   2  -1  26  -1
M  END
>  <COMPND>  (162) 
    8629 

>  <AUTHOR>  (162) 
    GENERATED BY OPEN BABEL 3.1.1

>  <MASTER>  (162) 
        0    0    0    0    0    0    0    0   58    0   58    0

>  <minimizedAffinity>  (162) 
-8.80653

>  <CNNscore>  (162) 
0.7426159382

>  <CNNaffinity>  (162) 
4.8355121613

>  <CNN_VS>  (162) 
3.5909283161

>  <CNNaffinity_variance>  (162) 
0.2491437644

$$$$
163
     RDKit          3D

 43 45  0  0  0  0  0  0  0  0999 V2000
   22.0680   71.1147   -1.9611 P   0  0  2  0  0  0  0  0  0  0  0  0
   22.8670   72.2329   -2.8147 O   0  0  0  0  0  0  0  0  0  0  0  0
   22.0024   69.7580   -2.5986 O   0  0  0  0  0  0  0  0  0  0  0  0
   20.6427   71.8122   -1.6451 O   0  0  0  0  0  0  0  0  0  0  0  0
   19.8790   72.3111   -2.7294 C   0  0  0  0  0  0  0  0  0  0  0  0
   17.7892   71.9803   -3.8682 O   0  0  0  0  0  0  0  0  0  0  0  0
   17.0737   70.1261   -1.6230 O   0  0  0  0  0  0  0  0  0  0  0  0
   17.8046   68.4034   -3.6066 O   0  0  0  0  0  0  0  0  0  0  0  0
   18.3393   70.3447   -2.2440 C   0  0  1  0  0  0  0  0  0  0  0  0
   18.3722   69.6974   -3.6128 C   0  0  2  0  0  0  0  0  0  0  0  0
   18.4430   71.8250   -2.5896 C   0  0  1  0  0  0  0  0  0  0  0  0
   17.5715   70.6831   -4.4467 C   0  0  2  0  0  0  0  0  0  0  0  0
   16.9845   69.1875   -1.3928 H   0  0  0  0  0  0  0  0  0  0  0  0
   18.3499   67.8136   -3.0630 H   0  0  0  0  0  0  0  0  0  0  0  0
   15.9371   69.9509   -6.6308 O   0  0  0  0  0  0  0  0  0  0  0  0
   19.2933   70.8167   -9.6685 O   0  0  0  0  0  0  0  0  0  0  0  0
   17.9925   70.7081   -5.8191 N   0  0  0  0  0  0  0  0  0  0  0  0
   17.6095   70.3828   -8.1416 N   0  0  0  0  0  0  0  0  0  0  0  0
   17.0945   70.3198   -6.8405 C   0  0  0  0  0  0  0  0  0  0  0  0
   19.2830   71.1145   -6.1409 C   0  0  0  0  0  0  0  0  0  0  0  0
   19.7591   71.1677   -7.3865 C   0  0  0  0  0  0  0  0  0  0  0  0
   18.8849   70.7787   -8.5120 C   0  0  0  0  0  0  0  0  0  0  0  0
   17.0019   70.1165   -8.8695 H   0  0  0  0  0  0  0  0  0  0  0  0
   22.8150   71.1492   -0.5279 O   0  0  0  0  0  0  0  0  0  0  0  0
   22.7649   70.1232    0.7202 P   0  0  2  0  0  0  0  0  0  0  0  0
   23.6654   68.8783    0.2135 O   0  0  0  0  0  0  0  0  0  0  0  0
   21.3772   69.7481    1.1531 O   0  0  0  0  0  0  0  0  0  0  0  0
   23.6548   70.8303    1.8661 O   0  0  0  0  0  0  0  0  0  0  0  0
   25.6623   69.8351    2.6384 O   0  0  0  0  0  0  0  0  0  0  0  0
   24.7975   72.2010    5.9103 O   0  0  0  0  0  0  0  0  0  0  0  0
   26.9657   72.9239    4.1711 O   0  0  0  0  0  0  0  0  0  0  0  0
   22.6589   70.8642    4.4895 O   0  0  0  0  0  0  0  0  0  0  0  0
   24.8483   71.8676    4.5205 C   0  0  1  0  0  0  0  0  0  0  0  0
   26.3129   71.6579    4.1308 C   0  0  1  0  0  0  0  0  0  0  0  0
   24.0410   70.5927    4.2832 C   0  0  2  0  0  0  0  0  0  0  0  0
   26.4308   71.0403    2.7309 C   0  0  1  0  0  0  0  0  0  0  0  0
   24.2676   70.0342    2.8772 C   0  0  1  0  0  0  0  0  0  0  0  0
   25.3078   73.0100    6.0677 H   0  0  0  0  0  0  0  0  0  0  0  0
   26.8835   73.3032    5.0602 H   0  0  0  0  0  0  0  0  0  0  0  0
   22.5287   71.2168    5.3831 H   0  0  0  0  0  0  0  0  0  0  0  0
   28.1109   71.0179    1.0322 O   0  0  0  0  0  0  0  0  0  0  0  0
   27.8733   70.6771    2.3856 C   0  0  0  0  0  0  0  0  0  0  0  0
   29.0254   70.7926    0.7984 H   0  0  0  0  0  0  0  0  0  0  0  0
 25 28  1  0
 25 24  1  0
 25 26  1  6
 25 27  2  0
  1  4  1  0
  1 24  1  0
  1  2  1  6
  1  3  2  0
  6 11  1  0
  6 12  1  0
 29 36  1  0
 29 37  1  0
  9  7  1  6
  7 13  1  0
 10  8  1  1
  8 14  1  0
 37 28  1  6
  4  5  1  0
 33 30  1  1
 30 38  1  0
 34 31  1  6
 31 39  1  0
 35 32  1  6
 32 40  1  0
 41 42  1  0
 41 43  1  0
 15 19  2  0
 16 22  2  0
 12 17  1  6
 17 19  1  0
 17 20  1  0
 18 19  1  0
 18 22  1  0
 18 23  1  0
  9 10  1  0
  9 11  1  0
 10 12  1  0
 11  5  1  6
 33 34  1  0
 33 35  1  0
 34 36  1  0
 35 37  1  0
 36 42  1  1
 20 21  2  0
 21 22  1  0
M  CHG  2   2  -1  26  -1
M  END
>  <COMPND>  (163) 
    8629 

>  <AUTHOR>  (163) 
    GENERATED BY OPEN BABEL 3.1.1

>  <MASTER>  (163) 
        0    0    0    0    0    0    0    0   58    0   58    0

>  <minimizedAffinity>  (163) 
-8.99057

>  <CNNscore>  (163) 
0.7277906537

>  <CNNaffinity>  (163) 
4.7648630142

>  <CNN_VS>  (163) 
3.4678227901

>  <CNNaffinity_variance>  (163) 
0.1238554716

$$$$
164
     RDKit          3D

 43 45  0  0  0  0  0  0  0  0999 V2000
   20.6369   70.6572    0.0376 P   0  0  2  0  0  0  0  0  0  0  0  0
   21.0515   69.2250    0.6654 O   0  0  0  0  0  0  0  0  0  0  0  0
   19.5314   71.3697    0.7598 O   0  0  0  0  0  0  0  0  0  0  0  0
   20.3613   70.3319   -1.5232 O   0  0  0  0  0  0  0  0  0  0  0  0
   19.9575   71.3910   -2.3736 C   0  0  0  0  0  0  0  0  0  0  0  0
   18.0225   71.9569   -3.6809 O   0  0  0  0  0  0  0  0  0  0  0  0
   16.4514   70.3181   -1.7222 O   0  0  0  0  0  0  0  0  0  0  0  0
   16.7142   68.6215   -3.8409 O   0  0  0  0  0  0  0  0  0  0  0  0
   17.7683   70.1030   -2.2269 C   0  0  1  0  0  0  0  0  0  0  0  0
   17.7090   69.6079   -3.6569 C   0  0  2  0  0  0  0  0  0  0  0  0
   18.4367   71.4626   -2.3885 C   0  0  1  0  0  0  0  0  0  0  0  0
   17.4124   70.8870   -4.4211 C   0  0  2  0  0  0  0  0  0  0  0  0
   16.0046   69.4638   -1.6103 H   0  0  0  0  0  0  0  0  0  0  0  0
   16.9482   67.8277   -3.3350 H   0  0  0  0  0  0  0  0  0  0  0  0
   16.0352   69.9379   -6.6972 O   0  0  0  0  0  0  0  0  0  0  0  0
   19.5988   70.8680   -9.4678 O   0  0  0  0  0  0  0  0  0  0  0  0
   17.9564   70.8699   -5.7498 N   0  0  0  0  0  0  0  0  0  0  0  0
   17.8107   70.4020   -8.0749 N   0  0  0  0  0  0  0  0  0  0  0  0
   17.1822   70.3715   -6.8234 C   0  0  0  0  0  0  0  0  0  0  0  0
   19.2437   71.3439   -5.9777 C   0  0  0  0  0  0  0  0  0  0  0  0
   19.8290   71.3650   -7.1770 C   0  0  0  0  0  0  0  0  0  0  0  0
   19.0883   70.8621   -8.3519 C   0  0  0  0  0  0  0  0  0  0  0  0
   17.2906   70.0594   -8.8377 H   0  0  0  0  0  0  0  0  0  0  0  0
   22.0409   71.4575   -0.0005 O   0  0  0  0  0  0  0  0  0  0  0  0
   22.4574   72.8995    0.5995 P   0  0  2  0  0  0  0  0  0  0  0  0
   21.2474   73.2412    1.6178 O   0  0  0  0  0  0  0  0  0  0  0  0
   22.7054   73.9513   -0.4426 O   0  0  0  0  0  0  0  0  0  0  0  0
   23.7212   72.5944    1.5559 O   0  0  0  0  0  0  0  0  0  0  0  0
   25.1698   70.7453    1.8700 O   0  0  0  0  0  0  0  0  0  0  0  0
   24.4735   71.7168    5.8225 O   0  0  0  0  0  0  0  0  0  0  0  0
   27.0338   72.2855    4.6525 O   0  0  0  0  0  0  0  0  0  0  0  0
   22.3260   71.9018    3.8902 O   0  0  0  0  0  0  0  0  0  0  0  0
   24.6717   71.9816    4.4311 C   0  0  1  0  0  0  0  0  0  0  0  0
   26.0531   71.4565    4.0351 C   0  0  1  0  0  0  0  0  0  0  0  0
   23.5788   71.2784    3.6285 C   0  0  2  0  0  0  0  0  0  0  0  0
   26.2317   71.4618    2.5109 C   0  0  1  0  0  0  0  0  0  0  0  0
   23.8780   71.2987    2.1284 C   0  0  1  0  0  0  0  0  0  0  0  0
   25.1639   72.1609    6.3379 H   0  0  0  0  0  0  0  0  0  0  0  0
   26.9097   72.2738    5.6146 H   0  0  0  0  0  0  0  0  0  0  0  0
   22.1481   71.8822    4.8430 H   0  0  0  0  0  0  0  0  0  0  0  0
   27.9793   71.3986    0.8828 O   0  0  0  0  0  0  0  0  0  0  0  0
   27.5389   70.7963    2.0859 C   0  0  0  0  0  0  0  0  0  0  0  0
   28.8107   70.9853    0.6005 H   0  0  0  0  0  0  0  0  0  0  0  0
 25 28  1  0
 25 24  1  0
 25 26  1  1
 25 27  2  0
  1  4  1  0
  1 24  1  0
  1  2  1  1
  1  3  2  0
  6 11  1  0
  6 12  1  0
 29 36  1  0
 29 37  1  0
  9  7  1  6
  7 13  1  0
 10  8  1  1
  8 14  1  0
 37 28  1  1
  4  5  1  0
 33 30  1  1
 30 38  1  0
 34 31  1  1
 31 39  1  0
 35 32  1  6
 32 40  1  0
 41 42  1  0
 41 43  1  0
 15 19  2  0
 16 22  2  0
 12 17  1  6
 17 19  1  0
 17 20  1  0
 18 19  1  0
 18 22  1  0
 18 23  1  0
  9 10  1  0
  9 11  1  0
 10 12  1  0
 11  5  1  6
 33 34  1  0
 33 35  1  0
 34 36  1  0
 35 37  1  0
 36 42  1  1
 20 21  2  0
 21 22  1  0
M  CHG  2   2  -1  26  -1
M  END
>  <COMPND>  (164) 
    8629 

>  <AUTHOR>  (164) 
    GENERATED BY OPEN BABEL 3.1.1

>  <MASTER>  (164) 
        0    0    0    0    0    0    0    0   58    0   58    0

>  <minimizedAffinity>  (164) 
-8.42877

>  <CNNscore>  (164) 
0.7233430743

>  <CNNaffinity>  (164) 
4.8082480431

>  <CNN_VS>  (164) 
3.4780130386

>  <CNNaffinity_variance>  (164) 
0.3052314222

$$$$
165
     RDKit          3D

 43 45  0  0  0  0  0  0  0  0999 V2000
   20.7128   70.6903    0.3962 P   0  0  2  0  0  0  0  0  0  0  0  0
   19.7049   71.4024    1.4423 O   0  0  0  0  0  0  0  0  0  0  0  0
   20.8930   69.2140    0.5947 O   0  0  0  0  0  0  0  0  0  0  0  0
   22.0603   71.5812    0.4874 O   0  0  0  0  0  0  0  0  0  0  0  0
   23.1785   71.0474    1.1747 C   0  0  0  0  0  0  0  0  0  0  0  0
   24.0459   70.5188    3.3523 O   0  0  0  0  0  0  0  0  0  0  0  0
   21.9038   72.3155    4.4359 O   0  0  0  0  0  0  0  0  0  0  0  0
   24.1186   73.9033    4.5366 O   0  0  0  0  0  0  0  0  0  0  0  0
   22.6695   72.4446    3.2391 C   0  0  1  0  0  0  0  0  0  0  0  0
   24.0835   72.8790    3.5639 C   0  0  2  0  0  0  0  0  0  0  0  0
   22.8887   71.0486    2.6694 C   0  0  1  0  0  0  0  0  0  0  0  0
   24.7060   71.5835    4.0563 C   0  0  2  0  0  0  0  0  0  0  0  0
   21.7508   73.1944    4.8180 H   0  0  0  0  0  0  0  0  0  0  0  0
   23.7113   74.7062    4.1758 H   0  0  0  0  0  0  0  0  0  0  0  0
   26.6950   72.7778    5.6673 O   0  0  0  0  0  0  0  0  0  0  0  0
   30.0800   71.2621    2.9314 O   0  0  0  0  0  0  0  0  0  0  0  0
   26.1149   71.5164    3.7886 N   0  0  0  0  0  0  0  0  0  0  0  0
   28.3789   72.0220    4.3038 N   0  0  0  0  0  0  0  0  0  0  0  0
   27.0304   72.1515    4.6599 C   0  0  0  0  0  0  0  0  0  0  0  0
   26.5762   70.8265    2.6727 C   0  0  0  0  0  0  0  0  0  0  0  0
   27.8654   70.7135    2.3464 C   0  0  0  0  0  0  0  0  0  0  0  0
   28.8868   71.3479    3.2045 C   0  0  0  0  0  0  0  0  0  0  0  0
   29.0348   72.4566    4.8960 H   0  0  0  0  0  0  0  0  0  0  0  0
   20.0989   71.1059   -1.0403 O   0  0  0  0  0  0  0  0  0  0  0  0
   20.7893   71.2177   -2.4976 P   0  0  2  0  0  0  0  0  0  0  0  0
   21.8111   69.9635   -2.5212 O   0  0  0  0  0  0  0  0  0  0  0  0
   21.4327   72.5458   -2.7735 O   0  0  0  0  0  0  0  0  0  0  0  0
   19.6216   70.8117   -3.5351 O   0  0  0  0  0  0  0  0  0  0  0  0
   17.8331   72.1430   -4.3387 O   0  0  0  0  0  0  0  0  0  0  0  0
   15.9388   68.4749   -4.2537 O   0  0  0  0  0  0  0  0  0  0  0  0
   16.6599   69.6402   -6.7776 O   0  0  0  0  0  0  0  0  0  0  0  0
   17.7965   69.1896   -2.1519 O   0  0  0  0  0  0  0  0  0  0  0  0
   17.0414   69.3680   -4.4321 C   0  0  1  0  0  0  0  0  0  0  0  0
   16.6839   70.3550   -5.5452 C   0  0  1  0  0  0  0  0  0  0  0  0
   17.3020   70.1075   -3.1211 C   0  0  2  0  0  0  0  0  0  0  0  0
   17.6986   71.5042   -5.6136 C   0  0  1  0  0  0  0  0  0  0  0  0
   18.2881   71.2616   -3.3100 C   0  0  1  0  0  0  0  0  0  0  0  0
   15.7684   68.0018   -5.0824 H   0  0  0  0  0  0  0  0  0  0  0  0
   16.0156   68.9171   -6.7209 H   0  0  0  0  0  0  0  0  0  0  0  0
   17.1632   68.4640   -2.0413 H   0  0  0  0  0  0  0  0  0  0  0  0
   15.9785   72.2717   -7.0837 O   0  0  0  0  0  0  0  0  0  0  0  0
   17.2762   72.5816   -6.6100 C   0  0  0  0  0  0  0  0  0  0  0  0
   15.6964   72.9492   -7.7186 H   0  0  0  0  0  0  0  0  0  0  0  0
 25 28  1  0
 25 24  1  0
 25 26  1  1
 25 27  2  0
  1  4  1  0
  1 24  1  0
  1  2  1  1
  1  3  2  0
  6 11  1  0
  6 12  1  0
 29 36  1  0
 29 37  1  0
  9  7  1  1
  7 13  1  0
 10  8  1  1
  8 14  1  0
 37 28  1  6
  4  5  1  0
 33 30  1  1
 30 38  1  0
 34 31  1  6
 31 39  1  0
 35 32  1  1
 32 40  1  0
 41 42  1  0
 41 43  1  0
 15 19  2  0
 16 22  2  0
 12 17  1  6
 17 19  1  0
 17 20  1  0
 18 19  1  0
 18 22  1  0
 18 23  1  0
  9 10  1  0
  9 11  1  0
 10 12  1  0
 11  5  1  6
 33 34  1  0
 33 35  1  0
 34 36  1  0
 35 37  1  0
 36 42  1  6
 20 21  2  0
 21 22  1  0
M  CHG  2   2  -1  26  -1
M  END
>  <COMPND>  (165) 
    8629 

>  <AUTHOR>  (165) 
    GENERATED BY OPEN BABEL 3.1.1

>  <MASTER>  (165) 
        0    0    0    0    0    0    0    0   58    0   58    0

>  <minimizedAffinity>  (165) 
-8.52480

>  <CNNscore>  (165) 
0.7009291649

>  <CNNaffinity>  (165) 
4.6352958679

>  <CNN_VS>  (165) 
3.2490141392

>  <CNNaffinity_variance>  (165) 
0.1234738454

$$$$
166
     RDKit          3D

 43 45  0  0  0  0  0  0  0  0999 V2000
   20.8122   70.3703   -0.0103 P   0  0  2  0  0  0  0  0  0  0  0  0
   19.2264   70.6878   -0.0549 O   0  0  0  0  0  0  0  0  0  0  0  0
   21.1811   69.0770    0.6552 O   0  0  0  0  0  0  0  0  0  0  0  0
   21.4572   71.7040    0.6400 O   0  0  0  0  0  0  0  0  0  0  0  0
   22.7287   71.6080    1.2579 C   0  0  0  0  0  0  0  0  0  0  0  0
   23.6798   70.7527    3.2920 O   0  0  0  0  0  0  0  0  0  0  0  0
   21.8065   72.6035    4.7259 O   0  0  0  0  0  0  0  0  0  0  0  0
   24.1723   73.9560    4.8281 O   0  0  0  0  0  0  0  0  0  0  0  0
   22.5008   72.7983    3.4949 C   0  0  1  0  0  0  0  0  0  0  0  0
   23.9698   73.0588    3.7553 C   0  0  2  0  0  0  0  0  0  0  0  0
   22.5396   71.4633    2.7617 C   0  0  1  0  0  0  0  0  0  0  0  0
   24.4891   71.6628    4.0547 C   0  0  2  0  0  0  0  0  0  0  0  0
   21.7686   73.4427    5.2119 H   0  0  0  0  0  0  0  0  0  0  0  0
   23.8254   74.8296    4.5890 H   0  0  0  0  0  0  0  0  0  0  0  0
   26.6883   72.1681    5.7536 O   0  0  0  0  0  0  0  0  0  0  0  0
   29.7174   70.9907    2.4856 O   0  0  0  0  0  0  0  0  0  0  0  0
   25.8633   71.4962    3.6739 N   0  0  0  0  0  0  0  0  0  0  0  0
   28.1948   71.5812    4.1250 N   0  0  0  0  0  0  0  0  0  0  0  0
   26.8926   71.7783    4.6020 C   0  0  0  0  0  0  0  0  0  0  0  0
   26.1790   71.0574    2.3926 C   0  0  0  0  0  0  0  0  0  0  0  0
   27.4260   70.8758    1.9528 C   0  0  0  0  0  0  0  0  0  0  0  0
   28.5595   71.1479    2.8602 C   0  0  0  0  0  0  0  0  0  0  0  0
   28.9281   71.7717    4.7541 H   0  0  0  0  0  0  0  0  0  0  0  0
   21.2478   70.4760   -1.5633 O   0  0  0  0  0  0  0  0  0  0  0  0
   20.7868   71.4977   -2.7280 P   0  0  2  0  0  0  0  0  0  0  0  0
   22.0109   71.4336   -3.7838 O   0  0  0  0  0  0  0  0  0  0  0  0
   20.4611   72.8799   -2.2406 O   0  0  0  0  0  0  0  0  0  0  0  0
   19.5673   70.7461   -3.4716 O   0  0  0  0  0  0  0  0  0  0  0  0
   17.7796   72.0832   -4.2671 O   0  0  0  0  0  0  0  0  0  0  0  0
   15.9077   68.4027   -4.2813 O   0  0  0  0  0  0  0  0  0  0  0  0
   16.6497   69.6257   -6.7716 O   0  0  0  0  0  0  0  0  0  0  0  0
   17.7372   69.0839   -2.1439 O   0  0  0  0  0  0  0  0  0  0  0  0
   17.0066   69.3061   -4.4282 C   0  0  1  0  0  0  0  0  0  0  0  0
   16.6553   70.3143   -5.5242 C   0  0  1  0  0  0  0  0  0  0  0  0
   17.2477   70.0192   -3.0990 C   0  0  2  0  0  0  0  0  0  0  0  0
   17.6635   71.4708   -5.5567 C   0  0  1  0  0  0  0  0  0  0  0  0
   18.2286   71.1830   -3.2522 C   0  0  1  0  0  0  0  0  0  0  0  0
   15.7496   67.9463   -5.1217 H   0  0  0  0  0  0  0  0  0  0  0  0
   16.0094   68.8976   -6.7375 H   0  0  0  0  0  0  0  0  0  0  0  0
   17.1073   68.3523   -2.0558 H   0  0  0  0  0  0  0  0  0  0  0  0
   17.5260   72.1255   -7.8505 O   0  0  0  0  0  0  0  0  0  0  0  0
   17.2454   72.5666   -6.5348 C   0  0  0  0  0  0  0  0  0  0  0  0
   17.2647   72.8127   -8.4839 H   0  0  0  0  0  0  0  0  0  0  0  0
 25 28  1  0
 25 24  1  0
 25 26  1  6
 25 27  2  0
  1  4  1  0
  1 24  1  0
  1  2  1  6
  1  3  2  0
  6 11  1  0
  6 12  1  0
 29 36  1  0
 29 37  1  0
  9  7  1  1
  7 13  1  0
 10  8  1  1
  8 14  1  0
 37 28  1  6
  4  5  1  0
 33 30  1  1
 30 38  1  0
 34 31  1  6
 31 39  1  0
 35 32  1  1
 32 40  1  0
 41 42  1  0
 41 43  1  0
 15 19  2  0
 16 22  2  0
 12 17  1  6
 17 19  1  0
 17 20  1  0
 18 19  1  0
 18 22  1  0
 18 23  1  0
  9 10  1  0
  9 11  1  0
 10 12  1  0
 11  5  1  6
 33 34  1  0
 33 35  1  0
 34 36  1  0
 35 37  1  0
 36 42  1  6
 20 21  2  0
 21 22  1  0
M  CHG  2   2  -1  26  -1
M  END
>  <COMPND>  (166) 
    8629 

>  <AUTHOR>  (166) 
    GENERATED BY OPEN BABEL 3.1.1

>  <MASTER>  (166) 
        0    0    0    0    0    0    0    0   58    0   58    0

>  <minimizedAffinity>  (166) 
-8.66634

>  <CNNscore>  (166) 
0.6967480779

>  <CNNaffinity>  (166) 
4.6443758011

>  <CNN_VS>  (166) 
3.2359600067

>  <CNNaffinity_variance>  (166) 
0.1292576492

$$$$
167
     RDKit          3D

 43 45  0  0  0  0  0  0  0  0999 V2000
   20.7519   70.7517    0.5430 P   0  0  2  0  0  0  0  0  0  0  0  0
   19.7364   71.4390    1.5984 O   0  0  0  0  0  0  0  0  0  0  0  0
   20.8654   69.2596    0.6525 O   0  0  0  0  0  0  0  0  0  0  0  0
   22.1300   71.5773    0.7360 O   0  0  0  0  0  0  0  0  0  0  0  0
   23.2072   70.9472    1.4072 C   0  0  0  0  0  0  0  0  0  0  0  0
   24.1434   70.5185    3.5782 O   0  0  0  0  0  0  0  0  0  0  0  0
   22.0337   72.3625    4.6458 O   0  0  0  0  0  0  0  0  0  0  0  0
   24.2482   73.9534    4.6044 O   0  0  0  0  0  0  0  0  0  0  0  0
   22.7613   72.4370    3.4208 C   0  0  1  0  0  0  0  0  0  0  0  0
   24.1841   72.8859    3.6808 C   0  0  2  0  0  0  0  0  0  0  0  0
   22.9644   71.0165    2.9086 C   0  0  1  0  0  0  0  0  0  0  0  0
   24.8236   71.6142    4.2119 C   0  0  2  0  0  0  0  0  0  0  0  0
   21.8914   73.2579    4.9921 H   0  0  0  0  0  0  0  0  0  0  0  0
   23.8286   74.7390    4.2203 H   0  0  0  0  0  0  0  0  0  0  0  0
   26.8614   72.8716    5.7100 O   0  0  0  0  0  0  0  0  0  0  0  0
   30.1601   71.2426    2.9340 O   0  0  0  0  0  0  0  0  0  0  0  0
   26.2236   71.5351    3.9034 N   0  0  0  0  0  0  0  0  0  0  0  0
   28.5023   72.0593    4.3266 N   0  0  0  0  0  0  0  0  0  0  0  0
   27.1655   72.2044    4.7190 C   0  0  0  0  0  0  0  0  0  0  0  0
   26.6502   70.7998    2.8028 C   0  0  0  0  0  0  0  0  0  0  0  0
   27.9286   70.6724    2.4413 C   0  0  0  0  0  0  0  0  0  0  0  0
   28.9759   71.3405    3.2405 C   0  0  0  0  0  0  0  0  0  0  0  0
   29.1762   72.5172    4.8798 H   0  0  0  0  0  0  0  0  0  0  0  0
   20.2073   71.2822   -0.8835 O   0  0  0  0  0  0  0  0  0  0  0  0
   18.7768   71.0908   -1.6114 P   0  0  2  0  0  0  0  0  0  0  0  0
   17.8490   72.2138   -0.9073 O   0  0  0  0  0  0  0  0  0  0  0  0
   18.2279   69.6957   -1.5325 O   0  0  0  0  0  0  0  0  0  0  0  0
   19.0066   71.6352   -3.1134 O   0  0  0  0  0  0  0  0  0  0  0  0
   18.2316   70.3344   -4.9365 O   0  0  0  0  0  0  0  0  0  0  0  0
   20.9904   72.6778   -6.9236 O   0  0  0  0  0  0  0  0  0  0  0  0
   18.1848   73.1455   -7.3207 O   0  0  0  0  0  0  0  0  0  0  0  0
   21.5687   71.7150   -4.2556 O   0  0  0  0  0  0  0  0  0  0  0  0
   19.9891   72.3919   -5.9432 C   0  0  1  0  0  0  0  0  0  0  0  0
   18.7057   71.9888   -6.6720 C   0  0  1  0  0  0  0  0  0  0  0  0
   20.4781   71.2558   -5.0469 C   0  0  2  0  0  0  0  0  0  0  0  0
   17.6717   71.4126   -5.6953 C   0  0  1  0  0  0  0  0  0  0  0  0
   19.3595   70.7228   -4.1498 C   0  0  1  0  0  0  0  0  0  0  0  0
   20.6864   73.3987   -7.4957 H   0  0  0  0  0  0  0  0  0  0  0  0
   18.8476   73.4997   -7.9342 H   0  0  0  0  0  0  0  0  0  0  0  0
   22.2702   72.0495   -4.8351 H   0  0  0  0  0  0  0  0  0  0  0  0
   16.6740   70.9428   -7.8148 O   0  0  0  0  0  0  0  0  0  0  0  0
   16.4467   70.8591   -6.4200 C   0  0  0  0  0  0  0  0  0  0  0  0
   15.9026   70.5937   -8.2890 H   0  0  0  0  0  0  0  0  0  0  0  0
 25 28  1  0
 25 24  1  0
 25 26  1  1
 25 27  2  0
  1  4  1  0
  1 24  1  0
  1  2  1  1
  1  3  2  0
  6 11  1  0
  6 12  1  0
 29 36  1  0
 29 37  1  0
  9  7  1  1
  7 13  1  0
 10  8  1  1
  8 14  1  0
 37 28  1  1
  4  5  1  0
 33 30  1  6
 30 38  1  0
 34 31  1  1
 31 39  1  0
 35 32  1  1
 32 40  1  0
 41 42  1  0
 41 43  1  0
 15 19  2  0
 16 22  2  0
 12 17  1  6
 17 19  1  0
 17 20  1  0
 18 19  1  0
 18 22  1  0
 18 23  1  0
  9 10  1  0
  9 11  1  0
 10 12  1  0
 11  5  1  6
 33 34  1  0
 33 35  1  0
 34 36  1  0
 35 37  1  0
 36 42  1  6
 20 21  2  0
 21 22  1  0
M  CHG  2   2  -1  26  -1
M  END
>  <COMPND>  (167) 
    8629 

>  <AUTHOR>  (167) 
    GENERATED BY OPEN BABEL 3.1.1

>  <MASTER>  (167) 
        0    0    0    0    0    0    0    0   58    0   58    0

>  <minimizedAffinity>  (167) 
-8.48288

>  <CNNscore>  (167) 
0.6714682579

>  <CNNaffinity>  (167) 
4.5040612221

>  <CNN_VS>  (167) 
3.0243341923

>  <CNNaffinity_variance>  (167) 
0.1364543885

$$$$
168
     RDKit          3D

 43 45  0  0  0  0  0  0  0  0999 V2000
   24.6805   70.4252    3.5425 P   0  0  2  0  0  0  0  0  0  0  0  0
   23.9997   70.7455    4.9747 O   0  0  0  0  0  0  0  0  0  0  0  0
   24.3116   69.0977    2.9482 O   0  0  0  0  0  0  0  0  0  0  0  0
   26.2596   70.6650    3.8007 O   0  0  0  0  0  0  0  0  0  0  0  0
   26.9482   71.5850    2.9717 C   0  0  0  0  0  0  0  0  0  0  0  0
   29.0725   71.8936    4.0515 O   0  0  0  0  0  0  0  0  0  0  0  0
   28.3471   74.7973    4.2338 O   0  0  0  0  0  0  0  0  0  0  0  0
   30.0500   74.7425    2.1045 O   0  0  0  0  0  0  0  0  0  0  0  0
   28.0646   73.8602    3.1958 C   0  0  1  0  0  0  0  0  0  0  0  0
   29.3164   73.5701    2.3943 C   0  0  2  0  0  0  0  0  0  0  0  0
   27.7831   72.5111    3.8455 C   0  0  1  0  0  0  0  0  0  0  0  0
   30.0674   72.6230    3.3146 C   0  0  2  0  0  0  0  0  0  0  0  0
   28.5299   75.6668    3.8432 H   0  0  0  0  0  0  0  0  0  0  0  0
   29.5303   75.3122    1.5162 H   0  0  0  0  0  0  0  0  0  0  0  0
   32.7688   72.0681    3.9248 O   0  0  0  0  0  0  0  0  0  0  0  0
   33.1166   69.0353    0.4720 O   0  0  0  0  0  0  0  0  0  0  0  0
   30.8877   71.6924    2.5917 N   0  0  0  0  0  0  0  0  0  0  0  0
   32.9397   70.5583    2.2052 N   0  0  0  0  0  0  0  0  0  0  0  0
   32.2325   71.4875    2.9789 C   0  0  0  0  0  0  0  0  0  0  0  0
   30.3573   70.9942    1.5123 C   0  0  0  0  0  0  0  0  0  0  0  0
   31.0454   70.1125    0.7840 C   0  0  0  0  0  0  0  0  0  0  0  0
   32.4572   69.8403    1.1225 C   0  0  0  0  0  0  0  0  0  0  0  0
   33.8787   70.3996    2.4562 H   0  0  0  0  0  0  0  0  0  0  0  0
   24.2607   71.7034    2.6465 O   0  0  0  0  0  0  0  0  0  0  0  0
   22.8763   72.0633    1.8935 P   0  0  2  0  0  0  0  0  0  0  0  0
   22.8709   73.6811    1.8801 O   0  0  0  0  0  0  0  0  0  0  0  0
   21.6582   71.4451    2.5164 O   0  0  0  0  0  0  0  0  0  0  0  0
   23.1270   71.6438    0.3552 O   0  0  0  0  0  0  0  0  0  0  0  0
   21.9166   71.4743   -1.6753 O   0  0  0  0  0  0  0  0  0  0  0  0
   23.5609   67.6880   -1.5693 O   0  0  0  0  0  0  0  0  0  0  0  0
   24.5574   69.6145   -3.4518 O   0  0  0  0  0  0  0  0  0  0  0  0
   22.6375   68.9302    0.8769 O   0  0  0  0  0  0  0  0  0  0  0  0
   23.5298   69.1015   -1.3538 C   0  0  1  0  0  0  0  0  0  0  0  0
   23.3542   69.7896   -2.7090 C   0  0  1  0  0  0  0  0  0  0  0  0
   22.3655   69.4392   -0.4244 C   0  0  2  0  0  0  0  0  0  0  0  0
   23.0453   71.2828   -2.5363 C   0  0  1  0  0  0  0  0  0  0  0  0
   22.1116   70.9465   -0.3618 C   0  0  1  0  0  0  0  0  0  0  0  0
   24.2983   67.4669   -2.1583 H   0  0  0  0  0  0  0  0  0  0  0  0
   24.7413   68.6674   -3.5533 H   0  0  0  0  0  0  0  0  0  0  0  0
   22.7961   67.9753    0.8237 H   0  0  0  0  0  0  0  0  0  0  0  0
   23.8631   72.6371   -4.3268 O   0  0  0  0  0  0  0  0  0  0  0  0
   22.7111   71.9553   -3.8660 C   0  0  0  0  0  0  0  0  0  0  0  0
   23.6653   73.0697   -5.1727 H   0  0  0  0  0  0  0  0  0  0  0  0
 25 28  1  0
 25 24  1  0
 25 26  1  6
 25 27  2  0
  1  4  1  0
  1 24  1  0
  1  2  1  1
  1  3  2  0
  6 11  1  0
  6 12  1  0
 29 36  1  0
 29 37  1  0
  9  7  1  1
  7 13  1  0
 10  8  1  1
  8 14  1  0
 37 28  1  6
  4  5  1  0
 33 30  1  6
 30 38  1  0
 34 31  1  6
 31 39  1  0
 35 32  1  1
 32 40  1  0
 41 42  1  0
 41 43  1  0
 15 19  2  0
 16 22  2  0
 12 17  1  6
 17 19  1  0
 17 20  1  0
 18 19  1  0
 18 22  1  0
 18 23  1  0
  9 10  1  0
  9 11  1  0
 10 12  1  0
 11  5  1  6
 33 34  1  0
 33 35  1  0
 34 36  1  0
 35 37  1  0
 36 42  1  6
 20 21  2  0
 21 22  1  0
M  CHG  2   2  -1  26  -1
M  END
>  <COMPND>  (168) 
    8629 

>  <AUTHOR>  (168) 
    GENERATED BY OPEN BABEL 3.1.1

>  <MASTER>  (168) 
        0    0    0    0    0    0    0    0   58    0   58    0

>  <minimizedAffinity>  (168) 
-8.89329

>  <CNNscore>  (168) 
0.6694892645

>  <CNNaffinity>  (168) 
4.7488098145

>  <CNN_VS>  (168) 
3.1792771816

>  <CNNaffinity_variance>  (168) 
0.0650551319

$$$$
169
     RDKit          3D

 43 45  0  0  0  0  0  0  0  0999 V2000
   22.5969   70.8487   -1.1243 P   0  0  2  0  0  0  0  0  0  0  0  0
   22.8635   72.2487   -1.8899 O   0  0  0  0  0  0  0  0  0  0  0  0
   23.6906   69.8312   -1.2649 O   0  0  0  0  0  0  0  0  0  0  0  0
   21.1378   70.3893   -1.6515 O   0  0  0  0  0  0  0  0  0  0  0  0
   20.6182   70.9995   -2.8201 C   0  0  0  0  0  0  0  0  0  0  0  0
   18.6052   71.8044   -3.8563 O   0  0  0  0  0  0  0  0  0  0  0  0
   17.1279   70.2705   -1.7455 O   0  0  0  0  0  0  0  0  0  0  0  0
   16.9411   68.6279   -3.9143 O   0  0  0  0  0  0  0  0  0  0  0  0
   18.3407   69.9386   -2.4195 C   0  0  1  0  0  0  0  0  0  0  0  0
   18.0501   69.5005   -3.8397 C   0  0  2  0  0  0  0  0  0  0  0  0
   19.1239   71.2271   -2.6380 C   0  0  1  0  0  0  0  0  0  0  0  0
   17.7970   70.8282   -4.5335 C   0  0  2  0  0  0  0  0  0  0  0  0
   16.6108   69.4632   -1.5945 H   0  0  0  0  0  0  0  0  0  0  0  0
   17.1514   67.7978   -3.4589 H   0  0  0  0  0  0  0  0  0  0  0  0
   16.0897   69.9859   -6.6200 O   0  0  0  0  0  0  0  0  0  0  0  0
   19.3156   70.7606   -9.8192 O   0  0  0  0  0  0  0  0  0  0  0  0
   18.1648   70.7999   -5.9211 N   0  0  0  0  0  0  0  0  0  0  0  0
   17.6973   70.3725   -8.2113 N   0  0  0  0  0  0  0  0  0  0  0  0
   17.2334   70.3587   -6.8897 C   0  0  0  0  0  0  0  0  0  0  0  0
   19.4366   71.2070   -6.3093 C   0  0  0  0  0  0  0  0  0  0  0  0
   19.8639   71.2129   -7.5737 C   0  0  0  0  0  0  0  0  0  0  0  0
   18.9524   70.7668   -8.6471 C   0  0  0  0  0  0  0  0  0  0  0  0
   17.0658   70.0690   -8.9033 H   0  0  0  0  0  0  0  0  0  0  0  0
   22.3037   71.3156    0.3953 O   0  0  0  0  0  0  0  0  0  0  0  0
   22.9917   70.8791    1.7914 P   0  0  2  0  0  0  0  0  0  0  0  0
   23.1366   69.2741    1.6478 O   0  0  0  0  0  0  0  0  0  0  0  0
   22.2423   71.3263    3.0130 O   0  0  0  0  0  0  0  0  0  0  0  0
   24.5036   71.4353    1.6932 O   0  0  0  0  0  0  0  0  0  0  0  0
   26.8239   70.9699    1.5647 O   0  0  0  0  0  0  0  0  0  0  0  0
   26.5811   72.0191    5.5511 O   0  0  0  0  0  0  0  0  0  0  0  0
   27.8248   73.8140    3.6856 O   0  0  0  0  0  0  0  0  0  0  0  0
   24.4550   70.4793    4.3312 O   0  0  0  0  0  0  0  0  0  0  0  0
   26.2420   72.0855    4.1633 C   0  0  1  0  0  0  0  0  0  0  0  0
   27.5011   72.4605    3.3793 C   0  0  1  0  0  0  0  0  0  0  0  0
   25.7135   70.7249    3.7129 C   0  0  2  0  0  0  0  0  0  0  0  0
   27.2845   72.2915    1.8695 C   0  0  1  0  0  0  0  0  0  0  0  0
   25.5809   70.6461    2.1910 C   0  0  1  0  0  0  0  0  0  0  0  0
   26.9169   72.8800    5.8435 H   0  0  0  0  0  0  0  0  0  0  0  0
   27.9585   73.9072    4.6420 H   0  0  0  0  0  0  0  0  0  0  0  0
   24.5523   70.5318    5.2943 H   0  0  0  0  0  0  0  0  0  0  0  0
   28.8171   73.8998    0.9898 O   0  0  0  0  0  0  0  0  0  0  0  0
   28.5731   72.5081    1.0790 C   0  0  0  0  0  0  0  0  0  0  0  0
   29.6344   74.0527    0.4896 H   0  0  0  0  0  0  0  0  0  0  0  0
 25 28  1  0
 25 24  1  0
 25 26  1  6
 25 27  2  0
  1  4  1  0
  1 24  1  0
  1  2  1  6
  1  3  2  0
  6 11  1  0
  6 12  1  0
 29 36  1  0
 29 37  1  0
  9  7  1  1
  7 13  1  0
 10  8  1  1
  8 14  1  0
 37 28  1  6
  4  5  1  0
 33 30  1  1
 30 38  1  0
 34 31  1  6
 31 39  1  0
 35 32  1  1
 32 40  1  0
 41 42  1  0
 41 43  1  0
 15 19  2  0
 16 22  2  0
 12 17  1  6
 17 19  1  0
 17 20  1  0
 18 19  1  0
 18 22  1  0
 18 23  1  0
  9 10  1  0
  9 11  1  0
 10 12  1  0
 11  5  1  6
 33 34  1  0
 33 35  1  0
 34 36  1  0
 35 37  1  0
 36 42  1  6
 20 21  2  0
 21 22  1  0
M  CHG  2   2  -1  26  -1
M  END
>  <COMPND>  (169) 
    8629 

>  <AUTHOR>  (169) 
    GENERATED BY OPEN BABEL 3.1.1

>  <MASTER>  (169) 
        0    0    0    0    0    0    0    0   58    0   58    0

>  <minimizedAffinity>  (169) 
-7.90778

>  <CNNscore>  (169) 
0.6050350666

>  <CNNaffinity>  (169) 
4.7650227547

>  <CNN_VS>  (169) 
2.8830058575

>  <CNNaffinity_variance>  (169) 
0.4523434043

$$$$
170
     RDKit          3D

 43 45  0  0  0  0  0  0  0  0999 V2000
   21.2389   70.5182   -0.3120 P   0  0  2  0  0  0  0  0  0  0  0  0
   20.8015   69.2724    0.6229 O   0  0  0  0  0  0  0  0  0  0  0  0
   21.9368   70.1406   -1.5855 O   0  0  0  0  0  0  0  0  0  0  0  0
   22.0721   71.4800    0.6873 O   0  0  0  0  0  0  0  0  0  0  0  0
   23.1834   70.9366    1.3783 C   0  0  0  0  0  0  0  0  0  0  0  0
   24.0947   70.5248    3.5632 O   0  0  0  0  0  0  0  0  0  0  0  0
   21.9709   72.3743    4.5927 O   0  0  0  0  0  0  0  0  0  0  0  0
   24.1841   73.9672    4.5653 O   0  0  0  0  0  0  0  0  0  0  0  0
   22.7126   72.4406    3.3757 C   0  0  1  0  0  0  0  0  0  0  0  0
   24.1319   72.8929    3.6489 C   0  0  2  0  0  0  0  0  0  0  0  0
   22.9231   71.0166    2.8763 C   0  0  1  0  0  0  0  0  0  0  0  0
   24.7664   71.6258    4.1967 C   0  0  2  0  0  0  0  0  0  0  0  0
   21.8237   73.2720    4.9307 H   0  0  0  0  0  0  0  0  0  0  0  0
   23.7682   74.7496    4.1707 H   0  0  0  0  0  0  0  0  0  0  0  0
   26.7814   72.9385    5.6782 O   0  0  0  0  0  0  0  0  0  0  0  0
   30.1180   71.2485    2.9851 O   0  0  0  0  0  0  0  0  0  0  0  0
   26.1700   71.5459    3.9050 N   0  0  0  0  0  0  0  0  0  0  0  0
   28.4411   72.0958    4.3361 N   0  0  0  0  0  0  0  0  0  0  0  0
   27.0995   72.2443    4.7104 C   0  0  0  0  0  0  0  0  0  0  0  0
   26.6121   70.7813    2.8309 C   0  0  0  0  0  0  0  0  0  0  0  0
   27.8949   70.6510    2.4865 C   0  0  0  0  0  0  0  0  0  0  0  0
   28.9301   71.3483    3.2765 C   0  0  0  0  0  0  0  0  0  0  0  0
   29.1066   72.5736    4.8826 H   0  0  0  0  0  0  0  0  0  0  0  0
   19.8519   71.3226   -0.5180 O   0  0  0  0  0  0  0  0  0  0  0  0
   18.5980   71.0425   -1.4989 P   0  0  2  0  0  0  0  0  0  0  0  0
   17.4535   72.0348   -0.9305 O   0  0  0  0  0  0  0  0  0  0  0  0
   18.1859   69.6009   -1.5746 O   0  0  0  0  0  0  0  0  0  0  0  0
   19.0327   71.6890   -2.9124 O   0  0  0  0  0  0  0  0  0  0  0  0
   18.1028   70.6864   -4.8481 O   0  0  0  0  0  0  0  0  0  0  0  0
   21.1633   72.8214   -6.6163 O   0  0  0  0  0  0  0  0  0  0  0  0
   18.4481   73.6963   -6.9481 O   0  0  0  0  0  0  0  0  0  0  0  0
   21.5899   71.5358   -4.0580 O   0  0  0  0  0  0  0  0  0  0  0  0
   20.1263   72.5783   -5.6618 C   0  0  1  0  0  0  0  0  0  0  0  0
   18.8054   72.4229   -6.4180 C   0  0  1  0  0  0  0  0  0  0  0  0
   20.4530   71.3054   -4.8831 C   0  0  2  0  0  0  0  0  0  0  0  0
   17.6972   71.8982   -5.4951 C   0  0  1  0  0  0  0  0  0  0  0  0
   19.2673   70.8423   -4.0347 C   0  0  1  0  0  0  0  0  0  0  0  0
   20.9622   73.6285   -7.1138 H   0  0  0  0  0  0  0  0  0  0  0  0
   19.1563   74.0165   -7.5286 H   0  0  0  0  0  0  0  0  0  0  0  0
   22.3337   71.8282   -4.6068 H   0  0  0  0  0  0  0  0  0  0  0  0
   16.7309   71.4619   -7.6363 O   0  0  0  0  0  0  0  0  0  0  0  0
   16.4140   71.5864   -6.2622 C   0  0  0  0  0  0  0  0  0  0  0  0
   15.9237   71.2631   -8.1370 H   0  0  0  0  0  0  0  0  0  0  0  0
 25 28  1  0
 25 24  1  0
 25 26  1  1
 25 27  2  0
  1  4  1  0
  1 24  1  0
  1  2  1  1
  1  3  2  0
  6 11  1  0
  6 12  1  0
 29 36  1  0
 29 37  1  0
  9  7  1  1
  7 13  1  0
 10  8  1  1
  8 14  1  0
 37 28  1  1
  4  5  1  0
 33 30  1  6
 30 38  1  0
 34 31  1  1
 31 39  1  0
 35 32  1  1
 32 40  1  0
 41 42  1  0
 41 43  1  0
 15 19  2  0
 16 22  2  0
 12 17  1  6
 17 19  1  0
 17 20  1  0
 18 19  1  0
 18 22  1  0
 18 23  1  0
  9 10  1  0
  9 11  1  0
 10 12  1  0
 11  5  1  6
 33 34  1  0
 33 35  1  0
 34 36  1  0
 35 37  1  0
 36 42  1  6
 20 21  2  0
 21 22  1  0
M  CHG  2   2  -1  26  -1
M  END
>  <COMPND>  (170) 
    8629 

>  <AUTHOR>  (170) 
    GENERATED BY OPEN BABEL 3.1.1

>  <MASTER>  (170) 
        0    0    0    0    0    0    0    0   58    0   58    0

>  <minimizedAffinity>  (170) 
-8.37975

>  <CNNscore>  (170) 
0.5938980579

>  <CNNaffinity>  (170) 
4.4037485123

>  <CNN_VS>  (170) 
2.6153776646

>  <CNNaffinity_variance>  (170) 
0.0080732275

$$$$
171
     RDKit          3D

 43 45  0  0  0  0  0  0  0  0999 V2000
   22.3445   69.3430   -0.1434 P   0  0  2  0  0  0  0  0  0  0  0  0
   21.0192   69.0912    0.7497 O   0  0  0  0  0  0  0  0  0  0  0  0
   23.1353   68.1093   -0.4657 O   0  0  0  0  0  0  0  0  0  0  0  0
   23.1416   70.4982    0.6616 O   0  0  0  0  0  0  0  0  0  0  0  0
   24.3848   70.1717    1.2581 C   0  0  0  0  0  0  0  0  0  0  0  0
   25.5023   70.0156    3.3795 O   0  0  0  0  0  0  0  0  0  0  0  0
   22.8881   70.8248    4.6050 O   0  0  0  0  0  0  0  0  0  0  0  0
   24.3077   73.1529    4.6419 O   0  0  0  0  0  0  0  0  0  0  0  0
   23.4787   71.2488    3.3775 C   0  0  1  0  0  0  0  0  0  0  0  0
   24.6252   72.2010    3.6469 C   0  0  2  0  0  0  0  0  0  0  0  0
   24.1960   70.0527    2.7642 C   0  0  1  0  0  0  0  0  0  0  0  0
   25.7293   71.2506    4.0781 C   0  0  2  0  0  0  0  0  0  0  0  0
   22.4237   71.5719    5.0152 H   0  0  0  0  0  0  0  0  0  0  0  0
   23.6007   73.7336    4.3200 H   0  0  0  0  0  0  0  0  0  0  0  0
   27.1420   73.1793    5.5823 O   0  0  0  0  0  0  0  0  0  0  0  0
   30.7363   73.0618    2.6998 O   0  0  0  0  0  0  0  0  0  0  0  0
   27.0363   71.7420    3.7438 N   0  0  0  0  0  0  0  0  0  0  0  0
   28.9306   73.1191    4.1459 N   0  0  0  0  0  0  0  0  0  0  0  0
   27.6578   72.7113    4.5651 C   0  0  0  0  0  0  0  0  0  0  0  0
   27.6884   71.2629    2.6128 C   0  0  0  0  0  0  0  0  0  0  0  0
   28.9015   71.6629    2.2261 C   0  0  0  0  0  0  0  0  0  0  0  0
   29.6197   72.6735    3.0291 C   0  0  0  0  0  0  0  0  0  0  0  0
   29.3827   73.7941    4.7025 H   0  0  0  0  0  0  0  0  0  0  0  0
   21.7696   70.1297   -1.4332 O   0  0  0  0  0  0  0  0  0  0  0  0
   22.5169   71.0346   -2.5448 P   0  0  2  0  0  0  0  0  0  0  0  0
   21.3700   71.2742   -3.6604 O   0  0  0  0  0  0  0  0  0  0  0  0
   23.7839   70.4316   -3.0787 O   0  0  0  0  0  0  0  0  0  0  0  0
   22.7066   72.4739   -1.8395 O   0  0  0  0  0  0  0  0  0  0  0  0
   20.5898   72.9478   -0.8848 O   0  0  0  0  0  0  0  0  0  0  0  0
   22.6354   76.3194    0.3393 O   0  0  0  0  0  0  0  0  0  0  0  0
   21.9659   74.2918    2.2598 O   0  0  0  0  0  0  0  0  0  0  0  0
   23.1191   75.2127   -2.2914 O   0  0  0  0  0  0  0  0  0  0  0  0
   22.4812   74.9352    0.0145 C   0  0  1  0  0  0  0  0  0  0  0  0
   21.4217   74.3397    0.9438 C   0  0  1  0  0  0  0  0  0  0  0  0
   22.0478   74.8102   -1.4449 C   0  0  2  0  0  0  0  0  0  0  0  0
   21.0088   72.9348    0.4849 C   0  0  1  0  0  0  0  0  0  0  0  0
   21.6110   73.3839   -1.7842 C   0  0  1  0  0  0  0  0  0  0  0  0
   22.9110   76.4058    1.2645 H   0  0  0  0  0  0  0  0  0  0  0  0
   22.2231   75.1851    2.5374 H   0  0  0  0  0  0  0  0  0  0  0  0
   23.3862   76.1172   -2.0669 H   0  0  0  0  0  0  0  0  0  0  0  0
   20.3581   71.5180    2.2955 O   0  0  0  0  0  0  0  0  0  0  0  0
   19.8420   72.3857    1.3030 C   0  0  0  0  0  0  0  0  0  0  0  0
   19.6268   71.1612    2.8242 H   0  0  0  0  0  0  0  0  0  0  0  0
 25 28  1  0
 25 24  1  0
 25 26  1  6
 25 27  2  0
  1  4  1  0
  1 24  1  0
  1  2  1  1
  1  3  2  0
  6 11  1  0
  6 12  1  0
 29 36  1  0
 29 37  1  0
  9  7  1  1
  7 13  1  0
 10  8  1  1
  8 14  1  0
 37 28  1  1
  4  5  1  0
 33 30  1  1
 30 38  1  0
 34 31  1  1
 31 39  1  0
 35 32  1  6
 32 40  1  0
 41 42  1  0
 41 43  1  0
 15 19  2  0
 16 22  2  0
 12 17  1  6
 17 19  1  0
 17 20  1  0
 18 19  1  0
 18 22  1  0
 18 23  1  0
  9 10  1  0
  9 11  1  0
 10 12  1  0
 11  5  1  6
 33 34  1  0
 33 35  1  0
 34 36  1  0
 35 37  1  0
 36 42  1  1
 20 21  2  0
 21 22  1  0
M  CHG  2   2  -1  26  -1
M  END
>  <COMPND>  (171) 
    8629 

>  <AUTHOR>  (171) 
    GENERATED BY OPEN BABEL 3.1.1

>  <MASTER>  (171) 
        0    0    0    0    0    0    0    0   58    0   58    0

>  <minimizedAffinity>  (171) 
-7.47497

>  <CNNscore>  (171) 
0.5806027651

>  <CNNaffinity>  (171) 
4.3643679619

>  <CNN_VS>  (171) 
2.5339641571

>  <CNNaffinity_variance>  (171) 
0.0785851404

$$$$
172
     RDKit          3D

 43 45  0  0  0  0  0  0  0  0999 V2000
   22.3283   69.3080   -0.1228 P   0  0  2  0  0  0  0  0  0  0  0  0
   20.9605   69.2507    0.7393 O   0  0  0  0  0  0  0  0  0  0  0  0
   23.0287   67.9915   -0.2883 O   0  0  0  0  0  0  0  0  0  0  0  0
   23.1891   70.4769    0.5918 O   0  0  0  0  0  0  0  0  0  0  0  0
   24.3652   70.1166    1.2953 C   0  0  0  0  0  0  0  0  0  0  0  0
   25.3226   70.0147    3.4969 O   0  0  0  0  0  0  0  0  0  0  0  0
   22.7059   71.0980    4.4816 O   0  0  0  0  0  0  0  0  0  0  0  0
   24.3020   73.3091    4.4808 O   0  0  0  0  0  0  0  0  0  0  0  0
   23.4091   71.3950    3.2764 C   0  0  1  0  0  0  0  0  0  0  0  0
   24.6077   72.2730    3.5698 C   0  0  2  0  0  0  0  0  0  0  0  0
   24.0675   70.1106    2.7885 C   0  0  1  0  0  0  0  0  0  0  0  0
   25.6009   71.2719    4.1348 C   0  0  2  0  0  0  0  0  0  0  0  0
   22.2766   71.9032    4.8122 H   0  0  0  0  0  0  0  0  0  0  0  0
   23.6668   73.9196    4.0751 H   0  0  0  0  0  0  0  0  0  0  0  0
   26.9948   73.3252    5.4834 O   0  0  0  0  0  0  0  0  0  0  0  0
   30.8210   72.5969    3.0195 O   0  0  0  0  0  0  0  0  0  0  0  0
   26.9624   71.6398    3.8661 N   0  0  0  0  0  0  0  0  0  0  0  0
   28.8989   72.9608    4.2556 N   0  0  0  0  0  0  0  0  0  0  0  0
   27.5691   72.6861    4.5994 C   0  0  0  0  0  0  0  0  0  0  0  0
   27.6818   70.9659    2.8852 C   0  0  0  0  0  0  0  0  0  0  0  0
   28.9488   71.2408    2.5685 C   0  0  0  0  0  0  0  0  0  0  0  0
   29.6560   72.3201    3.2876 C   0  0  0  0  0  0  0  0  0  0  0  0
   29.3419   73.6861    4.7530 H   0  0  0  0  0  0  0  0  0  0  0  0
   21.8571   69.9981   -1.5065 O   0  0  0  0  0  0  0  0  0  0  0  0
   22.7095   70.7030   -2.6853 P   0  0  2  0  0  0  0  0  0  0  0  0
   21.6198   70.8987   -3.8650 O   0  0  0  0  0  0  0  0  0  0  0  0
   23.9371   69.9426   -3.0961 O   0  0  0  0  0  0  0  0  0  0  0  0
   22.9974   72.1962   -2.1445 O   0  0  0  0  0  0  0  0  0  0  0  0
   21.6385   73.6003   -0.8033 O   0  0  0  0  0  0  0  0  0  0  0  0
   23.3644   76.4674   -3.2224 O   0  0  0  0  0  0  0  0  0  0  0  0
   24.1732   76.2566   -0.4748 O   0  0  0  0  0  0  0  0  0  0  0  0
   22.6059   73.9052   -4.3356 O   0  0  0  0  0  0  0  0  0  0  0  0
   23.3206   75.2515   -2.4707 C   0  0  1  0  0  0  0  0  0  0  0  0
   23.0272   75.6009   -1.0103 C   0  0  1  0  0  0  0  0  0  0  0  0
   22.2243   74.3524   -3.0391 C   0  0  2  0  0  0  0  0  0  0  0  0
   22.7015   74.3426   -0.1943 C   0  0  1  0  0  0  0  0  0  0  0  0
   21.9447   73.1568   -2.1268 C   0  0  1  0  0  0  0  0  0  0  0  0
   24.0588   77.0426   -2.8668 H   0  0  0  0  0  0  0  0  0  0  0  0
   24.3684   77.0491   -0.9993 H   0  0  0  0  0  0  0  0  0  0  0  0
   22.7797   74.6713   -4.9036 H   0  0  0  0  0  0  0  0  0  0  0  0
   23.4030   74.9023    2.0201 O   0  0  0  0  0  0  0  0  0  0  0  0
   22.2523   74.6819    1.2252 C   0  0  0  0  0  0  0  0  0  0  0  0
   23.1325   75.1195    2.9263 H   0  0  0  0  0  0  0  0  0  0  0  0
 25 28  1  0
 25 24  1  0
 25 26  1  6
 25 27  2  0
  1  4  1  0
  1 24  1  0
  1  2  1  1
  1  3  2  0
  6 11  1  0
  6 12  1  0
 29 36  1  0
 29 37  1  0
  9  7  1  1
  7 13  1  0
 10  8  1  1
  8 14  1  0
 37 28  1  1
  4  5  1  0
 33 30  1  6
 30 38  1  0
 34 31  1  1
 31 39  1  0
 35 32  1  6
 32 40  1  0
 41 42  1  0
 41 43  1  0
 15 19  2  0
 16 22  2  0
 12 17  1  6
 17 19  1  0
 17 20  1  0
 18 19  1  0
 18 22  1  0
 18 23  1  0
  9 10  1  0
  9 11  1  0
 10 12  1  0
 11  5  1  6
 33 34  1  0
 33 35  1  0
 34 36  1  0
 35 37  1  0
 36 42  1  1
 20 21  2  0
 21 22  1  0
M  CHG  2   2  -1  26  -1
M  END
>  <COMPND>  (172) 
    8629 

>  <AUTHOR>  (172) 
    GENERATED BY OPEN BABEL 3.1.1

>  <MASTER>  (172) 
        0    0    0    0    0    0    0    0   58    0   58    0

>  <minimizedAffinity>  (172) 
-8.13264

>  <CNNscore>  (172) 
0.5552049279

>  <CNNaffinity>  (172) 
4.3865132332

>  <CNN_VS>  (172) 
2.4354138374

>  <CNNaffinity_variance>  (172) 
0.0968144909

$$$$
173
     RDKit          3D

 43 45  0  0  0  0  0  0  0  0999 V2000
   22.0291   69.7837    0.1833 P   0  0  2  0  0  0  0  0  0  0  0  0
   20.4249   69.7589    0.3913 O   0  0  0  0  0  0  0  0  0  0  0  0
   22.6657   68.4369    0.0034 O   0  0  0  0  0  0  0  0  0  0  0  0
   22.5696   70.6549    1.4350 O   0  0  0  0  0  0  0  0  0  0  0  0
   23.4323   70.0314    2.3704 C   0  0  0  0  0  0  0  0  0  0  0  0
   24.4985   70.6003    4.4472 O   0  0  0  0  0  0  0  0  0  0  0  0
   22.2586   72.5534    4.8464 O   0  0  0  0  0  0  0  0  0  0  0  0
   24.2952   74.1517    3.9894 O   0  0  0  0  0  0  0  0  0  0  0  0
   22.9222   72.1756    3.6413 C   0  0  1  0  0  0  0  0  0  0  0  0
   24.3015   72.7983    3.5830 C   0  0  2  0  0  0  0  0  0  0  0  0
   23.2475   70.6898    3.7307 C   0  0  1  0  0  0  0  0  0  0  0  0
   25.0895   71.9076    4.5285 C   0  0  2  0  0  0  0  0  0  0  0  0
   22.0404   73.4985    4.8125 H   0  0  0  0  0  0  0  0  0  0  0  0
   23.7816   74.6772    3.3563 H   0  0  0  0  0  0  0  0  0  0  0  0
   27.1019   73.6546    5.4647 O   0  0  0  0  0  0  0  0  0  0  0  0
   30.3744   71.4617    3.0724 O   0  0  0  0  0  0  0  0  0  0  0  0
   26.4759   71.8160    4.1667 N   0  0  0  0  0  0  0  0  0  0  0  0
   28.7297   72.5611    4.2729 N   0  0  0  0  0  0  0  0  0  0  0  0
   27.4056   72.7436    4.6917 C   0  0  0  0  0  0  0  0  0  0  0  0
   26.9013   70.8145    3.3008 C   0  0  0  0  0  0  0  0  0  0  0  0
   28.1675   70.6548    2.9102 C   0  0  0  0  0  0  0  0  0  0  0  0
   29.2016   71.5821    3.4130 C   0  0  0  0  0  0  0  0  0  0  0  0
   29.3949   73.1959    4.6255 H   0  0  0  0  0  0  0  0  0  0  0  0
   22.2179   70.7895   -1.0680 O   0  0  0  0  0  0  0  0  0  0  0  0
   22.2345   70.5115   -2.6603 P   0  0  2  0  0  0  0  0  0  0  0  0
   22.9810   69.0811   -2.7794 O   0  0  0  0  0  0  0  0  0  0  0  0
   22.8642   71.6080   -3.4698 O   0  0  0  0  0  0  0  0  0  0  0  0
   20.6961   70.2011   -3.0369 O   0  0  0  0  0  0  0  0  0  0  0  0
   19.6874   72.1674   -3.8929 O   0  0  0  0  0  0  0  0  0  0  0  0
   16.3568   69.7315   -3.7370 O   0  0  0  0  0  0  0  0  0  0  0  0
   17.5183   70.3843   -6.2812 O   0  0  0  0  0  0  0  0  0  0  0  0
   18.3413   69.6005   -1.6336 O   0  0  0  0  0  0  0  0  0  0  0  0
   17.7417   70.0346   -3.9256 C   0  0  1  0  0  0  0  0  0  0  0  0
   17.8600   71.0467   -5.0668 C   0  0  1  0  0  0  0  0  0  0  0  0
   18.3064   70.6158   -2.6308 C   0  0  2  0  0  0  0  0  0  0  0  0
   19.2805   71.6211   -5.1529 C   0  0  1  0  0  0  0  0  0  0  0  0
   19.7033   71.2040   -2.8376 C   0  0  1  0  0  0  0  0  0  0  0  0
   15.9923   69.3616   -4.5554 H   0  0  0  0  0  0  0  0  0  0  0  0
   16.6193   70.0259   -6.2135 H   0  0  0  0  0  0  0  0  0  0  0  0
   17.4511   69.2364   -1.5118 H   0  0  0  0  0  0  0  0  0  0  0  0
   19.5179   72.1698   -7.4662 O   0  0  0  0  0  0  0  0  0  0  0  0
   19.3812   72.7463   -6.1804 C   0  0  0  0  0  0  0  0  0  0  0  0
   19.5828   72.8743   -8.1305 H   0  0  0  0  0  0  0  0  0  0  0  0
 25 28  1  0
 25 24  1  0
 25 26  1  1
 25 27  2  0
  1  4  1  0
  1 24  1  0
  1  2  1  1
  1  3  2  0
  6 11  1  0
  6 12  1  0
 29 36  1  0
 29 37  1  0
  9  7  1  1
  7 13  1  0
 10  8  1  1
  8 14  1  0
 37 28  1  6
  4  5  1  0
 33 30  1  1
 30 38  1  0
 34 31  1  6
 31 39  1  0
 35 32  1  1
 32 40  1  0
 41 42  1  0
 41 43  1  0
 15 19  2  0
 16 22  2  0
 12 17  1  6
 17 19  1  0
 17 20  1  0
 18 19  1  0
 18 22  1  0
 18 23  1  0
  9 10  1  0
  9 11  1  0
 10 12  1  0
 11  5  1  6
 33 34  1  0
 33 35  1  0
 34 36  1  0
 35 37  1  0
 36 42  1  6
 20 21  2  0
 21 22  1  0
M  CHG  2   2  -1  26  -1
M  END
>  <COMPND>  (173) 
    8629 

>  <AUTHOR>  (173) 
    GENERATED BY OPEN BABEL 3.1.1

>  <MASTER>  (173) 
        0    0    0    0    0    0    0    0   58    0   58    0

>  <minimizedAffinity>  (173) 
-9.38193

>  <CNNscore>  (173) 
0.5213556886

>  <CNNaffinity>  (173) 
4.8537826538

>  <CNN_VS>  (173) 
2.5305471420

>  <CNNaffinity_variance>  (173) 
0.4829118252

$$$$
174
     RDKit          3D

 43 45  0  0  0  0  0  0  0  0999 V2000
   20.5861   71.8445   -2.1042 P   0  0  2  0  0  0  0  0  0  0  0  0
   19.1568   72.4989   -2.4864 O   0  0  0  0  0  0  0  0  0  0  0  0
   20.5239   70.4272   -1.6157 O   0  0  0  0  0  0  0  0  0  0  0  0
   21.2409   72.9126   -1.0803 O   0  0  0  0  0  0  0  0  0  0  0  0
   22.2302   72.4599   -0.1723 C   0  0  0  0  0  0  0  0  0  0  0  0
   22.5595   70.5796    1.2869 O   0  0  0  0  0  0  0  0  0  0  0  0
   20.1061   71.5128    2.7363 O   0  0  0  0  0  0  0  0  0  0  0  0
   22.1213   72.4157    4.3365 O   0  0  0  0  0  0  0  0  0  0  0  0
   21.1360   72.2822    2.1177 C   0  0  1  0  0  0  0  0  0  0  0  0
   22.3943   72.2500    2.9599 C   0  0  2  0  0  0  0  0  0  0  0  0
   21.5777   71.5482    0.8578 C   0  0  1  0  0  0  0  0  0  0  0  0
   22.9549   70.8756    2.6364 C   0  0  2  0  0  0  0  0  0  0  0  0
   19.8076   71.9619    3.5432 H   0  0  0  0  0  0  0  0  0  0  0  0
   21.7668   73.3052    4.4912 H   0  0  0  0  0  0  0  0  0  0  0  0
   24.4324   68.6744    3.6110 O   0  0  0  0  0  0  0  0  0  0  0  0
   28.4473   70.8299    2.9210 O   0  0  0  0  0  0  0  0  0  0  0  0
   24.3875   70.8343    2.7222 N   0  0  0  0  0  0  0  0  0  0  0  0
   26.4303   69.7494    3.2664 N   0  0  0  0  0  0  0  0  0  0  0  0
   25.0318   69.6811    3.2276 C   0  0  0  0  0  0  0  0  0  0  0  0
   25.1384   71.9290    2.3076 C   0  0  0  0  0  0  0  0  0  0  0  0
   26.4713   71.9787    2.3523 C   0  0  0  0  0  0  0  0  0  0  0  0
   27.2214   70.8149    2.8671 C   0  0  0  0  0  0  0  0  0  0  0  0
   26.9007   68.9577    3.6152 H   0  0  0  0  0  0  0  0  0  0  0  0
   21.4539   72.0541   -3.4518 O   0  0  0  0  0  0  0  0  0  0  0  0
   21.2974   73.1156   -4.6608 P   0  0  2  0  0  0  0  0  0  0  0  0
   22.5820   72.8067   -5.5945 O   0  0  0  0  0  0  0  0  0  0  0  0
   21.1856   74.5447   -4.2144 O   0  0  0  0  0  0  0  0  0  0  0  0
   20.0357   72.5806   -5.5134 O   0  0  0  0  0  0  0  0  0  0  0  0
   18.8850   70.5160   -5.3410 O   0  0  0  0  0  0  0  0  0  0  0  0
   18.5958   71.0940   -9.4194 O   0  0  0  0  0  0  0  0  0  0  0  0
   16.2660   71.4209   -7.7722 O   0  0  0  0  0  0  0  0  0  0  0  0
   21.0269   71.8218   -8.0267 O   0  0  0  0  0  0  0  0  0  0  0  0
   18.6409   71.4932   -8.0468 C   0  0  1  0  0  0  0  0  0  0  0  0
   17.4762   70.8242   -7.3143 C   0  0  1  0  0  0  0  0  0  0  0  0
   19.9757   71.0588   -7.4442 C   0  0  2  0  0  0  0  0  0  0  0  0
   17.6107   70.9875   -5.7943 C   0  0  1  0  0  0  0  0  0  0  0  0
   19.9864   71.2163   -5.9227 C   0  0  1  0  0  0  0  0  0  0  0  0
   17.7509   71.3673   -9.8081 H   0  0  0  0  0  0  0  0  0  0  0  0
   16.1935   71.3112   -8.7334 H   0  0  0  0  0  0  0  0  0  0  0  0
   21.0095   71.7134   -8.9899 H   0  0  0  0  0  0  0  0  0  0  0  0
   16.0186   69.2094   -5.9057 O   0  0  0  0  0  0  0  0  0  0  0  0
   16.5470   70.1950   -5.0376 C   0  0  0  0  0  0  0  0  0  0  0  0
   15.3404   68.6969   -5.4374 H   0  0  0  0  0  0  0  0  0  0  0  0
 25 28  1  0
 25 24  1  0
 25 26  1  6
 25 27  2  0
  1  4  1  0
  1 24  1  0
  1  2  1  6
  1  3  2  0
  6 11  1  0
  6 12  1  0
 29 36  1  0
 29 37  1  0
  9  7  1  1
  7 13  1  0
 10  8  1  1
  8 14  1  0
 37 28  1  6
  4  5  1  0
 33 30  1  6
 30 38  1  0
 34 31  1  6
 31 39  1  0
 35 32  1  6
 32 40  1  0
 41 42  1  0
 41 43  1  0
 15 19  2  0
 16 22  2  0
 12 17  1  6
 17 19  1  0
 17 20  1  0
 18 19  1  0
 18 22  1  0
 18 23  1  0
  9 10  1  0
  9 11  1  0
 10 12  1  0
 11  5  1  6
 33 34  1  0
 33 35  1  0
 34 36  1  0
 35 37  1  0
 36 42  1  1
 20 21  2  0
 21 22  1  0
M  CHG  2   2  -1  26  -1
M  END
>  <COMPND>  (174) 
    8629 

>  <AUTHOR>  (174) 
    GENERATED BY OPEN BABEL 3.1.1

>  <MASTER>  (174) 
        0    0    0    0    0    0    0    0   58    0   58    0

>  <minimizedAffinity>  (174) 
-8.44778

>  <CNNscore>  (174) 
0.4734704196

>  <CNNaffinity>  (174) 
4.1976823807

>  <CNN_VS>  (174) 
1.9874784946

>  <CNNaffinity_variance>  (174) 
0.2876736224

$$$$
175
     RDKit          3D

 43 45  0  0  0  0  0  0  0  0999 V2000
   24.4750   69.8277    2.9328 P   0  0  2  0  0  0  0  0  0  0  0  0
   23.5290   70.6941    3.9187 O   0  0  0  0  0  0  0  0  0  0  0  0
   25.3960   68.8648    3.6227 O   0  0  0  0  0  0  0  0  0  0  0  0
   25.1912   70.9419    2.0035 O   0  0  0  0  0  0  0  0  0  0  0  0
   26.6069   70.9681    1.9489 C   0  0  0  0  0  0  0  0  0  0  0  0
   28.4075   71.1902    3.5244 O   0  0  0  0  0  0  0  0  0  0  0  0
   27.3606   73.9508    4.0476 O   0  0  0  0  0  0  0  0  0  0  0  0
   29.4749   74.4210    2.3907 O   0  0  0  0  0  0  0  0  0  0  0  0
   27.4056   73.2200    2.8232 C   0  0  1  0  0  0  0  0  0  0  0  0
   28.8229   73.1712    2.2917 C   0  0  2  0  0  0  0  0  0  0  0  0
   27.1345   71.7548    3.1410 C   0  0  1  0  0  0  0  0  0  0  0  0
   29.4550   72.1104    3.1768 C   0  0  2  0  0  0  0  0  0  0  0  0
   27.5305   74.8897    3.8700 H   0  0  0  0  0  0  0  0  0  0  0  0
   29.0361   75.0617    1.8095 H   0  0  0  0  0  0  0  0  0  0  0  0
   32.1565   72.0960    4.0012 O   0  0  0  0  0  0  0  0  0  0  0  0
   33.3905   69.3223    0.5335 O   0  0  0  0  0  0  0  0  0  0  0  0
   30.5033   71.3927    2.5080 N   0  0  0  0  0  0  0  0  0  0  0  0
   32.7687   70.7148    2.2740 N   0  0  0  0  0  0  0  0  0  0  0  0
   31.8270   71.4523    3.0028 C   0  0  0  0  0  0  0  0  0  0  0  0
   30.2142   70.6400    1.3750 C   0  0  0  0  0  0  0  0  0  0  0  0
   31.1240   69.9434    0.6906 C   0  0  0  0  0  0  0  0  0  0  0  0
   32.5307   69.9525    1.1413 C   0  0  0  0  0  0  0  0  0  0  0  0
   33.6976   70.7418    2.5999 H   0  0  0  0  0  0  0  0  0  0  0  0
   23.4155   69.1399    1.9242 O   0  0  0  0  0  0  0  0  0  0  0  0
   22.7461   69.6821    0.5563 P   0  0  2  0  0  0  0  0  0  0  0  0
   21.2415   69.0906    0.6197 O   0  0  0  0  0  0  0  0  0  0  0  0
   23.5037   69.3157   -0.6869 O   0  0  0  0  0  0  0  0  0  0  0  0
   22.5701   71.2695    0.7889 O   0  0  0  0  0  0  0  0  0  0  0  0
   20.9778   72.3444    2.1767 O   0  0  0  0  0  0  0  0  0  0  0  0
   21.3368   75.2196   -0.7653 O   0  0  0  0  0  0  0  0  0  0  0  0
   22.4780   75.6935    1.8272 O   0  0  0  0  0  0  0  0  0  0  0  0
   21.3726   72.4138   -1.4764 O   0  0  0  0  0  0  0  0  0  0  0  0
   21.7954   74.1811    0.1045 C   0  0  1  0  0  0  0  0  0  0  0  0
   21.5699   74.6312    1.5493 C   0  0  1  0  0  0  0  0  0  0  0  0
   21.0128   72.9025   -0.1887 C   0  0  2  0  0  0  0  0  0  0  0  0
   21.7872   73.4718    2.5310 C   0  0  1  0  0  0  0  0  0  0  0  0
   21.2629   71.8310    0.8740 C   0  0  1  0  0  0  0  0  0  0  0  0
   21.8300   76.0342   -0.5846 H   0  0  0  0  0  0  0  0  0  0  0  0
   22.3306   76.4189    1.2001 H   0  0  0  0  0  0  0  0  0  0  0  0
   21.2094   73.1012   -2.1402 H   0  0  0  0  0  0  0  0  0  0  0  0
   21.7873   72.7962    4.8228 O   0  0  0  0  0  0  0  0  0  0  0  0
   21.4151   73.8562    3.9613 C   0  0  0  0  0  0  0  0  0  0  0  0
   21.5567   73.0269    5.7367 H   0  0  0  0  0  0  0  0  0  0  0  0
 25 28  1  0
 25 24  1  0
 25 26  1  6
 25 27  2  0
  1  4  1  0
  1 24  1  0
  1  2  1  1
  1  3  2  0
  6 11  1  0
  6 12  1  0
 29 36  1  0
 29 37  1  0
  9  7  1  1
  7 13  1  0
 10  8  1  1
  8 14  1  0
 37 28  1  1
  4  5  1  0
 33 30  1  6
 30 38  1  0
 34 31  1  1
 31 39  1  0
 35 32  1  6
 32 40  1  0
 41 42  1  0
 41 43  1  0
 15 19  2  0
 16 22  2  0
 12 17  1  6
 17 19  1  0
 17 20  1  0
 18 19  1  0
 18 22  1  0
 18 23  1  0
  9 10  1  0
  9 11  1  0
 10 12  1  0
 11  5  1  6
 33 34  1  0
 33 35  1  0
 34 36  1  0
 35 37  1  0
 36 42  1  1
 20 21  2  0
 21 22  1  0
M  CHG  2   2  -1  26  -1
M  END
>  <COMPND>  (175) 
    8629 

>  <AUTHOR>  (175) 
    GENERATED BY OPEN BABEL 3.1.1

>  <MASTER>  (175) 
        0    0    0    0    0    0    0    0   58    0   58    0

>  <minimizedAffinity>  (175) 
-8.34251

>  <CNNscore>  (175) 
0.4649896622

>  <CNNaffinity>  (175) 
4.3662576675

>  <CNN_VS>  (175) 
2.0302646160

>  <CNNaffinity_variance>  (175) 
0.0347301438

$$$$
176
     RDKit          3D

 43 45  0  0  0  0  0  0  0  0999 V2000
   20.9654   71.2109   -0.6643 P   0  0  2  0  0  0  0  0  0  0  0  0
   19.9337   70.0034   -0.3560 O   0  0  0  0  0  0  0  0  0  0  0  0
   21.0896   72.2326    0.4275 O   0  0  0  0  0  0  0  0  0  0  0  0
   20.4849   71.7745   -2.1028 O   0  0  0  0  0  0  0  0  0  0  0  0
   21.2266   71.4100   -3.2539 C   0  0  0  0  0  0  0  0  0  0  0  0
   20.0618   71.5165   -5.3528 O   0  0  0  0  0  0  0  0  0  0  0  0
   20.0184   74.4894   -4.9644 O   0  0  0  0  0  0  0  0  0  0  0  0
   17.4986   73.7564   -4.2231 O   0  0  0  0  0  0  0  0  0  0  0  0
   19.8997   73.4509   -3.9935 C   0  0  1  0  0  0  0  0  0  0  0  0
   18.5329   72.8043   -4.0797 C   0  0  2  0  0  0  0  0  0  0  0  0
   20.8183   72.3098   -4.4122 C   0  0  1  0  0  0  0  0  0  0  0  0
   18.6819   71.9143   -5.3018 C   0  0  2  0  0  0  0  0  0  0  0  0
   19.4409   75.2296   -4.7182 H   0  0  0  0  0  0  0  0  0  0  0  0
   17.4437   74.2979   -3.4203 H   0  0  0  0  0  0  0  0  0  0  0  0
   16.5790   71.3207   -7.0917 O   0  0  0  0  0  0  0  0  0  0  0  0
   15.5963   67.3777   -4.9173 O   0  0  0  0  0  0  0  0  0  0  0  0
   17.8603   70.7392   -5.2270 N   0  0  0  0  0  0  0  0  0  0  0  0
   16.0915   69.3578   -6.0077 N   0  0  0  0  0  0  0  0  0  0  0  0
   16.8300   70.5363   -6.1745 C   0  0  0  0  0  0  0  0  0  0  0  0
   18.0802   69.8028   -4.2227 C   0  0  0  0  0  0  0  0  0  0  0  0
   17.3662   68.6846   -4.0766 C   0  0  0  0  0  0  0  0  0  0  0  0
   16.2709   68.3971   -5.0250 C   0  0  0  0  0  0  0  0  0  0  0  0
   15.3682   69.1954   -6.6559 H   0  0  0  0  0  0  0  0  0  0  0  0
   22.3382   70.4344   -1.0185 O   0  0  0  0  0  0  0  0  0  0  0  0
   23.2764   69.4730   -0.1193 P   0  0  2  0  0  0  0  0  0  0  0  0
   24.6315   69.3527   -0.9948 O   0  0  0  0  0  0  0  0  0  0  0  0
   22.6483   68.1559    0.2339 O   0  0  0  0  0  0  0  0  0  0  0  0
   23.6907   70.3785    1.1509 O   0  0  0  0  0  0  0  0  0  0  0  0
   24.9959   69.3319    2.8295 O   0  0  0  0  0  0  0  0  0  0  0  0
   23.6759   72.6087    4.9675 O   0  0  0  0  0  0  0  0  0  0  0  0
   26.4168   72.4792    4.1196 O   0  0  0  0  0  0  0  0  0  0  0  0
   21.8954   71.2850    3.1080 O   0  0  0  0  0  0  0  0  0  0  0  0
   24.1168   71.9035    3.8040 C   0  0  1  0  0  0  0  0  0  0  0  0
   25.5250   71.3689    4.0722 C   0  0  1  0  0  0  0  0  0  0  0  0
   23.1506   70.7549    3.5204 C   0  0  2  0  0  0  0  0  0  0  0  0
   25.9595   70.3808    2.9813 C   0  0  1  0  0  0  0  0  0  0  0  0
   23.7003   69.8043    2.4554 C   0  0  1  0  0  0  0  0  0  0  0  0
   24.2848   73.3397    5.1528 H   0  0  0  0  0  0  0  0  0  0  0  0
   26.1309   73.0957    4.8121 H   0  0  0  0  0  0  0  0  0  0  0  0
   21.5579   71.8849    3.7908 H   0  0  0  0  0  0  0  0  0  0  0  0
   28.3344   70.6369    3.0370 O   0  0  0  0  0  0  0  0  0  0  0  0
   27.2944   69.7161    3.3105 C   0  0  0  0  0  0  0  0  0  0  0  0
   29.1900   70.2276    3.2422 H   0  0  0  0  0  0  0  0  0  0  0  0
 25 28  1  0
 25 24  1  0
 25 26  1  6
 25 27  2  0
  1  4  1  0
  1 24  1  0
  1  2  1  1
  1  3  2  0
  6 11  1  0
  6 12  1  0
 29 36  1  0
 29 37  1  0
  9  7  1  6
  7 13  1  0
 10  8  1  6
  8 14  1  0
 37 28  1  6
  4  5  1  0
 33 30  1  1
 30 38  1  0
 34 31  1  6
 31 39  1  0
 35 32  1  6
 32 40  1  0
 41 42  1  0
 41 43  1  0
 15 19  2  0
 16 22  2  0
 12 17  1  1
 17 19  1  0
 17 20  1  0
 18 19  1  0
 18 22  1  0
 18 23  1  0
  9 10  1  0
  9 11  1  0
 10 12  1  0
 11  5  1  1
 33 34  1  0
 33 35  1  0
 34 36  1  0
 35 37  1  0
 36 42  1  1
 20 21  2  0
 21 22  1  0
M  CHG  2   2  -1  26  -1
M  END
>  <COMPND>  (176) 
    8629 

>  <AUTHOR>  (176) 
    GENERATED BY OPEN BABEL 3.1.1

>  <MASTER>  (176) 
        0    0    0    0    0    0    0    0   58    0   58    0

>  <minimizedAffinity>  (176) 
-8.25958

>  <CNNscore>  (176) 
0.4549479187

>  <CNNaffinity>  (176) 
4.3317055702

>  <CNN_VS>  (176) 
1.9707003832

>  <CNNaffinity_variance>  (176) 
0.0636982769

$$$$
177
     RDKit          3D

 43 45  0  0  0  0  0  0  0  0999 V2000
   20.5254   73.8115   -0.6057 P   0  0  2  0  0  0  0  0  0  0  0  0
   20.7696   74.2928   -2.1309 O   0  0  0  0  0  0  0  0  0  0  0  0
   19.9742   74.8642    0.3105 O   0  0  0  0  0  0  0  0  0  0  0  0
   21.9459   73.1725   -0.1678 O   0  0  0  0  0  0  0  0  0  0  0  0
   22.5263   73.5895    1.0557 C   0  0  0  0  0  0  0  0  0  0  0  0
   22.7461   71.5664    2.3335 O   0  0  0  0  0  0  0  0  0  0  0  0
   20.9896   72.8859    4.3742 O   0  0  0  0  0  0  0  0  0  0  0  0
   23.4785   73.1903    5.4463 O   0  0  0  0  0  0  0  0  0  0  0  0
   21.9937   73.4620    3.5403 C   0  0  1  0  0  0  0  0  0  0  0  0
   23.3726   73.0857    4.0411 C   0  0  2  0  0  0  0  0  0  0  0  0
   21.9427   72.7582    2.1900 C   0  0  1  0  0  0  0  0  0  0  0  0
   23.5066   71.6545    3.5495 C   0  0  2  0  0  0  0  0  0  0  0  0
   21.0027   73.3196    5.2424 H   0  0  0  0  0  0  0  0  0  0  0  0
   23.3868   74.1193    5.7094 H   0  0  0  0  0  0  0  0  0  0  0  0
   24.5059   69.0135    3.6191 O   0  0  0  0  0  0  0  0  0  0  0  0
   28.7521   70.3950    2.4778 O   0  0  0  0  0  0  0  0  0  0  0  0
   24.8692   71.2952    3.2744 N   0  0  0  0  0  0  0  0  0  0  0  0
   26.6193   69.7035    3.0506 N   0  0  0  0  0  0  0  0  0  0  0  0
   25.2688   69.9399    3.3374 C   0  0  0  0  0  0  0  0  0  0  0  0
   25.7931   72.2814    2.9461 C   0  0  0  0  0  0  0  0  0  0  0  0
   27.0777   72.0396    2.6766 C   0  0  0  0  0  0  0  0  0  0  0  0
   27.5765   70.6499    2.7205 C   0  0  0  0  0  0  0  0  0  0  0  0
   26.9205   68.7667    3.0887 H   0  0  0  0  0  0  0  0  0  0  0  0
   19.5810   72.5114   -0.7817 O   0  0  0  0  0  0  0  0  0  0  0  0
   19.8770   71.0660   -1.4423 P   0  0  2  0  0  0  0  0  0  0  0  0
   19.7912   70.0569   -0.1806 O   0  0  0  0  0  0  0  0  0  0  0  0
   21.1661   70.9917   -2.2081 O   0  0  0  0  0  0  0  0  0  0  0  0
   18.5600   70.7389   -2.3161 O   0  0  0  0  0  0  0  0  0  0  0  0
   18.6484   72.6298   -3.7420 O   0  0  0  0  0  0  0  0  0  0  0  0
   15.8481   70.3900   -5.7894 O   0  0  0  0  0  0  0  0  0  0  0  0
   18.4982   70.6696   -6.8602 O   0  0  0  0  0  0  0  0  0  0  0  0
   15.8319   70.4263   -2.8949 O   0  0  0  0  0  0  0  0  0  0  0  0
   17.0126   70.6025   -4.9869 C   0  0  1  0  0  0  0  0  0  0  0  0
   17.9959   71.4598   -5.7862 C   0  0  1  0  0  0  0  0  0  0  0  0
   16.6068   71.3117   -3.6962 C   0  0  2  0  0  0  0  0  0  0  0  0
   19.1485   71.9521   -4.9006 C   0  0  1  0  0  0  0  0  0  0  0  0
   17.8263   71.8040   -2.9149 C   0  0  1  0  0  0  0  0  0  0  0  0
   16.0987   69.9396   -6.6103 H   0  0  0  0  0  0  0  0  0  0  0  0
   17.7604   70.3646   -7.4115 H   0  0  0  0  0  0  0  0  0  0  0  0
   15.0629   70.1219   -3.4007 H   0  0  0  0  0  0  0  0  0  0  0  0
   19.3657   73.4165   -6.7760 O   0  0  0  0  0  0  0  0  0  0  0  0
   20.0550   72.9364   -5.6365 C   0  0  0  0  0  0  0  0  0  0  0  0
   19.9305   74.0443   -7.2541 H   0  0  0  0  0  0  0  0  0  0  0  0
 25 28  1  0
 25 24  1  0
 25 26  1  1
 25 27  2  0
  1  4  1  0
  1 24  1  0
  1  2  1  6
  1  3  2  0
  6 11  1  0
  6 12  1  0
 29 36  1  0
 29 37  1  0
  9  7  1  1
  7 13  1  0
 10  8  1  1
  8 14  1  0
 37 28  1  6
  4  5  1  0
 33 30  1  6
 30 38  1  0
 34 31  1  6
 31 39  1  0
 35 32  1  1
 32 40  1  0
 41 42  1  0
 41 43  1  0
 15 19  2  0
 16 22  2  0
 12 17  1  6
 17 19  1  0
 17 20  1  0
 18 19  1  0
 18 22  1  0
 18 23  1  0
  9 10  1  0
  9 11  1  0
 10 12  1  0
 11  5  1  6
 33 34  1  0
 33 35  1  0
 34 36  1  0
 35 37  1  0
 36 42  1  6
 20 21  2  0
 21 22  1  0
M  CHG  2   2  -1  26  -1
M  END
>  <COMPND>  (177) 
    8629 

>  <AUTHOR>  (177) 
    GENERATED BY OPEN BABEL 3.1.1

>  <MASTER>  (177) 
        0    0    0    0    0    0    0    0   58    0   58    0

>  <minimizedAffinity>  (177) 
-7.28463

>  <CNNscore>  (177) 
0.4471336305

>  <CNNaffinity>  (177) 
4.4043741226

>  <CNN_VS>  (177) 
1.9693437815

>  <CNNaffinity_variance>  (177) 
0.1044908613

$$$$
178
     RDKit          3D

 43 45  0  0  0  0  0  0  0  0999 V2000
   22.4166   69.6913    0.0741 P   0  0  2  0  0  0  0  0  0  0  0  0
   22.7260   68.1051    0.1478 O   0  0  0  0  0  0  0  0  0  0  0  0
   23.3354   70.4756   -0.8160 O   0  0  0  0  0  0  0  0  0  0  0  0
   22.3779   70.1521    1.6246 O   0  0  0  0  0  0  0  0  0  0  0  0
   23.5330   69.9482    2.4196 C   0  0  0  0  0  0  0  0  0  0  0  0
   24.5969   70.6069    4.4709 O   0  0  0  0  0  0  0  0  0  0  0  0
   22.2986   72.4976    4.8372 O   0  0  0  0  0  0  0  0  0  0  0  0
   24.2759   74.1363    3.9198 O   0  0  0  0  0  0  0  0  0  0  0  0
   22.9644   72.1087    3.6369 C   0  0  1  0  0  0  0  0  0  0  0  0
   24.3224   72.7733    3.5499 C   0  0  2  0  0  0  0  0  0  0  0  0
   23.3380   70.6370    3.7633 C   0  0  1  0  0  0  0  0  0  0  0  0
   25.1461   71.9341    4.5119 C   0  0  2  0  0  0  0  0  0  0  0  0
   22.0499   73.4340    4.7800 H   0  0  0  0  0  0  0  0  0  0  0  0
   23.7407   74.6278    3.2774 H   0  0  0  0  0  0  0  0  0  0  0  0
   27.0989   73.7984    5.3421 O   0  0  0  0  0  0  0  0  0  0  0  0
   30.4314   71.6162    3.0238 O   0  0  0  0  0  0  0  0  0  0  0  0
   26.5318   71.8770    4.1405 N   0  0  0  0  0  0  0  0  0  0  0  0
   28.7567   72.7102    4.1872 N   0  0  0  0  0  0  0  0  0  0  0  0
   27.4302   72.8631    4.6105 C   0  0  0  0  0  0  0  0  0  0  0  0
   26.9874   70.8514    3.3192 C   0  0  0  0  0  0  0  0  0  0  0  0
   28.2553   70.7205    2.9236 C   0  0  0  0  0  0  0  0  0  0  0  0
   29.2579   71.7090    3.3704 C   0  0  0  0  0  0  0  0  0  0  0  0
   29.4004   73.3857    4.5020 H   0  0  0  0  0  0  0  0  0  0  0  0
   20.8596   69.7382   -0.3579 O   0  0  0  0  0  0  0  0  0  0  0  0
   19.8857   70.9864   -0.6845 P   0  0  2  0  0  0  0  0  0  0  0  0
   20.9139   72.2228   -0.8618 O   0  0  0  0  0  0  0  0  0  0  0  0
   18.8134   71.2149    0.3411 O   0  0  0  0  0  0  0  0  0  0  0  0
   19.3358   70.6966   -2.1740 O   0  0  0  0  0  0  0  0  0  0  0  0
   19.1040   72.6263   -3.5301 O   0  0  0  0  0  0  0  0  0  0  0  0
   16.9525   69.9478   -5.8208 O   0  0  0  0  0  0  0  0  0  0  0  0
   19.5398   70.8183   -6.7129 O   0  0  0  0  0  0  0  0  0  0  0  0
   16.7700   69.8511   -2.9334 O   0  0  0  0  0  0  0  0  0  0  0  0
   18.0007   70.3612   -4.9400 C   0  0  1  0  0  0  0  0  0  0  0  0
   18.8248   71.4386   -5.6478 C   0  0  1  0  0  0  0  0  0  0  0  0
   17.3849   70.9127   -3.6555 C   0  0  2  0  0  0  0  0  0  0  0  0
   19.7980   72.1193   -4.6760 C   0  0  1  0  0  0  0  0  0  0  0  0
   18.4292   71.6120   -2.7834 C   0  0  1  0  0  0  0  0  0  0  0  0
   17.3367   69.5962   -6.6382 H   0  0  0  0  0  0  0  0  0  0  0  0
   18.9138   70.3918   -7.3190 H   0  0  0  0  0  0  0  0  0  0  0  0
   16.1108   69.4167   -3.4961 H   0  0  0  0  0  0  0  0  0  0  0  0
   21.5497   72.8018   -6.1506 O   0  0  0  0  0  0  0  0  0  0  0  0
   20.5170   73.3019   -5.3213 C   0  0  0  0  0  0  0  0  0  0  0  0
   22.0159   73.5434   -6.5683 H   0  0  0  0  0  0  0  0  0  0  0  0
 25 28  1  0
 25 24  1  0
 25 26  1  6
 25 27  2  0
  1  4  1  0
  1 24  1  0
  1  2  1  1
  1  3  2  0
  6 11  1  0
  6 12  1  0
 29 36  1  0
 29 37  1  0
  9  7  1  1
  7 13  1  0
 10  8  1  1
  8 14  1  0
 37 28  1  6
  4  5  1  0
 33 30  1  6
 30 38  1  0
 34 31  1  6
 31 39  1  0
 35 32  1  1
 32 40  1  0
 41 42  1  0
 41 43  1  0
 15 19  2  0
 16 22  2  0
 12 17  1  6
 17 19  1  0
 17 20  1  0
 18 19  1  0
 18 22  1  0
 18 23  1  0
  9 10  1  0
  9 11  1  0
 10 12  1  0
 11  5  1  6
 33 34  1  0
 33 35  1  0
 34 36  1  0
 35 37  1  0
 36 42  1  6
 20 21  2  0
 21 22  1  0
M  CHG  2   2  -1  26  -1
M  END
>  <COMPND>  (178) 
    8629 

>  <AUTHOR>  (178) 
    GENERATED BY OPEN BABEL 3.1.1

>  <MASTER>  (178) 
        0    0    0    0    0    0    0    0   58    0   58    0

>  <minimizedAffinity>  (178) 
-8.21922

>  <CNNscore>  (178) 
0.4186432064

>  <CNNaffinity>  (178) 
4.8182482719

>  <CNN_VS>  (178) 
2.0171267986

>  <CNNaffinity_variance>  (178) 
0.2322256118

$$$$
179
     RDKit          3D

 43 45  0  0  0  0  0  0  0  0999 V2000
   22.7795   73.2346   -3.4491 P   0  0  2  0  0  0  0  0  0  0  0  0
   24.1590   72.8682   -4.2108 O   0  0  0  0  0  0  0  0  0  0  0  0
   22.7053   74.6329   -2.9100 O   0  0  0  0  0  0  0  0  0  0  0  0
   22.6118   72.0512   -2.3586 O   0  0  0  0  0  0  0  0  0  0  0  0
   22.6601   72.3877   -0.9830 C   0  0  0  0  0  0  0  0  0  0  0  0
   21.8427   70.1286   -0.9354 O   0  0  0  0  0  0  0  0  0  0  0  0
   21.4088   70.5457    2.0020 O   0  0  0  0  0  0  0  0  0  0  0  0
   23.7364   69.1262    1.9407 O   0  0  0  0  0  0  0  0  0  0  0  0
   22.4531   71.0401    1.1651 C   0  0  1  0  0  0  0  0  0  0  0  0
   23.4217   69.9281    0.8205 C   0  0  2  0  0  0  0  0  0  0  0  0
   21.8490   71.3685   -0.1945 C   0  0  1  0  0  0  0  0  0  0  0  0
   22.6580   69.1651   -0.2486 C   0  0  2  0  0  0  0  0  0  0  0  0
   21.7704   70.3294    2.8763 H   0  0  0  0  0  0  0  0  0  0  0  0
   24.2215   69.6565    2.5920 H   0  0  0  0  0  0  0  0  0  0  0  0
   22.9780   66.3702   -0.5018 O   0  0  0  0  0  0  0  0  0  0  0  0
   26.0310   66.8454   -3.9216 O   0  0  0  0  0  0  0  0  0  0  0  0
   23.5297   68.5311   -1.1971 N   0  0  0  0  0  0  0  0  0  0  0  0
   24.4977   66.6091   -2.2045 N   0  0  0  0  0  0  0  0  0  0  0  0
   23.6180   67.1202   -1.2418 C   0  0  0  0  0  0  0  0  0  0  0  0
   24.2850   69.3064   -2.0701 C   0  0  0  0  0  0  0  0  0  0  0  0
   25.1203   68.8036   -2.9815 C   0  0  0  0  0  0  0  0  0  0  0  0
   25.2710   67.3384   -3.0938 C   0  0  0  0  0  0  0  0  0  0  0  0
   24.5759   65.6287   -2.2538 H   0  0  0  0  0  0  0  0  0  0  0  0
   21.6507   72.8772   -4.5496 O   0  0  0  0  0  0  0  0  0  0  0  0
   21.3311   73.5304   -5.9932 P   0  0  2  0  0  0  0  0  0  0  0  0
   22.5422   72.9914   -6.9207 O   0  0  0  0  0  0  0  0  0  0  0  0
   21.1837   75.0243   -5.9736 O   0  0  0  0  0  0  0  0  0  0  0  0
   20.0288   72.7367   -6.5214 O   0  0  0  0  0  0  0  0  0  0  0  0
   18.9805   70.7966   -5.6533 O   0  0  0  0  0  0  0  0  0  0  0  0
   18.4061   70.1092   -9.6842 O   0  0  0  0  0  0  0  0  0  0  0  0
   16.1749   70.8687   -8.0433 O   0  0  0  0  0  0  0  0  0  0  0  0
   20.8883   71.2752   -8.7576 O   0  0  0  0  0  0  0  0  0  0  0  0
   18.5221   70.9053   -8.5018 C   0  0  1  0  0  0  0  0  0  0  0  0
   17.4362   70.4642   -7.5183 C   0  0  1  0  0  0  0  0  0  0  0  0
   19.9100   70.7017   -7.8971 C   0  0  2  0  0  0  0  0  0  0  0  0
   17.6608   71.0819   -6.1316 C   0  0  1  0  0  0  0  0  0  0  0  0
   20.0115   71.3118   -6.4979 C   0  0  1  0  0  0  0  0  0  0  0  0
   17.5273   70.2342  -10.0734 H   0  0  0  0  0  0  0  0  0  0  0  0
   16.0457   70.4723   -8.9193 H   0  0  0  0  0  0  0  0  0  0  0  0
   20.8139   70.8806   -9.6399 H   0  0  0  0  0  0  0  0  0  0  0  0
   15.9695   69.4566   -5.6770 O   0  0  0  0  0  0  0  0  0  0  0  0
   16.6824   70.5327   -5.0956 C   0  0  0  0  0  0  0  0  0  0  0  0
   15.3432   69.0968   -5.0289 H   0  0  0  0  0  0  0  0  0  0  0  0
 25 28  1  0
 25 24  1  0
 25 26  1  6
 25 27  2  0
  1  4  1  0
  1 24  1  0
  1  2  1  6
  1  3  2  0
  6 11  1  0
  6 12  1  0
 29 36  1  0
 29 37  1  0
  9  7  1  1
  7 13  1  0
 10  8  1  1
  8 14  1  0
 37 28  1  6
  4  5  1  0
 33 30  1  6
 30 38  1  0
 34 31  1  6
 31 39  1  0
 35 32  1  6
 32 40  1  0
 41 42  1  0
 41 43  1  0
 15 19  2  0
 16 22  2  0
 12 17  1  6
 17 19  1  0
 17 20  1  0
 18 19  1  0
 18 22  1  0
 18 23  1  0
  9 10  1  0
  9 11  1  0
 10 12  1  0
 11  5  1  6
 33 34  1  0
 33 35  1  0
 34 36  1  0
 35 37  1  0
 36 42  1  1
 20 21  2  0
 21 22  1  0
M  CHG  2   2  -1  26  -1
M  END
>  <COMPND>  (179) 
    8629 

>  <AUTHOR>  (179) 
    GENERATED BY OPEN BABEL 3.1.1

>  <MASTER>  (179) 
        0    0    0    0    0    0    0    0   58    0   58    0

>  <minimizedAffinity>  (179) 
-9.43413

>  <CNNscore>  (179) 
0.3692704737

>  <CNNaffinity>  (179) 
4.3788127899

>  <CNN_VS>  (179) 
1.6169662476

>  <CNNaffinity_variance>  (179) 
0.5314998627

$$$$
180
     RDKit          3D

 43 45  0  0  0  0  0  0  0  0999 V2000
   22.7542   73.0757   -3.2978 P   0  0  2  0  0  0  0  0  0  0  0  0
   23.9874   72.7332   -4.2874 O   0  0  0  0  0  0  0  0  0  0  0  0
   22.8592   74.3928   -2.5867 O   0  0  0  0  0  0  0  0  0  0  0  0
   22.6449   71.7708   -2.3474 O   0  0  0  0  0  0  0  0  0  0  0  0
   23.0391   71.8871   -0.9913 C   0  0  0  0  0  0  0  0  0  0  0  0
   23.5467   70.4083    0.8333 O   0  0  0  0  0  0  0  0  0  0  0  0
   20.7115   69.4588    0.6069 O   0  0  0  0  0  0  0  0  0  0  0  0
   20.5996   71.1633    2.7326 O   0  0  0  0  0  0  0  0  0  0  0  0
   21.2414   70.7703    0.4207 C   0  0  1  0  0  0  0  0  0  0  0  0
   21.5965   71.3885    1.7568 C   0  0  2  0  0  0  0  0  0  0  0  0
   22.6074   70.6350   -0.2404 C   0  0  1  0  0  0  0  0  0  0  0  0
   22.9061   70.6929    2.0877 C   0  0  2  0  0  0  0  0  0  0  0  0
   19.8390   69.5195    1.0274 H   0  0  0  0  0  0  0  0  0  0  0  0
   19.7864   71.6261    2.4770 H   0  0  0  0  0  0  0  0  0  0  0  0
   23.3382   70.3500    4.8578 O   0  0  0  0  0  0  0  0  0  0  0  0
   26.2690   73.9029    5.0264 O   0  0  0  0  0  0  0  0  0  0  0  0
   23.7772   71.5139    2.8805 N   0  0  0  0  0  0  0  0  0  0  0  0
   24.7973   72.1192    4.9395 N   0  0  0  0  0  0  0  0  0  0  0  0
   23.9231   71.2582    4.2639 C   0  0  0  0  0  0  0  0  0  0  0  0
   24.4760   72.5587    2.2857 C   0  0  0  0  0  0  0  0  0  0  0  0
   25.3049   73.3715    2.9441 C   0  0  0  0  0  0  0  0  0  0  0  0
   25.5135   73.1724    4.3929 C   0  0  0  0  0  0  0  0  0  0  0  0
   24.9144   71.9604    5.9043 H   0  0  0  0  0  0  0  0  0  0  0  0
   21.4643   72.9324   -4.2614 O   0  0  0  0  0  0  0  0  0  0  0  0
   20.7716   73.9871   -5.2718 P   0  0  2  0  0  0  0  0  0  0  0  0
   21.9595   74.3390   -6.3123 O   0  0  0  0  0  0  0  0  0  0  0  0
   20.1675   75.1828   -4.5941 O   0  0  0  0  0  0  0  0  0  0  0  0
   19.7266   73.1053   -6.1293 O   0  0  0  0  0  0  0  0  0  0  0  0
   18.7524   71.0832   -5.3687 O   0  0  0  0  0  0  0  0  0  0  0  0
   18.6277   70.3863   -9.4369 O   0  0  0  0  0  0  0  0  0  0  0  0
   16.1954   70.9583   -8.0211 O   0  0  0  0  0  0  0  0  0  0  0  0
   20.9102   71.7326   -8.2718 O   0  0  0  0  0  0  0  0  0  0  0  0
   18.5661   71.1794   -8.2483 C   0  0  1  0  0  0  0  0  0  0  0  0
   17.4272   70.6479   -7.3757 C   0  0  1  0  0  0  0  0  0  0  0  0
   19.9002   71.0785   -7.5112 C   0  0  2  0  0  0  0  0  0  0  0  0
   17.4673   71.2698   -5.9733 C   0  0  1  0  0  0  0  0  0  0  0  0
   19.8176   71.6831   -6.1084 C   0  0  1  0  0  0  0  0  0  0  0  0
   17.7838   70.4464   -9.9099 H   0  0  0  0  0  0  0  0  0  0  0  0
   16.1831   70.5602   -8.9057 H   0  0  0  0  0  0  0  0  0  0  0  0
   20.9527   71.3406   -9.1574 H   0  0  0  0  0  0  0  0  0  0  0  0
   15.7103   71.6748   -4.4056 O   0  0  0  0  0  0  0  0  0  0  0  0
   16.4384   70.6384   -5.0381 C   0  0  0  0  0  0  0  0  0  0  0  0
   15.0514   71.2878   -3.8075 H   0  0  0  0  0  0  0  0  0  0  0  0
 25 28  1  0
 25 24  1  0
 25 26  1  6
 25 27  2  0
  1  4  1  0
  1 24  1  0
  1  2  1  6
  1  3  2  0
  6 11  1  0
  6 12  1  0
 29 36  1  0
 29 37  1  0
  9  7  1  1
  7 13  1  0
 10  8  1  1
  8 14  1  0
 37 28  1  6
  4  5  1  0
 33 30  1  6
 30 38  1  0
 34 31  1  6
 31 39  1  0
 35 32  1  6
 32 40  1  0
 41 42  1  0
 41 43  1  0
 15 19  2  0
 16 22  2  0
 12 17  1  1
 17 19  1  0
 17 20  1  0
 18 19  1  0
 18 22  1  0
 18 23  1  0
  9 10  1  0
  9 11  1  0
 10 12  1  0
 11  5  1  1
 33 34  1  0
 33 35  1  0
 34 36  1  0
 35 37  1  0
 36 42  1  1
 20 21  2  0
 21 22  1  0
M  CHG  2   2  -1  26  -1
M  END
>  <COMPND>  (180) 
    8629 

>  <AUTHOR>  (180) 
    GENERATED BY OPEN BABEL 3.1.1

>  <MASTER>  (180) 
        0    0    0    0    0    0    0    0   58    0   58    0

>  <minimizedAffinity>  (180) 
-8.30785

>  <CNNscore>  (180) 
0.3665479124

>  <CNNaffinity>  (180) 
4.2477445602

>  <CNN_VS>  (180) 
1.5570019484

>  <CNNaffinity_variance>  (180) 
0.0174484737

$$$$
181
     RDKit          3D

 43 45  0  0  0  0  0  0  0  0999 V2000
   22.0863   70.0054   -0.3105 P   0  0  2  0  0  0  0  0  0  0  0  0
   21.0772   69.2786    0.7243 O   0  0  0  0  0  0  0  0  0  0  0  0
   22.6557   69.1124   -1.3734 O   0  0  0  0  0  0  0  0  0  0  0  0
   23.1671   70.7340    0.6481 O   0  0  0  0  0  0  0  0  0  0  0  0
   23.9972   69.9280    1.4661 C   0  0  0  0  0  0  0  0  0  0  0  0
   24.8760   70.0189    3.7007 O   0  0  0  0  0  0  0  0  0  0  0  0
   22.4526   71.6458    4.3871 O   0  0  0  0  0  0  0  0  0  0  0  0
   24.3911   73.5465    4.1297 O   0  0  0  0  0  0  0  0  0  0  0  0
   23.2216   71.6355    3.1855 C   0  0  1  0  0  0  0  0  0  0  0  0
   24.5418   72.3458    3.3999 C   0  0  2  0  0  0  0  0  0  0  0  0
   23.6698   70.2023    2.9275 C   0  0  1  0  0  0  0  0  0  0  0  0
   25.3436   71.2994    4.1551 C   0  0  2  0  0  0  0  0  0  0  0  0
   22.1549   72.5508    4.5724 H   0  0  0  0  0  0  0  0  0  0  0  0
   23.8744   74.1798    3.6074 H   0  0  0  0  0  0  0  0  0  0  0  0
   27.0750   73.1218    5.4433 O   0  0  0  0  0  0  0  0  0  0  0  0
   30.7316   71.5934    3.0908 O   0  0  0  0  0  0  0  0  0  0  0  0
   26.7528   71.3991    3.8987 N   0  0  0  0  0  0  0  0  0  0  0  0
   28.8943   72.3592    4.2710 N   0  0  0  0  0  0  0  0  0  0  0  0
   27.5326   72.3487    4.5991 C   0  0  0  0  0  0  0  0  0  0  0  0
   27.3478   70.5608    2.9621 C   0  0  0  0  0  0  0  0  0  0  0  0
   28.6475   70.5842    2.6599 C   0  0  0  0  0  0  0  0  0  0  0  0
   29.5323   71.5472    3.3467 C   0  0  0  0  0  0  0  0  0  0  0  0
   29.4571   73.0128    4.7461 H   0  0  0  0  0  0  0  0  0  0  0  0
   21.2060   71.2403   -0.8699 O   0  0  0  0  0  0  0  0  0  0  0  0
   19.6314   71.3494   -1.2185 P   0  0  2  0  0  0  0  0  0  0  0  0
   19.1585   72.6583   -0.3933 O   0  0  0  0  0  0  0  0  0  0  0  0
   18.8458   70.1072   -0.9124 O   0  0  0  0  0  0  0  0  0  0  0  0
   19.5862   71.8050   -2.7662 O   0  0  0  0  0  0  0  0  0  0  0  0
   19.3223   69.7418   -3.9020 O   0  0  0  0  0  0  0  0  0  0  0  0
   19.0731   72.3074   -7.1279 O   0  0  0  0  0  0  0  0  0  0  0  0
   16.7067   70.9812   -6.1849 O   0  0  0  0  0  0  0  0  0  0  0  0
   20.9418   72.8573   -4.9865 O   0  0  0  0  0  0  0  0  0  0  0  0
   18.8778   71.8961   -5.7721 C   0  0  1  0  0  0  0  0  0  0  0  0
   18.0243   70.6263   -5.7745 C   0  0  1  0  0  0  0  0  0  0  0  0
   20.2381   71.6283   -5.1308 C   0  0  2  0  0  0  0  0  0  0  0  0
   17.9942   69.9764   -4.3846 C   0  0  1  0  0  0  0  0  0  0  0  0
   20.0964   70.9360   -3.7741 C   0  0  1  0  0  0  0  0  0  0  0  0
   18.2132   72.4795   -7.5407 H   0  0  0  0  0  0  0  0  0  0  0  0
   16.7398   71.3909   -7.0637 H   0  0  0  0  0  0  0  0  0  0  0  0
   21.0252   73.2856   -5.8523 H   0  0  0  0  0  0  0  0  0  0  0  0
   15.8833   68.8572   -4.4037 O   0  0  0  0  0  0  0  0  0  0  0  0
   17.2802   68.6266   -4.3998 C   0  0  0  0  0  0  0  0  0  0  0  0
   15.4159   68.0068   -4.4137 H   0  0  0  0  0  0  0  0  0  0  0  0
 25 28  1  0
 25 24  1  0
 25 26  1  1
 25 27  2  0
  1  4  1  0
  1 24  1  0
  1  2  1  1
  1  3  2  0
  6 11  1  0
  6 12  1  0
 29 36  1  0
 29 37  1  0
  9  7  1  1
  7 13  1  0
 10  8  1  1
  8 14  1  0
 37 28  1  1
  4  5  1  0
 33 30  1  6
 30 38  1  0
 34 31  1  1
 31 39  1  0
 35 32  1  1
 32 40  1  0
 41 42  1  0
 41 43  1  0
 15 19  2  0
 16 22  2  0
 12 17  1  6
 17 19  1  0
 17 20  1  0
 18 19  1  0
 18 22  1  0
 18 23  1  0
  9 10  1  0
  9 11  1  0
 10 12  1  0
 11  5  1  6
 33 34  1  0
 33 35  1  0
 34 36  1  0
 35 37  1  0
 36 42  1  6
 20 21  2  0
 21 22  1  0
M  CHG  2   2  -1  26  -1
M  END
>  <COMPND>  (181) 
    8629 

>  <AUTHOR>  (181) 
    GENERATED BY OPEN BABEL 3.1.1

>  <MASTER>  (181) 
        0    0    0    0    0    0    0    0   58    0   58    0

>  <minimizedAffinity>  (181) 
-8.67219

>  <CNNscore>  (181) 
0.8520324826

>  <CNNaffinity>  (181) 
4.7409667969

>  <CNN_VS>  (181) 
4.0394577980

>  <CNNaffinity_variance>  (181) 
0.1871723384

$$$$
182
     RDKit          3D

 43 45  0  0  0  0  0  0  0  0999 V2000
   20.8475   71.2355    0.0067 P   0  0  2  0  0  0  0  0  0  0  0  0
   20.5802   69.6399    0.0144 O   0  0  0  0  0  0  0  0  0  0  0  0
   19.8075   72.0558    0.7116 O   0  0  0  0  0  0  0  0  0  0  0  0
   21.0759   71.5835   -1.5569 O   0  0  0  0  0  0  0  0  0  0  0  0
   20.3579   70.8407   -2.5267 C   0  0  0  0  0  0  0  0  0  0  0  0
   18.4701   71.8154   -3.6492 O   0  0  0  0  0  0  0  0  0  0  0  0
   16.7703   70.3717   -1.6449 O   0  0  0  0  0  0  0  0  0  0  0  0
   16.5705   68.7800   -3.8501 O   0  0  0  0  0  0  0  0  0  0  0  0
   17.9874   69.9556   -2.2622 C   0  0  1  0  0  0  0  0  0  0  0  0
   17.7382   69.5619   -3.7032 C   0  0  2  0  0  0  0  0  0  0  0  0
   18.8782   71.1819   -2.4169 C   0  0  1  0  0  0  0  0  0  0  0  0
   17.6253   70.9151   -4.3845 C   0  0  2  0  0  0  0  0  0  0  0  0
   16.1851   69.6052   -1.5352 H   0  0  0  0  0  0  0  0  0  0  0  0
   16.6919   67.9295   -3.3999 H   0  0  0  0  0  0  0  0  0  0  0  0
   16.0208   70.0682   -6.5493 O   0  0  0  0  0  0  0  0  0  0  0  0
   19.4055   70.8135   -9.5873 O   0  0  0  0  0  0  0  0  0  0  0  0
   18.0617   70.8781   -5.7518 N   0  0  0  0  0  0  0  0  0  0  0  0
   17.7074   70.4402   -8.0603 N   0  0  0  0  0  0  0  0  0  0  0  0
   17.1780   70.4352   -6.7634 C   0  0  0  0  0  0  0  0  0  0  0  0
   19.3529   71.2783   -6.0781 C   0  0  0  0  0  0  0  0  0  0  0  0
   19.8428   71.2758   -7.3196 C   0  0  0  0  0  0  0  0  0  0  0  0
   18.9843   70.8274   -8.4349 C   0  0  0  0  0  0  0  0  0  0  0  0
   17.1100   70.1353   -8.7813 H   0  0  0  0  0  0  0  0  0  0  0  0
   22.3352   71.3578    0.6272 O   0  0  0  0  0  0  0  0  0  0  0  0
   22.9783   70.7355    1.9733 P   0  0  2  0  0  0  0  0  0  0  0  0
   23.3189   69.2112    1.5515 O   0  0  0  0  0  0  0  0  0  0  0  0
   22.1048   70.8615    3.1878 O   0  0  0  0  0  0  0  0  0  0  0  0
   24.4180   71.4526    2.1075 O   0  0  0  0  0  0  0  0  0  0  0  0
   26.6864   70.7778    2.2311 O   0  0  0  0  0  0  0  0  0  0  0  0
   26.6120   73.4249    5.3994 O   0  0  0  0  0  0  0  0  0  0  0  0
   27.9699   74.1523    2.9756 O   0  0  0  0  0  0  0  0  0  0  0  0
   24.3377   71.7047    4.9013 O   0  0  0  0  0  0  0  0  0  0  0  0
   26.2532   72.9297    4.1066 C   0  0  1  0  0  0  0  0  0  0  0  0
   27.5247   72.8293    3.2617 C   0  0  1  0  0  0  0  0  0  0  0  0
   25.6006   71.5573    4.2612 C   0  0  2  0  0  0  0  0  0  0  0  0
   27.2654   72.0595    1.9597 C   0  0  1  0  0  0  0  0  0  0  0  0
   25.4325   70.8566    2.9117 C   0  0  1  0  0  0  0  0  0  0  0  0
   27.0265   74.2963    5.3084 H   0  0  0  0  0  0  0  0  0  0  0  0
   28.1296   74.6277    3.8061 H   0  0  0  0  0  0  0  0  0  0  0  0
   24.4577   72.1492    5.7544 H   0  0  0  0  0  0  0  0  0  0  0  0
   28.8497   72.9704    0.4205 O   0  0  0  0  0  0  0  0  0  0  0  0
   28.5524   71.8108    1.1762 C   0  0  0  0  0  0  0  0  0  0  0  0
   29.6667   72.8268   -0.0831 H   0  0  0  0  0  0  0  0  0  0  0  0
 25 28  1  0
 25 24  1  0
 25 26  1  6
 25 27  2  0
  1  4  1  0
  1 24  1  0
  1  2  1  6
  1  3  2  0
  6 11  1  0
  6 12  1  0
 29 36  1  0
 29 37  1  0
  9  7  1  6
  7 13  1  0
 10  8  1  1
  8 14  1  0
 37 28  1  6
  4  5  1  0
 33 30  1  1
 30 38  1  0
 34 31  1  6
 31 39  1  0
 35 32  1  6
 32 40  1  0
 41 42  1  0
 41 43  1  0
 15 19  2  0
 16 22  2  0
 12 17  1  6
 17 19  1  0
 17 20  1  0
 18 19  1  0
 18 22  1  0
 18 23  1  0
  9 10  1  0
  9 11  1  0
 10 12  1  0
 11  5  1  6
 33 34  1  0
 33 35  1  0
 34 36  1  0
 35 37  1  0
 36 42  1  1
 20 21  2  0
 21 22  1  0
M  CHG  2   2  -1  26  -1
M  END
>  <COMPND>  (182) 
    8629 

>  <AUTHOR>  (182) 
    GENERATED BY OPEN BABEL 3.1.1

>  <MASTER>  (182) 
        0    0    0    0    0    0    0    0   58    0   58    0

>  <minimizedAffinity>  (182) 
-8.29939

>  <CNNscore>  (182) 
0.8002317548

>  <CNNaffinity>  (182) 
4.9177756310

>  <CNN_VS>  (182) 
3.9353601933

>  <CNNaffinity_variance>  (182) 
0.4069326818

$$$$
183
     RDKit          3D

 43 45  0  0  0  0  0  0  0  0999 V2000
   22.2549   70.0120    0.5048 P   0  0  2  0  0  0  0  0  0  0  0  0
   21.1548   70.3077    1.6536 O   0  0  0  0  0  0  0  0  0  0  0  0
   22.4884   68.5595    0.2097 O   0  0  0  0  0  0  0  0  0  0  0  0
   23.5534   70.8488    0.9860 O   0  0  0  0  0  0  0  0  0  0  0  0
   24.6434   70.1404    1.5499 C   0  0  0  0  0  0  0  0  0  0  0  0
   25.9949   70.1668    3.5364 O   0  0  0  0  0  0  0  0  0  0  0  0
   23.7609   71.7085    4.8103 O   0  0  0  0  0  0  0  0  0  0  0  0
   25.5658   73.6630    4.2113 O   0  0  0  0  0  0  0  0  0  0  0  0
   24.2439   71.7622    3.4691 C   0  0  1  0  0  0  0  0  0  0  0  0
   25.5683   72.4950    3.4161 C   0  0  2  0  0  0  0  0  0  0  0  0
   24.6446   70.3509    3.0578 C   0  0  1  0  0  0  0  0  0  0  0  0
   26.5330   71.4398    3.9300 C   0  0  2  0  0  0  0  0  0  0  0  0
   23.4985   72.5985    5.0952 H   0  0  0  0  0  0  0  0  0  0  0  0
   24.9368   74.3033    3.8437 H   0  0  0  0  0  0  0  0  0  0  0  0
   28.4052   73.3940    4.7387 O   0  0  0  0  0  0  0  0  0  0  0  0
   31.5492   71.8942    1.7209 O   0  0  0  0  0  0  0  0  0  0  0  0
   27.8484   71.5825    3.3728 N   0  0  0  0  0  0  0  0  0  0  0  0
   29.9692   72.6455    3.2355 N   0  0  0  0  0  0  0  0  0  0  0  0
   28.7108   72.5974    3.8489 C   0  0  0  0  0  0  0  0  0  0  0  0
   28.2717   70.7216    2.3660 C   0  0  0  0  0  0  0  0  0  0  0  0
   29.4744   70.7814    1.7906 C   0  0  0  0  0  0  0  0  0  0  0  0
   30.4357   71.8132    2.2303 C   0  0  0  0  0  0  0  0  0  0  0  0
   30.5867   73.3448    3.5508 H   0  0  0  0  0  0  0  0  0  0  0  0
   21.7113   70.8744   -0.7497 O   0  0  0  0  0  0  0  0  0  0  0  0
   20.2069   71.2429   -1.2123 P   0  0  2  0  0  0  0  0  0  0  0  0
   19.8542   72.5474   -0.3226 O   0  0  0  0  0  0  0  0  0  0  0  0
   19.2264   70.1146   -1.0728 O   0  0  0  0  0  0  0  0  0  0  0  0
   20.3685   71.8067   -2.7160 O   0  0  0  0  0  0  0  0  0  0  0  0
   20.3244   70.7867   -4.8547 O   0  0  0  0  0  0  0  0  0  0  0  0
   23.4956   73.3699   -5.4210 O   0  0  0  0  0  0  0  0  0  0  0  0
   20.9807   73.9110   -6.6978 O   0  0  0  0  0  0  0  0  0  0  0  0
   23.1612   72.0301   -2.8769 O   0  0  0  0  0  0  0  0  0  0  0  0
   22.2313   72.9540   -4.8976 C   0  0  1  0  0  0  0  0  0  0  0  0
   21.2955   72.6692   -6.0739 C   0  0  1  0  0  0  0  0  0  0  0  0
   22.4301   71.6974   -4.0522 C   0  0  2  0  0  0  0  0  0  0  0  0
   20.0142   71.9668   -5.6050 C   0  0  1  0  0  0  0  0  0  0  0  0
   21.0950   71.0497   -3.6805 C   0  0  1  0  0  0  0  0  0  0  0  0
   23.3765   74.1678   -5.9584 H   0  0  0  0  0  0  0  0  0  0  0  0
   21.7983   74.3445   -6.9888 H   0  0  0  0  0  0  0  0  0  0  0  0
   24.0043   72.4390   -3.1256 H   0  0  0  0  0  0  0  0  0  0  0  0
   19.9343   71.5074   -7.9484 O   0  0  0  0  0  0  0  0  0  0  0  0
   19.1382   71.5322   -6.7780 C   0  0  0  0  0  0  0  0  0  0  0  0
   19.3900   71.2322   -8.7032 H   0  0  0  0  0  0  0  0  0  0  0  0
 25 28  1  0
 25 24  1  0
 25 26  1  1
 25 27  2  0
  1  4  1  0
  1 24  1  0
  1  2  1  1
  1  3  2  0
  6 11  1  0
  6 12  1  0
 29 36  1  0
 29 37  1  0
  9  7  1  1
  7 13  1  0
 10  8  1  1
  8 14  1  0
 37 28  1  1
  4  5  1  0
 33 30  1  6
 30 38  1  0
 34 31  1  1
 31 39  1  0
 35 32  1  1
 32 40  1  0
 41 42  1  0
 41 43  1  0
 15 19  2  0
 16 22  2  0
 12 17  1  6
 17 19  1  0
 17 20  1  0
 18 19  1  0
 18 22  1  0
 18 23  1  0
  9 10  1  0
  9 11  1  0
 10 12  1  0
 11  5  1  6
 33 34  1  0
 33 35  1  0
 34 36  1  0
 35 37  1  0
 36 42  1  6
 20 21  2  0
 21 22  1  0
M  CHG  2   2  -1  26  -1
M  END
>  <COMPND>  (183) 
    8629 

>  <AUTHOR>  (183) 
    GENERATED BY OPEN BABEL 3.1.1

>  <MASTER>  (183) 
        0    0    0    0    0    0    0    0   58    0   58    0

>  <minimizedAffinity>  (183) 
-7.98761

>  <CNNscore>  (183) 
0.7799852490

>  <CNNaffinity>  (183) 
4.7878403664

>  <CNN_VS>  (183) 
3.7344448566

>  <CNNaffinity_variance>  (183) 
0.2380762547

$$$$
184
     RDKit          3D

 43 45  0  0  0  0  0  0  0  0999 V2000
   20.7849   70.6962    0.2969 P   0  0  2  0  0  0  0  0  0  0  0  0
   19.8369   71.4915    1.3391 O   0  0  0  0  0  0  0  0  0  0  0  0
   20.9610   69.2349    0.5884 O   0  0  0  0  0  0  0  0  0  0  0  0
   22.1436   71.5741    0.2600 O   0  0  0  0  0  0  0  0  0  0  0  0
   22.5764   72.2007    1.4549 C   0  0  0  0  0  0  0  0  0  0  0  0
   24.3017   70.6393    2.0542 O   0  0  0  0  0  0  0  0  0  0  0  0
   23.0279   70.5601    4.7675 O   0  0  0  0  0  0  0  0  0  0  0  0
   25.1529   72.2243    5.1568 O   0  0  0  0  0  0  0  0  0  0  0  0
   23.1695   71.6592    3.8691 C   0  0  1  0  0  0  0  0  0  0  0  0
   24.6031   72.1474    3.8574 C   0  0  2  0  0  0  0  0  0  0  0  0
   23.0022   71.1300    2.4501 C   0  0  1  0  0  0  0  0  0  0  0  0
   25.2858   71.0996    2.9947 C   0  0  2  0  0  0  0  0  0  0  0  0
   23.1306   70.8735    5.6803 H   0  0  0  0  0  0  0  0  0  0  0  0
   24.6853   72.9044    5.6662 H   0  0  0  0  0  0  0  0  0  0  0  0
   25.4569   73.7511    2.0363 O   0  0  0  0  0  0  0  0  0  0  0  0
   29.6382   73.0256    0.2386 O   0  0  0  0  0  0  0  0  0  0  0  0
   26.4078   71.6305    2.2733 N   0  0  0  0  0  0  0  0  0  0  0  0
   27.5388   73.3877    1.1421 N   0  0  0  0  0  0  0  0  0  0  0  0
   26.3936   72.9753    1.8352 C   0  0  0  0  0  0  0  0  0  0  0  0
   27.5066   70.8207    2.0072 C   0  0  0  0  0  0  0  0  0  0  0  0
   28.5904   71.2289    1.3439 C   0  0  0  0  0  0  0  0  0  0  0  0
   28.6556   72.6202    0.8518 C   0  0  0  0  0  0  0  0  0  0  0  0
   27.5512   74.3207    0.8270 H   0  0  0  0  0  0  0  0  0  0  0  0
   20.1044   71.0197   -1.1332 O   0  0  0  0  0  0  0  0  0  0  0  0
   20.7551   71.2006   -2.6018 P   0  0  2  0  0  0  0  0  0  0  0  0
   21.7718   69.9471   -2.7141 O   0  0  0  0  0  0  0  0  0  0  0  0
   21.3949   72.5393   -2.8307 O   0  0  0  0  0  0  0  0  0  0  0  0
   19.5581   70.8475   -3.6253 O   0  0  0  0  0  0  0  0  0  0  0  0
   17.7032   72.1630   -4.2926 O   0  0  0  0  0  0  0  0  0  0  0  0
   15.9032   68.4468   -4.2719 O   0  0  0  0  0  0  0  0  0  0  0  0
   16.4793   69.7293   -6.7762 O   0  0  0  0  0  0  0  0  0  0  0  0
   17.8381   69.1254   -2.2285 O   0  0  0  0  0  0  0  0  0  0  0  0
   16.9748   69.3745   -4.4633 C   0  0  1  0  0  0  0  0  0  0  0  0
   16.5428   70.3951   -5.5180 C   0  0  1  0  0  0  0  0  0  0  0  0
   17.2776   70.0679   -3.1363 C   0  0  2  0  0  0  0  0  0  0  0  0
   17.5255   71.5719   -5.5852 C   0  0  1  0  0  0  0  0  0  0  0  0
   18.2260   71.2537   -3.3223 C   0  0  1  0  0  0  0  0  0  0  0  0
   15.7063   68.0027   -5.1107 H   0  0  0  0  0  0  0  0  0  0  0  0
   15.8558   68.9882   -6.7200 H   0  0  0  0  0  0  0  0  0  0  0  0
   17.2281   68.3799   -2.1191 H   0  0  0  0  0  0  0  0  0  0  0  0
   17.3498   72.3167   -7.8487 O   0  0  0  0  0  0  0  0  0  0  0  0
   17.0320   72.6767   -6.5169 C   0  0  0  0  0  0  0  0  0  0  0  0
   17.0413   73.0106   -8.4529 H   0  0  0  0  0  0  0  0  0  0  0  0
 25 28  1  0
 25 24  1  0
 25 26  1  1
 25 27  2  0
  1  4  1  0
  1 24  1  0
  1  2  1  1
  1  3  2  0
  6 11  1  0
  6 12  1  0
 29 36  1  0
 29 37  1  0
  9  7  1  1
  7 13  1  0
 10  8  1  1
  8 14  1  0
 37 28  1  6
  4  5  1  0
 33 30  1  1
 30 38  1  0
 34 31  1  6
 31 39  1  0
 35 32  1  1
 32 40  1  0
 41 42  1  0
 41 43  1  0
 15 19  2  0
 16 22  2  0
 12 17  1  6
 17 19  1  0
 17 20  1  0
 18 19  1  0
 18 22  1  0
 18 23  1  0
  9 10  1  0
  9 11  1  0
 10 12  1  0
 11  5  1  6
 33 34  1  0
 33 35  1  0
 34 36  1  0
 35 37  1  0
 36 42  1  6
 20 21  2  0
 21 22  1  0
M  CHG  2   2  -1  26  -1
M  END
>  <COMPND>  (184) 
    8629 

>  <AUTHOR>  (184) 
    GENERATED BY OPEN BABEL 3.1.1

>  <MASTER>  (184) 
        0    0    0    0    0    0    0    0   58    0   58    0

>  <minimizedAffinity>  (184) 
-8.57817

>  <CNNscore>  (184) 
0.7631885409

>  <CNNaffinity>  (184) 
4.5896425247

>  <CNN_VS>  (184) 
3.5027625561

>  <CNNaffinity_variance>  (184) 
0.1153460965

$$$$
185
     RDKit          3D

 43 45  0  0  0  0  0  0  0  0999 V2000
   20.2891   70.9348   -0.4551 P   0  0  2  0  0  0  0  0  0  0  0  0
   18.8853   70.7784    0.3338 O   0  0  0  0  0  0  0  0  0  0  0  0
   20.9483   72.2755   -0.3158 O   0  0  0  0  0  0  0  0  0  0  0  0
   19.9379   70.4782   -1.9671 O   0  0  0  0  0  0  0  0  0  0  0  0
   19.7155   71.4820   -2.9421 C   0  0  0  0  0  0  0  0  0  0  0  0
   17.9484   72.1871   -4.4097 O   0  0  0  0  0  0  0  0  0  0  0  0
   16.0719   70.8668   -2.4793 O   0  0  0  0  0  0  0  0  0  0  0  0
   16.2611   69.0231   -4.4797 O   0  0  0  0  0  0  0  0  0  0  0  0
   17.3824   70.4691   -2.8787 C   0  0  1  0  0  0  0  0  0  0  0  0
   17.3539   69.8966   -4.2805 C   0  0  2  0  0  0  0  0  0  0  0  0
   18.2183   71.7290   -3.0667 C   0  0  1  0  0  0  0  0  0  0  0  0
   17.2617   71.1517   -5.1316 C   0  0  2  0  0  0  0  0  0  0  0  0
   15.5195   70.0789   -2.3528 H   0  0  0  0  0  0  0  0  0  0  0  0
   16.3659   68.2404   -3.9165 H   0  0  0  0  0  0  0  0  0  0  0  0
   15.9180   70.2616   -7.4511 O   0  0  0  0  0  0  0  0  0  0  0  0
   19.7426   70.5640  -10.0050 O   0  0  0  0  0  0  0  0  0  0  0  0
   17.8819   70.9890   -6.4163 N   0  0  0  0  0  0  0  0  0  0  0  0
   17.8234   70.4131   -8.7209 N   0  0  0  0  0  0  0  0  0  0  0  0
   17.1182   70.5351   -7.5168 C   0  0  0  0  0  0  0  0  0  0  0  0
   19.2327   71.2787   -6.5753 C   0  0  0  0  0  0  0  0  0  0  0  0
   19.8906   71.1559   -7.7300 C   0  0  0  0  0  0  0  0  0  0  0  0
   19.1659   70.6874   -8.9289 C   0  0  0  0  0  0  0  0  0  0  0  0
   17.3119   70.0981   -9.5012 H   0  0  0  0  0  0  0  0  0  0  0  0
   21.1613   69.6947    0.1056 O   0  0  0  0  0  0  0  0  0  0  0  0
   22.7042   69.2830   -0.1448 P   0  0  2  0  0  0  0  0  0  0  0  0
   23.0140   69.8817   -1.6156 O   0  0  0  0  0  0  0  0  0  0  0  0
   22.9798   67.8140   -0.0036 O   0  0  0  0  0  0  0  0  0  0  0  0
   23.5462   70.2214    0.8629 O   0  0  0  0  0  0  0  0  0  0  0  0
   24.9782   69.6064    2.6484 O   0  0  0  0  0  0  0  0  0  0  0  0
   23.3506   73.0416    4.2612 O   0  0  0  0  0  0  0  0  0  0  0  0
   26.0776   73.0521    3.3603 O   0  0  0  0  0  0  0  0  0  0  0  0
   21.6934   71.2535    2.7005 O   0  0  0  0  0  0  0  0  0  0  0  0
   23.8468   72.2014    3.2156 C   0  0  1  0  0  0  0  0  0  0  0  0
   25.3072   71.8646    3.5234 C   0  0  1  0  0  0  0  0  0  0  0  0
   23.0031   70.9295    3.1545 C   0  0  2  0  0  0  0  0  0  0  0  0
   25.8279   70.7583    2.5959 C   0  0  1  0  0  0  0  0  0  0  0  0
   23.6348   69.8759    2.2428 C   0  0  1  0  0  0  0  0  0  0  0  0
   23.8817   73.8512    4.3050 H   0  0  0  0  0  0  0  0  0  0  0  0
   25.7382   73.7428    3.9510 H   0  0  0  0  0  0  0  0  0  0  0  0
   21.3042   71.9210    3.2860 H   0  0  0  0  0  0  0  0  0  0  0  0
   27.6244   70.9965    4.1531 O   0  0  0  0  0  0  0  0  0  0  0  0
   27.2299   70.2966    2.9875 C   0  0  0  0  0  0  0  0  0  0  0  0
   28.5148   70.7126    4.4142 H   0  0  0  0  0  0  0  0  0  0  0  0
 25 28  1  0
 25 24  1  0
 25 26  1  6
 25 27  2  0
  1  4  1  0
  1 24  1  0
  1  2  1  1
  1  3  2  0
  6 11  1  0
  6 12  1  0
 29 36  1  0
 29 37  1  0
  9  7  1  6
  7 13  1  0
 10  8  1  1
  8 14  1  0
 37 28  1  6
  4  5  1  0
 33 30  1  1
 30 38  1  0
 34 31  1  6
 31 39  1  0
 35 32  1  6
 32 40  1  0
 41 42  1  0
 41 43  1  0
 15 19  2  0
 16 22  2  0
 12 17  1  6
 17 19  1  0
 17 20  1  0
 18 19  1  0
 18 22  1  0
 18 23  1  0
  9 10  1  0
  9 11  1  0
 10 12  1  0
 11  5  1  6
 33 34  1  0
 33 35  1  0
 34 36  1  0
 35 37  1  0
 36 42  1  1
 20 21  2  0
 21 22  1  0
M  CHG  2   2  -1  26  -1
M  END
>  <COMPND>  (185) 
    8629 

>  <AUTHOR>  (185) 
    GENERATED BY OPEN BABEL 3.1.1

>  <MASTER>  (185) 
        0    0    0    0    0    0    0    0   58    0   58    0

>  <minimizedAffinity>  (185) 
-8.80267

>  <CNNscore>  (185) 
0.7563469410

>  <CNNaffinity>  (185) 
4.8725309372

>  <CNN_VS>  (185) 
3.6853239536

>  <CNNaffinity_variance>  (185) 
0.4041641653

$$$$
186
     RDKit          3D

 43 45  0  0  0  0  0  0  0  0999 V2000
   20.8092   70.3704    0.0543 P   0  0  2  0  0  0  0  0  0  0  0  0
   19.2406   70.7664    0.0664 O   0  0  0  0  0  0  0  0  0  0  0  0
   21.1309   69.0372    0.6630 O   0  0  0  0  0  0  0  0  0  0  0  0
   21.5372   71.6464    0.7321 O   0  0  0  0  0  0  0  0  0  0  0  0
   22.7807   71.4490    1.3821 C   0  0  0  0  0  0  0  0  0  0  0  0
   23.6925   70.7664    3.4979 O   0  0  0  0  0  0  0  0  0  0  0  0
   21.7413   72.6731    4.7421 O   0  0  0  0  0  0  0  0  0  0  0  0
   24.0743   74.0836    4.8067 O   0  0  0  0  0  0  0  0  0  0  0  0
   22.4655   72.7936    3.5188 C   0  0  1  0  0  0  0  0  0  0  0  0
   23.9208   73.1062    3.7979 C   0  0  2  0  0  0  0  0  0  0  0  0
   22.5528   71.4100    2.8870 C   0  0  1  0  0  0  0  0  0  0  0  0
   24.4609   71.7481    4.2126 C   0  0  2  0  0  0  0  0  0  0  0  0
   21.6723   73.5444    5.1640 H   0  0  0  0  0  0  0  0  0  0  0  0
   23.7159   74.9293    4.4950 H   0  0  0  0  0  0  0  0  0  0  0  0
   26.6008   72.6799    5.8033 O   0  0  0  0  0  0  0  0  0  0  0  0
   29.7438   71.0710    2.8412 O   0  0  0  0  0  0  0  0  0  0  0  0
   25.8484   71.5860    3.8812 N   0  0  0  0  0  0  0  0  0  0  0  0
   28.1641   71.8779    4.3272 N   0  0  0  0  0  0  0  0  0  0  0  0
   26.8452   72.0918    4.7478 C   0  0  0  0  0  0  0  0  0  0  0  0
   26.2089   70.9313    2.7085 C   0  0  0  0  0  0  0  0  0  0  0  0
   27.4711   70.7366    2.3211 C   0  0  0  0  0  0  0  0  0  0  0  0
   28.5729   71.2342    3.1699 C   0  0  0  0  0  0  0  0  0  0  0  0
   28.8754   72.2220    4.9149 H   0  0  0  0  0  0  0  0  0  0  0  0
   21.2075   70.5112   -1.5060 O   0  0  0  0  0  0  0  0  0  0  0  0
   20.7209   71.5604   -2.6353 P   0  0  2  0  0  0  0  0  0  0  0  0
   21.9479   71.5661   -3.6898 O   0  0  0  0  0  0  0  0  0  0  0  0
   20.3575   72.9154   -2.1007 O   0  0  0  0  0  0  0  0  0  0  0  0
   19.5231   70.8028   -3.4077 O   0  0  0  0  0  0  0  0  0  0  0  0
   17.7294   72.1205   -4.2217 O   0  0  0  0  0  0  0  0  0  0  0  0
   15.9071   68.4156   -4.2827 O   0  0  0  0  0  0  0  0  0  0  0  0
   16.6684   69.6622   -6.7554 O   0  0  0  0  0  0  0  0  0  0  0  0
   17.6964   69.1092   -2.1155 O   0  0  0  0  0  0  0  0  0  0  0  0
   16.9958   69.3344   -4.4089 C   0  0  1  0  0  0  0  0  0  0  0  0
   16.6469   70.3438   -5.5044 C   0  0  1  0  0  0  0  0  0  0  0  0
   17.2083   70.0431   -3.0726 C   0  0  2  0  0  0  0  0  0  0  0  0
   17.6399   71.5138   -5.5162 C   0  0  1  0  0  0  0  0  0  0  0  0
   18.1757   71.2207   -3.2053 C   0  0  1  0  0  0  0  0  0  0  0  0
   15.7672   67.9619   -5.1277 H   0  0  0  0  0  0  0  0  0  0  0  0
   16.0375   68.9255   -6.7346 H   0  0  0  0  0  0  0  0  0  0  0  0
   17.0751   68.3688   -2.0404 H   0  0  0  0  0  0  0  0  0  0  0  0
   17.4172   72.1331   -7.8131 O   0  0  0  0  0  0  0  0  0  0  0  0
   17.2214   72.6093   -6.4943 C   0  0  0  0  0  0  0  0  0  0  0  0
   17.1546   72.8198   -8.4465 H   0  0  0  0  0  0  0  0  0  0  0  0
 25 28  1  0
 25 24  1  0
 25 26  1  6
 25 27  2  0
  1  4  1  0
  1 24  1  0
  1  2  1  6
  1  3  2  0
  6 11  1  0
  6 12  1  0
 29 36  1  0
 29 37  1  0
  9  7  1  1
  7 13  1  0
 10  8  1  1
  8 14  1  0
 37 28  1  6
  4  5  1  0
 33 30  1  1
 30 38  1  0
 34 31  1  6
 31 39  1  0
 35 32  1  1
 32 40  1  0
 41 42  1  0
 41 43  1  0
 15 19  2  0
 16 22  2  0
 12 17  1  6
 17 19  1  0
 17 20  1  0
 18 19  1  0
 18 22  1  0
 18 23  1  0
  9 10  1  0
  9 11  1  0
 10 12  1  0
 11  5  1  6
 33 34  1  0
 33 35  1  0
 34 36  1  0
 35 37  1  0
 36 42  1  6
 20 21  2  0
 21 22  1  0
M  CHG  2   2  -1  26  -1
M  END
>  <COMPND>  (186) 
    8629 

>  <AUTHOR>  (186) 
    GENERATED BY OPEN BABEL 3.1.1

>  <MASTER>  (186) 
        0    0    0    0    0    0    0    0   58    0   58    0

>  <minimizedAffinity>  (186) 
-8.61511

>  <CNNscore>  (186) 
0.7523455024

>  <CNNaffinity>  (186) 
4.6371722221

>  <CNN_VS>  (186) 
3.4887557030

>  <CNNaffinity_variance>  (186) 
0.1162237972

$$$$
187
     RDKit          3D

 43 45  0  0  0  0  0  0  0  0999 V2000
   22.2410   69.8466    0.7708 P   0  0  2  0  0  0  0  0  0  0  0  0
   22.0016   71.3424    1.3391 O   0  0  0  0  0  0  0  0  0  0  0  0
   21.0227   68.9707    0.7589 O   0  0  0  0  0  0  0  0  0  0  0  0
   23.4926   69.2977    1.6368 O   0  0  0  0  0  0  0  0  0  0  0  0
   24.6133   70.1457    1.8178 C   0  0  0  0  0  0  0  0  0  0  0  0
   26.3229   70.1650    3.5062 O   0  0  0  0  0  0  0  0  0  0  0  0
   24.2972   71.4885    5.2770 O   0  0  0  0  0  0  0  0  0  0  0  0
   25.8375   73.5869    4.4640 O   0  0  0  0  0  0  0  0  0  0  0  0
   24.5054   71.6405    3.8738 C   0  0  1  0  0  0  0  0  0  0  0  0
   25.7505   72.4623    3.6129 C   0  0  2  0  0  0  0  0  0  0  0  0
   24.8969   70.2813    3.3076 C   0  0  1  0  0  0  0  0  0  0  0  0
   26.8548   71.4502    3.8667 C   0  0  2  0  0  0  0  0  0  0  0  0
   24.0458   72.3437    5.6609 H   0  0  0  0  0  0  0  0  0  0  0  0
   25.1139   74.2009    4.2638 H   0  0  0  0  0  0  0  0  0  0  0  0
   28.8124   73.3850    4.5011 O   0  0  0  0  0  0  0  0  0  0  0  0
   31.3057   72.3538    0.7647 O   0  0  0  0  0  0  0  0  0  0  0  0
   28.0261   71.7082    3.0774 N   0  0  0  0  0  0  0  0  0  0  0  0
   30.0524   72.8699    2.6402 N   0  0  0  0  0  0  0  0  0  0  0  0
   28.9465   72.7024    3.4835 C   0  0  0  0  0  0  0  0  0  0  0  0
   28.2528   70.9792    1.9151 C   0  0  0  0  0  0  0  0  0  0  0  0
   29.3117   71.1520    1.1212 C   0  0  0  0  0  0  0  0  0  0  0  0
   30.3212   72.1710    1.4741 C   0  0  0  0  0  0  0  0  0  0  0  0
   30.7068   73.5572    2.9030 H   0  0  0  0  0  0  0  0  0  0  0  0
   22.8939   70.1108   -0.6842 O   0  0  0  0  0  0  0  0  0  0  0  0
   22.3585   70.9631   -1.9490 P   0  0  2  0  0  0  0  0  0  0  0  0
   22.9862   70.1788   -3.2173 O   0  0  0  0  0  0  0  0  0  0  0  0
   22.6984   72.4244   -1.8946 O   0  0  0  0  0  0  0  0  0  0  0  0
   20.7774   70.6461   -2.0155 O   0  0  0  0  0  0  0  0  0  0  0  0
   19.3855   72.0768   -3.2932 O   0  0  0  0  0  0  0  0  0  0  0  0
   16.5136   70.3347   -0.8915 O   0  0  0  0  0  0  0  0  0  0  0  0
   16.6712   69.6106   -3.6661 O   0  0  0  0  0  0  0  0  0  0  0  0
   19.1059   71.0027    0.2102 O   0  0  0  0  0  0  0  0  0  0  0  0
   17.7203   70.3771   -1.6580 C   0  0  1  0  0  0  0  0  0  0  0  0
   17.3584   70.7247   -3.1033 C   0  0  1  0  0  0  0  0  0  0  0  0
   18.6501   71.4353   -1.0671 C   0  0  2  0  0  0  0  0  0  0  0  0
   18.6126   71.0499   -3.9256 C   0  0  1  0  0  0  0  0  0  0  0  0
   19.8395   71.7188   -1.9864 C   0  0  1  0  0  0  0  0  0  0  0  0
   15.9190   69.6644   -1.2611 H   0  0  0  0  0  0  0  0  0  0  0  0
   15.8816   69.4154   -3.1373 H   0  0  0  0  0  0  0  0  0  0  0  0
   18.3436   70.8268    0.7828 H   0  0  0  0  0  0  0  0  0  0  0  0
   17.8635   70.4454   -6.1124 O   0  0  0  0  0  0  0  0  0  0  0  0
   18.2646   71.5517   -5.3253 C   0  0  0  0  0  0  0  0  0  0  0  0
   17.6387   70.7497   -7.0060 H   0  0  0  0  0  0  0  0  0  0  0  0
 25 28  1  0
 25 24  1  0
 25 26  1  6
 25 27  2  0
  1  4  1  0
  1 24  1  0
  1  2  1  1
  1  3  2  0
  6 11  1  0
  6 12  1  0
 29 36  1  0
 29 37  1  0
  9  7  1  1
  7 13  1  0
 10  8  1  1
  8 14  1  0
 37 28  1  6
  4  5  1  0
 33 30  1  1
 30 38  1  0
 34 31  1  6
 31 39  1  0
 35 32  1  1
 32 40  1  0
 41 42  1  0
 41 43  1  0
 15 19  2  0
 16 22  2  0
 12 17  1  6
 17 19  1  0
 17 20  1  0
 18 19  1  0
 18 22  1  0
 18 23  1  0
  9 10  1  0
  9 11  1  0
 10 12  1  0
 11  5  1  6
 33 34  1  0
 33 35  1  0
 34 36  1  0
 35 37  1  0
 36 42  1  6
 20 21  2  0
 21 22  1  0
M  CHG  2   2  -1  26  -1
M  END
>  <COMPND>  (187) 
    8629 

>  <AUTHOR>  (187) 
    GENERATED BY OPEN BABEL 3.1.1

>  <MASTER>  (187) 
        0    0    0    0    0    0    0    0   58    0   58    0

>  <minimizedAffinity>  (187) 
-8.16874

>  <CNNscore>  (187) 
0.7383463383

>  <CNNaffinity>  (187) 
4.7551078796

>  <CNN_VS>  (187) 
3.5109164715

>  <CNNaffinity_variance>  (187) 
0.0345564559

$$$$
188
     RDKit          3D

 43 45  0  0  0  0  0  0  0  0999 V2000
   21.1984   70.5236    0.6293 P   0  0  2  0  0  0  0  0  0  0  0  0
   20.2526   71.2814    1.7009 O   0  0  0  0  0  0  0  0  0  0  0  0
   21.0893   69.0271    0.6345 O   0  0  0  0  0  0  0  0  0  0  0  0
   22.6731   71.1216    0.9216 O   0  0  0  0  0  0  0  0  0  0  0  0
   23.5833   70.3385    1.6739 C   0  0  0  0  0  0  0  0  0  0  0  0
   24.5929   70.3117    3.8543 O   0  0  0  0  0  0  0  0  0  0  0  0
   22.3597   72.1227    4.7051 O   0  0  0  0  0  0  0  0  0  0  0  0
   24.4349   73.8585    4.3624 O   0  0  0  0  0  0  0  0  0  0  0  0
   23.0552   72.0712    3.4605 C   0  0  1  0  0  0  0  0  0  0  0  0
   24.4411   72.6639    3.6077 C   0  0  2  0  0  0  0  0  0  0  0  0
   23.3644   70.6108    3.1559 C   0  0  1  0  0  0  0  0  0  0  0  0
   25.1928   71.5392    4.2992 C   0  0  2  0  0  0  0  0  0  0  0  0
   22.1511   73.0457    4.9208 H   0  0  0  0  0  0  0  0  0  0  0  0
   23.9450   74.5430    3.8806 H   0  0  0  0  0  0  0  0  0  0  0  0
   27.1278   73.2502    5.4422 O   0  0  0  0  0  0  0  0  0  0  0  0
   30.5175   71.3967    2.9292 O   0  0  0  0  0  0  0  0  0  0  0  0
   26.5884   71.5251    3.9623 N   0  0  0  0  0  0  0  0  0  0  0  0
   28.8141   72.3258    4.1901 N   0  0  0  0  0  0  0  0  0  0  0  0
   27.4766   72.4267    4.5937 C   0  0  0  0  0  0  0  0  0  0  0  0
   27.0637   70.6241    3.0156 C   0  0  0  0  0  0  0  0  0  0  0  0
   28.3419   70.5414    2.6408 C   0  0  0  0  0  0  0  0  0  0  0  0
   29.3349   71.4480    3.2526 C   0  0  0  0  0  0  0  0  0  0  0  0
   29.4509   72.9443    4.6163 H   0  0  0  0  0  0  0  0  0  0  0  0
   20.7938   71.2227   -0.7709 O   0  0  0  0  0  0  0  0  0  0  0  0
   21.3271   70.9713   -2.2760 P   0  0  2  0  0  0  0  0  0  0  0  0
   22.2532   69.6532   -2.1262 O   0  0  0  0  0  0  0  0  0  0  0  0
   22.0247   72.1521   -2.8869 O   0  0  0  0  0  0  0  0  0  0  0  0
   20.0284   70.4666   -3.0907 O   0  0  0  0  0  0  0  0  0  0  0  0
   18.5962   72.1723   -3.9007 O   0  0  0  0  0  0  0  0  0  0  0  0
   16.0636   68.9362   -4.3065 O   0  0  0  0  0  0  0  0  0  0  0  0
   17.2174   70.1360   -6.6469 O   0  0  0  0  0  0  0  0  0  0  0  0
   17.8169   69.1186   -2.0104 O   0  0  0  0  0  0  0  0  0  0  0  0
   17.3227   69.6144   -4.3150 C   0  0  1  0  0  0  0  0  0  0  0  0
   17.2568   70.7350   -5.3546 C   0  0  1  0  0  0  0  0  0  0  0  0
   17.5909   70.1864   -2.9242 C   0  0  2  0  0  0  0  0  0  0  0  0
   18.4664   71.6720   -5.2366 C   0  0  1  0  0  0  0  0  0  0  0  0
   18.7846   71.1431   -2.9275 C   0  0  1  0  0  0  0  0  0  0  0  0
   15.8875   68.5702   -5.1866 H   0  0  0  0  0  0  0  0  0  0  0  0
   16.4493   69.5465   -6.7080 H   0  0  0  0  0  0  0  0  0  0  0  0
   17.0541   68.5203   -2.0173 H   0  0  0  0  0  0  0  0  0  0  0  0
   18.7497   72.5040   -7.4584 O   0  0  0  0  0  0  0  0  0  0  0  0
   18.3427   72.8844   -6.1569 C   0  0  0  0  0  0  0  0  0  0  0  0
   18.6759   73.2657   -8.0551 H   0  0  0  0  0  0  0  0  0  0  0  0
 25 28  1  0
 25 24  1  0
 25 26  1  1
 25 27  2  0
  1  4  1  0
  1 24  1  0
  1  2  1  1
  1  3  2  0
  6 11  1  0
  6 12  1  0
 29 36  1  0
 29 37  1  0
  9  7  1  1
  7 13  1  0
 10  8  1  1
  8 14  1  0
 37 28  1  6
  4  5  1  0
 33 30  1  1
 30 38  1  0
 34 31  1  6
 31 39  1  0
 35 32  1  1
 32 40  1  0
 41 42  1  0
 41 43  1  0
 15 19  2  0
 16 22  2  0
 12 17  1  6
 17 19  1  0
 17 20  1  0
 18 19  1  0
 18 22  1  0
 18 23  1  0
  9 10  1  0
  9 11  1  0
 10 12  1  0
 11  5  1  6
 33 34  1  0
 33 35  1  0
 34 36  1  0
 35 37  1  0
 36 42  1  6
 20 21  2  0
 21 22  1  0
M  CHG  2   2  -1  26  -1
M  END
>  <COMPND>  (188) 
    8629 

>  <AUTHOR>  (188) 
    GENERATED BY OPEN BABEL 3.1.1

>  <MASTER>  (188) 
        0    0    0    0    0    0    0    0   58    0   58    0

>  <minimizedAffinity>  (188) 
-9.37862

>  <CNNscore>  (188) 
0.7298946381

>  <CNNaffinity>  (188) 
4.6648187637

>  <CNN_VS>  (188) 
3.4048261642

>  <CNNaffinity_variance>  (188) 
0.1736991704

$$$$
189
     RDKit          3D

 43 45  0  0  0  0  0  0  0  0999 V2000
   21.1507   70.5199    0.2110 P   0  0  2  0  0  0  0  0  0  0  0  0
   21.0831   69.0100    0.7880 O   0  0  0  0  0  0  0  0  0  0  0  0
   21.2123   70.6247   -1.2845 O   0  0  0  0  0  0  0  0  0  0  0  0
   22.3870   71.1874    1.0136 O   0  0  0  0  0  0  0  0  0  0  0  0
   23.1856   70.3562    1.8378 C   0  0  0  0  0  0  0  0  0  0  0  0
   24.2011   70.4699    4.0125 O   0  0  0  0  0  0  0  0  0  0  0  0
   22.0438   72.4317    4.7114 O   0  0  0  0  0  0  0  0  0  0  0  0
   24.1843   74.0500    4.2255 O   0  0  0  0  0  0  0  0  0  0  0  0
   22.7322   72.2501    3.4750 C   0  0  1  0  0  0  0  0  0  0  0  0
   24.1408   72.7978    3.5722 C   0  0  2  0  0  0  0  0  0  0  0  0
   22.9828   70.7585    3.2922 C   0  0  1  0  0  0  0  0  0  0  0  0
   24.8504   71.7055    4.3541 C   0  0  2  0  0  0  0  0  0  0  0  0
   21.8723   73.3768    4.8500 H   0  0  0  0  0  0  0  0  0  0  0  0
   23.7198   74.7112    3.6890 H   0  0  0  0  0  0  0  0  0  0  0  0
   26.8837   73.2889    5.5101 O   0  0  0  0  0  0  0  0  0  0  0  0
   30.1589   71.2478    2.9906 O   0  0  0  0  0  0  0  0  0  0  0  0
   26.2431   71.6086    4.0190 N   0  0  0  0  0  0  0  0  0  0  0  0
   28.5129   72.2712    4.2548 N   0  0  0  0  0  0  0  0  0  0  0  0
   27.1833   72.4508    4.6572 C   0  0  0  0  0  0  0  0  0  0  0  0
   26.6644   70.6860    3.0676 C   0  0  0  0  0  0  0  0  0  0  0  0
   27.9359   70.5281    2.6941 C   0  0  0  0  0  0  0  0  0  0  0  0
   28.9810   71.3690    3.3127 C   0  0  0  0  0  0  0  0  0  0  0  0
   29.1854   72.8473    4.6856 H   0  0  0  0  0  0  0  0  0  0  0  0
   19.8595   71.2237    0.8821 O   0  0  0  0  0  0  0  0  0  0  0  0
   19.1518   72.6464    0.5853 P   0  0  2  0  0  0  0  0  0  0  0  0
   20.3526   73.5361   -0.0344 O   0  0  0  0  0  0  0  0  0  0  0  0
   18.4789   73.2599    1.7790 O   0  0  0  0  0  0  0  0  0  0  0  0
   18.1694   72.3613   -0.6631 O   0  0  0  0  0  0  0  0  0  0  0  0
   15.8198   72.0579   -0.5998 O   0  0  0  0  0  0  0  0  0  0  0  0
   16.7181   69.5903   -3.7865 O   0  0  0  0  0  0  0  0  0  0  0  0
   15.4065   72.1005   -4.2626 O   0  0  0  0  0  0  0  0  0  0  0  0
   18.4930   69.7032   -1.5025 O   0  0  0  0  0  0  0  0  0  0  0  0
   16.8648   70.7374   -2.9450 C   0  0  1  0  0  0  0  0  0  0  0  0
   15.5510   71.5210   -2.9690 C   0  0  1  0  0  0  0  0  0  0  0  0
   17.1903   70.2767   -1.5254 C   0  0  2  0  0  0  0  0  0  0  0  0
   15.5370   72.6122   -1.8900 C   0  0  1  0  0  0  0  0  0  0  0  0
   17.1006   71.4290   -0.5232 C   0  0  1  0  0  0  0  0  0  0  0  0
   16.5118   69.8759   -4.6895 H   0  0  0  0  0  0  0  0  0  0  0  0
   15.4174   71.4010   -4.9347 H   0  0  0  0  0  0  0  0  0  0  0  0
   18.5367   68.9749   -2.1409 H   0  0  0  0  0  0  0  0  0  0  0  0
   13.2171   72.4969   -2.4500 O   0  0  0  0  0  0  0  0  0  0  0  0
   14.1778   73.3014   -1.7912 C   0  0  0  0  0  0  0  0  0  0  0  0
   12.3470   72.9230   -2.3949 H   0  0  0  0  0  0  0  0  0  0  0  0
 25 28  1  0
 25 24  1  0
 25 26  1  6
 25 27  2  0
  1  4  1  0
  1 24  1  0
  1  2  1  6
  1  3  2  0
  6 11  1  0
  6 12  1  0
 29 36  1  0
 29 37  1  0
  9  7  1  1
  7 13  1  0
 10  8  1  1
  8 14  1  0
 37 28  1  6
  4  5  1  0
 33 30  1  6
 30 38  1  0
 34 31  1  6
 31 39  1  0
 35 32  1  6
 32 40  1  0
 41 42  1  0
 41 43  1  0
 15 19  2  0
 16 22  2  0
 12 17  1  6
 17 19  1  0
 17 20  1  0
 18 19  1  0
 18 22  1  0
 18 23  1  0
  9 10  1  0
  9 11  1  0
 10 12  1  0
 11  5  1  6
 33 34  1  0
 33 35  1  0
 34 36  1  0
 35 37  1  0
 36 42  1  1
 20 21  2  0
 21 22  1  0
M  CHG  2   2  -1  26  -1
M  END
>  <COMPND>  (189) 
    8629 

>  <AUTHOR>  (189) 
    GENERATED BY OPEN BABEL 3.1.1

>  <MASTER>  (189) 
        0    0    0    0    0    0    0    0   58    0   58    0

>  <minimizedAffinity>  (189) 
-7.92141

>  <CNNscore>  (189) 
0.6707957387

>  <CNNaffinity>  (189) 
4.3192043304

>  <CNN_VS>  (189) 
2.8973038197

>  <CNNaffinity_variance>  (189) 
0.2287181914

$$$$
190
     RDKit          3D

 43 45  0  0  0  0  0  0  0  0999 V2000
   20.8489   70.7215    0.3766 P   0  0  2  0  0  0  0  0  0  0  0  0
   19.9060   71.4501    1.4710 O   0  0  0  0  0  0  0  0  0  0  0  0
   20.9806   69.2360    0.5422 O   0  0  0  0  0  0  0  0  0  0  0  0
   22.2313   71.5603    0.4350 O   0  0  0  0  0  0  0  0  0  0  0  0
   23.3756   70.9397    0.9948 C   0  0  0  0  0  0  0  0  0  0  0  0
   24.4286   70.3389    3.0694 O   0  0  0  0  0  0  0  0  0  0  0  0
   22.2883   71.9566    4.4084 O   0  0  0  0  0  0  0  0  0  0  0  0
   24.4239   73.6521    4.4426 O   0  0  0  0  0  0  0  0  0  0  0  0
   22.9549   72.1920    3.1692 C   0  0  1  0  0  0  0  0  0  0  0  0
   24.3663   72.6825    3.4162 C   0  0  2  0  0  0  0  0  0  0  0  0
   23.1988   70.8431    2.5040 C   0  0  1  0  0  0  0  0  0  0  0  0
   25.0866   71.3968    3.7854 C   0  0  2  0  0  0  0  0  0  0  0  0
   22.1214   72.8037    4.8516 H   0  0  0  0  0  0  0  0  0  0  0  0
   23.9518   74.4508    4.1599 H   0  0  0  0  0  0  0  0  0  0  0  0
   27.1682   72.3438    5.4432 O   0  0  0  0  0  0  0  0  0  0  0  0
   30.3685   71.4379    2.2529 O   0  0  0  0  0  0  0  0  0  0  0  0
   26.4731   71.4196    3.4134 N   0  0  0  0  0  0  0  0  0  0  0  0
   28.7600   71.8918    3.8534 N   0  0  0  0  0  0  0  0  0  0  0  0
   27.4392   71.9164    4.3192 C   0  0  0  0  0  0  0  0  0  0  0  0
   26.8629   70.9527    2.1629 C   0  0  0  0  0  0  0  0  0  0  0  0
   28.1264   70.9372    1.7334 C   0  0  0  0  0  0  0  0  0  0  0  0
   29.1972   71.4388    2.6187 C   0  0  0  0  0  0  0  0  0  0  0  0
   29.4502   72.2333    4.4672 H   0  0  0  0  0  0  0  0  0  0  0  0
   20.2006   71.1869   -1.0291 O   0  0  0  0  0  0  0  0  0  0  0  0
   18.7118   70.9919   -1.6277 P   0  0  2  0  0  0  0  0  0  0  0  0
   17.8418   72.0950   -0.8252 O   0  0  0  0  0  0  0  0  0  0  0  0
   18.1844   69.5903   -1.5213 O   0  0  0  0  0  0  0  0  0  0  0  0
   18.8001   71.5607   -3.1356 O   0  0  0  0  0  0  0  0  0  0  0  0
   18.1609   70.3314   -5.0583 O   0  0  0  0  0  0  0  0  0  0  0  0
   20.9771   72.8184   -6.7713 O   0  0  0  0  0  0  0  0  0  0  0  0
   18.1894   73.2492   -7.3110 O   0  0  0  0  0  0  0  0  0  0  0  0
   21.4214   71.7437   -4.1204 O   0  0  0  0  0  0  0  0  0  0  0  0
   19.9274   72.4676   -5.8655 C   0  0  1  0  0  0  0  0  0  0  0  0
   18.6976   72.0739   -6.6860 C   0  0  1  0  0  0  0  0  0  0  0  0
   20.3889   71.3006   -4.9945 C   0  0  2  0  0  0  0  0  0  0  0  0
   17.6219   71.4327   -5.7989 C   0  0  1  0  0  0  0  0  0  0  0  0
   19.2325   70.7046   -4.1898 C   0  0  1  0  0  0  0  0  0  0  0  0
   20.6907   73.5591   -7.3270 H   0  0  0  0  0  0  0  0  0  0  0  0
   18.8786   73.6446   -7.8677 H   0  0  0  0  0  0  0  0  0  0  0  0
   22.1477   72.1185   -4.6419 H   0  0  0  0  0  0  0  0  0  0  0  0
   16.7796   70.9978   -7.9921 O   0  0  0  0  0  0  0  0  0  0  0  0
   16.4535   70.8898   -6.6187 C   0  0  0  0  0  0  0  0  0  0  0  0
   16.0451   70.6556   -8.5261 H   0  0  0  0  0  0  0  0  0  0  0  0
 25 28  1  0
 25 24  1  0
 25 26  1  1
 25 27  2  0
  1  4  1  0
  1 24  1  0
  1  2  1  1
  1  3  2  0
  6 11  1  0
  6 12  1  0
 29 36  1  0
 29 37  1  0
  9  7  1  1
  7 13  1  0
 10  8  1  1
  8 14  1  0
 37 28  1  1
  4  5  1  0
 33 30  1  6
 30 38  1  0
 34 31  1  1
 31 39  1  0
 35 32  1  1
 32 40  1  0
 41 42  1  0
 41 43  1  0
 15 19  2  0
 16 22  2  0
 12 17  1  6
 17 19  1  0
 17 20  1  0
 18 19  1  0
 18 22  1  0
 18 23  1  0
  9 10  1  0
  9 11  1  0
 10 12  1  0
 11  5  1  6
 33 34  1  0
 33 35  1  0
 34 36  1  0
 35 37  1  0
 36 42  1  6
 20 21  2  0
 21 22  1  0
M  CHG  2   2  -1  26  -1
M  END
>  <COMPND>  (190) 
    8629 

>  <AUTHOR>  (190) 
    GENERATED BY OPEN BABEL 3.1.1

>  <MASTER>  (190) 
        0    0    0    0    0    0    0    0   58    0   58    0

>  <minimizedAffinity>  (190) 
-8.75914

>  <CNNscore>  (190) 
0.6590554118

>  <CNNaffinity>  (190) 
4.5557374954

>  <CNN_VS>  (190) 
3.0024833679

>  <CNNaffinity_variance>  (190) 
0.0074832141

$$$$
191
     RDKit          3D

 43 45  0  0  0  0  0  0  0  0999 V2000
   22.1442   69.3628   -0.0708 P   0  0  2  0  0  0  0  0  0  0  0  0
   20.6018   69.6155    0.3470 O   0  0  0  0  0  0  0  0  0  0  0  0
   22.6400   67.9642    0.1515 O   0  0  0  0  0  0  0  0  0  0  0  0
   22.9534   70.5273    0.7083 O   0  0  0  0  0  0  0  0  0  0  0  0
   24.0892   70.1650    1.4742 C   0  0  0  0  0  0  0  0  0  0  0  0
   25.0003   70.1851    3.6975 O   0  0  0  0  0  0  0  0  0  0  0  0
   22.5514   71.7254    4.4857 O   0  0  0  0  0  0  0  0  0  0  0  0
   24.4419   73.6798    4.2786 O   0  0  0  0  0  0  0  0  0  0  0  0
   23.3017   71.7821    3.2736 C   0  0  1  0  0  0  0  0  0  0  0  0
   24.6085   72.5139    3.4979 C   0  0  2  0  0  0  0  0  0  0  0  0
   23.7784   70.3716    2.9503 C   0  0  1  0  0  0  0  0  0  0  0  0
   25.4456   71.4565    4.1975 C   0  0  2  0  0  0  0  0  0  0  0  0
   22.2360   72.6148    4.7125 H   0  0  0  0  0  0  0  0  0  0  0  0
   23.9028   74.3216    3.7905 H   0  0  0  0  0  0  0  0  0  0  0  0
   27.1229   73.3689    5.4253 O   0  0  0  0  0  0  0  0  0  0  0  0
   30.8100   71.9143    3.0734 O   0  0  0  0  0  0  0  0  0  0  0  0
   26.8480   71.5995    3.9250 N   0  0  0  0  0  0  0  0  0  0  0  0
   28.9575   72.6429    4.2534 N   0  0  0  0  0  0  0  0  0  0  0  0
   27.6000   72.5925    4.5951 C   0  0  0  0  0  0  0  0  0  0  0  0
   27.4638   70.7606    3.0025 C   0  0  0  0  0  0  0  0  0  0  0  0
   28.7591   70.8225    2.6870 C   0  0  0  0  0  0  0  0  0  0  0  0
   29.6155   71.8321    3.3422 C   0  0  0  0  0  0  0  0  0  0  0  0
   29.5011   73.3272    4.7074 H   0  0  0  0  0  0  0  0  0  0  0  0
   22.1895   69.8561   -1.6095 O   0  0  0  0  0  0  0  0  0  0  0  0
   21.4558   71.0914   -2.3503 P   0  0  2  0  0  0  0  0  0  0  0  0
   22.3720   71.3348   -3.6613 O   0  0  0  0  0  0  0  0  0  0  0  0
   21.2744   72.3064   -1.4873 O   0  0  0  0  0  0  0  0  0  0  0  0
   20.0823   70.4666   -2.9231 O   0  0  0  0  0  0  0  0  0  0  0  0
   18.7397   72.2216   -3.7799 O   0  0  0  0  0  0  0  0  0  0  0  0
   16.0815   69.0902   -4.2035 O   0  0  0  0  0  0  0  0  0  0  0  0
   17.3312   70.2142   -6.5322 O   0  0  0  0  0  0  0  0  0  0  0  0
   17.7948   69.2248   -1.8741 O   0  0  0  0  0  0  0  0  0  0  0  0
   17.3680   69.7149   -4.1933 C   0  0  1  0  0  0  0  0  0  0  0  0
   17.3701   70.8255   -5.2457 C   0  0  1  0  0  0  0  0  0  0  0  0
   17.6323   70.2908   -2.8034 C   0  0  2  0  0  0  0  0  0  0  0  0
   18.6156   71.7122   -5.1129 C   0  0  1  0  0  0  0  0  0  0  0  0
   18.8651   71.1964   -2.7924 C   0  0  1  0  0  0  0  0  0  0  0  0
   15.9077   68.7220   -5.0831 H   0  0  0  0  0  0  0  0  0  0  0  0
   16.5403   69.6567   -6.6029 H   0  0  0  0  0  0  0  0  0  0  0  0
   17.0078   68.6590   -1.8904 H   0  0  0  0  0  0  0  0  0  0  0  0
   18.9953   72.5107   -7.3326 O   0  0  0  0  0  0  0  0  0  0  0  0
   18.5614   72.9182   -6.0481 C   0  0  0  0  0  0  0  0  0  0  0  0
   18.9657   73.2681   -7.9385 H   0  0  0  0  0  0  0  0  0  0  0  0
 25 28  1  0
 25 24  1  0
 25 26  1  6
 25 27  2  0
  1  4  1  0
  1 24  1  0
  1  2  1  1
  1  3  2  0
  6 11  1  0
  6 12  1  0
 29 36  1  0
 29 37  1  0
  9  7  1  1
  7 13  1  0
 10  8  1  1
  8 14  1  0
 37 28  1  6
  4  5  1  0
 33 30  1  1
 30 38  1  0
 34 31  1  6
 31 39  1  0
 35 32  1  1
 32 40  1  0
 41 42  1  0
 41 43  1  0
 15 19  2  0
 16 22  2  0
 12 17  1  6
 17 19  1  0
 17 20  1  0
 18 19  1  0
 18 22  1  0
 18 23  1  0
  9 10  1  0
  9 11  1  0
 10 12  1  0
 11  5  1  6
 33 34  1  0
 33 35  1  0
 34 36  1  0
 35 37  1  0
 36 42  1  6
 20 21  2  0
 21 22  1  0
M  CHG  2   2  -1  26  -1
M  END
>  <COMPND>  (191) 
    8629 

>  <AUTHOR>  (191) 
    GENERATED BY OPEN BABEL 3.1.1

>  <MASTER>  (191) 
        0    0    0    0    0    0    0    0   58    0   58    0

>  <minimizedAffinity>  (191) 
-8.72033

>  <CNNscore>  (191) 
0.6331832409

>  <CNNaffinity>  (191) 
4.5583128929

>  <CNN_VS>  (191) 
2.8862473965

>  <CNNaffinity_variance>  (191) 
0.0322457589

$$$$
192
     RDKit          3D

 43 45  0  0  0  0  0  0  0  0999 V2000
   22.5046   71.3791   -3.1525 P   0  0  2  0  0  0  0  0  0  0  0  0
   22.3953   72.0789   -1.6980 O   0  0  0  0  0  0  0  0  0  0  0  0
   23.6364   71.8680   -4.0077 O   0  0  0  0  0  0  0  0  0  0  0  0
   21.0235   71.5540   -3.7799 O   0  0  0  0  0  0  0  0  0  0  0  0
   20.2347   72.6519   -3.3553 C   0  0  0  0  0  0  0  0  0  0  0  0
   18.1076   72.2261   -4.3888 O   0  0  0  0  0  0  0  0  0  0  0  0
   17.4791   70.5610   -1.9757 O   0  0  0  0  0  0  0  0  0  0  0  0
   18.1474   68.6826   -3.8363 O   0  0  0  0  0  0  0  0  0  0  0  0
   18.7213   70.7297   -2.6567 C   0  0  1  0  0  0  0  0  0  0  0  0
   18.7090   69.9726   -3.9683 C   0  0  2  0  0  0  0  0  0  0  0  0
   18.8065   72.1769   -3.1257 C   0  0  1  0  0  0  0  0  0  0  0  0
   17.8754   70.8855   -4.8513 C   0  0  2  0  0  0  0  0  0  0  0  0
   17.4020   69.6442   -1.6665 H   0  0  0  0  0  0  0  0  0  0  0  0
   18.7139   68.1400   -3.2658 H   0  0  0  0  0  0  0  0  0  0  0  0
   16.1138   70.1567   -6.9354 O   0  0  0  0  0  0  0  0  0  0  0  0
   19.4154   70.5839  -10.1226 O   0  0  0  0  0  0  0  0  0  0  0  0
   18.2480   70.7986   -6.2352 N   0  0  0  0  0  0  0  0  0  0  0  0
   17.7592   70.3702   -8.5207 N   0  0  0  0  0  0  0  0  0  0  0  0
   17.2875   70.4224   -7.2029 C   0  0  0  0  0  0  0  0  0  0  0  0
   19.5530   71.0850   -6.6207 C   0  0  0  0  0  0  0  0  0  0  0  0
   19.9872   71.0293   -7.8816 C   0  0  0  0  0  0  0  0  0  0  0  0
   19.0468   70.6444   -8.9537 C   0  0  0  0  0  0  0  0  0  0  0  0
   17.1078   70.1100   -9.2120 H   0  0  0  0  0  0  0  0  0  0  0  0
   22.5638   69.8039   -2.7944 O   0  0  0  0  0  0  0  0  0  0  0  0
   23.6150   68.9560   -1.9062 P   0  0  2  0  0  0  0  0  0  0  0  0
   25.0444   69.3313   -2.5644 O   0  0  0  0  0  0  0  0  0  0  0  0
   23.3264   67.4837   -1.8502 O   0  0  0  0  0  0  0  0  0  0  0  0
   23.6222   69.6912   -0.4694 O   0  0  0  0  0  0  0  0  0  0  0  0
   23.7696   69.0473    1.8066 O   0  0  0  0  0  0  0  0  0  0  0  0
   20.5435   71.6128    2.0544 O   0  0  0  0  0  0  0  0  0  0  0  0
   23.0831   72.4209    3.1245 O   0  0  0  0  0  0  0  0  0  0  0  0
   20.8311   69.8720   -0.2405 O   0  0  0  0  0  0  0  0  0  0  0  0
   21.8011   71.1449    1.5595 C   0  0  1  0  0  0  0  0  0  0  0  0
   22.7846   71.0846    2.7300 C   0  0  1  0  0  0  0  0  0  0  0  0
   21.6114   69.7594    0.9448 C   0  0  2  0  0  0  0  0  0  0  0  0
   24.0697   70.3440    2.3362 C   0  0  1  0  0  0  0  0  0  0  0  0
   22.9519   69.0904    0.6356 C   0  0  1  0  0  0  0  0  0  0  0  0
   20.6569   72.4923    2.4456 H   0  0  0  0  0  0  0  0  0  0  0  0
   22.2632   72.8776    3.3701 H   0  0  0  0  0  0  0  0  0  0  0  0
   19.9851   70.2967   -0.0314 H   0  0  0  0  0  0  0  0  0  0  0  0
   25.8225   71.2769    3.6651 O   0  0  0  0  0  0  0  0  0  0  0  0
   24.9978   70.1342    3.5306 C   0  0  0  0  0  0  0  0  0  0  0  0
   26.4184   71.1577    4.4217 H   0  0  0  0  0  0  0  0  0  0  0  0
 25 28  1  0
 25 24  1  0
 25 26  1  6
 25 27  2  0
  1  4  1  0
  1 24  1  0
  1  2  1  1
  1  3  2  0
  6 11  1  0
  6 12  1  0
 29 36  1  0
 29 37  1  0
  9  7  1  6
  7 13  1  0
 10  8  1  1
  8 14  1  0
 37 28  1  6
  4  5  1  0
 33 30  1  1
 30 38  1  0
 34 31  1  6
 31 39  1  0
 35 32  1  6
 32 40  1  0
 41 42  1  0
 41 43  1  0
 15 19  2  0
 16 22  2  0
 12 17  1  6
 17 19  1  0
 17 20  1  0
 18 19  1  0
 18 22  1  0
 18 23  1  0
  9 10  1  0
  9 11  1  0
 10 12  1  0
 11  5  1  6
 33 34  1  0
 33 35  1  0
 34 36  1  0
 35 37  1  0
 36 42  1  1
 20 21  2  0
 21 22  1  0
M  CHG  2   2  -1  26  -1
M  END
>  <COMPND>  (192) 
    8629 

>  <AUTHOR>  (192) 
    GENERATED BY OPEN BABEL 3.1.1

>  <MASTER>  (192) 
        0    0    0    0    0    0    0    0   58    0   58    0

>  <minimizedAffinity>  (192) 
-9.25946

>  <CNNscore>  (192) 
0.6235225201

>  <CNNaffinity>  (192) 
4.6411952972

>  <CNN_VS>  (192) 
2.8938899040

>  <CNNaffinity_variance>  (192) 
0.0920643657

$$$$
193
     RDKit          3D

 43 45  0  0  0  0  0  0  0  0999 V2000
   22.2882   71.6110   -3.1315 P   0  0  2  0  0  0  0  0  0  0  0  0
   21.3510   72.9265   -3.2252 O   0  0  0  0  0  0  0  0  0  0  0  0
   23.5863   71.7031   -3.8784 O   0  0  0  0  0  0  0  0  0  0  0  0
   21.3071   70.4029   -3.5740 O   0  0  0  0  0  0  0  0  0  0  0  0
   20.0986   70.7230   -4.2409 C   0  0  0  0  0  0  0  0  0  0  0  0
   17.9965   71.6651   -3.5571 O   0  0  0  0  0  0  0  0  0  0  0  0
   17.5180   69.0779   -2.1190 O   0  0  0  0  0  0  0  0  0  0  0  0
   16.0295   68.7826   -4.3849 O   0  0  0  0  0  0  0  0  0  0  0  0
   18.1728   69.3097   -3.3651 C   0  0  1  0  0  0  0  0  0  0  0  0
   17.1569   69.6327   -4.4409 C   0  0  2  0  0  0  0  0  0  0  0  0
   18.9446   70.6186   -3.2532 C   0  0  1  0  0  0  0  0  0  0  0  0
   16.8146   71.0792   -4.1269 C   0  0  2  0  0  0  0  0  0  0  0  0
   17.0186   68.2469   -2.1661 H   0  0  0  0  0  0  0  0  0  0  0  0
   16.2988   67.8741   -4.5919 H   0  0  0  0  0  0  0  0  0  0  0  0
   17.3614   70.2584   -6.7737 O   0  0  0  0  0  0  0  0  0  0  0  0
   15.3505   74.0074   -8.5464 O   0  0  0  0  0  0  0  0  0  0  0  0
   16.4449   71.8213   -5.2991 N   0  0  0  0  0  0  0  0  0  0  0  0
   16.3595   72.1257   -7.6542 N   0  0  0  0  0  0  0  0  0  0  0  0
   16.7675   71.3216   -6.5823 C   0  0  0  0  0  0  0  0  0  0  0  0
   15.7699   73.0302   -5.1696 C   0  0  0  0  0  0  0  0  0  0  0  0
   15.3890   73.7857   -6.2018 C   0  0  0  0  0  0  0  0  0  0  0  0
   15.6875   73.3352   -7.5766 C   0  0  0  0  0  0  0  0  0  0  0  0
   16.5738   71.7978   -8.5577 H   0  0  0  0  0  0  0  0  0  0  0  0
   22.4432   71.3880   -1.5380 O   0  0  0  0  0  0  0  0  0  0  0  0
   21.3366   71.3346   -0.3610 P   0  0  2  0  0  0  0  0  0  0  0  0
   20.8083   69.8064   -0.4174 O   0  0  0  0  0  0  0  0  0  0  0  0
   20.2553   72.3686   -0.4856 O   0  0  0  0  0  0  0  0  0  0  0  0
   22.1900   71.4206    1.0063 O   0  0  0  0  0  0  0  0  0  0  0  0
   24.2745   72.3865    1.5881 O   0  0  0  0  0  0  0  0  0  0  0  0
   24.6276   68.7959    3.5965 O   0  0  0  0  0  0  0  0  0  0  0  0
   24.1907   71.2145    5.0821 O   0  0  0  0  0  0  0  0  0  0  0  0
   23.3708   68.8749    0.9900 O   0  0  0  0  0  0  0  0  0  0  0  0
   23.9376   69.9357    3.0768 C   0  0  1  0  0  0  0  0  0  0  0  0
   24.5471   71.1917    3.7027 C   0  0  1  0  0  0  0  0  0  0  0  0
   24.0924   69.9629    1.5573 C   0  0  2  0  0  0  0  0  0  0  0  0
   24.0451   72.4603    3.0000 C   0  0  1  0  0  0  0  0  0  0  0  0
   23.6083   71.2872    0.9639 C   0  0  1  0  0  0  0  0  0  0  0  0
   24.5328   68.7724    4.5608 H   0  0  0  0  0  0  0  0  0  0  0  0
   24.5130   70.4079    5.5140 H   0  0  0  0  0  0  0  0  0  0  0  0
   23.6868   68.0425    1.3735 H   0  0  0  0  0  0  0  0  0  0  0  0
   24.7871   74.6653    2.4557 O   0  0  0  0  0  0  0  0  0  0  0  0
   24.7589   73.7132    3.5030 C   0  0  0  0  0  0  0  0  0  0  0  0
   25.2382   75.4683    2.7615 H   0  0  0  0  0  0  0  0  0  0  0  0
 25 28  1  0
 25 24  1  0
 25 26  1  1
 25 27  2  0
  1  4  1  0
  1 24  1  0
  1  2  1  1
  1  3  2  0
  6 11  1  0
  6 12  1  0
 29 36  1  0
 29 37  1  0
  9  7  1  1
  7 13  1  0
 10  8  1  1
  8 14  1  0
 37 28  1  1
  4  5  1  0
 33 30  1  1
 30 38  1  0
 34 31  1  1
 31 39  1  0
 35 32  1  6
 32 40  1  0
 41 42  1  0
 41 43  1  0
 15 19  2  0
 16 22  2  0
 12 17  1  6
 17 19  1  0
 17 20  1  0
 18 19  1  0
 18 22  1  0
 18 23  1  0
  9 10  1  0
  9 11  1  0
 10 12  1  0
 11  5  1  6
 33 34  1  0
 33 35  1  0
 34 36  1  0
 35 37  1  0
 36 42  1  1
 20 21  2  0
 21 22  1  0
M  CHG  2   2  -1  26  -1
M  END
>  <COMPND>  (193) 
    8629 

>  <AUTHOR>  (193) 
    GENERATED BY OPEN BABEL 3.1.1

>  <MASTER>  (193) 
        0    0    0    0    0    0    0    0   58    0   58    0

>  <minimizedAffinity>  (193) 
-9.06088

>  <CNNscore>  (193) 
0.5949358940

>  <CNNaffinity>  (193) 
4.7834100723

>  <CNN_VS>  (193) 
2.8458223343

>  <CNNaffinity_variance>  (193) 
0.0498969592

$$$$
194
     RDKit          3D

 43 45  0  0  0  0  0  0  0  0999 V2000
   20.7667   70.7011   -0.3759 P   0  0  2  0  0  0  0  0  0  0  0  0
   20.6627   69.4168    0.6023 O   0  0  0  0  0  0  0  0  0  0  0  0
   21.5490   70.4761   -1.6364 O   0  0  0  0  0  0  0  0  0  0  0  0
   21.3117   71.8806    0.5883 O   0  0  0  0  0  0  0  0  0  0  0  0
   22.5728   71.7150    1.2126 C   0  0  0  0  0  0  0  0  0  0  0  0
   23.4844   70.7852    3.2321 O   0  0  0  0  0  0  0  0  0  0  0  0
   21.6343   72.6350    4.6971 O   0  0  0  0  0  0  0  0  0  0  0  0
   24.0261   73.9347    4.8601 O   0  0  0  0  0  0  0  0  0  0  0  0
   22.3456   72.8486    3.4790 C   0  0  1  0  0  0  0  0  0  0  0  0
   23.8167   73.0713    3.7612 C   0  0  2  0  0  0  0  0  0  0  0  0
   22.3647   71.5335    2.7099 C   0  0  1  0  0  0  0  0  0  0  0  0
   24.3040   71.6572    4.0276 C   0  0  2  0  0  0  0  0  0  0  0  0
   21.6085   73.4614    5.2054 H   0  0  0  0  0  0  0  0  0  0  0  0
   23.6998   74.8215    4.6414 H   0  0  0  0  0  0  0  0  0  0  0  0
   26.4998   72.1782    5.7261 O   0  0  0  0  0  0  0  0  0  0  0  0
   29.5336   70.9136    2.4952 O   0  0  0  0  0  0  0  0  0  0  0  0
   25.6786   71.4725    3.6562 N   0  0  0  0  0  0  0  0  0  0  0  0
   28.0086   71.5479    4.1160 N   0  0  0  0  0  0  0  0  0  0  0  0
   26.7060   71.7645    4.5833 C   0  0  0  0  0  0  0  0  0  0  0  0
   25.9963   71.0064    2.3851 C   0  0  0  0  0  0  0  0  0  0  0  0
   27.2437   70.8064    1.9545 C   0  0  0  0  0  0  0  0  0  0  0  0
   28.3753   71.0872    2.8615 C   0  0  0  0  0  0  0  0  0  0  0  0
   28.7407   71.7449    4.7445 H   0  0  0  0  0  0  0  0  0  0  0  0
   19.2194   71.1074   -0.6080 O   0  0  0  0  0  0  0  0  0  0  0  0
   18.1739   70.6873   -1.7670 P   0  0  2  0  0  0  0  0  0  0  0  0
   16.8521   71.5465   -1.4037 O   0  0  0  0  0  0  0  0  0  0  0  0
   17.9400   69.2085   -1.8782 O   0  0  0  0  0  0  0  0  0  0  0  0
   18.7518   71.3757   -3.1076 O   0  0  0  0  0  0  0  0  0  0  0  0
   18.1485   70.1580   -5.0492 O   0  0  0  0  0  0  0  0  0  0  0  0
   20.8491   72.7889   -6.7331 O   0  0  0  0  0  0  0  0  0  0  0  0
   18.0423   73.1165   -7.2457 O   0  0  0  0  0  0  0  0  0  0  0  0
   21.3562   71.6834   -4.1063 O   0  0  0  0  0  0  0  0  0  0  0  0
   19.8212   72.3789   -5.8271 C   0  0  1  0  0  0  0  0  0  0  0  0
   18.6022   71.9511   -6.6467 C   0  0  1  0  0  0  0  0  0  0  0  0
   20.3359   71.2154   -4.9818 C   0  0  2  0  0  0  0  0  0  0  0  0
   17.5600   71.2503   -5.7649 C   0  0  1  0  0  0  0  0  0  0  0  0
   19.2106   70.5579   -4.1809 C   0  0  1  0  0  0  0  0  0  0  0  0
   20.5288   73.5278   -7.2725 H   0  0  0  0  0  0  0  0  0  0  0  0
   18.7107   73.5498   -7.7994 H   0  0  0  0  0  0  0  0  0  0  0  0
   22.0628   72.0971   -4.6254 H   0  0  0  0  0  0  0  0  0  0  0  0
   15.9376   69.5055   -5.9448 O   0  0  0  0  0  0  0  0  0  0  0  0
   16.4084   70.6759   -6.5871 C   0  0  0  0  0  0  0  0  0  0  0  0
   15.2041   69.1291   -6.4568 H   0  0  0  0  0  0  0  0  0  0  0  0
 25 28  1  0
 25 24  1  0
 25 26  1  1
 25 27  2  0
  1  4  1  0
  1 24  1  0
  1  2  1  1
  1  3  2  0
  6 11  1  0
  6 12  1  0
 29 36  1  0
 29 37  1  0
  9  7  1  1
  7 13  1  0
 10  8  1  1
  8 14  1  0
 37 28  1  1
  4  5  1  0
 33 30  1  6
 30 38  1  0
 34 31  1  1
 31 39  1  0
 35 32  1  1
 32 40  1  0
 41 42  1  0
 41 43  1  0
 15 19  2  0
 16 22  2  0
 12 17  1  6
 17 19  1  0
 17 20  1  0
 18 19  1  0
 18 22  1  0
 18 23  1  0
  9 10  1  0
  9 11  1  0
 10 12  1  0
 11  5  1  6
 33 34  1  0
 33 35  1  0
 34 36  1  0
 35 37  1  0
 36 42  1  6
 20 21  2  0
 21 22  1  0
M  CHG  2   2  -1  26  -1
M  END
>  <COMPND>  (194) 
    8629 

>  <AUTHOR>  (194) 
    GENERATED BY OPEN BABEL 3.1.1

>  <MASTER>  (194) 
        0    0    0    0    0    0    0    0   58    0   58    0

>  <minimizedAffinity>  (194) 
-8.59491

>  <CNNscore>  (194) 
0.5695035458

>  <CNNaffinity>  (194) 
4.4837942123

>  <CNN_VS>  (194) 
2.5535366535

>  <CNNaffinity_variance>  (194) 
0.1157694831

$$$$
195
     RDKit          3D

 43 45  0  0  0  0  0  0  0  0999 V2000
   21.7879   71.7552   -1.8963 P   0  0  2  0  0  0  0  0  0  0  0  0
   21.9556   71.3382   -3.4504 O   0  0  0  0  0  0  0  0  0  0  0  0
   22.7350   72.8167   -1.4192 O   0  0  0  0  0  0  0  0  0  0  0  0
   21.8572   70.3450   -1.1060 O   0  0  0  0  0  0  0  0  0  0  0  0
   22.7867   70.2094   -0.0452 C   0  0  0  0  0  0  0  0  0  0  0  0
   22.9590   69.8088    2.3178 O   0  0  0  0  0  0  0  0  0  0  0  0
   20.3826   71.3214    2.5725 O   0  0  0  0  0  0  0  0  0  0  0  0
   22.2385   73.1812    3.3032 O   0  0  0  0  0  0  0  0  0  0  0  0
   21.4733   71.5412    1.6795 C   0  0  1  0  0  0  0  0  0  0  0  0
   22.6432   72.1554    2.4195 C   0  0  2  0  0  0  0  0  0  0  0  0
   22.0306   70.1817    1.2760 C   0  0  1  0  0  0  0  0  0  0  0  0
   23.2230   70.9534    3.1455 C   0  0  2  0  0  0  0  0  0  0  0  0
   20.0100   72.1756    2.8438 H   0  0  0  0  0  0  0  0  0  0  0  0
   21.8769   73.9231    2.7937 H   0  0  0  0  0  0  0  0  0  0  0  0
   24.4235   72.1286    5.4161 O   0  0  0  0  0  0  0  0  0  0  0  0
   28.6695   71.3329    3.8099 O   0  0  0  0  0  0  0  0  0  0  0  0
   24.6401   71.0663    3.3469 N   0  0  0  0  0  0  0  0  0  0  0  0
   26.5367   71.7313    4.6146 N   0  0  0  0  0  0  0  0  0  0  0  0
   25.1402   71.6747    4.5217 C   0  0  0  0  0  0  0  0  0  0  0  0
   25.5178   70.5766    2.3858 C   0  0  0  0  0  0  0  0  0  0  0  0
   26.8470   70.6394    2.4889 C   0  0  0  0  0  0  0  0  0  0  0  0
   27.4508   71.2598    3.6857 C   0  0  0  0  0  0  0  0  0  0  0  0
   26.9079   72.1512    5.4243 H   0  0  0  0  0  0  0  0  0  0  0  0
   20.2245   72.1529   -1.7933 O   0  0  0  0  0  0  0  0  0  0  0  0
   18.8940   71.2349   -1.7839 P   0  0  2  0  0  0  0  0  0  0  0  0
   17.7454   72.2515   -1.2694 O   0  0  0  0  0  0  0  0  0  0  0  0
   19.0188   69.9789   -0.9710 O   0  0  0  0  0  0  0  0  0  0  0  0
   18.5545   70.9916   -3.3429 O   0  0  0  0  0  0  0  0  0  0  0  0
   18.9098   72.8498   -4.7703 O   0  0  0  0  0  0  0  0  0  0  0  0
   16.6022   70.5210   -7.2808 O   0  0  0  0  0  0  0  0  0  0  0  0
   19.4109   70.8152   -7.8031 O   0  0  0  0  0  0  0  0  0  0  0  0
   16.0024   70.6247   -4.4508 O   0  0  0  0  0  0  0  0  0  0  0  0
   17.5789   70.7696   -6.2661 C   0  0  1  0  0  0  0  0  0  0  0  0
   18.6946   71.6227   -6.8730 C   0  0  1  0  0  0  0  0  0  0  0  0
   16.9141   71.5026   -5.1024 C   0  0  2  0  0  0  0  0  0  0  0  0
   19.6399   72.1528   -5.7865 C   0  0  1  0  0  0  0  0  0  0  0  0
   17.9461   72.0313   -4.1045 C   0  0  1  0  0  0  0  0  0  0  0  0
   17.0177   70.0554   -8.0225 H   0  0  0  0  0  0  0  0  0  0  0  0
   18.8025   70.4864   -8.4835 H   0  0  0  0  0  0  0  0  0  0  0  0
   15.3542   70.2972   -5.0930 H   0  0  0  0  0  0  0  0  0  0  0  0
   21.9227   72.8578   -5.7582 O   0  0  0  0  0  0  0  0  0  0  0  0
   20.6664   73.1330   -6.3501 C   0  0  0  0  0  0  0  0  0  0  0  0
   22.5860   73.4739   -6.1078 H   0  0  0  0  0  0  0  0  0  0  0  0
 25 28  1  0
 25 24  1  0
 25 26  1  1
 25 27  2  0
  1  4  1  0
  1 24  1  0
  1  2  1  6
  1  3  2  0
  6 11  1  0
  6 12  1  0
 29 36  1  0
 29 37  1  0
  9  7  1  1
  7 13  1  0
 10  8  1  1
  8 14  1  0
 37 28  1  6
  4  5  1  0
 33 30  1  6
 30 38  1  0
 34 31  1  6
 31 39  1  0
 35 32  1  1
 32 40  1  0
 41 42  1  0
 41 43  1  0
 15 19  2  0
 16 22  2  0
 12 17  1  6
 17 19  1  0
 17 20  1  0
 18 19  1  0
 18 22  1  0
 18 23  1  0
  9 10  1  0
  9 11  1  0
 10 12  1  0
 11  5  1  6
 33 34  1  0
 33 35  1  0
 34 36  1  0
 35 37  1  0
 36 42  1  6
 20 21  2  0
 21 22  1  0
M  CHG  2   2  -1  26  -1
M  END
>  <COMPND>  (195) 
    8629 

>  <AUTHOR>  (195) 
    GENERATED BY OPEN BABEL 3.1.1

>  <MASTER>  (195) 
        0    0    0    0    0    0    0    0   58    0   58    0

>  <minimizedAffinity>  (195) 
-7.72438

>  <CNNscore>  (195) 
0.5610224009

>  <CNNaffinity>  (195) 
4.5756406784

>  <CNN_VS>  (195) 
2.5670368671

>  <CNNaffinity_variance>  (195) 
0.0308234729

$$$$
196
     RDKit          3D

 43 45  0  0  0  0  0  0  0  0999 V2000
   22.8586   69.8364   -2.2142 P   0  0  2  0  0  0  0  0  0  0  0  0
   24.0530   70.3192   -3.1929 O   0  0  0  0  0  0  0  0  0  0  0  0
   23.0390   68.4704   -1.6203 O   0  0  0  0  0  0  0  0  0  0  0  0
   21.5214   70.0463   -3.1005 O   0  0  0  0  0  0  0  0  0  0  0  0
   21.3504   71.2747   -3.7859 C   0  0  0  0  0  0  0  0  0  0  0  0
   19.4152   72.2261   -4.8459 O   0  0  0  0  0  0  0  0  0  0  0  0
   17.8745   71.2916   -2.4493 O   0  0  0  0  0  0  0  0  0  0  0  0
   17.2872   69.3888   -4.3124 O   0  0  0  0  0  0  0  0  0  0  0  0
   18.9720   70.6692   -3.1152 C   0  0  1  0  0  0  0  0  0  0  0  0
   18.5185   70.0719   -4.4309 C   0  0  2  0  0  0  0  0  0  0  0  0
   19.9247   71.7657   -3.5752 C   0  0  1  0  0  0  0  0  0  0  0  0
   18.4221   71.3012   -5.3184 C   0  0  2  0  0  0  0  0  0  0  0  0
   17.2525   70.6111   -2.1460 H   0  0  0  0  0  0  0  0  0  0  0  0
   17.4004   68.6152   -3.7385 H   0  0  0  0  0  0  0  0  0  0  0  0
   16.4522   70.4969   -7.1760 O   0  0  0  0  0  0  0  0  0  0  0  0
   19.5362   70.1792  -10.5862 O   0  0  0  0  0  0  0  0  0  0  0  0
   18.6824   71.0022   -6.6984 N   0  0  0  0  0  0  0  0  0  0  0  0
   17.9894   70.3395   -8.8725 N   0  0  0  0  0  0  0  0  0  0  0  0
   17.6227   70.6060   -7.5472 C   0  0  0  0  0  0  0  0  0  0  0  0
   19.9765   71.1033   -7.1972 C   0  0  0  0  0  0  0  0  0  0  0  0
   20.3099   70.8444   -8.4633 C   0  0  0  0  0  0  0  0  0  0  0  0
   19.2616   70.4244   -9.4156 C   0  0  0  0  0  0  0  0  0  0  0  0
   17.2676   70.0615   -9.4821 H   0  0  0  0  0  0  0  0  0  0  0  0
   22.7690   71.0340   -1.1321 O   0  0  0  0  0  0  0  0  0  0  0  0
   21.6473   71.3781   -0.0201 P   0  0  2  0  0  0  0  0  0  0  0  0
   20.8695   69.9722    0.1698 O   0  0  0  0  0  0  0  0  0  0  0  0
   20.7589   72.5337   -0.3794 O   0  0  0  0  0  0  0  0  0  0  0  0
   22.4772   71.5732    1.3504 O   0  0  0  0  0  0  0  0  0  0  0  0
   24.5936   72.3757    2.0527 O   0  0  0  0  0  0  0  0  0  0  0  0
   24.6153   68.7086    3.9509 O   0  0  0  0  0  0  0  0  0  0  0  0
   24.2755   71.1042    5.4981 O   0  0  0  0  0  0  0  0  0  0  0  0
   23.4843   68.9545    1.2976 O   0  0  0  0  0  0  0  0  0  0  0  0
   24.0272   69.9086    3.4414 C   0  0  1  0  0  0  0  0  0  0  0  0
   24.6908   71.0999    4.1351 C   0  0  1  0  0  0  0  0  0  0  0  0
   24.2512   69.9724    1.9318 C   0  0  2  0  0  0  0  0  0  0  0  0
   24.3068   72.4211    3.4554 C   0  0  1  0  0  0  0  0  0  0  0  0
   23.8838   71.3445    1.3637 C   0  0  1  0  0  0  0  0  0  0  0  0
   24.4762   68.6618    4.9090 H   0  0  0  0  0  0  0  0  0  0  0  0
   24.5235   70.2643    5.9156 H   0  0  0  0  0  0  0  0  0  0  0  0
   23.7264   68.0909    1.6656 H   0  0  0  0  0  0  0  0  0  0  0  0
   24.4535   74.0092    5.2345 O   0  0  0  0  0  0  0  0  0  0  0  0
   25.0797   73.6060    4.0306 C   0  0  0  0  0  0  0  0  0  0  0  0
   24.9348   74.7625    5.6121 H   0  0  0  0  0  0  0  0  0  0  0  0
 25 28  1  0
 25 24  1  0
 25 26  1  1
 25 27  2  0
  1  4  1  0
  1 24  1  0
  1  2  1  6
  1  3  2  0
  6 11  1  0
  6 12  1  0
 29 36  1  0
 29 37  1  0
  9  7  1  6
  7 13  1  0
 10  8  1  1
  8 14  1  0
 37 28  1  1
  4  5  1  0
 33 30  1  1
 30 38  1  0
 34 31  1  1
 31 39  1  0
 35 32  1  6
 32 40  1  0
 41 42  1  0
 41 43  1  0
 15 19  2  0
 16 22  2  0
 12 17  1  6
 17 19  1  0
 17 20  1  0
 18 19  1  0
 18 22  1  0
 18 23  1  0
  9 10  1  0
  9 11  1  0
 10 12  1  0
 11  5  1  6
 33 34  1  0
 33 35  1  0
 34 36  1  0
 35 37  1  0
 36 42  1  1
 20 21  2  0
 21 22  1  0
M  CHG  2   2  -1  26  -1
M  END
>  <COMPND>  (196) 
    8629 

>  <AUTHOR>  (196) 
    GENERATED BY OPEN BABEL 3.1.1

>  <MASTER>  (196) 
        0    0    0    0    0    0    0    0   58    0   58    0

>  <minimizedAffinity>  (196) 
-8.65508

>  <CNNscore>  (196) 
0.5409554839

>  <CNNaffinity>  (196) 
4.6653714180

>  <CNN_VS>  (196) 
2.5237581730

>  <CNNaffinity_variance>  (196) 
0.1350035369

$$$$
197
     RDKit          3D

 43 45  0  0  0  0  0  0  0  0999 V2000
   20.8247   70.8440    0.5806 P   0  0  2  0  0  0  0  0  0  0  0  0
   19.7378   71.5458    1.5520 O   0  0  0  0  0  0  0  0  0  0  0  0
   20.8722   69.3464    0.6602 O   0  0  0  0  0  0  0  0  0  0  0  0
   22.2070   71.6103    0.9270 O   0  0  0  0  0  0  0  0  0  0  0  0
   23.2240   70.8957    1.6073 C   0  0  0  0  0  0  0  0  0  0  0  0
   24.1963   70.5625    3.7793 O   0  0  0  0  0  0  0  0  0  0  0  0
   22.1062   72.4553    4.7990 O   0  0  0  0  0  0  0  0  0  0  0  0
   24.3208   74.0395    4.6498 O   0  0  0  0  0  0  0  0  0  0  0  0
   22.8131   72.4742    3.5600 C   0  0  1  0  0  0  0  0  0  0  0  0
   24.2405   72.9320    3.7758 C   0  0  2  0  0  0  0  0  0  0  0  0
   23.0066   71.0320    3.1081 C   0  0  1  0  0  0  0  0  0  0  0  0
   24.8879   71.6843    4.3521 C   0  0  2  0  0  0  0  0  0  0  0  0
   21.9704   73.3654    5.1075 H   0  0  0  0  0  0  0  0  0  0  0  0
   23.8954   74.8079    4.2383 H   0  0  0  0  0  0  0  0  0  0  0  0
   26.9242   73.2048    5.5846 O   0  0  0  0  0  0  0  0  0  0  0  0
   30.2032   71.2377    3.0116 O   0  0  0  0  0  0  0  0  0  0  0  0
   26.2824   71.5894    4.0240 N   0  0  0  0  0  0  0  0  0  0  0  0
   28.5553   72.2240    4.3026 N   0  0  0  0  0  0  0  0  0  0  0  0
   27.2240   72.3984    4.7017 C   0  0  0  0  0  0  0  0  0  0  0  0
   26.7040   70.7014    3.0403 C   0  0  0  0  0  0  0  0  0  0  0  0
   27.9771   70.5480    2.6704 C   0  0  0  0  0  0  0  0  0  0  0  0
   29.0238   71.3556    3.3294 C   0  0  0  0  0  0  0  0  0  0  0  0
   29.2288   72.7774    4.7607 H   0  0  0  0  0  0  0  0  0  0  0  0
   20.4406   71.4284   -0.8767 O   0  0  0  0  0  0  0  0  0  0  0  0
   19.1807   71.1262   -1.8433 P   0  0  2  0  0  0  0  0  0  0  0  0
   18.2021   72.3878   -1.5827 O   0  0  0  0  0  0  0  0  0  0  0  0
   18.5391   69.7878   -1.6176 O   0  0  0  0  0  0  0  0  0  0  0  0
   19.7484   71.3524   -3.3372 O   0  0  0  0  0  0  0  0  0  0  0  0
   19.9888   73.6112   -4.0129 O   0  0  0  0  0  0  0  0  0  0  0  0
   20.2556   71.7855   -7.7070 O   0  0  0  0  0  0  0  0  0  0  0  0
   22.6109   72.9078   -6.5066 O   0  0  0  0  0  0  0  0  0  0  0  0
   18.3979   70.7775   -5.7290 O   0  0  0  0  0  0  0  0  0  0  0  0
   20.4502   71.9041   -6.2951 C   0  0  1  0  0  0  0  0  0  0  0  0
   21.2909   73.1546   -6.0302 C   0  0  1  0  0  0  0  0  0  0  0  0
   19.0889   72.0165   -5.6113 C   0  0  2  0  0  0  0  0  0  0  0  0
   21.3179   73.4973   -4.5346 C   0  0  1  0  0  0  0  0  0  0  0  0
   19.2270   72.4089   -4.1392 C   0  0  1  0  0  0  0  0  0  0  0  0
   21.1161   71.7132   -8.1471 H   0  0  0  0  0  0  0  0  0  0  0  0
   22.5797   72.6921   -7.4519 H   0  0  0  0  0  0  0  0  0  0  0  0
   18.3167   70.5404   -6.6655 H   0  0  0  0  0  0  0  0  0  0  0  0
   22.0578   75.5669   -5.4717 O   0  0  0  0  0  0  0  0  0  0  0  0
   22.0183   74.8274   -4.2652 C   0  0  0  0  0  0  0  0  0  0  0  0
   22.5006   76.4161   -5.3154 H   0  0  0  0  0  0  0  0  0  0  0  0
 25 28  1  0
 25 24  1  0
 25 26  1  1
 25 27  2  0
  1  4  1  0
  1 24  1  0
  1  2  1  1
  1  3  2  0
  6 11  1  0
  6 12  1  0
 29 36  1  0
 29 37  1  0
  9  7  1  1
  7 13  1  0
 10  8  1  1
  8 14  1  0
 37 28  1  1
  4  5  1  0
 33 30  1  6
 30 38  1  0
 34 31  1  1
 31 39  1  0
 35 32  1  1
 32 40  1  0
 41 42  1  0
 41 43  1  0
 15 19  2  0
 16 22  2  0
 12 17  1  6
 17 19  1  0
 17 20  1  0
 18 19  1  0
 18 22  1  0
 18 23  1  0
  9 10  1  0
  9 11  1  0
 10 12  1  0
 11  5  1  6
 33 34  1  0
 33 35  1  0
 34 36  1  0
 35 37  1  0
 36 42  1  6
 20 21  2  0
 21 22  1  0
M  CHG  2   2  -1  26  -1
M  END
>  <COMPND>  (197) 
    8629 

>  <AUTHOR>  (197) 
    GENERATED BY OPEN BABEL 3.1.1

>  <MASTER>  (197) 
        0    0    0    0    0    0    0    0   58    0   58    0

>  <minimizedAffinity>  (197) 
-8.09740

>  <CNNscore>  (197) 
0.5039944053

>  <CNNaffinity>  (197) 
4.3728342056

>  <CNN_VS>  (197) 
2.2038838863

>  <CNNaffinity_variance>  (197) 
0.0919997022

$$$$
198
     RDKit          3D

 43 45  0  0  0  0  0  0  0  0999 V2000
   20.3219   71.4228   -0.6493 P   0  0  2  0  0  0  0  0  0  0  0  0
   19.4343   72.7149   -0.2493 O   0  0  0  0  0  0  0  0  0  0  0  0
   19.8749   70.1308   -0.0310 O   0  0  0  0  0  0  0  0  0  0  0  0
   21.8388   71.8747   -0.3135 O   0  0  0  0  0  0  0  0  0  0  0  0
   22.0518   72.7979    0.7401 C   0  0  0  0  0  0  0  0  0  0  0  0
   22.4438   71.1260    2.4209 O   0  0  0  0  0  0  0  0  0  0  0  0
   20.5974   72.7169    4.1675 O   0  0  0  0  0  0  0  0  0  0  0  0
   23.0594   73.4424    5.0890 O   0  0  0  0  0  0  0  0  0  0  0  0
   21.5461   73.1742    3.2050 C   0  0  1  0  0  0  0  0  0  0  0  0
   22.9540   73.0257    3.7428 C   0  0  2  0  0  0  0  0  0  0  0  0
   21.5448   72.1909    2.0412 C   0  0  1  0  0  0  0  0  0  0  0  0
   23.2018   71.5368    3.5705 C   0  0  2  0  0  0  0  0  0  0  0  0
   20.5801   73.3293    4.9203 H   0  0  0  0  0  0  0  0  0  0  0  0
   22.8935   74.3963    5.1463 H   0  0  0  0  0  0  0  0  0  0  0  0
   24.2993   68.9353    3.6455 O   0  0  0  0  0  0  0  0  0  0  0  0
   28.5321   70.4959    2.7024 O   0  0  0  0  0  0  0  0  0  0  0  0
   24.5875   71.2343    3.3478 N   0  0  0  0  0  0  0  0  0  0  0  0
   26.4060   69.7144    3.1757 N   0  0  0  0  0  0  0  0  0  0  0  0
   25.0366   69.8945    3.4088 C   0  0  0  0  0  0  0  0  0  0  0  0
   25.4851   72.2601    3.0722 C   0  0  0  0  0  0  0  0  0  0  0  0
   26.7882   72.0718    2.8535 C   0  0  0  0  0  0  0  0  0  0  0  0
   27.3384   70.7017    2.8991 C   0  0  0  0  0  0  0  0  0  0  0  0
   26.7416   68.7894    3.2134 H   0  0  0  0  0  0  0  0  0  0  0  0
   20.2860   71.4433   -2.2652 O   0  0  0  0  0  0  0  0  0  0  0  0
   20.9281   72.4779   -3.3283 P   0  0  2  0  0  0  0  0  0  0  0  0
   22.3250   71.7713   -3.7365 O   0  0  0  0  0  0  0  0  0  0  0  0
   21.0711   73.8806   -2.8124 O   0  0  0  0  0  0  0  0  0  0  0  0
   20.0020   72.3400   -4.6430 O   0  0  0  0  0  0  0  0  0  0  0  0
   18.9997   70.2159   -4.9590 O   0  0  0  0  0  0  0  0  0  0  0  0
   18.3995   71.7957   -8.7266 O   0  0  0  0  0  0  0  0  0  0  0  0
   16.1701   71.5039   -6.9397 O   0  0  0  0  0  0  0  0  0  0  0  0
   20.8677   72.3319   -7.3124 O   0  0  0  0  0  0  0  0  0  0  0  0
   18.5116   71.8318   -7.3013 C   0  0  1  0  0  0  0  0  0  0  0  0
   17.4440   70.9074   -6.7126 C   0  0  1  0  0  0  0  0  0  0  0  0
   19.9090   71.3644   -6.8985 C   0  0  2  0  0  0  0  0  0  0  0  0
   17.6701   70.6855   -5.2111 C   0  0  1  0  0  0  0  0  0  0  0  0
   20.0124   71.1268   -5.3909 C   0  0  1  0  0  0  0  0  0  0  0  0
   17.5146   72.0918   -8.9890 H   0  0  0  0  0  0  0  0  0  0  0  0
   16.0400   71.6391   -7.8916 H   0  0  0  0  0  0  0  0  0  0  0  0
   20.7923   72.4731   -8.2685 H   0  0  0  0  0  0  0  0  0  0  0  0
   15.9690   69.0809   -5.7013 O   0  0  0  0  0  0  0  0  0  0  0  0
   16.7126   69.6440   -4.6362 C   0  0  0  0  0  0  0  0  0  0  0  0
   15.3555   68.4160   -5.3504 H   0  0  0  0  0  0  0  0  0  0  0  0
 25 28  1  0
 25 24  1  0
 25 26  1  6
 25 27  2  0
  1  4  1  0
  1 24  1  0
  1  2  1  1
  1  3  2  0
  6 11  1  0
  6 12  1  0
 29 36  1  0
 29 37  1  0
  9  7  1  1
  7 13  1  0
 10  8  1  1
  8 14  1  0
 37 28  1  1
  4  5  1  0
 33 30  1  6
 30 38  1  0
 34 31  1  1
 31 39  1  0
 35 32  1  1
 32 40  1  0
 41 42  1  0
 41 43  1  0
 15 19  2  0
 16 22  2  0
 12 17  1  6
 17 19  1  0
 17 20  1  0
 18 19  1  0
 18 22  1  0
 18 23  1  0
  9 10  1  0
  9 11  1  0
 10 12  1  0
 11  5  1  6
 33 34  1  0
 33 35  1  0
 34 36  1  0
 35 37  1  0
 36 42  1  6
 20 21  2  0
 21 22  1  0
M  CHG  2   2  -1  26  -1
M  END
>  <COMPND>  (198) 
    8629 

>  <AUTHOR>  (198) 
    GENERATED BY OPEN BABEL 3.1.1

>  <MASTER>  (198) 
        0    0    0    0    0    0    0    0   58    0   58    0

>  <minimizedAffinity>  (198) 
-8.05662

>  <CNNscore>  (198) 
0.4933790863

>  <CNNaffinity>  (198) 
4.5884261131

>  <CNN_VS>  (198) 
2.2638335228

>  <CNNaffinity_variance>  (198) 
0.0375864990

$$$$
199
     RDKit          3D

 43 45  0  0  0  0  0  0  0  0999 V2000
   20.8276   70.6896    0.4119 P   0  0  2  0  0  0  0  0  0  0  0  0
   19.8577   71.4029    1.4926 O   0  0  0  0  0  0  0  0  0  0  0  0
   20.9432   69.2000    0.5500 O   0  0  0  0  0  0  0  0  0  0  0  0
   22.2138   71.5158    0.5293 O   0  0  0  0  0  0  0  0  0  0  0  0
   22.5829   72.0411    1.7925 C   0  0  0  0  0  0  0  0  0  0  0  0
   24.5085   70.6493    2.1516 O   0  0  0  0  0  0  0  0  0  0  0  0
   23.3697   70.0972    4.8699 O   0  0  0  0  0  0  0  0  0  0  0  0
   25.2921   71.9580    5.3975 O   0  0  0  0  0  0  0  0  0  0  0  0
   23.3390   71.3021    4.1066 C   0  0  1  0  0  0  0  0  0  0  0  0
   24.7011   71.9641    4.1140 C   0  0  2  0  0  0  0  0  0  0  0  0
   23.1770   70.9241    2.6395 C   0  0  1  0  0  0  0  0  0  0  0  0
   25.4685   71.1172    3.1130 C   0  0  2  0  0  0  0  0  0  0  0  0
   23.4722   70.3131    5.8106 H   0  0  0  0  0  0  0  0  0  0  0  0
   24.7675   72.5106    5.9978 H   0  0  0  0  0  0  0  0  0  0  0  0
   28.0872   70.1750    2.6309 O   0  0  0  0  0  0  0  0  0  0  0  0
   29.2904   74.0716    0.4837 O   0  0  0  0  0  0  0  0  0  0  0  0
   26.4864   71.8645    2.4299 N   0  0  0  0  0  0  0  0  0  0  0  0
   28.6841   72.1159    1.5620 N   0  0  0  0  0  0  0  0  0  0  0  0
   27.7695   71.3003    2.2404 C   0  0  0  0  0  0  0  0  0  0  0  0
   26.2079   73.1417    1.9556 C   0  0  0  0  0  0  0  0  0  0  0  0
   27.0916   73.9071    1.3117 C   0  0  0  0  0  0  0  0  0  0  0  0
   28.4553   73.3922    1.0726 C   0  0  0  0  0  0  0  0  0  0  0  0
   29.5846   71.7439    1.4188 H   0  0  0  0  0  0  0  0  0  0  0  0
   20.2255   71.1894   -1.0025 O   0  0  0  0  0  0  0  0  0  0  0  0
   18.7563   71.0121   -1.6529 P   0  0  2  0  0  0  0  0  0  0  0  0
   17.8906   72.1763   -0.9368 O   0  0  0  0  0  0  0  0  0  0  0  0
   18.1807   69.6333   -1.5062 O   0  0  0  0  0  0  0  0  0  0  0  0
   18.9227   71.5085   -3.1796 O   0  0  0  0  0  0  0  0  0  0  0  0
   18.3475   70.1015   -4.9978 O   0  0  0  0  0  0  0  0  0  0  0  0
   21.0052   72.6102   -6.9199 O   0  0  0  0  0  0  0  0  0  0  0  0
   18.1945   72.8361   -7.4651 O   0  0  0  0  0  0  0  0  0  0  0  0
   21.5242   71.7679   -4.1995 O   0  0  0  0  0  0  0  0  0  0  0  0
   19.9821   72.2690   -5.9806 C   0  0  1  0  0  0  0  0  0  0  0  0
   18.7736   71.7432   -6.7576 C   0  0  1  0  0  0  0  0  0  0  0  0
   20.5153   71.2005   -5.0280 C   0  0  2  0  0  0  0  0  0  0  0  0
   17.7415   71.1101   -5.8147 C   0  0  1  0  0  0  0  0  0  0  0  0
   19.3995   70.6013   -4.1700 C   0  0  1  0  0  0  0  0  0  0  0  0
   20.6732   73.2886   -7.5274 H   0  0  0  0  0  0  0  0  0  0  0  0
   18.8567   73.2273   -8.0565 H   0  0  0  0  0  0  0  0  0  0  0  0
   22.2247   72.1435   -4.7545 H   0  0  0  0  0  0  0  0  0  0  0  0
   16.0020   69.4740   -5.7372 O   0  0  0  0  0  0  0  0  0  0  0  0
   16.6031   70.4394   -6.5803 C   0  0  0  0  0  0  0  0  0  0  0  0
   15.2753   69.0392   -6.2112 H   0  0  0  0  0  0  0  0  0  0  0  0
 25 28  1  0
 25 24  1  0
 25 26  1  1
 25 27  2  0
  1  4  1  0
  1 24  1  0
  1  2  1  1
  1  3  2  0
  6 11  1  0
  6 12  1  0
 29 36  1  0
 29 37  1  0
  9  7  1  1
  7 13  1  0
 10  8  1  1
  8 14  1  0
 37 28  1  1
  4  5  1  0
 33 30  1  6
 30 38  1  0
 34 31  1  1
 31 39  1  0
 35 32  1  1
 32 40  1  0
 41 42  1  0
 41 43  1  0
 15 19  2  0
 16 22  2  0
 12 17  1  6
 17 19  1  0
 17 20  1  0
 18 19  1  0
 18 22  1  0
 18 23  1  0
  9 10  1  0
  9 11  1  0
 10 12  1  0
 11  5  1  6
 33 34  1  0
 33 35  1  0
 34 36  1  0
 35 37  1  0
 36 42  1  6
 20 21  2  0
 21 22  1  0
M  CHG  2   2  -1  26  -1
M  END
>  <COMPND>  (199) 
    8629 

>  <AUTHOR>  (199) 
    GENERATED BY OPEN BABEL 3.1.1

>  <MASTER>  (199) 
        0    0    0    0    0    0    0    0   58    0   58    0

>  <minimizedAffinity>  (199) 
-8.43316

>  <CNNscore>  (199) 
0.4863969088

>  <CNNaffinity>  (199) 
4.3542203903

>  <CNN_VS>  (199) 
2.1178793907

>  <CNNaffinity_variance>  (199) 
0.2210839689

$$$$
200
     RDKit          3D

 43 45  0  0  0  0  0  0  0  0999 V2000
   20.0034   71.1746   -0.6180 P   0  0  2  0  0  0  0  0  0  0  0  0
   20.9934   70.1649   -1.4041 O   0  0  0  0  0  0  0  0  0  0  0  0
   20.1140   72.6148   -1.0242 O   0  0  0  0  0  0  0  0  0  0  0  0
   20.2887   70.8610    0.9435 O   0  0  0  0  0  0  0  0  0  0  0  0
   21.0659   71.7833    1.6873 C   0  0  0  0  0  0  0  0  0  0  0  0
   23.3162   72.5626    2.0076 O   0  0  0  0  0  0  0  0  0  0  0  0
   24.1576   69.7077    1.6435 O   0  0  0  0  0  0  0  0  0  0  0  0
   24.2448   70.0123    4.3520 O   0  0  0  0  0  0  0  0  0  0  0  0
   22.9926   70.2308    2.2795 C   0  0  1  0  0  0  0  0  0  0  0  0
   23.3513   70.8294    3.6236 C   0  0  2  0  0  0  0  0  0  0  0  0
   22.5406   71.4567    1.4958 C   0  0  1  0  0  0  0  0  0  0  0  0
   23.9690   72.1580    3.2221 C   0  0  2  0  0  0  0  0  0  0  0  0
   24.4647   68.9237    2.1261 H   0  0  0  0  0  0  0  0  0  0  0  0
   23.8055   69.1793    4.5841 H   0  0  0  0  0  0  0  0  0  0  0  0
   26.0324   73.7733    4.2762 O   0  0  0  0  0  0  0  0  0  0  0  0
   23.1083   76.0268    7.0353 O   0  0  0  0  0  0  0  0  0  0  0  0
   23.7750   73.1750    4.2168 N   0  0  0  0  0  0  0  0  0  0  0  0
   24.5747   74.8942    5.6490 N   0  0  0  0  0  0  0  0  0  0  0  0
   24.8781   73.9296    4.6797 C   0  0  0  0  0  0  0  0  0  0  0  0
   22.5022   73.4159    4.7225 C   0  0  0  0  0  0  0  0  0  0  0  0
   22.2298   74.3386    5.6476 C   0  0  0  0  0  0  0  0  0  0  0  0
   23.3264   75.1703    6.1841 C   0  0  0  0  0  0  0  0  0  0  0  0
   25.3276   75.4318    5.9866 H   0  0  0  0  0  0  0  0  0  0  0  0
   18.5466   70.5172   -0.8603 O   0  0  0  0  0  0  0  0  0  0  0  0
   17.7633   70.1456   -2.2246 P   0  0  2  0  0  0  0  0  0  0  0  0
   16.2836   70.7525   -1.9799 O   0  0  0  0  0  0  0  0  0  0  0  0
   17.7843   68.6842   -2.5677 O   0  0  0  0  0  0  0  0  0  0  0  0
   18.4172   71.1053   -3.3454 O   0  0  0  0  0  0  0  0  0  0  0  0
   18.2074   70.2185   -5.5332 O   0  0  0  0  0  0  0  0  0  0  0  0
   20.8409   73.3001   -6.3202 O   0  0  0  0  0  0  0  0  0  0  0  0
   18.1120   73.5100   -7.1902 O   0  0  0  0  0  0  0  0  0  0  0  0
   21.0907   71.7772   -3.8711 O   0  0  0  0  0  0  0  0  0  0  0  0
   19.7442   72.6592   -5.6629 C   0  0  1  0  0  0  0  0  0  0  0  0
   18.6966   72.2993   -6.7182 C   0  0  1  0  0  0  0  0  0  0  0  0
   20.2505   71.4025   -4.9574 C   0  0  2  0  0  0  0  0  0  0  0  0
   17.6177   71.3765   -6.1356 C   0  0  1  0  0  0  0  0  0  0  0  0
   19.0965   70.5308   -4.4590 C   0  0  1  0  0  0  0  0  0  0  0  0
   20.5263   74.0991   -6.7697 H   0  0  0  0  0  0  0  0  0  0  0  0
   18.8039   74.0838   -7.5550 H   0  0  0  0  0  0  0  0  0  0  0  0
   21.8174   72.3284   -4.1997 H   0  0  0  0  0  0  0  0  0  0  0  0
   15.9567   71.9917   -7.7392 O   0  0  0  0  0  0  0  0  0  0  0  0
   16.6513   70.8783   -7.2079 C   0  0  0  0  0  0  0  0  0  0  0  0
   15.3381   71.6897   -8.4232 H   0  0  0  0  0  0  0  0  0  0  0  0
 25 28  1  0
 25 24  1  0
 25 26  1  1
 25 27  2  0
  1  4  1  0
  1 24  1  0
  1  2  1  6
  1  3  2  0
  6 11  1  0
  6 12  1  0
 29 36  1  0
 29 37  1  0
  9  7  1  6
  7 13  1  0
 10  8  1  6
  8 14  1  0
 37 28  1  1
  4  5  1  0
 33 30  1  6
 30 38  1  0
 34 31  1  1
 31 39  1  0
 35 32  1  1
 32 40  1  0
 41 42  1  0
 41 43  1  0
 15 19  2  0
 16 22  2  0
 12 17  1  1
 17 19  1  0
 17 20  1  0
 18 19  1  0
 18 22  1  0
 18 23  1  0
  9 10  1  0
  9 11  1  0
 10 12  1  0
 11  5  1  1
 33 34  1  0
 33 35  1  0
 34 36  1  0
 35 37  1  0
 36 42  1  6
 20 21  2  0
 21 22  1  0
M  CHG  2   2  -1  26  -1
M  END
