1
     RDKit          3D

 43 45  0  0  0  0  0  0  0  0999 V2000
   22.1693   70.3627   -2.1275 P   0  0  2  0  0  0  0  0  0  0  0  0
   23.0849   71.3850   -2.9852 O   0  0  0  0  0  0  0  0  0  0  0  0
   22.7313   68.9790   -1.9815 O   0  0  0  0  0  0  0  0  0  0  0  0
   20.7153   70.4600   -2.8305 O   0  0  0  0  0  0  0  0  0  0  0  0
   20.1680   71.7423   -3.0771 C   0  0  0  0  0  0  0  0  0  0  0  0
   18.1092   72.0079   -4.2890 O   0  0  0  0  0  0  0  0  0  0  0  0
   16.8386   70.3711   -2.1215 O   0  0  0  0  0  0  0  0  0  0  0  0
   17.1548   68.5555   -4.1314 O   0  0  0  0  0  0  0  0  0  0  0  0
   18.1399   70.2540   -2.6972 C   0  0  1  0  0  0  0  0  0  0  0  0
   18.0479   69.6484   -4.0818 C   0  0  2  0  0  0  0  0  0  0  0  0
   18.6492   71.6573   -2.9964 C   0  0  1  0  0  0  0  0  0  0  0  0
   17.5737   70.8293   -4.9116 C   0  0  2  0  0  0  0  0  0  0  0  0
   16.4923   69.4869   -1.9216 H   0  0  0  0  0  0  0  0  0  0  0  0
   17.5013   67.8299   -3.5880 H   0  0  0  0  0  0  0  0  0  0  0  0
   15.9491   70.1585   -7.1223 O   0  0  0  0  0  0  0  0  0  0  0  0
   19.4588   70.6201  -10.0740 O   0  0  0  0  0  0  0  0  0  0  0  0
   18.0372   70.7667   -6.2688 N   0  0  0  0  0  0  0  0  0  0  0  0
   17.6989   70.3881   -8.5901 N   0  0  0  0  0  0  0  0  0  0  0  0
   17.1395   70.4194   -7.3060 C   0  0  0  0  0  0  0  0  0  0  0  0
   19.3660   71.0488   -6.5617 C   0  0  0  0  0  0  0  0  0  0  0  0
   19.8846   71.0149   -7.7908 C   0  0  0  0  0  0  0  0  0  0  0  0
   19.0140   70.6601   -8.9308 C   0  0  0  0  0  0  0  0  0  0  0  0
   17.0938   70.1468   -9.3283 H   0  0  0  0  0  0  0  0  0  0  0  0
   21.9526   71.1520   -0.7336 O   0  0  0  0  0  0  0  0  0  0  0  0
   20.9638   70.8564    0.5109 P   0  0  2  0  0  0  0  0  0  0  0  0
   20.8214   69.2440    0.4952 O   0  0  0  0  0  0  0  0  0  0  0  0
   19.6573   71.5932    0.4478 O   0  0  0  0  0  0  0  0  0  0  0  0
   21.8491   71.1742    1.8215 O   0  0  0  0  0  0  0  0  0  0  0  0
   23.5894   72.5969    2.5673 O   0  0  0  0  0  0  0  0  0  0  0  0
   25.0503   68.8717    3.5953 O   0  0  0  0  0  0  0  0  0  0  0  0
   23.7288   69.2860    1.0230 O   0  0  0  0  0  0  0  0  0  0  0  0
   23.9635   70.6282    5.6408 O   0  0  0  0  0  0  0  0  0  0  0  0
   24.0452   69.8577    3.3595 C   0  0  2  0  0  0  0  0  0  0  0  0
   24.1218   70.3293    1.9071 C   0  0  2  0  0  0  0  0  0  0  0  0
   24.2977   71.0277    4.3130 C   0  0  1  0  0  0  0  0  0  0  0  0
   23.2196   71.5427    1.6777 C   0  0  1  0  0  0  0  0  0  0  0  0
   23.4514   72.2419    3.9414 C   0  0  1  0  0  0  0  0  0  0  0  0
   24.9102   68.1182    3.0003 H   0  0  0  0  0  0  0  0  0  0  0  0
   24.2969   68.5127    1.1633 H   0  0  0  0  0  0  0  0  0  0  0  0
   24.4951   69.8560    5.8897 H   0  0  0  0  0  0  0  0  0  0  0  0
   23.2758   73.6243    5.8281 O   0  0  0  0  0  0  0  0  0  0  0  0
   24.8039   74.2170    4.2429 O   0  0  0  0  0  0  0  0  0  0  0  0
   23.9343   73.4633    4.6536 C   0  0  0  0  0  0  0  0  0  0  0  0
  1  4  1  0
  1 24  1  0
  1  2  1  6
  1  3  2  0
 25 28  1  0
 25 24  1  0
 25 26  1  1
 25 27  2  0
  6 11  1  0
  6 12  1  0
 29 36  1  0
 29 37  1  0
  9  7  1  6
  7 13  1  0
 10  8  1  1
  8 14  1  0
  4  5  1  0
 36 28  1  1
 33 30  1  6
 30 38  1  0
 34 31  1  6
 31 39  1  0
 35 32  1  1
 32 40  1  0
 41 43  1  0
 15 19  2  0
 42 43  2  0
 16 22  2  0
 12 17  1  6
 17 19  1  0
 17 20  1  0
 18 19  1  0
 18 22  1  0
 18 23  1  0
  9 10  1  0
  9 11  1  0
 10 12  1  0
 11  5  1  6
 33 34  1  0
 33 35  1  0
 34 36  1  0
 35 37  1  0
 37 43  1  1
 20 21  2  0
 21 22  1  0
M  CHG  3   2  -1  26  -1  41  -1
M  END
>  <COMPND>  (1) 
    udp_gluA.pdb 

>  <AUTHOR>  (1) 
    GENERATED BY OPEN BABEL 3.1.1

>  <MASTER>  (1) 
        0    0    0    0    0    0    0    0   56    0   56    0

>  <minimizedAffinity>  (1) 
-8.40179

>  <CNNscore>  (1) 
0.7400413752

>  <CNNaffinity>  (1) 
4.6990380287

>  <CNN_VS>  (1) 
3.4774825573

>  <CNNaffinity_variance>  (1) 
0.0537239835

$$$$
2
     RDKit          3D

 43 45  0  0  0  0  0  0  0  0999 V2000
   22.8845   69.8136   -2.0929 P   0  0  2  0  0  0  0  0  0  0  0  0
   23.7780   70.8473   -2.9601 O   0  0  0  0  0  0  0  0  0  0  0  0
   23.3649   68.3921   -2.1102 O   0  0  0  0  0  0  0  0  0  0  0  0
   21.3786   70.0530   -2.6340 O   0  0  0  0  0  0  0  0  0  0  0  0
   21.1102   71.2172   -3.3936 C   0  0  0  0  0  0  0  0  0  0  0  0
   19.1425   72.1326   -4.4271 O   0  0  0  0  0  0  0  0  0  0  0  0
   17.6213   70.9958   -2.1065 O   0  0  0  0  0  0  0  0  0  0  0  0
   17.1479   69.1738   -4.0794 O   0  0  0  0  0  0  0  0  0  0  0  0
   18.7561   70.4641   -2.7907 C   0  0  1  0  0  0  0  0  0  0  0  0
   18.3455   69.9196   -4.1424 C   0  0  2  0  0  0  0  0  0  0  0  0
   19.6593   71.6275   -3.1768 C   0  0  1  0  0  0  0  0  0  0  0  0
   18.2009   71.1897   -4.9634 C   0  0  2  0  0  0  0  0  0  0  0  0
   17.0293   70.2710   -1.8497 H   0  0  0  0  0  0  0  0  0  0  0  0
   17.2918   68.3755   -3.5464 H   0  0  0  0  0  0  0  0  0  0  0  0
   16.2920   70.3989   -6.8888 O   0  0  0  0  0  0  0  0  0  0  0  0
   19.4259   70.4133  -10.2685 O   0  0  0  0  0  0  0  0  0  0  0  0
   18.4908   70.9795   -6.3536 N   0  0  0  0  0  0  0  0  0  0  0  0
   17.8549   70.4059   -8.5700 N   0  0  0  0  0  0  0  0  0  0  0  0
   17.4596   70.5828   -7.2375 C   0  0  0  0  0  0  0  0  0  0  0  0
   19.7830   71.1677   -6.8287 C   0  0  0  0  0  0  0  0  0  0  0  0
   20.1445   70.9953   -8.1017 C   0  0  0  0  0  0  0  0  0  0  0  0
   19.1272   70.5802   -9.0898 C   0  0  0  0  0  0  0  0  0  0  0  0
   17.1547   70.1277   -9.2038 H   0  0  0  0  0  0  0  0  0  0  0  0
   22.8575   70.4974   -0.6285 O   0  0  0  0  0  0  0  0  0  0  0  0
   22.2864   69.9579    0.7845 P   0  0  2  0  0  0  0  0  0  0  0  0
   23.4797   69.0084    1.3274 O   0  0  0  0  0  0  0  0  0  0  0  0
   20.9505   69.2793    0.6900 O   0  0  0  0  0  0  0  0  0  0  0  0
   22.3162   71.2452    1.7563 O   0  0  0  0  0  0  0  0  0  0  0  0
   20.7021   72.6440    0.7331 O   0  0  0  0  0  0  0  0  0  0  0  0
   21.3958   74.6244    4.2918 O   0  0  0  0  0  0  0  0  0  0  0  0
   23.6164   73.4830    2.7750 O   0  0  0  0  0  0  0  0  0  0  0  0
   18.9607   73.0775    3.9334 O   0  0  0  0  0  0  0  0  0  0  0  0
   21.2811   73.4902    3.4325 C   0  0  2  0  0  0  0  0  0  0  0  0
   22.2861   73.6123    2.2869 C   0  0  2  0  0  0  0  0  0  0  0  0
   19.8523   73.4539    2.8855 C   0  0  1  0  0  0  0  0  0  0  0  0
   22.0386   72.5397    1.2253 C   0  0  1  0  0  0  0  0  0  0  0  0
   19.7175   72.4484    1.7457 C   0  0  1  0  0  0  0  0  0  0  0  0
   22.2959   74.6682    4.6514 H   0  0  0  0  0  0  0  0  0  0  0  0
   23.7802   74.1604    3.4493 H   0  0  0  0  0  0  0  0  0  0  0  0
   19.0368   73.7095    4.6653 H   0  0  0  0  0  0  0  0  0  0  0  0
   17.3752   72.3347    1.7955 O   0  0  0  0  0  0  0  0  0  0  0  0
   18.3409   73.0483   -0.1429 O   0  0  0  0  0  0  0  0  0  0  0  0
   18.4336   72.6508    1.0088 C   0  0  0  0  0  0  0  0  0  0  0  0
  1  4  1  0
  1 24  1  0
  1  2  1  6
  1  3  2  0
 25 28  1  0
 25 24  1  0
 25 26  1  1
 25 27  2  0
  6 11  1  0
  6 12  1  0
 29 36  1  0
 29 37  1  0
  9  7  1  6
  7 13  1  0
 10  8  1  1
  8 14  1  0
  4  5  1  0
 36 28  1  1
 33 30  1  1
 30 38  1  0
 34 31  1  1
 31 39  1  0
 35 32  1  1
 32 40  1  0
 41 43  1  0
 15 19  2  0
 42 43  2  0
 16 22  2  0
 12 17  1  6
 17 19  1  0
 17 20  1  0
 18 19  1  0
 18 22  1  0
 18 23  1  0
  9 10  1  0
  9 11  1  0
 10 12  1  0
 11  5  1  6
 33 34  1  0
 33 35  1  0
 34 36  1  0
 35 37  1  0
 37 43  1  6
 20 21  2  0
 21 22  1  0
M  CHG  3   2  -1  26  -1  41  -1
M  END
>  <COMPND>  (2) 
    udp_gluA.pdb 

>  <AUTHOR>  (2) 
    GENERATED BY OPEN BABEL 3.1.1

>  <MASTER>  (2) 
        0    0    0    0    0    0    0    0   56    0   56    0

>  <minimizedAffinity>  (2) 
-7.97203

>  <CNNscore>  (2) 
0.7177559137

>  <CNNaffinity>  (2) 
4.7366766930

>  <CNN_VS>  (2) 
3.3997776508

>  <CNNaffinity_variance>  (2) 
0.1028258204

$$$$
3
     RDKit          3D

 43 45  0  0  0  0  0  0  0  0999 V2000
   22.2355   71.3553   -2.0379 P   0  0  2  0  0  0  0  0  0  0  0  0
   22.7775   72.6707   -1.2667 O   0  0  0  0  0  0  0  0  0  0  0  0
   22.6843   71.2271   -3.4641 O   0  0  0  0  0  0  0  0  0  0  0  0
   20.6348   71.4012   -1.8065 O   0  0  0  0  0  0  0  0  0  0  0  0
   19.8480   72.1918   -2.6785 C   0  0  0  0  0  0  0  0  0  0  0  0
   17.7638   71.9499   -3.8513 O   0  0  0  0  0  0  0  0  0  0  0  0
   16.9478   70.0971   -1.6394 O   0  0  0  0  0  0  0  0  0  0  0  0
   17.6452   68.3732   -3.6339 O   0  0  0  0  0  0  0  0  0  0  0  0
   18.2305   70.2776   -2.2400 C   0  0  1  0  0  0  0  0  0  0  0  0
   18.2590   69.6450   -3.6152 C   0  0  2  0  0  0  0  0  0  0  0  0
   18.3927   71.7560   -2.5659 C   0  0  1  0  0  0  0  0  0  0  0  0
   17.5080   70.6691   -4.4490 C   0  0  2  0  0  0  0  0  0  0  0  0
   16.8212   69.1598   -1.4222 H   0  0  0  0  0  0  0  0  0  0  0  0
   18.1608   67.7574   -3.0891 H   0  0  0  0  0  0  0  0  0  0  0  0
   15.9053   69.9419   -6.6580 O   0  0  0  0  0  0  0  0  0  0  0  0
   19.3089   70.8048   -9.6438 O   0  0  0  0  0  0  0  0  0  0  0  0
   17.9501   70.6944   -5.8146 N   0  0  0  0  0  0  0  0  0  0  0  0
   17.6023   70.3714   -8.1429 N   0  0  0  0  0  0  0  0  0  0  0  0
   17.0660   70.3093   -6.8500 C   0  0  0  0  0  0  0  0  0  0  0  0
   19.2447   71.0986   -6.1171 C   0  0  0  0  0  0  0  0  0  0  0  0
   19.7417   71.1527   -7.3544 C   0  0  0  0  0  0  0  0  0  0  0  0
   18.8834   70.7661   -8.4933 C   0  0  0  0  0  0  0  0  0  0  0  0
   17.0063   70.1061   -8.8802 H   0  0  0  0  0  0  0  0  0  0  0  0
   22.7078   70.1481   -1.0722 O   0  0  0  0  0  0  0  0  0  0  0  0
   22.2768   69.7668    0.4386 P   0  0  2  0  0  0  0  0  0  0  0  0
   23.3313   68.6069    0.8424 O   0  0  0  0  0  0  0  0  0  0  0  0
   20.8360   69.3716    0.5868 O   0  0  0  0  0  0  0  0  0  0  0  0
   22.7157   71.0421    1.3236 O   0  0  0  0  0  0  0  0  0  0  0  0
   22.6976   71.5630    3.6339 O   0  0  0  0  0  0  0  0  0  0  0  0
   21.4979   75.1424    1.9558 O   0  0  0  0  0  0  0  0  0  0  0  0
   20.4486   72.6091    0.9480 O   0  0  0  0  0  0  0  0  0  0  0  0
   24.2062   74.8407    2.9684 O   0  0  0  0  0  0  0  0  0  0  0  0
   22.2024   73.9022    2.0149 C   0  0  2  0  0  0  0  0  0  0  0  0
   21.2036   72.7521    2.1456 C   0  0  2  0  0  0  0  0  0  0  0  0
   23.1298   73.9426    3.2316 C   0  0  1  0  0  0  0  0  0  0  0  0
   21.9218   71.4348    2.4418 C   0  0  1  0  0  0  0  0  0  0  0  0
   23.7084   72.5641    3.5371 C   0  0  1  0  0  0  0  0  0  0  0  0
   20.9021   75.1399    1.1901 H   0  0  0  0  0  0  0  0  0  0  0  0
   19.9904   73.4414    0.7539 H   0  0  0  0  0  0  0  0  0  0  0  0
   23.8514   75.7219    2.7722 H   0  0  0  0  0  0  0  0  0  0  0  0
   23.6396   73.3226    5.7555 O   0  0  0  0  0  0  0  0  0  0  0  0
   25.3346   71.9048    5.1931 O   0  0  0  0  0  0  0  0  0  0  0  0
   24.3350   72.5404    4.8932 C   0  0  0  0  0  0  0  0  0  0  0  0
  1  4  1  0
  1 24  1  0
  1  2  1  1
  1  3  2  0
 25 28  1  0
 25 24  1  0
 25 26  1  1
 25 27  2  0
  6 11  1  0
  6 12  1  0
 29 36  1  0
 29 37  1  0
  9  7  1  6
  7 13  1  0
 10  8  1  1
  8 14  1  0
  4  5  1  0
 36 28  1  6
 33 30  1  1
 30 38  1  0
 34 31  1  6
 31 39  1  0
 35 32  1  6
 32 40  1  0
 41 43  1  0
 15 19  2  0
 42 43  2  0
 16 22  2  0
 12 17  1  6
 17 19  1  0
 17 20  1  0
 18 19  1  0
 18 22  1  0
 18 23  1  0
  9 10  1  0
  9 11  1  0
 10 12  1  0
 11  5  1  6
 33 34  1  0
 33 35  1  0
 34 36  1  0
 35 37  1  0
 37 43  1  1
 20 21  2  0
 21 22  1  0
M  CHG  3   2  -1  26  -1  41  -1
M  END
>  <COMPND>  (3) 
    udp_gluA.pdb 

>  <AUTHOR>  (3) 
    GENERATED BY OPEN BABEL 3.1.1

>  <MASTER>  (3) 
        0    0    0    0    0    0    0    0   56    0   56    0

>  <minimizedAffinity>  (3) 
-8.48159

>  <CNNscore>  (3) 
0.7096815705

>  <CNNaffinity>  (3) 
4.6881008148

>  <CNN_VS>  (3) 
3.3270587921

>  <CNNaffinity_variance>  (3) 
0.0264261812

$$$$
4
     RDKit          3D

 43 45  0  0  0  0  0  0  0  0999 V2000
   22.3028   73.1096   -2.5323 P   0  0  2  0  0  0  0  0  0  0  0  0
   22.1763   74.6588   -2.9829 O   0  0  0  0  0  0  0  0  0  0  0  0
   23.1446   72.2544   -3.4332 O   0  0  0  0  0  0  0  0  0  0  0  0
   20.7680   72.6333   -2.3439 O   0  0  0  0  0  0  0  0  0  0  0  0
   19.8182   73.0092   -3.3243 C   0  0  0  0  0  0  0  0  0  0  0  0
   17.8165   72.1359   -4.3284 O   0  0  0  0  0  0  0  0  0  0  0  0
   17.5616   70.4191   -1.8832 O   0  0  0  0  0  0  0  0  0  0  0  0
   18.5888   68.6876   -3.7224 O   0  0  0  0  0  0  0  0  0  0  0  0
   18.7379   70.8292   -2.5807 C   0  0  1  0  0  0  0  0  0  0  0  0
   18.8713   70.0624   -3.8794 C   0  0  2  0  0  0  0  0  0  0  0  0
   18.5198   72.2535   -3.0726 C   0  0  1  0  0  0  0  0  0  0  0  0
   17.8620   70.7692   -4.7680 C   0  0  2  0  0  0  0  0  0  0  0  0
   17.6771   69.5117   -1.5593 H   0  0  0  0  0  0  0  0  0  0  0  0
   19.2593   68.2831   -3.1491 H   0  0  0  0  0  0  0  0  0  0  0  0
   16.1134   70.0729   -6.8738 O   0  0  0  0  0  0  0  0  0  0  0  0
   19.4005   70.6785  -10.0474 O   0  0  0  0  0  0  0  0  0  0  0  0
   18.2347   70.7367   -6.1540 N   0  0  0  0  0  0  0  0  0  0  0  0
   17.7525   70.3742   -8.4523 N   0  0  0  0  0  0  0  0  0  0  0  0
   17.2802   70.3732   -7.1332 C   0  0  0  0  0  0  0  0  0  0  0  0
   19.5314   71.0638   -6.5313 C   0  0  0  0  0  0  0  0  0  0  0  0
   19.9669   71.0603   -7.7927 C   0  0  0  0  0  0  0  0  0  0  0  0
   19.0328   70.6913   -8.8766 C   0  0  0  0  0  0  0  0  0  0  0  0
   17.1067   70.1225   -9.1515 H   0  0  0  0  0  0  0  0  0  0  0  0
   22.8392   73.2168   -1.0112 O   0  0  0  0  0  0  0  0  0  0  0  0
   22.3880   74.1776    0.2082 P   0  0  2  0  0  0  0  0  0  0  0  0
   20.7747   74.0444    0.2065 O   0  0  0  0  0  0  0  0  0  0  0  0
   22.8922   75.5876    0.1003 O   0  0  0  0  0  0  0  0  0  0  0  0
   22.8595   73.3980    1.5395 O   0  0  0  0  0  0  0  0  0  0  0  0
   21.7136   71.3253    1.5251 O   0  0  0  0  0  0  0  0  0  0  0  0
   24.0484   70.9715    4.9150 O   0  0  0  0  0  0  0  0  0  0  0  0
   22.6813   73.4823    4.3139 O   0  0  0  0  0  0  0  0  0  0  0  0
   24.7804   69.5544    2.4846 O   0  0  0  0  0  0  0  0  0  0  0  0
   23.7235   71.4122    3.5966 C   0  0  2  0  0  0  0  0  0  0  0  0
   22.4468   72.2524    3.6379 C   0  0  2  0  0  0  0  0  0  0  0  0
   23.5176   70.1739    2.7213 C   0  0  1  0  0  0  0  0  0  0  0  0
   21.9411   72.5490    2.2254 C   0  0  1  0  0  0  0  0  0  0  0  0
   22.8938   70.5390    1.3774 C   0  0  1  0  0  0  0  0  0  0  0  0
   24.1838   71.7416    5.4894 H   0  0  0  0  0  0  0  0  0  0  0  0
   23.0028   73.3017    5.2108 H   0  0  0  0  0  0  0  0  0  0  0  0
   25.1881   69.3171    3.3321 H   0  0  0  0  0  0  0  0  0  0  0  0
   21.0428   69.2666    0.7021 O   0  0  0  0  0  0  0  0  0  0  0  0
   23.1074   68.4781    0.1412 O   0  0  0  0  0  0  0  0  0  0  0  0
   22.3976   69.3180    0.6737 C   0  0  0  0  0  0  0  0  0  0  0  0
  1  4  1  0
  1 24  1  0
  1  2  1  6
  1  3  2  0
 25 28  1  0
 25 24  1  0
 25 26  1  1
 25 27  2  0
  6 11  1  0
  6 12  1  0
 29 36  1  0
 29 37  1  0
  9  7  1  6
  7 13  1  0
 10  8  1  1
  8 14  1  0
  4  5  1  0
 36 28  1  6
 33 30  1  1
 30 38  1  0
 34 31  1  6
 31 39  1  0
 35 32  1  6
 32 40  1  0
 41 43  1  0
 15 19  2  0
 42 43  2  0
 16 22  2  0
 12 17  1  6
 17 19  1  0
 17 20  1  0
 18 19  1  0
 18 22  1  0
 18 23  1  0
  9 10  1  0
  9 11  1  0
 10 12  1  0
 11  5  1  6
 33 34  1  0
 33 35  1  0
 34 36  1  0
 35 37  1  0
 37 43  1  1
 20 21  2  0
 21 22  1  0
M  CHG  3   2  -1  26  -1  41  -1
M  END
>  <COMPND>  (4) 
    udp_gluA.pdb 

>  <AUTHOR>  (4) 
    GENERATED BY OPEN BABEL 3.1.1

>  <MASTER>  (4) 
        0    0    0    0    0    0    0    0   56    0   56    0

>  <minimizedAffinity>  (4) 
-8.17322

>  <CNNscore>  (4) 
0.7007417083

>  <CNNaffinity>  (4) 
4.5818309784

>  <CNN_VS>  (4) 
3.2106800079

>  <CNNaffinity_variance>  (4) 
0.0200997069

$$$$
5
     RDKit          3D

 43 45  0  0  0  0  0  0  0  0999 V2000
   19.6404   73.0101   -1.1706 P   0  0  2  0  0  0  0  0  0  0  0  0
   20.5728   73.9499   -2.1014 O   0  0  0  0  0  0  0  0  0  0  0  0
   19.9358   71.5413   -1.2562 O   0  0  0  0  0  0  0  0  0  0  0  0
   18.1330   73.4477   -1.5633 O   0  0  0  0  0  0  0  0  0  0  0  0
   17.7854   73.5201   -2.9339 C   0  0  0  0  0  0  0  0  0  0  0  0
   16.4223   72.4396   -4.5929 O   0  0  0  0  0  0  0  0  0  0  0  0
   15.2592   70.8489   -2.3327 O   0  0  0  0  0  0  0  0  0  0  0  0
   17.0358   69.1009   -3.4391 O   0  0  0  0  0  0  0  0  0  0  0  0
   16.5981   71.3086   -2.5190 C   0  0  1  0  0  0  0  0  0  0  0  0
   17.2930   70.4824   -3.5805 C   0  0  2  0  0  0  0  0  0  0  0  0
   16.5364   72.6818   -3.1738 C   0  0  1  0  0  0  0  0  0  0  0  0
   16.7100   71.0578   -4.8599 C   0  0  2  0  0  0  0  0  0  0  0  0
   15.2729   69.9728   -1.9155 H   0  0  0  0  0  0  0  0  0  0  0  0
   17.4272   68.7824   -2.6100 H   0  0  0  0  0  0  0  0  0  0  0  0
   15.9329   70.6859   -7.5496 O   0  0  0  0  0  0  0  0  0  0  0  0
   20.3029   70.7589   -9.0131 O   0  0  0  0  0  0  0  0  0  0  0  0
   17.6240   70.9760   -5.9638 N   0  0  0  0  0  0  0  0  0  0  0  0
   18.1102   70.7216   -8.2758 N   0  0  0  0  0  0  0  0  0  0  0  0
   17.1304   70.7878   -7.2765 C   0  0  0  0  0  0  0  0  0  0  0  0
   18.9915   71.0835   -5.7415 C   0  0  0  0  0  0  0  0  0  0  0  0
   19.9133   71.0186   -6.7042 C   0  0  0  0  0  0  0  0  0  0  0  0
   19.4812   70.8225   -8.1036 C   0  0  0  0  0  0  0  0  0  0  0  0
   17.7908   70.5889   -9.1976 H   0  0  0  0  0  0  0  0  0  0  0  0
   19.8332   73.6511    0.3007 O   0  0  0  0  0  0  0  0  0  0  0  0
   19.5357   73.0452    1.7697 P   0  0  2  0  0  0  0  0  0  0  0  0
   18.2288   72.1205    1.5307 O   0  0  0  0  0  0  0  0  0  0  0  0
   19.3713   74.0829    2.8421 O   0  0  0  0  0  0  0  0  0  0  0  0
   20.7340   71.9970    2.0305 O   0  0  0  0  0  0  0  0  0  0  0  0
   22.8123   73.0685    2.4073 O   0  0  0  0  0  0  0  0  0  0  0  0
   23.9351   69.0969    2.2234 O   0  0  0  0  0  0  0  0  0  0  0  0
   21.9768   70.1709    0.3403 O   0  0  0  0  0  0  0  0  0  0  0  0
   23.7955   70.4565    4.7891 O   0  0  0  0  0  0  0  0  0  0  0  0
   23.0669   70.1939    2.5077 C   0  0  2  0  0  0  0  0  0  0  0  0
   22.7713   70.9601    1.2181 C   0  0  2  0  0  0  0  0  0  0  0  0
   23.7693   71.1034    3.5182 C   0  0  1  0  0  0  0  0  0  0  0  0
   22.0362   72.2679    1.5150 C   0  0  1  0  0  0  0  0  0  0  0  0
   23.0438   72.4379    3.6650 C   0  0  1  0  0  0  0  0  0  0  0  0
   23.5097   68.5051    1.5830 H   0  0  0  0  0  0  0  0  0  0  0  0
   22.4371   69.3393    0.1479 H   0  0  0  0  0  0  0  0  0  0  0  0
   24.2545   69.6057    4.7095 H   0  0  0  0  0  0  0  0  0  0  0  0
   23.7907   73.2684    5.7275 O   0  0  0  0  0  0  0  0  0  0  0  0
   24.6013   74.2715    3.8472 O   0  0  0  0  0  0  0  0  0  0  0  0
   23.8981   73.4296    4.3853 C   0  0  0  0  0  0  0  0  0  0  0  0
  1  4  1  0
  1 24  1  0
  1  2  1  6
  1  3  2  0
 25 28  1  0
 25 24  1  0
 25 26  1  6
 25 27  2  0
  6 11  1  0
  6 12  1  0
 29 36  1  0
 29 37  1  0
  9  7  1  6
  7 13  1  0
 10  8  1  1
  8 14  1  0
  4  5  1  0
 36 28  1  1
 33 30  1  6
 30 38  1  0
 34 31  1  6
 31 39  1  0
 35 32  1  1
 32 40  1  0
 41 43  1  0
 15 19  2  0
 42 43  2  0
 16 22  2  0
 12 17  1  6
 17 19  1  0
 17 20  1  0
 18 19  1  0
 18 22  1  0
 18 23  1  0
  9 10  1  0
  9 11  1  0
 10 12  1  0
 11  5  1  6
 33 34  1  0
 33 35  1  0
 34 36  1  0
 35 37  1  0
 37 43  1  1
 20 21  2  0
 21 22  1  0
M  CHG  3   2  -1  26  -1  41  -1
M  END
>  <COMPND>  (5) 
    udp_gluA.pdb 

>  <AUTHOR>  (5) 
    GENERATED BY OPEN BABEL 3.1.1

>  <MASTER>  (5) 
        0    0    0    0    0    0    0    0   56    0   56    0

>  <minimizedAffinity>  (5) 
-7.06887

>  <CNNscore>  (5) 
0.6363781095

>  <CNNaffinity>  (5) 
4.4336557388

>  <CNN_VS>  (5) 
2.8214814663

>  <CNNaffinity_variance>  (5) 
0.0137446718

$$$$
6
     RDKit          3D

 43 45  0  0  0  0  0  0  0  0999 V2000
   19.7751   75.6216   -3.3850 P   0  0  2  0  0  0  0  0  0  0  0  0
   19.2948   76.9825   -2.6527 O   0  0  0  0  0  0  0  0  0  0  0  0
   19.9458   75.7285   -4.8720 O   0  0  0  0  0  0  0  0  0  0  0  0
   18.7127   74.5117   -2.8777 O   0  0  0  0  0  0  0  0  0  0  0  0
   17.7769   73.9970   -3.8072 C   0  0  0  0  0  0  0  0  0  0  0  0
   16.8942   71.8609   -4.4671 O   0  0  0  0  0  0  0  0  0  0  0  0
   17.7115   70.8922   -1.7495 O   0  0  0  0  0  0  0  0  0  0  0  0
   19.7116   69.9486   -3.3449 O   0  0  0  0  0  0  0  0  0  0  0  0
   18.3608   71.8310   -2.6073 C   0  0  1  0  0  0  0  0  0  0  0  0
   19.0283   71.1126   -3.7607 C   0  0  2  0  0  0  0  0  0  0  0  0
   17.2846   72.6415   -3.3167 C   0  0  1  0  0  0  0  0  0  0  0  0
   17.8480   70.8056   -4.6666 C   0  0  2  0  0  0  0  0  0  0  0  0
   18.3790   70.3625   -1.2853 H   0  0  0  0  0  0  0  0  0  0  0  0
   20.4539   70.1971   -2.7711 H   0  0  0  0  0  0  0  0  0  0  0  0
   16.1376   69.9597   -6.7488 O   0  0  0  0  0  0  0  0  0  0  0  0
   19.3711   70.6946   -9.9501 O   0  0  0  0  0  0  0  0  0  0  0  0
   18.2172   70.7659   -6.0533 N   0  0  0  0  0  0  0  0  0  0  0  0
   17.7500   70.3256   -8.3411 N   0  0  0  0  0  0  0  0  0  0  0  0
   17.2832   70.3244   -7.0201 C   0  0  0  0  0  0  0  0  0  0  0  0
   19.4905   71.1626   -6.4436 C   0  0  0  0  0  0  0  0  0  0  0  0
   19.9210   71.1584   -7.7067 C   0  0  0  0  0  0  0  0  0  0  0  0
   19.0072   70.7104   -8.7781 C   0  0  0  0  0  0  0  0  0  0  0  0
   17.1182   70.0203   -9.0317 H   0  0  0  0  0  0  0  0  0  0  0  0
   21.1209   75.2314   -2.5790 O   0  0  0  0  0  0  0  0  0  0  0  0
   22.0191   73.8874   -2.6007 P   0  0  2  0  0  0  0  0  0  0  0  0
   23.5222   74.4433   -2.3731 O   0  0  0  0  0  0  0  0  0  0  0  0
   21.8490   73.0529   -3.8371 O   0  0  0  0  0  0  0  0  0  0  0  0
   21.6530   73.1283   -1.2251 O   0  0  0  0  0  0  0  0  0  0  0  0
   22.9425   72.8584    0.7431 O   0  0  0  0  0  0  0  0  0  0  0  0
   20.7277   69.3711    0.7042 O   0  0  0  0  0  0  0  0  0  0  0  0
   21.8969   70.4104   -1.7630 O   0  0  0  0  0  0  0  0  0  0  0  0
   20.0352   71.5192    2.5365 O   0  0  0  0  0  0  0  0  0  0  0  0
   20.9861   70.7536    0.4593 C   0  0  2  0  0  0  0  0  0  0  0  0
   22.2005   70.8923   -0.4591 C   0  0  2  0  0  0  0  0  0  0  0  0
   21.2566   71.4298    1.8052 C   0  0  1  0  0  0  0  0  0  0  0  0
   22.6469   72.3516   -0.5590 C   0  0  1  0  0  0  0  0  0  0  0  0
   21.8176   72.8366    1.6190 C   0  0  1  0  0  0  0  0  0  0  0  0
   20.5530   68.9206   -0.1371 H   0  0  0  0  0  0  0  0  0  0  0  0
   21.6125   69.4849   -1.7071 H   0  0  0  0  0  0  0  0  0  0  0  0
   19.6675   70.6304    2.6617 H   0  0  0  0  0  0  0  0  0  0  0  0
   23.6155   73.8820    2.7036 O   0  0  0  0  0  0  0  0  0  0  0  0
   21.8131   73.3210    3.9827 O   0  0  0  0  0  0  0  0  0  0  0  0
   22.3809   73.3571    2.9013 C   0  0  0  0  0  0  0  0  0  0  0  0
  1  4  1  0
  1 24  1  0
  1  2  1  1
  1  3  2  0
 25 28  1  0
 25 24  1  0
 25 26  1  1
 25 27  2  0
  6 11  1  0
  6 12  1  0
 29 36  1  0
 29 37  1  0
  9  7  1  1
  7 13  1  0
 10  8  1  1
  8 14  1  0
  4  5  1  0
 36 28  1  1
 33 30  1  1
 30 38  1  0
 34 31  1  6
 31 39  1  0
 35 32  1  1
 32 40  1  0
 41 43  1  0
 15 19  2  0
 42 43  2  0
 16 22  2  0
 12 17  1  6
 17 19  1  0
 17 20  1  0
 18 19  1  0
 18 22  1  0
 18 23  1  0
  9 10  1  0
  9 11  1  0
 10 12  1  0
 11  5  1  6
 33 34  1  0
 33 35  1  0
 34 36  1  0
 35 37  1  0
 37 43  1  1
 20 21  2  0
 21 22  1  0
M  CHG  3   2  -1  26  -1  41  -1
M  END
>  <COMPND>  (6) 
    udp_gluA.pdb 

>  <AUTHOR>  (6) 
    GENERATED BY OPEN BABEL 3.1.1

>  <MASTER>  (6) 
        0    0    0    0    0    0    0    0   56    0   56    0

>  <minimizedAffinity>  (6) 
-6.52267

>  <CNNscore>  (6) 
0.5111209154

>  <CNNaffinity>  (6) 
4.3053297997

>  <CNN_VS>  (6) 
2.2005441189

>  <CNNaffinity_variance>  (6) 
0.1520092338

$$$$
7
     RDKit          3D

 43 45  0  0  0  0  0  0  0  0999 V2000
   22.3999   71.1297   -2.6088 P   0  0  2  0  0  0  0  0  0  0  0  0
   21.6713   72.3903   -1.9025 O   0  0  0  0  0  0  0  0  0  0  0  0
   23.4993   71.4877   -3.5653 O   0  0  0  0  0  0  0  0  0  0  0  0
   21.1769   70.2735   -3.2327 O   0  0  0  0  0  0  0  0  0  0  0  0
   20.0870   70.9712   -3.8069 C   0  0  0  0  0  0  0  0  0  0  0  0
   17.9255   71.8747   -3.2690 O   0  0  0  0  0  0  0  0  0  0  0  0
   17.4535   69.3405   -1.7372 O   0  0  0  0  0  0  0  0  0  0  0  0
   16.0888   68.8979   -4.0562 O   0  0  0  0  0  0  0  0  0  0  0  0
   18.1628   69.5382   -2.9604 C   0  0  1  0  0  0  0  0  0  0  0  0
   17.1914   69.7794   -4.0964 C   0  0  2  0  0  0  0  0  0  0  0  0
   18.8880   70.8740   -2.8722 C   0  0  1  0  0  0  0  0  0  0  0  0
   16.7915   71.2270   -3.8674 C   0  0  2  0  0  0  0  0  0  0  0  0
   16.9819   68.4930   -1.7698 H   0  0  0  0  0  0  0  0  0  0  0  0
   16.3953   67.9896   -4.2076 H   0  0  0  0  0  0  0  0  0  0  0  0
   17.5530   70.3419   -6.4390 O   0  0  0  0  0  0  0  0  0  0  0  0
   15.4578   73.9016   -8.4843 O   0  0  0  0  0  0  0  0  0  0  0  0
   16.4585   71.9034   -5.0891 N   0  0  0  0  0  0  0  0  0  0  0  0
   16.5096   72.1162   -7.4552 N   0  0  0  0  0  0  0  0  0  0  0  0
   16.8901   71.3751   -6.3287 C   0  0  0  0  0  0  0  0  0  0  0  0
   15.7115   73.0745   -5.0521 C   0  0  0  0  0  0  0  0  0  0  0  0
   15.3564   73.7698   -6.1343 C   0  0  0  0  0  0  0  0  0  0  0  0
   15.7680   73.2865   -7.4686 C   0  0  0  0  0  0  0  0  0  0  0  0
   16.8003   71.7692   -8.3295 H   0  0  0  0  0  0  0  0  0  0  0  0
   22.8687   70.2298   -1.3505 O   0  0  0  0  0  0  0  0  0  0  0  0
   22.1969   70.0054    0.1028 P   0  0  2  0  0  0  0  0  0  0  0  0
   23.2541   69.0361    0.8532 O   0  0  0  0  0  0  0  0  0  0  0  0
   20.7940   69.4727    0.0571 O   0  0  0  0  0  0  0  0  0  0  0  0
   22.3488   71.4280    0.8481 O   0  0  0  0  0  0  0  0  0  0  0  0
   22.2843   71.3230    3.2132 O   0  0  0  0  0  0  0  0  0  0  0  0
   22.0549   75.3936    2.5460 O   0  0  0  0  0  0  0  0  0  0  0  0
   20.5312   73.5330    0.8875 O   0  0  0  0  0  0  0  0  0  0  0  0
   24.5435   74.2032    3.4630 O   0  0  0  0  0  0  0  0  0  0  0  0
   22.4523   74.0492    2.2763 C   0  0  2  0  0  0  0  0  0  0  0  0
   21.2110   73.1772    2.0857 C   0  0  2  0  0  0  0  0  0  0  0  0
   23.2748   73.5514    3.4669 C   0  0  1  0  0  0  0  0  0  0  0  0
   21.5872   71.6961    2.0240 C   0  0  1  0  0  0  0  0  0  0  0  0
   23.5008   72.0439    3.3966 C   0  0  1  0  0  0  0  0  0  0  0  0
   21.5306   75.7312    1.8027 H   0  0  0  0  0  0  0  0  0  0  0  0
   20.2898   74.4716    0.9197 H   0  0  0  0  0  0  0  0  0  0  0  0
   24.4138   75.1635    3.5073 H   0  0  0  0  0  0  0  0  0  0  0  0
   23.3862   70.3603    5.0256 O   0  0  0  0  0  0  0  0  0  0  0  0
   24.8628   72.0596    5.3881 O   0  0  0  0  0  0  0  0  0  0  0  0
   24.0067   71.5218    4.7019 C   0  0  0  0  0  0  0  0  0  0  0  0
  1  4  1  0
  1 24  1  0
  1  2  1  1
  1  3  2  0
 25 28  1  0
 25 24  1  0
 25 26  1  1
 25 27  2  0
  6 11  1  0
  6 12  1  0
 29 36  1  0
 29 37  1  0
  9  7  1  1
  7 13  1  0
 10  8  1  1
  8 14  1  0
  4  5  1  0
 36 28  1  6
 33 30  1  1
 30 38  1  0
 34 31  1  6
 31 39  1  0
 35 32  1  6
 32 40  1  0
 41 43  1  0
 15 19  2  0
 42 43  2  0
 16 22  2  0
 12 17  1  6
 17 19  1  0
 17 20  1  0
 18 19  1  0
 18 22  1  0
 18 23  1  0
  9 10  1  0
  9 11  1  0
 10 12  1  0
 11  5  1  6
 33 34  1  0
 33 35  1  0
 34 36  1  0
 35 37  1  0
 37 43  1  1
 20 21  2  0
 21 22  1  0
M  CHG  3   2  -1  26  -1  41  -1
M  END
>  <COMPND>  (7) 
    udp_gluA.pdb 

>  <AUTHOR>  (7) 
    GENERATED BY OPEN BABEL 3.1.1

>  <MASTER>  (7) 
        0    0    0    0    0    0    0    0   56    0   56    0

>  <minimizedAffinity>  (7) 
-8.28622

>  <CNNscore>  (7) 
0.4811239839

>  <CNNaffinity>  (7) 
4.3665704727

>  <CNN_VS>  (7) 
2.1008617878

>  <CNNaffinity_variance>  (7) 
0.0242821854

$$$$
8
     RDKit          3D

 43 45  0  0  0  0  0  0  0  0999 V2000
   21.8311   71.3139   -1.6464 P   0  0  2  0  0  0  0  0  0  0  0  0
   21.9113   70.0478   -2.6512 O   0  0  0  0  0  0  0  0  0  0  0  0
   20.4446   71.8183   -1.3723 O   0  0  0  0  0  0  0  0  0  0  0  0
   22.8546   72.3878   -2.2923 O   0  0  0  0  0  0  0  0  0  0  0  0
   22.3291   73.4104   -3.1184 C   0  0  0  0  0  0  0  0  0  0  0  0
   22.3923   72.3035   -5.2511 O   0  0  0  0  0  0  0  0  0  0  0  0
   23.9167   74.6905   -6.2360 O   0  0  0  0  0  0  0  0  0  0  0  0
   21.3984   75.1655   -7.1681 O   0  0  0  0  0  0  0  0  0  0  0  0
   22.8479   74.6276   -5.2914 C   0  0  1  0  0  0  0  0  0  0  0  0
   21.5341   74.3802   -6.0021 C   0  0  2  0  0  0  0  0  0  0  0  0
   23.0149   73.3518   -4.4773 C   0  0  1  0  0  0  0  0  0  0  0  0
   21.6142   72.8936   -6.3044 C   0  0  2  0  0  0  0  0  0  0  0  0
   23.8314   75.4975   -6.7681 H   0  0  0  0  0  0  0  0  0  0  0  0
   21.3516   76.1034   -6.9226 H   0  0  0  0  0  0  0  0  0  0  0  0
   20.7427   71.1281   -8.3293 O   0  0  0  0  0  0  0  0  0  0  0  0
   16.6333   70.5614   -6.3203 O   0  0  0  0  0  0  0  0  0  0  0  0
   20.3213   72.2703   -6.3352 N   0  0  0  0  0  0  0  0  0  0  0  0
   18.6965   70.8483   -7.3273 N   0  0  0  0  0  0  0  0  0  0  0  0
   19.9827   71.3994   -7.3978 C   0  0  0  0  0  0  0  0  0  0  0  0
   19.4056   72.5221   -5.3208 C   0  0  0  0  0  0  0  0  0  0  0  0
   18.1833   71.9893   -5.2672 C   0  0  0  0  0  0  0  0  0  0  0  0
   17.7505   71.0691   -6.3394 C   0  0  0  0  0  0  0  0  0  0  0  0
   18.4372   70.2404   -8.0571 H   0  0  0  0  0  0  0  0  0  0  0  0
   22.6282   70.7920   -0.3407 O   0  0  0  0  0  0  0  0  0  0  0  0
   22.1241   69.9514    0.9450 P   0  0  2  0  0  0  0  0  0  0  0  0
   23.4740   69.2241    1.4639 O   0  0  0  0  0  0  0  0  0  0  0  0
   20.9867   69.0136    0.6603 O   0  0  0  0  0  0  0  0  0  0  0  0
   21.8068   71.0679    2.0653 O   0  0  0  0  0  0  0  0  0  0  0  0
   21.3777   73.3865    1.8435 O   0  0  0  0  0  0  0  0  0  0  0  0
   23.3212   73.2358    5.4861 O   0  0  0  0  0  0  0  0  0  0  0  0
   24.2663   71.6304    3.2358 O   0  0  0  0  0  0  0  0  0  0  0  0
   20.4406   73.6131    5.3837 O   0  0  0  0  0  0  0  0  0  0  0  0
   22.4826   72.7550    4.4356 C   0  0  2  0  0  0  0  0  0  0  0  0
   23.2888   72.6599    3.1401 C   0  0  2  0  0  0  0  0  0  0  0  0
   21.3220   73.7385    4.2693 C   0  0  1  0  0  0  0  0  0  0  0  0
   22.3760   72.3706    1.9476 C   0  0  1  0  0  0  0  0  0  0  0  0
   20.5353   73.4610    2.9915 C   0  0  1  0  0  0  0  0  0  0  0  0
   24.0661   72.6266    5.6100 H   0  0  0  0  0  0  0  0  0  0  0  0
   24.8489   71.8074    3.9906 H   0  0  0  0  0  0  0  0  0  0  0  0
   20.9289   73.7872    6.2034 H   0  0  0  0  0  0  0  0  0  0  0  0
   19.9050   75.6720    3.4560 O   0  0  0  0  0  0  0  0  0  0  0  0
   18.7562   74.5862    1.8126 O   0  0  0  0  0  0  0  0  0  0  0  0
   19.6282   74.6033    2.6684 C   0  0  0  0  0  0  0  0  0  0  0  0
  1  4  1  0
  1 24  1  0
  1  2  1  6
  1  3  2  0
 25 28  1  0
 25 24  1  0
 25 26  1  1
 25 27  2  0
  6 11  1  0
  6 12  1  0
 29 36  1  0
 29 37  1  0
  9  7  1  6
  7 13  1  0
 10  8  1  6
  8 14  1  0
  4  5  1  0
 36 28  1  1
 33 30  1  1
 30 38  1  0
 34 31  1  1
 31 39  1  0
 35 32  1  1
 32 40  1  0
 41 43  1  0
 15 19  2  0
 42 43  2  0
 16 22  2  0
 12 17  1  1
 17 19  1  0
 17 20  1  0
 18 19  1  0
 18 22  1  0
 18 23  1  0
  9 10  1  0
  9 11  1  0
 10 12  1  0
 11  5  1  1
 33 34  1  0
 33 35  1  0
 34 36  1  0
 35 37  1  0
 37 43  1  6
 20 21  2  0
 21 22  1  0
M  CHG  3   2  -1  26  -1  41  -1
M  END
>  <COMPND>  (8) 
    udp_gluA.pdb 

>  <AUTHOR>  (8) 
    GENERATED BY OPEN BABEL 3.1.1

>  <MASTER>  (8) 
        0    0    0    0    0    0    0    0   56    0   56    0

>  <minimizedAffinity>  (8) 
-6.99148

>  <CNNscore>  (8) 
0.4338374436

>  <CNNaffinity>  (8) 
4.2669563293

>  <CNN_VS>  (8) 
1.8511654139

>  <CNNaffinity_variance>  (8) 
0.0459935032

$$$$
9
     RDKit          3D

 43 45  0  0  0  0  0  0  0  0999 V2000
   20.7011   70.3694   -0.4571 P   0  0  2  0  0  0  0  0  0  0  0  0
   20.9346   69.2307    0.6688 O   0  0  0  0  0  0  0  0  0  0  0  0
   21.6534   70.3195   -1.6158 O   0  0  0  0  0  0  0  0  0  0  0  0
   20.6901   71.7513    0.3844 O   0  0  0  0  0  0  0  0  0  0  0  0
   21.1030   71.7218    1.7383 C   0  0  0  0  0  0  0  0  0  0  0  0
   23.0818   72.9067    2.4147 O   0  0  0  0  0  0  0  0  0  0  0  0
   24.5023   70.2737    2.2132 O   0  0  0  0  0  0  0  0  0  0  0  0
   24.0922   70.5256    4.8973 O   0  0  0  0  0  0  0  0  0  0  0  0
   23.1708   70.5512    2.6474 C   0  0  1  0  0  0  0  0  0  0  0  0
   23.1884   71.1741    4.0272 C   0  0  2  0  0  0  0  0  0  0  0  0
   22.6249   71.6865    1.7922 C   0  0  1  0  0  0  0  0  0  0  0  0
   23.5957   72.6054    3.7218 C   0  0  2  0  0  0  0  0  0  0  0  0
   24.8723   69.5513    2.7452 H   0  0  0  0  0  0  0  0  0  0  0  0
   23.7890   69.6182    5.0608 H   0  0  0  0  0  0  0  0  0  0  0  0
   25.1475   74.3566    5.3035 O   0  0  0  0  0  0  0  0  0  0  0  0
   21.4063   76.1580    7.3043 O   0  0  0  0  0  0  0  0  0  0  0  0
   23.0529   73.5425    4.6643 N   0  0  0  0  0  0  0  0  0  0  0  0
   23.2827   75.2514    6.2992 N   0  0  0  0  0  0  0  0  0  0  0  0
   23.9197   74.3767    5.4092 C   0  0  0  0  0  0  0  0  0  0  0  0
   21.6775   73.6296    4.8421 C   0  0  0  0  0  0  0  0  0  0  0  0
   21.0850   74.4684    5.6942 C   0  0  0  0  0  0  0  0  0  0  0  0
   21.9191   75.3740    6.5114 C   0  0  0  0  0  0  0  0  0  0  0  0
   23.8656   75.8408    6.8304 H   0  0  0  0  0  0  0  0  0  0  0  0
   19.1465   70.1735   -0.8544 O   0  0  0  0  0  0  0  0  0  0  0  0
   18.1863   71.0265   -1.8363 P   0  0  2  0  0  0  0  0  0  0  0  0
   17.8820   72.3677   -0.9826 O   0  0  0  0  0  0  0  0  0  0  0  0
   16.9590   70.2901   -2.2896 O   0  0  0  0  0  0  0  0  0  0  0  0
   19.1534   71.5152   -3.0314 O   0  0  0  0  0  0  0  0  0  0  0  0
   20.9254   73.0504   -3.3662 O   0  0  0  0  0  0  0  0  0  0  0  0
   18.4984   73.8468   -6.6133 O   0  0  0  0  0  0  0  0  0  0  0  0
   17.3367   73.4004   -3.9703 O   0  0  0  0  0  0  0  0  0  0  0  0
   20.9522   72.3278   -6.9633 O   0  0  0  0  0  0  0  0  0  0  0  0
   19.0963   73.0374   -5.6006 C   0  0  2  0  0  0  0  0  0  0  0  0
   18.7249   73.5850   -4.2223 C   0  0  2  0  0  0  0  0  0  0  0  0
   20.6134   73.0771   -5.7979 C   0  0  1  0  0  0  0  0  0  0  0  0
   19.5276   72.8887   -3.1225 C   0  0  1  0  0  0  0  0  0  0  0  0
   21.3466   72.4769   -4.6018 C   0  0  1  0  0  0  0  0  0  0  0  0
   17.5340   73.8368   -6.5079 H   0  0  0  0  0  0  0  0  0  0  0  0
   16.8213   73.8395   -4.6645 H   0  0  0  0  0  0  0  0  0  0  0  0
   20.4919   72.6995   -7.7319 H   0  0  0  0  0  0  0  0  0  0  0  0
   23.0118   73.9294   -5.3884 O   0  0  0  0  0  0  0  0  0  0  0  0
   23.6867   72.1752   -4.0975 O   0  0  0  0  0  0  0  0  0  0  0  0
   22.8017   72.8124   -4.6487 C   0  0  0  0  0  0  0  0  0  0  0  0
  1  4  1  0
  1 24  1  0
  1  2  1  1
  1  3  2  0
 25 28  1  0
 25 24  1  0
 25 26  1  1
 25 27  2  0
  6 11  1  0
  6 12  1  0
 29 36  1  0
 29 37  1  0
  9  7  1  6
  7 13  1  0
 10  8  1  1
  8 14  1  0
  4  5  1  0
 36 28  1  6
 33 30  1  6
 30 38  1  0
 34 31  1  1
 31 39  1  0
 35 32  1  6
 32 40  1  0
 41 43  1  0
 15 19  2  0
 42 43  2  0
 16 22  2  0
 12 17  1  1
 17 19  1  0
 17 20  1  0
 18 19  1  0
 18 22  1  0
 18 23  1  0
  9 10  1  0
  9 11  1  0
 10 12  1  0
 11  5  1  1
 33 34  1  0
 33 35  1  0
 34 36  1  0
 35 37  1  0
 37 43  1  6
 20 21  2  0
 21 22  1  0
M  CHG  3   2  -1  26  -1  41  -1
M  END
>  <COMPND>  (9) 
    udp_gluA.pdb 

>  <AUTHOR>  (9) 
    GENERATED BY OPEN BABEL 3.1.1

>  <MASTER>  (9) 
        0    0    0    0    0    0    0    0   56    0   56    0

>  <minimizedAffinity>  (9) 
-7.23133

>  <CNNscore>  (9) 
0.4229629636

>  <CNNaffinity>  (9) 
3.9926230907

>  <CNN_VS>  (9) 
1.6887316704

>  <CNNaffinity_variance>  (9) 
0.1530096233

$$$$
10
     RDKit          3D

 43 45  0  0  0  0  0  0  0  0999 V2000
   22.1818   72.3004   -2.8126 P   0  0  2  0  0  0  0  0  0  0  0  0
   23.4597   71.9964   -3.7578 O   0  0  0  0  0  0  0  0  0  0  0  0
   21.2459   71.1432   -2.6210 O   0  0  0  0  0  0  0  0  0  0  0  0
   21.5290   73.6325   -3.4586 O   0  0  0  0  0  0  0  0  0  0  0  0
   20.1559   73.6138   -3.8031 C   0  0  0  0  0  0  0  0  0  0  0  0
   19.7183   72.5541   -5.9157 O   0  0  0  0  0  0  0  0  0  0  0  0
   19.1450   75.3038   -6.9655 O   0  0  0  0  0  0  0  0  0  0  0  0
   16.6471   74.2895   -6.5559 O   0  0  0  0  0  0  0  0  0  0  0  0
   18.8671   74.7518   -5.6784 C   0  0  1  0  0  0  0  0  0  0  0  0
   17.7019   73.7886   -5.7616 C   0  0  2  0  0  0  0  0  0  0  0  0
   20.0182   73.8278   -5.3050 C   0  0  1  0  0  0  0  0  0  0  0  0
   18.3540   72.5562   -6.3651 C   0  0  2  0  0  0  0  0  0  0  0  0
   18.4231   75.8978   -7.2256 H   0  0  0  0  0  0  0  0  0  0  0  0
   16.2650   75.0730   -6.1291 H   0  0  0  0  0  0  0  0  0  0  0  0
   16.1063   71.4048   -7.6294 O   0  0  0  0  0  0  0  0  0  0  0  0
   16.0097   67.8835   -4.6570 O   0  0  0  0  0  0  0  0  0  0  0  0
   17.7212   71.3389   -5.9424 N   0  0  0  0  0  0  0  0  0  0  0  0
   16.0597   69.6526   -6.1472 N   0  0  0  0  0  0  0  0  0  0  0  0
   16.5973   70.8462   -6.6467 C   0  0  0  0  0  0  0  0  0  0  0  0
   18.2147   70.6461   -4.8435 C   0  0  0  0  0  0  0  0  0  0  0  0
   17.6916   69.5095   -4.3793 C   0  0  0  0  0  0  0  0  0  0  0  0
   16.5149   68.9277   -5.0578 C   0  0  0  0  0  0  0  0  0  0  0  0
   15.2753   69.2911   -6.6198 H   0  0  0  0  0  0  0  0  0  0  0  0
   22.8594   72.8509   -1.4522 O   0  0  0  0  0  0  0  0  0  0  0  0
   22.3594   73.9649   -0.3927 P   0  0  2  0  0  0  0  0  0  0  0  0
   20.7480   73.8164   -0.4328 O   0  0  0  0  0  0  0  0  0  0  0  0
   22.8598   75.3519   -0.6753 O   0  0  0  0  0  0  0  0  0  0  0  0
   22.7865   73.3797    1.0487 O   0  0  0  0  0  0  0  0  0  0  0  0
   21.6647   71.2999    1.2071 O   0  0  0  0  0  0  0  0  0  0  0  0
   23.9289   71.2993    4.6628 O   0  0  0  0  0  0  0  0  0  0  0  0
   22.5469   73.7236    3.7983 O   0  0  0  0  0  0  0  0  0  0  0  0
   24.7297   69.6687    2.3933 O   0  0  0  0  0  0  0  0  0  0  0  0
   23.6279   71.6090    3.3021 C   0  0  2  0  0  0  0  0  0  0  0  0
   22.3412   72.4323    3.2372 C   0  0  2  0  0  0  0  0  0  0  0  0
   23.4551   70.2909    2.5441 C   0  0  1  0  0  0  0  0  0  0  0  0
   21.8631   72.5872    1.7929 C   0  0  1  0  0  0  0  0  0  0  0  0
   22.8567   70.5190    1.1591 C   0  0  1  0  0  0  0  0  0  0  0  0
   24.0429   72.1220    5.1642 H   0  0  0  0  0  0  0  0  0  0  0  0
   22.8507   73.6329    4.7147 H   0  0  0  0  0  0  0  0  0  0  0  0
   25.1216   69.5181    3.2677 H   0  0  0  0  0  0  0  0  0  0  0  0
   21.0417   69.1196    0.6601 O   0  0  0  0  0  0  0  0  0  0  0  0
   23.1155   68.3883    0.0569 O   0  0  0  0  0  0  0  0  0  0  0  0
   22.3899   69.2304    0.5642 C   0  0  0  0  0  0  0  0  0  0  0  0
  1  4  1  0
  1 24  1  0
  1  2  1  6
  1  3  2  0
 25 28  1  0
 25 24  1  0
 25 26  1  1
 25 27  2  0
  6 11  1  0
  6 12  1  0
 29 36  1  0
 29 37  1  0
  9  7  1  6
  7 13  1  0
 10  8  1  6
  8 14  1  0
  4  5  1  0
 36 28  1  6
 33 30  1  1
 30 38  1  0
 34 31  1  6
 31 39  1  0
 35 32  1  6
 32 40  1  0
 41 43  1  0
 15 19  2  0
 42 43  2  0
 16 22  2  0
 12 17  1  1
 17 19  1  0
 17 20  1  0
 18 19  1  0
 18 22  1  0
 18 23  1  0
  9 10  1  0
  9 11  1  0
 10 12  1  0
 11  5  1  1
 33 34  1  0
 33 35  1  0
 34 36  1  0
 35 37  1  0
 37 43  1  1
 20 21  2  0
 21 22  1  0
M  CHG  3   2  -1  26  -1  41  -1
M  END
>  <COMPND>  (10) 
    udp_gluA.pdb 

>  <AUTHOR>  (10) 
    GENERATED BY OPEN BABEL 3.1.1

>  <MASTER>  (10) 
        0    0    0    0    0    0    0    0   56    0   56    0

>  <minimizedAffinity>  (10) 
-7.95357

>  <CNNscore>  (10) 
0.4098100960

>  <CNNaffinity>  (10) 
4.0531945229

>  <CNN_VS>  (10) 
1.6610400677

>  <CNNaffinity_variance>  (10) 
0.1754409522

$$$$
11
     RDKit          3D

 43 45  0  0  0  0  0  0  0  0999 V2000
   21.7964   71.4503   -2.1847 P   0  0  2  0  0  0  0  0  0  0  0  0
   23.0117   72.5000   -2.3847 O   0  0  0  0  0  0  0  0  0  0  0  0
   22.2136   70.0143   -2.0600 O   0  0  0  0  0  0  0  0  0  0  0  0
   20.7885   71.7857   -3.4052 O   0  0  0  0  0  0  0  0  0  0  0  0
   20.2852   73.1037   -3.5237 C   0  0  0  0  0  0  0  0  0  0  0  0
   19.7455   72.2326   -5.6980 O   0  0  0  0  0  0  0  0  0  0  0  0
   19.2711   75.0783   -6.5154 O   0  0  0  0  0  0  0  0  0  0  0  0
   16.7410   74.1445   -6.1124 O   0  0  0  0  0  0  0  0  0  0  0  0
   19.0016   74.4398   -5.2671 C   0  0  1  0  0  0  0  0  0  0  0  0
   17.7921   73.5376   -5.3903 C   0  0  2  0  0  0  0  0  0  0  0  0
   20.1187   73.4404   -4.9999 C   0  0  1  0  0  0  0  0  0  0  0  0
   18.3715   72.3292   -6.1057 C   0  0  2  0  0  0  0  0  0  0  0  0
   18.5706   75.7217   -6.7078 H   0  0  0  0  0  0  0  0  0  0  0  0
   16.4061   74.9080   -5.6155 H   0  0  0  0  0  0  0  0  0  0  0  0
   16.1169   71.3141   -7.4705 O   0  0  0  0  0  0  0  0  0  0  0  0
   15.8578   67.6465   -4.6909 O   0  0  0  0  0  0  0  0  0  0  0  0
   17.6951   71.1111   -5.7598 N   0  0  0  0  0  0  0  0  0  0  0  0
   15.9894   69.4889   -6.0842 N   0  0  0  0  0  0  0  0  0  0  0  0
   16.5715   70.6902   -6.5098 C   0  0  0  0  0  0  0  0  0  0  0  0
   18.1460   70.3470   -4.6903 C   0  0  0  0  0  0  0  0  0  0  0  0
   17.5807   69.2041   -4.2966 C   0  0  0  0  0  0  0  0  0  0  0  0
   16.4013   68.6945   -5.0265 C   0  0  0  0  0  0  0  0  0  0  0  0
   15.2044   69.1766   -6.5897 H   0  0  0  0  0  0  0  0  0  0  0  0
   21.0165   72.0391   -0.8971 O   0  0  0  0  0  0  0  0  0  0  0  0
   20.2319   71.2910    0.3023 P   0  0  2  0  0  0  0  0  0  0  0  0
   20.0333   69.7885   -0.2663 O   0  0  0  0  0  0  0  0  0  0  0  0
   18.9586   71.9671    0.7211 O   0  0  0  0  0  0  0  0  0  0  0  0
   21.3276   71.1404    1.4767 O   0  0  0  0  0  0  0  0  0  0  0  0
   23.1358   72.5577    2.0520 O   0  0  0  0  0  0  0  0  0  0  0  0
   24.6191   68.8422    3.0828 O   0  0  0  0  0  0  0  0  0  0  0  0
   23.1197   69.2018    0.6015 O   0  0  0  0  0  0  0  0  0  0  0  0
   23.7065   70.6734    5.1480 O   0  0  0  0  0  0  0  0  0  0  0  0
   23.6124   69.8361    2.8908 C   0  0  2  0  0  0  0  0  0  0  0  0
   23.5893   70.2642    1.4233 C   0  0  2  0  0  0  0  0  0  0  0  0
   23.9486   71.0292    3.7882 C   0  0  1  0  0  0  0  0  0  0  0  0
   22.6887   71.4840    1.2234 C   0  0  1  0  0  0  0  0  0  0  0  0
   23.0933   72.2447    3.4424 C   0  0  1  0  0  0  0  0  0  0  0  0
   24.4264   68.0741    2.5224 H   0  0  0  0  0  0  0  0  0  0  0  0
   23.6865   68.4244    0.7235 H   0  0  0  0  0  0  0  0  0  0  0  0
   24.2448   69.9008    5.3808 H   0  0  0  0  0  0  0  0  0  0  0  0
   23.3035   73.5302    5.3930 O   0  0  0  0  0  0  0  0  0  0  0  0
   24.3081   74.3283    3.5081 O   0  0  0  0  0  0  0  0  0  0  0  0
   23.6425   73.4788    4.0810 C   0  0  0  0  0  0  0  0  0  0  0  0
  1  4  1  0
  1 24  1  0
  1  2  1  6
  1  3  2  0
 25 28  1  0
 25 24  1  0
 25 26  1  6
 25 27  2  0
  6 11  1  0
  6 12  1  0
 29 36  1  0
 29 37  1  0
  9  7  1  6
  7 13  1  0
 10  8  1  6
  8 14  1  0
  4  5  1  0
 36 28  1  1
 33 30  1  6
 30 38  1  0
 34 31  1  6
 31 39  1  0
 35 32  1  1
 32 40  1  0
 41 43  1  0
 15 19  2  0
 42 43  2  0
 16 22  2  0
 12 17  1  1
 17 19  1  0
 17 20  1  0
 18 19  1  0
 18 22  1  0
 18 23  1  0
  9 10  1  0
  9 11  1  0
 10 12  1  0
 11  5  1  1
 33 34  1  0
 33 35  1  0
 34 36  1  0
 35 37  1  0
 37 43  1  1
 20 21  2  0
 21 22  1  0
M  CHG  3   2  -1  26  -1  41  -1
M  END
>  <COMPND>  (11) 
    udp_gluA.pdb 

>  <AUTHOR>  (11) 
    GENERATED BY OPEN BABEL 3.1.1

>  <MASTER>  (11) 
        0    0    0    0    0    0    0    0   56    0   56    0

>  <minimizedAffinity>  (11) 
-7.92938

>  <CNNscore>  (11) 
0.4066979289

>  <CNNaffinity>  (11) 
4.1132898331

>  <CNN_VS>  (11) 
1.6728664637

>  <CNNaffinity_variance>  (11) 
0.1960570216

$$$$
12
     RDKit          3D

 43 45  0  0  0  0  0  0  0  0999 V2000
   22.4189   71.3777   -3.2316 P   0  0  2  0  0  0  0  0  0  0  0  0
   21.1938   70.3204   -3.2142 O   0  0  0  0  0  0  0  0  0  0  0  0
   23.7773   70.7702   -3.4253 O   0  0  0  0  0  0  0  0  0  0  0  0
   22.2173   72.2283   -1.8701 O   0  0  0  0  0  0  0  0  0  0  0  0
   23.0360   71.9247   -0.7556 C   0  0  0  0  0  0  0  0  0  0  0  0
   23.1485   70.5931    1.2424 O   0  0  0  0  0  0  0  0  0  0  0  0
   20.3698   69.6871    0.5721 O   0  0  0  0  0  0  0  0  0  0  0  0
   19.9352   71.5656    2.5005 O   0  0  0  0  0  0  0  0  0  0  0  0
   20.9727   70.9677    0.3843 C   0  0  1  0  0  0  0  0  0  0  0  0
   21.0996   71.6868    1.7106 C   0  0  2  0  0  0  0  0  0  0  0  0
   22.4296   70.7490   -0.0003 C   0  0  1  0  0  0  0  0  0  0  0  0
   22.3016   70.9950    2.3307 C   0  0  2  0  0  0  0  0  0  0  0  0
   19.4381   69.8010    0.8186 H   0  0  0  0  0  0  0  0  0  0  0  0
   19.1989   72.0223    2.0633 H   0  0  0  0  0  0  0  0  0  0  0  0
   23.5619   70.1573    4.7153 O   0  0  0  0  0  0  0  0  0  0  0  0
   25.1164   74.4050    5.6013 O   0  0  0  0  0  0  0  0  0  0  0  0
   23.0424   71.8612    3.2036 N   0  0  0  0  0  0  0  0  0  0  0  0
   24.3341   72.2739    5.1548 N   0  0  0  0  0  0  0  0  0  0  0  0
   23.6366   71.3401    4.3773 C   0  0  0  0  0  0  0  0  0  0  0  0
   23.1759   73.2091    2.8933 C   0  0  0  0  0  0  0  0  0  0  0  0
   23.8440   74.0869    3.6443 C   0  0  0  0  0  0  0  0  0  0  0  0
   24.4938   73.6240    4.8880 C   0  0  0  0  0  0  0  0  0  0  0  0
   24.7546   71.9350    5.9780 H   0  0  0  0  0  0  0  0  0  0  0  0
   21.9789   72.4241   -4.3824 O   0  0  0  0  0  0  0  0  0  0  0  0
   20.5742   73.1781   -4.6505 P   0  0  2  0  0  0  0  0  0  0  0  0
   21.0281   74.6916   -5.0022 O   0  0  0  0  0  0  0  0  0  0  0  0
   19.5934   73.0738   -3.5187 O   0  0  0  0  0  0  0  0  0  0  0  0
   20.0469   72.5753   -6.0509 O   0  0  0  0  0  0  0  0  0  0  0  0
   19.0246   70.4842   -5.6138 O   0  0  0  0  0  0  0  0  0  0  0  0
   18.6024   70.7859   -9.7124 O   0  0  0  0  0  0  0  0  0  0  0  0
   21.1022   71.5693   -8.4196 O   0  0  0  0  0  0  0  0  0  0  0  0
   16.3193   71.2457   -7.9726 O   0  0  0  0  0  0  0  0  0  0  0  0
   18.6950   71.2703   -8.3727 C   0  0  2  0  0  0  0  0  0  0  0  0
   20.0441   70.8690   -7.7756 C   0  0  2  0  0  0  0  0  0  0  0  0
   17.5509   70.6521   -7.5661 C   0  0  1  0  0  0  0  0  0  0  0  0
   20.0893   71.1674   -6.2764 C   0  0  1  0  0  0  0  0  0  0  0  0
   17.7346   70.8860   -6.0694 C   0  0  1  0  0  0  0  0  0  0  0  0
   19.3197   71.1654  -10.2440 H   0  0  0  0  0  0  0  0  0  0  0  0
   21.0794   71.3847   -9.3713 H   0  0  0  0  0  0  0  0  0  0  0  0
   16.1904   71.1040   -8.9234 H   0  0  0  0  0  0  0  0  0  0  0  0
   15.9835   69.3258   -6.1015 O   0  0  0  0  0  0  0  0  0  0  0  0
   16.8038   69.9269   -4.0606 O   0  0  0  0  0  0  0  0  0  0  0  0
   16.8133   70.0146   -5.2793 C   0  0  0  0  0  0  0  0  0  0  0  0
  1  4  1  0
  1 24  1  0
  1  2  1  1
  1  3  2  0
 25 28  1  0
 25 24  1  0
 25 26  1  6
 25 27  2  0
  6 11  1  0
  6 12  1  0
 29 36  1  0
 29 37  1  0
  9  7  1  1
  7 13  1  0
 10  8  1  1
  8 14  1  0
  4  5  1  0
 36 28  1  6
 33 30  1  6
 30 38  1  0
 34 31  1  6
 31 39  1  0
 35 32  1  6
 32 40  1  0
 41 43  1  0
 15 19  2  0
 42 43  2  0
 16 22  2  0
 12 17  1  1
 17 19  1  0
 17 20  1  0
 18 19  1  0
 18 22  1  0
 18 23  1  0
  9 10  1  0
  9 11  1  0
 10 12  1  0
 11  5  1  1
 33 34  1  0
 33 35  1  0
 34 36  1  0
 35 37  1  0
 37 43  1  1
 20 21  2  0
 21 22  1  0
M  CHG  3   2  -1  26  -1  41  -1
M  END
>  <COMPND>  (12) 
    udp_gluA.pdb 

>  <AUTHOR>  (12) 
    GENERATED BY OPEN BABEL 3.1.1

>  <MASTER>  (12) 
        0    0    0    0    0    0    0    0   56    0   56    0

>  <minimizedAffinity>  (12) 
-8.89337

>  <CNNscore>  (12) 
0.3841376305

>  <CNNaffinity>  (12) 
4.0781660080

>  <CNN_VS>  (12) 
1.5665770769

>  <CNNaffinity_variance>  (12) 
0.0801548138

$$$$
13
     RDKit          3D

 43 45  0  0  0  0  0  0  0  0999 V2000
   21.9902   71.0362   -2.3972 P   0  0  2  0  0  0  0  0  0  0  0  0
   23.0221   72.1946   -2.8577 O   0  0  0  0  0  0  0  0  0  0  0  0
   22.2122   69.6981   -3.0391 O   0  0  0  0  0  0  0  0  0  0  0  0
   20.5327   71.6969   -2.6360 O   0  0  0  0  0  0  0  0  0  0  0  0
   19.7055   71.1606   -3.6523 C   0  0  0  0  0  0  0  0  0  0  0  0
   17.4606   71.2109   -2.7946 O   0  0  0  0  0  0  0  0  0  0  0  0
   17.4964   68.2230   -3.0453 O   0  0  0  0  0  0  0  0  0  0  0  0
   16.0901   68.9893   -5.2524 O   0  0  0  0  0  0  0  0  0  0  0  0
   18.0922   69.2079   -3.8900 C   0  0  1  0  0  0  0  0  0  0  0  0
   17.0306   69.8983   -4.7197 C   0  0  2  0  0  0  0  0  0  0  0  0
   18.5945   70.3422   -3.0072 C   0  0  1  0  0  0  0  0  0  0  0  0
   16.4145   70.8536   -3.7118 C   0  0  2  0  0  0  0  0  0  0  0  0
   17.1680   67.4879   -3.5869 H   0  0  0  0  0  0  0  0  0  0  0  0
   16.5311   68.4035   -5.8883 H   0  0  0  0  0  0  0  0  0  0  0  0
   14.4296   72.5119   -2.5774 O   0  0  0  0  0  0  0  0  0  0  0  0
   14.5389   75.4055   -6.1633 O   0  0  0  0  0  0  0  0  0  0  0  0
   15.9058   72.0465   -4.3275 N   0  0  0  0  0  0  0  0  0  0  0  0
   14.4852   73.9509   -4.3649 N   0  0  0  0  0  0  0  0  0  0  0  0
   14.9086   72.8082   -3.6736 C   0  0  0  0  0  0  0  0  0  0  0  0
   16.3948   72.4518   -5.5635 C   0  0  0  0  0  0  0  0  0  0  0  0
   15.9815   73.5436   -6.2100 C   0  0  0  0  0  0  0  0  0  0  0  0
   14.9411   74.3944   -5.5959 C   0  0  0  0  0  0  0  0  0  0  0  0
   13.7900   74.4962   -3.9305 H   0  0  0  0  0  0  0  0  0  0  0  0
   22.1326   71.0425   -0.7870 O   0  0  0  0  0  0  0  0  0  0  0  0
   21.4363   70.1204    0.3437 P   0  0  2  0  0  0  0  0  0  0  0  0
   22.2648   68.7329    0.2512 O   0  0  0  0  0  0  0  0  0  0  0  0
   19.9516   69.9660    0.1840 O   0  0  0  0  0  0  0  0  0  0  0  0
   21.8944   70.7755    1.7450 O   0  0  0  0  0  0  0  0  0  0  0  0
   21.9750   73.1424    1.7358 O   0  0  0  0  0  0  0  0  0  0  0  0
   23.7707   72.2542    5.3489 O   0  0  0  0  0  0  0  0  0  0  0  0
   24.3942   70.6905    2.9614 O   0  0  0  0  0  0  0  0  0  0  0  0
   21.0397   73.2484    5.2820 O   0  0  0  0  0  0  0  0  0  0  0  0
   22.8691   72.0601    4.2592 C   0  0  2  0  0  0  0  0  0  0  0  0
   23.6613   71.9101    2.9601 C   0  0  2  0  0  0  0  0  0  0  0  0
   21.9489   73.2805    4.1835 C   0  0  1  0  0  0  0  0  0  0  0  0
   22.7309   71.9308    1.7465 C   0  0  1  0  0  0  0  0  0  0  0  0
   21.1460   73.2933    2.8860 C   0  0  1  0  0  0  0  0  0  0  0  0
   24.3656   71.4909    5.4165 H   0  0  0  0  0  0  0  0  0  0  0  0
   24.9865   70.6705    3.7290 H   0  0  0  0  0  0  0  0  0  0  0  0
   21.5381   73.2398    6.1141 H   0  0  0  0  0  0  0  0  0  0  0  0
   19.8319   74.6493    1.4946 O   0  0  0  0  0  0  0  0  0  0  0  0
   20.5842   75.5737    3.4385 O   0  0  0  0  0  0  0  0  0  0  0  0
   20.5102   74.6277    2.6686 C   0  0  0  0  0  0  0  0  0  0  0  0
  1  4  1  0
  1 24  1  0
  1  2  1  6
  1  3  2  0
 25 28  1  0
 25 24  1  0
 25 26  1  1
 25 27  2  0
  6 11  1  0
  6 12  1  0
 29 36  1  0
 29 37  1  0
  9  7  1  1
  7 13  1  0
 10  8  1  1
  8 14  1  0
  4  5  1  0
 36 28  1  1
 33 30  1  1
 30 38  1  0
 34 31  1  1
 31 39  1  0
 35 32  1  1
 32 40  1  0
 41 43  1  0
 15 19  2  0
 42 43  2  0
 16 22  2  0
 12 17  1  6
 17 19  1  0
 17 20  1  0
 18 19  1  0
 18 22  1  0
 18 23  1  0
  9 10  1  0
  9 11  1  0
 10 12  1  0
 11  5  1  6
 33 34  1  0
 33 35  1  0
 34 36  1  0
 35 37  1  0
 37 43  1  6
 20 21  2  0
 21 22  1  0
M  CHG  3   2  -1  26  -1  41  -1
M  END
>  <COMPND>  (13) 
    udp_gluA.pdb 

>  <AUTHOR>  (13) 
    GENERATED BY OPEN BABEL 3.1.1

>  <MASTER>  (13) 
        0    0    0    0    0    0    0    0   56    0   56    0

>  <minimizedAffinity>  (13) 
-7.03226

>  <CNNscore>  (13) 
0.3811002970

>  <CNNaffinity>  (13) 
4.1845641136

>  <CNN_VS>  (13) 
1.5947386026

>  <CNNaffinity_variance>  (13) 
0.0750325769

$$$$
14
     RDKit          3D

 43 45  0  0  0  0  0  0  0  0999 V2000
   18.1686   70.5667   -2.3436 P   0  0  2  0  0  0  0  0  0  0  0  0
   18.9948   69.5772   -3.3220 O   0  0  0  0  0  0  0  0  0  0  0  0
   17.2479   69.8796   -1.3782 O   0  0  0  0  0  0  0  0  0  0  0  0
   17.4687   71.6179   -3.3551 O   0  0  0  0  0  0  0  0  0  0  0  0
   16.7022   71.1116   -4.4324 C   0  0  0  0  0  0  0  0  0  0  0  0
   17.5551   73.1895   -5.2882 O   0  0  0  0  0  0  0  0  0  0  0  0
   15.9065   72.6450   -7.7330 O   0  0  0  0  0  0  0  0  0  0  0  0
   18.4109   71.9163   -8.5286 O   0  0  0  0  0  0  0  0  0  0  0  0
   16.6161   71.7287   -6.8990 C   0  0  1  0  0  0  0  0  0  0  0  0
   18.1050   71.8345   -7.1523 C   0  0  2  0  0  0  0  0  0  0  0  0
   16.5020   72.2168   -5.4613 C   0  0  1  0  0  0  0  0  0  0  0  0
   18.4640   73.1028   -6.3971 C   0  0  2  0  0  0  0  0  0  0  0  0
   15.9652   72.3540   -8.6568 H   0  0  0  0  0  0  0  0  0  0  0  0
   18.1641   71.0850   -8.9646 H   0  0  0  0  0  0  0  0  0  0  0  0
   20.1787   75.3461   -6.3333 O   0  0  0  0  0  0  0  0  0  0  0  0
   23.6066   72.9015   -4.4576 O   0  0  0  0  0  0  0  0  0  0  0  0
   19.8096   73.0806   -5.8973 N   0  0  0  0  0  0  0  0  0  0  0  0
   21.8847   74.1262   -5.4001 N   0  0  0  0  0  0  0  0  0  0  0  0
   20.5870   74.2629   -5.9102 C   0  0  0  0  0  0  0  0  0  0  0  0
   20.3455   71.8988   -5.4002 C   0  0  0  0  0  0  0  0  0  0  0  0
   21.5841   71.7841   -4.9172 C   0  0  0  0  0  0  0  0  0  0  0  0
   22.4623   72.9723   -4.8956 C   0  0  0  0  0  0  0  0  0  0  0  0
   22.4456   74.9353   -5.4006 H   0  0  0  0  0  0  0  0  0  0  0  0
   19.3333   71.4486   -1.6518 O   0  0  0  0  0  0  0  0  0  0  0  0
   20.5096   71.0338   -0.6233 P   0  0  2  0  0  0  0  0  0  0  0  0
   21.8433   71.1070   -1.5377 O   0  0  0  0  0  0  0  0  0  0  0  0
   20.2966   69.7114    0.0549 O   0  0  0  0  0  0  0  0  0  0  0  0
   20.6358   72.2891    0.3821 O   0  0  0  0  0  0  0  0  0  0  0  0
   21.1470   71.3572    2.4986 O   0  0  0  0  0  0  0  0  0  0  0  0
   21.2842   75.4063    3.3074 O   0  0  0  0  0  0  0  0  0  0  0  0
   19.1707   74.3044    1.6182 O   0  0  0  0  0  0  0  0  0  0  0  0
   23.7483   73.8853    3.0506 O   0  0  0  0  0  0  0  0  0  0  0  0
   21.4262   74.2313    2.5091 C   0  0  2  0  0  0  0  0  0  0  0  0
   20.0750   73.5254    2.3928 C   0  0  2  0  0  0  0  0  0  0  0  0
   22.4473   73.3174    3.1902 C   0  0  1  0  0  0  0  0  0  0  0  0
   20.2306   72.1499    1.7427 C   0  0  1  0  0  0  0  0  0  0  0  0
   22.4531   71.9253    2.5652 C   0  0  1  0  0  0  0  0  0  0  0  0
   20.6398   76.0023    2.8941 H   0  0  0  0  0  0  0  0  0  0  0  0
   19.0675   75.1787    2.0249 H   0  0  0  0  0  0  0  0  0  0  0  0
   23.7581   74.7718    3.4442 H   0  0  0  0  0  0  0  0  0  0  0  0
   23.2384   71.3984    4.7117 O   0  0  0  0  0  0  0  0  0  0  0  0
   23.6961   69.9134    3.0431 O   0  0  0  0  0  0  0  0  0  0  0  0
   23.1956   70.9589    3.4296 C   0  0  0  0  0  0  0  0  0  0  0  0
  1  4  1  0
  1 24  1  0
  1  2  1  6
  1  3  2  0
 25 28  1  0
 25 24  1  0
 25 26  1  6
 25 27  2  0
  6 11  1  0
  6 12  1  0
 29 36  1  0
 29 37  1  0
  9  7  1  6
  7 13  1  0
 10  8  1  6
  8 14  1  0
  4  5  1  0
 36 28  1  6
 33 30  1  1
 30 38  1  0
 34 31  1  6
 31 39  1  0
 35 32  1  6
 32 40  1  0
 41 43  1  0
 15 19  2  0
 42 43  2  0
 16 22  2  0
 12 17  1  1
 17 19  1  0
 17 20  1  0
 18 19  1  0
 18 22  1  0
 18 23  1  0
  9 10  1  0
  9 11  1  0
 10 12  1  0
 11  5  1  1
 33 34  1  0
 33 35  1  0
 34 36  1  0
 35 37  1  0
 37 43  1  1
 20 21  2  0
 21 22  1  0
M  CHG  3   2  -1  26  -1  41  -1
M  END
>  <COMPND>  (14) 
    udp_gluA.pdb 

>  <AUTHOR>  (14) 
    GENERATED BY OPEN BABEL 3.1.1

>  <MASTER>  (14) 
        0    0    0    0    0    0    0    0   56    0   56    0

>  <minimizedAffinity>  (14) 
-7.08640

>  <CNNscore>  (14) 
0.3503943086

>  <CNNaffinity>  (14) 
4.1894164085

>  <CNN_VS>  (14) 
1.4679477215

>  <CNNaffinity_variance>  (14) 
0.0176617019

$$$$
15
     RDKit          3D

 43 45  0  0  0  0  0  0  0  0999 V2000
   21.1975   73.1248   -5.6041 P   0  0  2  0  0  0  0  0  0  0  0  0
   20.5798   74.5803   -5.9491 O   0  0  0  0  0  0  0  0  0  0  0  0
   22.2651   72.6503   -6.5458 O   0  0  0  0  0  0  0  0  0  0  0  0
   19.8968   72.1707   -5.4782 O   0  0  0  0  0  0  0  0  0  0  0  0
   20.0657   70.8615   -4.9664 C   0  0  0  0  0  0  0  0  0  0  0  0
   18.2291   71.7867   -3.7220 O   0  0  0  0  0  0  0  0  0  0  0  0
   17.9287   69.0650   -2.4998 O   0  0  0  0  0  0  0  0  0  0  0  0
   15.9572   69.0932   -4.3836 O   0  0  0  0  0  0  0  0  0  0  0  0
   18.3022   69.4216   -3.8310 C   0  0  1  0  0  0  0  0  0  0  0  0
   17.0926   69.9038   -4.6034 C   0  0  2  0  0  0  0  0  0  0  0  0
   19.1562   70.6800   -3.7580 C   0  0  1  0  0  0  0  0  0  0  0  0
   16.9171   71.3140   -4.0662 C   0  0  2  0  0  0  0  0  0  0  0  0
   17.3822   68.2633   -2.5208 H   0  0  0  0  0  0  0  0  0  0  0  0
   16.1186   68.2064   -4.7435 H   0  0  0  0  0  0  0  0  0  0  0  0
   15.2233   73.4836   -3.4334 O   0  0  0  0  0  0  0  0  0  0  0  0
   14.7625   74.6539   -7.8676 O   0  0  0  0  0  0  0  0  0  0  0  0
   16.3405   72.2019   -5.0358 N   0  0  0  0  0  0  0  0  0  0  0  0
   14.9946   74.0638   -5.6426 N   0  0  0  0  0  0  0  0  0  0  0  0
   15.5027   73.2608   -4.6129 C   0  0  0  0  0  0  0  0  0  0  0  0
   16.6075   72.0207   -6.3874 C   0  0  0  0  0  0  0  0  0  0  0  0
   16.1159   72.7944   -7.3573 C   0  0  0  0  0  0  0  0  0  0  0  0
   15.2311   73.9227   -7.0004 C   0  0  0  0  0  0  0  0  0  0  0  0
   14.4071   74.8063   -5.3729 H   0  0  0  0  0  0  0  0  0  0  0  0
   21.6777   73.2889   -4.0694 O   0  0  0  0  0  0  0  0  0  0  0  0
   23.0417   72.8351   -3.3297 P   0  0  2  0  0  0  0  0  0  0  0  0
   24.0588   74.0531   -3.6497 O   0  0  0  0  0  0  0  0  0  0  0  0
   23.5463   71.4831   -3.7438 O   0  0  0  0  0  0  0  0  0  0  0  0
   22.7200   72.9762   -1.7553 O   0  0  0  0  0  0  0  0  0  0  0  0
   21.5340   71.2115   -0.7119 O   0  0  0  0  0  0  0  0  0  0  0  0
   21.2380   74.2099    2.1147 O   0  0  0  0  0  0  0  0  0  0  0  0
   20.9034   74.8127   -0.7241 O   0  0  0  0  0  0  0  0  0  0  0  0
   23.0831   72.0002    2.5193 O   0  0  0  0  0  0  0  0  0  0  0  0
   21.8519   73.4695    1.0598 C   0  0  2  0  0  0  0  0  0  0  0  0
   20.9535   73.5002   -0.1770 C   0  0  2  0  0  0  0  0  0  0  0  0
   22.0444   72.0300    1.5422 C   0  0  1  0  0  0  0  0  0  0  0  0
   21.4628   72.5336   -1.2472 C   0  0  1  0  0  0  0  0  0  0  0  0
   22.4298   71.1040    0.3922 C   0  0  1  0  0  0  0  0  0  0  0  0
   21.1056   75.1282    1.8310 H   0  0  0  0  0  0  0  0  0  0  0  0
   20.5814   75.4314   -0.0503 H   0  0  0  0  0  0  0  0  0  0  0  0
   22.8502   72.5857    3.2567 H   0  0  0  0  0  0  0  0  0  0  0  0
   21.0131   69.2522    0.6481 O   0  0  0  0  0  0  0  0  0  0  0  0
   23.2066   68.9681    1.2022 O   0  0  0  0  0  0  0  0  0  0  0  0
   22.2941   69.6719    0.7960 C   0  0  0  0  0  0  0  0  0  0  0  0
  1  4  1  0
  1 24  1  0
  1  2  1  6
  1  3  2  0
 25 28  1  0
 25 24  1  0
 25 26  1  6
 25 27  2  0
  6 11  1  0
  6 12  1  0
 29 36  1  0
 29 37  1  0
  9  7  1  1
  7 13  1  0
 10  8  1  1
  8 14  1  0
  4  5  1  0
 36 28  1  1
 33 30  1  1
 30 38  1  0
 34 31  1  6
 31 39  1  0
 35 32  1  1
 32 40  1  0
 41 43  1  0
 15 19  2  0
 42 43  2  0
 16 22  2  0
 12 17  1  6
 17 19  1  0
 17 20  1  0
 18 19  1  0
 18 22  1  0
 18 23  1  0
  9 10  1  0
  9 11  1  0
 10 12  1  0
 11  5  1  6
 33 34  1  0
 33 35  1  0
 34 36  1  0
 35 37  1  0
 37 43  1  1
 20 21  2  0
 21 22  1  0
M  CHG  3   2  -1  26  -1  41  -1
M  END
>  <COMPND>  (15) 
    udp_gluA.pdb 

>  <AUTHOR>  (15) 
    GENERATED BY OPEN BABEL 3.1.1

>  <MASTER>  (15) 
        0    0    0    0    0    0    0    0   56    0   56    0

>  <minimizedAffinity>  (15) 
-7.09639

>  <CNNscore>  (15) 
0.3383805454

>  <CNNaffinity>  (15) 
4.0078434944

>  <CNN_VS>  (15) 
1.3561762571

>  <CNNaffinity_variance>  (15) 
0.2024517059

$$$$
16
     RDKit          3D

 43 45  0  0  0  0  0  0  0  0999 V2000
   22.3527   76.1762    1.8538 P   0  0  2  0  0  0  0  0  0  0  0  0
   20.7665   76.1199    1.5379 O   0  0  0  0  0  0  0  0  0  0  0  0
   22.9219   77.5574    1.9952 O   0  0  0  0  0  0  0  0  0  0  0  0
   23.0124   75.2596    0.6951 O   0  0  0  0  0  0  0  0  0  0  0  0
   22.2858   74.1399    0.2230 C   0  0  0  0  0  0  0  0  0  0  0  0
   22.1615   72.5387   -1.5654 O   0  0  0  0  0  0  0  0  0  0  0  0
   23.2448   74.7060   -3.3320 O   0  0  0  0  0  0  0  0  0  0  0  0
   20.5798   74.7436   -3.9087 O   0  0  0  0  0  0  0  0  0  0  0  0
   22.3397   74.8047   -2.2321 C   0  0  1  0  0  0  0  0  0  0  0  0
   20.9728   74.2898   -2.6303 C   0  0  2  0  0  0  0  0  0  0  0  0
   22.7676   73.7913   -1.1794 C   0  0  1  0  0  0  0  0  0  0  0  0
   21.1757   72.7851   -2.5807 C   0  0  2  0  0  0  0  0  0  0  0  0
   22.9916   75.3442   -4.0177 H   0  0  0  0  0  0  0  0  0  0  0  0
   20.4633   75.7069   -3.8882 H   0  0  0  0  0  0  0  0  0  0  0  0
   20.6803   70.0781   -3.2157 O   0  0  0  0  0  0  0  0  0  0  0  0
   16.5196   70.1854   -1.2355 O   0  0  0  0  0  0  0  0  0  0  0  0
   19.9714   72.0806   -2.2430 N   0  0  0  0  0  0  0  0  0  0  0  0
   18.6081   70.1344   -2.2297 N   0  0  0  0  0  0  0  0  0  0  0  0
   19.8224   70.7218   -2.6086 C   0  0  0  0  0  0  0  0  0  0  0  0
   18.9551   72.7337   -1.5564 C   0  0  0  0  0  0  0  0  0  0  0  0
   17.8032   72.1605   -1.2021 C   0  0  0  0  0  0  0  0  0  0  0  0
   17.5676   70.7431   -1.5468 C   0  0  0  0  0  0  0  0  0  0  0  0
   18.4804   69.1895   -2.4751 H   0  0  0  0  0  0  0  0  0  0  0  0
   22.4931   75.2518    3.1724 O   0  0  0  0  0  0  0  0  0  0  0  0
   23.7732   74.4953    3.8069 P   0  0  2  0  0  0  0  0  0  0  0  0
   23.3513   74.2905    5.3563 O   0  0  0  0  0  0  0  0  0  0  0  0
   25.0748   75.2171    3.6107 O   0  0  0  0  0  0  0  0  0  0  0  0
   23.7278   73.0124    3.1733 O   0  0  0  0  0  0  0  0  0  0  0  0
   21.9097   71.5077    2.9746 O   0  0  0  0  0  0  0  0  0  0  0  0
   25.0975   68.9192    3.4280 O   0  0  0  0  0  0  0  0  0  0  0  0
   24.9126   71.3397    5.0532 O   0  0  0  0  0  0  0  0  0  0  0  0
   23.8913   69.3043    0.8112 O   0  0  0  0  0  0  0  0  0  0  0  0
   24.4395   70.1160    3.0124 C   0  0  2  0  0  0  0  0  0  0  0  0
   23.8650   70.8346    4.2335 C   0  0  2  0  0  0  0  0  0  0  0  0
   23.3178   69.7281    2.0465 C   0  0  1  0  0  0  0  0  0  0  0  0
   22.9604   71.9931    3.8112 C   0  0  1  0  0  0  0  0  0  0  0  0
   22.3859   70.9052    1.7733 C   0  0  1  0  0  0  0  0  0  0  0  0
   25.8145   69.1410    4.0427 H   0  0  0  0  0  0  0  0  0  0  0  0
   25.4907   70.6099    5.3247 H   0  0  0  0  0  0  0  0  0  0  0  0
   24.4867   68.5555    0.9711 H   0  0  0  0  0  0  0  0  0  0  0  0
   20.1378   71.3532    1.2767 O   0  0  0  0  0  0  0  0  0  0  0  0
   21.0057   69.3955    0.4937 O   0  0  0  0  0  0  0  0  0  0  0  0
   21.1299   70.4441    1.1084 C   0  0  0  0  0  0  0  0  0  0  0  0
  1  4  1  0
  1 24  1  0
  1  2  1  6
  1  3  2  0
 25 28  1  0
 25 24  1  0
 25 26  1  1
 25 27  2  0
  6 11  1  0
  6 12  1  0
 29 36  1  0
 29 37  1  0
  9  7  1  6
  7 13  1  0
 10  8  1  6
  8 14  1  0
  4  5  1  0
 36 28  1  6
 33 30  1  1
 30 38  1  0
 34 31  1  1
 31 39  1  0
 35 32  1  6
 32 40  1  0
 41 43  1  0
 15 19  2  0
 42 43  2  0
 16 22  2  0
 12 17  1  1
 17 19  1  0
 17 20  1  0
 18 19  1  0
 18 22  1  0
 18 23  1  0
  9 10  1  0
  9 11  1  0
 10 12  1  0
 11  5  1  1
 33 34  1  0
 33 35  1  0
 34 36  1  0
 35 37  1  0
 37 43  1  1
 20 21  2  0
 21 22  1  0
M  CHG  3   2  -1  26  -1  41  -1
M  END
>  <COMPND>  (16) 
    udp_gluA.pdb 

>  <AUTHOR>  (16) 
    GENERATED BY OPEN BABEL 3.1.1

>  <MASTER>  (16) 
        0    0    0    0    0    0    0    0   56    0   56    0

>  <minimizedAffinity>  (16) 
-6.75818

>  <CNNscore>  (16) 
0.3198453784

>  <CNNaffinity>  (16) 
3.7421498299

>  <CNN_VS>  (16) 
1.1969093084

>  <CNNaffinity_variance>  (16) 
0.6212610602

$$$$
17
     RDKit          3D

 43 45  0  0  0  0  0  0  0  0999 V2000
   21.8541   72.0654   -2.4087 P   0  0  2  0  0  0  0  0  0  0  0  0
   20.5067   72.7000   -1.7756 O   0  0  0  0  0  0  0  0  0  0  0  0
   23.0590   72.9585   -2.3591 O   0  0  0  0  0  0  0  0  0  0  0  0
   21.3992   71.5806   -3.8839 O   0  0  0  0  0  0  0  0  0  0  0  0
   20.2843   70.7154   -3.9973 C   0  0  0  0  0  0  0  0  0  0  0  0
   18.3404   70.5932   -5.4059 O   0  0  0  0  0  0  0  0  0  0  0  0
   20.0411   71.8294   -7.5439 O   0  0  0  0  0  0  0  0  0  0  0  0
   18.5836   73.9501   -6.6413 O   0  0  0  0  0  0  0  0  0  0  0  0
   20.0415   72.0707   -6.1366 C   0  0  1  0  0  0  0  0  0  0  0  0
   18.8281   72.8869   -5.7444 C   0  0  2  0  0  0  0  0  0  0  0  0
   19.7760   70.7469   -5.4329 C   0  0  1  0  0  0  0  0  0  0  0  0
   17.7258   71.8417   -5.7621 C   0  0  2  0  0  0  0  0  0  0  0  0
   20.2088   72.6611   -8.0149 H   0  0  0  0  0  0  0  0  0  0  0  0
   19.3131   74.5884   -6.5925 H   0  0  0  0  0  0  0  0  0  0  0  0
   15.6336   73.6819   -6.2232 O   0  0  0  0  0  0  0  0  0  0  0  0
   13.7681   72.8766   -2.0862 O   0  0  0  0  0  0  0  0  0  0  0  0
   16.6800   72.1322   -4.8226 N   0  0  0  0  0  0  0  0  0  0  0  0
   14.7070   73.2798   -4.1619 N   0  0  0  0  0  0  0  0  0  0  0  0
   15.6764   73.0736   -5.1523 C   0  0  0  0  0  0  0  0  0  0  0  0
   16.6544   71.4873   -3.5920 C   0  0  0  0  0  0  0  0  0  0  0  0
   15.7238   71.6942   -2.6582 C   0  0  0  0  0  0  0  0  0  0  0  0
   14.6400   72.6630   -2.9231 C   0  0  0  0  0  0  0  0  0  0  0  0
   13.9991   73.9323   -4.3677 H   0  0  0  0  0  0  0  0  0  0  0  0
   22.0137   70.6739   -1.6020 O   0  0  0  0  0  0  0  0  0  0  0  0
   21.4476   70.2122   -0.1597 P   0  0  2  0  0  0  0  0  0  0  0  0
   22.3279   68.8967    0.1793 O   0  0  0  0  0  0  0  0  0  0  0  0
   19.9634   69.9893   -0.1233 O   0  0  0  0  0  0  0  0  0  0  0  0
   21.9814   71.3352    0.8681 O   0  0  0  0  0  0  0  0  0  0  0  0
   22.2538   71.0941    3.2083 O   0  0  0  0  0  0  0  0  0  0  0  0
   21.6060   75.1588    2.8517 O   0  0  0  0  0  0  0  0  0  0  0  0
   20.0226   73.2643    1.2902 O   0  0  0  0  0  0  0  0  0  0  0  0
   24.2856   74.1461    3.3471 O   0  0  0  0  0  0  0  0  0  0  0  0
   22.0695   73.8721    2.4421 C   0  0  2  0  0  0  0  0  0  0  0  0
   20.8884   72.9048    2.3607 C   0  0  2  0  0  0  0  0  0  0  0  0
   23.0865   73.3845    3.4764 C   0  0  1  0  0  0  0  0  0  0  0  0
   21.3708   71.4688    2.1503 C   0  0  1  0  0  0  0  0  0  0  0  0
   23.4216   71.9094    3.2758 C   0  0  1  0  0  0  0  0  0  0  0  0
   20.9582   75.4889    2.2093 H   0  0  0  0  0  0  0  0  0  0  0  0
   19.7129   74.1744    1.4171 H   0  0  0  0  0  0  0  0  0  0  0  0
   24.0861   75.0871    3.4725 H   0  0  0  0  0  0  0  0  0  0  0  0
   23.4622   70.3212    5.0013 O   0  0  0  0  0  0  0  0  0  0  0  0
   25.2042   71.7888    4.8972 O   0  0  0  0  0  0  0  0  0  0  0  0
   24.1439   71.3631    4.4641 C   0  0  0  0  0  0  0  0  0  0  0  0
  1  4  1  0
  1 24  1  0
  1  2  1  1
  1  3  2  0
 25 28  1  0
 25 24  1  0
 25 26  1  1
 25 27  2  0
  6 11  1  0
  6 12  1  0
 29 36  1  0
 29 37  1  0
  9  7  1  6
  7 13  1  0
 10  8  1  6
  8 14  1  0
  4  5  1  0
 36 28  1  6
 33 30  1  1
 30 38  1  0
 34 31  1  6
 31 39  1  0
 35 32  1  6
 32 40  1  0
 41 43  1  0
 15 19  2  0
 42 43  2  0
 16 22  2  0
 12 17  1  1
 17 19  1  0
 17 20  1  0
 18 19  1  0
 18 22  1  0
 18 23  1  0
  9 10  1  0
  9 11  1  0
 10 12  1  0
 11  5  1  1
 33 34  1  0
 33 35  1  0
 34 36  1  0
 35 37  1  0
 37 43  1  1
 20 21  2  0
 21 22  1  0
M  CHG  3   2  -1  26  -1  41  -1
M  END
>  <COMPND>  (17) 
    udp_gluA.pdb 

>  <AUTHOR>  (17) 
    GENERATED BY OPEN BABEL 3.1.1

>  <MASTER>  (17) 
        0    0    0    0    0    0    0    0   56    0   56    0

>  <minimizedAffinity>  (17) 
-7.04351

>  <CNNscore>  (17) 
0.2988359034

>  <CNNaffinity>  (17) 
4.0370860100

>  <CNN_VS>  (17) 
1.2064262629

>  <CNNaffinity_variance>  (17) 
0.0309923925

$$$$
18
     RDKit          3D

 43 45  0  0  0  0  0  0  0  0999 V2000
   22.5313   72.8986   -3.5039 P   0  0  2  0  0  0  0  0  0  0  0  0
   23.7983   72.2449   -4.2696 O   0  0  0  0  0  0  0  0  0  0  0  0
   22.7231   74.3192   -3.0602 O   0  0  0  0  0  0  0  0  0  0  0  0
   22.1954   71.8356   -2.3312 O   0  0  0  0  0  0  0  0  0  0  0  0
   22.3323   72.2493   -0.9841 C   0  0  0  0  0  0  0  0  0  0  0  0
   21.7146   69.9376   -0.7553 O   0  0  0  0  0  0  0  0  0  0  0  0
   21.4996   70.4790    2.1862 O   0  0  0  0  0  0  0  0  0  0  0  0
   23.9240   69.2475    1.9827 O   0  0  0  0  0  0  0  0  0  0  0  0
   22.4234   71.0086    1.2351 C   0  0  1  0  0  0  0  0  0  0  0  0
   23.4482   69.9593    0.8595 C   0  0  2  0  0  0  0  0  0  0  0  0
   21.6804   71.2126   -0.0782 C   0  0  1  0  0  0  0  0  0  0  0  0
   22.6634   69.0811   -0.1000 C   0  0  2  0  0  0  0  0  0  0  0  0
   21.9515   70.3401    3.0336 H   0  0  0  0  0  0  0  0  0  0  0  0
   24.4168   69.8501    2.5623 H   0  0  0  0  0  0  0  0  0  0  0  0
   22.9421   66.2922   -0.4480 O   0  0  0  0  0  0  0  0  0  0  0  0
   25.9055   66.8394   -3.9355 O   0  0  0  0  0  0  0  0  0  0  0  0
   23.5011   68.4676   -1.0913 N   0  0  0  0  0  0  0  0  0  0  0  0
   24.4186   66.5674   -2.1839 N   0  0  0  0  0  0  0  0  0  0  0  0
   23.5702   67.0572   -1.1823 C   0  0  0  0  0  0  0  0  0  0  0  0
   24.2412   69.2598   -1.9606 C   0  0  0  0  0  0  0  0  0  0  0  0
   25.0454   68.7783   -2.9104 C   0  0  0  0  0  0  0  0  0  0  0  0
   25.1750   67.3153   -3.0717 C   0  0  0  0  0  0  0  0  0  0  0  0
   24.4846   65.5884   -2.2653 H   0  0  0  0  0  0  0  0  0  0  0  0
   21.3207   72.6781   -4.5520 O   0  0  0  0  0  0  0  0  0  0  0  0
   20.9438   73.4571   -5.9175 P   0  0  2  0  0  0  0  0  0  0  0  0
   22.0767   72.9507   -6.9570 O   0  0  0  0  0  0  0  0  0  0  0  0
   20.8603   74.9490   -5.7724 O   0  0  0  0  0  0  0  0  0  0  0  0
   19.5824   72.7567   -6.4260 O   0  0  0  0  0  0  0  0  0  0  0  0
   19.5230   70.5271   -5.6292 O   0  0  0  0  0  0  0  0  0  0  0  0
   16.0301   70.7281   -7.8264 O   0  0  0  0  0  0  0  0  0  0  0  0
   18.4919   71.9257   -8.8460 O   0  0  0  0  0  0  0  0  0  0  0  0
   15.9339   70.8117   -4.9221 O   0  0  0  0  0  0  0  0  0  0  0  0
   17.0803   71.2297   -6.9996 C   0  0  2  0  0  0  0  0  0  0  0  0
   18.4202   71.0629   -7.7168 C   0  0  2  0  0  0  0  0  0  0  0  0
   17.0737   70.4344   -5.6922 C   0  0  1  0  0  0  0  0  0  0  0  0
   19.5861   71.3742   -6.7773 C   0  0  1  0  0  0  0  0  0  0  0  0
   18.3298   70.7052   -4.8691 C   0  0  1  0  0  0  0  0  0  0  0  0
   16.0149   71.2186   -8.6633 H   0  0  0  0  0  0  0  0  0  0  0  0
   17.7549   71.7339   -9.4463 H   0  0  0  0  0  0  0  0  0  0  0  0
   15.1276   70.6445   -5.4347 H   0  0  0  0  0  0  0  0  0  0  0  0
   19.3093   70.1559   -2.8099 O   0  0  0  0  0  0  0  0  0  0  0  0
   17.9203   68.6091   -3.7466 O   0  0  0  0  0  0  0  0  0  0  0  0
   18.4750   69.6974   -3.7757 C   0  0  0  0  0  0  0  0  0  0  0  0
  1  4  1  0
  1 24  1  0
  1  2  1  6
  1  3  2  0
 25 28  1  0
 25 24  1  0
 25 26  1  6
 25 27  2  0
  6 11  1  0
  6 12  1  0
 29 36  1  0
 29 37  1  0
  9  7  1  1
  7 13  1  0
 10  8  1  1
  8 14  1  0
  4  5  1  0
 36 28  1  1
 33 30  1  6
 30 38  1  0
 34 31  1  6
 31 39  1  0
 35 32  1  1
 32 40  1  0
 41 43  1  0
 15 19  2  0
 42 43  2  0
 16 22  2  0
 12 17  1  6
 17 19  1  0
 17 20  1  0
 18 19  1  0
 18 22  1  0
 18 23  1  0
  9 10  1  0
  9 11  1  0
 10 12  1  0
 11  5  1  6
 33 34  1  0
 33 35  1  0
 34 36  1  0
 35 37  1  0
 37 43  1  1
 20 21  2  0
 21 22  1  0
M  CHG  3   2  -1  26  -1  41  -1
M  END
>  <COMPND>  (18) 
    udp_gluA.pdb 

>  <AUTHOR>  (18) 
    GENERATED BY OPEN BABEL 3.1.1

>  <MASTER>  (18) 
        0    0    0    0    0    0    0    0   56    0   56    0

>  <minimizedAffinity>  (18) 
-8.88620

>  <CNNscore>  (18) 
0.2982613444

>  <CNNaffinity>  (18) 
4.1845703125

>  <CNN_VS>  (18) 
1.2480955124

>  <CNNaffinity_variance>  (18) 
0.7437779307

$$$$
19
     RDKit          3D

 43 45  0  0  0  0  0  0  0  0999 V2000
   22.7393   72.9514   -3.2251 P   0  0  2  0  0  0  0  0  0  0  0  0
   23.8412   72.6296   -4.3658 O   0  0  0  0  0  0  0  0  0  0  0  0
   22.8382   74.3196   -2.6168 O   0  0  0  0  0  0  0  0  0  0  0  0
   22.8747   71.7124   -2.1934 O   0  0  0  0  0  0  0  0  0  0  0  0
   22.9431   71.9913   -0.8071 C   0  0  0  0  0  0  0  0  0  0  0  0
   23.1307   70.6698    1.1920 O   0  0  0  0  0  0  0  0  0  0  0  0
   20.3575   69.7015    0.5893 O   0  0  0  0  0  0  0  0  0  0  0  0
   19.9270   71.5772    2.5212 O   0  0  0  0  0  0  0  0  0  0  0  0
   20.9280   70.9940    0.3835 C   0  0  1  0  0  0  0  0  0  0  0  0
   21.0699   71.7207    1.7041 C   0  0  2  0  0  0  0  0  0  0  0  0
   22.3800   70.8056   -0.0341 C   0  0  1  0  0  0  0  0  0  0  0  0
   22.3007   71.0573    2.2984 C   0  0  2  0  0  0  0  0  0  0  0  0
   19.4296   69.7961    0.8569 H   0  0  0  0  0  0  0  0  0  0  0  0
   19.1710   72.0162    2.0997 H   0  0  0  0  0  0  0  0  0  0  0  0
   23.6174   70.2595    4.6661 O   0  0  0  0  0  0  0  0  0  0  0  0
   25.1165   74.5392    5.4914 O   0  0  0  0  0  0  0  0  0  0  0  0
   23.0425   71.9425    3.1511 N   0  0  0  0  0  0  0  0  0  0  0  0
   24.3619   72.3920    5.0754 N   0  0  0  0  0  0  0  0  0  0  0  0
   23.6662   71.4407    4.3177 C   0  0  0  0  0  0  0  0  0  0  0  0
   23.1479   73.2900    2.8282 C   0  0  0  0  0  0  0  0  0  0  0  0
   23.8146   74.1847    3.5602 C   0  0  0  0  0  0  0  0  0  0  0  0
   24.4943   73.7425    4.7955 C   0  0  0  0  0  0  0  0  0  0  0  0
   24.8028   72.0667    5.8934 H   0  0  0  0  0  0  0  0  0  0  0  0
   21.3404   72.6479   -3.9760 O   0  0  0  0  0  0  0  0  0  0  0  0
   20.1894   71.5534   -3.6742 P   0  0  2  0  0  0  0  0  0  0  0  0
   19.5218   72.0881   -2.2998 O   0  0  0  0  0  0  0  0  0  0  0  0
   20.6867   70.1383   -3.6104 O   0  0  0  0  0  0  0  0  0  0  0  0
   19.0668   71.8184   -4.8020 O   0  0  0  0  0  0  0  0  0  0  0  0
   17.0964   73.0414   -5.2823 O   0  0  0  0  0  0  0  0  0  0  0  0
   15.7960   69.1450   -5.7239 O   0  0  0  0  0  0  0  0  0  0  0  0
   17.5522   69.8778   -3.5073 O   0  0  0  0  0  0  0  0  0  0  0  0
   16.3044   70.7880   -8.0675 O   0  0  0  0  0  0  0  0  0  0  0  0
   16.7372   70.2175   -5.7671 C   0  0  2  0  0  0  0  0  0  0  0  0
   16.9043   70.8084   -4.3669 C   0  0  2  0  0  0  0  0  0  0  0  0
   16.2018   71.2779   -6.7319 C   0  0  1  0  0  0  0  0  0  0  0  0
   17.7237   72.0989   -4.4120 C   0  0  1  0  0  0  0  0  0  0  0  0
   16.9944   72.5776   -6.6268 C   0  0  1  0  0  0  0  0  0  0  0  0
   16.1151   68.4588   -5.1167 H   0  0  0  0  0  0  0  0  0  0  0  0
   17.0378   69.0564   -3.4743 H   0  0  0  0  0  0  0  0  0  0  0  0
   15.8043   69.9608   -8.1479 H   0  0  0  0  0  0  0  0  0  0  0  0
   16.9662   74.8546   -7.1889 O   0  0  0  0  0  0  0  0  0  0  0  0
   15.2151   73.5839   -7.9086 O   0  0  0  0  0  0  0  0  0  0  0  0
   16.2764   73.6937   -7.3131 C   0  0  0  0  0  0  0  0  0  0  0  0
  1  4  1  0
  1 24  1  0
  1  2  1  6
  1  3  2  0
 25 28  1  0
 25 24  1  0
 25 26  1  1
 25 27  2  0
  6 11  1  0
  6 12  1  0
 29 36  1  0
 29 37  1  0
  9  7  1  1
  7 13  1  0
 10  8  1  1
  8 14  1  0
  4  5  1  0
 36 28  1  6
 33 30  1  1
 30 38  1  0
 34 31  1  1
 31 39  1  0
 35 32  1  6
 32 40  1  0
 41 43  1  0
 15 19  2  0
 42 43  2  0
 16 22  2  0
 12 17  1  1
 17 19  1  0
 17 20  1  0
 18 19  1  0
 18 22  1  0
 18 23  1  0
  9 10  1  0
  9 11  1  0
 10 12  1  0
 11  5  1  1
 33 34  1  0
 33 35  1  0
 34 36  1  0
 35 37  1  0
 37 43  1  6
 20 21  2  0
 21 22  1  0
M  CHG  3   2  -1  26  -1  41  -1
M  END
>  <COMPND>  (19) 
    udp_gluA.pdb 

>  <AUTHOR>  (19) 
    GENERATED BY OPEN BABEL 3.1.1

>  <MASTER>  (19) 
        0    0    0    0    0    0    0    0   56    0   56    0

>  <minimizedAffinity>  (19) 
-8.12555

>  <CNNscore>  (19) 
0.2737782896

>  <CNNaffinity>  (19) 
3.8029284477

>  <CNN_VS>  (19) 
1.0411592722

>  <CNNaffinity_variance>  (19) 
0.1551585048

$$$$
20
     RDKit          3D

 43 45  0  0  0  0  0  0  0  0999 V2000
   22.1898   71.0964   -1.8690 P   0  0  2  0  0  0  0  0  0  0  0  0
   23.0375   71.4524   -0.5372 O   0  0  0  0  0  0  0  0  0  0  0  0
   22.3531   69.6902   -2.3668 O   0  0  0  0  0  0  0  0  0  0  0  0
   22.5981   72.2632   -2.9129 O   0  0  0  0  0  0  0  0  0  0  0  0
   21.5656   72.9589   -3.5870 C   0  0  0  0  0  0  0  0  0  0  0  0
   20.1705   71.3297   -4.6720 O   0  0  0  0  0  0  0  0  0  0  0  0
   21.0598   72.5629   -7.2566 O   0  0  0  0  0  0  0  0  0  0  0  0
   18.5831   73.6469   -6.9003 O   0  0  0  0  0  0  0  0  0  0  0  0
   20.7951   73.1885   -6.0008 C   0  0  1  0  0  0  0  0  0  0  0  0
   19.3032   73.2524   -5.7512 C   0  0  2  0  0  0  0  0  0  0  0  0
   21.2624   72.2470   -4.8992 C   0  0  1  0  0  0  0  0  0  0  0  0
   18.9930   71.8269   -5.3274 C   0  0  2  0  0  0  0  0  0  0  0  0
   20.7696   73.1457   -7.9761 H   0  0  0  0  0  0  0  0  0  0  0  0
   18.8152   74.5610   -7.1292 H   0  0  0  0  0  0  0  0  0  0  0  0
   17.0896   69.7406   -5.2929 O   0  0  0  0  0  0  0  0  0  0  0  0
   14.7869   71.6531   -1.7881 O   0  0  0  0  0  0  0  0  0  0  0  0
   17.8858   71.7546   -4.4165 N   0  0  0  0  0  0  0  0  0  0  0  0
   15.9440   70.6956   -3.5481 N   0  0  0  0  0  0  0  0  0  0  0  0
   16.9871   70.6638   -4.4830 C   0  0  0  0  0  0  0  0  0  0  0  0
   17.6998   72.7550   -3.4701 C   0  0  0  0  0  0  0  0  0  0  0  0
   16.7009   72.7716   -2.5855 C   0  0  0  0  0  0  0  0  0  0  0  0
   15.7173   71.6689   -2.5884 C   0  0  0  0  0  0  0  0  0  0  0  0
   15.3043   69.9478   -3.5763 H   0  0  0  0  0  0  0  0  0  0  0  0
   20.6787   71.4925   -1.4539 O   0  0  0  0  0  0  0  0  0  0  0  0
   19.5368   70.6530   -0.6762 P   0  0  2  0  0  0  0  0  0  0  0  0
   20.3893   69.7080    0.3241 O   0  0  0  0  0  0  0  0  0  0  0  0
   18.5972   69.9082   -1.5797 O   0  0  0  0  0  0  0  0  0  0  0  0
   18.8236   71.7300    0.2901 O   0  0  0  0  0  0  0  0  0  0  0  0
   18.9581   74.0937    0.3534 O   0  0  0  0  0  0  0  0  0  0  0  0
   18.5123   73.1695    4.3553 O   0  0  0  0  0  0  0  0  0  0  0  0
   20.2781   71.5793    2.6561 O   0  0  0  0  0  0  0  0  0  0  0  0
   16.2700   74.2401    2.8464 O   0  0  0  0  0  0  0  0  0  0  0  0
   18.3311   72.9966    2.9499 C   0  0  2  0  0  0  0  0  0  0  0  0
   19.6921   72.8191    2.2764 C   0  0  2  0  0  0  0  0  0  0  0  0
   17.6270   74.2422    2.4071 C   0  0  1  0  0  0  0  0  0  0  0  0
   19.5586   72.8613    0.7535 C   0  0  1  0  0  0  0  0  0  0  0  0
   17.6458   74.2724    0.8815 C   0  0  1  0  0  0  0  0  0  0  0  0
   18.9582   72.3899    4.7224 H   0  0  0  0  0  0  0  0  0  0  0  0
   20.3656   71.5456    3.6213 H   0  0  0  0  0  0  0  0  0  0  0  0
   16.2440   74.2208    3.8158 H   0  0  0  0  0  0  0  0  0  0  0  0
   17.4898   76.5724    1.3141 O   0  0  0  0  0  0  0  0  0  0  0  0
   16.8038   75.8511   -0.7372 O   0  0  0  0  0  0  0  0  0  0  0  0
   17.2606   75.6234    0.3730 C   0  0  0  0  0  0  0  0  0  0  0  0
  1  4  1  0
  1 24  1  0
  1  2  1  1
  1  3  2  0
 25 28  1  0
 25 24  1  0
 25 26  1  1
 25 27  2  0
  6 11  1  0
  6 12  1  0
 29 36  1  0
 29 37  1  0
  9  7  1  6
  7 13  1  0
 10  8  1  6
  8 14  1  0
  4  5  1  0
 36 28  1  1
 33 30  1  1
 30 38  1  0
 34 31  1  6
 31 39  1  0
 35 32  1  6
 32 40  1  0
 41 43  1  0
 15 19  2  0
 42 43  2  0
 16 22  2  0
 12 17  1  1
 17 19  1  0
 17 20  1  0
 18 19  1  0
 18 22  1  0
 18 23  1  0
  9 10  1  0
  9 11  1  0
 10 12  1  0
 11  5  1  1
 33 34  1  0
 33 35  1  0
 34 36  1  0
 35 37  1  0
 37 43  1  1
 20 21  2  0
 21 22  1  0
M  CHG  3   2  -1  26  -1  41  -1
M  END
>  <COMPND>  (20) 
    udp_gluA.pdb 

>  <AUTHOR>  (20) 
    GENERATED BY OPEN BABEL 3.1.1

>  <MASTER>  (20) 
        0    0    0    0    0    0    0    0   56    0   56    0

>  <minimizedAffinity>  (20) 
-6.00025

>  <CNNscore>  (20) 
0.2675361633

>  <CNNaffinity>  (20) 
3.8398380280

>  <CNN_VS>  (20) 
1.0272955894

>  <CNNaffinity_variance>  (20) 
0.1789374053

$$$$
21
     RDKit          3D

 43 45  0  0  0  0  0  0  0  0999 V2000
   22.5525   71.1761   -1.6964 P   0  0  2  0  0  0  0  0  0  0  0  0
   22.7532   72.7790   -1.7929 O   0  0  0  0  0  0  0  0  0  0  0  0
   23.2636   70.3837   -2.7539 O   0  0  0  0  0  0  0  0  0  0  0  0
   20.9465   70.9884   -1.6387 O   0  0  0  0  0  0  0  0  0  0  0  0
   20.2666   70.6136   -2.8226 C   0  0  0  0  0  0  0  0  0  0  0  0
   18.5053   71.7673   -3.9822 O   0  0  0  0  0  0  0  0  0  0  0  0
   16.6327   70.5055   -2.0093 O   0  0  0  0  0  0  0  0  0  0  0  0
   16.3185   68.9359   -4.2169 O   0  0  0  0  0  0  0  0  0  0  0  0
   17.8152   69.9693   -2.6032 C   0  0  1  0  0  0  0  0  0  0  0  0
   17.5543   69.5982   -4.0477 C   0  0  2  0  0  0  0  0  0  0  0  0
   18.8253   71.1001   -2.7422 C   0  0  1  0  0  0  0  0  0  0  0  0
   17.5899   70.9537   -4.7329 C   0  0  2  0  0  0  0  0  0  0  0  0
   15.9724   69.8013   -1.9103 H   0  0  0  0  0  0  0  0  0  0  0  0
   16.3464   68.0785   -3.7629 H   0  0  0  0  0  0  0  0  0  0  0  0
   15.9683   70.1901   -6.9155 O   0  0  0  0  0  0  0  0  0  0  0  0
   19.4473   70.6641   -9.9014 O   0  0  0  0  0  0  0  0  0  0  0  0
   18.0464   70.8691   -6.0913 N   0  0  0  0  0  0  0  0  0  0  0  0
   17.7029   70.4259   -8.4004 N   0  0  0  0  0  0  0  0  0  0  0  0
   17.1509   70.4750   -7.1135 C   0  0  0  0  0  0  0  0  0  0  0  0
   19.3660   71.1760   -6.4000 C   0  0  0  0  0  0  0  0  0  0  0  0
   19.8776   71.1247   -7.6314 C   0  0  0  0  0  0  0  0  0  0  0  0
   19.0088   70.7212   -8.7565 C   0  0  0  0  0  0  0  0  0  0  0  0
   17.0992   70.1522   -9.1284 H   0  0  0  0  0  0  0  0  0  0  0  0
   23.0119   70.8434   -0.1828 O   0  0  0  0  0  0  0  0  0  0  0  0
   22.2673   70.0267    0.9972 P   0  0  2  0  0  0  0  0  0  0  0  0
   23.4749   69.2105    1.7012 O   0  0  0  0  0  0  0  0  0  0  0  0
   21.1303   69.1660    0.5277 O   0  0  0  0  0  0  0  0  0  0  0  0
   21.8536   71.1525    2.0760 O   0  0  0  0  0  0  0  0  0  0  0  0
   21.4244   73.4727    1.8717 O   0  0  0  0  0  0  0  0  0  0  0  0
   23.2677   73.2806    5.5641 O   0  0  0  0  0  0  0  0  0  0  0  0
   24.2786   71.7061    3.3206 O   0  0  0  0  0  0  0  0  0  0  0  0
   20.3899   73.6523    5.3874 O   0  0  0  0  0  0  0  0  0  0  0  0
   22.4595   72.8111    4.4850 C   0  0  2  0  0  0  0  0  0  0  0  0
   23.3012   72.7343    3.2110 C   0  0  2  0  0  0  0  0  0  0  0  0
   21.3012   73.7939    4.2993 C   0  0  1  0  0  0  0  0  0  0  0  0
   22.4222   72.4579    1.9904 C   0  0  1  0  0  0  0  0  0  0  0  0
   20.5507   73.5306    2.9970 C   0  0  1  0  0  0  0  0  0  0  0  0
   24.0105   72.6717    5.7007 H   0  0  0  0  0  0  0  0  0  0  0  0
   24.8397   71.8750    4.0933 H   0  0  0  0  0  0  0  0  0  0  0  0
   20.8551   73.8171    6.2224 H   0  0  0  0  0  0  0  0  0  0  0  0
   19.8622   75.7136    3.5087 O   0  0  0  0  0  0  0  0  0  0  0  0
   18.8326   74.6825    1.7549 O   0  0  0  0  0  0  0  0  0  0  0  0
   19.6495   74.6747    2.6635 C   0  0  0  0  0  0  0  0  0  0  0  0
  1  4  1  0
  1 24  1  0
  1  2  1  6
  1  3  2  0
 25 28  1  0
 25 24  1  0
 25 26  1  1
 25 27  2  0
  6 11  1  0
  6 12  1  0
 29 36  1  0
 29 37  1  0
  9  7  1  6
  7 13  1  0
 10  8  1  1
  8 14  1  0
  4  5  1  0
 36 28  1  1
 33 30  1  1
 30 38  1  0
 34 31  1  1
 31 39  1  0
 35 32  1  1
 32 40  1  0
 41 43  1  0
 15 19  2  0
 42 43  2  0
 16 22  2  0
 12 17  1  6
 17 19  1  0
 17 20  1  0
 18 19  1  0
 18 22  1  0
 18 23  1  0
  9 10  1  0
  9 11  1  0
 10 12  1  0
 11  5  1  6
 33 34  1  0
 33 35  1  0
 34 36  1  0
 35 37  1  0
 37 43  1  6
 20 21  2  0
 21 22  1  0
M  CHG  3   2  -1  26  -1  41  -1
M  END
>  <COMPND>  (21) 
    udp_gluA.pdb 

>  <AUTHOR>  (21) 
    GENERATED BY OPEN BABEL 3.1.1

>  <MASTER>  (21) 
        0    0    0    0    0    0    0    0   56    0   56    0

>  <minimizedAffinity>  (21) 
-8.23897

>  <CNNscore>  (21) 
0.7807683349

>  <CNNaffinity>  (21) 
4.8230719566

>  <CNN_VS>  (21) 
3.7657017708

>  <CNNaffinity_variance>  (21) 
0.0378539786

$$$$
22
     RDKit          3D

 43 45  0  0  0  0  0  0  0  0999 V2000
   21.9823   70.8032   -2.2520 P   0  0  2  0  0  0  0  0  0  0  0  0
   22.9731   71.9640   -2.7904 O   0  0  0  0  0  0  0  0  0  0  0  0
   21.7041   69.7023   -3.2330 O   0  0  0  0  0  0  0  0  0  0  0  0
   20.6872   71.6139   -1.7197 O   0  0  0  0  0  0  0  0  0  0  0  0
   19.8908   72.3093   -2.6614 C   0  0  0  0  0  0  0  0  0  0  0  0
   17.7897   72.0210   -3.7928 O   0  0  0  0  0  0  0  0  0  0  0  0
   17.0339   70.2020   -1.5320 O   0  0  0  0  0  0  0  0  0  0  0  0
   17.7169   68.4481   -3.5050 O   0  0  0  0  0  0  0  0  0  0  0  0
   18.3038   70.3856   -2.1582 C   0  0  1  0  0  0  0  0  0  0  0  0
   18.3160   69.7269   -3.5214 C   0  0  2  0  0  0  0  0  0  0  0  0
   18.4429   71.8592   -2.5151 C   0  0  1  0  0  0  0  0  0  0  0  0
   17.5387   70.7260   -4.3614 C   0  0  2  0  0  0  0  0  0  0  0  0
   16.9220   69.2678   -1.2947 H   0  0  0  0  0  0  0  0  0  0  0  0
   18.2491   67.8488   -2.9577 H   0  0  0  0  0  0  0  0  0  0  0  0
   15.9100   69.9292   -6.5268 O   0  0  0  0  0  0  0  0  0  0  0  0
   19.2480   70.7823   -9.5885 O   0  0  0  0  0  0  0  0  0  0  0  0
   17.9569   70.7300   -5.7347 N   0  0  0  0  0  0  0  0  0  0  0  0
   17.5744   70.3539   -8.0496 N   0  0  0  0  0  0  0  0  0  0  0  0
   17.0613   70.3103   -6.7465 C   0  0  0  0  0  0  0  0  0  0  0  0
   19.2397   71.1476   -6.0679 C   0  0  0  0  0  0  0  0  0  0  0  0
   19.7145   71.1838   -7.3145 C   0  0  0  0  0  0  0  0  0  0  0  0
   18.8429   70.7608   -8.4302 C   0  0  0  0  0  0  0  0  0  0  0  0
   16.9700   70.0644   -8.7708 H   0  0  0  0  0  0  0  0  0  0  0  0
   22.6969   70.3217   -0.8843 O   0  0  0  0  0  0  0  0  0  0  0  0
   22.0910   70.0411    0.5880 P   0  0  2  0  0  0  0  0  0  0  0  0
   23.2939   69.2622    1.3407 O   0  0  0  0  0  0  0  0  0  0  0  0
   20.7831   69.3040    0.5854 O   0  0  0  0  0  0  0  0  0  0  0  0
   22.0408   71.4912    1.2931 O   0  0  0  0  0  0  0  0  0  0  0  0
   22.5537   71.3624    3.6017 O   0  0  0  0  0  0  0  0  0  0  0  0
   21.4871   75.3332    3.1977 O   0  0  0  0  0  0  0  0  0  0  0  0
   19.9538   73.2435    1.8499 O   0  0  0  0  0  0  0  0  0  0  0  0
   24.2863   74.5935    3.4586 O   0  0  0  0  0  0  0  0  0  0  0  0
   22.0318   74.0813    2.7807 C   0  0  2  0  0  0  0  0  0  0  0  0
   20.9469   73.0057    2.8409 C   0  0  2  0  0  0  0  0  0  0  0  0
   23.1836   73.7288    3.7246 C   0  0  1  0  0  0  0  0  0  0  0  0
   21.5433   71.6142    2.6243 C   0  0  1  0  0  0  0  0  0  0  0  0
   23.6388   72.2849    3.5331 C   0  0  1  0  0  0  0  0  0  0  0  0
   20.7531   75.5778    2.6123 H   0  0  0  0  0  0  0  0  0  0  0  0
   19.5713   74.1249    1.9811 H   0  0  0  0  0  0  0  0  0  0  0  0
   24.0099   75.5157    3.5768 H   0  0  0  0  0  0  0  0  0  0  0  0
   24.3300   72.6430    5.7457 O   0  0  0  0  0  0  0  0  0  0  0  0
   25.3015   70.9148    4.6193 O   0  0  0  0  0  0  0  0  0  0  0  0
   24.5188   71.8522    4.6603 C   0  0  0  0  0  0  0  0  0  0  0  0
  1  4  1  0
  1 24  1  0
  1  2  1  6
  1  3  2  0
 25 28  1  0
 25 24  1  0
 25 26  1  1
 25 27  2  0
  6 11  1  0
  6 12  1  0
 29 36  1  0
 29 37  1  0
  9  7  1  6
  7 13  1  0
 10  8  1  1
  8 14  1  0
  4  5  1  0
 36 28  1  6
 33 30  1  1
 30 38  1  0
 34 31  1  6
 31 39  1  0
 35 32  1  6
 32 40  1  0
 41 43  1  0
 15 19  2  0
 42 43  2  0
 16 22  2  0
 12 17  1  6
 17 19  1  0
 17 20  1  0
 18 19  1  0
 18 22  1  0
 18 23  1  0
  9 10  1  0
  9 11  1  0
 10 12  1  0
 11  5  1  6
 33 34  1  0
 33 35  1  0
 34 36  1  0
 35 37  1  0
 37 43  1  1
 20 21  2  0
 21 22  1  0
M  CHG  3   2  -1  26  -1  41  -1
M  END
>  <COMPND>  (22) 
    udp_gluA.pdb 

>  <AUTHOR>  (22) 
    GENERATED BY OPEN BABEL 3.1.1

>  <MASTER>  (22) 
        0    0    0    0    0    0    0    0   56    0   56    0

>  <minimizedAffinity>  (22) 
-8.38179

>  <CNNscore>  (22) 
0.7551941276

>  <CNNaffinity>  (22) 
4.6947932243

>  <CNN_VS>  (22) 
3.5454802513

>  <CNNaffinity_variance>  (22) 
0.0125355693

$$$$
23
     RDKit          3D

 43 45  0  0  0  0  0  0  0  0999 V2000
   22.6231   70.7219   -1.6492 P   0  0  2  0  0  0  0  0  0  0  0  0
   23.1965   72.0637   -2.3491 O   0  0  0  0  0  0  0  0  0  0  0  0
   23.5612   69.5508   -1.6609 O   0  0  0  0  0  0  0  0  0  0  0  0
   21.1954   70.4859   -2.3730 O   0  0  0  0  0  0  0  0  0  0  0  0
   20.7867   71.3981   -3.3756 C   0  0  0  0  0  0  0  0  0  0  0  0
   18.7824   72.1201   -4.4888 O   0  0  0  0  0  0  0  0  0  0  0  0
   17.2886   70.8774   -2.2050 O   0  0  0  0  0  0  0  0  0  0  0  0
   17.0506   68.9975   -4.1659 O   0  0  0  0  0  0  0  0  0  0  0  0
   18.4899   70.4426   -2.8422 C   0  0  1  0  0  0  0  0  0  0  0  0
   18.1778   69.8476   -4.1990 C   0  0  2  0  0  0  0  0  0  0  0  0
   19.2981   71.6782   -3.2144 C   0  0  1  0  0  0  0  0  0  0  0  0
   17.9488   71.0899   -5.0430 C   0  0  2  0  0  0  0  0  0  0  0  0
   16.7554   70.1052   -1.9579 H   0  0  0  0  0  0  0  0  0  0  0  0
   17.2467   68.2217   -3.6166 H   0  0  0  0  0  0  0  0  0  0  0  0
   16.1797   70.1343   -7.0264 O   0  0  0  0  0  0  0  0  0  0  0  0
   19.4252   70.3647  -10.2910 O   0  0  0  0  0  0  0  0  0  0  0  0
   18.3052   70.8907   -6.4193 N   0  0  0  0  0  0  0  0  0  0  0  0
   17.7981   70.2490   -8.6502 N   0  0  0  0  0  0  0  0  0  0  0  0
   17.3415   70.4063   -7.3350 C   0  0  0  0  0  0  0  0  0  0  0  0
   19.5953   71.1756   -6.8498 C   0  0  0  0  0  0  0  0  0  0  0  0
   20.0158   71.0207   -8.1068 C   0  0  0  0  0  0  0  0  0  0  0  0
   19.0712   70.5182   -9.1259 C   0  0  0  0  0  0  0  0  0  0  0  0
   17.1456   69.9111   -9.3055 H   0  0  0  0  0  0  0  0  0  0  0  0
   22.2027   71.2332   -0.1745 O   0  0  0  0  0  0  0  0  0  0  0  0
   21.4505   70.4731    1.0380 P   0  0  2  0  0  0  0  0  0  0  0  0
   22.4779   70.6459    2.2769 O   0  0  0  0  0  0  0  0  0  0  0  0
   21.0790   69.0500    0.7366 O   0  0  0  0  0  0  0  0  0  0  0  0
   20.2029   71.4268    1.4076 O   0  0  0  0  0  0  0  0  0  0  0  0
   18.2870   72.2372    0.2756 O   0  0  0  0  0  0  0  0  0  0  0  0
   19.5456   75.6031    2.3138 O   0  0  0  0  0  0  0  0  0  0  0  0
   21.4832   73.8609    0.9928 O   0  0  0  0  0  0  0  0  0  0  0  0
   17.2407   74.1031    3.2565 O   0  0  0  0  0  0  0  0  0  0  0  0
   19.3524   74.2048    2.1009 C   0  0  2  0  0  0  0  0  0  0  0  0
   20.0730   73.7775    0.8219 C   0  0  2  0  0  0  0  0  0  0  0  0
   17.8489   73.9488    1.9755 C   0  0  1  0  0  0  0  0  0  0  0  0
   19.7018   72.3446    0.4375 C   0  0  1  0  0  0  0  0  0  0  0  0
   17.5644   72.5383    1.4673 C   0  0  1  0  0  0  0  0  0  0  0  0
   20.4941   75.7898    2.3965 H   0  0  0  0  0  0  0  0  0  0  0  0
   21.7258   74.7674    1.2372 H   0  0  0  0  0  0  0  0  0  0  0  0
   17.4145   74.9967    3.5913 H   0  0  0  0  0  0  0  0  0  0  0  0
   15.9694   71.2970    0.2771 O   0  0  0  0  0  0  0  0  0  0  0  0
   15.2440   73.1851    1.3298 O   0  0  0  0  0  0  0  0  0  0  0  0
   16.1394   72.4066    1.0380 C   0  0  0  0  0  0  0  0  0  0  0  0
  1  4  1  0
  1 24  1  0
  1  2  1  6
  1  3  2  0
 25 28  1  0
 25 24  1  0
 25 26  1  1
 25 27  2  0
  6 11  1  0
  6 12  1  0
 29 36  1  0
 29 37  1  0
  9  7  1  6
  7 13  1  0
 10  8  1  1
  8 14  1  0
  4  5  1  0
 36 28  1  1
 33 30  1  6
 30 38  1  0
 34 31  1  1
 31 39  1  0
 35 32  1  1
 32 40  1  0
 41 43  1  0
 15 19  2  0
 42 43  2  0
 16 22  2  0
 12 17  1  6
 17 19  1  0
 17 20  1  0
 18 19  1  0
 18 22  1  0
 18 23  1  0
  9 10  1  0
  9 11  1  0
 10 12  1  0
 11  5  1  6
 33 34  1  0
 33 35  1  0
 34 36  1  0
 35 37  1  0
 37 43  1  6
 20 21  2  0
 21 22  1  0
M  CHG  3   2  -1  26  -1  41  -1
M  END
>  <COMPND>  (23) 
    udp_gluA.pdb 

>  <AUTHOR>  (23) 
    GENERATED BY OPEN BABEL 3.1.1

>  <MASTER>  (23) 
        0    0    0    0    0    0    0    0   56    0   56    0

>  <minimizedAffinity>  (23) 
-6.84307

>  <CNNscore>  (23) 
0.7410038710

>  <CNNaffinity>  (23) 
4.7688417435

>  <CNN_VS>  (23) 
3.5337302685

>  <CNNaffinity_variance>  (23) 
0.1146828160

$$$$
24
     RDKit          3D

 43 45  0  0  0  0  0  0  0  0999 V2000
   21.7747   70.9845   -0.7845 P   0  0  2  0  0  0  0  0  0  0  0  0
   22.5146   71.8530   -1.9322 O   0  0  0  0  0  0  0  0  0  0  0  0
   22.6459   69.9789   -0.0905 O   0  0  0  0  0  0  0  0  0  0  0  0
   20.4692   70.3870   -1.5306 O   0  0  0  0  0  0  0  0  0  0  0  0
   20.1121   70.9149   -2.7948 C   0  0  0  0  0  0  0  0  0  0  0  0
   18.3106   71.8977   -4.0463 O   0  0  0  0  0  0  0  0  0  0  0  0
   16.4715   70.5764   -2.0808 O   0  0  0  0  0  0  0  0  0  0  0  0
   16.3367   68.9108   -4.2357 O   0  0  0  0  0  0  0  0  0  0  0  0
   17.7066   70.1053   -2.6205 C   0  0  1  0  0  0  0  0  0  0  0  0
   17.5170   69.6653   -4.0567 C   0  0  2  0  0  0  0  0  0  0  0  0
   18.6384   71.2997   -2.7734 C   0  0  1  0  0  0  0  0  0  0  0  0
   17.4783   70.9946   -4.7912 C   0  0  2  0  0  0  0  0  0  0  0  0
   15.8596   69.8308   -1.9740 H   0  0  0  0  0  0  0  0  0  0  0  0
   16.4108   68.0743   -3.7490 H   0  0  0  0  0  0  0  0  0  0  0  0
   15.9408   70.1751   -7.0141 O   0  0  0  0  0  0  0  0  0  0  0  0
   19.5119   70.6477   -9.8894 O   0  0  0  0  0  0  0  0  0  0  0  0
   17.9812   70.8945   -6.1321 N   0  0  0  0  0  0  0  0  0  0  0  0
   17.7211   70.4103   -8.4439 N   0  0  0  0  0  0  0  0  0  0  0  0
   17.1256   70.4725   -7.1772 C   0  0  0  0  0  0  0  0  0  0  0  0
   19.3064   71.2139   -6.4015 C   0  0  0  0  0  0  0  0  0  0  0  0
   19.8597   71.1498   -7.6141 C   0  0  0  0  0  0  0  0  0  0  0  0
   19.0345   70.7171   -8.7609 C   0  0  0  0  0  0  0  0  0  0  0  0
   17.1458   70.1171   -9.1871 H   0  0  0  0  0  0  0  0  0  0  0  0
   21.1523   72.1188    0.1843 O   0  0  0  0  0  0  0  0  0  0  0  0
   20.7667   72.0791    1.7539 P   0  0  2  0  0  0  0  0  0  0  0  0
   21.1783   73.5560    2.2733 O   0  0  0  0  0  0  0  0  0  0  0  0
   21.4056   70.9550    2.5167 O   0  0  0  0  0  0  0  0  0  0  0  0
   19.1537   72.0735    1.7790 O   0  0  0  0  0  0  0  0  0  0  0  0
   17.9702   73.9060    0.8567 O   0  0  0  0  0  0  0  0  0  0  0  0
   15.0491   72.0812    3.1382 O   0  0  0  0  0  0  0  0  0  0  0  0
   17.7661   72.3753    4.1706 O   0  0  0  0  0  0  0  0  0  0  0  0
   15.0399   71.7840    0.2464 O   0  0  0  0  0  0  0  0  0  0  0  0
   16.2167   72.1380    2.3188 C   0  0  2  0  0  0  0  0  0  0  0  0
   17.2749   73.0097    2.9954 C   0  0  2  0  0  0  0  0  0  0  0  0
   15.8179   72.7369    0.9682 C   0  0  1  0  0  0  0  0  0  0  0  0
   18.4457   73.2819    2.0500 C   0  0  1  0  0  0  0  0  0  0  0  0
   17.0443   73.0970    0.1346 C   0  0  1  0  0  0  0  0  0  0  0  0
   15.2782   71.7038    4.0021 H   0  0  0  0  0  0  0  0  0  0  0  0
   17.0284   72.1993    4.7749 H   0  0  0  0  0  0  0  0  0  0  0  0
   14.2562   71.5462    0.7662 H   0  0  0  0  0  0  0  0  0  0  0  0
   17.1375   75.2276   -0.8419 O   0  0  0  0  0  0  0  0  0  0  0  0
   16.0202   73.6052   -1.9901 O   0  0  0  0  0  0  0  0  0  0  0  0
   16.6650   73.9688   -1.0180 C   0  0  0  0  0  0  0  0  0  0  0  0
  1  4  1  0
  1 24  1  0
  1  2  1  6
  1  3  2  0
 25 28  1  0
 25 24  1  0
 25 26  1  1
 25 27  2  0
  6 11  1  0
  6 12  1  0
 29 36  1  0
 29 37  1  0
  9  7  1  6
  7 13  1  0
 10  8  1  1
  8 14  1  0
  4  5  1  0
 36 28  1  6
 33 30  1  1
 30 38  1  0
 34 31  1  1
 31 39  1  0
 35 32  1  6
 32 40  1  0
 41 43  1  0
 15 19  2  0
 42 43  2  0
 16 22  2  0
 12 17  1  6
 17 19  1  0
 17 20  1  0
 18 19  1  0
 18 22  1  0
 18 23  1  0
  9 10  1  0
  9 11  1  0
 10 12  1  0
 11  5  1  6
 33 34  1  0
 33 35  1  0
 34 36  1  0
 35 37  1  0
 37 43  1  6
 20 21  2  0
 21 22  1  0
M  CHG  3   2  -1  26  -1  41  -1
M  END
>  <COMPND>  (24) 
    udp_gluA.pdb 

>  <AUTHOR>  (24) 
    GENERATED BY OPEN BABEL 3.1.1

>  <MASTER>  (24) 
        0    0    0    0    0    0    0    0   56    0   56    0

>  <minimizedAffinity>  (24) 
-6.36428

>  <CNNscore>  (24) 
0.6604489684

>  <CNNaffinity>  (24) 
4.4970202446

>  <CNN_VS>  (24) 
2.9700524807

>  <CNNaffinity_variance>  (24) 
0.0888245329

$$$$
25
     RDKit          3D

 43 45  0  0  0  0  0  0  0  0999 V2000
   22.5139   71.5408   -3.2530 P   0  0  2  0  0  0  0  0  0  0  0  0
   22.3285   72.2464   -1.8084 O   0  0  0  0  0  0  0  0  0  0  0  0
   23.7067   72.0050   -4.0363 O   0  0  0  0  0  0  0  0  0  0  0  0
   21.0787   71.7442   -3.9718 O   0  0  0  0  0  0  0  0  0  0  0  0
   20.2667   72.8303   -3.5651 C   0  0  0  0  0  0  0  0  0  0  0  0
   18.1552   72.3124   -4.5903 O   0  0  0  0  0  0  0  0  0  0  0  0
   17.5572   70.7208   -2.1203 O   0  0  0  0  0  0  0  0  0  0  0  0
   18.2815   68.7946   -3.9096 O   0  0  0  0  0  0  0  0  0  0  0  0
   18.7987   70.8972   -2.8032 C   0  0  1  0  0  0  0  0  0  0  0  0
   18.8105   70.0922   -4.0855 C   0  0  2  0  0  0  0  0  0  0  0  0
   18.8493   72.3270   -3.3241 C   0  0  1  0  0  0  0  0  0  0  0  0
   17.9591   70.9511   -5.0049 C   0  0  2  0  0  0  0  0  0  0  0  0
   17.5018   69.8143   -1.7784 H   0  0  0  0  0  0  0  0  0  0  0  0
   18.8591   68.2876   -3.3170 H   0  0  0  0  0  0  0  0  0  0  0  0
   16.1934   70.2301   -7.0878 O   0  0  0  0  0  0  0  0  0  0  0  0
   19.5321   70.4908  -10.2548 O   0  0  0  0  0  0  0  0  0  0  0  0
   18.3404   70.8232   -6.3829 N   0  0  0  0  0  0  0  0  0  0  0  0
   17.8581   70.3596   -8.6630 N   0  0  0  0  0  0  0  0  0  0  0  0
   17.3761   70.4555   -7.3509 C   0  0  0  0  0  0  0  0  0  0  0  0
   19.6552   71.0623   -6.7638 C   0  0  0  0  0  0  0  0  0  0  0  0
   20.0997   70.9670   -8.0185 C   0  0  0  0  0  0  0  0  0  0  0  0
   19.1563   70.5870   -9.0904 C   0  0  0  0  0  0  0  0  0  0  0  0
   17.2057   70.1031   -9.3542 H   0  0  0  0  0  0  0  0  0  0  0  0
   22.5184   69.9658   -2.8896 O   0  0  0  0  0  0  0  0  0  0  0  0
   23.5254   69.0898   -1.9772 P   0  0  2  0  0  0  0  0  0  0  0  0
   24.9873   69.5156   -2.5266 O   0  0  0  0  0  0  0  0  0  0  0  0
   23.2587   67.6128   -2.0098 O   0  0  0  0  0  0  0  0  0  0  0  0
   23.4321   69.7548   -0.5104 O   0  0  0  0  0  0  0  0  0  0  0  0
   23.4542   68.9965    1.7331 O   0  0  0  0  0  0  0  0  0  0  0  0
   20.3884   71.7648    1.8115 O   0  0  0  0  0  0  0  0  0  0  0  0
   20.6564   69.9151   -0.4337 O   0  0  0  0  0  0  0  0  0  0  0  0
   22.9774   72.4218    2.9589 O   0  0  0  0  0  0  0  0  0  0  0  0
   21.6276   71.2046    1.3773 C   0  0  2  0  0  0  0  0  0  0  0  0
   21.3824   69.8162    0.7860 C   0  0  2  0  0  0  0  0  0  0  0  0
   22.5550   71.1101    2.5910 C   0  0  1  0  0  0  0  0  0  0  0  0
   22.7037   69.0928    0.5220 C   0  0  1  0  0  0  0  0  0  0  0  0
   23.7900   70.2680    2.2841 C   0  0  1  0  0  0  0  0  0  0  0  0
   19.7828   71.8345    1.0568 H   0  0  0  0  0  0  0  0  0  0  0  0
   19.8169   70.3733   -0.2736 H   0  0  0  0  0  0  0  0  0  0  0  0
   22.2006   72.9681    3.1567 H   0  0  0  0  0  0  0  0  0  0  0  0
   23.7490   70.1833    4.6278 O   0  0  0  0  0  0  0  0  0  0  0  0
   25.6359   69.4302    3.5926 O   0  0  0  0  0  0  0  0  0  0  0  0
   24.5127   69.9085    3.5414 C   0  0  0  0  0  0  0  0  0  0  0  0
  1  4  1  0
  1 24  1  0
  1  2  1  1
  1  3  2  0
 25 28  1  0
 25 24  1  0
 25 26  1  6
 25 27  2  0
  6 11  1  0
  6 12  1  0
 29 36  1  0
 29 37  1  0
  9  7  1  6
  7 13  1  0
 10  8  1  1
  8 14  1  0
  4  5  1  0
 36 28  1  6
 33 30  1  1
 30 38  1  0
 34 31  1  6
 31 39  1  0
 35 32  1  6
 32 40  1  0
 41 43  1  0
 15 19  2  0
 42 43  2  0
 16 22  2  0
 12 17  1  6
 17 19  1  0
 17 20  1  0
 18 19  1  0
 18 22  1  0
 18 23  1  0
  9 10  1  0
  9 11  1  0
 10 12  1  0
 11  5  1  6
 33 34  1  0
 33 35  1  0
 34 36  1  0
 35 37  1  0
 37 43  1  1
 20 21  2  0
 21 22  1  0
M  CHG  3   2  -1  26  -1  41  -1
M  END
>  <COMPND>  (25) 
    udp_gluA.pdb 

>  <AUTHOR>  (25) 
    GENERATED BY OPEN BABEL 3.1.1

>  <MASTER>  (25) 
        0    0    0    0    0    0    0    0   56    0   56    0

>  <minimizedAffinity>  (25) 
-9.39834

>  <CNNscore>  (25) 
0.6439726353

>  <CNNaffinity>  (25) 
4.5308685303

>  <CNN_VS>  (25) 
2.9177553654

>  <CNNaffinity_variance>  (25) 
0.0423907451

$$$$
26
     RDKit          3D

 43 45  0  0  0  0  0  0  0  0999 V2000
   18.1022   71.1203   -1.1983 P   0  0  2  0  0  0  0  0  0  0  0  0
   18.4866   69.5999   -1.5978 O   0  0  0  0  0  0  0  0  0  0  0  0
   16.7612   71.2841   -0.5451 O   0  0  0  0  0  0  0  0  0  0  0  0
   18.3215   71.9497   -2.5701 O   0  0  0  0  0  0  0  0  0  0  0  0
   18.4196   71.2314   -3.7862 C   0  0  0  0  0  0  0  0  0  0  0  0
   16.2721   72.0855   -4.4469 O   0  0  0  0  0  0  0  0  0  0  0  0
   15.7966   69.4016   -5.6967 O   0  0  0  0  0  0  0  0  0  0  0  0
   16.4647   70.9476   -7.8413 O   0  0  0  0  0  0  0  0  0  0  0  0
   17.0059   70.1552   -5.6072 C   0  0  1  0  0  0  0  0  0  0  0  0
   16.9719   71.3179   -6.5764 C   0  0  2  0  0  0  0  0  0  0  0  0
   17.0192   70.8640   -4.2597 C   0  0  1  0  0  0  0  0  0  0  0  0
   16.0732   72.3058   -5.8523 C   0  0  2  0  0  0  0  0  0  0  0  0
   15.7654   68.9397   -6.5495 H   0  0  0  0  0  0  0  0  0  0  0  0
   17.0723   70.3183   -8.2617 H   0  0  0  0  0  0  0  0  0  0  0  0
   15.0074   73.7417   -8.0384 O   0  0  0  0  0  0  0  0  0  0  0  0
   17.3867   77.5340   -6.9423 O   0  0  0  0  0  0  0  0  0  0  0  0
   16.3970   73.6698   -6.1616 N   0  0  0  0  0  0  0  0  0  0  0  0
   16.1942   75.6288   -7.4910 N   0  0  0  0  0  0  0  0  0  0  0  0
   15.8064   74.2986   -7.2831 C   0  0  0  0  0  0  0  0  0  0  0  0
   17.2884   74.3703   -5.3581 C   0  0  0  0  0  0  0  0  0  0  0  0
   17.6483   75.6379   -5.5689 C   0  0  0  0  0  0  0  0  0  0  0  0
   17.0774   76.3673   -6.7202 C   0  0  0  0  0  0  0  0  0  0  0  0
   15.7978   76.0870   -8.2670 H   0  0  0  0  0  0  0  0  0  0  0  0
   19.3554   71.5844   -0.2888 O   0  0  0  0  0  0  0  0  0  0  0  0
   20.7874   70.8845   -0.0183 P   0  0  2  0  0  0  0  0  0  0  0  0
   21.5819   71.1180   -1.4091 O   0  0  0  0  0  0  0  0  0  0  0  0
   20.6996   69.4482    0.4101 O   0  0  0  0  0  0  0  0  0  0  0  0
   21.5239   71.8548    1.0393 O   0  0  0  0  0  0  0  0  0  0  0  0
   22.0438   71.3793    3.3004 O   0  0  0  0  0  0  0  0  0  0  0  0
   21.6269   75.4888    3.3799 O   0  0  0  0  0  0  0  0  0  0  0  0
   19.7561   73.8397    1.8584 O   0  0  0  0  0  0  0  0  0  0  0  0
   24.2734   74.2887    3.4625 O   0  0  0  0  0  0  0  0  0  0  0  0
   21.9558   74.2231    2.8073 C   0  0  2  0  0  0  0  0  0  0  0  0
   20.7124   73.3339    2.7827 C   0  0  2  0  0  0  0  0  0  0  0  0
   23.0496   73.5851    3.6666 C   0  0  1  0  0  0  0  0  0  0  0  0
   21.0729   71.9000    2.3918 C   0  0  1  0  0  0  0  0  0  0  0  0
   23.2625   72.1194    3.2994 C   0  0  1  0  0  0  0  0  0  0  0  0
   20.9335   75.9131    2.8504 H   0  0  0  0  0  0  0  0  0  0  0  0
   19.5230   74.7494    2.1003 H   0  0  0  0  0  0  0  0  0  0  0  0
   24.1514   75.2231    3.6925 H   0  0  0  0  0  0  0  0  0  0  0  0
   23.3982   70.3703    4.8563 O   0  0  0  0  0  0  0  0  0  0  0  0
   25.2032   71.7529    4.6854 O   0  0  0  0  0  0  0  0  0  0  0  0
   24.0778   71.4246    4.3410 C   0  0  0  0  0  0  0  0  0  0  0  0
  1  4  1  0
  1 24  1  0
  1  2  1  6
  1  3  2  0
 25 28  1  0
 25 24  1  0
 25 26  1  6
 25 27  2  0
  6 11  1  0
  6 12  1  0
 29 36  1  0
 29 37  1  0
  9  7  1  1
  7 13  1  0
 10  8  1  6
  8 14  1  0
  4  5  1  0
 36 28  1  6
 33 30  1  1
 30 38  1  0
 34 31  1  6
 31 39  1  0
 35 32  1  6
 32 40  1  0
 41 43  1  0
 15 19  2  0
 42 43  2  0
 16 22  2  0
 12 17  1  1
 17 19  1  0
 17 20  1  0
 18 19  1  0
 18 22  1  0
 18 23  1  0
  9 10  1  0
  9 11  1  0
 10 12  1  0
 11  5  1  6
 33 34  1  0
 33 35  1  0
 34 36  1  0
 35 37  1  0
 37 43  1  1
 20 21  2  0
 21 22  1  0
M  CHG  3   2  -1  26  -1  41  -1
M  END
>  <COMPND>  (26) 
    udp_gluA.pdb 

>  <AUTHOR>  (26) 
    GENERATED BY OPEN BABEL 3.1.1

>  <MASTER>  (26) 
        0    0    0    0    0    0    0    0   56    0   56    0

>  <minimizedAffinity>  (26) 
-7.38761

>  <CNNscore>  (26) 
0.3814560473

>  <CNNaffinity>  (26) 
3.9933171272

>  <CNN_VS>  (26) 
1.5232750177

>  <CNNaffinity_variance>  (26) 
0.1011320502

$$$$
27
     RDKit          3D

 43 45  0  0  0  0  0  0  0  0999 V2000
   22.4439   71.2314   -3.2179 P   0  0  2  0  0  0  0  0  0  0  0  0
   21.1852   70.2154   -3.1703 O   0  0  0  0  0  0  0  0  0  0  0  0
   23.7863   70.5719   -3.3386 O   0  0  0  0  0  0  0  0  0  0  0  0
   22.2361   72.1687   -1.9155 O   0  0  0  0  0  0  0  0  0  0  0  0
   23.0344   71.9240   -0.7721 C   0  0  0  0  0  0  0  0  0  0  0  0
   23.1781   70.6147    1.2386 O   0  0  0  0  0  0  0  0  0  0  0  0
   20.4074   69.6648    0.5966 O   0  0  0  0  0  0  0  0  0  0  0  0
   19.9605   71.5570    2.5086 O   0  0  0  0  0  0  0  0  0  0  0  0
   20.9918   70.9513    0.3916 C   0  0  1  0  0  0  0  0  0  0  0  0
   21.1179   71.6857    1.7095 C   0  0  2  0  0  0  0  0  0  0  0  0
   22.4489   70.7482   -0.0007 C   0  0  1  0  0  0  0  0  0  0  0  0
   22.3331   71.0165    2.3285 C   0  0  2  0  0  0  0  0  0  0  0  0
   19.4760   69.7688    0.8482 H   0  0  0  0  0  0  0  0  0  0  0  0
   19.2152   71.9993    2.0717 H   0  0  0  0  0  0  0  0  0  0  0  0
   23.6829   70.2067    4.6735 O   0  0  0  0  0  0  0  0  0  0  0  0
   25.1204   74.4980    5.5469 O   0  0  0  0  0  0  0  0  0  0  0  0
   23.0680   71.9014    3.1874 N   0  0  0  0  0  0  0  0  0  0  0  0
   24.3967   72.3450    5.1068 N   0  0  0  0  0  0  0  0  0  0  0  0
   23.7098   71.3933    4.3415 C   0  0  0  0  0  0  0  0  0  0  0  0
   23.1491   73.2548    2.8829 C   0  0  0  0  0  0  0  0  0  0  0  0
   23.8076   74.1497    3.6219 C   0  0  0  0  0  0  0  0  0  0  0  0
   24.5050   73.7012    4.8449 C   0  0  0  0  0  0  0  0  0  0  0  0
   24.8498   72.0153    5.9163 H   0  0  0  0  0  0  0  0  0  0  0  0
   22.0667   72.2193   -4.4404 O   0  0  0  0  0  0  0  0  0  0  0  0
   20.7608   73.1364   -4.6999 P   0  0  2  0  0  0  0  0  0  0  0  0
   21.3907   74.5583   -5.1490 O   0  0  0  0  0  0  0  0  0  0  0  0
   19.8229   73.2173   -3.5304 O   0  0  0  0  0  0  0  0  0  0  0  0
   20.1023   72.5394   -6.0461 O   0  0  0  0  0  0  0  0  0  0  0  0
   18.9991   70.4919   -5.5994 O   0  0  0  0  0  0  0  0  0  0  0  0
   18.5966   70.7863   -9.7005 O   0  0  0  0  0  0  0  0  0  0  0  0
   21.1224   71.4799   -8.4068 O   0  0  0  0  0  0  0  0  0  0  0  0
   16.3297   71.3438   -7.9681 O   0  0  0  0  0  0  0  0  0  0  0  0
   18.7054   71.2744   -8.3634 C   0  0  2  0  0  0  0  0  0  0  0  0
   20.0368   70.8247   -7.7612 C   0  0  2  0  0  0  0  0  0  0  0  0
   17.5367   70.7054   -7.5557 C   0  0  1  0  0  0  0  0  0  0  0  0
   20.0906   71.1297   -6.2636 C   0  0  1  0  0  0  0  0  0  0  0  0
   17.7264   70.9406   -6.0600 C   0  0  1  0  0  0  0  0  0  0  0  0
   19.3291   71.1348  -10.2328 H   0  0  0  0  0  0  0  0  0  0  0  0
   21.0943   71.2909   -9.3576 H   0  0  0  0  0  0  0  0  0  0  0  0
   16.1972   71.2018   -8.9185 H   0  0  0  0  0  0  0  0  0  0  0  0
   16.2876   69.0887   -6.0170 O   0  0  0  0  0  0  0  0  0  0  0  0
   16.4631   70.3141   -4.1022 O   0  0  0  0  0  0  0  0  0  0  0  0
   16.7707   70.1100   -5.2670 C   0  0  0  0  0  0  0  0  0  0  0  0
  1  4  1  0
  1 24  1  0
  1  2  1  1
  1  3  2  0
 25 28  1  0
 25 24  1  0
 25 26  1  6
 25 27  2  0
  6 11  1  0
  6 12  1  0
 29 36  1  0
 29 37  1  0
  9  7  1  1
  7 13  1  0
 10  8  1  1
  8 14  1  0
  4  5  1  0
 36 28  1  6
 33 30  1  6
 30 38  1  0
 34 31  1  6
 31 39  1  0
 35 32  1  6
 32 40  1  0
 41 43  1  0
 15 19  2  0
 42 43  2  0
 16 22  2  0
 12 17  1  1
 17 19  1  0
 17 20  1  0
 18 19  1  0
 18 22  1  0
 18 23  1  0
  9 10  1  0
  9 11  1  0
 10 12  1  0
 11  5  1  1
 33 34  1  0
 33 35  1  0
 34 36  1  0
 35 37  1  0
 37 43  1  1
 20 21  2  0
 21 22  1  0
M  CHG  3   2  -1  26  -1  41  -1
M  END
>  <COMPND>  (27) 
    udp_gluA.pdb 

>  <AUTHOR>  (27) 
    GENERATED BY OPEN BABEL 3.1.1

>  <MASTER>  (27) 
        0    0    0    0    0    0    0    0   56    0   56    0

>  <minimizedAffinity>  (27) 
-8.93766

>  <CNNscore>  (27) 
0.3692034185

>  <CNNaffinity>  (27) 
4.0943274498

>  <CNN_VS>  (27) 
1.5116397142

>  <CNNaffinity_variance>  (27) 
0.0572104938

$$$$
28
     RDKit          3D

 43 45  0  0  0  0  0  0  0  0999 V2000
   21.8808   74.6373   -1.8849 P   0  0  2  0  0  0  0  0  0  0  0  0
   23.4046   74.1327   -2.0899 O   0  0  0  0  0  0  0  0  0  0  0  0
   21.6426   76.0824   -2.2117 O   0  0  0  0  0  0  0  0  0  0  0  0
   21.5241   74.1912   -0.3711 O   0  0  0  0  0  0  0  0  0  0  0  0
   20.1975   74.3678    0.0910 C   0  0  0  0  0  0  0  0  0  0  0  0
   18.3701   72.9355    0.7129 O   0  0  0  0  0  0  0  0  0  0  0  0
   20.4550   70.9395    1.5258 O   0  0  0  0  0  0  0  0  0  0  0  0
   19.6491   70.0028   -0.9050 O   0  0  0  0  0  0  0  0  0  0  0  0
   20.4628   71.8611    0.4353 C   0  0  1  0  0  0  0  0  0  0  0  0
   19.5279   71.3879   -0.6575 C   0  0  2  0  0  0  0  0  0  0  0  0
   19.7868   73.1440    0.8996 C   0  0  1  0  0  0  0  0  0  0  0  0
   18.1682   71.7646   -0.0943 C   0  0  2  0  0  0  0  0  0  0  0  0
   20.8819   70.1118    1.2531 H   0  0  0  0  0  0  0  0  0  0  0  0
   20.5314   69.8142   -1.2626 H   0  0  0  0  0  0  0  0  0  0  0  0
   15.6960   70.4369   -0.4137 O   0  0  0  0  0  0  0  0  0  0  0  0
   14.5832   73.0032   -4.0770 O   0  0  0  0  0  0  0  0  0  0  0  0
   17.2133   72.0657   -1.1231 N   0  0  0  0  0  0  0  0  0  0  0  0
   15.1446   71.7156   -2.2385 N   0  0  0  0  0  0  0  0  0  0  0  0
   16.0013   71.3391   -1.1958 C   0  0  0  0  0  0  0  0  0  0  0  0
   17.4802   73.0712   -2.0444 C   0  0  0  0  0  0  0  0  0  0  0  0
   16.6537   73.4187   -3.0328 C   0  0  0  0  0  0  0  0  0  0  0  0
   15.3665   72.7081   -3.1794 C   0  0  0  0  0  0  0  0  0  0  0  0
   14.2955   71.2225   -2.3107 H   0  0  0  0  0  0  0  0  0  0  0  0
   21.0298   73.5953   -2.7809 O   0  0  0  0  0  0  0  0  0  0  0  0
   21.1843   73.1531   -4.3283 P   0  0  2  0  0  0  0  0  0  0  0  0
   22.3943   72.0786   -4.2868 O   0  0  0  0  0  0  0  0  0  0  0  0
   21.4045   74.2962   -5.2763 O   0  0  0  0  0  0  0  0  0  0  0  0
   19.8680   72.2725   -4.6357 O   0  0  0  0  0  0  0  0  0  0  0  0
   19.3277   69.9711   -4.4906 O   0  0  0  0  0  0  0  0  0  0  0  0
   17.4679   71.0505   -8.0182 O   0  0  0  0  0  0  0  0  0  0  0  0
   20.1453   72.0381   -7.3932 O   0  0  0  0  0  0  0  0  0  0  0  0
   15.8976   70.6443   -5.6057 O   0  0  0  0  0  0  0  0  0  0  0  0
   17.9621   71.2449   -6.6930 C   0  0  2  0  0  0  0  0  0  0  0  0
   19.4731   71.0128   -6.6711 C   0  0  2  0  0  0  0  0  0  0  0  0
   17.2566   70.2452   -5.7738 C   0  0  1  0  0  0  0  0  0  0  0  0
   20.0017   70.9856   -5.2363 C   0  0  1  0  0  0  0  0  0  0  0  0
   17.9209   70.1856   -4.4014 C   0  0  1  0  0  0  0  0  0  0  0  0
   17.9022   71.6751   -8.6203 H   0  0  0  0  0  0  0  0  0  0  0  0
   19.8146   72.0613   -8.3045 H   0  0  0  0  0  0  0  0  0  0  0  0
   15.4634   70.6863   -6.4720 H   0  0  0  0  0  0  0  0  0  0  0  0
   16.6063   68.2431   -4.3874 O   0  0  0  0  0  0  0  0  0  0  0  0
   17.7715   68.7242   -2.4874 O   0  0  0  0  0  0  0  0  0  0  0  0
   17.4478   68.9939   -3.6343 C   0  0  0  0  0  0  0  0  0  0  0  0
  1  4  1  0
  1 24  1  0
  1  2  1  6
  1  3  2  0
 25 28  1  0
 25 24  1  0
 25 26  1  1
 25 27  2  0
  6 11  1  0
  6 12  1  0
 29 36  1  0
 29 37  1  0
  9  7  1  1
  7 13  1  0
 10  8  1  1
  8 14  1  0
  4  5  1  0
 36 28  1  1
 33 30  1  6
 30 38  1  0
 34 31  1  6
 31 39  1  0
 35 32  1  1
 32 40  1  0
 41 43  1  0
 15 19  2  0
 42 43  2  0
 16 22  2  0
 12 17  1  6
 17 19  1  0
 17 20  1  0
 18 19  1  0
 18 22  1  0
 18 23  1  0
  9 10  1  0
  9 11  1  0
 10 12  1  0
 11  5  1  6
 33 34  1  0
 33 35  1  0
 34 36  1  0
 35 37  1  0
 37 43  1  1
 20 21  2  0
 21 22  1  0
M  CHG  3   2  -1  26  -1  41  -1
M  END
>  <COMPND>  (28) 
    udp_gluA.pdb 

>  <AUTHOR>  (28) 
    GENERATED BY OPEN BABEL 3.1.1

>  <MASTER>  (28) 
        0    0    0    0    0    0    0    0   56    0   56    0

>  <minimizedAffinity>  (28) 
-6.45269

>  <CNNscore>  (28) 
0.3676963747

>  <CNNaffinity>  (28) 
3.7195632458

>  <CNN_VS>  (28) 
1.3676699400

>  <CNNaffinity_variance>  (28) 
1.0965731144

$$$$
29
     RDKit          3D

 43 45  0  0  0  0  0  0  0  0999 V2000
   22.0117   71.3829   -3.1334 P   0  0  2  0  0  0  0  0  0  0  0  0
   21.4937   72.7980   -3.7234 O   0  0  0  0  0  0  0  0  0  0  0  0
   23.4370   71.0444   -3.4588 O   0  0  0  0  0  0  0  0  0  0  0  0
   20.9032   70.3202   -3.6433 O   0  0  0  0  0  0  0  0  0  0  0  0
   19.9297   70.7536   -4.5755 C   0  0  0  0  0  0  0  0  0  0  0  0
   17.8521   71.9320   -4.3054 O   0  0  0  0  0  0  0  0  0  0  0  0
   16.7215   69.3351   -3.3209 O   0  0  0  0  0  0  0  0  0  0  0  0
   15.8201   69.4407   -5.8924 O   0  0  0  0  0  0  0  0  0  0  0  0
   17.6901   69.5692   -4.3435 C   0  0  1  0  0  0  0  0  0  0  0  0
   17.0196   70.1197   -5.5844 C   0  0  2  0  0  0  0  0  0  0  0  0
   18.5612   70.7389   -3.9065 C   0  0  1  0  0  0  0  0  0  0  0  0
   16.7879   71.5711   -5.2001 C   0  0  2  0  0  0  0  0  0  0  0  0
   16.1530   68.5918   -3.5777 H   0  0  0  0  0  0  0  0  0  0  0  0
   16.0209   68.5216   -6.1307 H   0  0  0  0  0  0  0  0  0  0  0  0
   18.2134   71.0551   -7.5830 O   0  0  0  0  0  0  0  0  0  0  0  0
   16.8169   75.0118   -9.4905 O   0  0  0  0  0  0  0  0  0  0  0  0
   16.8142   72.4494   -6.3353 N   0  0  0  0  0  0  0  0  0  0  0  0
   17.5173   73.0267   -8.5304 N   0  0  0  0  0  0  0  0  0  0  0  0
   17.5618   72.0965   -7.4836 C   0  0  0  0  0  0  0  0  0  0  0  0
   16.1040   73.6434   -6.3050 C   0  0  0  0  0  0  0  0  0  0  0  0
   16.0711   74.5199   -7.3106 C   0  0  0  0  0  0  0  0  0  0  0  0
   16.8262   74.2274   -8.5466 C   0  0  0  0  0  0  0  0  0  0  0  0
   18.0318   72.8039   -9.3397 H   0  0  0  0  0  0  0  0  0  0  0  0
   21.6936   71.5100   -1.5537 O   0  0  0  0  0  0  0  0  0  0  0  0
   21.1326   70.4263   -0.4934 P   0  0  2  0  0  0  0  0  0  0  0  0
   22.1355   69.1699   -0.6830 O   0  0  0  0  0  0  0  0  0  0  0  0
   19.6799   70.0896   -0.6672 O   0  0  0  0  0  0  0  0  0  0  0  0
   21.5106   71.0344    0.9522 O   0  0  0  0  0  0  0  0  0  0  0  0
   22.8109   72.9463    1.4651 O   0  0  0  0  0  0  0  0  0  0  0  0
   23.5429   70.5299    4.7351 O   0  0  0  0  0  0  0  0  0  0  0  0
   23.4779   69.3983    2.0426 O   0  0  0  0  0  0  0  0  0  0  0  0
   21.7468   72.8033    4.9736 O   0  0  0  0  0  0  0  0  0  0  0  0
   22.7761   71.0674    3.6575 C   0  0  2  0  0  0  0  0  0  0  0  0
   23.4898   70.7910    2.3340 C   0  0  2  0  0  0  0  0  0  0  0  0
   22.6363   72.5746    3.8823 C   0  0  1  0  0  0  0  0  0  0  0  0
   22.8217   71.5462    1.1841 C   0  0  1  0  0  0  0  0  0  0  0  0
   22.0799   73.2731    2.6449 C   0  0  1  0  0  0  0  0  0  0  0  0
   23.6449   69.5727    4.6137 H   0  0  0  0  0  0  0  0  0  0  0  0
   23.9001   68.9130    2.7682 H   0  0  0  0  0  0  0  0  0  0  0  0
   22.0894   72.3637    5.7675 H   0  0  0  0  0  0  0  0  0  0  0  0
   22.6937   75.0987    3.9836 O   0  0  0  0  0  0  0  0  0  0  0  0
   22.0349   75.5500    1.8478 O   0  0  0  0  0  0  0  0  0  0  0  0
   22.2539   74.7534    2.7481 C   0  0  0  0  0  0  0  0  0  0  0  0
  1  4  1  0
  1 24  1  0
  1  2  1  6
  1  3  2  0
 25 28  1  0
 25 24  1  0
 25 26  1  6
 25 27  2  0
  6 11  1  0
  6 12  1  0
 29 36  1  0
 29 37  1  0
  9  7  1  1
  7 13  1  0
 10  8  1  1
  8 14  1  0
  4  5  1  0
 36 28  1  1
 33 30  1  1
 30 38  1  0
 34 31  1  6
 31 39  1  0
 35 32  1  1
 32 40  1  0
 41 43  1  0
 15 19  2  0
 42 43  2  0
 16 22  2  0
 12 17  1  6
 17 19  1  0
 17 20  1  0
 18 19  1  0
 18 22  1  0
 18 23  1  0
  9 10  1  0
  9 11  1  0
 10 12  1  0
 11  5  1  6
 33 34  1  0
 33 35  1  0
 34 36  1  0
 35 37  1  0
 37 43  1  1
 20 21  2  0
 21 22  1  0
M  CHG  3   2  -1  26  -1  41  -1
M  END
>  <COMPND>  (29) 
    udp_gluA.pdb 

>  <AUTHOR>  (29) 
    GENERATED BY OPEN BABEL 3.1.1

>  <MASTER>  (29) 
        0    0    0    0    0    0    0    0   56    0   56    0

>  <minimizedAffinity>  (29) 
-7.80404

>  <CNNscore>  (29) 
0.3665832281

>  <CNNaffinity>  (29) 
4.1312661171

>  <CNN_VS>  (29) 
1.5144528151

>  <CNNaffinity_variance>  (29) 
0.0252248701

$$$$
30
     RDKit          3D

 43 45  0  0  0  0  0  0  0  0999 V2000
   22.4679   70.6958   -2.6421 P   0  0  2  0  0  0  0  0  0  0  0  0
   23.8357   70.6043   -3.5021 O   0  0  0  0  0  0  0  0  0  0  0  0
   21.3946   69.7316   -3.0544 O   0  0  0  0  0  0  0  0  0  0  0  0
   22.0695   72.2624   -2.7113 O   0  0  0  0  0  0  0  0  0  0  0  0
   20.7667   72.6103   -3.1429 C   0  0  0  0  0  0  0  0  0  0  0  0
   20.3404   71.7661   -5.3527 O   0  0  0  0  0  0  0  0  0  0  0  0
   20.3629   74.6276   -6.2486 O   0  0  0  0  0  0  0  0  0  0  0  0
   17.6978   74.0676   -6.1100 O   0  0  0  0  0  0  0  0  0  0  0  0
   19.8760   74.0663   -5.0295 C   0  0  1  0  0  0  0  0  0  0  0  0
   18.5704   73.3390   -5.2721 C   0  0  2  0  0  0  0  0  0  0  0  0
   20.8057   72.9279   -4.6322 C   0  0  1  0  0  0  0  0  0  0  0  0
   19.0446   72.0430   -5.9072 C   0  0  2  0  0  0  0  0  0  0  0  0
   19.7848   75.3573   -6.5226 H   0  0  0  0  0  0  0  0  0  0  0  0
   17.4242   74.8833   -5.6608 H   0  0  0  0  0  0  0  0  0  0  0  0
   16.7641   71.3808   -7.4361 O   0  0  0  0  0  0  0  0  0  0  0  0
   15.7608   67.7934   -4.7217 O   0  0  0  0  0  0  0  0  0  0  0  0
   18.1697   70.9410   -5.6224 N   0  0  0  0  0  0  0  0  0  0  0  0
   16.2660   69.5953   -6.0821 N   0  0  0  0  0  0  0  0  0  0  0  0
   17.0510   70.6950   -6.4531 C   0  0  0  0  0  0  0  0  0  0  0  0
   18.4240   70.1172   -4.5327 C   0  0  0  0  0  0  0  0  0  0  0  0
   17.6668   69.0726   -4.1917 C   0  0  0  0  0  0  0  0  0  0  0  0
   16.4782   68.7474   -5.0072 C   0  0  0  0  0  0  0  0  0  0  0  0
   15.4804   69.4054   -6.6443 H   0  0  0  0  0  0  0  0  0  0  0  0
   22.9836   70.5189   -1.1203 O   0  0  0  0  0  0  0  0  0  0  0  0
   22.1736   70.2229    0.2472 P   0  0  2  0  0  0  0  0  0  0  0  0
   23.1360   69.1823    1.0291 O   0  0  0  0  0  0  0  0  0  0  0  0
   20.7710   69.7303    0.0378 O   0  0  0  0  0  0  0  0  0  0  0  0
   22.2831   71.5926    1.0924 O   0  0  0  0  0  0  0  0  0  0  0  0
   22.5396   71.2568    3.4228 O   0  0  0  0  0  0  0  0  0  0  0  0
   21.9438   75.3401    3.2222 O   0  0  0  0  0  0  0  0  0  0  0  0
   20.3459   73.5279    1.5798 O   0  0  0  0  0  0  0  0  0  0  0  0
   24.6079   74.2755    3.6911 O   0  0  0  0  0  0  0  0  0  0  0  0
   22.3937   74.0647    2.7649 C   0  0  2  0  0  0  0  0  0  0  0  0
   21.2013   73.1161    2.6398 C   0  0  2  0  0  0  0  0  0  0  0  0
   23.3989   73.5244    3.7845 C   0  0  1  0  0  0  0  0  0  0  0  0
   21.6672   71.6836    2.3758 C   0  0  1  0  0  0  0  0  0  0  0  0
   23.7170   72.0542    3.5279 C   0  0  1  0  0  0  0  0  0  0  0  0
   21.3037   75.7031    2.5899 H   0  0  0  0  0  0  0  0  0  0  0  0
   20.0467   74.4362    1.7407 H   0  0  0  0  0  0  0  0  0  0  0  0
   24.4193   75.2132    3.8522 H   0  0  0  0  0  0  0  0  0  0  0  0
   23.7875   70.3339    5.1208 O   0  0  0  0  0  0  0  0  0  0  0  0
   25.4426   71.8999    5.2072 O   0  0  0  0  0  0  0  0  0  0  0  0
   24.4260   71.4529    4.6976 C   0  0  0  0  0  0  0  0  0  0  0  0
  1  4  1  0
  1 24  1  0
  1  2  1  6
  1  3  2  0
 25 28  1  0
 25 24  1  0
 25 26  1  1
 25 27  2  0
  6 11  1  0
  6 12  1  0
 29 36  1  0
 29 37  1  0
  9  7  1  6
  7 13  1  0
 10  8  1  6
  8 14  1  0
  4  5  1  0
 36 28  1  6
 33 30  1  1
 30 38  1  0
 34 31  1  6
 31 39  1  0
 35 32  1  6
 32 40  1  0
 41 43  1  0
 15 19  2  0
 42 43  2  0
 16 22  2  0
 12 17  1  1
 17 19  1  0
 17 20  1  0
 18 19  1  0
 18 22  1  0
 18 23  1  0
  9 10  1  0
  9 11  1  0
 10 12  1  0
 11  5  1  1
 33 34  1  0
 33 35  1  0
 34 36  1  0
 35 37  1  0
 37 43  1  1
 20 21  2  0
 21 22  1  0
M  CHG  3   2  -1  26  -1  41  -1
M  END
>  <COMPND>  (30) 
    udp_gluA.pdb 

>  <AUTHOR>  (30) 
    GENERATED BY OPEN BABEL 3.1.1

>  <MASTER>  (30) 
        0    0    0    0    0    0    0    0   56    0   56    0

>  <minimizedAffinity>  (30) 
-8.21503

>  <CNNscore>  (30) 
0.3585210145

>  <CNNaffinity>  (30) 
4.0322380066

>  <CNN_VS>  (30) 
1.4456421137

>  <CNNaffinity_variance>  (30) 
0.1192377359

$$$$
31
     RDKit          3D

 43 45  0  0  0  0  0  0  0  0999 V2000
   16.9843   71.4801   -3.1186 P   0  0  2  0  0  0  0  0  0  0  0  0
   16.0486   70.3807   -2.3875 O   0  0  0  0  0  0  0  0  0  0  0  0
   16.3845   72.8513   -3.2268 O   0  0  0  0  0  0  0  0  0  0  0  0
   17.3878   70.7773   -4.5191 O   0  0  0  0  0  0  0  0  0  0  0  0
   16.4284   70.7436   -5.5597 C   0  0  0  0  0  0  0  0  0  0  0  0
   16.1471   71.9501   -7.6196 O   0  0  0  0  0  0  0  0  0  0  0  0
   19.1396   71.9534   -7.8101 O   0  0  0  0  0  0  0  0  0  0  0  0
   18.5980   74.4652   -6.8973 O   0  0  0  0  0  0  0  0  0  0  0  0
   18.3076   72.0633   -6.6551 C   0  0  1  0  0  0  0  0  0  0  0  0
   17.6775   73.4386   -6.5919 C   0  0  2  0  0  0  0  0  0  0  0  0
   17.0948   71.1665   -6.8626 C   0  0  1  0  0  0  0  0  0  0  0  0
   16.5665   73.3240   -7.6217 C   0  0  2  0  0  0  0  0  0  0  0  0
   19.9213   72.5178   -7.7008 H   0  0  0  0  0  0  0  0  0  0  0  0
   19.2849   74.4977   -6.2125 H   0  0  0  0  0  0  0  0  0  0  0  0
   15.1006   74.8092   -9.5249 O   0  0  0  0  0  0  0  0  0  0  0  0
   12.2630   76.4841   -6.3021 O   0  0  0  0  0  0  0  0  0  0  0  0
   15.4400   74.1565   -7.3074 N   0  0  0  0  0  0  0  0  0  0  0  0
   13.6894   75.6428   -7.9178 N   0  0  0  0  0  0  0  0  0  0  0  0
   14.7734   74.8608   -8.3378 C   0  0  0  0  0  0  0  0  0  0  0  0
   15.0054   74.2679   -5.9922 C   0  0  0  0  0  0  0  0  0  0  0  0
   13.9704   75.0171   -5.6073 C   0  0  0  0  0  0  0  0  0  0  0  0
   13.2201   75.7857   -6.6221 C   0  0  0  0  0  0  0  0  0  0  0  0
   13.2108   76.1440   -8.6171 H   0  0  0  0  0  0  0  0  0  0  0  0
   18.3574   71.4109   -2.2685 O   0  0  0  0  0  0  0  0  0  0  0  0
   19.6987   72.3104   -2.3435 P   0  0  2  0  0  0  0  0  0  0  0  0
   19.5742   73.2689   -1.0450 O   0  0  0  0  0  0  0  0  0  0  0  0
   19.8752   73.0459   -3.6404 O   0  0  0  0  0  0  0  0  0  0  0  0
   20.8959   71.2908   -1.9837 O   0  0  0  0  0  0  0  0  0  0  0  0
   22.6550   71.4767   -0.4088 O   0  0  0  0  0  0  0  0  0  0  0  0
   24.4584   69.3147   -3.4323 O   0  0  0  0  0  0  0  0  0  0  0  0
   22.7210   71.5770   -4.0629 O   0  0  0  0  0  0  0  0  0  0  0  0
   23.6220   67.9848   -0.9863 O   0  0  0  0  0  0  0  0  0  0  0  0
   23.3774   69.7500   -2.6077 C   0  0  2  0  0  0  0  0  0  0  0  0
   23.1946   71.2604   -2.7590 C   0  0  2  0  0  0  0  0  0  0  0  0
   23.7169   69.3976   -1.1578 C   0  0  1  0  0  0  0  0  0  0  0  0
   22.2039   71.7978   -1.7252 C   0  0  1  0  0  0  0  0  0  0  0  0
   22.7584   70.0729   -0.1812 C   0  0  1  0  0  0  0  0  0  0  0  0
   24.2650   69.5282   -4.3587 H   0  0  0  0  0  0  0  0  0  0  0  0
   23.3447   71.2387   -4.7239 H   0  0  0  0  0  0  0  0  0  0  0  0
   24.2271   67.5429   -1.6023 H   0  0  0  0  0  0  0  0  0  0  0  0
   23.3108   71.2282    1.7839 O   0  0  0  0  0  0  0  0  0  0  0  0
   23.6394   68.9719    1.7766 O   0  0  0  0  0  0  0  0  0  0  0  0
   23.2836   69.9973    1.2155 C   0  0  0  0  0  0  0  0  0  0  0  0
  1  4  1  0
  1 24  1  0
  1  2  1  1
  1  3  2  0
 25 28  1  0
 25 24  1  0
 25 26  1  1
 25 27  2  0
  6 11  1  0
  6 12  1  0
 29 36  1  0
 29 37  1  0
  9  7  1  6
  7 13  1  0
 10  8  1  6
  8 14  1  0
  4  5  1  0
 36 28  1  6
 33 30  1  6
 30 38  1  0
 34 31  1  6
 31 39  1  0
 35 32  1  6
 32 40  1  0
 41 43  1  0
 15 19  2  0
 42 43  2  0
 16 22  2  0
 12 17  1  1
 17 19  1  0
 17 20  1  0
 18 19  1  0
 18 22  1  0
 18 23  1  0
  9 10  1  0
  9 11  1  0
 10 12  1  0
 11  5  1  1
 33 34  1  0
 33 35  1  0
 34 36  1  0
 35 37  1  0
 37 43  1  1
 20 21  2  0
 21 22  1  0
M  CHG  3   2  -1  26  -1  41  -1
M  END
>  <COMPND>  (31) 
    udp_gluA.pdb 

>  <AUTHOR>  (31) 
    GENERATED BY OPEN BABEL 3.1.1

>  <MASTER>  (31) 
        0    0    0    0    0    0    0    0   56    0   56    0

>  <minimizedAffinity>  (31) 
-6.77499

>  <CNNscore>  (31) 
0.3513236642

>  <CNNaffinity>  (31) 
3.9044280052

>  <CNN_VS>  (31) 
1.3717179298

>  <CNNaffinity_variance>  (31) 
0.0909693390

$$$$
32
     RDKit          3D

 43 45  0  0  0  0  0  0  0  0999 V2000
   17.2854   70.2131   -3.3226 P   0  0  2  0  0  0  0  0  0  0  0  0
   17.8836   69.0100   -2.4206 O   0  0  0  0  0  0  0  0  0  0  0  0
   15.8507   70.5574   -3.0485 O   0  0  0  0  0  0  0  0  0  0  0  0
   17.6230   69.7657   -4.8404 O   0  0  0  0  0  0  0  0  0  0  0  0
   16.6028   69.8643   -5.8171 C   0  0  0  0  0  0  0  0  0  0  0  0
   16.2074   71.5189   -7.5153 O   0  0  0  0  0  0  0  0  0  0  0  0
   19.1612   71.4330   -8.0243 O   0  0  0  0  0  0  0  0  0  0  0  0
   18.8806   73.6928   -6.5242 O   0  0  0  0  0  0  0  0  0  0  0  0
   18.4531   71.3140   -6.7902 C   0  0  1  0  0  0  0  0  0  0  0  0
   17.9264   72.6654   -6.3558 C   0  0  2  0  0  0  0  0  0  0  0  0
   17.1682   70.5424   -7.0584 C   0  0  1  0  0  0  0  0  0  0  0  0
   16.7165   72.8372   -7.2584 C   0  0  2  0  0  0  0  0  0  0  0  0
   19.9862   71.9226   -7.8782 H   0  0  0  0  0  0  0  0  0  0  0  0
   19.6306   73.5383   -5.9279 H   0  0  0  0  0  0  0  0  0  0  0  0
   14.8009   74.3418   -8.6878 O   0  0  0  0  0  0  0  0  0  0  0  0
   12.8021   75.8241   -4.8081 O   0  0  0  0  0  0  0  0  0  0  0  0
   15.6842   73.6255   -6.6469 N   0  0  0  0  0  0  0  0  0  0  0  0
   13.8079   75.0794   -6.7541 N   0  0  0  0  0  0  0  0  0  0  0  0
   14.7723   74.3441   -7.4557 C   0  0  0  0  0  0  0  0  0  0  0  0
   15.5815   73.6799   -5.2622 C   0  0  0  0  0  0  0  0  0  0  0  0
   14.6568   74.3852   -4.6079 C   0  0  0  0  0  0  0  0  0  0  0  0
   13.6662   75.1651   -5.3786 C   0  0  0  0  0  0  0  0  0  0  0  0
   13.1631   75.5896   -7.2957 H   0  0  0  0  0  0  0  0  0  0  0  0
   18.3294   71.4185   -3.0583 O   0  0  0  0  0  0  0  0  0  0  0  0
   19.9419   71.4196   -2.9415 P   0  0  2  0  0  0  0  0  0  0  0  0
   20.3684   72.7711   -3.7237 O   0  0  0  0  0  0  0  0  0  0  0  0
   20.5977   70.1723   -3.4593 O   0  0  0  0  0  0  0  0  0  0  0  0
   20.2395   71.7370   -1.3881 O   0  0  0  0  0  0  0  0  0  0  0  0
   20.8067   69.8732   -0.0413 O   0  0  0  0  0  0  0  0  0  0  0  0
   20.1570   72.7987    2.8025 O   0  0  0  0  0  0  0  0  0  0  0  0
   18.3691   72.5425    0.5063 O   0  0  0  0  0  0  0  0  0  0  0  0
   22.8682   71.9935    2.1305 O   0  0  0  0  0  0  0  0  0  0  0  0
   20.5521   72.2811    1.5321 C   0  0  2  0  0  0  0  0  0  0  0  0
   19.3612   71.5890    0.8686 C   0  0  2  0  0  0  0  0  0  0  0  0
   21.6884   71.2820    1.7612 C   0  0  1  0  0  0  0  0  0  0  0  0
   19.7992   70.8262   -0.3825 C   0  0  1  0  0  0  0  0  0  0  0  0
   21.9812   70.4727    0.5011 C   0  0  1  0  0  0  0  0  0  0  0  0
   19.4355   73.4361    2.6819 H   0  0  0  0  0  0  0  0  0  0  0  0
   18.0868   73.0304    1.2954 H   0  0  0  0  0  0  0  0  0  0  0  0
   22.6953   72.5129    2.9312 H   0  0  0  0  0  0  0  0  0  0  0  0
   22.7653   68.3662   -0.1694 O   0  0  0  0  0  0  0  0  0  0  0  0
   23.5317   69.1766    1.8193 O   0  0  0  0  0  0  0  0  0  0  0  0
   22.8443   69.2945    0.8160 C   0  0  0  0  0  0  0  0  0  0  0  0
  1  4  1  0
  1 24  1  0
  1  2  1  1
  1  3  2  0
 25 28  1  0
 25 24  1  0
 25 26  1  6
 25 27  2  0
  6 11  1  0
  6 12  1  0
 29 36  1  0
 29 37  1  0
  9  7  1  6
  7 13  1  0
 10  8  1  6
  8 14  1  0
  4  5  1  0
 36 28  1  6
 33 30  1  1
 30 38  1  0
 34 31  1  6
 31 39  1  0
 35 32  1  6
 32 40  1  0
 41 43  1  0
 15 19  2  0
 42 43  2  0
 16 22  2  0
 12 17  1  1
 17 19  1  0
 17 20  1  0
 18 19  1  0
 18 22  1  0
 18 23  1  0
  9 10  1  0
  9 11  1  0
 10 12  1  0
 11  5  1  1
 33 34  1  0
 33 35  1  0
 34 36  1  0
 35 37  1  0
 37 43  1  1
 20 21  2  0
 21 22  1  0
M  CHG  3   2  -1  26  -1  41  -1
M  END
>  <COMPND>  (32) 
    udp_gluA.pdb 

>  <AUTHOR>  (32) 
    GENERATED BY OPEN BABEL 3.1.1

>  <MASTER>  (32) 
        0    0    0    0    0    0    0    0   56    0   56    0

>  <minimizedAffinity>  (32) 
-7.46194

>  <CNNscore>  (32) 
0.3285641372

>  <CNNaffinity>  (32) 
3.8859035969

>  <CNN_VS>  (32) 
1.2767685652

>  <CNNaffinity_variance>  (32) 
0.1827517152

$$$$
33
     RDKit          3D

 43 45  0  0  0  0  0  0  0  0999 V2000
   22.9186   71.3410   -2.8384 P   0  0  2  0  0  0  0  0  0  0  0  0
   24.0454   70.2516   -3.2416 O   0  0  0  0  0  0  0  0  0  0  0  0
   23.4129   72.4832   -2.0001 O   0  0  0  0  0  0  0  0  0  0  0  0
   21.7343   70.4520   -2.1865 O   0  0  0  0  0  0  0  0  0  0  0  0
   21.8427   70.0744   -0.8263 C   0  0  0  0  0  0  0  0  0  0  0  0
   20.8001   70.3451    1.3225 O   0  0  0  0  0  0  0  0  0  0  0  0
   18.7759   72.0541   -0.0823 O   0  0  0  0  0  0  0  0  0  0  0  0
   20.4087   73.9010    1.0835 O   0  0  0  0  0  0  0  0  0  0  0  0
   20.1778   71.9312   -0.3231 C   0  0  1  0  0  0  0  0  0  0  0  0
   20.9602   72.6414    0.7612 C   0  0  2  0  0  0  0  0  0  0  0  0
   20.5676   70.4768   -0.0966 C   0  0  1  0  0  0  0  0  0  0  0  0
   20.8732   71.6531    1.9117 C   0  0  2  0  0  0  0  0  0  0  0  0
   18.5032   72.9751   -0.2208 H   0  0  0  0  0  0  0  0  0  0  0  0
   20.4885   74.4940    0.3194 H   0  0  0  0  0  0  0  0  0  0  0  0
   21.1604   73.4660    4.0582 O   0  0  0  0  0  0  0  0  0  0  0  0
   25.3141   71.7950    5.1528 O   0  0  0  0  0  0  0  0  0  0  0  0
   22.0194   71.7135    2.7738 N   0  0  0  0  0  0  0  0  0  0  0  0
   23.2294   72.6327    4.6007 N   0  0  0  0  0  0  0  0  0  0  0  0
   22.0643   72.6618    3.8230 C   0  0  0  0  0  0  0  0  0  0  0  0
   23.0818   70.8397    2.5774 C   0  0  0  0  0  0  0  0  0  0  0  0
   24.1857   70.8238    3.3270 C   0  0  0  0  0  0  0  0  0  0  0  0
   24.3125   71.7831    4.4437 C   0  0  0  0  0  0  0  0  0  0  0  0
   23.2845   73.2850    5.3360 H   0  0  0  0  0  0  0  0  0  0  0  0
   22.3032   71.7730   -4.2693 O   0  0  0  0  0  0  0  0  0  0  0  0
   21.3199   72.9894   -4.6782 P   0  0  2  0  0  0  0  0  0  0  0  0
   21.8413   73.4068   -6.1527 O   0  0  0  0  0  0  0  0  0  0  0  0
   21.2930   74.1186   -3.6892 O   0  0  0  0  0  0  0  0  0  0  0  0
   19.8889   72.2903   -4.9352 O   0  0  0  0  0  0  0  0  0  0  0  0
   19.3926   70.0036   -4.5691 O   0  0  0  0  0  0  0  0  0  0  0  0
   16.6019   71.0203   -7.4408 O   0  0  0  0  0  0  0  0  0  0  0  0
   19.3546   71.9769   -7.6467 O   0  0  0  0  0  0  0  0  0  0  0  0
   15.7929   70.7071   -4.6662 O   0  0  0  0  0  0  0  0  0  0  0  0
   17.4600   71.2416   -6.3215 C   0  0  2  0  0  0  0  0  0  0  0  0
   18.9106   70.9834   -6.7298 C   0  0  2  0  0  0  0  0  0  0  0  0
   17.0415   70.2797   -5.2073 C   0  0  1  0  0  0  0  0  0  0  0  0
   19.8313   70.9855   -5.5087 C   0  0  1  0  0  0  0  0  0  0  0  0
   18.0738   70.2453   -4.0840 C   0  0  1  0  0  0  0  0  0  0  0  0
   16.8492   71.6207   -8.1616 H   0  0  0  0  0  0  0  0  0  0  0  0
   18.7746   71.9813   -8.4239 H   0  0  0  0  0  0  0  0  0  0  0  0
   15.1271   70.7335   -5.3710 H   0  0  0  0  0  0  0  0  0  0  0  0
   17.8293   69.4809   -1.8801 O   0  0  0  0  0  0  0  0  0  0  0  0
   17.6570   67.9311   -3.5437 O   0  0  0  0  0  0  0  0  0  0  0  0
   17.8319   69.0833   -3.1766 C   0  0  0  0  0  0  0  0  0  0  0  0
  1  4  1  0
  1 24  1  0
  1  2  1  6
  1  3  2  0
 25 28  1  0
 25 24  1  0
 25 26  1  6
 25 27  2  0
  6 11  1  0
  6 12  1  0
 29 36  1  0
 29 37  1  0
  9  7  1  1
  7 13  1  0
 10  8  1  1
  8 14  1  0
  4  5  1  0
 36 28  1  1
 33 30  1  6
 30 38  1  0
 34 31  1  6
 31 39  1  0
 35 32  1  1
 32 40  1  0
 41 43  1  0
 15 19  2  0
 42 43  2  0
 16 22  2  0
 12 17  1  1
 17 19  1  0
 17 20  1  0
 18 19  1  0
 18 22  1  0
 18 23  1  0
  9 10  1  0
  9 11  1  0
 10 12  1  0
 11  5  1  6
 33 34  1  0
 33 35  1  0
 34 36  1  0
 35 37  1  0
 37 43  1  1
 20 21  2  0
 21 22  1  0
M  CHG  3   2  -1  26  -1  41  -1
M  END
>  <COMPND>  (33) 
    udp_gluA.pdb 

>  <AUTHOR>  (33) 
    GENERATED BY OPEN BABEL 3.1.1

>  <MASTER>  (33) 
        0    0    0    0    0    0    0    0   56    0   56    0

>  <minimizedAffinity>  (33) 
-7.43987

>  <CNNscore>  (33) 
0.3217473030

>  <CNNaffinity>  (33) 
3.9686965942

>  <CNN_VS>  (33) 
1.2769174576

>  <CNNaffinity_variance>  (33) 
0.1286083460

$$$$
34
     RDKit          3D

 43 45  0  0  0  0  0  0  0  0999 V2000
   19.9601   71.2641   -1.0261 P   0  0  2  0  0  0  0  0  0  0  0  0
   19.0547   72.5975   -1.1719 O   0  0  0  0  0  0  0  0  0  0  0  0
   19.1934   70.0053   -0.7446 O   0  0  0  0  0  0  0  0  0  0  0  0
   21.0742   71.6694    0.0750 O   0  0  0  0  0  0  0  0  0  0  0  0
   21.5360   70.6727    0.9682 C   0  0  0  0  0  0  0  0  0  0  0  0
   22.9105   72.3873    1.9421 O   0  0  0  0  0  0  0  0  0  0  0  0
   24.8639   70.2021    2.5749 O   0  0  0  0  0  0  0  0  0  0  0  0
   23.6193   70.6001    4.9683 O   0  0  0  0  0  0  0  0  0  0  0  0
   23.4366   70.1683    2.5824 C   0  0  1  0  0  0  0  0  0  0  0  0
   22.9012   70.9060    3.7913 C   0  0  2  0  0  0  0  0  0  0  0  0
   22.9401   71.0359    1.4340 C   0  0  1  0  0  0  0  0  0  0  0  0
   23.0591   72.3572    3.3705 C   0  0  2  0  0  0  0  0  0  0  0  0
   25.2045   69.6546    3.3002 H   0  0  0  0  0  0  0  0  0  0  0  0
   23.4863   69.6656    5.1944 H   0  0  0  0  0  0  0  0  0  0  0  0
   23.3211   73.5986    5.8938 O   0  0  0  0  0  0  0  0  0  0  0  0
   19.1888   75.6088    5.5374 O   0  0  0  0  0  0  0  0  0  0  0  0
   22.0669   73.2101    3.9613 N   0  0  0  0  0  0  0  0  0  0  0  0
   21.2623   74.5978    5.7143 N   0  0  0  0  0  0  0  0  0  0  0  0
   22.2967   73.7839    5.2341 C   0  0  0  0  0  0  0  0  0  0  0  0
   20.8836   73.4719    3.2814 C   0  0  0  0  0  0  0  0  0  0  0  0
   19.9069   74.2498    3.7520 C   0  0  0  0  0  0  0  0  0  0  0  0
   20.0675   74.8872    5.0754 C   0  0  0  0  0  0  0  0  0  0  0  0
   21.3985   75.0068    6.5995 H   0  0  0  0  0  0  0  0  0  0  0  0
   20.8027   71.2451   -2.4055 O   0  0  0  0  0  0  0  0  0  0  0  0
   21.0380   72.3909   -3.5214 P   0  0  2  0  0  0  0  0  0  0  0  0
   22.4508   71.9708   -4.1906 O   0  0  0  0  0  0  0  0  0  0  0  0
   21.0012   73.7918   -2.9828 O   0  0  0  0  0  0  0  0  0  0  0  0
   19.9397   72.0831   -4.6621 O   0  0  0  0  0  0  0  0  0  0  0  0
   19.1952   69.8386   -4.7940 O   0  0  0  0  0  0  0  0  0  0  0  0
   17.6583   71.4403   -8.2784 O   0  0  0  0  0  0  0  0  0  0  0  0
   20.3667   72.1077   -7.4104 O   0  0  0  0  0  0  0  0  0  0  0  0
   15.9119   70.9357   -6.0098 O   0  0  0  0  0  0  0  0  0  0  0  0
   18.0840   71.4516   -6.9158 C   0  0  2  0  0  0  0  0  0  0  0  0
   19.5651   71.0802   -6.8392 C   0  0  2  0  0  0  0  0  0  0  0  0
   17.2393   70.4323   -6.1480 C   0  0  1  0  0  0  0  0  0  0  0  0
   19.9991   70.8576   -5.3898 C   0  0  1  0  0  0  0  0  0  0  0  0
   17.8093   70.1716   -4.7567 C   0  0  1  0  0  0  0  0  0  0  0  0
   18.1813   72.0806   -8.7860 H   0  0  0  0  0  0  0  0  0  0  0  0
   20.0966   72.2544   -8.3301 H   0  0  0  0  0  0  0  0  0  0  0  0
   15.5376   71.1060   -6.8883 H   0  0  0  0  0  0  0  0  0  0  0  0
   17.8684   68.5764   -3.0382 O   0  0  0  0  0  0  0  0  0  0  0  0
   16.2030   68.3797   -4.5831 O   0  0  0  0  0  0  0  0  0  0  0  0
   17.1886   68.9563   -4.1483 C   0  0  0  0  0  0  0  0  0  0  0  0
  1  4  1  0
  1 24  1  0
  1  2  1  6
  1  3  2  0
 25 28  1  0
 25 24  1  0
 25 26  1  6
 25 27  2  0
  6 11  1  0
  6 12  1  0
 29 36  1  0
 29 37  1  0
  9  7  1  1
  7 13  1  0
 10  8  1  1
  8 14  1  0
  4  5  1  0
 36 28  1  1
 33 30  1  6
 30 38  1  0
 34 31  1  1
 31 39  1  0
 35 32  1  1
 32 40  1  0
 41 43  1  0
 15 19  2  0
 42 43  2  0
 16 22  2  0
 12 17  1  1
 17 19  1  0
 17 20  1  0
 18 19  1  0
 18 22  1  0
 18 23  1  0
  9 10  1  0
  9 11  1  0
 10 12  1  0
 11  5  1  1
 33 34  1  0
 33 35  1  0
 34 36  1  0
 35 37  1  0
 37 43  1  6
 20 21  2  0
 21 22  1  0
M  CHG  3   2  -1  26  -1  41  -1
M  END
>  <COMPND>  (34) 
    udp_gluA.pdb 

>  <AUTHOR>  (34) 
    GENERATED BY OPEN BABEL 3.1.1

>  <MASTER>  (34) 
        0    0    0    0    0    0    0    0   56    0   56    0

>  <minimizedAffinity>  (34) 
-7.47540

>  <CNNscore>  (34) 
0.3108004332

>  <CNNaffinity>  (34) 
4.0129137039

>  <CNN_VS>  (34) 
1.2472152710

>  <CNNaffinity_variance>  (34) 
0.1744876653

$$$$
35
     RDKit          3D

 43 45  0  0  0  0  0  0  0  0999 V2000
   21.3574   70.5591    0.6640 P   0  0  2  0  0  0  0  0  0  0  0  0
   22.7308   71.1347    1.2975 O   0  0  0  0  0  0  0  0  0  0  0  0
   21.1852   69.0722    0.7697 O   0  0  0  0  0  0  0  0  0  0  0  0
   21.3386   71.1636   -0.8368 O   0  0  0  0  0  0  0  0  0  0  0  0
   22.3643   72.0627   -1.2164 C   0  0  0  0  0  0  0  0  0  0  0  0
   21.6576   71.1262   -3.3143 O   0  0  0  0  0  0  0  0  0  0  0  0
   23.9061   72.6770   -4.5516 O   0  0  0  0  0  0  0  0  0  0  0  0
   21.7315   74.2180   -5.1280 O   0  0  0  0  0  0  0  0  0  0  0  0
   23.0524   73.0348   -3.4645 C   0  0  1  0  0  0  0  0  0  0  0  0
   21.6758   73.4007   -3.9776 C   0  0  2  0  0  0  0  0  0  0  0  0
   22.7673   71.7758   -2.6571 C   0  0  1  0  0  0  0  0  0  0  0  0
   21.0709   72.0358   -4.2587 C   0  0  2  0  0  0  0  0  0  0  0  0
   24.1023   73.4655   -5.0822 H   0  0  0  0  0  0  0  0  0  0  0  0
   22.1237   75.0752   -4.8969 H   0  0  0  0  0  0  0  0  0  0  0  0
   19.2710   70.7796   -6.0361 O   0  0  0  0  0  0  0  0  0  0  0  0
   15.6199   72.0545   -3.5285 O   0  0  0  0  0  0  0  0  0  0  0  0
   19.6448   72.0240   -4.0943 N   0  0  0  0  0  0  0  0  0  0  0  0
   17.4542   71.4167   -4.7860 N   0  0  0  0  0  0  0  0  0  0  0  0
   18.8302   71.3644   -5.0448 C   0  0  0  0  0  0  0  0  0  0  0  0
   19.0674   72.6588   -3.0014 C   0  0  0  0  0  0  0  0  0  0  0  0
   17.7541   72.7001   -2.7681 C   0  0  0  0  0  0  0  0  0  0  0  0
   16.8330   72.0360   -3.7136 C   0  0  0  0  0  0  0  0  0  0  0  0
   16.8666   70.9662   -5.4350 H   0  0  0  0  0  0  0  0  0  0  0  0
   20.2193   71.4241    1.4184 O   0  0  0  0  0  0  0  0  0  0  0  0
   20.1064   73.0117    1.7022 P   0  0  2  0  0  0  0  0  0  0  0  0
   18.8676   73.1150    2.7389 O   0  0  0  0  0  0  0  0  0  0  0  0
   19.9495   73.8486    0.4657 O   0  0  0  0  0  0  0  0  0  0  0  0
   21.4086   73.3628    2.5874 O   0  0  0  0  0  0  0  0  0  0  0  0
   22.3754   72.3551    4.5003 O   0  0  0  0  0  0  0  0  0  0  0  0
   23.0195   76.3670    5.2472 O   0  0  0  0  0  0  0  0  0  0  0  0
   20.4662   75.4545    4.1600 O   0  0  0  0  0  0  0  0  0  0  0  0
   25.2133   74.6767    4.3633 O   0  0  0  0  0  0  0  0  0  0  0  0
   22.8628   75.2007    4.4391 C   0  0  2  0  0  0  0  0  0  0  0  0
   21.4781   74.5969    4.6750 C   0  0  2  0  0  0  0  0  0  0  0  0
   23.9532   74.2020    4.8336 C   0  0  1  0  0  0  0  0  0  0  0  0
   21.3576   73.2267    4.0064 C   0  0  1  0  0  0  0  0  0  0  0  0
   23.6935   72.8256    4.2280 C   0  0  1  0  0  0  0  0  0  0  0  0
   22.3372   77.0161    5.0142 H   0  0  0  0  0  0  0  0  0  0  0  0
   20.5369   76.3258    4.5796 H   0  0  0  0  0  0  0  0  0  0  0  0
   25.3905   75.5522    4.7414 H   0  0  0  0  0  0  0  0  0  0  0  0
   23.9484   70.5802    4.8563 O   0  0  0  0  0  0  0  0  0  0  0  0
   25.6652   71.9986    5.3460 O   0  0  0  0  0  0  0  0  0  0  0  0
   24.5585   71.7912    4.8714 C   0  0  0  0  0  0  0  0  0  0  0  0
  1  4  1  0
  1 24  1  0
  1  2  1  1
  1  3  2  0
 25 28  1  0
 25 24  1  0
 25 26  1  1
 25 27  2  0
  6 11  1  0
  6 12  1  0
 29 36  1  0
 29 37  1  0
  9  7  1  6
  7 13  1  0
 10  8  1  6
  8 14  1  0
  4  5  1  0
 36 28  1  6
 33 30  1  1
 30 38  1  0
 34 31  1  6
 31 39  1  0
 35 32  1  6
 32 40  1  0
 41 43  1  0
 15 19  2  0
 42 43  2  0
 16 22  2  0
 12 17  1  1
 17 19  1  0
 17 20  1  0
 18 19  1  0
 18 22  1  0
 18 23  1  0
  9 10  1  0
  9 11  1  0
 10 12  1  0
 11  5  1  1
 33 34  1  0
 33 35  1  0
 34 36  1  0
 35 37  1  0
 37 43  1  1
 20 21  2  0
 21 22  1  0
M  CHG  3   2  -1  26  -1  41  -1
M  END
>  <COMPND>  (35) 
    udp_gluA.pdb 

>  <AUTHOR>  (35) 
    GENERATED BY OPEN BABEL 3.1.1

>  <MASTER>  (35) 
        0    0    0    0    0    0    0    0   56    0   56    0

>  <minimizedAffinity>  (35) 
-6.79854

>  <CNNscore>  (35) 
0.3045919538

>  <CNNaffinity>  (35) 
4.0304517746

>  <CNN_VS>  (35) 
1.2276431322

>  <CNNaffinity_variance>  (35) 
0.0416899435

$$$$
36
     RDKit          3D

 43 45  0  0  0  0  0  0  0  0999 V2000
   22.6452   72.9194   -3.2544 P   0  0  2  0  0  0  0  0  0  0  0  0
   23.7800   72.7493   -4.3955 O   0  0  0  0  0  0  0  0  0  0  0  0
   22.4608   74.3200   -2.7481 O   0  0  0  0  0  0  0  0  0  0  0  0
   23.0462   71.8167   -2.1403 O   0  0  0  0  0  0  0  0  0  0  0  0
   22.8788   72.1450   -0.7733 C   0  0  0  0  0  0  0  0  0  0  0  0
   23.1121   70.7544    1.1734 O   0  0  0  0  0  0  0  0  0  0  0  0
   20.3355   69.7866    0.5859 O   0  0  0  0  0  0  0  0  0  0  0  0
   19.9266   71.5885    2.5914 O   0  0  0  0  0  0  0  0  0  0  0  0
   20.8928   71.0901    0.4165 C   0  0  1  0  0  0  0  0  0  0  0  0
   21.0534   71.7701    1.7596 C   0  0  2  0  0  0  0  0  0  0  0  0
   22.3384   70.9280   -0.0334 C   0  0  1  0  0  0  0  0  0  0  0  0
   22.2995   71.0956    2.3077 C   0  0  2  0  0  0  0  0  0  0  0  0
   19.4119   69.8643    0.8733 H   0  0  0  0  0  0  0  0  0  0  0  0
   19.1599   72.0365    2.1994 H   0  0  0  0  0  0  0  0  0  0  0  0
   23.6583   70.2252    4.6255 O   0  0  0  0  0  0  0  0  0  0  0  0
   25.1479   74.4830    5.5726 O   0  0  0  0  0  0  0  0  0  0  0  0
   23.0502   71.9555    3.1782 N   0  0  0  0  0  0  0  0  0  0  0  0
   24.3981   72.3468    5.0956 N   0  0  0  0  0  0  0  0  0  0  0  0
   23.6953   71.4179    4.3170 C   0  0  0  0  0  0  0  0  0  0  0  0
   23.1433   73.3138    2.8999 C   0  0  0  0  0  0  0  0  0  0  0  0
   23.8170   74.1868    3.6514 C   0  0  0  0  0  0  0  0  0  0  0  0
   24.5188   73.7068    4.8598 C   0  0  0  0  0  0  0  0  0  0  0  0
   24.8538   71.9964    5.8948 H   0  0  0  0  0  0  0  0  0  0  0  0
   21.3344   72.2758   -3.9473 O   0  0  0  0  0  0  0  0  0  0  0  0
   19.9908   71.6507   -3.3010 P   0  0  2  0  0  0  0  0  0  0  0  0
   19.4998   72.8060   -2.2791 O   0  0  0  0  0  0  0  0  0  0  0  0
   20.1820   70.3038   -2.6660 O   0  0  0  0  0  0  0  0  0  0  0  0
   18.9094   71.6791   -4.4978 O   0  0  0  0  0  0  0  0  0  0  0  0
   16.9608   72.8923   -5.0813 O   0  0  0  0  0  0  0  0  0  0  0  0
   15.7707   68.9997   -5.7879 O   0  0  0  0  0  0  0  0  0  0  0  0
   17.3333   69.6620   -3.4101 O   0  0  0  0  0  0  0  0  0  0  0  0
   16.4319   70.7500   -8.0128 O   0  0  0  0  0  0  0  0  0  0  0  0
   16.6926   70.0870   -5.7112 C   0  0  2  0  0  0  0  0  0  0  0  0
   16.7381   70.6191   -4.2786 C   0  0  2  0  0  0  0  0  0  0  0  0
   16.2156   71.1800   -6.6701 C   0  0  1  0  0  0  0  0  0  0  0  0
   17.5349   71.9224   -4.2042 C   0  0  1  0  0  0  0  0  0  0  0  0
   16.9735   72.4857   -6.4479 C   0  0  1  0  0  0  0  0  0  0  0  0
   16.0535   68.2927   -5.1867 H   0  0  0  0  0  0  0  0  0  0  0  0
   16.8330   68.8324   -3.4525 H   0  0  0  0  0  0  0  0  0  0  0  0
   15.9549   69.9197   -8.1672 H   0  0  0  0  0  0  0  0  0  0  0  0
   16.8534   74.8029   -6.7908 O   0  0  0  0  0  0  0  0  0  0  0  0
   15.3575   73.5053   -7.9210 O   0  0  0  0  0  0  0  0  0  0  0  0
   16.2915   73.6196   -7.1417 C   0  0  0  0  0  0  0  0  0  0  0  0
  1  4  1  0
  1 24  1  0
  1  2  1  6
  1  3  2  0
 25 28  1  0
 25 24  1  0
 25 26  1  1
 25 27  2  0
  6 11  1  0
  6 12  1  0
 29 36  1  0
 29 37  1  0
  9  7  1  1
  7 13  1  0
 10  8  1  1
  8 14  1  0
  4  5  1  0
 36 28  1  6
 33 30  1  1
 30 38  1  0
 34 31  1  1
 31 39  1  0
 35 32  1  6
 32 40  1  0
 41 43  1  0
 15 19  2  0
 42 43  2  0
 16 22  2  0
 12 17  1  1
 17 19  1  0
 17 20  1  0
 18 19  1  0
 18 22  1  0
 18 23  1  0
  9 10  1  0
  9 11  1  0
 10 12  1  0
 11  5  1  1
 33 34  1  0
 33 35  1  0
 34 36  1  0
 35 37  1  0
 37 43  1  6
 20 21  2  0
 21 22  1  0
M  CHG  3   2  -1  26  -1  41  -1
M  END
>  <COMPND>  (36) 
    udp_gluA.pdb 

>  <AUTHOR>  (36) 
    GENERATED BY OPEN BABEL 3.1.1

>  <MASTER>  (36) 
        0    0    0    0    0    0    0    0   56    0   56    0

>  <minimizedAffinity>  (36) 
-8.05702

>  <CNNscore>  (36) 
0.2960053682

>  <CNNaffinity>  (36) 
3.8365859985

>  <CNN_VS>  (36) 
1.1356500387

>  <CNNaffinity_variance>  (36) 
0.1679541022

$$$$
37
     RDKit          3D

 43 45  0  0  0  0  0  0  0  0999 V2000
   22.5564   73.1211   -3.4998 P   0  0  2  0  0  0  0  0  0  0  0  0
   23.8477   72.6396   -4.3481 O   0  0  0  0  0  0  0  0  0  0  0  0
   22.6297   74.5257   -2.9768 O   0  0  0  0  0  0  0  0  0  0  0  0
   22.3716   71.9645   -2.3835 O   0  0  0  0  0  0  0  0  0  0  0  0
   22.4983   72.3163   -1.0180 C   0  0  0  0  0  0  0  0  0  0  0  0
   21.7839   70.0256   -0.8761 O   0  0  0  0  0  0  0  0  0  0  0  0
   21.4476   70.5071    2.0644 O   0  0  0  0  0  0  0  0  0  0  0  0
   23.8311   69.1877    1.9454 O   0  0  0  0  0  0  0  0  0  0  0  0
   22.4355   71.0223    1.1716 C   0  0  1  0  0  0  0  0  0  0  0  0
   23.4371   69.9431    0.8190 C   0  0  2  0  0  0  0  0  0  0  0  0
   21.7649   71.2851   -0.1699 C   0  0  1  0  0  0  0  0  0  0  0  0
   22.6671   69.1182   -0.1980 C   0  0  2  0  0  0  0  0  0  0  0  0
   21.8525   70.3314    2.9286 H   0  0  0  0  0  0  0  0  0  0  0  0
   24.3176   69.7573    2.5626 H   0  0  0  0  0  0  0  0  0  0  0  0
   22.9811   66.3266   -0.4893 O   0  0  0  0  0  0  0  0  0  0  0  0
   25.9977   66.8416   -3.9359 O   0  0  0  0  0  0  0  0  0  0  0  0
   23.5280   68.4956   -1.1635 N   0  0  0  0  0  0  0  0  0  0  0  0
   24.4840   66.5858   -2.2050 N   0  0  0  0  0  0  0  0  0  0  0  0
   23.6135   67.0847   -1.2270 C   0  0  0  0  0  0  0  0  0  0  0  0
   24.2744   69.2797   -2.0347 C   0  0  0  0  0  0  0  0  0  0  0  0
   25.0998   68.7896   -2.9617 C   0  0  0  0  0  0  0  0  0  0  0  0
   25.2475   67.3253   -3.0936 C   0  0  0  0  0  0  0  0  0  0  0  0
   24.5618   65.6063   -2.2669 H   0  0  0  0  0  0  0  0  0  0  0  0
   21.3306   72.8442   -4.5164 O   0  0  0  0  0  0  0  0  0  0  0  0
   21.0416   73.3996   -6.0069 P   0  0  2  0  0  0  0  0  0  0  0  0
   22.1584   72.6470   -6.9050 O   0  0  0  0  0  0  0  0  0  0  0  0
   21.0621   74.8964   -6.1211 O   0  0  0  0  0  0  0  0  0  0  0  0
   19.6453   72.7146   -6.4354 O   0  0  0  0  0  0  0  0  0  0  0  0
   19.5573   70.4852   -5.6408 O   0  0  0  0  0  0  0  0  0  0  0  0
   16.0243   70.7608   -7.7643 O   0  0  0  0  0  0  0  0  0  0  0  0
   18.4881   71.9103   -8.8333 O   0  0  0  0  0  0  0  0  0  0  0  0
   15.9903   70.8409   -4.8586 O   0  0  0  0  0  0  0  0  0  0  0  0
   17.1014   71.2396   -6.9589 C   0  0  2  0  0  0  0  0  0  0  0  0
   18.4224   71.0470   -7.7041 C   0  0  2  0  0  0  0  0  0  0  0  0
   17.1059   70.4422   -5.6528 C   0  0  1  0  0  0  0  0  0  0  0  0
   19.6136   71.3329   -6.7887 C   0  0  1  0  0  0  0  0  0  0  0  0
   18.3841   70.6860   -4.8557 C   0  0  1  0  0  0  0  0  0  0  0  0
   16.0016   71.2531   -8.6000 H   0  0  0  0  0  0  0  0  0  0  0  0
   17.7350   71.7346   -9.4184 H   0  0  0  0  0  0  0  0  0  0  0  0
   15.1703   70.6910   -5.3545 H   0  0  0  0  0  0  0  0  0  0  0  0
   19.3953   70.1130   -2.8184 O   0  0  0  0  0  0  0  0  0  0  0  0
   17.9555   68.5967   -3.7277 O   0  0  0  0  0  0  0  0  0  0  0  0
   18.5316   69.6735   -3.7670 C   0  0  0  0  0  0  0  0  0  0  0  0
  1  4  1  0
  1 24  1  0
  1  2  1  6
  1  3  2  0
 25 28  1  0
 25 24  1  0
 25 26  1  6
 25 27  2  0
  6 11  1  0
  6 12  1  0
 29 36  1  0
 29 37  1  0
  9  7  1  1
  7 13  1  0
 10  8  1  1
  8 14  1  0
  4  5  1  0
 36 28  1  1
 33 30  1  6
 30 38  1  0
 34 31  1  6
 31 39  1  0
 35 32  1  1
 32 40  1  0
 41 43  1  0
 15 19  2  0
 42 43  2  0
 16 22  2  0
 12 17  1  6
 17 19  1  0
 17 20  1  0
 18 19  1  0
 18 22  1  0
 18 23  1  0
  9 10  1  0
  9 11  1  0
 10 12  1  0
 11  5  1  6
 33 34  1  0
 33 35  1  0
 34 36  1  0
 35 37  1  0
 37 43  1  1
 20 21  2  0
 21 22  1  0
M  CHG  3   2  -1  26  -1  41  -1
M  END
>  <COMPND>  (37) 
    udp_gluA.pdb 

>  <AUTHOR>  (37) 
    GENERATED BY OPEN BABEL 3.1.1

>  <MASTER>  (37) 
        0    0    0    0    0    0    0    0   56    0   56    0

>  <minimizedAffinity>  (37) 
-8.95269

>  <CNNscore>  (37) 
0.2945251763

>  <CNNaffinity>  (37) 
4.1737728119

>  <CNN_VS>  (37) 
1.2292811871

>  <CNNaffinity_variance>  (37) 
0.7585242987

$$$$
38
     RDKit          3D

 43 45  0  0  0  0  0  0  0  0999 V2000
   18.2019   74.3706   -1.4240 P   0  0  2  0  0  0  0  0  0  0  0  0
   17.3301   75.4892   -0.6447 O   0  0  0  0  0  0  0  0  0  0  0  0
   17.5891   73.0013   -1.4597 O   0  0  0  0  0  0  0  0  0  0  0  0
   19.6633   74.4686   -0.7366 O   0  0  0  0  0  0  0  0  0  0  0  0
   20.0797   73.4203    0.1190 C   0  0  0  0  0  0  0  0  0  0  0  0
   22.2162   72.3467   -0.1273 O   0  0  0  0  0  0  0  0  0  0  0  0
   20.7822   70.2837   -1.7642 O   0  0  0  0  0  0  0  0  0  0  0  0
   21.0492   69.0474    0.6516 O   0  0  0  0  0  0  0  0  0  0  0  0
   20.3313   70.9966   -0.6122 C   0  0  1  0  0  0  0  0  0  0  0  0
   21.0034   70.4588    0.6333 C   0  0  2  0  0  0  0  0  0  0  0  0
   20.8871   72.4120   -0.6883 C   0  0  1  0  0  0  0  0  0  0  0  0
   22.3834   71.0875    0.5434 C   0  0  2  0  0  0  0  0  0  0  0  0
   20.4396   69.3762   -1.7379 H   0  0  0  0  0  0  0  0  0  0  0  0
   20.1467   68.6953    0.7098 H   0  0  0  0  0  0  0  0  0  0  0  0
   23.8008   69.1471    2.0274 O   0  0  0  0  0  0  0  0  0  0  0  0
   24.5704   72.0917    5.4888 O   0  0  0  0  0  0  0  0  0  0  0  0
   22.9648   71.3203    1.8352 N   0  0  0  0  0  0  0  0  0  0  0  0
   24.1818   70.6152    3.7504 N   0  0  0  0  0  0  0  0  0  0  0  0
   23.6564   70.2777    2.4962 C   0  0  0  0  0  0  0  0  0  0  0  0
   22.8487   72.5692    2.4332 C   0  0  0  0  0  0  0  0  0  0  0  0
   23.3550   72.8759    3.6292 C   0  0  0  0  0  0  0  0  0  0  0  0
   24.0916   71.8428    4.3865 C   0  0  0  0  0  0  0  0  0  0  0  0
   24.6659   69.9050    4.2307 H   0  0  0  0  0  0  0  0  0  0  0  0
   18.4376   75.0408   -2.8760 O   0  0  0  0  0  0  0  0  0  0  0  0
   19.1029   74.4463   -4.2241 P   0  0  2  0  0  0  0  0  0  0  0  0
   20.6293   74.1414   -3.7799 O   0  0  0  0  0  0  0  0  0  0  0  0
   18.9746   75.3430   -5.4213 O   0  0  0  0  0  0  0  0  0  0  0  0
   18.4324   72.9900   -4.4035 O   0  0  0  0  0  0  0  0  0  0  0  0
   19.0174   70.7186   -4.0754 O   0  0  0  0  0  0  0  0  0  0  0  0
   17.3338   70.6166   -7.8467 O   0  0  0  0  0  0  0  0  0  0  0  0
   19.1347   72.7878   -7.0872 O   0  0  0  0  0  0  0  0  0  0  0  0
   15.8437   69.6245   -5.5562 O   0  0  0  0  0  0  0  0  0  0  0  0
   17.5069   71.0843   -6.5091 C   0  0  2  0  0  0  0  0  0  0  0  0
   18.9344   71.6010   -6.3283 C   0  0  2  0  0  0  0  0  0  0  0  0
   17.2405   69.9134   -5.5605 C   0  0  1  0  0  0  0  0  0  0  0  0
   19.2273   71.8956   -4.8565 C   0  0  1  0  0  0  0  0  0  0  0  0
   17.6752   70.2412   -4.1350 C   0  0  1  0  0  0  0  0  0  0  0  0
   17.4980   71.3439   -8.4675 H   0  0  0  0  0  0  0  0  0  0  0  0
   18.9503   72.6083   -8.0221 H   0  0  0  0  0  0  0  0  0  0  0  0
   15.5543   69.4143   -6.4578 H   0  0  0  0  0  0  0  0  0  0  0  0
   17.7775   69.3220   -1.9795 O   0  0  0  0  0  0  0  0  0  0  0  0
   17.7078   67.8629   -3.7303 O   0  0  0  0  0  0  0  0  0  0  0  0
   17.7212   69.0052   -3.2969 C   0  0  0  0  0  0  0  0  0  0  0  0
  1  4  1  0
  1 24  1  0
  1  2  1  1
  1  3  2  0
 25 28  1  0
 25 24  1  0
 25 26  1  1
 25 27  2  0
  6 11  1  0
  6 12  1  0
 29 36  1  0
 29 37  1  0
  9  7  1  6
  7 13  1  0
 10  8  1  6
  8 14  1  0
  4  5  1  0
 36 28  1  1
 33 30  1  6
 30 38  1  0
 34 31  1  6
 31 39  1  0
 35 32  1  1
 32 40  1  0
 41 43  1  0
 15 19  2  0
 42 43  2  0
 16 22  2  0
 12 17  1  1
 17 19  1  0
 17 20  1  0
 18 19  1  0
 18 22  1  0
 18 23  1  0
  9 10  1  0
  9 11  1  0
 10 12  1  0
 11  5  1  1
 33 34  1  0
 33 35  1  0
 34 36  1  0
 35 37  1  0
 37 43  1  1
 20 21  2  0
 21 22  1  0
M  CHG  3   2  -1  26  -1  41  -1
M  END
>  <COMPND>  (38) 
    udp_gluA.pdb 

>  <AUTHOR>  (38) 
    GENERATED BY OPEN BABEL 3.1.1

>  <MASTER>  (38) 
        0    0    0    0    0    0    0    0   56    0   56    0

>  <minimizedAffinity>  (38) 
-7.70494

>  <CNNscore>  (38) 
0.2905236781

>  <CNNaffinity>  (38) 
3.8900001049

>  <CNN_VS>  (38) 
1.1301370859

>  <CNNaffinity_variance>  (38) 
0.3242068589

$$$$
39
     RDKit          3D

 43 45  0  0  0  0  0  0  0  0999 V2000
   23.1117   72.8913   -3.6390 P   0  0  2  0  0  0  0  0  0  0  0  0
   23.4508   71.3226   -3.8467 O   0  0  0  0  0  0  0  0  0  0  0  0
   24.2104   73.8345   -4.0327 O   0  0  0  0  0  0  0  0  0  0  0  0
   22.6254   72.9829   -2.0985 O   0  0  0  0  0  0  0  0  0  0  0  0
   21.3229   73.4678   -1.8284 C   0  0  0  0  0  0  0  0  0  0  0  0
   21.0756   71.1585   -1.2091 O   0  0  0  0  0  0  0  0  0  0  0  0
   18.1204   71.6672   -1.2117 O   0  0  0  0  0  0  0  0  0  0  0  0
   18.7368   71.7492    1.4433 O   0  0  0  0  0  0  0  0  0  0  0  0
   19.1857   72.5310   -0.8148 C   0  0  1  0  0  0  0  0  0  0  0  0
   19.7491   72.0896    0.5193 C   0  0  2  0  0  0  0  0  0  0  0  0
   20.3607   72.2894   -1.7526 C   0  0  1  0  0  0  0  0  0  0  0  0
   20.6031   70.8976    0.1221 C   0  0  2  0  0  0  0  0  0  0  0  0
   17.3582   71.8035   -0.6269 H   0  0  0  0  0  0  0  0  0  0  0  0
   18.2214   72.5413    1.6646 H   0  0  0  0  0  0  0  0  0  0  0  0
   22.2232   68.5848    0.1751 O   0  0  0  0  0  0  0  0  0  0  0  0
   24.9061   70.3182    3.4979 O   0  0  0  0  0  0  0  0  0  0  0  0
   21.7315   70.7180    0.9912 N   0  0  0  0  0  0  0  0  0  0  0  0
   23.5573   69.4499    1.8307 N   0  0  0  0  0  0  0  0  0  0  0  0
   22.4790   69.5178    0.9386 C   0  0  0  0  0  0  0  0  0  0  0  0
   22.0884   71.7237    1.8812 C   0  0  0  0  0  0  0  0  0  0  0  0
   23.1189   71.6446    2.7254 C   0  0  0  0  0  0  0  0  0  0  0  0
   23.9509   70.4234    2.7346 C   0  0  0  0  0  0  0  0  0  0  0  0
   24.0914   68.6230    1.8139 H   0  0  0  0  0  0  0  0  0  0  0  0
   21.7355   73.0777   -4.4662 O   0  0  0  0  0  0  0  0  0  0  0  0
   21.4684   73.5457   -5.9904 P   0  0  2  0  0  0  0  0  0  0  0  0
   22.6892   72.8639   -6.8060 O   0  0  0  0  0  0  0  0  0  0  0  0
   21.3602   75.0326   -6.1681 O   0  0  0  0  0  0  0  0  0  0  0  0
   20.1608   72.7197   -6.4490 O   0  0  0  0  0  0  0  0  0  0  0  0
   19.1745   70.7218   -5.6461 O   0  0  0  0  0  0  0  0  0  0  0  0
   18.5011   70.4173   -9.7108 O   0  0  0  0  0  0  0  0  0  0  0  0
   21.0726   71.3691   -8.7030 O   0  0  0  0  0  0  0  0  0  0  0  0
   16.3272   71.1416   -7.9218 O   0  0  0  0  0  0  0  0  0  0  0  0
   18.6739   71.0937   -8.4656 C   0  0  2  0  0  0  0  0  0  0  0  0
   20.0584   70.7775   -7.8993 C   0  0  2  0  0  0  0  0  0  0  0  0
   17.5835   70.6077   -7.5081 C   0  0  1  0  0  0  0  0  0  0  0  0
   20.1942   71.2938   -6.4662 C   0  0  1  0  0  0  0  0  0  0  0  0
   17.8577   71.0591   -6.0765 C   0  0  1  0  0  0  0  0  0  0  0  0
   19.1832   70.7102  -10.3355 H   0  0  0  0  0  0  0  0  0  0  0  0
   20.9922   71.0461   -9.6139 H   0  0  0  0  0  0  0  0  0  0  0  0
   16.1408   70.8619   -8.8317 H   0  0  0  0  0  0  0  0  0  0  0  0
   16.3161   69.3237   -5.7396 O   0  0  0  0  0  0  0  0  0  0  0  0
   16.8953   70.5683   -3.9190 O   0  0  0  0  0  0  0  0  0  0  0  0
   16.9895   70.3191   -5.1115 C   0  0  0  0  0  0  0  0  0  0  0  0
  1  4  1  0
  1 24  1  0
  1  2  1  1
  1  3  2  0
 25 28  1  0
 25 24  1  0
 25 26  1  6
 25 27  2  0
  6 11  1  0
  6 12  1  0
 29 36  1  0
 29 37  1  0
  9  7  1  6
  7 13  1  0
 10  8  1  1
  8 14  1  0
  4  5  1  0
 36 28  1  6
 33 30  1  6
 30 38  1  0
 34 31  1  6
 31 39  1  0
 35 32  1  6
 32 40  1  0
 41 43  1  0
 15 19  2  0
 42 43  2  0
 16 22  2  0
 12 17  1  1
 17 19  1  0
 17 20  1  0
 18 19  1  0
 18 22  1  0
 18 23  1  0
  9 10  1  0
  9 11  1  0
 10 12  1  0
 11  5  1  1
 33 34  1  0
 33 35  1  0
 34 36  1  0
 35 37  1  0
 37 43  1  1
 20 21  2  0
 21 22  1  0
M  CHG  3   2  -1  26  -1  41  -1
M  END
>  <COMPND>  (39) 
    udp_gluA.pdb 

>  <AUTHOR>  (39) 
    GENERATED BY OPEN BABEL 3.1.1

>  <MASTER>  (39) 
        0    0    0    0    0    0    0    0   56    0   56    0

>  <minimizedAffinity>  (39) 
-8.41573

>  <CNNscore>  (39) 
0.2846380472

>  <CNNaffinity>  (39) 
4.0273628235

>  <CNN_VS>  (39) 
1.1463407278

>  <CNNaffinity_variance>  (39) 
0.2576842606

$$$$
40
     RDKit          3D

 43 45  0  0  0  0  0  0  0  0999 V2000
   18.0468   70.3398   -1.6993 P   0  0  2  0  0  0  0  0  0  0  0  0
   16.7563   70.9633   -0.9478 O   0  0  0  0  0  0  0  0  0  0  0  0
   17.8097   69.0224   -2.3776 O   0  0  0  0  0  0  0  0  0  0  0  0
   19.1993   70.3480   -0.5637 O   0  0  0  0  0  0  0  0  0  0  0  0
   19.9130   71.5489   -0.3335 C   0  0  0  0  0  0  0  0  0  0  0  0
   20.0163   71.4319    2.0651 O   0  0  0  0  0  0  0  0  0  0  0  0
   18.9780   74.2450    2.0613 O   0  0  0  0  0  0  0  0  0  0  0  0
   21.6454   74.5950    2.5066 O   0  0  0  0  0  0  0  0  0  0  0  0
   19.8803   73.6136    1.1526 C   0  0  1  0  0  0  0  0  0  0  0  0
   21.2396   73.4432    1.7973 C   0  0  2  0  0  0  0  0  0  0  0  0
   19.4307   72.1703    0.9710 C   0  0  1  0  0  0  0  0  0  0  0  0
   21.0101   72.2475    2.7058 C   0  0  2  0  0  0  0  0  0  0  0  0
   19.2450   75.1686    2.1932 H   0  0  0  0  0  0  0  0  0  0  0  0
   21.7787   75.3277    1.8843 H   0  0  0  0  0  0  0  0  0  0  0  0
   22.7542   72.5166    4.9109 O   0  0  0  0  0  0  0  0  0  0  0  0
   25.5483   69.2056    3.3378 O   0  0  0  0  0  0  0  0  0  0  0  0
   22.2006   71.4685    2.8975 N   0  0  0  0  0  0  0  0  0  0  0  0
   24.1447   70.8680    4.1248 N   0  0  0  0  0  0  0  0  0  0  0  0
   23.0079   71.6824    4.0398 C   0  0  0  0  0  0  0  0  0  0  0  0
   22.5570   70.5047    1.9620 C   0  0  0  0  0  0  0  0  0  0  0  0
   23.6437   69.7360    2.0568 C   0  0  0  0  0  0  0  0  0  0  0  0
   24.5410   69.8967    3.2197 C   0  0  0  0  0  0  0  0  0  0  0  0
   24.7234   71.0001    4.9103 H   0  0  0  0  0  0  0  0  0  0  0  0
   18.5028   71.5340   -2.6886 O   0  0  0  0  0  0  0  0  0  0  0  0
   19.6327   71.5822   -3.8438 P   0  0  2  0  0  0  0  0  0  0  0  0
   19.6803   70.0551   -4.3786 O   0  0  0  0  0  0  0  0  0  0  0  0
   20.9582   72.1189   -3.3867 O   0  0  0  0  0  0  0  0  0  0  0  0
   18.9526   72.4140   -5.0471 O   0  0  0  0  0  0  0  0  0  0  0  0
   17.3206   74.0750   -5.4794 O   0  0  0  0  0  0  0  0  0  0  0  0
   16.0664   71.0033   -7.9411 O   0  0  0  0  0  0  0  0  0  0  0  0
   17.0003   70.4415   -5.2306 O   0  0  0  0  0  0  0  0  0  0  0  0
   17.4146   73.3190   -9.0685 O   0  0  0  0  0  0  0  0  0  0  0  0
   17.0155   71.8046   -7.2375 C   0  0  2  0  0  0  0  0  0  0  0  0
   16.7259   71.7424   -5.7376 C   0  0  2  0  0  0  0  0  0  0  0  0
   16.8886   73.2429   -7.7449 C   0  0  1  0  0  0  0  0  0  0  0  0
   17.5714   72.7629   -4.9743 C   0  0  1  0  0  0  0  0  0  0  0  0
   17.6585   74.2166   -6.8574 C   0  0  1  0  0  0  0  0  0  0  0  0
   16.1286   70.0847   -7.6352 H   0  0  0  0  0  0  0  0  0  0  0  0
   16.4674   69.7888   -5.7106 H   0  0  0  0  0  0  0  0  0  0  0  0
   16.9332   72.7038   -9.6436 H   0  0  0  0  0  0  0  0  0  0  0  0
   16.6133   76.1757   -6.1017 O   0  0  0  0  0  0  0  0  0  0  0  0
   17.5048   76.2154   -8.1999 O   0  0  0  0  0  0  0  0  0  0  0  0
   17.2683   75.6278   -7.1551 C   0  0  0  0  0  0  0  0  0  0  0  0
  1  4  1  0
  1 24  1  0
  1  2  1  1
  1  3  2  0
 25 28  1  0
 25 24  1  0
 25 26  1  6
 25 27  2  0
  6 11  1  0
  6 12  1  0
 29 36  1  0
 29 37  1  0
  9  7  1  1
  7 13  1  0
 10  8  1  1
  8 14  1  0
  4  5  1  0
 36 28  1  6
 33 30  1  6
 30 38  1  0
 34 31  1  1
 31 39  1  0
 35 32  1  6
 32 40  1  0
 41 43  1  0
 15 19  2  0
 42 43  2  0
 16 22  2  0
 12 17  1  6
 17 19  1  0
 17 20  1  0
 18 19  1  0
 18 22  1  0
 18 23  1  0
  9 10  1  0
  9 11  1  0
 10 12  1  0
 11  5  1  6
 33 34  1  0
 33 35  1  0
 34 36  1  0
 35 37  1  0
 37 43  1  6
 20 21  2  0
 21 22  1  0
M  CHG  3   2  -1  26  -1  41  -1
M  END
>  <COMPND>  (40) 
    udp_gluA.pdb 

>  <AUTHOR>  (40) 
    GENERATED BY OPEN BABEL 3.1.1

>  <MASTER>  (40) 
        0    0    0    0    0    0    0    0   56    0   56    0

>  <minimizedAffinity>  (40) 
-7.31528

>  <CNNscore>  (40) 
0.2813383043

>  <CNNaffinity>  (40) 
3.9124996662

>  <CNN_VS>  (40) 
1.1007360220

>  <CNNaffinity_variance>  (40) 
0.0536936894

$$$$
41
     RDKit          3D

 43 45  0  0  0  0  0  0  0  0999 V2000
   21.5102   73.2047   -1.3513 P   0  0  2  0  0  0  0  0  0  0  0  0
   20.8097   74.0831   -2.5161 O   0  0  0  0  0  0  0  0  0  0  0  0
   23.0008   73.0748   -1.4654 O   0  0  0  0  0  0  0  0  0  0  0  0
   20.6811   71.8153   -1.3607 O   0  0  0  0  0  0  0  0  0  0  0  0
   20.1385   71.3600   -2.5866 C   0  0  0  0  0  0  0  0  0  0  0  0
   18.1230   71.9252   -3.7680 O   0  0  0  0  0  0  0  0  0  0  0  0
   16.6843   70.2541   -1.7360 O   0  0  0  0  0  0  0  0  0  0  0  0
   16.8298   68.5834   -3.8862 O   0  0  0  0  0  0  0  0  0  0  0  0
   17.9707   70.0549   -2.3225 C   0  0  1  0  0  0  0  0  0  0  0  0
   17.8267   69.5746   -3.7511 C   0  0  2  0  0  0  0  0  0  0  0  0
   18.6184   71.4201   -2.5092 C   0  0  1  0  0  0  0  0  0  0  0  0
   17.4766   70.8596   -4.4821 C   0  0  2  0  0  0  0  0  0  0  0  0
   16.2509   69.3955   -1.6071 H   0  0  0  0  0  0  0  0  0  0  0  0
   17.0996   67.7857   -3.4038 H   0  0  0  0  0  0  0  0  0  0  0  0
   15.9826   69.8937   -6.6756 O   0  0  0  0  0  0  0  0  0  0  0  0
   19.3510   70.9119   -9.6523 O   0  0  0  0  0  0  0  0  0  0  0  0
   17.9391   70.8603   -5.8411 N   0  0  0  0  0  0  0  0  0  0  0  0
   17.6621   70.4008   -8.1559 N   0  0  0  0  0  0  0  0  0  0  0  0
   17.1102   70.3519   -6.8690 C   0  0  0  0  0  0  0  0  0  0  0  0
   19.1990   71.3618   -6.1447 C   0  0  0  0  0  0  0  0  0  0  0  0
   19.7113   71.4019   -7.3763 C   0  0  0  0  0  0  0  0  0  0  0  0
   18.9101   70.8894   -8.5072 C   0  0  0  0  0  0  0  0  0  0  0  0
   17.1045   70.0506   -8.8878 H   0  0  0  0  0  0  0  0  0  0  0  0
   20.9987   73.9239    0.0029 O   0  0  0  0  0  0  0  0  0  0  0  0
   21.8185   74.6243    1.2075 P   0  0  2  0  0  0  0  0  0  0  0  0
   20.6487   75.1356    2.2027 O   0  0  0  0  0  0  0  0  0  0  0  0
   22.7665   75.7003    0.7632 O   0  0  0  0  0  0  0  0  0  0  0  0
   22.5159   73.4004    1.9938 O   0  0  0  0  0  0  0  0  0  0  0  0
   21.5814   71.2389    1.7414 O   0  0  0  0  0  0  0  0  0  0  0  0
   24.0355   70.7158    5.0234 O   0  0  0  0  0  0  0  0  0  0  0  0
   22.4094   73.1284    4.7598 O   0  0  0  0  0  0  0  0  0  0  0  0
   24.8349   69.6866    2.4248 O   0  0  0  0  0  0  0  0  0  0  0  0
   23.6310   71.2780    3.7751 C   0  0  2  0  0  0  0  0  0  0  0  0
   22.2790   71.9723    3.9406 C   0  0  2  0  0  0  0  0  0  0  0  0
   23.5242   70.1407    2.7567 C   0  0  1  0  0  0  0  0  0  0  0  0
   21.7062   72.3851    2.5840 C   0  0  1  0  0  0  0  0  0  0  0  0
   22.8291   70.6009    1.4786 C   0  0  1  0  0  0  0  0  0  0  0  0
   24.1101   71.4202    5.6864 H   0  0  0  0  0  0  0  0  0  0  0  0
   22.7726   72.8739    5.6221 H   0  0  0  0  0  0  0  0  0  0  0  0
   25.2882   69.3910    3.2298 H   0  0  0  0  0  0  0  0  0  0  0  0
   21.0941   69.2429    0.6741 O   0  0  0  0  0  0  0  0  0  0  0  0
   23.2117   68.7339   -0.0012 O   0  0  0  0  0  0  0  0  0  0  0  0
   22.4367   69.4302    0.6372 C   0  0  0  0  0  0  0  0  0  0  0  0
  1  4  1  0
  1 24  1  0
  1  2  1  6
  1  3  2  0
 25 28  1  0
 25 24  1  0
 25 26  1  1
 25 27  2  0
  6 11  1  0
  6 12  1  0
 29 36  1  0
 29 37  1  0
  9  7  1  6
  7 13  1  0
 10  8  1  1
  8 14  1  0
  4  5  1  0
 36 28  1  6
 33 30  1  1
 30 38  1  0
 34 31  1  1
 31 39  1  0
 35 32  1  6
 32 40  1  0
 41 43  1  0
 15 19  2  0
 42 43  2  0
 16 22  2  0
 12 17  1  6
 17 19  1  0
 17 20  1  0
 18 19  1  0
 18 22  1  0
 18 23  1  0
  9 10  1  0
  9 11  1  0
 10 12  1  0
 11  5  1  6
 33 34  1  0
 33 35  1  0
 34 36  1  0
 35 37  1  0
 37 43  1  6
 20 21  2  0
 21 22  1  0
M  CHG  3   2  -1  26  -1  41  -1
M  END
>  <COMPND>  (41) 
    udp_gluA.pdb 

>  <AUTHOR>  (41) 
    GENERATED BY OPEN BABEL 3.1.1

>  <MASTER>  (41) 
        0    0    0    0    0    0    0    0   56    0   56    0

>  <minimizedAffinity>  (41) 
-8.13578

>  <CNNscore>  (41) 
0.7362983823

>  <CNNaffinity>  (41) 
4.7224922180

>  <CNN_VS>  (41) 
3.4771633148

>  <CNNaffinity_variance>  (41) 
0.0541850254

$$$$
42
     RDKit          3D

 43 45  0  0  0  0  0  0  0  0999 V2000
   21.9422   71.1462   -1.8373 P   0  0  2  0  0  0  0  0  0  0  0  0
   22.7032   72.4801   -2.3476 O   0  0  0  0  0  0  0  0  0  0  0  0
   21.9909   69.9861   -2.7878 O   0  0  0  0  0  0  0  0  0  0  0  0
   20.4629   71.6697   -1.4429 O   0  0  0  0  0  0  0  0  0  0  0  0
   19.6769   72.2917   -2.4428 C   0  0  0  0  0  0  0  0  0  0  0  0
   17.6341   71.9147   -3.6521 O   0  0  0  0  0  0  0  0  0  0  0  0
   16.9052   70.0060   -1.4573 O   0  0  0  0  0  0  0  0  0  0  0  0
   17.7502   68.3375   -3.4418 O   0  0  0  0  0  0  0  0  0  0  0  0
   18.1832   70.2730   -2.0353 C   0  0  1  0  0  0  0  0  0  0  0  0
   18.2775   69.6473   -3.4107 C   0  0  2  0  0  0  0  0  0  0  0  0
   18.2522   71.7598   -2.3562 C   0  0  1  0  0  0  0  0  0  0  0  0
   17.4745   70.6212   -4.2560 C   0  0  2  0  0  0  0  0  0  0  0  0
   16.8375   69.0618   -1.2437 H   0  0  0  0  0  0  0  0  0  0  0  0
   18.2962   67.7559   -2.8890 H   0  0  0  0  0  0  0  0  0  0  0  0
   15.9091   69.9387   -6.5055 O   0  0  0  0  0  0  0  0  0  0  0  0
   19.3547   70.8822   -9.4178 O   0  0  0  0  0  0  0  0  0  0  0  0
   17.9375   70.6793   -5.6136 N   0  0  0  0  0  0  0  0  0  0  0  0
   17.6270   70.4083   -7.9538 N   0  0  0  0  0  0  0  0  0  0  0  0
   17.0711   70.3147   -6.6711 C   0  0  0  0  0  0  0  0  0  0  0  0
   19.2350   71.0952   -5.8867 C   0  0  0  0  0  0  0  0  0  0  0  0
   19.7508   71.1794   -7.1146 C   0  0  0  0  0  0  0  0  0  0  0  0
   18.9117   70.8156   -8.2752 C   0  0  0  0  0  0  0  0  0  0  0  0
   17.0435   70.1577   -8.7061 H   0  0  0  0  0  0  0  0  0  0  0  0
   22.6244   70.8671   -0.3987 O   0  0  0  0  0  0  0  0  0  0  0  0
   22.1477   69.9456    0.8412 P   0  0  2  0  0  0  0  0  0  0  0  0
   23.4239   68.9839    1.0994 O   0  0  0  0  0  0  0  0  0  0  0  0
   20.8590   69.2127    0.6041 O   0  0  0  0  0  0  0  0  0  0  0  0
   22.1268   70.9436    2.1085 O   0  0  0  0  0  0  0  0  0  0  0  0
   21.5175   73.1869    1.6555 O   0  0  0  0  0  0  0  0  0  0  0  0
   22.9810   73.4750    5.5082 O   0  0  0  0  0  0  0  0  0  0  0  0
   24.3525   71.8289    3.5223 O   0  0  0  0  0  0  0  0  0  0  0  0
   20.1151   73.5502    5.0265 O   0  0  0  0  0  0  0  0  0  0  0  0
   22.3328   72.8432    4.4042 C   0  0  2  0  0  0  0  0  0  0  0  0
   23.3045   72.7452    3.2280 C   0  0  2  0  0  0  0  0  0  0  0  0
   21.1174   73.6907    4.0214 C   0  0  1  0  0  0  0  0  0  0  0  0
   22.5836   72.2867    1.9595 C   0  0  1  0  0  0  0  0  0  0  0  0
   20.5309   73.2510    2.6830 C   0  0  1  0  0  0  0  0  0  0  0  0
   23.7568   72.9541    5.7691 H   0  0  0  0  0  0  0  0  0  0  0  0
   24.8141   72.1136    4.3262 H   0  0  0  0  0  0  0  0  0  0  0  0
   20.4756   73.8267    5.8835 H   0  0  0  0  0  0  0  0  0  0  0  0
   18.9506   73.8195    1.0456 O   0  0  0  0  0  0  0  0  0  0  0  0
   19.3660   75.3638    2.6709 O   0  0  0  0  0  0  0  0  0  0  0  0
   19.5712   74.2714    2.1634 C   0  0  0  0  0  0  0  0  0  0  0  0
  1  4  1  0
  1 24  1  0
  1  2  1  6
  1  3  2  0
 25 28  1  0
 25 24  1  0
 25 26  1  1
 25 27  2  0
  6 11  1  0
  6 12  1  0
 29 36  1  0
 29 37  1  0
  9  7  1  6
  7 13  1  0
 10  8  1  1
  8 14  1  0
  4  5  1  0
 36 28  1  1
 33 30  1  1
 30 38  1  0
 34 31  1  1
 31 39  1  0
 35 32  1  1
 32 40  1  0
 41 43  1  0
 15 19  2  0
 42 43  2  0
 16 22  2  0
 12 17  1  6
 17 19  1  0
 17 20  1  0
 18 19  1  0
 18 22  1  0
 18 23  1  0
  9 10  1  0
  9 11  1  0
 10 12  1  0
 11  5  1  6
 33 34  1  0
 33 35  1  0
 34 36  1  0
 35 37  1  0
 37 43  1  6
 20 21  2  0
 21 22  1  0
M  CHG  3   2  -1  26  -1  41  -1
M  END
>  <COMPND>  (42) 
    udp_gluA.pdb 

>  <AUTHOR>  (42) 
    GENERATED BY OPEN BABEL 3.1.1

>  <MASTER>  (42) 
        0    0    0    0    0    0    0    0   56    0   56    0

>  <minimizedAffinity>  (42) 
-8.22365

>  <CNNscore>  (42) 
0.7079717517

>  <CNNaffinity>  (42) 
4.7021460533

>  <CNN_VS>  (42) 
3.3289866447

>  <CNNaffinity_variance>  (42) 
0.0057723820

$$$$
43
     RDKit          3D

 43 45  0  0  0  0  0  0  0  0999 V2000
   22.6739   72.6390   -3.7590 P   0  0  2  0  0  0  0  0  0  0  0  0
   22.9564   74.0673   -3.0526 O   0  0  0  0  0  0  0  0  0  0  0  0
   22.9845   72.5853   -5.2261 O   0  0  0  0  0  0  0  0  0  0  0  0
   21.1453   72.2996   -3.3515 O   0  0  0  0  0  0  0  0  0  0  0  0
   20.1335   73.2317   -3.6862 C   0  0  0  0  0  0  0  0  0  0  0  0
   18.0674   72.4732   -4.6524 O   0  0  0  0  0  0  0  0  0  0  0  0
   17.6509   70.9489   -2.1039 O   0  0  0  0  0  0  0  0  0  0  0  0
   18.5302   69.0176   -3.8165 O   0  0  0  0  0  0  0  0  0  0  0  0
   18.8620   71.2080   -2.8143 C   0  0  1  0  0  0  0  0  0  0  0  0
   18.9334   70.3492   -4.0592 C   0  0  2  0  0  0  0  0  0  0  0  0
   18.7724   72.6107   -3.3996 C   0  0  1  0  0  0  0  0  0  0  0  0
   17.9944   71.0820   -5.0021 C   0  0  2  0  0  0  0  0  0  0  0  0
   17.6846   70.0580   -1.7208 H   0  0  0  0  0  0  0  0  0  0  0  0
   19.1598   68.5943   -3.2113 H   0  0  0  0  0  0  0  0  0  0  0  0
   16.2290   70.2767   -7.0543 O   0  0  0  0  0  0  0  0  0  0  0  0
   19.5421   70.5184  -10.2495 O   0  0  0  0  0  0  0  0  0  0  0  0
   18.3692   70.9264   -6.3791 N   0  0  0  0  0  0  0  0  0  0  0  0
   17.8810   70.3969   -8.6435 N   0  0  0  0  0  0  0  0  0  0  0  0
   17.4057   70.5170   -7.3310 C   0  0  0  0  0  0  0  0  0  0  0  0
   19.6769   71.1797   -6.7748 C   0  0  0  0  0  0  0  0  0  0  0  0
   20.1151   71.0610   -8.0297 C   0  0  0  0  0  0  0  0  0  0  0  0
   19.1720   70.6371   -9.0853 C   0  0  0  0  0  0  0  0  0  0  0  0
   17.2290   70.1112   -9.3237 H   0  0  0  0  0  0  0  0  0  0  0  0
   23.5288   71.6100   -2.8516 O   0  0  0  0  0  0  0  0  0  0  0  0
   23.1172   70.2048   -2.1664 P   0  0  2  0  0  0  0  0  0  0  0  0
   24.4404   69.2941   -2.3665 O   0  0  0  0  0  0  0  0  0  0  0  0
   21.8592   69.5969   -2.7159 O   0  0  0  0  0  0  0  0  0  0  0  0
   23.0739   70.5180   -0.5845 O   0  0  0  0  0  0  0  0  0  0  0  0
   23.3986   69.3160    1.4302 O   0  0  0  0  0  0  0  0  0  0  0  0
   19.9988   71.4991    2.2924 O   0  0  0  0  0  0  0  0  0  0  0  0
   20.3204   70.2286   -0.3185 O   0  0  0  0  0  0  0  0  0  0  0  0
   22.5632   72.2902    3.4098 O   0  0  0  0  0  0  0  0  0  0  0  0
   21.2603   71.2410    1.6759 C   0  0  2  0  0  0  0  0  0  0  0  0
   21.1580   69.9877    0.8062 C   0  0  2  0  0  0  0  0  0  0  0  0
   22.2953   71.0366    2.7844 C   0  0  1  0  0  0  0  0  0  0  0  0
   22.5380   69.5488    0.3146 C   0  0  1  0  0  0  0  0  0  0  0  0
   23.6029   70.4789    2.2297 C   0  0  1  0  0  0  0  0  0  0  0  0
   19.3250   71.6323    1.6071 H   0  0  0  0  0  0  0  0  0  0  0  0
   19.4431   70.5078   -0.0139 H   0  0  0  0  0  0  0  0  0  0  0  0
   21.7390   72.6560    3.7671 H   0  0  0  0  0  0  0  0  0  0  0  0
   24.4595   68.6228    3.3798 O   0  0  0  0  0  0  0  0  0  0  0  0
   25.1225   70.6847    4.0925 O   0  0  0  0  0  0  0  0  0  0  0  0
   24.4765   69.9779    3.3334 C   0  0  0  0  0  0  0  0  0  0  0  0
  1  4  1  0
  1 24  1  0
  1  2  1  1
  1  3  2  0
 25 28  1  0
 25 24  1  0
 25 26  1  1
 25 27  2  0
  6 11  1  0
  6 12  1  0
 29 36  1  0
 29 37  1  0
  9  7  1  6
  7 13  1  0
 10  8  1  1
  8 14  1  0
  4  5  1  0
 36 28  1  6
 33 30  1  1
 30 38  1  0
 34 31  1  6
 31 39  1  0
 35 32  1  6
 32 40  1  0
 41 43  1  0
 15 19  2  0
 42 43  2  0
 16 22  2  0
 12 17  1  6
 17 19  1  0
 17 20  1  0
 18 19  1  0
 18 22  1  0
 18 23  1  0
  9 10  1  0
  9 11  1  0
 10 12  1  0
 11  5  1  6
 33 34  1  0
 33 35  1  0
 34 36  1  0
 35 37  1  0
 37 43  1  1
 20 21  2  0
 21 22  1  0
M  CHG  3   2  -1  26  -1  41  -1
M  END
>  <COMPND>  (43) 
    udp_gluA.pdb 

>  <AUTHOR>  (43) 
    GENERATED BY OPEN BABEL 3.1.1

>  <MASTER>  (43) 
        0    0    0    0    0    0    0    0   56    0   56    0

>  <minimizedAffinity>  (43) 
-8.77060

>  <CNNscore>  (43) 
0.6581743956

>  <CNNaffinity>  (43) 
4.4393053055

>  <CNN_VS>  (43) 
2.9218370914

>  <CNNaffinity_variance>  (43) 
0.1050353199

$$$$
44
     RDKit          3D

 43 45  0  0  0  0  0  0  0  0999 V2000
   19.7307   73.2932    0.3518 P   0  0  2  0  0  0  0  0  0  0  0  0
   18.9337   72.3128    1.3629 O   0  0  0  0  0  0  0  0  0  0  0  0
   20.5128   74.3881    1.0160 O   0  0  0  0  0  0  0  0  0  0  0  0
   18.5963   73.7761   -0.6960 O   0  0  0  0  0  0  0  0  0  0  0  0
   18.5253   73.1374   -1.9576 C   0  0  0  0  0  0  0  0  0  0  0  0
   16.8373   72.2922   -3.4455 O   0  0  0  0  0  0  0  0  0  0  0  0
   16.0078   70.5014   -1.1880 O   0  0  0  0  0  0  0  0  0  0  0  0
   17.4684   68.8282   -2.7701 O   0  0  0  0  0  0  0  0  0  0  0  0
   17.3153   70.9342   -1.5645 C   0  0  1  0  0  0  0  0  0  0  0  0
   17.7687   70.2075   -2.8130 C   0  0  2  0  0  0  0  0  0  0  0  0
   17.2114   72.3726   -2.0531 C   0  0  1  0  0  0  0  0  0  0  0  0
   17.0008   70.9396   -3.9004 C   0  0  2  0  0  0  0  0  0  0  0  0
   16.0488   69.5847   -0.8723 H   0  0  0  0  0  0  0  0  0  0  0  0
   17.9822   68.4074   -2.0623 H   0  0  0  0  0  0  0  0  0  0  0  0
   16.0520   69.7258   -6.2674 O   0  0  0  0  0  0  0  0  0  0  0  0
   19.7716   71.0416   -8.6501 O   0  0  0  0  0  0  0  0  0  0  0  0
   17.7011   70.9498   -5.1536 N   0  0  0  0  0  0  0  0  0  0  0  0
   17.9059   70.3814   -7.4516 N   0  0  0  0  0  0  0  0  0  0  0  0
   17.1370   70.3101   -6.2826 C   0  0  0  0  0  0  0  0  0  0  0  0
   18.9305   71.5893   -5.2558 C   0  0  0  0  0  0  0  0  0  0  0  0
   19.6517   71.6489   -6.3771 C   0  0  0  0  0  0  0  0  0  0  0  0
   19.1340   71.0051   -7.6021 C   0  0  0  0  0  0  0  0  0  0  0  0
   17.5347   69.9416   -8.2504 H   0  0  0  0  0  0  0  0  0  0  0  0
   20.6203   72.2660   -0.5237 O   0  0  0  0  0  0  0  0  0  0  0  0
   21.0488   70.7317   -0.2479 P   0  0  2  0  0  0  0  0  0  0  0  0
   22.2353   70.4806   -1.3200 O   0  0  0  0  0  0  0  0  0  0  0  0
   19.9162   69.7504   -0.3379 O   0  0  0  0  0  0  0  0  0  0  0  0
   21.7933   70.7655    1.1828 O   0  0  0  0  0  0  0  0  0  0  0  0
   22.9447   72.4467    2.3899 O   0  0  0  0  0  0  0  0  0  0  0  0
   25.2327   69.1061    3.2107 O   0  0  0  0  0  0  0  0  0  0  0  0
   24.2182   69.5797    0.5124 O   0  0  0  0  0  0  0  0  0  0  0  0
   23.4247   70.1673    5.2247 O   0  0  0  0  0  0  0  0  0  0  0  0
   24.0346   69.8255    2.9190 C   0  0  2  0  0  0  0  0  0  0  0  0
   24.1767   70.5307    1.5699 C   0  0  2  0  0  0  0  0  0  0  0  0
   23.8146   70.8499    4.0345 C   0  0  1  0  0  0  0  0  0  0  0  0
   23.0119   71.4922    1.3298 C   0  0  1  0  0  0  0  0  0  0  0  0
   22.7223   71.8495    3.6654 C   0  0  1  0  0  0  0  0  0  0  0  0
   25.3930   68.4492    2.5150 H   0  0  0  0  0  0  0  0  0  0  0  0
   24.9549   68.9662    0.6585 H   0  0  0  0  0  0  0  0  0  0  0  0
   24.1114   69.5279    5.4704 H   0  0  0  0  0  0  0  0  0  0  0  0
   21.9119   73.9975    4.1457 O   0  0  0  0  0  0  0  0  0  0  0  0
   23.4050   73.0966    5.6147 O   0  0  0  0  0  0  0  0  0  0  0  0
   22.7404   73.0212    4.5922 C   0  0  0  0  0  0  0  0  0  0  0  0
  1  4  1  0
  1 24  1  0
  1  2  1  1
  1  3  2  0
 25 28  1  0
 25 24  1  0
 25 26  1  6
 25 27  2  0
  6 11  1  0
  6 12  1  0
 29 36  1  0
 29 37  1  0
  9  7  1  6
  7 13  1  0
 10  8  1  1
  8 14  1  0
  4  5  1  0
 36 28  1  1
 33 30  1  1
 30 38  1  0
 34 31  1  6
 31 39  1  0
 35 32  1  1
 32 40  1  0
 41 43  1  0
 15 19  2  0
 42 43  2  0
 16 22  2  0
 12 17  1  6
 17 19  1  0
 17 20  1  0
 18 19  1  0
 18 22  1  0
 18 23  1  0
  9 10  1  0
  9 11  1  0
 10 12  1  0
 11  5  1  6
 33 34  1  0
 33 35  1  0
 34 36  1  0
 35 37  1  0
 37 43  1  1
 20 21  2  0
 21 22  1  0
M  CHG  3   2  -1  26  -1  41  -1
M  END
>  <COMPND>  (44) 
    udp_gluA.pdb 

>  <AUTHOR>  (44) 
    GENERATED BY OPEN BABEL 3.1.1

>  <MASTER>  (44) 
        0    0    0    0    0    0    0    0   56    0   56    0

>  <minimizedAffinity>  (44) 
-7.32368

>  <CNNscore>  (44) 
0.5828428268

>  <CNNaffinity>  (44) 
4.4314994812

>  <CNN_VS>  (44) 
2.5828676224

>  <CNNaffinity_variance>  (44) 
0.1876549423

$$$$
45
     RDKit          3D

 43 45  0  0  0  0  0  0  0  0999 V2000
   22.9736   69.5155   -2.2241 P   0  0  2  0  0  0  0  0  0  0  0  0
   23.9042   70.4032   -3.2063 O   0  0  0  0  0  0  0  0  0  0  0  0
   23.3181   68.0558   -2.1732 O   0  0  0  0  0  0  0  0  0  0  0  0
   21.4660   69.8655   -2.6959 O   0  0  0  0  0  0  0  0  0  0  0  0
   21.2372   71.0843   -3.3791 C   0  0  0  0  0  0  0  0  0  0  0  0
   19.2773   72.0784   -4.3530 O   0  0  0  0  0  0  0  0  0  0  0  0
   17.7714   70.9469   -2.0198 O   0  0  0  0  0  0  0  0  0  0  0  0
   17.1993   69.1765   -4.0135 O   0  0  0  0  0  0  0  0  0  0  0  0
   18.8742   70.3931   -2.7380 C   0  0  1  0  0  0  0  0  0  0  0  0
   18.4180   69.8862   -4.0897 C   0  0  2  0  0  0  0  0  0  0  0  0
   19.8047   71.5349   -3.1234 C   0  0  1  0  0  0  0  0  0  0  0  0
   18.2955   71.1748   -4.8849 C   0  0  2  0  0  0  0  0  0  0  0  0
   17.1628   70.2361   -1.7628 H   0  0  0  0  0  0  0  0  0  0  0  0
   17.3297   68.3646   -3.4978 H   0  0  0  0  0  0  0  0  0  0  0  0
   16.3263   70.4565   -6.7777 O   0  0  0  0  0  0  0  0  0  0  0  0
   19.3817   70.4588  -10.2286 O   0  0  0  0  0  0  0  0  0  0  0  0
   18.5489   70.9811   -6.2846 N   0  0  0  0  0  0  0  0  0  0  0  0
   17.8502   70.4573   -8.4945 N   0  0  0  0  0  0  0  0  0  0  0  0
   17.4894   70.6210   -7.1505 C   0  0  0  0  0  0  0  0  0  0  0  0
   19.8337   71.1493   -6.7866 C   0  0  0  0  0  0  0  0  0  0  0  0
   20.1621   70.9899   -8.0701 C   0  0  0  0  0  0  0  0  0  0  0  0
   19.1138   70.6129   -9.0408 C   0  0  0  0  0  0  0  0  0  0  0  0
   17.1298   70.2046   -9.1162 H   0  0  0  0  0  0  0  0  0  0  0  0
   23.0999   70.2869   -0.8093 O   0  0  0  0  0  0  0  0  0  0  0  0
   22.4371   69.9760    0.6321 P   0  0  2  0  0  0  0  0  0  0  0  0
   23.5859   69.1254    1.3918 O   0  0  0  0  0  0  0  0  0  0  0  0
   21.1039   69.2893    0.5616 O   0  0  0  0  0  0  0  0  0  0  0  0
   22.4173   71.4003    1.3893 O   0  0  0  0  0  0  0  0  0  0  0  0
   22.5908   72.0852    3.6498 O   0  0  0  0  0  0  0  0  0  0  0  0
   19.6789   74.6422    2.2178 O   0  0  0  0  0  0  0  0  0  0  0  0
   19.6687   71.8185    1.4688 O   0  0  0  0  0  0  0  0  0  0  0  0
   22.3834   75.6122    2.6601 O   0  0  0  0  0  0  0  0  0  0  0  0
   20.8490   73.8278    2.1438 C   0  0  2  0  0  0  0  0  0  0  0  0
   20.4887   72.3819    2.4861 C   0  0  2  0  0  0  0  0  0  0  0  0
   21.8692   74.3735    3.1455 C   0  0  1  0  0  0  0  0  0  0  0  0
   21.7469   71.5268    2.6421 C   0  0  1  0  0  0  0  0  0  0  0  0
   23.0323   73.4050    3.3397 C   0  0  1  0  0  0  0  0  0  0  0  0
   19.0162   74.3142    1.5897 H   0  0  0  0  0  0  0  0  0  0  0  0
   18.8685   72.3563    1.3643 H   0  0  0  0  0  0  0  0  0  0  0  0
   21.6531   76.2376    2.5321 H   0  0  0  0  0  0  0  0  0  0  0  0
   24.8798   74.5751    4.1878 O   0  0  0  0  0  0  0  0  0  0  0  0
   23.6012   73.4242    5.6843 O   0  0  0  0  0  0  0  0  0  0  0  0
   23.8396   73.7794    4.5398 C   0  0  0  0  0  0  0  0  0  0  0  0
  1  4  1  0
  1 24  1  0
  1  2  1  6
  1  3  2  0
 25 28  1  0
 25 24  1  0
 25 26  1  1
 25 27  2  0
  6 11  1  0
  6 12  1  0
 29 36  1  0
 29 37  1  0
  9  7  1  1
  7 13  1  0
 10  8  1  1
  8 14  1  0
  4  5  1  0
 36 28  1  6
 33 30  1  1
 30 38  1  0
 34 31  1  6
 31 39  1  0
 35 32  1  6
 32 40  1  0
 41 43  1  0
 15 19  2  0
 42 43  2  0
 16 22  2  0
 12 17  1  6
 17 19  1  0
 17 20  1  0
 18 19  1  0
 18 22  1  0
 18 23  1  0
  9 10  1  0
  9 11  1  0
 10 12  1  0
 11  5  1  6
 33 34  1  0
 33 35  1  0
 34 36  1  0
 35 37  1  0
 37 43  1  1
 20 21  2  0
 21 22  1  0
M  CHG  3   2  -1  26  -1  41  -1
M  END
>  <COMPND>  (45) 
    udp_gluA.pdb 

>  <AUTHOR>  (45) 
    GENERATED BY OPEN BABEL 3.1.1

>  <MASTER>  (45) 
        0    0    0    0    0    0    0    0   56    0   56    0

>  <minimizedAffinity>  (45) 
-8.47610

>  <CNNscore>  (45) 
0.5691435933

>  <CNNaffinity>  (45) 
4.6354718208

>  <CNN_VS>  (45) 
2.6382491589

>  <CNNaffinity_variance>  (45) 
0.0382508710

$$$$
46
     RDKit          3D

 43 45  0  0  0  0  0  0  0  0999 V2000
   19.0846   71.0597   -1.3271 P   0  0  2  0  0  0  0  0  0  0  0  0
   18.4303   69.6012   -1.5788 O   0  0  0  0  0  0  0  0  0  0  0  0
   18.5253   71.8114   -0.1550 O   0  0  0  0  0  0  0  0  0  0  0  0
   18.9542   71.7968   -2.7616 O   0  0  0  0  0  0  0  0  0  0  0  0
   18.9622   73.2121   -2.7977 C   0  0  0  0  0  0  0  0  0  0  0  0
   21.1148   72.8094   -3.7886 O   0  0  0  0  0  0  0  0  0  0  0  0
   21.7666   75.6485   -3.0770 O   0  0  0  0  0  0  0  0  0  0  0  0
   21.1803   75.8199   -5.7346 O   0  0  0  0  0  0  0  0  0  0  0  0
   20.5273   75.0872   -3.5101 C   0  0  1  0  0  0  0  0  0  0  0  0
   20.5805   74.7795   -4.9915 C   0  0  2  0  0  0  0  0  0  0  0  0
   20.4024   73.6976   -2.9004 C   0  0  1  0  0  0  0  0  0  0  0  0
   21.3946   73.4972   -5.0183 C   0  0  2  0  0  0  0  0  0  0  0  0
   21.8688   76.5368   -3.4540 H   0  0  0  0  0  0  0  0  0  0  0  0
   20.6240   76.6138   -5.6867 H   0  0  0  0  0  0  0  0  0  0  0  0
   22.9726   73.1501   -7.3348 O   0  0  0  0  0  0  0  0  0  0  0  0
   19.9412   70.2095   -9.1808 O   0  0  0  0  0  0  0  0  0  0  0  0
   21.0416   72.6468   -6.1197 N   0  0  0  0  0  0  0  0  0  0  0  0
   21.4608   71.6866   -8.2524 N   0  0  0  0  0  0  0  0  0  0  0  0
   21.9044   72.5432   -7.2363 C   0  0  0  0  0  0  0  0  0  0  0  0
   19.8541   71.9258   -6.0864 C   0  0  0  0  0  0  0  0  0  0  0  0
   19.4448   71.1132   -7.0626 C   0  0  0  0  0  0  0  0  0  0  0  0
   20.2879   70.9493   -8.2649 C   0  0  0  0  0  0  0  0  0  0  0  0
   22.0438   71.5998   -9.0410 H   0  0  0  0  0  0  0  0  0  0  0  0
   20.6652   70.7361   -1.2273 O   0  0  0  0  0  0  0  0  0  0  0  0
   21.5729   70.2524    0.0200 P   0  0  2  0  0  0  0  0  0  0  0  0
   23.0192   69.9861   -0.6564 O   0  0  0  0  0  0  0  0  0  0  0  0
   21.0145   69.0770    0.7688 O   0  0  0  0  0  0  0  0  0  0  0  0
   21.7797   71.5790    0.9144 O   0  0  0  0  0  0  0  0  0  0  0  0
   22.1809   71.1727    3.2129 O   0  0  0  0  0  0  0  0  0  0  0  0
   21.5868   75.2609    3.1730 O   0  0  0  0  0  0  0  0  0  0  0  0
   19.8831   73.5013    1.5806 O   0  0  0  0  0  0  0  0  0  0  0  0
   24.2717   74.1792    3.4412 O   0  0  0  0  0  0  0  0  0  0  0  0
   22.0030   73.9994    2.6502 C   0  0  2  0  0  0  0  0  0  0  0  0
   20.8020   73.0566    2.5718 C   0  0  2  0  0  0  0  0  0  0  0  0
   23.0685   73.4273    3.5878 C   0  0  1  0  0  0  0  0  0  0  0  0
   21.2458   71.6321    2.2361 C   0  0  1  0  0  0  0  0  0  0  0  0
   23.3651   71.9650    3.2677 C   0  0  1  0  0  0  0  0  0  0  0  0
   20.9094   75.6438    2.5934 H   0  0  0  0  0  0  0  0  0  0  0  0
   19.5975   74.4047    1.7872 H   0  0  0  0  0  0  0  0  0  0  0  0
   24.0966   75.1119    3.6420 H   0  0  0  0  0  0  0  0  0  0  0  0
   23.4279   70.3323    4.9506 O   0  0  0  0  0  0  0  0  0  0  0  0
   25.2726   71.6511    4.7115 O   0  0  0  0  0  0  0  0  0  0  0  0
   24.1442   71.3278    4.3719 C   0  0  0  0  0  0  0  0  0  0  0  0
  1  4  1  0
  1 24  1  0
  1  2  1  6
  1  3  2  0
 25 28  1  0
 25 24  1  0
 25 26  1  6
 25 27  2  0
  6 11  1  0
  6 12  1  0
 29 36  1  0
 29 37  1  0
  9  7  1  1
  7 13  1  0
 10  8  1  6
  8 14  1  0
  4  5  1  0
 36 28  1  6
 33 30  1  1
 30 38  1  0
 34 31  1  6
 31 39  1  0
 35 32  1  6
 32 40  1  0
 41 43  1  0
 15 19  2  0
 42 43  2  0
 16 22  2  0
 12 17  1  6
 17 19  1  0
 17 20  1  0
 18 19  1  0
 18 22  1  0
 18 23  1  0
  9 10  1  0
  9 11  1  0
 10 12  1  0
 11  5  1  6
 33 34  1  0
 33 35  1  0
 34 36  1  0
 35 37  1  0
 37 43  1  1
 20 21  2  0
 21 22  1  0
M  CHG  3   2  -1  26  -1  41  -1
M  END
>  <COMPND>  (46) 
    udp_gluA.pdb 

>  <AUTHOR>  (46) 
    GENERATED BY OPEN BABEL 3.1.1

>  <MASTER>  (46) 
        0    0    0    0    0    0    0    0   56    0   56    0

>  <minimizedAffinity>  (46) 
-7.53001

>  <CNNscore>  (46) 
0.5040405393

>  <CNNaffinity>  (46) 
4.2460088730

>  <CNN_VS>  (46) 
2.1401605606

>  <CNNaffinity_variance>  (46) 
0.0227248929

$$$$
47
     RDKit          3D

 43 45  0  0  0  0  0  0  0  0999 V2000
   21.0445   70.5553    0.0549 P   0  0  2  0  0  0  0  0  0  0  0  0
   21.9027   69.1889    0.1786 O   0  0  0  0  0  0  0  0  0  0  0  0
   21.6784   71.6280   -0.7812 O   0  0  0  0  0  0  0  0  0  0  0  0
   20.7285   70.9559    1.5903 O   0  0  0  0  0  0  0  0  0  0  0  0
   21.3307   72.1215    2.1226 C   0  0  0  0  0  0  0  0  0  0  0  0
   23.4367   73.1268    2.6987 O   0  0  0  0  0  0  0  0  0  0  0  0
   24.5696   70.3514    2.6271 O   0  0  0  0  0  0  0  0  0  0  0  0
   24.2461   70.7942    5.2983 O   0  0  0  0  0  0  0  0  0  0  0  0
   23.2840   70.7916    3.0652 C   0  0  1  0  0  0  0  0  0  0  0  0
   23.3964   71.4850    4.4064 C   0  0  2  0  0  0  0  0  0  0  0  0
   22.8414   71.9289    2.1547 C   0  0  1  0  0  0  0  0  0  0  0  0
   23.9443   72.8462    4.0128 C   0  0  2  0  0  0  0  0  0  0  0  0
   24.8735   69.6248    3.1940 H   0  0  0  0  0  0  0  0  0  0  0  0
   23.8533   69.9344    5.5185 H   0  0  0  0  0  0  0  0  0  0  0  0
   25.6891   74.6946    5.2440 O   0  0  0  0  0  0  0  0  0  0  0  0
   22.2167   76.7943    7.4298 O   0  0  0  0  0  0  0  0  0  0  0  0
   23.5229   73.8863    4.9081 N   0  0  0  0  0  0  0  0  0  0  0  0
   23.9581   75.7379    6.3323 N   0  0  0  0  0  0  0  0  0  0  0  0
   24.4800   74.7621    5.4729 C   0  0  0  0  0  0  0  0  0  0  0  0
   22.1759   74.0320    5.2169 C   0  0  0  0  0  0  0  0  0  0  0  0
   21.6936   74.9671    6.0377 C   0  0  0  0  0  0  0  0  0  0  0  0
   22.6271   75.9219    6.6704 C   0  0  0  0  0  0  0  0  0  0  0  0
   24.6055   76.3581    6.7392 H   0  0  0  0  0  0  0  0  0  0  0  0
   19.6128   70.0367   -0.4874 O   0  0  0  0  0  0  0  0  0  0  0  0
   18.3665   70.8413   -1.1302 P   0  0  2  0  0  0  0  0  0  0  0  0
   18.2483   72.1531   -0.1893 O   0  0  0  0  0  0  0  0  0  0  0  0
   17.1023   70.0381   -1.2332 O   0  0  0  0  0  0  0  0  0  0  0  0
   18.9220   71.3990   -2.5384 O   0  0  0  0  0  0  0  0  0  0  0  0
   18.4158   69.7233   -4.1337 O   0  0  0  0  0  0  0  0  0  0  0  0
   20.0831   72.6663   -6.5059 O   0  0  0  0  0  0  0  0  0  0  0  0
   21.2609   72.0090   -3.9145 O   0  0  0  0  0  0  0  0  0  0  0  0
   17.2053   72.2548   -6.4977 O   0  0  0  0  0  0  0  0  0  0  0  0
   19.3468   72.1464   -5.3989 C   0  0  2  0  0  0  0  0  0  0  0  0
   20.2518   71.2423   -4.5615 C   0  0  2  0  0  0  0  0  0  0  0  0
   18.1625   71.3497   -5.9509 C   0  0  1  0  0  0  0  0  0  0  0  0
   19.4443   70.4883   -3.5040 C   0  0  1  0  0  0  0  0  0  0  0  0
   17.4867   70.5267   -4.8579 C   0  0  1  0  0  0  0  0  0  0  0  0
   20.8409   73.1765   -6.1793 H   0  0  0  0  0  0  0  0  0  0  0  0
   21.7769   72.4903   -4.5796 H   0  0  0  0  0  0  0  0  0  0  0  0
   17.6228   72.7848   -7.1946 H   0  0  0  0  0  0  0  0  0  0  0  0
   16.3463   68.4955   -4.5841 O   0  0  0  0  0  0  0  0  0  0  0  0
   16.0582   69.5915   -6.5627 O   0  0  0  0  0  0  0  0  0  0  0  0
   16.5603   69.5159   -5.4513 C   0  0  0  0  0  0  0  0  0  0  0  0
  1  4  1  0
  1 24  1  0
  1  2  1  1
  1  3  2  0
 25 28  1  0
 25 24  1  0
 25 26  1  1
 25 27  2  0
  6 11  1  0
  6 12  1  0
 29 36  1  0
 29 37  1  0
  9  7  1  6
  7 13  1  0
 10  8  1  1
  8 14  1  0
  4  5  1  0
 36 28  1  1
 33 30  1  6
 30 38  1  0
 34 31  1  1
 31 39  1  0
 35 32  1  1
 32 40  1  0
 41 43  1  0
 15 19  2  0
 42 43  2  0
 16 22  2  0
 12 17  1  1
 17 19  1  0
 17 20  1  0
 18 19  1  0
 18 22  1  0
 18 23  1  0
  9 10  1  0
  9 11  1  0
 10 12  1  0
 11  5  1  1
 33 34  1  0
 33 35  1  0
 34 36  1  0
 35 37  1  0
 37 43  1  6
 20 21  2  0
 21 22  1  0
M  CHG  3   2  -1  26  -1  41  -1
M  END
>  <COMPND>  (47) 
    udp_gluA.pdb 

>  <AUTHOR>  (47) 
    GENERATED BY OPEN BABEL 3.1.1

>  <MASTER>  (47) 
        0    0    0    0    0    0    0    0   56    0   56    0

>  <minimizedAffinity>  (47) 
-7.67855

>  <CNNscore>  (47) 
0.4678520262

>  <CNNaffinity>  (47) 
4.1173443794

>  <CNN_VS>  (47) 
1.9263079166

>  <CNNaffinity_variance>  (47) 
0.0921319276

$$$$
48
     RDKit          3D

 43 45  0  0  0  0  0  0  0  0999 V2000
   19.1329   70.8528   -2.4385 P   0  0  2  0  0  0  0  0  0  0  0  0
   18.6249   69.9891   -1.1677 O   0  0  0  0  0  0  0  0  0  0  0  0
   20.0692   70.1303   -3.3621 O   0  0  0  0  0  0  0  0  0  0  0  0
   19.7079   72.2136   -1.7785 O   0  0  0  0  0  0  0  0  0  0  0  0
   20.6149   72.1094   -0.6964 C   0  0  0  0  0  0  0  0  0  0  0  0
   20.2997   71.5153    1.6113 O   0  0  0  0  0  0  0  0  0  0  0  0
   19.1690   74.2689    1.9727 O   0  0  0  0  0  0  0  0  0  0  0  0
   21.7009   74.5314    2.9506 O   0  0  0  0  0  0  0  0  0  0  0  0
   20.2409   73.8349    1.1353 C   0  0  1  0  0  0  0  0  0  0  0  0
   21.4714   73.5435    1.9678 C   0  0  2  0  0  0  0  0  0  0  0  0
   19.8870   72.4557    0.5961 C   0  0  1  0  0  0  0  0  0  0  0  0
   21.1329   72.1894    2.5677 C   0  0  2  0  0  0  0  0  0  0  0  0
   19.3723   75.1482    2.3291 H   0  0  0  0  0  0  0  0  0  0  0  0
   21.9126   75.3743    2.5184 H   0  0  0  0  0  0  0  0  0  0  0  0
   22.6767   72.3085    4.9297 O   0  0  0  0  0  0  0  0  0  0  0  0
   25.5934   69.0826    3.4033 O   0  0  0  0  0  0  0  0  0  0  0  0
   22.3008   71.3917    2.8138 N   0  0  0  0  0  0  0  0  0  0  0  0
   24.1285   70.7024    4.1668 N   0  0  0  0  0  0  0  0  0  0  0  0
   23.0047   71.5285    4.0336 C   0  0  0  0  0  0  0  0  0  0  0  0
   22.7366   70.4857    1.8547 C   0  0  0  0  0  0  0  0  0  0  0  0
   23.8096   69.7050    1.9960 C   0  0  0  0  0  0  0  0  0  0  0  0
   24.6015   69.7867    3.2408 C   0  0  0  0  0  0  0  0  0  0  0  0
   24.6360   70.7813    5.0068 H   0  0  0  0  0  0  0  0  0  0  0  0
   17.7513   71.3369   -3.1238 O   0  0  0  0  0  0  0  0  0  0  0  0
   16.8351   70.6503   -4.2652 P   0  0  2  0  0  0  0  0  0  0  0  0
   15.6891   71.7608   -4.5372 O   0  0  0  0  0  0  0  0  0  0  0  0
   16.3069   69.2939   -3.8976 O   0  0  0  0  0  0  0  0  0  0  0  0
   17.7495   70.6751   -5.5940 O   0  0  0  0  0  0  0  0  0  0  0  0
   19.1702   72.4866   -6.1502 O   0  0  0  0  0  0  0  0  0  0  0  0
   18.6143   70.6933   -9.8304 O   0  0  0  0  0  0  0  0  0  0  0  0
   16.3717   71.0152   -7.9860 O   0  0  0  0  0  0  0  0  0  0  0  0
   21.1213   70.3439   -8.4007 O   0  0  0  0  0  0  0  0  0  0  0  0
   18.7446   70.7393   -8.4095 C   0  0  2  0  0  0  0  0  0  0  0  0
   17.6462   71.6266   -7.8233 C   0  0  2  0  0  0  0  0  0  0  0  0
   20.1246   71.3124   -8.0794 C   0  0  1  0  0  0  0  0  0  0  0  0
   17.8880   71.8857   -6.3356 C   0  0  1  0  0  0  0  0  0  0  0  0
   20.2432   71.6616   -6.5987 C   0  0  1  0  0  0  0  0  0  0  0  0
   17.7446   70.3323  -10.0640 H   0  0  0  0  0  0  0  0  0  0  0  0
   16.2118   70.8477   -8.9277 H   0  0  0  0  0  0  0  0  0  0  0  0
   21.0565   70.1129   -9.3405 H   0  0  0  0  0  0  0  0  0  0  0  0
   21.5352   72.8413   -5.0365 O   0  0  0  0  0  0  0  0  0  0  0  0
   22.2470   72.8623   -7.2026 O   0  0  0  0  0  0  0  0  0  0  0  0
   21.4466   72.5111   -6.3488 C   0  0  0  0  0  0  0  0  0  0  0  0
  1  4  1  0
  1 24  1  0
  1  2  1  1
  1  3  2  0
 25 28  1  0
 25 24  1  0
 25 26  1  6
 25 27  2  0
  6 11  1  0
  6 12  1  0
 29 36  1  0
 29 37  1  0
  9  7  1  1
  7 13  1  0
 10  8  1  1
  8 14  1  0
  4  5  1  0
 36 28  1  1
 33 30  1  6
 30 38  1  0
 34 31  1  1
 31 39  1  0
 35 32  1  1
 32 40  1  0
 41 43  1  0
 15 19  2  0
 42 43  2  0
 16 22  2  0
 12 17  1  6
 17 19  1  0
 17 20  1  0
 18 19  1  0
 18 22  1  0
 18 23  1  0
  9 10  1  0
  9 11  1  0
 10 12  1  0
 11  5  1  6
 33 34  1  0
 33 35  1  0
 34 36  1  0
 35 37  1  0
 37 43  1  6
 20 21  2  0
 21 22  1  0
M  CHG  3   2  -1  26  -1  41  -1
M  END
>  <COMPND>  (48) 
    udp_gluA.pdb 

>  <AUTHOR>  (48) 
    GENERATED BY OPEN BABEL 3.1.1

>  <MASTER>  (48) 
        0    0    0    0    0    0    0    0   56    0   56    0

>  <minimizedAffinity>  (48) 
-7.78160

>  <CNNscore>  (48) 
0.3947404623

>  <CNNaffinity>  (48) 
4.1674280167

>  <CNN_VS>  (48) 
1.6450524330

>  <CNNaffinity_variance>  (48) 
0.0639482960

$$$$
49
     RDKit          3D

 43 45  0  0  0  0  0  0  0  0999 V2000
   19.7543   73.3191   -1.3675 P   0  0  2  0  0  0  0  0  0  0  0  0
   19.7203   74.8479   -1.8972 O   0  0  0  0  0  0  0  0  0  0  0  0
   20.9284   72.5116   -1.8378 O   0  0  0  0  0  0  0  0  0  0  0  0
   18.2975   72.7378   -1.7647 O   0  0  0  0  0  0  0  0  0  0  0  0
   17.6172   73.3128   -2.8652 C   0  0  0  0  0  0  0  0  0  0  0  0
   17.4852   72.2929   -5.0377 O   0  0  0  0  0  0  0  0  0  0  0  0
   16.3217   69.9075   -3.6422 O   0  0  0  0  0  0  0  0  0  0  0  0
   18.9119   69.1566   -4.0466 O   0  0  0  0  0  0  0  0  0  0  0  0
   17.3391   70.8062   -3.1995 C   0  0  1  0  0  0  0  0  0  0  0  0
   18.6335   70.5369   -3.9372 C   0  0  2  0  0  0  0  0  0  0  0  0
   16.9781   72.2021   -3.6887 C   0  0  1  0  0  0  0  0  0  0  0  0
   18.3706   71.1889   -5.2839 C   0  0  2  0  0  0  0  0  0  0  0  0
   16.5306   69.0088   -3.3416 H   0  0  0  0  0  0  0  0  0  0  0  0
   19.0722   68.7881   -3.1631 H   0  0  0  0  0  0  0  0  0  0  0  0
   19.0488   70.7997   -7.9978 O   0  0  0  0  0  0  0  0  0  0  0  0
   23.0026   73.1223   -7.5321 O   0  0  0  0  0  0  0  0  0  0  0  0
   19.5712   71.6812   -5.8981 N   0  0  0  0  0  0  0  0  0  0  0  0
   21.0179   71.9560   -7.7630 N   0  0  0  0  0  0  0  0  0  0  0  0
   19.8167   71.4306   -7.2689 C   0  0  0  0  0  0  0  0  0  0  0  0
   20.4889   72.4042   -5.1458 C   0  0  0  0  0  0  0  0  0  0  0  0
   21.6295   72.8987   -5.6308 C   0  0  0  0  0  0  0  0  0  0  0  0
   21.9622   72.6806   -7.0539 C   0  0  0  0  0  0  0  0  0  0  0  0
   21.2117   71.7926   -8.7143 H   0  0  0  0  0  0  0  0  0  0  0  0
   19.6528   73.4886    0.2368 O   0  0  0  0  0  0  0  0  0  0  0  0
   19.1972   72.4482    1.3873 P   0  0  2  0  0  0  0  0  0  0  0  0
   18.9227   71.0823    0.5632 O   0  0  0  0  0  0  0  0  0  0  0  0
   18.0350   72.9154    2.2149 O   0  0  0  0  0  0  0  0  0  0  0  0
   20.5420   72.1531    2.2281 O   0  0  0  0  0  0  0  0  0  0  0  0
   22.6355   73.2082    2.5649 O   0  0  0  0  0  0  0  0  0  0  0  0
   23.7550   69.2655    2.0454 O   0  0  0  0  0  0  0  0  0  0  0  0
   21.6946   70.4554    0.3505 O   0  0  0  0  0  0  0  0  0  0  0  0
   23.7528   70.4437    4.7030 O   0  0  0  0  0  0  0  0  0  0  0  0
   22.9013   70.3350    2.4518 C   0  0  2  0  0  0  0  0  0  0  0  0
   22.5342   71.1868    1.2364 C   0  0  2  0  0  0  0  0  0  0  0  0
   23.6559   71.1768    3.4833 C   0  0  1  0  0  0  0  0  0  0  0  0
   21.8136   72.4666    1.6627 C   0  0  1  0  0  0  0  0  0  0  0  0
   22.9367   72.4936    3.7614 C   0  0  1  0  0  0  0  0  0  0  0  0
   23.2966   68.7168    1.3897 H   0  0  0  0  0  0  0  0  0  0  0  0
   22.1455   69.6419    0.0761 H   0  0  0  0  0  0  0  0  0  0  0  0
   24.2085   69.6032    4.5398 H   0  0  0  0  0  0  0  0  0  0  0  0
   23.5646   73.4007    5.8312 O   0  0  0  0  0  0  0  0  0  0  0  0
   24.6780   74.1483    3.9872 O   0  0  0  0  0  0  0  0  0  0  0  0
   23.8269   73.4382    4.5013 C   0  0  0  0  0  0  0  0  0  0  0  0
  1  4  1  0
  1 24  1  0
  1  2  1  6
  1  3  2  0
 25 28  1  0
 25 24  1  0
 25 26  1  6
 25 27  2  0
  6 11  1  0
  6 12  1  0
 29 36  1  0
 29 37  1  0
  9  7  1  6
  7 13  1  0
 10  8  1  6
  8 14  1  0
  4  5  1  0
 36 28  1  1
 33 30  1  6
 30 38  1  0
 34 31  1  6
 31 39  1  0
 35 32  1  1
 32 40  1  0
 41 43  1  0
 15 19  2  0
 42 43  2  0
 16 22  2  0
 12 17  1  1
 17 19  1  0
 17 20  1  0
 18 19  1  0
 18 22  1  0
 18 23  1  0
  9 10  1  0
  9 11  1  0
 10 12  1  0
 11  5  1  1
 33 34  1  0
 33 35  1  0
 34 36  1  0
 35 37  1  0
 37 43  1  1
 20 21  2  0
 21 22  1  0
M  CHG  3   2  -1  26  -1  41  -1
M  END
>  <COMPND>  (49) 
    udp_gluA.pdb 

>  <AUTHOR>  (49) 
    GENERATED BY OPEN BABEL 3.1.1

>  <MASTER>  (49) 
        0    0    0    0    0    0    0    0   56    0   56    0

>  <minimizedAffinity>  (49) 
-6.76777

>  <CNNscore>  (49) 
0.3622982800

>  <CNNaffinity>  (49) 
4.0927433968

>  <CNN_VS>  (49) 
1.4827939272

>  <CNNaffinity_variance>  (49) 
0.0676742047

$$$$
50
     RDKit          3D

 43 45  0  0  0  0  0  0  0  0999 V2000
   21.1852   70.8716   -0.9036 P   0  0  2  0  0  0  0  0  0  0  0  0
   20.1574   69.9925   -0.0151 O   0  0  0  0  0  0  0  0  0  0  0  0
   22.4662   70.1774   -1.2625 O   0  0  0  0  0  0  0  0  0  0  0  0
   21.3423   72.2480   -0.0676 O   0  0  0  0  0  0  0  0  0  0  0  0
   21.4884   72.1721    1.3385 C   0  0  0  0  0  0  0  0  0  0  0  0
   23.4734   72.9324    2.4608 O   0  0  0  0  0  0  0  0  0  0  0  0
   24.4189   70.0904    2.3169 O   0  0  0  0  0  0  0  0  0  0  0  0
   23.5411   70.2967    4.8904 O   0  0  0  0  0  0  0  0  0  0  0  0
   23.0982   70.5943    2.5181 C   0  0  1  0  0  0  0  0  0  0  0  0
   22.9544   71.1414    3.9225 C   0  0  2  0  0  0  0  0  0  0  0  0
   22.9396   71.8486    1.6697 C   0  0  1  0  0  0  0  0  0  0  0  0
   23.6594   72.4825    3.8123 C   0  0  2  0  0  0  0  0  0  0  0  0
   24.5440   69.2886    2.8490 H   0  0  0  0  0  0  0  0  0  0  0  0
   23.0565   69.4564    4.9225 H   0  0  0  0  0  0  0  0  0  0  0  0
   25.2114   74.2916    5.3271 O   0  0  0  0  0  0  0  0  0  0  0  0
   21.4682   76.1994    7.2227 O   0  0  0  0  0  0  0  0  0  0  0  0
   23.1162   73.4626    4.7096 N   0  0  0  0  0  0  0  0  0  0  0  0
   23.3456   75.2394    6.2705 N   0  0  0  0  0  0  0  0  0  0  0  0
   23.9831   74.3233    5.4235 C   0  0  0  0  0  0  0  0  0  0  0  0
   21.7402   73.5652    4.8741 C   0  0  0  0  0  0  0  0  0  0  0  0
   21.1473   74.4435    5.6851 C   0  0  0  0  0  0  0  0  0  0  0  0
   21.9814   75.3788    6.4679 C   0  0  0  0  0  0  0  0  0  0  0  0
   23.9286   75.8479    6.7797 H   0  0  0  0  0  0  0  0  0  0  0  0
   20.2827   71.3159   -2.1689 O   0  0  0  0  0  0  0  0  0  0  0  0
   19.0468   72.3522   -2.2794 P   0  0  2  0  0  0  0  0  0  0  0  0
   19.7798   73.7849   -2.4538 O   0  0  0  0  0  0  0  0  0  0  0  0
   18.0833   72.2864   -1.1300 O   0  0  0  0  0  0  0  0  0  0  0  0
   18.3895   72.0529   -3.7219 O   0  0  0  0  0  0  0  0  0  0  0  0
   16.6958   73.0880   -5.0138 O   0  0  0  0  0  0  0  0  0  0  0  0
   15.9423   69.0833   -5.6935 O   0  0  0  0  0  0  0  0  0  0  0  0
   16.6183   70.0288   -3.0134 O   0  0  0  0  0  0  0  0  0  0  0  0
   17.2299   70.6940   -7.7425 O   0  0  0  0  0  0  0  0  0  0  0  0
   16.7489   70.2307   -5.4276 C   0  0  2  0  0  0  0  0  0  0  0  0
   16.3052   70.8748   -4.1138 C   0  0  2  0  0  0  0  0  0  0  0  0
   16.5719   71.2124   -6.5881 C   0  0  1  0  0  0  0  0  0  0  0  0
   16.9866   72.2288   -3.9109 C   0  0  1  0  0  0  0  0  0  0  0  0
   17.1684   72.5778   -6.2586 C   0  0  1  0  0  0  0  0  0  0  0  0
   16.0385   68.4451   -4.9691 H   0  0  0  0  0  0  0  0  0  0  0  0
   16.1894   69.1678   -3.1357 H   0  0  0  0  0  0  0  0  0  0  0  0
   16.8597   69.8250   -7.9628 H   0  0  0  0  0  0  0  0  0  0  0  0
   15.5614   73.2148   -7.8439 O   0  0  0  0  0  0  0  0  0  0  0  0
   17.2830   74.6620   -7.4687 O   0  0  0  0  0  0  0  0  0  0  0  0
   16.7098   73.6076   -7.2391 C   0  0  0  0  0  0  0  0  0  0  0  0
  1  4  1  0
  1 24  1  0
  1  2  1  1
  1  3  2  0
 25 28  1  0
 25 24  1  0
 25 26  1  6
 25 27  2  0
  6 11  1  0
  6 12  1  0
 29 36  1  0
 29 37  1  0
  9  7  1  1
  7 13  1  0
 10  8  1  1
  8 14  1  0
  4  5  1  0
 36 28  1  6
 33 30  1  6
 30 38  1  0
 34 31  1  1
 31 39  1  0
 35 32  1  6
 32 40  1  0
 41 43  1  0
 15 19  2  0
 42 43  2  0
 16 22  2  0
 12 17  1  1
 17 19  1  0
 17 20  1  0
 18 19  1  0
 18 22  1  0
 18 23  1  0
  9 10  1  0
  9 11  1  0
 10 12  1  0
 11  5  1  1
 33 34  1  0
 33 35  1  0
 34 36  1  0
 35 37  1  0
 37 43  1  6
 20 21  2  0
 21 22  1  0
M  CHG  3   2  -1  26  -1  41  -1
M  END
>  <COMPND>  (50) 
    udp_gluA.pdb 

>  <AUTHOR>  (50) 
    GENERATED BY OPEN BABEL 3.1.1

>  <MASTER>  (50) 
        0    0    0    0    0    0    0    0   56    0   56    0

>  <minimizedAffinity>  (50) 
-7.15581

>  <CNNscore>  (50) 
0.3558197916

>  <CNNaffinity>  (50) 
3.8011040688

>  <CNN_VS>  (50) 
1.3525080681

>  <CNNaffinity_variance>  (50) 
0.2056673318

$$$$
51
     RDKit          3D

 43 45  0  0  0  0  0  0  0  0999 V2000
   16.4098   74.1905   -1.8413 P   0  0  2  0  0  0  0  0  0  0  0  0
   14.8272   74.1228   -1.5104 O   0  0  0  0  0  0  0  0  0  0  0  0
   17.2308   74.9670   -0.8539 O   0  0  0  0  0  0  0  0  0  0  0  0
   16.4650   74.7181   -3.3699 O   0  0  0  0  0  0  0  0  0  0  0  0
   15.9766   73.8725   -4.3950 C   0  0  0  0  0  0  0  0  0  0  0  0
   17.9382   72.7523   -5.2164 O   0  0  0  0  0  0  0  0  0  0  0  0
   17.2742   73.9448   -7.8863 O   0  0  0  0  0  0  0  0  0  0  0  0
   16.3711   71.3840   -8.1364 O   0  0  0  0  0  0  0  0  0  0  0  0
   16.3967   73.4595   -6.8700 C   0  0  1  0  0  0  0  0  0  0  0  0
   16.4142   71.9459   -6.8414 C   0  0  2  0  0  0  0  0  0  0  0  0
   17.0035   73.8108   -5.5184 C   0  0  1  0  0  0  0  0  0  0  0  0
   17.7215   71.6591   -6.1227 C   0  0  2  0  0  0  0  0  0  0  0  0
   16.9075   73.7321   -8.7592 H   0  0  0  0  0  0  0  0  0  0  0  0
   15.5196   71.5942   -8.5518 H   0  0  0  0  0  0  0  0  0  0  0  0
   19.8056   70.7342   -4.4561 O   0  0  0  0  0  0  0  0  0  0  0  0
   17.4480   66.9455   -3.3022 O   0  0  0  0  0  0  0  0  0  0  0  0
   17.6787   70.4343   -5.3751 N   0  0  0  0  0  0  0  0  0  0  0  0
   18.6298   68.8476   -3.8838 N   0  0  0  0  0  0  0  0  0  0  0  0
   18.7792   70.0612   -4.5677 C   0  0  0  0  0  0  0  0  0  0  0  0
   16.5560   69.6184   -5.4443 C   0  0  0  0  0  0  0  0  0  0  0  0
   16.4281   68.4644   -4.7865 C   0  0  0  0  0  0  0  0  0  0  0  0
   17.5332   68.0017   -3.9215 C   0  0  0  0  0  0  0  0  0  0  0  0
   19.3838   68.5658   -3.3169 H   0  0  0  0  0  0  0  0  0  0  0  0
   16.8187   72.6328   -1.9796 O   0  0  0  0  0  0  0  0  0  0  0  0
   17.4078   71.5896   -0.8940 P   0  0  2  0  0  0  0  0  0  0  0  0
   17.0720   70.1471   -1.5472 O   0  0  0  0  0  0  0  0  0  0  0  0
   16.8722   71.7790    0.4957 O   0  0  0  0  0  0  0  0  0  0  0  0
   19.0100   71.7302   -1.0190 O   0  0  0  0  0  0  0  0  0  0  0  0
   20.8443   70.2501   -1.2514 O   0  0  0  0  0  0  0  0  0  0  0  0
   22.2834   72.9416    1.5331 O   0  0  0  0  0  0  0  0  0  0  0  0
   19.5363   71.9622    1.7023 O   0  0  0  0  0  0  0  0  0  0  0  0
   23.1970   73.0655   -1.2239 O   0  0  0  0  0  0  0  0  0  0  0  0
   21.5129   72.5160    0.4091 C   0  0  2  0  0  0  0  0  0  0  0  0
   20.5347   71.4241    0.8432 C   0  0  2  0  0  0  0  0  0  0  0  0
   22.4780   71.9761   -0.6487 C   0  0  1  0  0  0  0  0  0  0  0  0
   19.8565   70.7838   -0.3689 C   0  0  1  0  0  0  0  0  0  0  0  0
   21.7329   71.2425   -1.7601 C   0  0  1  0  0  0  0  0  0  0  0  0
   21.6910   73.2886    2.2186 H   0  0  0  0  0  0  0  0  0  0  0  0
   19.9596   72.3703    2.4734 H   0  0  0  0  0  0  0  0  0  0  0  0
   23.6757   73.5409   -0.5270 H   0  0  0  0  0  0  0  0  0  0  0  0
   23.3075   71.2435   -3.4985 O   0  0  0  0  0  0  0  0  0  0  0  0
   22.8705   69.2447   -2.4921 O   0  0  0  0  0  0  0  0  0  0  0  0
   22.6799   70.4469   -2.5982 C   0  0  0  0  0  0  0  0  0  0  0  0
  1  4  1  0
  1 24  1  0
  1  2  1  1
  1  3  2  0
 25 28  1  0
 25 24  1  0
 25 26  1  6
 25 27  2  0
  6 11  1  0
  6 12  1  0
 29 36  1  0
 29 37  1  0
  9  7  1  6
  7 13  1  0
 10  8  1  6
  8 14  1  0
  4  5  1  0
 36 28  1  6
 33 30  1  1
 30 38  1  0
 34 31  1  1
 31 39  1  0
 35 32  1  6
 32 40  1  0
 41 43  1  0
 15 19  2  0
 42 43  2  0
 16 22  2  0
 12 17  1  1
 17 19  1  0
 17 20  1  0
 18 19  1  0
 18 22  1  0
 18 23  1  0
  9 10  1  0
  9 11  1  0
 10 12  1  0
 11  5  1  1
 33 34  1  0
 33 35  1  0
 34 36  1  0
 35 37  1  0
 37 43  1  6
 20 21  2  0
 21 22  1  0
M  CHG  3   2  -1  26  -1  41  -1
M  END
>  <COMPND>  (51) 
    udp_gluA.pdb 

>  <AUTHOR>  (51) 
    GENERATED BY OPEN BABEL 3.1.1

>  <MASTER>  (51) 
        0    0    0    0    0    0    0    0   56    0   56    0

>  <minimizedAffinity>  (51) 
-6.54093

>  <CNNscore>  (51) 
0.3508018851

>  <CNNaffinity>  (51) 
4.0136356354

>  <CNN_VS>  (51) 
1.4079909325

>  <CNNaffinity_variance>  (51) 
0.6137815714

$$$$
52
     RDKit          3D

 43 45  0  0  0  0  0  0  0  0999 V2000
   22.7451   72.8076   -3.2527 P   0  0  2  0  0  0  0  0  0  0  0  0
   23.5670   71.4927   -3.7156 O   0  0  0  0  0  0  0  0  0  0  0  0
   23.5354   74.0831   -3.2576 O   0  0  0  0  0  0  0  0  0  0  0  0
   22.1041   72.3838   -1.8288 O   0  0  0  0  0  0  0  0  0  0  0  0
   22.9743   71.9656   -0.7932 C   0  0  0  0  0  0  0  0  0  0  0  0
   23.0573   70.5960    1.1804 O   0  0  0  0  0  0  0  0  0  0  0  0
   20.2618   69.7585    0.4911 O   0  0  0  0  0  0  0  0  0  0  0  0
   19.8625   71.6100    2.4528 O   0  0  0  0  0  0  0  0  0  0  0  0
   20.8906   71.0298    0.3271 C   0  0  1  0  0  0  0  0  0  0  0  0
   21.0302   71.7221    1.6663 C   0  0  2  0  0  0  0  0  0  0  0  0
   22.3433   70.7889   -0.0599 C   0  0  1  0  0  0  0  0  0  0  0  0
   22.2172   70.9951    2.2750 C   0  0  2  0  0  0  0  0  0  0  0  0
   19.3323   69.8866    0.7386 H   0  0  0  0  0  0  0  0  0  0  0  0
   19.1361   72.0893    2.0232 H   0  0  0  0  0  0  0  0  0  0  0  0
   23.3728   70.1117    4.6959 O   0  0  0  0  0  0  0  0  0  0  0  0
   25.0999   74.2867    5.6071 O   0  0  0  0  0  0  0  0  0  0  0  0
   22.9740   71.8302    3.1641 N   0  0  0  0  0  0  0  0  0  0  0  0
   24.2310   72.1922    5.1479 N   0  0  0  0  0  0  0  0  0  0  0  0
   23.5116   71.2880    4.3554 C   0  0  0  0  0  0  0  0  0  0  0  0
   23.1786   73.1689    2.8525 C   0  0  0  0  0  0  0  0  0  0  0  0
   23.8667   74.0184    3.6178 C   0  0  0  0  0  0  0  0  0  0  0  0
   24.4607   73.5320    4.8803 C   0  0  0  0  0  0  0  0  0  0  0  0
   24.6131   71.8383    5.9834 H   0  0  0  0  0  0  0  0  0  0  0  0
   21.4669   72.8036   -4.2422 O   0  0  0  0  0  0  0  0  0  0  0  0
   21.2168   73.5465   -5.6561 P   0  0  2  0  0  0  0  0  0  0  0  0
   22.5368   73.1660   -6.5123 O   0  0  0  0  0  0  0  0  0  0  0  0
   20.9589   75.0209   -5.5398 O   0  0  0  0  0  0  0  0  0  0  0  0
   20.0252   72.7112   -6.3522 O   0  0  0  0  0  0  0  0  0  0  0  0
   19.0330   70.6949   -5.6042 O   0  0  0  0  0  0  0  0  0  0  0  0
   18.5428   70.4056   -9.6962 O   0  0  0  0  0  0  0  0  0  0  0  0
   21.0540   71.3870   -8.5713 O   0  0  0  0  0  0  0  0  0  0  0  0
   16.2826   71.0888   -8.0005 O   0  0  0  0  0  0  0  0  0  0  0  0
   18.6513   71.0768   -8.4409 C   0  0  2  0  0  0  0  0  0  0  0  0
   20.0140   70.7765   -7.8161 C   0  0  2  0  0  0  0  0  0  0  0  0
   17.5269   70.5700   -7.5349 C   0  0  1  0  0  0  0  0  0  0  0  0
   20.0795   71.2860   -6.3756 C   0  0  1  0  0  0  0  0  0  0  0  0
   17.7316   71.0165   -6.0902 C   0  0  1  0  0  0  0  0  0  0  0  0
   19.2475   70.7117  -10.2887 H   0  0  0  0  0  0  0  0  0  0  0  0
   21.0182   71.0685   -9.4865 H   0  0  0  0  0  0  0  0  0  0  0  0
   16.1402   70.8120   -8.9192 H   0  0  0  0  0  0  0  0  0  0  0  0
   16.2689   69.2046   -5.8088 O   0  0  0  0  0  0  0  0  0  0  0  0
   16.6296   70.5413   -3.9971 O   0  0  0  0  0  0  0  0  0  0  0  0
   16.8326   70.2587   -5.1683 C   0  0  0  0  0  0  0  0  0  0  0  0
  1  4  1  0
  1 24  1  0
  1  2  1  6
  1  3  2  0
 25 28  1  0
 25 24  1  0
 25 26  1  6
 25 27  2  0
  6 11  1  0
  6 12  1  0
 29 36  1  0
 29 37  1  0
  9  7  1  1
  7 13  1  0
 10  8  1  1
  8 14  1  0
  4  5  1  0
 36 28  1  6
 33 30  1  6
 30 38  1  0
 34 31  1  6
 31 39  1  0
 35 32  1  6
 32 40  1  0
 41 43  1  0
 15 19  2  0
 42 43  2  0
 16 22  2  0
 12 17  1  1
 17 19  1  0
 17 20  1  0
 18 19  1  0
 18 22  1  0
 18 23  1  0
  9 10  1  0
  9 11  1  0
 10 12  1  0
 11  5  1  1
 33 34  1  0
 33 35  1  0
 34 36  1  0
 35 37  1  0
 37 43  1  1
 20 21  2  0
 21 22  1  0
M  CHG  3   2  -1  26  -1  41  -1
M  END
>  <COMPND>  (52) 
    udp_gluA.pdb 

>  <AUTHOR>  (52) 
    GENERATED BY OPEN BABEL 3.1.1

>  <MASTER>  (52) 
        0    0    0    0    0    0    0    0   56    0   56    0

>  <minimizedAffinity>  (52) 
-8.87910

>  <CNNscore>  (52) 
0.3499228358

>  <CNNaffinity>  (52) 
3.9680213928

>  <CNN_VS>  (52) 
1.3885012865

>  <CNNaffinity_variance>  (52) 
0.1352426559

$$$$
53
     RDKit          3D

 43 45  0  0  0  0  0  0  0  0999 V2000
   22.6125   72.9378   -2.8710 P   0  0  2  0  0  0  0  0  0  0  0  0
   23.0468   71.4402   -3.3041 O   0  0  0  0  0  0  0  0  0  0  0  0
   23.3422   74.0396   -3.5820 O   0  0  0  0  0  0  0  0  0  0  0  0
   22.7489   72.9310   -1.2588 O   0  0  0  0  0  0  0  0  0  0  0  0
   23.0045   74.1560   -0.5967 C   0  0  0  0  0  0  0  0  0  0  0  0
   21.5417   73.2148    1.0622 O   0  0  0  0  0  0  0  0  0  0  0  0
   21.0320   76.0350    1.9443 O   0  0  0  0  0  0  0  0  0  0  0  0
   22.8198   75.1440    3.8006 O   0  0  0  0  0  0  0  0  0  0  0  0
   22.2376   75.4440    1.4589 C   0  0  1  0  0  0  0  0  0  0  0  0
   22.8475   74.5514    2.5190 C   0  0  2  0  0  0  0  0  0  0  0  0
   21.8661   74.4422    0.3741 C   0  0  1  0  0  0  0  0  0  0  0  0
   21.9734   73.3121    2.4288 C   0  0  2  0  0  0  0  0  0  0  0  0
   21.2439   76.6789    2.6387 H   0  0  0  0  0  0  0  0  0  0  0  0
   23.3916   75.9282    3.8065 H   0  0  0  0  0  0  0  0  0  0  0  0
   22.6125   72.5565    5.0740 O   0  0  0  0  0  0  0  0  0  0  0  0
   24.6970   68.6959    3.6617 O   0  0  0  0  0  0  0  0  0  0  0  0
   22.6825   72.1146    2.7809 N   0  0  0  0  0  0  0  0  0  0  0  0
   23.6510   70.6349    4.3680 N   0  0  0  0  0  0  0  0  0  0  0  0
   22.9531   71.8282    4.1399 C   0  0  0  0  0  0  0  0  0  0  0  0
   23.1002   71.2382    1.7867 C   0  0  0  0  0  0  0  0  0  0  0  0
   23.7644   70.1045    2.0196 C   0  0  0  0  0  0  0  0  0  0  0  0
   24.0878   69.7318    3.4124 C   0  0  0  0  0  0  0  0  0  0  0  0
   23.8528   70.4152    5.3062 H   0  0  0  0  0  0  0  0  0  0  0  0
   21.0125   72.9323   -3.1004 O   0  0  0  0  0  0  0  0  0  0  0  0
   19.8276   72.1809   -2.2972 P   0  0  2  0  0  0  0  0  0  0  0  0
   18.9348   73.4042   -1.7255 O   0  0  0  0  0  0  0  0  0  0  0  0
   20.3077   71.2220   -1.2465 O   0  0  0  0  0  0  0  0  0  0  0  0
   18.9140   71.5124   -3.4465 O   0  0  0  0  0  0  0  0  0  0  0  0
   18.7940   69.2349   -4.0849 O   0  0  0  0  0  0  0  0  0  0  0  0
   17.8946   71.1511   -7.6328 O   0  0  0  0  0  0  0  0  0  0  0  0
   20.0337   72.1492   -5.9116 O   0  0  0  0  0  0  0  0  0  0  0  0
   15.7852   69.8902   -6.0799 O   0  0  0  0  0  0  0  0  0  0  0  0
   17.9290   70.9812   -6.2158 C   0  0  2  0  0  0  0  0  0  0  0  0
   19.3813   70.8955   -5.7458 C   0  0  2  0  0  0  0  0  0  0  0  0
   17.1825   69.6893   -5.8760 C   0  0  1  0  0  0  0  0  0  0  0  0
   19.4569   70.4855   -4.2744 C   0  0  1  0  0  0  0  0  0  0  0  0
   17.4097   69.2801   -4.4236 C   0  0  1  0  0  0  0  0  0  0  0  0
   18.3631   71.9661   -7.8725 H   0  0  0  0  0  0  0  0  0  0  0  0
   19.9893   72.4156   -6.8430 H   0  0  0  0  0  0  0  0  0  0  0  0
   15.6269   70.1513   -7.0006 H   0  0  0  0  0  0  0  0  0  0  0  0
   15.7930   67.6316   -4.8364 O   0  0  0  0  0  0  0  0  0  0  0  0
   17.5607   67.0482   -3.5196 O   0  0  0  0  0  0  0  0  0  0  0  0
   16.9616   67.8736   -4.1925 C   0  0  0  0  0  0  0  0  0  0  0  0
  1  4  1  0
  1 24  1  0
  1  2  1  6
  1  3  2  0
 25 28  1  0
 25 24  1  0
 25 26  1  1
 25 27  2  0
  6 11  1  0
  6 12  1  0
 29 36  1  0
 29 37  1  0
  9  7  1  1
  7 13  1  0
 10  8  1  1
  8 14  1  0
  4  5  1  0
 36 28  1  1
 33 30  1  6
 30 38  1  0
 34 31  1  1
 31 39  1  0
 35 32  1  1
 32 40  1  0
 41 43  1  0
 15 19  2  0
 42 43  2  0
 16 22  2  0
 12 17  1  6
 17 19  1  0
 17 20  1  0
 18 19  1  0
 18 22  1  0
 18 23  1  0
  9 10  1  0
  9 11  1  0
 10 12  1  0
 11  5  1  6
 33 34  1  0
 33 35  1  0
 34 36  1  0
 35 37  1  0
 37 43  1  6
 20 21  2  0
 21 22  1  0
M  CHG  3   2  -1  26  -1  41  -1
M  END
>  <COMPND>  (53) 
    udp_gluA.pdb 

>  <AUTHOR>  (53) 
    GENERATED BY OPEN BABEL 3.1.1

>  <MASTER>  (53) 
        0    0    0    0    0    0    0    0   56    0   56    0

>  <minimizedAffinity>  (53) 
-7.03316

>  <CNNscore>  (53) 
0.3317885399

>  <CNNaffinity>  (53) 
3.9103064537

>  <CNN_VS>  (53) 
1.2973948717

>  <CNNaffinity_variance>  (53) 
0.1355296820

$$$$
54
     RDKit          3D

 43 45  0  0  0  0  0  0  0  0999 V2000
   22.7552   70.0078   -2.4908 P   0  0  2  0  0  0  0  0  0  0  0  0
   23.8877   70.7745   -3.3559 O   0  0  0  0  0  0  0  0  0  0  0  0
   22.9593   68.5278   -2.3500 O   0  0  0  0  0  0  0  0  0  0  0  0
   21.3645   70.4626   -3.1815 O   0  0  0  0  0  0  0  0  0  0  0  0
   20.9475   71.8082   -3.0397 C   0  0  0  0  0  0  0  0  0  0  0  0
   20.1890   71.4423   -5.2910 O   0  0  0  0  0  0  0  0  0  0  0  0
   20.1858   74.4272   -5.5772 O   0  0  0  0  0  0  0  0  0  0  0  0
   17.5480   73.8643   -5.1755 O   0  0  0  0  0  0  0  0  0  0  0  0
   19.8540   73.6279   -4.4415 C   0  0  1  0  0  0  0  0  0  0  0  0
   18.5030   72.9734   -4.6379 C   0  0  2  0  0  0  0  0  0  0  0  0
   20.7900   72.4272   -4.4226 C   0  0  1  0  0  0  0  0  0  0  0  0
   18.8390   71.8347   -5.5857 C   0  0  2  0  0  0  0  0  0  0  0  0
   19.6009   75.2007   -5.6106 H   0  0  0  0  0  0  0  0  0  0  0  0
   17.3680   74.5706   -4.5347 H   0  0  0  0  0  0  0  0  0  0  0  0
   16.6656   71.2092   -7.2773 O   0  0  0  0  0  0  0  0  0  0  0  0
   15.5903   67.4644   -4.8148 O   0  0  0  0  0  0  0  0  0  0  0  0
   17.9745   70.7021   -5.4097 N   0  0  0  0  0  0  0  0  0  0  0  0
   16.1315   69.3453   -6.0486 N   0  0  0  0  0  0  0  0  0  0  0  0
   16.9112   70.4783   -6.3159 C   0  0  0  0  0  0  0  0  0  0  0  0
   18.1847   69.8271   -4.3509 C   0  0  0  0  0  0  0  0  0  0  0  0
   17.4331   68.7513   -4.1091 C   0  0  0  0  0  0  0  0  0  0  0  0
   16.3010   68.4461   -5.0083 C   0  0  0  0  0  0  0  0  0  0  0  0
   15.3839   69.1698   -6.6647 H   0  0  0  0  0  0  0  0  0  0  0  0
   22.7512   70.8227   -1.0948 O   0  0  0  0  0  0  0  0  0  0  0  0
   22.2020   70.4157    0.3702 P   0  0  2  0  0  0  0  0  0  0  0  0
   23.4091   69.5294    0.9846 O   0  0  0  0  0  0  0  0  0  0  0  0
   20.8701   69.7229    0.3580 O   0  0  0  0  0  0  0  0  0  0  0  0
   22.2343   71.7894    1.2156 O   0  0  0  0  0  0  0  0  0  0  0  0
   22.5541   71.3543    3.5216 O   0  0  0  0  0  0  0  0  0  0  0  0
   21.9944   75.4476    3.5080 O   0  0  0  0  0  0  0  0  0  0  0  0
   20.3317   73.7200    1.8390 O   0  0  0  0  0  0  0  0  0  0  0  0
   24.6599   74.3405    3.8546 O   0  0  0  0  0  0  0  0  0  0  0  0
   22.4180   74.1885    2.9853 C   0  0  2  0  0  0  0  0  0  0  0  0
   21.2129   73.2566    2.8556 C   0  0  2  0  0  0  0  0  0  0  0  0
   23.4465   73.5971    3.9519 C   0  0  1  0  0  0  0  0  0  0  0  0
   21.6564   71.8322    2.5190 C   0  0  1  0  0  0  0  0  0  0  0  0
   23.7421   72.1360    3.6254 C   0  0  1  0  0  0  0  0  0  0  0  0
   21.3402   75.8424    2.9102 H   0  0  0  0  0  0  0  0  0  0  0  0
   20.0465   74.6234    2.0460 H   0  0  0  0  0  0  0  0  0  0  0  0
   24.4856   75.2723    4.0599 H   0  0  0  0  0  0  0  0  0  0  0  0
   23.8179   70.3740    5.1717 O   0  0  0  0  0  0  0  0  0  0  0  0
   25.5315   71.8774    5.2231 O   0  0  0  0  0  0  0  0  0  0  0  0
   24.4782   71.4801    4.7480 C   0  0  0  0  0  0  0  0  0  0  0  0
  1  4  1  0
  1 24  1  0
  1  2  1  6
  1  3  2  0
 25 28  1  0
 25 24  1  0
 25 26  1  1
 25 27  2  0
  6 11  1  0
  6 12  1  0
 29 36  1  0
 29 37  1  0
  9  7  1  6
  7 13  1  0
 10  8  1  6
  8 14  1  0
  4  5  1  0
 36 28  1  6
 33 30  1  1
 30 38  1  0
 34 31  1  6
 31 39  1  0
 35 32  1  6
 32 40  1  0
 41 43  1  0
 15 19  2  0
 42 43  2  0
 16 22  2  0
 12 17  1  1
 17 19  1  0
 17 20  1  0
 18 19  1  0
 18 22  1  0
 18 23  1  0
  9 10  1  0
  9 11  1  0
 10 12  1  0
 11  5  1  1
 33 34  1  0
 33 35  1  0
 34 36  1  0
 35 37  1  0
 37 43  1  1
 20 21  2  0
 21 22  1  0
M  CHG  3   2  -1  26  -1  41  -1
M  END
>  <COMPND>  (54) 
    udp_gluA.pdb 

>  <AUTHOR>  (54) 
    GENERATED BY OPEN BABEL 3.1.1

>  <MASTER>  (54) 
        0    0    0    0    0    0    0    0   56    0   56    0

>  <minimizedAffinity>  (54) 
-8.04767

>  <CNNscore>  (54) 
0.3276427388

>  <CNNaffinity>  (54) 
4.0142464638

>  <CNN_VS>  (54) 
1.3152387142

>  <CNNaffinity_variance>  (54) 
0.0909081474

$$$$
55
     RDKit          3D

 43 45  0  0  0  0  0  0  0  0999 V2000
   19.0327   71.1235   -1.4352 P   0  0  2  0  0  0  0  0  0  0  0  0
   18.3805   69.6430   -1.4719 O   0  0  0  0  0  0  0  0  0  0  0  0
   18.4971   72.0254   -0.3621 O   0  0  0  0  0  0  0  0  0  0  0  0
   18.8647   71.6599   -2.9524 O   0  0  0  0  0  0  0  0  0  0  0  0
   18.7460   70.7104   -3.9959 C   0  0  0  0  0  0  0  0  0  0  0  0
   16.6919   71.8504   -4.5046 O   0  0  0  0  0  0  0  0  0  0  0  0
   15.7418   69.2419   -5.6381 O   0  0  0  0  0  0  0  0  0  0  0  0
   16.4385   70.6435   -7.8711 O   0  0  0  0  0  0  0  0  0  0  0  0
   17.0481   69.8175   -5.6670 C   0  0  1  0  0  0  0  0  0  0  0  0
   17.0966   70.9578   -6.6617 C   0  0  2  0  0  0  0  0  0  0  0  0
   17.2733   70.5382   -4.3448 C   0  0  1  0  0  0  0  0  0  0  0  0
   16.4090   72.0746   -5.8949 C   0  0  2  0  0  0  0  0  0  0  0  0
   15.5750   68.7758   -6.4727 H   0  0  0  0  0  0  0  0  0  0  0  0
   16.9146   69.9277   -8.3217 H   0  0  0  0  0  0  0  0  0  0  0  0
   15.4059   73.5937   -8.0543 O   0  0  0  0  0  0  0  0  0  0  0  0
   18.3455   77.0464   -7.2286 O   0  0  0  0  0  0  0  0  0  0  0  0
   16.8939   73.3737   -6.2665 N   0  0  0  0  0  0  0  0  0  0  0  0
   16.8717   75.3115   -7.6416 N   0  0  0  0  0  0  0  0  0  0  0  0
   16.3213   74.0523   -7.3682 C   0  0  0  0  0  0  0  0  0  0  0  0
   17.9234   73.9629   -5.5427 C   0  0  0  0  0  0  0  0  0  0  0  0
   18.4374   75.1638   -5.8152 C   0  0  0  0  0  0  0  0  0  0  0  0
   17.8960   75.9386   -6.9510 C   0  0  0  0  0  0  0  0  0  0  0  0
   16.4907   75.8022   -8.4054 H   0  0  0  0  0  0  0  0  0  0  0  0
   20.6169   70.8197   -1.3305 O   0  0  0  0  0  0  0  0  0  0  0  0
   21.5278   70.3534   -0.0790 P   0  0  2  0  0  0  0  0  0  0  0  0
   22.9840   70.1223   -0.7472 O   0  0  0  0  0  0  0  0  0  0  0  0
   20.9921   69.1633    0.6631 O   0  0  0  0  0  0  0  0  0  0  0  0
   21.6987   71.6818    0.8203 O   0  0  0  0  0  0  0  0  0  0  0  0
   22.0753   71.2148    3.1114 O   0  0  0  0  0  0  0  0  0  0  0  0
   21.5783   75.3158    3.1600 O   0  0  0  0  0  0  0  0  0  0  0  0
   19.8439   73.6333    1.5183 O   0  0  0  0  0  0  0  0  0  0  0  0
   24.2351   74.1648    3.4198 O   0  0  0  0  0  0  0  0  0  0  0  0
   21.9680   74.0568    2.6114 C   0  0  2  0  0  0  0  0  0  0  0  0
   20.7456   73.1447    2.5047 C   0  0  2  0  0  0  0  0  0  0  0  0
   23.0136   73.4386    3.5423 C   0  0  1  0  0  0  0  0  0  0  0  0
   21.1577   71.7179    2.1396 C   0  0  1  0  0  0  0  0  0  0  0  0
   23.2776   71.9772    3.1911 C   0  0  1  0  0  0  0  0  0  0  0  0
   20.9140   75.7275    2.5852 H   0  0  0  0  0  0  0  0  0  0  0  0
   19.5784   74.5384    1.7435 H   0  0  0  0  0  0  0  0  0  0  0  0
   24.0809   75.0966    3.6404 H   0  0  0  0  0  0  0  0  0  0  0  0
   24.1303   69.9659    4.0450 O   0  0  0  0  0  0  0  0  0  0  0  0
   24.5068   71.8559    5.2637 O   0  0  0  0  0  0  0  0  0  0  0  0
   24.0343   71.2971    4.2852 C   0  0  0  0  0  0  0  0  0  0  0  0
  1  4  1  0
  1 24  1  0
  1  2  1  6
  1  3  2  0
 25 28  1  0
 25 24  1  0
 25 26  1  6
 25 27  2  0
  6 11  1  0
  6 12  1  0
 29 36  1  0
 29 37  1  0
  9  7  1  1
  7 13  1  0
 10  8  1  6
  8 14  1  0
  4  5  1  0
 36 28  1  6
 33 30  1  1
 30 38  1  0
 34 31  1  6
 31 39  1  0
 35 32  1  6
 32 40  1  0
 41 43  1  0
 15 19  2  0
 42 43  2  0
 16 22  2  0
 12 17  1  6
 17 19  1  0
 17 20  1  0
 18 19  1  0
 18 22  1  0
 18 23  1  0
  9 10  1  0
  9 11  1  0
 10 12  1  0
 11  5  1  6
 33 34  1  0
 33 35  1  0
 34 36  1  0
 35 37  1  0
 37 43  1  1
 20 21  2  0
 21 22  1  0
M  CHG  3   2  -1  26  -1  41  -1
M  END
>  <COMPND>  (55) 
    udp_gluA.pdb 

>  <AUTHOR>  (55) 
    GENERATED BY OPEN BABEL 3.1.1

>  <MASTER>  (55) 
        0    0    0    0    0    0    0    0   56    0   56    0

>  <minimizedAffinity>  (55) 
-7.42264

>  <CNNscore>  (55) 
0.3004070222

>  <CNNaffinity>  (55) 
4.0104913712

>  <CNN_VS>  (55) 
1.2047797441

>  <CNNaffinity_variance>  (55) 
0.0332363658

$$$$
56
     RDKit          3D

 43 45  0  0  0  0  0  0  0  0999 V2000
   21.5013   71.8955   -3.7273 P   0  0  2  0  0  0  0  0  0  0  0  0
   22.4541   73.1047   -4.2261 O   0  0  0  0  0  0  0  0  0  0  0  0
   22.1409   70.5380   -3.7408 O   0  0  0  0  0  0  0  0  0  0  0  0
   20.1684   72.0531   -4.6308 O   0  0  0  0  0  0  0  0  0  0  0  0
   20.3119   72.1554   -6.0355 C   0  0  0  0  0  0  0  0  0  0  0  0
   18.6035   70.4958   -5.7120 O   0  0  0  0  0  0  0  0  0  0  0  0
   18.3445   70.4486   -8.6990 O   0  0  0  0  0  0  0  0  0  0  0  0
   16.2271   71.9910   -7.9416 O   0  0  0  0  0  0  0  0  0  0  0  0
   18.6159   71.5507   -7.8328 C   0  0  1  0  0  0  0  0  0  0  0  0
   17.3582   71.9607   -7.0965 C   0  0  2  0  0  0  0  0  0  0  0  0
   19.5002   71.0502   -6.6989 C   0  0  1  0  0  0  0  0  0  0  0  0
   17.2578   70.8900   -6.0233 C   0  0  2  0  0  0  0  0  0  0  0  0
   17.7808   70.7439   -9.4317 H   0  0  0  0  0  0  0  0  0  0  0  0
   16.3392   72.6886   -8.6070 H   0  0  0  0  0  0  0  0  0  0  0  0
   16.5040   69.2515   -3.8500 O   0  0  0  0  0  0  0  0  0  0  0  0
   14.8308   72.8393   -1.4893 O   0  0  0  0  0  0  0  0  0  0  0  0
   16.6235   71.3699   -4.8282 N   0  0  0  0  0  0  0  0  0  0  0  0
   15.6705   71.0398   -2.6767 N   0  0  0  0  0  0  0  0  0  0  0  0
   16.2856   70.4633   -3.7957 C   0  0  0  0  0  0  0  0  0  0  0  0
   16.3442   72.7237   -4.6869 C   0  0  0  0  0  0  0  0  0  0  0  0
   15.7575   73.2585   -3.6143 C   0  0  0  0  0  0  0  0  0  0  0  0
   15.3716   72.3799   -2.4906 C   0  0  0  0  0  0  0  0  0  0  0  0
   15.4240   70.4282   -1.9456 H   0  0  0  0  0  0  0  0  0  0  0  0
   21.0136   72.3955   -2.2696 O   0  0  0  0  0  0  0  0  0  0  0  0
   20.0646   71.6890   -1.1678 P   0  0  2  0  0  0  0  0  0  0  0  0
   19.4119   70.4509   -1.9811 O   0  0  0  0  0  0  0  0  0  0  0  0
   19.0621   72.6111   -0.5364 O   0  0  0  0  0  0  0  0  0  0  0  0
   21.0875   70.9993   -0.1284 O   0  0  0  0  0  0  0  0  0  0  0  0
   22.6624   72.6030    0.6181 O   0  0  0  0  0  0  0  0  0  0  0  0
   23.9847   69.1796    2.5155 O   0  0  0  0  0  0  0  0  0  0  0  0
   23.0981   69.0824   -0.2664 O   0  0  0  0  0  0  0  0  0  0  0  0
   22.5531   71.2182    4.0141 O   0  0  0  0  0  0  0  0  0  0  0  0
   23.0188   70.0658    1.9501 C   0  0  2  0  0  0  0  0  0  0  0  0
   23.3264   70.2797    0.4678 C   0  0  2  0  0  0  0  0  0  0  0  0
   23.0955   71.3939    2.7066 C   0  0  1  0  0  0  0  0  0  0  0  0
   22.4579   71.3951   -0.1158 C   0  0  1  0  0  0  0  0  0  0  0  0
   22.3053   72.4875    1.9937 C   0  0  1  0  0  0  0  0  0  0  0  0
   23.9544   68.3287    2.0504 H   0  0  0  0  0  0  0  0  0  0  0  0
   23.6459   68.3704    0.0987 H   0  0  0  0  0  0  0  0  0  0  0  0
   23.0471   70.5245    4.4785 H   0  0  0  0  0  0  0  0  0  0  0  0
   23.8387   73.7970    3.1919 O   0  0  0  0  0  0  0  0  0  0  0  0
   21.9583   74.8355    2.4273 O   0  0  0  0  0  0  0  0  0  0  0  0
   22.6483   73.8338    2.5435 C   0  0  0  0  0  0  0  0  0  0  0  0
  1  4  1  0
  1 24  1  0
  1  2  1  6
  1  3  2  0
 25 28  1  0
 25 24  1  0
 25 26  1  6
 25 27  2  0
  6 11  1  0
  6 12  1  0
 29 36  1  0
 29 37  1  0
  9  7  1  6
  7 13  1  0
 10  8  1  6
  8 14  1  0
  4  5  1  0
 36 28  1  1
 33 30  1  1
 30 38  1  0
 34 31  1  6
 31 39  1  0
 35 32  1  1
 32 40  1  0
 41 43  1  0
 15 19  2  0
 42 43  2  0
 16 22  2  0
 12 17  1  1
 17 19  1  0
 17 20  1  0
 18 19  1  0
 18 22  1  0
 18 23  1  0
  9 10  1  0
  9 11  1  0
 10 12  1  0
 11  5  1  1
 33 34  1  0
 33 35  1  0
 34 36  1  0
 35 37  1  0
 37 43  1  1
 20 21  2  0
 21 22  1  0
M  CHG  3   2  -1  26  -1  41  -1
M  END
>  <COMPND>  (56) 
    udp_gluA.pdb 

>  <AUTHOR>  (56) 
    GENERATED BY OPEN BABEL 3.1.1

>  <MASTER>  (56) 
        0    0    0    0    0    0    0    0   56    0   56    0

>  <minimizedAffinity>  (56) 
-6.85333

>  <CNNscore>  (56) 
0.2871584296

>  <CNNaffinity>  (56) 
4.0359559059

>  <CNN_VS>  (56) 
1.1589587927

>  <CNNaffinity_variance>  (56) 
0.2730838656

$$$$
57
     RDKit          3D

 43 45  0  0  0  0  0  0  0  0999 V2000
   19.3866   74.9643   -0.0577 P   0  0  2  0  0  0  0  0  0  0  0  0
   18.0169   74.7133    0.7668 O   0  0  0  0  0  0  0  0  0  0  0  0
   19.6099   76.3811   -0.4989 O   0  0  0  0  0  0  0  0  0  0  0  0
   19.3367   73.8601   -1.2393 O   0  0  0  0  0  0  0  0  0  0  0  0
   18.1239   73.1652   -1.4645 C   0  0  0  0  0  0  0  0  0  0  0  0
   17.4521   70.9138   -1.9723 O   0  0  0  0  0  0  0  0  0  0  0  0
   19.9735   70.0495   -0.5988 O   0  0  0  0  0  0  0  0  0  0  0  0
   20.6395   69.8672   -3.2368 O   0  0  0  0  0  0  0  0  0  0  0  0
   19.7363   71.1979   -1.4132 C   0  0  1  0  0  0  0  0  0  0  0  0
   19.6416   70.7968   -2.8701 C   0  0  2  0  0  0  0  0  0  0  0  0
   18.3254   71.6935   -1.1269 C   0  0  1  0  0  0  0  0  0  0  0  0
   18.2415   70.2121   -2.9458 C   0  0  2  0  0  0  0  0  0  0  0  0
   20.8692   69.7147   -0.7643 H   0  0  0  0  0  0  0  0  0  0  0  0
   21.5120   70.2873   -3.1725 H   0  0  0  0  0  0  0  0  0  0  0  0
   16.4763   68.3622   -4.1454 O   0  0  0  0  0  0  0  0  0  0  0  0
   16.0164   70.9699   -7.9180 O   0  0  0  0  0  0  0  0  0  0  0  0
   17.6457   70.3826   -4.2408 N   0  0  0  0  0  0  0  0  0  0  0  0
   16.2497   69.6623   -6.0236 N   0  0  0  0  0  0  0  0  0  0  0  0
   16.7725   69.3935   -4.7518 C   0  0  0  0  0  0  0  0  0  0  0  0
   17.9264   71.5193   -4.9891 C   0  0  0  0  0  0  0  0  0  0  0  0
   17.4204   71.7617   -6.1999 C   0  0  0  0  0  0  0  0  0  0  0  0
   16.4999   70.7777   -6.8064 C   0  0  0  0  0  0  0  0  0  0  0  0
   15.6408   68.9870   -6.4012 H   0  0  0  0  0  0  0  0  0  0  0  0
   20.5204   74.3820    0.9363 O   0  0  0  0  0  0  0  0  0  0  0  0
   22.1333   74.3869    0.8255 P   0  0  2  0  0  0  0  0  0  0  0  0
   22.5462   75.7980    1.5028 O   0  0  0  0  0  0  0  0  0  0  0  0
   22.6554   74.1941   -0.5689 O   0  0  0  0  0  0  0  0  0  0  0  0
   22.6196   73.2699    1.8829 O   0  0  0  0  0  0  0  0  0  0  0  0
   21.9048   71.1180    1.1993 O   0  0  0  0  0  0  0  0  0  0  0  0
   23.6717   70.2989    4.8428 O   0  0  0  0  0  0  0  0  0  0  0  0
   21.9729   72.6530    4.5168 O   0  0  0  0  0  0  0  0  0  0  0  0
   25.0498   69.6351    2.3708 O   0  0  0  0  0  0  0  0  0  0  0  0
   23.4917   70.9933    3.6086 C   0  0  2  0  0  0  0  0  0  0  0  0
   22.0902   71.6027    3.5640 C   0  0  2  0  0  0  0  0  0  0  0  0
   23.6712   69.9874    2.4694 C   0  0  1  0  0  0  0  0  0  0  0  0
   21.7779   72.1553    2.1726 C   0  0  1  0  0  0  0  0  0  0  0  0
   23.2204   70.5720    1.1339 C   0  0  1  0  0  0  0  0  0  0  0  0
   23.5622   70.9182    5.5815 H   0  0  0  0  0  0  0  0  0  0  0  0
   22.1700   72.3095    5.4020 H   0  0  0  0  0  0  0  0  0  0  0  0
   25.3494   69.2619    3.2145 H   0  0  0  0  0  0  0  0  0  0  0  0
   22.9825   70.0368   -1.1374 O   0  0  0  0  0  0  0  0  0  0  0  0
   23.0759   68.2994    0.3364 O   0  0  0  0  0  0  0  0  0  0  0  0
   23.0873   69.4987    0.1030 C   0  0  0  0  0  0  0  0  0  0  0  0
  1  4  1  0
  1 24  1  0
  1  2  1  1
  1  3  2  0
 25 28  1  0
 25 24  1  0
 25 26  1  1
 25 27  2  0
  6 11  1  0
  6 12  1  0
 29 36  1  0
 29 37  1  0
  9  7  1  1
  7 13  1  0
 10  8  1  1
  8 14  1  0
  4  5  1  0
 36 28  1  6
 33 30  1  1
 30 38  1  0
 34 31  1  1
 31 39  1  0
 35 32  1  6
 32 40  1  0
 41 43  1  0
 15 19  2  0
 42 43  2  0
 16 22  2  0
 12 17  1  6
 17 19  1  0
 17 20  1  0
 18 19  1  0
 18 22  1  0
 18 23  1  0
  9 10  1  0
  9 11  1  0
 10 12  1  0
 11  5  1  6
 33 34  1  0
 33 35  1  0
 34 36  1  0
 35 37  1  0
 37 43  1  6
 20 21  2  0
 21 22  1  0
M  CHG  3   2  -1  26  -1  41  -1
M  END
>  <COMPND>  (57) 
    udp_gluA.pdb 

>  <AUTHOR>  (57) 
    GENERATED BY OPEN BABEL 3.1.1

>  <MASTER>  (57) 
        0    0    0    0    0    0    0    0   56    0   56    0

>  <minimizedAffinity>  (57) 
-7.34522

>  <CNNscore>  (57) 
0.2843548954

>  <CNNaffinity>  (57) 
4.0784835815

>  <CNN_VS>  (57) 
1.1597367525

>  <CNNaffinity_variance>  (57) 
0.2190243751

$$$$
58
     RDKit          3D

 43 45  0  0  0  0  0  0  0  0999 V2000
   22.9929   72.5934   -3.7993 P   0  0  2  0  0  0  0  0  0  0  0  0
   23.3509   71.1069   -3.2692 O   0  0  0  0  0  0  0  0  0  0  0  0
   24.1514   73.3598   -4.3668 O   0  0  0  0  0  0  0  0  0  0  0  0
   22.2418   73.2834   -2.5432 O   0  0  0  0  0  0  0  0  0  0  0  0
   22.6345   72.9135   -1.2342 C   0  0  0  0  0  0  0  0  0  0  0  0
   21.3536   72.3289    0.7139 O   0  0  0  0  0  0  0  0  0  0  0  0
   20.8242   75.2647    1.0180 O   0  0  0  0  0  0  0  0  0  0  0  0
   22.7951   74.8218    2.8497 O   0  0  0  0  0  0  0  0  0  0  0  0
   22.0033   74.6017    0.5613 C   0  0  1  0  0  0  0  0  0  0  0  0
   22.7328   73.9677    1.7267 C   0  0  2  0  0  0  0  0  0  0  0  0
   21.5748   73.3844   -0.2466 C   0  0  1  0  0  0  0  0  0  0  0  0
   21.8977   72.7247    1.9830 C   0  0  2  0  0  0  0  0  0  0  0  0
   21.0727   76.0462    1.5369 H   0  0  0  0  0  0  0  0  0  0  0  0
   23.3378   75.5976    2.6362 H   0  0  0  0  0  0  0  0  0  0  0  0
   22.4719   72.3719    4.7257 O   0  0  0  0  0  0  0  0  0  0  0  0
   24.8922   68.5346    3.9125 O   0  0  0  0  0  0  0  0  0  0  0  0
   22.6756   71.6421    2.5156 N   0  0  0  0  0  0  0  0  0  0  0  0
   23.6777   70.4616    4.3179 N   0  0  0  0  0  0  0  0  0  0  0  0
   22.9057   71.5570    3.9091 C   0  0  0  0  0  0  0  0  0  0  0  0
   23.1997   70.6790    1.6619 C   0  0  0  0  0  0  0  0  0  0  0  0
   23.9336   69.6405    2.0664 C   0  0  0  0  0  0  0  0  0  0  0  0
   24.2210   69.4786    3.5067 C   0  0  0  0  0  0  0  0  0  0  0  0
   23.8530   70.3822    5.2835 H   0  0  0  0  0  0  0  0  0  0  0  0
   21.7868   72.3262   -4.8418 O   0  0  0  0  0  0  0  0  0  0  0  0
   21.3004   73.1602   -6.1386 P   0  0  2  0  0  0  0  0  0  0  0  0
   22.2458   72.5886   -7.3218 O   0  0  0  0  0  0  0  0  0  0  0  0
   21.3557   74.6508   -5.9685 O   0  0  0  0  0  0  0  0  0  0  0  0
   19.8333   72.5784   -6.4727 O   0  0  0  0  0  0  0  0  0  0  0  0
   19.4530   70.4612   -5.4818 O   0  0  0  0  0  0  0  0  0  0  0  0
   16.0797   70.9114   -7.8242 O   0  0  0  0  0  0  0  0  0  0  0  0
   18.7070   71.6735   -8.8494 O   0  0  0  0  0  0  0  0  0  0  0  0
   15.9170   71.2804   -4.9452 O   0  0  0  0  0  0  0  0  0  0  0  0
   17.1650   71.3463   -7.0051 C   0  0  2  0  0  0  0  0  0  0  0  0
   18.4893   70.9380   -7.6510 C   0  0  2  0  0  0  0  0  0  0  0  0
   17.0161   70.6857   -5.6328 C   0  0  1  0  0  0  0  0  0  0  0  0
   19.6605   71.1805   -6.6980 C   0  0  1  0  0  0  0  0  0  0  0  0
   18.2744   70.8655   -4.7885 C   0  0  1  0  0  0  0  0  0  0  0  0
   16.1533   71.3185   -8.7017 H   0  0  0  0  0  0  0  0  0  0  0  0
   17.9674   71.5245   -9.4586 H   0  0  0  0  0  0  0  0  0  0  0  0
   15.1097   71.1730   -5.4722 H   0  0  0  0  0  0  0  0  0  0  0  0
   19.4200   70.0349   -2.9178 O   0  0  0  0  0  0  0  0  0  0  0  0
   17.3168   69.2361   -3.2887 O   0  0  0  0  0  0  0  0  0  0  0  0
   18.2531   69.9550   -3.6040 C   0  0  0  0  0  0  0  0  0  0  0  0
  1  4  1  0
  1 24  1  0
  1  2  1  1
  1  3  2  0
 25 28  1  0
 25 24  1  0
 25 26  1  6
 25 27  2  0
  6 11  1  0
  6 12  1  0
 29 36  1  0
 29 37  1  0
  9  7  1  1
  7 13  1  0
 10  8  1  1
  8 14  1  0
  4  5  1  0
 36 28  1  1
 33 30  1  6
 30 38  1  0
 34 31  1  6
 31 39  1  0
 35 32  1  1
 32 40  1  0
 41 43  1  0
 15 19  2  0
 42 43  2  0
 16 22  2  0
 12 17  1  6
 17 19  1  0
 17 20  1  0
 18 19  1  0
 18 22  1  0
 18 23  1  0
  9 10  1  0
  9 11  1  0
 10 12  1  0
 11  5  1  6
 33 34  1  0
 33 35  1  0
 34 36  1  0
 35 37  1  0
 37 43  1  1
 20 21  2  0
 21 22  1  0
M  CHG  3   2  -1  26  -1  41  -1
M  END
>  <COMPND>  (58) 
    udp_gluA.pdb 

>  <AUTHOR>  (58) 
    GENERATED BY OPEN BABEL 3.1.1

>  <MASTER>  (58) 
        0    0    0    0    0    0    0    0   56    0   56    0

>  <minimizedAffinity>  (58) 
-7.94325

>  <CNNscore>  (58) 
0.2842510641

>  <CNNaffinity>  (58) 
3.9218184948

>  <CNN_VS>  (58) 
1.1147810221

>  <CNNaffinity_variance>  (58) 
0.1268595308

$$$$
59
     RDKit          3D

 43 45  0  0  0  0  0  0  0  0999 V2000
   23.0612   72.9685   -3.6041 P   0  0  2  0  0  0  0  0  0  0  0  0
   23.4953   71.4222   -3.8027 O   0  0  0  0  0  0  0  0  0  0  0  0
   24.1186   73.9736   -3.9559 O   0  0  0  0  0  0  0  0  0  0  0  0
   22.5153   73.0265   -2.0821 O   0  0  0  0  0  0  0  0  0  0  0  0
   21.2361   73.5842   -1.8434 C   0  0  0  0  0  0  0  0  0  0  0  0
   20.8957   71.2923   -1.2041 O   0  0  0  0  0  0  0  0  0  0  0  0
   17.9733   71.9533   -1.0869 O   0  0  0  0  0  0  0  0  0  0  0  0
   18.7027   72.0093    1.5400 O   0  0  0  0  0  0  0  0  0  0  0  0
   19.0973   72.7617   -0.7382 C   0  0  1  0  0  0  0  0  0  0  0  0
   19.6920   72.2947    0.5734 C   0  0  2  0  0  0  0  0  0  0  0  0
   20.2183   72.4574   -1.7226 C   0  0  1  0  0  0  0  0  0  0  0  0
   20.4661   71.0592    0.1466 C   0  0  2  0  0  0  0  0  0  0  0  0
   17.2440   72.1303   -0.4717 H   0  0  0  0  0  0  0  0  0  0  0  0
   18.2385   72.8276    1.7789 H   0  0  0  0  0  0  0  0  0  0  0  0
   21.8688   68.6106    0.2622 O   0  0  0  0  0  0  0  0  0  0  0  0
   24.8748   70.2682    3.3380 O   0  0  0  0  0  0  0  0  0  0  0  0
   21.6188   70.8234    0.9691 N   0  0  0  0  0  0  0  0  0  0  0  0
   23.3640   69.4382    1.7948 N   0  0  0  0  0  0  0  0  0  0  0  0
   22.2497   69.5570    0.9538 C   0  0  0  0  0  0  0  0  0  0  0  0
   22.1137   71.8396    1.7774 C   0  0  0  0  0  0  0  0  0  0  0  0
   23.1769   71.7114    2.5736 C   0  0  0  0  0  0  0  0  0  0  0  0
   23.8931   70.4197    2.6171 C   0  0  0  0  0  0  0  0  0  0  0  0
   23.8187   68.5650    1.8027 H   0  0  0  0  0  0  0  0  0  0  0  0
   21.7075   73.0807   -4.4802 O   0  0  0  0  0  0  0  0  0  0  0  0
   21.4618   73.5950   -5.9931 P   0  0  2  0  0  0  0  0  0  0  0  0
   22.7170   72.9724   -6.8038 O   0  0  0  0  0  0  0  0  0  0  0  0
   21.3197   75.0840   -6.1220 O   0  0  0  0  0  0  0  0  0  0  0  0
   20.1859   72.7536   -6.5094 O   0  0  0  0  0  0  0  0  0  0  0  0
   19.2256   70.7686   -5.6453 O   0  0  0  0  0  0  0  0  0  0  0  0
   18.4744   70.3749   -9.6886 O   0  0  0  0  0  0  0  0  0  0  0  0
   21.0603   71.3597   -8.7518 O   0  0  0  0  0  0  0  0  0  0  0  0
   16.3323   71.1269   -7.8729 O   0  0  0  0  0  0  0  0  0  0  0  0
   18.6681   71.0783   -8.4616 C   0  0  2  0  0  0  0  0  0  0  0  0
   20.0650   70.7806   -7.9160 C   0  0  2  0  0  0  0  0  0  0  0  0
   17.5991   70.6077   -7.4728 C   0  0  1  0  0  0  0  0  0  0  0  0
   20.2262   71.3277   -6.4971 C   0  0  1  0  0  0  0  0  0  0  0  0
   17.8989   71.0906   -6.0567 C   0  0  1  0  0  0  0  0  0  0  0  0
   19.1427   70.6576  -10.3326 H   0  0  0  0  0  0  0  0  0  0  0  0
   20.9637   71.0172   -9.6539 H   0  0  0  0  0  0  0  0  0  0  0  0
   16.1295   70.8270   -8.7728 H   0  0  0  0  0  0  0  0  0  0  0  0
   17.1663   70.9363   -3.8338 O   0  0  0  0  0  0  0  0  0  0  0  0
   16.3525   69.3973   -5.3063 O   0  0  0  0  0  0  0  0  0  0  0  0
   17.0535   70.3672   -5.0595 C   0  0  0  0  0  0  0  0  0  0  0  0
  1  4  1  0
  1 24  1  0
  1  2  1  1
  1  3  2  0
 25 28  1  0
 25 24  1  0
 25 26  1  6
 25 27  2  0
  6 11  1  0
  6 12  1  0
 29 36  1  0
 29 37  1  0
  9  7  1  6
  7 13  1  0
 10  8  1  1
  8 14  1  0
  4  5  1  0
 36 28  1  6
 33 30  1  6
 30 38  1  0
 34 31  1  6
 31 39  1  0
 35 32  1  6
 32 40  1  0
 41 43  1  0
 15 19  2  0
 42 43  2  0
 16 22  2  0
 12 17  1  1
 17 19  1  0
 17 20  1  0
 18 19  1  0
 18 22  1  0
 18 23  1  0
  9 10  1  0
  9 11  1  0
 10 12  1  0
 11  5  1  1
 33 34  1  0
 33 35  1  0
 34 36  1  0
 35 37  1  0
 37 43  1  1
 20 21  2  0
 21 22  1  0
M  CHG  3   2  -1  26  -1  41  -1
M  END
>  <COMPND>  (59) 
    udp_gluA.pdb 

>  <AUTHOR>  (59) 
    GENERATED BY OPEN BABEL 3.1.1

>  <MASTER>  (59) 
        0    0    0    0    0    0    0    0   56    0   56    0

>  <minimizedAffinity>  (59) 
-8.07955

>  <CNNscore>  (59) 
0.2812316120

>  <CNNaffinity>  (59) 
4.0499911308

>  <CNN_VS>  (59) 
1.1389855146

>  <CNNaffinity_variance>  (59) 
0.2239074409

$$$$
60
     RDKit          3D

 43 45  0  0  0  0  0  0  0  0999 V2000
   22.5732   73.0622   -3.2692 P   0  0  2  0  0  0  0  0  0  0  0  0
   23.5465   72.0007   -4.0073 O   0  0  0  0  0  0  0  0  0  0  0  0
   22.7203   74.4829   -3.7295 O   0  0  0  0  0  0  0  0  0  0  0  0
   22.8385   72.8029   -1.6944 O   0  0  0  0  0  0  0  0  0  0  0  0
   23.1260   73.9139   -0.8652 C   0  0  0  0  0  0  0  0  0  0  0  0
   21.6004   72.9794    0.7401 O   0  0  0  0  0  0  0  0  0  0  0  0
   20.9410   75.8086    1.4830 O   0  0  0  0  0  0  0  0  0  0  0  0
   22.6448   75.0518    3.4730 O   0  0  0  0  0  0  0  0  0  0  0  0
   22.1934   75.2456    1.0916 C   0  0  1  0  0  0  0  0  0  0  0  0
   22.7696   74.4148    2.2187 C   0  0  2  0  0  0  0  0  0  0  0  0
   21.9224   74.1924    0.0259 C   0  0  1  0  0  0  0  0  0  0  0  0
   21.9461   73.1416    2.1249 C   0  0  2  0  0  0  0  0  0  0  0  0
   21.0885   76.4845    2.1635 H   0  0  0  0  0  0  0  0  0  0  0  0
   23.1876   75.8563    3.4825 H   0  0  0  0  0  0  0  0  0  0  0  0
   22.4398   72.4982    4.8302 O   0  0  0  0  0  0  0  0  0  0  0  0
   24.7511   68.6771    3.6893 O   0  0  0  0  0  0  0  0  0  0  0  0
   22.6742   71.9846    2.5630 N   0  0  0  0  0  0  0  0  0  0  0  0
   23.5914   70.5962    4.2594 N   0  0  0  0  0  0  0  0  0  0  0  0
   22.8666   71.7535    3.9457 C   0  0  0  0  0  0  0  0  0  0  0  0
   23.1872   71.0930    1.6288 C   0  0  0  0  0  0  0  0  0  0  0  0
   23.8759   69.9941    1.9430 C   0  0  0  0  0  0  0  0  0  0  0  0
   24.1219   69.6799    3.3657 C   0  0  0  0  0  0  0  0  0  0  0  0
   23.7399   70.4153    5.2157 H   0  0  0  0  0  0  0  0  0  0  0  0
   21.1041   72.4285   -3.4994 O   0  0  0  0  0  0  0  0  0  0  0  0
   20.4295   71.0762   -2.9250 P   0  0  2  0  0  0  0  0  0  0  0  0
   19.7667   71.5577   -1.5289 O   0  0  0  0  0  0  0  0  0  0  0  0
   21.3804   69.9220   -2.7925 O   0  0  0  0  0  0  0  0  0  0  0  0
   19.1731   70.8002   -3.8985 O   0  0  0  0  0  0  0  0  0  0  0  0
   17.2008   72.0442   -4.3130 O   0  0  0  0  0  0  0  0  0  0  0  0
   15.8270   68.1607   -4.6275 O   0  0  0  0  0  0  0  0  0  0  0  0
   17.6900   68.9050   -2.5040 O   0  0  0  0  0  0  0  0  0  0  0  0
   16.2542   69.7556   -7.0201 O   0  0  0  0  0  0  0  0  0  0  0  0
   16.7804   69.2181   -4.7312 C   0  0  2  0  0  0  0  0  0  0  0  0
   17.0179   69.8303   -3.3505 C   0  0  2  0  0  0  0  0  0  0  0  0
   16.2179   70.2697   -5.6902 C   0  0  1  0  0  0  0  0  0  0  0  0
   17.8527   71.1074   -3.4546 C   0  0  1  0  0  0  0  0  0  0  0  0
   17.0328   71.5590   -5.6432 C   0  0  1  0  0  0  0  0  0  0  0  0
   16.1629   67.4803   -4.0229 H   0  0  0  0  0  0  0  0  0  0  0  0
   17.1660   68.0921   -2.4337 H   0  0  0  0  0  0  0  0  0  0  0  0
   15.7393   68.9347   -7.0636 H   0  0  0  0  0  0  0  0  0  0  0  0
   16.1872   73.7414   -5.4884 O   0  0  0  0  0  0  0  0  0  0  0  0
   15.8641   72.6380   -7.4575 O   0  0  0  0  0  0  0  0  0  0  0  0
   16.3009   72.6739   -6.3170 C   0  0  0  0  0  0  0  0  0  0  0  0
  1  4  1  0
  1 24  1  0
  1  2  1  6
  1  3  2  0
 25 28  1  0
 25 24  1  0
 25 26  1  1
 25 27  2  0
  6 11  1  0
  6 12  1  0
 29 36  1  0
 29 37  1  0
  9  7  1  1
  7 13  1  0
 10  8  1  1
  8 14  1  0
  4  5  1  0
 36 28  1  6
 33 30  1  1
 30 38  1  0
 34 31  1  1
 31 39  1  0
 35 32  1  6
 32 40  1  0
 41 43  1  0
 15 19  2  0
 42 43  2  0
 16 22  2  0
 12 17  1  6
 17 19  1  0
 17 20  1  0
 18 19  1  0
 18 22  1  0
 18 23  1  0
  9 10  1  0
  9 11  1  0
 10 12  1  0
 11  5  1  1
 33 34  1  0
 33 35  1  0
 34 36  1  0
 35 37  1  0
 37 43  1  6
 20 21  2  0
 21 22  1  0
M  CHG  3   2  -1  26  -1  41  -1
M  END
>  <COMPND>  (60) 
    udp_gluA.pdb 

>  <AUTHOR>  (60) 
    GENERATED BY OPEN BABEL 3.1.1

>  <MASTER>  (60) 
        0    0    0    0    0    0    0    0   56    0   56    0

>  <minimizedAffinity>  (60) 
-7.36629

>  <CNNscore>  (60) 
0.2806533873

>  <CNNaffinity>  (60) 
3.8983776569

>  <CNN_VS>  (60) 
1.0940928459

>  <CNNaffinity_variance>  (60) 
0.1475733221

$$$$
61
     RDKit          3D

 43 45  0  0  0  0  0  0  0  0999 V2000
   22.3147   71.8671   -1.9658 P   0  0  2  0  0  0  0  0  0  0  0  0
   22.6368   72.9372   -0.7954 O   0  0  0  0  0  0  0  0  0  0  0  0
   23.1912   71.9723   -3.1793 O   0  0  0  0  0  0  0  0  0  0  0  0
   20.7278   72.0438   -2.2279 O   0  0  0  0  0  0  0  0  0  0  0  0
   19.9947   70.9335   -2.7119 C   0  0  0  0  0  0  0  0  0  0  0  0
   18.1958   71.8823   -3.9931 O   0  0  0  0  0  0  0  0  0  0  0  0
   16.3496   70.5024   -2.0750 O   0  0  0  0  0  0  0  0  0  0  0  0
   16.2989   68.8504   -4.2440 O   0  0  0  0  0  0  0  0  0  0  0  0
   17.6064   70.0652   -2.5926 C   0  0  1  0  0  0  0  0  0  0  0  0
   17.4567   69.6317   -4.0355 C   0  0  2  0  0  0  0  0  0  0  0  0
   18.5120   71.2827   -2.7180 C   0  0  1  0  0  0  0  0  0  0  0  0
   17.4009   70.9651   -4.7613 C   0  0  2  0  0  0  0  0  0  0  0  0
   15.7538   69.7416   -1.9861 H   0  0  0  0  0  0  0  0  0  0  0  0
   16.3833   68.0123   -3.7619 H   0  0  0  0  0  0  0  0  0  0  0  0
   15.9164   70.1701   -7.0286 O   0  0  0  0  0  0  0  0  0  0  0  0
   19.5461   70.7035   -9.8186 O   0  0  0  0  0  0  0  0  0  0  0  0
   17.9332   70.8873   -6.0922 N   0  0  0  0  0  0  0  0  0  0  0  0
   17.7259   70.4355   -8.4159 N   0  0  0  0  0  0  0  0  0  0  0  0
   17.1028   70.4761   -7.1616 C   0  0  0  0  0  0  0  0  0  0  0  0
   19.2621   71.2176   -6.3281 C   0  0  0  0  0  0  0  0  0  0  0  0
   19.8419   71.1741   -7.5293 C   0  0  0  0  0  0  0  0  0  0  0  0
   19.0441   70.7539   -8.6999 C   0  0  0  0  0  0  0  0  0  0  0  0
   17.1684   70.1502   -9.1755 H   0  0  0  0  0  0  0  0  0  0  0  0
   22.3999   70.4491   -1.1946 O   0  0  0  0  0  0  0  0  0  0  0  0
   21.9552   70.0259    0.3010 P   0  0  2  0  0  0  0  0  0  0  0  0
   22.9526   68.7998    0.6505 O   0  0  0  0  0  0  0  0  0  0  0  0
   20.4972   69.6958    0.4398 O   0  0  0  0  0  0  0  0  0  0  0  0
   22.4587   71.2398    1.2367 O   0  0  0  0  0  0  0  0  0  0  0  0
   22.6600   71.5310    3.5784 O   0  0  0  0  0  0  0  0  0  0  0  0
   21.3566   75.2624    2.3763 O   0  0  0  0  0  0  0  0  0  0  0  0
   20.1869   72.8443    1.2278 O   0  0  0  0  0  0  0  0  0  0  0  0
   24.1424   74.8528    3.0988 O   0  0  0  0  0  0  0  0  0  0  0  0
   22.0477   74.0199    2.2484 C   0  0  2  0  0  0  0  0  0  0  0  0
   21.0506   72.8661    2.3584 C   0  0  2  0  0  0  0  0  0  0  0  0
   23.0835   73.9371    3.3719 C   0  0  1  0  0  0  0  0  0  0  0  0
   21.7762   71.5234    2.4567 C   0  0  1  0  0  0  0  0  0  0  0  0
   23.6701   72.5331    3.4863 C   0  0  1  0  0  0  0  0  0  0  0  0
   20.6928   75.3374    1.6726 H   0  0  0  0  0  0  0  0  0  0  0  0
   19.7234   73.6934    1.1592 H   0  0  0  0  0  0  0  0  0  0  0  0
   23.7824   75.7503    3.0234 H   0  0  0  0  0  0  0  0  0  0  0  0
   24.2466   71.1263    5.2724 O   0  0  0  0  0  0  0  0  0  0  0  0
   25.0963   73.2420    5.2987 O   0  0  0  0  0  0  0  0  0  0  0  0
   24.4185   72.3739    4.7696 C   0  0  0  0  0  0  0  0  0  0  0  0
  1  4  1  0
  1 24  1  0
  1  2  1  1
  1  3  2  0
 25 28  1  0
 25 24  1  0
 25 26  1  1
 25 27  2  0
  6 11  1  0
  6 12  1  0
 29 36  1  0
 29 37  1  0
  9  7  1  6
  7 13  1  0
 10  8  1  1
  8 14  1  0
  4  5  1  0
 36 28  1  6
 33 30  1  1
 30 38  1  0
 34 31  1  6
 31 39  1  0
 35 32  1  6
 32 40  1  0
 41 43  1  0
 15 19  2  0
 42 43  2  0
 16 22  2  0
 12 17  1  6
 17 19  1  0
 17 20  1  0
 18 19  1  0
 18 22  1  0
 18 23  1  0
  9 10  1  0
  9 11  1  0
 10 12  1  0
 11  5  1  6
 33 34  1  0
 33 35  1  0
 34 36  1  0
 35 37  1  0
 37 43  1  1
 20 21  2  0
 21 22  1  0
M  CHG  3   2  -1  26  -1  41  -1
M  END
>  <COMPND>  (61) 
    udp_gluA.pdb 

>  <AUTHOR>  (61) 
    GENERATED BY OPEN BABEL 3.1.1

>  <MASTER>  (61) 
        0    0    0    0    0    0    0    0   56    0   56    0

>  <minimizedAffinity>  (61) 
-8.39057

>  <CNNscore>  (61) 
0.7970812321

>  <CNNaffinity>  (61) 
4.8168783188

>  <CNN_VS>  (61) 
3.8394432068

>  <CNNaffinity_variance>  (61) 
0.0476066247

$$$$
62
     RDKit          3D

 43 45  0  0  0  0  0  0  0  0999 V2000
   21.2437   70.6424   -0.4135 P   0  0  2  0  0  0  0  0  0  0  0  0
   22.4309   69.5985   -0.7596 O   0  0  0  0  0  0  0  0  0  0  0  0
   20.0311   70.0332    0.2270 O   0  0  0  0  0  0  0  0  0  0  0  0
   20.9865   71.4156   -1.8113 O   0  0  0  0  0  0  0  0  0  0  0  0
   20.2556   70.7522   -2.8263 C   0  0  0  0  0  0  0  0  0  0  0  0
   18.4760   71.8359   -4.0247 O   0  0  0  0  0  0  0  0  0  0  0  0
   16.6192   70.5727   -2.0377 O   0  0  0  0  0  0  0  0  0  0  0  0
   16.3611   68.9469   -4.2117 O   0  0  0  0  0  0  0  0  0  0  0  0
   17.8191   70.0527   -2.6106 C   0  0  1  0  0  0  0  0  0  0  0  0
   17.5789   69.6431   -4.0483 C   0  0  2  0  0  0  0  0  0  0  0  0
   18.8023   71.2046   -2.7675 C   0  0  1  0  0  0  0  0  0  0  0  0
   17.5868   70.9834   -4.7635 C   0  0  2  0  0  0  0  0  0  0  0  0
   15.9755   69.8548   -1.9278 H   0  0  0  0  0  0  0  0  0  0  0  0
   16.4063   68.1008   -3.7383 H   0  0  0  0  0  0  0  0  0  0  0  0
   15.9883   70.1794   -6.9487 O   0  0  0  0  0  0  0  0  0  0  0  0
   19.4925   70.6219   -9.9099 O   0  0  0  0  0  0  0  0  0  0  0  0
   18.0559   70.8798   -6.1163 N   0  0  0  0  0  0  0  0  0  0  0  0
   17.7354   70.3996   -8.4213 N   0  0  0  0  0  0  0  0  0  0  0  0
   17.1715   70.4662   -7.1404 C   0  0  0  0  0  0  0  0  0  0  0  0
   19.3771   71.1874   -6.4177 C   0  0  0  0  0  0  0  0  0  0  0  0
   19.9001   71.1192   -7.6435 C   0  0  0  0  0  0  0  0  0  0  0  0
   19.0434   70.6948   -8.7701 C   0  0  0  0  0  0  0  0  0  0  0  0
   17.1395   70.1121   -9.1504 H   0  0  0  0  0  0  0  0  0  0  0  0
   21.9920   71.7575    0.4863 O   0  0  0  0  0  0  0  0  0  0  0  0
   21.9483   73.3726    0.4278 P   0  0  2  0  0  0  0  0  0  0  0  0
   20.3634   73.7009    0.4539 O   0  0  0  0  0  0  0  0  0  0  0  0
   22.6838   73.9667   -0.7384 O   0  0  0  0  0  0  0  0  0  0  0  0
   22.4866   73.8491    1.8720 O   0  0  0  0  0  0  0  0  0  0  0  0
   22.5600   72.2827    3.6468 O   0  0  0  0  0  0  0  0  0  0  0  0
   22.8970   75.8666    5.6741 O   0  0  0  0  0  0  0  0  0  0  0  0
   21.0092   75.5884    3.4620 O   0  0  0  0  0  0  0  0  0  0  0  0
   25.2344   74.1810    5.2919 O   0  0  0  0  0  0  0  0  0  0  0  0
   23.0714   74.9674    4.5791 C   0  0  2  0  0  0  0  0  0  0  0  0
   21.7044   74.5071    4.0722 C   0  0  2  0  0  0  0  0  0  0  0  0
   23.8857   73.7704    5.0753 C   0  0  1  0  0  0  0  0  0  0  0  0
   21.8509   73.3729    3.0568 C   0  0  1  0  0  0  0  0  0  0  0  0
   23.8795   72.6326    4.0585 C   0  0  1  0  0  0  0  0  0  0  0  0
   22.3820   76.6354    5.3825 H   0  0  0  0  0  0  0  0  0  0  0  0
   20.9129   76.3118    4.1006 H   0  0  0  0  0  0  0  0  0  0  0  0
   25.2523   74.9051    5.9370 H   0  0  0  0  0  0  0  0  0  0  0  0
   25.6621   71.5228    5.1037 O   0  0  0  0  0  0  0  0  0  0  0  0
   23.7427   70.3347    4.7815 O   0  0  0  0  0  0  0  0  0  0  0  0
   24.3852   71.3685    4.6740 C   0  0  0  0  0  0  0  0  0  0  0  0
  1  4  1  0
  1 24  1  0
  1  2  1  6
  1  3  2  0
 25 28  1  0
 25 24  1  0
 25 26  1  6
 25 27  2  0
  6 11  1  0
  6 12  1  0
 29 36  1  0
 29 37  1  0
  9  7  1  6
  7 13  1  0
 10  8  1  1
  8 14  1  0
  4  5  1  0
 36 28  1  6
 33 30  1  1
 30 38  1  0
 34 31  1  6
 31 39  1  0
 35 32  1  6
 32 40  1  0
 41 43  1  0
 15 19  2  0
 42 43  2  0
 16 22  2  0
 12 17  1  6
 17 19  1  0
 17 20  1  0
 18 19  1  0
 18 22  1  0
 18 23  1  0
  9 10  1  0
  9 11  1  0
 10 12  1  0
 11  5  1  6
 33 34  1  0
 33 35  1  0
 34 36  1  0
 35 37  1  0
 37 43  1  1
 20 21  2  0
 21 22  1  0
M  CHG  3   2  -1  26  -1  41  -1
M  END
>  <COMPND>  (62) 
    udp_gluA.pdb 

>  <AUTHOR>  (62) 
    GENERATED BY OPEN BABEL 3.1.1

>  <MASTER>  (62) 
        0    0    0    0    0    0    0    0   56    0   56    0

>  <minimizedAffinity>  (62) 
-7.98755

>  <CNNscore>  (62) 
0.7953486443

>  <CNNaffinity>  (62) 
4.6126775742

>  <CNN_VS>  (62) 
3.6686868668

>  <CNNaffinity_variance>  (62) 
0.0789522976

$$$$
63
     RDKit          3D

 43 45  0  0  0  0  0  0  0  0999 V2000
   22.7037   69.9167   -2.1478 P   0  0  2  0  0  0  0  0  0  0  0  0
   23.8978   70.7088   -2.8999 O   0  0  0  0  0  0  0  0  0  0  0  0
   23.0161   68.4941   -1.7869 O   0  0  0  0  0  0  0  0  0  0  0  0
   21.4250   70.1315   -3.1156 O   0  0  0  0  0  0  0  0  0  0  0  0
   21.2545   71.3901   -3.7414 C   0  0  0  0  0  0  0  0  0  0  0  0
   19.3066   72.2906   -4.8240 O   0  0  0  0  0  0  0  0  0  0  0  0
   17.7666   71.3382   -2.4339 O   0  0  0  0  0  0  0  0  0  0  0  0
   17.2384   69.4112   -4.2895 O   0  0  0  0  0  0  0  0  0  0  0  0
   18.8845   70.7364   -3.0870 C   0  0  1  0  0  0  0  0  0  0  0  0
   18.4544   70.1206   -4.4015 C   0  0  2  0  0  0  0  0  0  0  0  0
   19.8155   71.8501   -3.5464 C   0  0  1  0  0  0  0  0  0  0  0  0
   18.3389   71.3411   -5.2988 C   0  0  2  0  0  0  0  0  0  0  0  0
   17.1574   70.6461   -2.1314 H   0  0  0  0  0  0  0  0  0  0  0  0
   17.3641   68.6438   -3.7088 H   0  0  0  0  0  0  0  0  0  0  0  0
   16.4039   70.4743   -7.1645 O   0  0  0  0  0  0  0  0  0  0  0  0
   19.5210   70.2091  -10.5493 O   0  0  0  0  0  0  0  0  0  0  0  0
   18.6174   71.0384   -6.6741 N   0  0  0  0  0  0  0  0  0  0  0  0
   17.9584   70.3421   -8.8483 N   0  0  0  0  0  0  0  0  0  0  0  0
   17.5736   70.6103   -7.5281 C   0  0  0  0  0  0  0  0  0  0  0  0
   19.9111   71.1681   -7.1646 C   0  0  0  0  0  0  0  0  0  0  0  0
   20.2626   70.9088   -8.4255 C   0  0  0  0  0  0  0  0  0  0  0  0
   19.2318   70.4556   -9.3824 C   0  0  0  0  0  0  0  0  0  0  0  0
   17.2493   70.0406   -9.4611 H   0  0  0  0  0  0  0  0  0  0  0  0
   22.3708   70.8734   -0.8881 O   0  0  0  0  0  0  0  0  0  0  0  0
   21.1888   70.8059    0.2128 P   0  0  2  0  0  0  0  0  0  0  0  0
   20.8166   69.2312    0.2597 O   0  0  0  0  0  0  0  0  0  0  0  0
   20.0245   71.7081   -0.0776 O   0  0  0  0  0  0  0  0  0  0  0  0
   21.9234   71.0927    1.6201 O   0  0  0  0  0  0  0  0  0  0  0  0
   23.6161   72.4295    2.5983 O   0  0  0  0  0  0  0  0  0  0  0  0
   24.8269   68.6264    3.6651 O   0  0  0  0  0  0  0  0  0  0  0  0
   23.8161   69.1590    0.9764 O   0  0  0  0  0  0  0  0  0  0  0  0
   23.5776   70.3653    5.6314 O   0  0  0  0  0  0  0  0  0  0  0  0
   23.8882   69.6548    3.3503 C   0  0  2  0  0  0  0  0  0  0  0  0
   24.1425   70.1627    1.9308 C   0  0  2  0  0  0  0  0  0  0  0  0
   24.0715   70.7883    4.3619 C   0  0  1  0  0  0  0  0  0  0  0  0
   23.3130   71.4143    1.6407 C   0  0  1  0  0  0  0  0  0  0  0  0
   23.3134   72.0425    3.9368 C   0  0  1  0  0  0  0  0  0  0  0  0
   24.7290   67.8951    3.0351 H   0  0  0  0  0  0  0  0  0  0  0  0
   24.3387   68.3618    1.1547 H   0  0  0  0  0  0  0  0  0  0  0  0
   24.0519   69.5676    5.9134 H   0  0  0  0  0  0  0  0  0  0  0  0
   24.5891   74.0094    4.0097 O   0  0  0  0  0  0  0  0  0  0  0  0
   23.4129   73.4625    5.8849 O   0  0  0  0  0  0  0  0  0  0  0  0
   23.7544   73.2254    4.7359 C   0  0  0  0  0  0  0  0  0  0  0  0
  1  4  1  0
  1 24  1  0
  1  2  1  6
  1  3  2  0
 25 28  1  0
 25 24  1  0
 25 26  1  1
 25 27  2  0
  6 11  1  0
  6 12  1  0
 29 36  1  0
 29 37  1  0
  9  7  1  6
  7 13  1  0
 10  8  1  1
  8 14  1  0
  4  5  1  0
 36 28  1  1
 33 30  1  1
 30 38  1  0
 34 31  1  6
 31 39  1  0
 35 32  1  1
 32 40  1  0
 41 43  1  0
 15 19  2  0
 42 43  2  0
 16 22  2  0
 12 17  1  6
 17 19  1  0
 17 20  1  0
 18 19  1  0
 18 22  1  0
 18 23  1  0
  9 10  1  0
  9 11  1  0
 10 12  1  0
 11  5  1  6
 33 34  1  0
 33 35  1  0
 34 36  1  0
 35 37  1  0
 37 43  1  1
 20 21  2  0
 21 22  1  0
M  CHG  3   2  -1  26  -1  41  -1
M  END
>  <COMPND>  (63) 
    udp_gluA.pdb 

>  <AUTHOR>  (63) 
    GENERATED BY OPEN BABEL 3.1.1

>  <MASTER>  (63) 
        0    0    0    0    0    0    0    0   56    0   56    0

>  <minimizedAffinity>  (63) 
-8.29073

>  <CNNscore>  (63) 
0.7318108082

>  <CNNaffinity>  (63) 
4.5490064621

>  <CNN_VS>  (63) 
3.3290121555

>  <CNNaffinity_variance>  (63) 
0.0122650256

$$$$
64
     RDKit          3D

 43 45  0  0  0  0  0  0  0  0999 V2000
   21.4486   73.2890   -1.3366 P   0  0  2  0  0  0  0  0  0  0  0  0
   21.3506   74.4902   -2.4167 O   0  0  0  0  0  0  0  0  0  0  0  0
   22.7786   72.5965   -1.2782 O   0  0  0  0  0  0  0  0  0  0  0  0
   20.1808   72.3469   -1.6872 O   0  0  0  0  0  0  0  0  0  0  0  0
   19.2904   72.7631   -2.7063 C   0  0  0  0  0  0  0  0  0  0  0  0
   17.3769   71.9268   -3.8966 O   0  0  0  0  0  0  0  0  0  0  0  0
   17.0175   70.0237   -1.6074 O   0  0  0  0  0  0  0  0  0  0  0  0
   18.1994   68.4594   -3.5028 O   0  0  0  0  0  0  0  0  0  0  0  0
   18.2233   70.5105   -2.1971 C   0  0  1  0  0  0  0  0  0  0  0  0
   18.4555   69.8479   -3.5385 C   0  0  2  0  0  0  0  0  0  0  0  0
   17.9990   71.9632   -2.5939 C   0  0  1  0  0  0  0  0  0  0  0  0
   17.4844   70.5988   -4.4334 C   0  0  2  0  0  0  0  0  0  0  0  0
   17.1364   69.0968   -1.3456 H   0  0  0  0  0  0  0  0  0  0  0  0
   18.8439   68.0267   -2.9203 H   0  0  0  0  0  0  0  0  0  0  0  0
   15.9400   69.8685   -6.6824 O   0  0  0  0  0  0  0  0  0  0  0  0
   19.3414   70.9513   -9.5982 O   0  0  0  0  0  0  0  0  0  0  0  0
   17.9417   70.6799   -5.7918 N   0  0  0  0  0  0  0  0  0  0  0  0
   17.6359   70.4075   -8.1324 N   0  0  0  0  0  0  0  0  0  0  0  0
   17.0868   70.2879   -6.8490 C   0  0  0  0  0  0  0  0  0  0  0  0
   19.2223   71.1446   -6.0659 C   0  0  0  0  0  0  0  0  0  0  0  0
   19.7316   71.2531   -7.2945 C   0  0  0  0  0  0  0  0  0  0  0  0
   18.9039   70.8635   -8.4549 C   0  0  0  0  0  0  0  0  0  0  0  0
   17.0603   70.1387   -8.8845 H   0  0  0  0  0  0  0  0  0  0  0  0
   21.0002   74.0034    0.0423 O   0  0  0  0  0  0  0  0  0  0  0  0
   21.8773   74.6407    1.2416 P   0  0  2  0  0  0  0  0  0  0  0  0
   20.7551   75.1322    2.2996 O   0  0  0  0  0  0  0  0  0  0  0  0
   22.8284   75.7169    0.8043 O   0  0  0  0  0  0  0  0  0  0  0  0
   22.5801   73.3744    1.9522 O   0  0  0  0  0  0  0  0  0  0  0  0
   21.6032   71.2223    1.7992 O   0  0  0  0  0  0  0  0  0  0  0  0
   24.1657   70.7564    5.0062 O   0  0  0  0  0  0  0  0  0  0  0  0
   22.5693   73.1870    4.7272 O   0  0  0  0  0  0  0  0  0  0  0  0
   24.8545   69.6367    2.4133 O   0  0  0  0  0  0  0  0  0  0  0  0
   23.7253   71.2877    3.7565 C   0  0  2  0  0  0  0  0  0  0  0  0
   22.3912   72.0092    3.9489 C   0  0  2  0  0  0  0  0  0  0  0  0
   23.5639   70.1224    2.7777 C   0  0  1  0  0  0  0  0  0  0  0  0
   21.7764   72.3909    2.6016 C   0  0  1  0  0  0  0  0  0  0  0  0
   22.8305   70.5558    1.5117 C   0  0  1  0  0  0  0  0  0  0  0  0
   24.2753   71.4789    5.6444 H   0  0  0  0  0  0  0  0  0  0  0  0
   22.9594   72.9523    5.5835 H   0  0  0  0  0  0  0  0  0  0  0  0
   25.3319   69.3577    3.2103 H   0  0  0  0  0  0  0  0  0  0  0  0
   21.0361   69.3071    0.6617 O   0  0  0  0  0  0  0  0  0  0  0  0
   23.1384   68.5578    0.1947 O   0  0  0  0  0  0  0  0  0  0  0  0
   22.3896   69.3673    0.7209 C   0  0  0  0  0  0  0  0  0  0  0  0
  1  4  1  0
  1 24  1  0
  1  2  1  6
  1  3  2  0
 25 28  1  0
 25 24  1  0
 25 26  1  1
 25 27  2  0
  6 11  1  0
  6 12  1  0
 29 36  1  0
 29 37  1  0
  9  7  1  6
  7 13  1  0
 10  8  1  1
  8 14  1  0
  4  5  1  0
 36 28  1  6
 33 30  1  1
 30 38  1  0
 34 31  1  1
 31 39  1  0
 35 32  1  6
 32 40  1  0
 41 43  1  0
 15 19  2  0
 42 43  2  0
 16 22  2  0
 12 17  1  6
 17 19  1  0
 17 20  1  0
 18 19  1  0
 18 22  1  0
 18 23  1  0
  9 10  1  0
  9 11  1  0
 10 12  1  0
 11  5  1  6
 33 34  1  0
 33 35  1  0
 34 36  1  0
 35 37  1  0
 37 43  1  6
 20 21  2  0
 21 22  1  0
M  CHG  3   2  -1  26  -1  41  -1
M  END
>  <COMPND>  (64) 
    udp_gluA.pdb 

>  <AUTHOR>  (64) 
    GENERATED BY OPEN BABEL 3.1.1

>  <MASTER>  (64) 
        0    0    0    0    0    0    0    0   56    0   56    0

>  <minimizedAffinity>  (64) 
-8.11780

>  <CNNscore>  (64) 
0.6328943372

>  <CNNaffinity>  (64) 
4.5401439667

>  <CNN_VS>  (64) 
2.8734314442

>  <CNNaffinity_variance>  (64) 
0.0252195708

$$$$
65
     RDKit          3D

 43 45  0  0  0  0  0  0  0  0999 V2000
   21.8677   71.4938   -2.9995 P   0  0  2  0  0  0  0  0  0  0  0  0
   22.8568   72.1979   -1.9295 O   0  0  0  0  0  0  0  0  0  0  0  0
   22.0034   71.9893   -4.4094 O   0  0  0  0  0  0  0  0  0  0  0  0
   20.4005   71.6544   -2.3365 O   0  0  0  0  0  0  0  0  0  0  0  0
   19.5030   72.5932   -2.9000 C   0  0  0  0  0  0  0  0  0  0  0  0
   17.5062   72.0856   -4.1381 O   0  0  0  0  0  0  0  0  0  0  0  0
   16.7482   70.3234   -1.8334 O   0  0  0  0  0  0  0  0  0  0  0  0
   17.6868   68.5361   -3.6666 O   0  0  0  0  0  0  0  0  0  0  0  0
   18.0378   70.5764   -2.3915 C   0  0  1  0  0  0  0  0  0  0  0  0
   18.1868   69.8560   -3.7148 C   0  0  2  0  0  0  0  0  0  0  0  0
   18.0871   72.0376   -2.8169 C   0  0  1  0  0  0  0  0  0  0  0  0
   17.3910   70.7490   -4.6513 C   0  0  2  0  0  0  0  0  0  0  0  0
   16.6928   69.3957   -1.5541 H   0  0  0  0  0  0  0  0  0  0  0  0
   18.2270   68.0077   -3.0574 H   0  0  0  0  0  0  0  0  0  0  0  0
   15.8642   70.0124   -6.9103 O   0  0  0  0  0  0  0  0  0  0  0  0
   19.4257   70.6739   -9.7603 O   0  0  0  0  0  0  0  0  0  0  0  0
   17.8942   70.7199   -5.9955 N   0  0  0  0  0  0  0  0  0  0  0  0
   17.6398   70.3415   -8.3275 N   0  0  0  0  0  0  0  0  0  0  0  0
   17.0444   70.3349   -7.0592 C   0  0  0  0  0  0  0  0  0  0  0  0
   19.2144   71.0716   -6.2495 C   0  0  0  0  0  0  0  0  0  0  0  0
   19.7677   71.0731   -7.4639 C   0  0  0  0  0  0  0  0  0  0  0  0
   18.9481   70.6827   -8.6298 C   0  0  0  0  0  0  0  0  0  0  0  0
   17.0683   70.0752   -9.0837 H   0  0  0  0  0  0  0  0  0  0  0  0
   22.1839   69.9205   -2.8053 O   0  0  0  0  0  0  0  0  0  0  0  0
   23.3800   69.1672   -2.0207 P   0  0  2  0  0  0  0  0  0  0  0  0
   24.7135   69.7719   -2.7108 O   0  0  0  0  0  0  0  0  0  0  0  0
   23.2911   67.6689   -2.0548 O   0  0  0  0  0  0  0  0  0  0  0  0
   23.3631   69.8053   -0.5391 O   0  0  0  0  0  0  0  0  0  0  0  0
   23.5102   69.0660    1.7061 O   0  0  0  0  0  0  0  0  0  0  0  0
   20.2995   71.6598    1.8837 O   0  0  0  0  0  0  0  0  0  0  0  0
   20.5875   69.8113   -0.3601 O   0  0  0  0  0  0  0  0  0  0  0  0
   22.8882   72.4683    2.9306 O   0  0  0  0  0  0  0  0  0  0  0  0
   21.5512   71.1663    1.4067 C   0  0  2  0  0  0  0  0  0  0  0  0
   21.3623   69.7620    0.8323 C   0  0  2  0  0  0  0  0  0  0  0  0
   22.5265   71.1324    2.5855 C   0  0  1  0  0  0  0  0  0  0  0  0
   22.7114   69.1114    0.5232 C   0  0  1  0  0  0  0  0  0  0  0  0
   23.7945   70.3582    2.2374 C   0  0  1  0  0  0  0  0  0  0  0  0
   19.6635   71.6901    1.1517 H   0  0  0  0  0  0  0  0  0  0  0  0
   19.7302   70.2233   -0.1713 H   0  0  0  0  0  0  0  0  0  0  0  0
   22.0899   72.9720    3.1542 H   0  0  0  0  0  0  0  0  0  0  0  0
   24.7901   68.7135    3.5810 O   0  0  0  0  0  0  0  0  0  0  0  0
   24.9883   70.8784    4.2686 O   0  0  0  0  0  0  0  0  0  0  0  0
   24.5820   70.0488    3.4689 C   0  0  0  0  0  0  0  0  0  0  0  0
  1  4  1  0
  1 24  1  0
  1  2  1  1
  1  3  2  0
 25 28  1  0
 25 24  1  0
 25 26  1  6
 25 27  2  0
  6 11  1  0
  6 12  1  0
 29 36  1  0
 29 37  1  0
  9  7  1  6
  7 13  1  0
 10  8  1  1
  8 14  1  0
  4  5  1  0
 36 28  1  6
 33 30  1  1
 30 38  1  0
 34 31  1  6
 31 39  1  0
 35 32  1  6
 32 40  1  0
 41 43  1  0
 15 19  2  0
 42 43  2  0
 16 22  2  0
 12 17  1  6
 17 19  1  0
 17 20  1  0
 18 19  1  0
 18 22  1  0
 18 23  1  0
  9 10  1  0
  9 11  1  0
 10 12  1  0
 11  5  1  6
 33 34  1  0
 33 35  1  0
 34 36  1  0
 35 37  1  0
 37 43  1  1
 20 21  2  0
 21 22  1  0
M  CHG  3   2  -1  26  -1  41  -1
M  END
>  <COMPND>  (65) 
    udp_gluA.pdb 

>  <AUTHOR>  (65) 
    GENERATED BY OPEN BABEL 3.1.1

>  <MASTER>  (65) 
        0    0    0    0    0    0    0    0   56    0   56    0

>  <minimizedAffinity>  (65) 
-9.00776

>  <CNNscore>  (65) 
0.5287021399

>  <CNNaffinity>  (65) 
4.4916534424

>  <CNN_VS>  (65) 
2.3747467995

>  <CNNaffinity_variance>  (65) 
0.0538252816

$$$$
66
     RDKit          3D

 43 45  0  0  0  0  0  0  0  0999 V2000
   20.2844   74.6162   -4.1214 P   0  0  2  0  0  0  0  0  0  0  0  0
   20.7838   75.2475   -2.7175 O   0  0  0  0  0  0  0  0  0  0  0  0
   20.1834   75.5939   -5.2554 O   0  0  0  0  0  0  0  0  0  0  0  0
   18.9158   73.8443   -3.7353 O   0  0  0  0  0  0  0  0  0  0  0  0
   18.9079   73.0153   -2.5876 C   0  0  0  0  0  0  0  0  0  0  0  0
   17.1099   72.1175   -3.9062 O   0  0  0  0  0  0  0  0  0  0  0  0
   16.5175   70.3502   -1.5573 O   0  0  0  0  0  0  0  0  0  0  0  0
   17.8618   68.6761   -3.2384 O   0  0  0  0  0  0  0  0  0  0  0  0
   17.7781   70.7988   -2.0554 C   0  0  1  0  0  0  0  0  0  0  0  0
   18.1318   70.0594   -3.3284 C   0  0  2  0  0  0  0  0  0  0  0  0
   17.6049   72.2269   -2.5541 C   0  0  1  0  0  0  0  0  0  0  0  0
   17.2570   70.7605   -4.3537 C   0  0  2  0  0  0  0  0  0  0  0  0
   16.6031   69.4397   -1.2329 H   0  0  0  0  0  0  0  0  0  0  0  0
   18.4441   68.2757   -2.5731 H   0  0  0  0  0  0  0  0  0  0  0  0
   15.8852   70.0377   -6.7143 O   0  0  0  0  0  0  0  0  0  0  0  0
   19.6040   70.8031   -9.3273 O   0  0  0  0  0  0  0  0  0  0  0  0
   17.8427   70.7619   -5.6644 N   0  0  0  0  0  0  0  0  0  0  0  0
   17.7390   70.4186   -8.0133 N   0  0  0  0  0  0  0  0  0  0  0  0
   17.0666   70.3814   -6.7847 C   0  0  0  0  0  0  0  0  0  0  0  0
   19.1698   71.1386   -5.8306 C   0  0  0  0  0  0  0  0  0  0  0  0
   19.7969   71.1692   -7.0081 C   0  0  0  0  0  0  0  0  0  0  0  0
   19.0576   70.7855   -8.2286 C   0  0  0  0  0  0  0  0  0  0  0  0
   17.2198   70.1560   -8.8076 H   0  0  0  0  0  0  0  0  0  0  0  0
   21.3274   73.4060   -4.3666 O   0  0  0  0  0  0  0  0  0  0  0  0
   22.5950   72.9047   -3.4973 P   0  0  2  0  0  0  0  0  0  0  0  0
   23.2130   74.2831   -2.9156 O   0  0  0  0  0  0  0  0  0  0  0  0
   23.5737   72.0634   -4.2644 O   0  0  0  0  0  0  0  0  0  0  0  0
   21.9474   72.1748   -2.2127 O   0  0  0  0  0  0  0  0  0  0  0  0
   22.5429   72.8886   -0.0345 O   0  0  0  0  0  0  0  0  0  0  0  0
   20.8890   69.1786    0.7195 O   0  0  0  0  0  0  0  0  0  0  0  0
   22.6715   69.5694   -1.5618 O   0  0  0  0  0  0  0  0  0  0  0  0
   19.3871   71.5947    1.3178 O   0  0  0  0  0  0  0  0  0  0  0  0
   21.0491   70.4182    0.0298 C   0  0  2  0  0  0  0  0  0  0  0  0
   22.4722   70.5179   -0.5200 C   0  0  2  0  0  0  0  0  0  0  0  0
   20.7822   71.5505    1.0241 C   0  0  1  0  0  0  0  0  0  0  0  0
   22.7520   71.9200   -1.0628 C   0  0  1  0  0  0  0  0  0  0  0  0
   21.2039   72.9023    0.4554 C   0  0  1  0  0  0  0  0  0  0  0  0
   21.0538   68.4442    0.1074 H   0  0  0  0  0  0  0  0  0  0  0  0
   22.4953   68.6774   -1.2245 H   0  0  0  0  0  0  0  0  0  0  0  0
   19.1057   70.7401    1.6804 H   0  0  0  0  0  0  0  0  0  0  0  0
   21.2639   73.3576    2.7556 O   0  0  0  0  0  0  0  0  0  0  0  0
   21.2760   75.1456    1.3407 O   0  0  0  0  0  0  0  0  0  0  0  0
   21.2506   73.9388    1.5305 C   0  0  0  0  0  0  0  0  0  0  0  0
  1  4  1  0
  1 24  1  0
  1  2  1  1
  1  3  2  0
 25 28  1  0
 25 24  1  0
 25 26  1  1
 25 27  2  0
  6 11  1  0
  6 12  1  0
 29 36  1  0
 29 37  1  0
  9  7  1  6
  7 13  1  0
 10  8  1  1
  8 14  1  0
  4  5  1  0
 36 28  1  6
 33 30  1  1
 30 38  1  0
 34 31  1  6
 31 39  1  0
 35 32  1  6
 32 40  1  0
 41 43  1  0
 15 19  2  0
 42 43  2  0
 16 22  2  0
 12 17  1  6
 17 19  1  0
 17 20  1  0
 18 19  1  0
 18 22  1  0
 18 23  1  0
  9 10  1  0
  9 11  1  0
 10 12  1  0
 11  5  1  6
 33 34  1  0
 33 35  1  0
 34 36  1  0
 35 37  1  0
 37 43  1  1
 20 21  2  0
 21 22  1  0
M  CHG  3   2  -1  26  -1  41  -1
M  END
>  <COMPND>  (66) 
    udp_gluA.pdb 

>  <AUTHOR>  (66) 
    GENERATED BY OPEN BABEL 3.1.1

>  <MASTER>  (66) 
        0    0    0    0    0    0    0    0   56    0   56    0

>  <minimizedAffinity>  (66) 
-7.19295

>  <CNNscore>  (66) 
0.4921521246

>  <CNNaffinity>  (66) 
4.3493528366

>  <CNN_VS>  (66) 
2.1405432224

>  <CNNaffinity_variance>  (66) 
0.2656796575

$$$$
67
     RDKit          3D

 43 45  0  0  0  0  0  0  0  0999 V2000
   18.4345   74.5888    0.5354 P   0  0  2  0  0  0  0  0  0  0  0  0
   16.8852   74.6626    0.9971 O   0  0  0  0  0  0  0  0  0  0  0  0
   19.0838   75.9176    0.2812 O   0  0  0  0  0  0  0  0  0  0  0  0
   18.4185   73.5637   -0.7163 O   0  0  0  0  0  0  0  0  0  0  0  0
   17.3324   72.6639   -0.8394 C   0  0  0  0  0  0  0  0  0  0  0  0
   17.1826   70.3947   -1.6181 O   0  0  0  0  0  0  0  0  0  0  0  0
   19.7985   69.9401   -0.2246 O   0  0  0  0  0  0  0  0  0  0  0  0
   20.5513   70.2109   -2.8315 O   0  0  0  0  0  0  0  0  0  0  0  0
   19.3349   71.0968   -0.9215 C   0  0  1  0  0  0  0  0  0  0  0  0
   19.3654   70.8556   -2.4159 C   0  0  2  0  0  0  0  0  0  0  0  0
   17.8433   71.2411   -0.6524 C   0  0  1  0  0  0  0  0  0  0  0  0
   18.1297   69.9962   -2.6219 C   0  0  2  0  0  0  0  0  0  0  0  0
   20.7494   69.8272   -0.3814 H   0  0  0  0  0  0  0  0  0  0  0  0
   21.3088   70.7985   -2.6801 H   0  0  0  0  0  0  0  0  0  0  0  0
   16.7063   68.0041   -4.0297 O   0  0  0  0  0  0  0  0  0  0  0  0
   15.9196   70.8242   -7.5895 O   0  0  0  0  0  0  0  0  0  0  0  0
   17.5423   70.1829   -3.9184 N   0  0  0  0  0  0  0  0  0  0  0  0
   16.3167   69.4103   -5.8018 N   0  0  0  0  0  0  0  0  0  0  0  0
   16.8481   69.1175   -4.5389 C   0  0  0  0  0  0  0  0  0  0  0  0
   17.6551   71.4100   -4.5608 C   0  0  0  0  0  0  0  0  0  0  0  0
   17.1432   71.6740   -5.7645 C   0  0  0  0  0  0  0  0  0  0  0  0
   16.4035   70.6145   -6.4813 C   0  0  0  0  0  0  0  0  0  0  0  0
   15.8308   68.6834   -6.2544 H   0  0  0  0  0  0  0  0  0  0  0  0
   19.1222   73.7171    1.7102 O   0  0  0  0  0  0  0  0  0  0  0  0
   19.4307   74.0757    3.2562 P   0  0  2  0  0  0  0  0  0  0  0  0
   18.2648   73.2895    4.0580 O   0  0  0  0  0  0  0  0  0  0  0  0
   19.4959   75.5474    3.5457 O   0  0  0  0  0  0  0  0  0  0  0  0
   20.7814   73.2647    3.6028 O   0  0  0  0  0  0  0  0  0  0  0  0
   22.9411   74.0587    3.0421 O   0  0  0  0  0  0  0  0  0  0  0  0
   23.6182   70.0047    3.4596 O   0  0  0  0  0  0  0  0  0  0  0  0
   21.2263   70.9733    2.0903 O   0  0  0  0  0  0  0  0  0  0  0  0
   24.4685   71.8480    5.5404 O   0  0  0  0  0  0  0  0  0  0  0  0
   22.9878   71.2557    3.7344 C   0  0  2  0  0  0  0  0  0  0  0  0
   22.3318   71.7890    2.4605 C   0  0  2  0  0  0  0  0  0  0  0  0
   24.0617   72.2282    4.2273 C   0  0  1  0  0  0  0  0  0  0  0  0
   21.8470   73.2263    2.6553 C   0  0  1  0  0  0  0  0  0  0  0  0
   23.5370   73.6603    4.2746 C   0  0  1  0  0  0  0  0  0  0  0  0
   22.9549   69.3705    3.1447 H   0  0  0  0  0  0  0  0  0  0  0  0
   21.5266   70.0597    1.9653 H   0  0  0  0  0  0  0  0  0  0  0  0
   24.8045   70.9382    5.5242 H   0  0  0  0  0  0  0  0  0  0  0  0
   24.7586   75.4331    3.3437 O   0  0  0  0  0  0  0  0  0  0  0  0
   25.3936   74.7036    5.4086 O   0  0  0  0  0  0  0  0  0  0  0  0
   24.6607   74.6321    4.4335 C   0  0  0  0  0  0  0  0  0  0  0  0
  1  4  1  0
  1 24  1  0
  1  2  1  1
  1  3  2  0
 25 28  1  0
 25 24  1  0
 25 26  1  1
 25 27  2  0
  6 11  1  0
  6 12  1  0
 29 36  1  0
 29 37  1  0
  9  7  1  1
  7 13  1  0
 10  8  1  1
  8 14  1  0
  4  5  1  0
 36 28  1  1
 33 30  1  6
 30 38  1  0
 34 31  1  1
 31 39  1  0
 35 32  1  1
 32 40  1  0
 41 43  1  0
 15 19  2  0
 42 43  2  0
 16 22  2  0
 12 17  1  6
 17 19  1  0
 17 20  1  0
 18 19  1  0
 18 22  1  0
 18 23  1  0
  9 10  1  0
  9 11  1  0
 10 12  1  0
 11  5  1  6
 33 34  1  0
 33 35  1  0
 34 36  1  0
 35 37  1  0
 37 43  1  6
 20 21  2  0
 21 22  1  0
M  CHG  3   2  -1  26  -1  41  -1
M  END
>  <COMPND>  (67) 
    udp_gluA.pdb 

>  <AUTHOR>  (67) 
    GENERATED BY OPEN BABEL 3.1.1

>  <MASTER>  (67) 
        0    0    0    0    0    0    0    0   56    0   56    0

>  <minimizedAffinity>  (67) 
-6.98759

>  <CNNscore>  (67) 
0.4451380074

>  <CNNaffinity>  (67) 
4.1449203491

>  <CNN_VS>  (67) 
1.8450615406

>  <CNNaffinity_variance>  (67) 
0.1611128896

$$$$
68
     RDKit          3D

 43 45  0  0  0  0  0  0  0  0999 V2000
   22.1826   72.7927   -1.9789 P   0  0  2  0  0  0  0  0  0  0  0  0
   22.7157   71.3004   -1.6508 O   0  0  0  0  0  0  0  0  0  0  0  0
   23.2580   73.8088   -2.2296 O   0  0  0  0  0  0  0  0  0  0  0  0
   21.1752   73.1229   -0.7566 O   0  0  0  0  0  0  0  0  0  0  0  0
   20.1568   72.1888   -0.4487 C   0  0  0  0  0  0  0  0  0  0  0  0
   20.0387   71.6250    1.8850 O   0  0  0  0  0  0  0  0  0  0  0  0
   18.9399   74.3833    2.3048 O   0  0  0  0  0  0  0  0  0  0  0  0
   21.5453   74.6583    3.0613 O   0  0  0  0  0  0  0  0  0  0  0  0
   19.9375   73.9382    1.3854 C   0  0  1  0  0  0  0  0  0  0  0  0
   21.2343   73.6576    2.1145 C   0  0  2  0  0  0  0  0  0  0  0  0
   19.5406   72.5521    0.8962 C   0  0  1  0  0  0  0  0  0  0  0  0
   20.9491   72.3115    2.7585 C   0  0  2  0  0  0  0  0  0  0  0  0
   19.1718   75.2672    2.6312 H   0  0  0  0  0  0  0  0  0  0  0  0
   21.7188   75.4954    2.6018 H   0  0  0  0  0  0  0  0  0  0  0  0
   22.6776   72.4486    4.9879 O   0  0  0  0  0  0  0  0  0  0  0  0
   25.4679   69.2159    3.2537 O   0  0  0  0  0  0  0  0  0  0  0  0
   22.1344   71.5170    2.9154 N   0  0  0  0  0  0  0  0  0  0  0  0
   24.0662   70.8392    4.1216 N   0  0  0  0  0  0  0  0  0  0  0  0
   22.9339   71.6629    4.0736 C   0  0  0  0  0  0  0  0  0  0  0  0
   22.4934   70.6049    1.9303 C   0  0  0  0  0  0  0  0  0  0  0  0
   23.5756   69.8265    1.9902 C   0  0  0  0  0  0  0  0  0  0  0  0
   24.4649   69.9177    3.1668 C   0  0  0  0  0  0  0  0  0  0  0  0
   24.6395   70.9244    4.9175 H   0  0  0  0  0  0  0  0  0  0  0  0
   21.1785   72.5540   -3.2230 O   0  0  0  0  0  0  0  0  0  0  0  0
   21.1397   73.2154   -4.6977 P   0  0  2  0  0  0  0  0  0  0  0  0
   22.4041   72.5322   -5.4428 O   0  0  0  0  0  0  0  0  0  0  0  0
   21.1577   74.7166   -4.7000 O   0  0  0  0  0  0  0  0  0  0  0  0
   19.8469   72.5602   -5.4062 O   0  0  0  0  0  0  0  0  0  0  0  0
   19.4482   70.3227   -4.7400 O   0  0  0  0  0  0  0  0  0  0  0  0
   16.7134   70.7885   -7.8013 O   0  0  0  0  0  0  0  0  0  0  0  0
   19.4226   71.8500   -8.0617 O   0  0  0  0  0  0  0  0  0  0  0  0
   15.8245   70.8174   -5.0337 O   0  0  0  0  0  0  0  0  0  0  0  0
   17.5205   71.2058   -6.7003 C   0  0  2  0  0  0  0  0  0  0  0  0
   18.9951   70.9701   -7.0284 C   0  0  2  0  0  0  0  0  0  0  0  0
   17.1101   70.3854   -5.4753 C   0  0  1  0  0  0  0  0  0  0  0  0
   19.8718   71.1878   -5.7944 C   0  0  1  0  0  0  0  0  0  0  0  0
   18.1033   70.5596   -4.3300 C   0  0  1  0  0  0  0  0  0  0  0  0
   16.9565   71.2963   -8.5915 H   0  0  0  0  0  0  0  0  0  0  0  0
   18.8704   71.7174   -8.8477 H   0  0  0  0  0  0  0  0  0  0  0  0
   15.1830   70.7119   -5.7535 H   0  0  0  0  0  0  0  0  0  0  0  0
   17.0837   68.5314   -3.7396 O   0  0  0  0  0  0  0  0  0  0  0  0
   18.3633   69.5531   -2.1527 O   0  0  0  0  0  0  0  0  0  0  0  0
   17.8859   69.5221   -3.2770 C   0  0  0  0  0  0  0  0  0  0  0  0
  1  4  1  0
  1 24  1  0
  1  2  1  1
  1  3  2  0
 25 28  1  0
 25 24  1  0
 25 26  1  6
 25 27  2  0
  6 11  1  0
  6 12  1  0
 29 36  1  0
 29 37  1  0
  9  7  1  1
  7 13  1  0
 10  8  1  1
  8 14  1  0
  4  5  1  0
 36 28  1  1
 33 30  1  6
 30 38  1  0
 34 31  1  6
 31 39  1  0
 35 32  1  1
 32 40  1  0
 41 43  1  0
 15 19  2  0
 42 43  2  0
 16 22  2  0
 12 17  1  6
 17 19  1  0
 17 20  1  0
 18 19  1  0
 18 22  1  0
 18 23  1  0
  9 10  1  0
  9 11  1  0
 10 12  1  0
 11  5  1  6
 33 34  1  0
 33 35  1  0
 34 36  1  0
 35 37  1  0
 37 43  1  1
 20 21  2  0
 21 22  1  0
M  CHG  3   2  -1  26  -1  41  -1
M  END
>  <COMPND>  (68) 
    udp_gluA.pdb 

>  <AUTHOR>  (68) 
    GENERATED BY OPEN BABEL 3.1.1

>  <MASTER>  (68) 
        0    0    0    0    0    0    0    0   56    0   56    0

>  <minimizedAffinity>  (68) 
-7.35667

>  <CNNscore>  (68) 
0.4341545999

>  <CNNaffinity>  (68) 
4.0061225891

>  <CNN_VS>  (68) 
1.7392765284

>  <CNNaffinity_variance>  (68) 
0.2300582230

$$$$
69
     RDKit          3D

 43 45  0  0  0  0  0  0  0  0999 V2000
   20.9411   70.6512   -0.3201 P   0  0  2  0  0  0  0  0  0  0  0  0
   21.9799   69.4105   -0.3408 O   0  0  0  0  0  0  0  0  0  0  0  0
   21.4083   71.8808   -1.0423 O   0  0  0  0  0  0  0  0  0  0  0  0
   20.5991   70.8455    1.2493 O   0  0  0  0  0  0  0  0  0  0  0  0
   21.1376   71.9672    1.9248 C   0  0  0  0  0  0  0  0  0  0  0  0
   23.1919   73.0455    2.5532 O   0  0  0  0  0  0  0  0  0  0  0  0
   24.4502   70.3285    2.3934 O   0  0  0  0  0  0  0  0  0  0  0  0
   24.0892   70.6611    5.0758 O   0  0  0  0  0  0  0  0  0  0  0  0
   23.1431   70.6943    2.8361 C   0  0  1  0  0  0  0  0  0  0  0  0
   23.2150   71.3440    4.2018 C   0  0  2  0  0  0  0  0  0  0  0  0
   22.6553   71.8420    1.9626 C   0  0  1  0  0  0  0  0  0  0  0  0
   23.7030   72.7417    3.8608 C   0  0  2  0  0  0  0  0  0  0  0  0
   24.7830   69.5966    2.9368 H   0  0  0  0  0  0  0  0  0  0  0  0
   23.7345   69.7772    5.2624 H   0  0  0  0  0  0  0  0  0  0  0  0
   25.3689   74.5294    5.2770 O   0  0  0  0  0  0  0  0  0  0  0  0
   21.7743   76.4886    7.3946 O   0  0  0  0  0  0  0  0  0  0  0  0
   23.2288   73.7292    4.7886 N   0  0  0  0  0  0  0  0  0  0  0  0
   23.5771   75.5028    6.3311 N   0  0  0  0  0  0  0  0  0  0  0  0
   24.1493   74.5780    5.4477 C   0  0  0  0  0  0  0  0  0  0  0  0
   21.8669   73.8508    5.0363 C   0  0  0  0  0  0  0  0  0  0  0  0
   21.3365   74.7372    5.8810 C   0  0  0  0  0  0  0  0  0  0  0  0
   22.2294   75.6610    6.6109 C   0  0  0  0  0  0  0  0  0  0  0  0
   24.1982   76.1033    6.8033 H   0  0  0  0  0  0  0  0  0  0  0  0
   19.5848   69.9986   -0.9095 O   0  0  0  0  0  0  0  0  0  0  0  0
   18.2524   70.6856   -1.5149 P   0  0  2  0  0  0  0  0  0  0  0  0
   18.0977   72.0337   -0.6324 O   0  0  0  0  0  0  0  0  0  0  0  0
   17.0422   69.7971   -1.5041 O   0  0  0  0  0  0  0  0  0  0  0  0
   18.6886   71.2049   -2.9786 O   0  0  0  0  0  0  0  0  0  0  0  0
   18.0414   69.9777   -4.8980 O   0  0  0  0  0  0  0  0  0  0  0  0
   21.0732   72.3488   -6.3992 O   0  0  0  0  0  0  0  0  0  0  0  0
   21.3472   71.0732   -3.7854 O   0  0  0  0  0  0  0  0  0  0  0  0
   18.2975   72.9864   -6.9823 O   0  0  0  0  0  0  0  0  0  0  0  0
   19.9753   72.0213   -5.5476 C   0  0  2  0  0  0  0  0  0  0  0  0
   20.3190   70.7797   -4.7242 C   0  0  2  0  0  0  0  0  0  0  0  0
   18.7550   71.7529   -6.4312 C   0  0  1  0  0  0  0  0  0  0  0  0
   19.0908   70.2644   -3.9728 C   0  0  1  0  0  0  0  0  0  0  0  0
   17.6169   71.1234   -5.6330 C   0  0  1  0  0  0  0  0  0  0  0  0
   21.8603   72.5235   -5.8596 H   0  0  0  0  0  0  0  0  0  0  0  0
   22.1295   71.4011   -4.2553 H   0  0  0  0  0  0  0  0  0  0  0  0
   19.0126   73.3974   -7.4927 H   0  0  0  0  0  0  0  0  0  0  0  0
   16.2162   69.3177   -6.1612 O   0  0  0  0  0  0  0  0  0  0  0  0
   16.0977   71.1544   -7.5072 O   0  0  0  0  0  0  0  0  0  0  0  0
   16.5725   70.5683   -6.5459 C   0  0  0  0  0  0  0  0  0  0  0  0
  1  4  1  0
  1 24  1  0
  1  2  1  1
  1  3  2  0
 25 28  1  0
 25 24  1  0
 25 26  1  1
 25 27  2  0
  6 11  1  0
  6 12  1  0
 29 36  1  0
 29 37  1  0
  9  7  1  6
  7 13  1  0
 10  8  1  1
  8 14  1  0
  4  5  1  0
 36 28  1  1
 33 30  1  6
 30 38  1  0
 34 31  1  1
 31 39  1  0
 35 32  1  1
 32 40  1  0
 41 43  1  0
 15 19  2  0
 42 43  2  0
 16 22  2  0
 12 17  1  1
 17 19  1  0
 17 20  1  0
 18 19  1  0
 18 22  1  0
 18 23  1  0
  9 10  1  0
  9 11  1  0
 10 12  1  0
 11  5  1  1
 33 34  1  0
 33 35  1  0
 34 36  1  0
 35 37  1  0
 37 43  1  6
 20 21  2  0
 21 22  1  0
M  CHG  3   2  -1  26  -1  41  -1
M  END
>  <COMPND>  (69) 
    udp_gluA.pdb 

>  <AUTHOR>  (69) 
    GENERATED BY OPEN BABEL 3.1.1

>  <MASTER>  (69) 
        0    0    0    0    0    0    0    0   56    0   56    0

>  <minimizedAffinity>  (69) 
-7.71219

>  <CNNscore>  (69) 
0.4188095629

>  <CNNaffinity>  (69) 
3.9928295612

>  <CNN_VS>  (69) 
1.6722352505

>  <CNNaffinity_variance>  (69) 
0.1169071943

$$$$
70
     RDKit          3D

 43 45  0  0  0  0  0  0  0  0999 V2000
   20.8321   71.1435   -0.6752 P   0  0  2  0  0  0  0  0  0  0  0  0
   20.2085   69.8596    0.0874 O   0  0  0  0  0  0  0  0  0  0  0  0
   22.3137   71.0852   -0.9063 O   0  0  0  0  0  0  0  0  0  0  0  0
   20.3053   72.4040    0.1917 O   0  0  0  0  0  0  0  0  0  0  0  0
   21.1004   73.5746    0.2347 C   0  0  0  0  0  0  0  0  0  0  0  0
   21.1065   73.2300    2.6135 O   0  0  0  0  0  0  0  0  0  0  0  0
   21.4492   76.1991    2.8555 O   0  0  0  0  0  0  0  0  0  0  0  0
   23.9812   75.2718    3.2624 O   0  0  0  0  0  0  0  0  0  0  0  0
   21.9821   75.3046    1.8786 C   0  0  1  0  0  0  0  0  0  0  0  0
   23.1092   74.4882    2.4748 C   0  0  2  0  0  0  0  0  0  0  0  0
   20.9322   74.2389    1.5952 C   0  0  1  0  0  0  0  0  0  0  0  0
   22.3524   73.4552    3.2920 C   0  0  2  0  0  0  0  0  0  0  0  0
   22.1023   76.8891    3.0530 H   0  0  0  0  0  0  0  0  0  0  0  0
   24.4393   75.9136    2.6964 H   0  0  0  0  0  0  0  0  0  0  0  0
   24.1536   72.8095    5.3693 O   0  0  0  0  0  0  0  0  0  0  0  0
   25.0128   68.6503    3.5786 O   0  0  0  0  0  0  0  0  0  0  0  0
   23.0606   72.2105    3.3932 N   0  0  0  0  0  0  0  0  0  0  0  0
   24.5806   70.7390    4.4749 N   0  0  0  0  0  0  0  0  0  0  0  0
   23.9427   71.9864    4.4766 C   0  0  0  0  0  0  0  0  0  0  0  0
   22.8772   71.2278    2.4281 C   0  0  0  0  0  0  0  0  0  0  0  0
   23.4923   70.0436    2.4400 C   0  0  0  0  0  0  0  0  0  0  0  0
   24.4310   69.7301    3.5372 C   0  0  0  0  0  0  0  0  0  0  0  0
   25.2011   70.5607    5.2182 H   0  0  0  0  0  0  0  0  0  0  0  0
   19.9434   71.2322   -2.0225 O   0  0  0  0  0  0  0  0  0  0  0  0
   20.1719   72.0602   -3.3921 P   0  0  2  0  0  0  0  0  0  0  0  0
   21.5290   71.4138   -3.9930 O   0  0  0  0  0  0  0  0  0  0  0  0
   20.2243   73.5495   -3.2100 O   0  0  0  0  0  0  0  0  0  0  0  0
   19.0044   71.5472   -4.3801 O   0  0  0  0  0  0  0  0  0  0  0  0
   17.0367   72.7504   -4.9181 O   0  0  0  0  0  0  0  0  0  0  0  0
   15.8351   68.8485   -5.5496 O   0  0  0  0  0  0  0  0  0  0  0  0
   17.4658   69.5381   -3.2258 O   0  0  0  0  0  0  0  0  0  0  0  0
   16.4263   70.5773   -7.8107 O   0  0  0  0  0  0  0  0  0  0  0  0
   16.7564   69.9383   -5.5112 C   0  0  2  0  0  0  0  0  0  0  0  0
   16.8430   70.4852   -4.0861 C   0  0  2  0  0  0  0  0  0  0  0  0
   16.2487   71.0206   -6.4667 C   0  0  1  0  0  0  0  0  0  0  0  0
   17.6386   71.7907   -4.0485 C   0  0  1  0  0  0  0  0  0  0  0  0
   17.0100   72.3299   -6.2803 C   0  0  1  0  0  0  0  0  0  0  0  0
   16.1372   68.1482   -4.9498 H   0  0  0  0  0  0  0  0  0  0  0  0
   16.9663   68.7072   -3.2450 H   0  0  0  0  0  0  0  0  0  0  0  0
   15.9469   69.7445   -7.9425 H   0  0  0  0  0  0  0  0  0  0  0  0
   16.7983   74.6498   -6.5539 O   0  0  0  0  0  0  0  0  0  0  0  0
   15.4088   73.3262   -7.7854 O   0  0  0  0  0  0  0  0  0  0  0  0
   16.3052   73.4553   -6.9650 C   0  0  0  0  0  0  0  0  0  0  0  0
  1  4  1  0
  1 24  1  0
  1  2  1  1
  1  3  2  0
 25 28  1  0
 25 24  1  0
 25 26  1  6
 25 27  2  0
  6 11  1  0
  6 12  1  0
 29 36  1  0
 29 37  1  0
  9  7  1  1
  7 13  1  0
 10  8  1  1
  8 14  1  0
  4  5  1  0
 36 28  1  6
 33 30  1  1
 30 38  1  0
 34 31  1  1
 31 39  1  0
 35 32  1  6
 32 40  1  0
 41 43  1  0
 15 19  2  0
 42 43  2  0
 16 22  2  0
 12 17  1  6
 17 19  1  0
 17 20  1  0
 18 19  1  0
 18 22  1  0
 18 23  1  0
  9 10  1  0
  9 11  1  0
 10 12  1  0
 11  5  1  6
 33 34  1  0
 33 35  1  0
 34 36  1  0
 35 37  1  0
 37 43  1  6
 20 21  2  0
 21 22  1  0
M  CHG  3   2  -1  26  -1  41  -1
M  END
>  <COMPND>  (70) 
    udp_gluA.pdb 

>  <AUTHOR>  (70) 
    GENERATED BY OPEN BABEL 3.1.1

>  <MASTER>  (70) 
        0    0    0    0    0    0    0    0   56    0   56    0

>  <minimizedAffinity>  (70) 
-7.11859

>  <CNNscore>  (70) 
0.4135565460

>  <CNNaffinity>  (70) 
3.9955565929

>  <CNN_VS>  (70) 
1.6523885727

>  <CNNaffinity_variance>  (70) 
0.1590662152

$$$$
71
     RDKit          3D

 43 45  0  0  0  0  0  0  0  0999 V2000
   18.6680   70.4304   -2.0746 P   0  0  2  0  0  0  0  0  0  0  0  0
   17.4097   69.4591   -1.7710 O   0  0  0  0  0  0  0  0  0  0  0  0
   19.4699   70.0672   -3.2898 O   0  0  0  0  0  0  0  0  0  0  0  0
   19.4833   70.4583   -0.6773 O   0  0  0  0  0  0  0  0  0  0  0  0
   20.2816   71.5899   -0.3828 C   0  0  0  0  0  0  0  0  0  0  0  0
   20.2996   71.4653    2.0176 O   0  0  0  0  0  0  0  0  0  0  0  0
   19.3755   74.3178    1.9869 O   0  0  0  0  0  0  0  0  0  0  0  0
   22.0384   74.5599    2.5222 O   0  0  0  0  0  0  0  0  0  0  0  0
   20.2818   73.6520    1.1072 C   0  0  1  0  0  0  0  0  0  0  0  0
   21.6108   73.4263    1.7964 C   0  0  2  0  0  0  0  0  0  0  0  0
   19.7811   72.2282    0.9065 C   0  0  1  0  0  0  0  0  0  0  0  0
   21.3033   72.2394    2.6934 C   0  0  2  0  0  0  0  0  0  0  0  0
   19.6747   75.2297    2.1303 H   0  0  0  0  0  0  0  0  0  0  0  0
   22.2216   75.2876    1.9067 H   0  0  0  0  0  0  0  0  0  0  0  0
   22.9605   72.4103    4.9740 O   0  0  0  0  0  0  0  0  0  0  0  0
   25.6934   69.0184    3.4674 O   0  0  0  0  0  0  0  0  0  0  0  0
   22.4546   71.4130    2.9226 N   0  0  0  0  0  0  0  0  0  0  0  0
   24.3207   70.7214    4.2210 N   0  0  0  0  0  0  0  0  0  0  0  0
   23.2197   71.5797    4.1011 C   0  0  0  0  0  0  0  0  0  0  0  0
   22.8143   70.4500    1.9877 C   0  0  0  0  0  0  0  0  0  0  0  0
   23.8664   69.6392    2.1159 C   0  0  0  0  0  0  0  0  0  0  0  0
   24.7187   69.7489    3.3180 C   0  0  0  0  0  0  0  0  0  0  0  0
   24.8697   70.8201    5.0322 H   0  0  0  0  0  0  0  0  0  0  0  0
   17.9898   71.8967   -2.1290 O   0  0  0  0  0  0  0  0  0  0  0  0
   16.5933   72.3971   -2.7718 P   0  0  2  0  0  0  0  0  0  0  0  0
   16.0048   73.3982   -1.6441 O   0  0  0  0  0  0  0  0  0  0  0  0
   15.6610   71.2862   -3.1599 O   0  0  0  0  0  0  0  0  0  0  0  0
   17.0260   73.3638   -3.9886 O   0  0  0  0  0  0  0  0  0  0  0  0
   17.9819   71.7772   -5.4645 O   0  0  0  0  0  0  0  0  0  0  0  0
   17.6683   75.1036   -7.8945 O   0  0  0  0  0  0  0  0  0  0  0  0
   18.5786   75.3688   -5.1312 O   0  0  0  0  0  0  0  0  0  0  0  0
   15.7935   72.9011   -8.1866 O   0  0  0  0  0  0  0  0  0  0  0  0
   17.2905   74.2217   -6.8374 C   0  0  2  0  0  0  0  0  0  0  0  0
   18.4248   74.1312   -5.8163 C   0  0  2  0  0  0  0  0  0  0  0  0
   17.0115   72.8457   -7.4464 C   0  0  1  0  0  0  0  0  0  0  0  0
   18.1539   73.0264   -4.7941 C   0  0  1  0  0  0  0  0  0  0  0  0
   16.8780   71.7754   -6.3669 C   0  0  1  0  0  0  0  0  0  0  0  0
   17.8506   75.9845   -7.5312 H   0  0  0  0  0  0  0  0  0  0  0  0
   18.7504   76.0744   -5.7738 H   0  0  0  0  0  0  0  0  0  0  0  0
   15.8652   73.5787   -8.8769 H   0  0  0  0  0  0  0  0  0  0  0  0
   17.7188   70.4034   -8.0734 O   0  0  0  0  0  0  0  0  0  0  0  0
   16.3635   69.4234   -6.5236 O   0  0  0  0  0  0  0  0  0  0  0  0
   16.9364   70.4079   -6.9658 C   0  0  0  0  0  0  0  0  0  0  0  0
  1  4  1  0
  1 24  1  0
  1  2  1  1
  1  3  2  0
 25 28  1  0
 25 24  1  0
 25 26  1  1
 25 27  2  0
  6 11  1  0
  6 12  1  0
 29 36  1  0
 29 37  1  0
  9  7  1  1
  7 13  1  0
 10  8  1  1
  8 14  1  0
  4  5  1  0
 36 28  1  6
 33 30  1  6
 30 38  1  0
 34 31  1  1
 31 39  1  0
 35 32  1  1
 32 40  1  0
 41 43  1  0
 15 19  2  0
 42 43  2  0
 16 22  2  0
 12 17  1  6
 17 19  1  0
 17 20  1  0
 18 19  1  0
 18 22  1  0
 18 23  1  0
  9 10  1  0
  9 11  1  0
 10 12  1  0
 11  5  1  6
 33 34  1  0
 33 35  1  0
 34 36  1  0
 35 37  1  0
 37 43  1  6
 20 21  2  0
 21 22  1  0
M  CHG  3   2  -1  26  -1  41  -1
M  END
>  <COMPND>  (71) 
    udp_gluA.pdb 

>  <AUTHOR>  (71) 
    GENERATED BY OPEN BABEL 3.1.1

>  <MASTER>  (71) 
        0    0    0    0    0    0    0    0   56    0   56    0

>  <minimizedAffinity>  (71) 
-7.25982

>  <CNNscore>  (71) 
0.3464047909

>  <CNNaffinity>  (71) 
3.9356338978

>  <CNN_VS>  (71) 
1.3633224964

>  <CNNaffinity_variance>  (71) 
0.0464851186

$$$$
72
     RDKit          3D

 43 45  0  0  0  0  0  0  0  0999 V2000
   21.4559   70.8594   -2.6230 P   0  0  2  0  0  0  0  0  0  0  0  0
   22.5009   69.6414   -2.4150 O   0  0  0  0  0  0  0  0  0  0  0  0
   20.1039   70.4541   -3.1328 O   0  0  0  0  0  0  0  0  0  0  0  0
   22.2668   71.9141   -3.5438 O   0  0  0  0  0  0  0  0  0  0  0  0
   22.0021   73.2956   -3.3826 C   0  0  0  0  0  0  0  0  0  0  0  0
   21.8541   74.9828   -5.0882 O   0  0  0  0  0  0  0  0  0  0  0  0
   20.0440   73.0872   -6.5450 O   0  0  0  0  0  0  0  0  0  0  0  0
   22.4202   72.7572   -7.8415 O   0  0  0  0  0  0  0  0  0  0  0  0
   21.1916   72.8051   -5.7437 C   0  0  1  0  0  0  0  0  0  0  0  0
   22.4560   73.1713   -6.4917 C   0  0  2  0  0  0  0  0  0  0  0  0
   21.2097   73.7925   -4.5849 C   0  0  1  0  0  0  0  0  0  0  0  0
   22.4829   74.6831   -6.3444 C   0  0  2  0  0  0  0  0  0  0  0  0
   20.0110   72.4688   -7.2921 H   0  0  0  0  0  0  0  0  0  0  0  0
   22.4044   71.7876   -7.8818 H   0  0  0  0  0  0  0  0  0  0  0  0
   23.8537   75.5950   -8.6392 O   0  0  0  0  0  0  0  0  0  0  0  0
   27.6047   76.6809   -6.1907 O   0  0  0  0  0  0  0  0  0  0  0  0
   23.8186   75.2091   -6.3352 N   0  0  0  0  0  0  0  0  0  0  0  0
   25.7210   76.1340   -7.4177 N   0  0  0  0  0  0  0  0  0  0  0  0
   24.4159   75.6399   -7.5434 C   0  0  0  0  0  0  0  0  0  0  0  0
   24.5216   75.2957   -5.1397 C   0  0  0  0  0  0  0  0  0  0  0  0
   25.7649   75.7691   -5.0357 C   0  0  0  0  0  0  0  0  0  0  0  0
   26.4612   76.2392   -6.2512 C   0  0  0  0  0  0  0  0  0  0  0  0
   26.1584   76.4380   -8.2456 H   0  0  0  0  0  0  0  0  0  0  0  0
   21.4420   71.5770   -1.1747 O   0  0  0  0  0  0  0  0  0  0  0  0
   20.4748   71.3686    0.1039 P   0  0  2  0  0  0  0  0  0  0  0  0
   20.2058   69.7724    0.1079 O   0  0  0  0  0  0  0  0  0  0  0  0
   19.2288   72.2057    0.0765 O   0  0  0  0  0  0  0  0  0  0  0  0
   21.4252   71.6246    1.3820 O   0  0  0  0  0  0  0  0  0  0  0  0
   23.3242   72.8392    2.1085 O   0  0  0  0  0  0  0  0  0  0  0  0
   24.4615   68.9475    2.9018 O   0  0  0  0  0  0  0  0  0  0  0  0
   23.0792   69.6086    0.4145 O   0  0  0  0  0  0  0  0  0  0  0  0
   23.6357   70.6975    5.0713 O   0  0  0  0  0  0  0  0  0  0  0  0
   23.5470   70.0341    2.7568 C   0  0  2  0  0  0  0  0  0  0  0  0
   23.6076   70.5662    1.3247 C   0  0  2  0  0  0  0  0  0  0  0  0
   23.9508   71.1276    3.7483 C   0  0  1  0  0  0  0  0  0  0  0  0
   22.8176   71.8689    1.1912 C   0  0  1  0  0  0  0  0  0  0  0  0
   23.2104   72.4327    3.4704 C   0  0  1  0  0  0  0  0  0  0  0  0
   24.2247   68.2403    2.2813 H   0  0  0  0  0  0  0  0  0  0  0  0
   23.5757   68.7793    0.4940 H   0  0  0  0  0  0  0  0  0  0  0  0
   24.1005   69.8675    5.2608 H   0  0  0  0  0  0  0  0  0  0  0  0
   23.4350   73.5734    5.5075 O   0  0  0  0  0  0  0  0  0  0  0  0
   24.6112   74.3801    3.7284 O   0  0  0  0  0  0  0  0  0  0  0  0
   23.8382   73.5672    4.2127 C   0  0  0  0  0  0  0  0  0  0  0  0
  1  4  1  0
  1 24  1  0
  1  2  1  1
  1  3  2  0
 25 28  1  0
 25 24  1  0
 25 26  1  1
 25 27  2  0
  6 11  1  0
  6 12  1  0
 29 36  1  0
 29 37  1  0
  9  7  1  6
  7 13  1  0
 10  8  1  6
  8 14  1  0
  4  5  1  0
 36 28  1  1
 33 30  1  6
 30 38  1  0
 34 31  1  6
 31 39  1  0
 35 32  1  1
 32 40  1  0
 41 43  1  0
 15 19  2  0
 42 43  2  0
 16 22  2  0
 12 17  1  1
 17 19  1  0
 17 20  1  0
 18 19  1  0
 18 22  1  0
 18 23  1  0
  9 10  1  0
  9 11  1  0
 10 12  1  0
 11  5  1  1
 33 34  1  0
 33 35  1  0
 34 36  1  0
 35 37  1  0
 37 43  1  1
 20 21  2  0
 21 22  1  0
M  CHG  3   2  -1  26  -1  41  -1
M  END
>  <COMPND>  (72) 
    udp_gluA.pdb 

>  <AUTHOR>  (72) 
    GENERATED BY OPEN BABEL 3.1.1

>  <MASTER>  (72) 
        0    0    0    0    0    0    0    0   56    0   56    0

>  <minimizedAffinity>  (72) 
-6.80335

>  <CNNscore>  (72) 
0.3233979940

>  <CNNaffinity>  (72) 
3.7812256813

>  <CNN_VS>  (72) 
1.2228407860

>  <CNNaffinity_variance>  (72) 
0.1049048677

$$$$
73
     RDKit          3D

 43 45  0  0  0  0  0  0  0  0999 V2000
   19.0284   71.2416   -1.7195 P   0  0  2  0  0  0  0  0  0  0  0  0
   19.2637   69.9661   -0.7516 O   0  0  0  0  0  0  0  0  0  0  0  0
   17.8485   72.0978   -1.3637 O   0  0  0  0  0  0  0  0  0  0  0  0
   19.0104   70.6031   -3.2061 O   0  0  0  0  0  0  0  0  0  0  0  0
   18.5506   71.4031   -4.2799 C   0  0  0  0  0  0  0  0  0  0  0  0
   16.3454   72.2601   -4.7046 O   0  0  0  0  0  0  0  0  0  0  0  0
   15.7214   69.5633   -5.8576 O   0  0  0  0  0  0  0  0  0  0  0  0
   16.1485   71.0789   -8.0840 O   0  0  0  0  0  0  0  0  0  0  0  0
   16.9360   70.3117   -5.9153 C   0  0  1  0  0  0  0  0  0  0  0  0
   16.7969   71.4623   -6.8894 C   0  0  2  0  0  0  0  0  0  0  0  0
   17.1042   71.0371   -4.5872 C   0  0  1  0  0  0  0  0  0  0  0  0
   15.9896   72.4639   -6.0813 C   0  0  2  0  0  0  0  0  0  0  0  0
   15.5922   69.0910   -6.6954 H   0  0  0  0  0  0  0  0  0  0  0  0
   16.7023   70.4413   -8.5622 H   0  0  0  0  0  0  0  0  0  0  0  0
   14.6661   73.8885   -8.1295 O   0  0  0  0  0  0  0  0  0  0  0  0
   17.1923   77.6706   -7.3818 O   0  0  0  0  0  0  0  0  0  0  0  0
   16.2815   73.8221   -6.4429 N   0  0  0  0  0  0  0  0  0  0  0  0
   15.9262   75.7705   -7.7558 N   0  0  0  0  0  0  0  0  0  0  0  0
   15.5582   74.4456   -7.4871 C   0  0  0  0  0  0  0  0  0  0  0  0
   17.2724   74.5225   -5.7657 C   0  0  0  0  0  0  0  0  0  0  0  0
   17.6119   75.7850   -6.0332 C   0  0  0  0  0  0  0  0  0  0  0  0
   16.9052   76.5086   -7.1104 C   0  0  0  0  0  0  0  0  0  0  0  0
   15.4381   76.2249   -8.4801 H   0  0  0  0  0  0  0  0  0  0  0  0
   20.4531   72.0035   -1.6684 O   0  0  0  0  0  0  0  0  0  0  0  0
   21.9354   71.4603   -1.3199 P   0  0  2  0  0  0  0  0  0  0  0  0
   22.8988   72.4382   -2.1777 O   0  0  0  0  0  0  0  0  0  0  0  0
   22.1358   69.9981   -1.5947 O   0  0  0  0  0  0  0  0  0  0  0  0
   22.1793   71.8926    0.2151 O   0  0  0  0  0  0  0  0  0  0  0  0
   22.2843   70.5334    2.1518 O   0  0  0  0  0  0  0  0  0  0  0  0
   20.7533   74.0542    3.6776 O   0  0  0  0  0  0  0  0  0  0  0  0
   19.7987   73.0090    1.1221 O   0  0  0  0  0  0  0  0  0  0  0  0
   23.5370   73.3536    4.1366 O   0  0  0  0  0  0  0  0  0  0  0  0
   21.5361   73.2464    2.7987 C   0  0  2  0  0  0  0  0  0  0  0  0
   20.6222   72.2897    2.0327 C   0  0  2  0  0  0  0  0  0  0  0  0
   22.5390   72.4603    3.6463 C   0  0  1  0  0  0  0  0  0  0  0  0
   21.4395   71.2566    1.2558 C   0  0  1  0  0  0  0  0  0  0  0  0
   23.2217   71.3667    2.8300 C   0  0  1  0  0  0  0  0  0  0  0  0
   20.1086   74.5630    3.1612 H   0  0  0  0  0  0  0  0  0  0  0  0
   19.2774   73.6665    1.6083 H   0  0  0  0  0  0  0  0  0  0  0  0
   23.1156   74.0547    4.6578 H   0  0  0  0  0  0  0  0  0  0  0  0
   24.8493   69.6886    3.0213 O   0  0  0  0  0  0  0  0  0  0  0  0
   23.7393   70.2826    4.9224 O   0  0  0  0  0  0  0  0  0  0  0  0
   23.9384   70.4072    3.7233 C   0  0  0  0  0  0  0  0  0  0  0  0
  1  4  1  0
  1 24  1  0
  1  2  1  1
  1  3  2  0
 25 28  1  0
 25 24  1  0
 25 26  1  6
 25 27  2  0
  6 11  1  0
  6 12  1  0
 29 36  1  0
 29 37  1  0
  9  7  1  1
  7 13  1  0
 10  8  1  6
  8 14  1  0
  4  5  1  0
 36 28  1  6
 33 30  1  1
 30 38  1  0
 34 31  1  6
 31 39  1  0
 35 32  1  6
 32 40  1  0
 41 43  1  0
 15 19  2  0
 42 43  2  0
 16 22  2  0
 12 17  1  6
 17 19  1  0
 17 20  1  0
 18 19  1  0
 18 22  1  0
 18 23  1  0
  9 10  1  0
  9 11  1  0
 10 12  1  0
 11  5  1  6
 33 34  1  0
 33 35  1  0
 34 36  1  0
 35 37  1  0
 37 43  1  1
 20 21  2  0
 21 22  1  0
M  CHG  3   2  -1  26  -1  41  -1
M  END
>  <COMPND>  (73) 
    udp_gluA.pdb 

>  <AUTHOR>  (73) 
    GENERATED BY OPEN BABEL 3.1.1

>  <MASTER>  (73) 
        0    0    0    0    0    0    0    0   56    0   56    0

>  <minimizedAffinity>  (73) 
-6.82572

>  <CNNscore>  (73) 
0.3039235473

>  <CNNaffinity>  (73) 
3.9552083015

>  <CNN_VS>  (73) 
1.2020809650

>  <CNNaffinity_variance>  (73) 
0.0475996584

$$$$
74
     RDKit          3D

 43 45  0  0  0  0  0  0  0  0999 V2000
   19.7316   75.6410   -1.8408 P   0  0  2  0  0  0  0  0  0  0  0  0
   20.5199   76.5425   -2.9293 O   0  0  0  0  0  0  0  0  0  0  0  0
   18.7648   76.3945   -0.9751 O   0  0  0  0  0  0  0  0  0  0  0  0
   20.9109   74.8564   -1.0588 O   0  0  0  0  0  0  0  0  0  0  0  0
   20.5823   73.6770   -0.3478 C   0  0  0  0  0  0  0  0  0  0  0  0
   22.5246   72.2611   -0.3743 O   0  0  0  0  0  0  0  0  0  0  0  0
   20.8577   70.3184   -1.9361 O   0  0  0  0  0  0  0  0  0  0  0  0
   20.7969   69.2679    0.5797 O   0  0  0  0  0  0  0  0  0  0  0  0
   20.4715   71.1902   -0.8733 C   0  0  1  0  0  0  0  0  0  0  0  0
   20.9831   70.6619    0.4501 C   0  0  2  0  0  0  0  0  0  0  0  0
   21.2541   72.4878   -1.0223 C   0  0  1  0  0  0  0  0  0  0  0  0
   22.4500   71.0538    0.4004 C   0  0  2  0  0  0  0  0  0  0  0  0
   20.3707   69.4823   -1.8620 H   0  0  0  0  0  0  0  0  0  0  0  0
   19.8472   69.0697    0.6070 H   0  0  0  0  0  0  0  0  0  0  0  0
   23.7286   69.1019    1.9916 O   0  0  0  0  0  0  0  0  0  0  0  0
   24.5047   72.1175    5.3898 O   0  0  0  0  0  0  0  0  0  0  0  0
   22.9954   71.3017    1.7050 N   0  0  0  0  0  0  0  0  0  0  0  0
   24.1130   70.6055    3.6830 N   0  0  0  0  0  0  0  0  0  0  0  0
   23.6174   70.2517    2.4211 C   0  0  0  0  0  0  0  0  0  0  0  0
   22.9132   72.5724    2.2611 C   0  0  0  0  0  0  0  0  0  0  0  0
   23.3904   72.8944    3.4650 C   0  0  0  0  0  0  0  0  0  0  0  0
   24.0543   71.8550    4.2787 C   0  0  0  0  0  0  0  0  0  0  0  0
   24.5485   69.8906    4.2013 H   0  0  0  0  0  0  0  0  0  0  0  0
   19.0620   74.4816   -2.7464 O   0  0  0  0  0  0  0  0  0  0  0  0
   17.5402   73.9418   -2.8247 P   0  0  2  0  0  0  0  0  0  0  0  0
   16.6863   75.2845   -3.1221 O   0  0  0  0  0  0  0  0  0  0  0  0
   17.0933   73.1812   -1.6099 O   0  0  0  0  0  0  0  0  0  0  0  0
   17.4735   73.1035   -4.2014 O   0  0  0  0  0  0  0  0  0  0  0  0
   18.5056   70.9963   -3.8795 O   0  0  0  0  0  0  0  0  0  0  0  0
   17.4828   70.8293   -7.8788 O   0  0  0  0  0  0  0  0  0  0  0  0
   18.6027   73.2743   -6.7375 O   0  0  0  0  0  0  0  0  0  0  0  0
   15.9289   69.3562   -5.9125 O   0  0  0  0  0  0  0  0  0  0  0  0
   17.3391   71.2155   -6.5120 C   0  0  2  0  0  0  0  0  0  0  0  0
   18.5662   72.0157   -6.0746 C   0  0  2  0  0  0  0  0  0  0  0  0
   17.2066   69.9429   -5.6724 C   0  0  1  0  0  0  0  0  0  0  0  0
   18.5569   72.2491   -4.5632 C   0  0  1  0  0  0  0  0  0  0  0  0
   17.3331   70.2433   -4.1817 C   0  0  1  0  0  0  0  0  0  0  0  0
   17.5688   71.6220   -8.4316 H   0  0  0  0  0  0  0  0  0  0  0  0
   18.6085   73.1337   -7.6970 H   0  0  0  0  0  0  0  0  0  0  0  0
   15.8356   69.1603   -6.8579 H   0  0  0  0  0  0  0  0  0  0  0  0
   17.9241   69.2638   -2.1340 O   0  0  0  0  0  0  0  0  0  0  0  0
   17.3658   67.8554   -3.8380 O   0  0  0  0  0  0  0  0  0  0  0  0
   17.5326   68.9845   -3.4020 C   0  0  0  0  0  0  0  0  0  0  0  0
  1  4  1  0
  1 24  1  0
  1  2  1  6
  1  3  2  0
 25 28  1  0
 25 24  1  0
 25 26  1  6
 25 27  2  0
  6 11  1  0
  6 12  1  0
 29 36  1  0
 29 37  1  0
  9  7  1  6
  7 13  1  0
 10  8  1  6
  8 14  1  0
  4  5  1  0
 36 28  1  6
 33 30  1  6
 30 38  1  0
 34 31  1  6
 31 39  1  0
 35 32  1  1
 32 40  1  0
 41 43  1  0
 15 19  2  0
 42 43  2  0
 16 22  2  0
 12 17  1  1
 17 19  1  0
 17 20  1  0
 18 19  1  0
 18 22  1  0
 18 23  1  0
  9 10  1  0
  9 11  1  0
 10 12  1  0
 11  5  1  1
 33 34  1  0
 33 35  1  0
 34 36  1  0
 35 37  1  0
 37 43  1  1
 20 21  2  0
 21 22  1  0
M  CHG  3   2  -1  26  -1  41  -1
M  END
>  <COMPND>  (74) 
    udp_gluA.pdb 

>  <AUTHOR>  (74) 
    GENERATED BY OPEN BABEL 3.1.1

>  <MASTER>  (74) 
        0    0    0    0    0    0    0    0   56    0   56    0

>  <minimizedAffinity>  (74) 
-7.52325

>  <CNNscore>  (74) 
0.3014200926

>  <CNNaffinity>  (74) 
3.8978278637

>  <CNN_VS>  (74) 
1.1748836040

>  <CNNaffinity_variance>  (74) 
0.3320878744

$$$$
75
     RDKit          3D

 43 45  0  0  0  0  0  0  0  0999 V2000
   22.8441   73.0706   -3.2663 P   0  0  2  0  0  0  0  0  0  0  0  0
   23.8108   72.5949   -4.4738 O   0  0  0  0  0  0  0  0  0  0  0  0
   23.1546   74.4261   -2.7026 O   0  0  0  0  0  0  0  0  0  0  0  0
   22.9026   71.8421   -2.2149 O   0  0  0  0  0  0  0  0  0  0  0  0
   22.8091   72.1308   -0.8320 C   0  0  0  0  0  0  0  0  0  0  0  0
   22.9920   70.7075    1.0964 O   0  0  0  0  0  0  0  0  0  0  0  0
   20.1896   69.8328    0.4855 O   0  0  0  0  0  0  0  0  0  0  0  0
   19.8275   71.6192    2.5138 O   0  0  0  0  0  0  0  0  0  0  0  0
   20.7871   71.1209    0.3359 C   0  0  1  0  0  0  0  0  0  0  0  0
   20.9628   71.7775    1.6888 C   0  0  2  0  0  0  0  0  0  0  0  0
   22.2288   70.9210   -0.1108 C   0  0  1  0  0  0  0  0  0  0  0  0
   22.1855   71.0580    2.2322 C   0  0  2  0  0  0  0  0  0  0  0  0
   19.2676   69.9348    0.7706 H   0  0  0  0  0  0  0  0  0  0  0  0
   19.0765   72.0955    2.1252 H   0  0  0  0  0  0  0  0  0  0  0  0
   23.4251   70.1355    4.5963 O   0  0  0  0  0  0  0  0  0  0  0  0
   25.1265   74.3114    5.5507 O   0  0  0  0  0  0  0  0  0  0  0  0
   22.9585   71.8828    3.1171 N   0  0  0  0  0  0  0  0  0  0  0  0
   24.2705   72.2165    5.0699 N   0  0  0  0  0  0  0  0  0  0  0  0
   23.5387   71.3210    4.2789 C   0  0  0  0  0  0  0  0  0  0  0  0
   23.1367   73.2307    2.8302 C   0  0  0  0  0  0  0  0  0  0  0  0
   23.8370   74.0718    3.5938 C   0  0  0  0  0  0  0  0  0  0  0  0
   24.4752   73.5649    4.8263 C   0  0  0  0  0  0  0  0  0  0  0  0
   24.6822   71.8489    5.8852 H   0  0  0  0  0  0  0  0  0  0  0  0
   21.3669   72.9302   -3.9073 O   0  0  0  0  0  0  0  0  0  0  0  0
   20.6028   73.8221   -5.0184 P   0  0  2  0  0  0  0  0  0  0  0  0
   21.5959   73.7531   -6.2948 O   0  0  0  0  0  0  0  0  0  0  0  0
   20.2707   75.2151   -4.5678 O   0  0  0  0  0  0  0  0  0  0  0  0
   19.3256   72.9350   -5.4477 O   0  0  0  0  0  0  0  0  0  0  0  0
   17.3152   73.9864   -6.1272 O   0  0  0  0  0  0  0  0  0  0  0  0
   16.0101   70.1669   -5.2460 O   0  0  0  0  0  0  0  0  0  0  0  0
   17.9313   71.5138   -3.5055 O   0  0  0  0  0  0  0  0  0  0  0  0
   16.3204   71.0008   -8.0136 O   0  0  0  0  0  0  0  0  0  0  0  0
   16.9377   71.1572   -5.6899 C   0  0  2  0  0  0  0  0  0  0  0  0
   17.2111   72.1467   -4.5569 C   0  0  2  0  0  0  0  0  0  0  0  0
   16.3206   71.8792   -6.8898 C   0  0  1  0  0  0  0  0  0  0  0  0
   18.0158   73.3459   -5.0602 C   0  0  1  0  0  0  0  0  0  0  0  0
   17.1102   73.1338   -7.2515 C   0  0  1  0  0  0  0  0  0  0  0  0
   16.3809   69.6950   -4.4837 H   0  0  0  0  0  0  0  0  0  0  0  0
   17.4266   70.7518   -3.1815 H   0  0  0  0  0  0  0  0  0  0  0  0
   15.8211   70.1980   -7.7965 H   0  0  0  0  0  0  0  0  0  0  0  0
   15.0041   73.7499   -8.0797 O   0  0  0  0  0  0  0  0  0  0  0  0
   16.8187   74.8184   -8.9540 O   0  0  0  0  0  0  0  0  0  0  0  0
   16.3327   73.9977   -8.1904 C   0  0  0  0  0  0  0  0  0  0  0  0
  1  4  1  0
  1 24  1  0
  1  2  1  6
  1  3  2  0
 25 28  1  0
 25 24  1  0
 25 26  1  6
 25 27  2  0
  6 11  1  0
  6 12  1  0
 29 36  1  0
 29 37  1  0
  9  7  1  1
  7 13  1  0
 10  8  1  1
  8 14  1  0
  4  5  1  0
 36 28  1  6
 33 30  1  1
 30 38  1  0
 34 31  1  1
 31 39  1  0
 35 32  1  6
 32 40  1  0
 41 43  1  0
 15 19  2  0
 42 43  2  0
 16 22  2  0
 12 17  1  1
 17 19  1  0
 17 20  1  0
 18 19  1  0
 18 22  1  0
 18 23  1  0
  9 10  1  0
  9 11  1  0
 10 12  1  0
 11  5  1  1
 33 34  1  0
 33 35  1  0
 34 36  1  0
 35 37  1  0
 37 43  1  6
 20 21  2  0
 21 22  1  0
M  CHG  3   2  -1  26  -1  41  -1
M  END
>  <COMPND>  (75) 
    udp_gluA.pdb 

>  <AUTHOR>  (75) 
    GENERATED BY OPEN BABEL 3.1.1

>  <MASTER>  (75) 
        0    0    0    0    0    0    0    0   56    0   56    0

>  <minimizedAffinity>  (75) 
-7.62960

>  <CNNscore>  (75) 
0.3006379604

>  <CNNaffinity>  (75) 
3.7186560631

>  <CNN_VS>  (75) 
1.1179691553

>  <CNNaffinity_variance>  (75) 
0.1745464355

$$$$
76
     RDKit          3D

 43 45  0  0  0  0  0  0  0  0999 V2000
   18.1950   73.0710   -0.6386 P   0  0  2  0  0  0  0  0  0  0  0  0
   19.4894   73.5235   -1.4980 O   0  0  0  0  0  0  0  0  0  0  0  0
   16.9233   73.7894   -0.9828 O   0  0  0  0  0  0  0  0  0  0  0  0
   18.6832   73.2039    0.8983 O   0  0  0  0  0  0  0  0  0  0  0  0
   19.7077   74.1320    1.2044 C   0  0  0  0  0  0  0  0  0  0  0  0
   20.4244   72.4713    2.7875 O   0  0  0  0  0  0  0  0  0  0  0  0
   21.5980   74.7414    4.3561 O   0  0  0  0  0  0  0  0  0  0  0  0
   23.7794   73.6973    3.0961 O   0  0  0  0  0  0  0  0  0  0  0  0
   21.5146   74.5686    2.9413 C   0  0  1  0  0  0  0  0  0  0  0  0
   22.5193   73.5343    2.4795 C   0  0  2  0  0  0  0  0  0  0  0  0
   20.1894   73.8872    2.6286 C   0  0  1  0  0  0  0  0  0  0  0  0
   21.8385   72.2349    2.8746 C   0  0  2  0  0  0  0  0  0  0  0  0
   22.4367   75.1751    4.5803 H   0  0  0  0  0  0  0  0  0  0  0  0
   24.1717   74.5385    2.8125 H   0  0  0  0  0  0  0  0  0  0  0  0
   24.0659   70.5391    3.2480 O   0  0  0  0  0  0  0  0  0  0  0  0
   23.0703   68.0965   -0.5318 O   0  0  0  0  0  0  0  0  0  0  0  0
   22.1848   71.1479    2.0032 N   0  0  0  0  0  0  0  0  0  0  0  0
   23.5685   69.3248    1.3645 N   0  0  0  0  0  0  0  0  0  0  0  0
   23.3246   70.3566    2.2804 C   0  0  0  0  0  0  0  0  0  0  0  0
   21.3991   70.8738    0.8904 C   0  0  0  0  0  0  0  0  0  0  0  0
   21.6442   69.8866    0.0265 C   0  0  0  0  0  0  0  0  0  0  0  0
   22.8165   69.0137    0.2432 C   0  0  0  0  0  0  0  0  0  0  0  0
   24.3578   68.7616    1.5354 H   0  0  0  0  0  0  0  0  0  0  0  0
   18.1481   71.4716   -0.8680 O   0  0  0  0  0  0  0  0  0  0  0  0
   17.4130   70.5829   -2.0009 P   0  0  2  0  0  0  0  0  0  0  0  0
   15.8421   70.7789   -1.6631 O   0  0  0  0  0  0  0  0  0  0  0  0
   17.8616   69.1510   -2.0474 O   0  0  0  0  0  0  0  0  0  0  0  0
   17.6395   71.4004   -3.3731 O   0  0  0  0  0  0  0  0  0  0  0  0
   16.6821   73.4169   -4.1644 O   0  0  0  0  0  0  0  0  0  0  0  0
   17.1582   71.2807   -7.6684 O   0  0  0  0  0  0  0  0  0  0  0  0
   16.1770   69.9633   -5.2526 O   0  0  0  0  0  0  0  0  0  0  0  0
   18.9782   73.4547   -7.0260 O   0  0  0  0  0  0  0  0  0  0  0  0
   17.4808   71.6958   -6.3411 C   0  0  2  0  0  0  0  0  0  0  0  0
   16.3156   71.3712   -5.4060 C   0  0  2  0  0  0  0  0  0  0  0  0
   17.7384   73.2041   -6.3667 C   0  0  1  0  0  0  0  0  0  0  0  0
   16.5261   72.0038   -4.0296 C   0  0  1  0  0  0  0  0  0  0  0  0
   17.8109   73.7809   -4.9558 C   0  0  1  0  0  0  0  0  0  0  0  0
   16.9903   70.3252   -7.6767 H   0  0  0  0  0  0  0  0  0  0  0  0
   16.0434   69.5554   -6.1221 H   0  0  0  0  0  0  0  0  0  0  0  0
   18.9453   73.0924   -7.9252 H   0  0  0  0  0  0  0  0  0  0  0  0
   17.5848   75.7710   -3.7352 O   0  0  0  0  0  0  0  0  0  0  0  0
   17.7918   75.9567   -5.9984 O   0  0  0  0  0  0  0  0  0  0  0  0
   17.7314   75.2725   -4.9878 C   0  0  0  0  0  0  0  0  0  0  0  0
  1  4  1  0
  1 24  1  0
  1  2  1  6
  1  3  2  0
 25 28  1  0
 25 24  1  0
 25 26  1  1
 25 27  2  0
  6 11  1  0
  6 12  1  0
 29 36  1  0
 29 37  1  0
  9  7  1  1
  7 13  1  0
 10  8  1  1
  8 14  1  0
  4  5  1  0
 36 28  1  6
 33 30  1  6
 30 38  1  0
 34 31  1  1
 31 39  1  0
 35 32  1  1
 32 40  1  0
 41 43  1  0
 15 19  2  0
 42 43  2  0
 16 22  2  0
 12 17  1  6
 17 19  1  0
 17 20  1  0
 18 19  1  0
 18 22  1  0
 18 23  1  0
  9 10  1  0
  9 11  1  0
 10 12  1  0
 11  5  1  6
 33 34  1  0
 33 35  1  0
 34 36  1  0
 35 37  1  0
 37 43  1  6
 20 21  2  0
 21 22  1  0
M  CHG  3   2  -1  26  -1  41  -1
M  END
>  <COMPND>  (76) 
    udp_gluA.pdb 

>  <AUTHOR>  (76) 
    GENERATED BY OPEN BABEL 3.1.1

>  <MASTER>  (76) 
        0    0    0    0    0    0    0    0   56    0   56    0

>  <minimizedAffinity>  (76) 
-6.50818

>  <CNNscore>  (76) 
0.2943105698

>  <CNNaffinity>  (76) 
3.9392063618

>  <CNN_VS>  (76) 
1.1593500376

>  <CNNaffinity_variance>  (76) 
0.1453604102

$$$$
77
     RDKit          3D

 43 45  0  0  0  0  0  0  0  0999 V2000
   22.5712   72.8313   -3.4581 P   0  0  2  0  0  0  0  0  0  0  0  0
   23.7887   72.1232   -4.2550 O   0  0  0  0  0  0  0  0  0  0  0  0
   22.8288   74.2485   -3.0374 O   0  0  0  0  0  0  0  0  0  0  0  0
   22.2336   71.7940   -2.2631 O   0  0  0  0  0  0  0  0  0  0  0  0
   22.2322   72.2742   -0.9312 C   0  0  0  0  0  0  0  0  0  0  0  0
   21.6563   69.9511   -0.7099 O   0  0  0  0  0  0  0  0  0  0  0  0
   21.4618   70.4717    2.2367 O   0  0  0  0  0  0  0  0  0  0  0  0
   23.9047   69.2830    2.0017 O   0  0  0  0  0  0  0  0  0  0  0  0
   22.3668   71.0225    1.2796 C   0  0  1  0  0  0  0  0  0  0  0  0
   23.4055   69.9931    0.8876 C   0  0  2  0  0  0  0  0  0  0  0  0
   21.6073   71.2214   -0.0249 C   0  0  1  0  0  0  0  0  0  0  0  0
   22.6261   69.1071   -0.0692 C   0  0  2  0  0  0  0  0  0  0  0  0
   21.9245   70.3357    3.0788 H   0  0  0  0  0  0  0  0  0  0  0  0
   24.3929   69.8905    2.5800 H   0  0  0  0  0  0  0  0  0  0  0  0
   22.9374   66.3254   -0.4459 O   0  0  0  0  0  0  0  0  0  0  0  0
   25.8676   66.9432   -3.9497 O   0  0  0  0  0  0  0  0  0  0  0  0
   23.4641   68.5137   -1.0725 N   0  0  0  0  0  0  0  0  0  0  0  0
   24.3973   66.6357   -2.1899 N   0  0  0  0  0  0  0  0  0  0  0  0
   23.5503   67.1052   -1.1774 C   0  0  0  0  0  0  0  0  0  0  0  0
   24.1876   69.3234   -1.9396 C   0  0  0  0  0  0  0  0  0  0  0  0
   24.9907   68.8613   -2.8998 C   0  0  0  0  0  0  0  0  0  0  0  0
   25.1376   67.4015   -3.0760 C   0  0  0  0  0  0  0  0  0  0  0  0
   24.4751   65.6585   -2.2811 H   0  0  0  0  0  0  0  0  0  0  0  0
   21.3209   72.6446   -4.4654 O   0  0  0  0  0  0  0  0  0  0  0  0
   20.9766   73.3596   -5.8739 P   0  0  2  0  0  0  0  0  0  0  0  0
   22.0849   72.7453   -6.8812 O   0  0  0  0  0  0  0  0  0  0  0  0
   20.9585   74.8597   -5.8148 O   0  0  0  0  0  0  0  0  0  0  0  0
   19.5853   72.6913   -6.3429 O   0  0  0  0  0  0  0  0  0  0  0  0
   19.4400   70.4753   -5.5199 O   0  0  0  0  0  0  0  0  0  0  0  0
   15.9756   70.7723   -7.7510 O   0  0  0  0  0  0  0  0  0  0  0  0
   18.4871   71.8695   -8.7625 O   0  0  0  0  0  0  0  0  0  0  0  0
   15.8573   70.8951   -4.8490 O   0  0  0  0  0  0  0  0  0  0  0  0
   17.0357   71.2467   -6.9209 C   0  0  2  0  0  0  0  0  0  0  0  0
   18.3750   71.0238   -7.6237 C   0  0  2  0  0  0  0  0  0  0  0  0
   16.9896   70.4683   -5.6041 C   0  0  1  0  0  0  0  0  0  0  0  0
   19.5430   71.3053   -6.6775 C   0  0  1  0  0  0  0  0  0  0  0  0
   18.2473   70.7048   -4.7729 C   0  0  1  0  0  0  0  0  0  0  0  0
   15.9850   71.2526   -8.5939 H   0  0  0  0  0  0  0  0  0  0  0  0
   17.7489   71.6964   -9.3672 H   0  0  0  0  0  0  0  0  0  0  0  0
   15.0500   70.7501   -5.3669 H   0  0  0  0  0  0  0  0  0  0  0  0
   19.2124   70.1328   -2.7130 O   0  0  0  0  0  0  0  0  0  0  0  0
   17.7356   68.6494   -3.6174 O   0  0  0  0  0  0  0  0  0  0  0  0
   18.3473   69.7061   -3.6662 C   0  0  0  0  0  0  0  0  0  0  0  0
  1  4  1  0
  1 24  1  0
  1  2  1  6
  1  3  2  0
 25 28  1  0
 25 24  1  0
 25 26  1  6
 25 27  2  0
  6 11  1  0
  6 12  1  0
 29 36  1  0
 29 37  1  0
  9  7  1  1
  7 13  1  0
 10  8  1  1
  8 14  1  0
  4  5  1  0
 36 28  1  1
 33 30  1  6
 30 38  1  0
 34 31  1  6
 31 39  1  0
 35 32  1  1
 32 40  1  0
 41 43  1  0
 15 19  2  0
 42 43  2  0
 16 22  2  0
 12 17  1  6
 17 19  1  0
 17 20  1  0
 18 19  1  0
 18 22  1  0
 18 23  1  0
  9 10  1  0
  9 11  1  0
 10 12  1  0
 11  5  1  6
 33 34  1  0
 33 35  1  0
 34 36  1  0
 35 37  1  0
 37 43  1  1
 20 21  2  0
 21 22  1  0
M  CHG  3   2  -1  26  -1  41  -1
M  END
>  <COMPND>  (77) 
    udp_gluA.pdb 

>  <AUTHOR>  (77) 
    GENERATED BY OPEN BABEL 3.1.1

>  <MASTER>  (77) 
        0    0    0    0    0    0    0    0   56    0   56    0

>  <minimizedAffinity>  (77) 
-8.81315

>  <CNNscore>  (77) 
0.2904615402

>  <CNNaffinity>  (77) 
4.1702499390

>  <CNN_VS>  (77) 
1.2112972736

>  <CNNaffinity_variance>  (77) 
0.7688294649

$$$$
78
     RDKit          3D

 43 45  0  0  0  0  0  0  0  0999 V2000
   22.6723   72.9543   -3.6376 P   0  0  2  0  0  0  0  0  0  0  0  0
   24.0699   73.2365   -4.4030 O   0  0  0  0  0  0  0  0  0  0  0  0
   22.1547   74.1014   -2.8204 O   0  0  0  0  0  0  0  0  0  0  0  0
   22.9437   71.5804   -2.8273 O   0  0  0  0  0  0  0  0  0  0  0  0
   22.9669   71.6233   -1.4123 C   0  0  0  0  0  0  0  0  0  0  0  0
   22.6145   70.0290    0.3517 O   0  0  0  0  0  0  0  0  0  0  0  0
   19.7466   69.9754   -0.5222 O   0  0  0  0  0  0  0  0  0  0  0  0
   19.6719   71.5982    1.6680 O   0  0  0  0  0  0  0  0  0  0  0  0
   20.6611   71.0714   -0.4898 C   0  0  1  0  0  0  0  0  0  0  0  0
   20.8780   71.5311    0.9363 C   0  0  2  0  0  0  0  0  0  0  0  0
   22.0388   70.5450   -0.8680 C   0  0  1  0  0  0  0  0  0  0  0  0
   21.8266   70.4706    1.4686 C   0  0  2  0  0  0  0  0  0  0  0  0
   18.8591   70.2872   -0.2840 H   0  0  0  0  0  0  0  0  0  0  0  0
   19.1027   72.2877    1.2904 H   0  0  0  0  0  0  0  0  0  0  0  0
   23.9323   68.9993    2.6426 O   0  0  0  0  0  0  0  0  0  0  0  0
   25.1233   72.5249    5.3622 O   0  0  0  0  0  0  0  0  0  0  0  0
   22.7025   70.9796    2.4858 N   0  0  0  0  0  0  0  0  0  0  0  0
   24.5228   70.7563    3.9967 N   0  0  0  0  0  0  0  0  0  0  0  0
   23.7289   70.1583    3.0091 C   0  0  0  0  0  0  0  0  0  0  0  0
   22.5417   72.2784    2.9531 C   0  0  0  0  0  0  0  0  0  0  0  0
   23.3064   72.8345    3.8948 C   0  0  0  0  0  0  0  0  0  0  0  0
   24.4011   72.0436    4.4943 C   0  0  0  0  0  0  0  0  0  0  0  0
   25.2428   70.2033    4.3776 H   0  0  0  0  0  0  0  0  0  0  0  0
   21.6922   72.4832   -4.8336 O   0  0  0  0  0  0  0  0  0  0  0  0
   21.2723   73.2155   -6.2124 P   0  0  2  0  0  0  0  0  0  0  0  0
   22.2303   72.5119   -7.3114 O   0  0  0  0  0  0  0  0  0  0  0  0
   21.3749   74.7127   -6.1706 O   0  0  0  0  0  0  0  0  0  0  0  0
   19.7958   72.6545   -6.5406 O   0  0  0  0  0  0  0  0  0  0  0  0
   19.3590   70.5731   -5.4984 O   0  0  0  0  0  0  0  0  0  0  0  0
   16.0246   71.0298   -7.8945 O   0  0  0  0  0  0  0  0  0  0  0  0
   18.6795   71.7094   -8.9063 O   0  0  0  0  0  0  0  0  0  0  0  0
   15.8348   71.4796   -5.0287 O   0  0  0  0  0  0  0  0  0  0  0  0
   17.1088   71.4641   -7.0736 C   0  0  2  0  0  0  0  0  0  0  0  0
   18.4319   71.0111   -7.6915 C   0  0  2  0  0  0  0  0  0  0  0  0
   16.9294   70.8439   -5.6861 C   0  0  1  0  0  0  0  0  0  0  0  0
   19.5963   71.2549   -6.7306 C   0  0  1  0  0  0  0  0  0  0  0  0
   18.1809   71.0203   -4.8311 C   0  0  1  0  0  0  0  0  0  0  0  0
   16.1174   71.4115   -8.7816 H   0  0  0  0  0  0  0  0  0  0  0  0
   17.9444   71.5593   -9.5207 H   0  0  0  0  0  0  0  0  0  0  0  0
   15.0319   71.3748   -5.5628 H   0  0  0  0  0  0  0  0  0  0  0  0
   19.3077   69.5023   -3.4426 O   0  0  0  0  0  0  0  0  0  0  0  0
   17.1554   70.0156   -2.8919 O   0  0  0  0  0  0  0  0  0  0  0  0
   18.1260   70.1427   -3.6231 C   0  0  0  0  0  0  0  0  0  0  0  0
  1  4  1  0
  1 24  1  0
  1  2  1  6
  1  3  2  0
 25 28  1  0
 25 24  1  0
 25 26  1  6
 25 27  2  0
  6 11  1  0
  6 12  1  0
 29 36  1  0
 29 37  1  0
  9  7  1  1
  7 13  1  0
 10  8  1  1
  8 14  1  0
  4  5  1  0
 36 28  1  1
 33 30  1  6
 30 38  1  0
 34 31  1  6
 31 39  1  0
 35 32  1  1
 32 40  1  0
 41 43  1  0
 15 19  2  0
 42 43  2  0
 16 22  2  0
 12 17  1  1
 17 19  1  0
 17 20  1  0
 18 19  1  0
 18 22  1  0
 18 23  1  0
  9 10  1  0
  9 11  1  0
 10 12  1  0
 11  5  1  1
 33 34  1  0
 33 35  1  0
 34 36  1  0
 35 37  1  0
 37 43  1  1
 20 21  2  0
 21 22  1  0
M  CHG  3   2  -1  26  -1  41  -1
M  END
>  <COMPND>  (78) 
    udp_gluA.pdb 

>  <AUTHOR>  (78) 
    GENERATED BY OPEN BABEL 3.1.1

>  <MASTER>  (78) 
        0    0    0    0    0    0    0    0   56    0   56    0

>  <minimizedAffinity>  (78) 
-8.41165

>  <CNNscore>  (78) 
0.2854409814

>  <CNNaffinity>  (78) 
3.8768157959

>  <CNN_VS>  (78) 
1.1066020727

>  <CNNaffinity_variance>  (78) 
0.3450391293

$$$$
79
     RDKit          3D

 43 45  0  0  0  0  0  0  0  0999 V2000
   21.3534   72.7840   -5.0605 P   0  0  2  0  0  0  0  0  0  0  0  0
   20.0908   73.0787   -6.0288 O   0  0  0  0  0  0  0  0  0  0  0  0
   22.6947   72.8525   -5.7298 O   0  0  0  0  0  0  0  0  0  0  0  0
   20.9872   71.3704   -4.3638 O   0  0  0  0  0  0  0  0  0  0  0  0
   19.9346   70.5988   -4.9126 C   0  0  0  0  0  0  0  0  0  0  0  0
   19.3319   70.4790   -2.5888 O   0  0  0  0  0  0  0  0  0  0  0  0
   17.6160   68.1394   -3.3462 O   0  0  0  0  0  0  0  0  0  0  0  0
   15.8046   70.1684   -3.1509 O   0  0  0  0  0  0  0  0  0  0  0  0
   17.8909   69.3333   -4.0793 C   0  0  1  0  0  0  0  0  0  0  0  0
   17.1369   70.5016   -3.4804 C   0  0  2  0  0  0  0  0  0  0  0  0
   19.3398   69.7217   -3.8183 C   0  0  1  0  0  0  0  0  0  0  0  0
   17.9780   70.8263   -2.2576 C   0  0  2  0  0  0  0  0  0  0  0  0
   16.6956   67.8715   -3.4972 H   0  0  0  0  0  0  0  0  0  0  0  0
   15.3106   69.9705   -3.9625 H   0  0  0  0  0  0  0  0  0  0  0  0
   17.8110   71.8038    0.3868 O   0  0  0  0  0  0  0  0  0  0  0  0
   17.7793   76.1861   -1.0409 O   0  0  0  0  0  0  0  0  0  0  0  0
   17.9247   72.2180   -1.9097 N   0  0  0  0  0  0  0  0  0  0  0  0
   17.7943   73.9855   -0.3269 N   0  0  0  0  0  0  0  0  0  0  0  0
   17.8416   72.6032   -0.5507 C   0  0  0  0  0  0  0  0  0  0  0  0
   17.9565   73.1842   -2.9079 C   0  0  0  0  0  0  0  0  0  0  0  0
   17.9108   74.4981   -2.6790 C   0  0  0  0  0  0  0  0  0  0  0  0
   17.8225   74.9844   -1.2865 C   0  0  0  0  0  0  0  0  0  0  0  0
   17.7342   74.2779    0.6113 H   0  0  0  0  0  0  0  0  0  0  0  0
   21.1453   73.8458   -3.8596 O   0  0  0  0  0  0  0  0  0  0  0  0
   21.9913   74.0951   -2.5047 P   0  0  2  0  0  0  0  0  0  0  0  0
   21.2435   75.3621   -1.8295 O   0  0  0  0  0  0  0  0  0  0  0  0
   23.4633   74.2914   -2.7252 O   0  0  0  0  0  0  0  0  0  0  0  0
   21.6175   72.8472   -1.5532 O   0  0  0  0  0  0  0  0  0  0  0  0
   22.8313   72.8895    0.4800 O   0  0  0  0  0  0  0  0  0  0  0  0
   20.8822   69.2561    0.7400 O   0  0  0  0  0  0  0  0  0  0  0  0
   22.0844   70.1147   -1.7804 O   0  0  0  0  0  0  0  0  0  0  0  0
   19.9505   71.5265    2.2982 O   0  0  0  0  0  0  0  0  0  0  0  0
   21.0496   70.6205    0.3549 C   0  0  2  0  0  0  0  0  0  0  0  0
   22.2915   70.7549   -0.5266 C   0  0  2  0  0  0  0  0  0  0  0  0
   21.2075   71.4552    1.6278 C   0  0  1  0  0  0  0  0  0  0  0  0
   22.6339   72.2256   -0.7689 C   0  0  1  0  0  0  0  0  0  0  0  0
   21.6719   72.8736    1.3099 C   0  0  1  0  0  0  0  0  0  0  0  0
   20.7799   68.7064   -0.0529 H   0  0  0  0  0  0  0  0  0  0  0  0
   21.8664   69.1812   -1.6341 H   0  0  0  0  0  0  0  0  0  0  0  0
   19.6436   70.6302    2.5061 H   0  0  0  0  0  0  0  0  0  0  0  0
   23.4441   73.9111    2.4433 O   0  0  0  0  0  0  0  0  0  0  0  0
   21.4387   73.8054    3.5232 O   0  0  0  0  0  0  0  0  0  0  0  0
   22.1359   73.5698    2.5478 C   0  0  0  0  0  0  0  0  0  0  0  0
  1  4  1  0
  1 24  1  0
  1  2  1  6
  1  3  2  0
 25 28  1  0
 25 24  1  0
 25 26  1  1
 25 27  2  0
  6 11  1  0
  6 12  1  0
 29 36  1  0
 29 37  1  0
  9  7  1  1
  7 13  1  0
 10  8  1  1
  8 14  1  0
  4  5  1  0
 36 28  1  1
 33 30  1  1
 30 38  1  0
 34 31  1  6
 31 39  1  0
 35 32  1  6
 32 40  1  0
 41 43  1  0
 15 19  2  0
 42 43  2  0
 16 22  2  0
 12 17  1  6
 17 19  1  0
 17 20  1  0
 18 19  1  0
 18 22  1  0
 18 23  1  0
  9 10  1  0
  9 11  1  0
 10 12  1  0
 11  5  1  6
 33 34  1  0
 33 35  1  0
 34 36  1  0
 35 37  1  0
 37 43  1  1
 20 21  2  0
 21 22  1  0
M  CHG  3   2  -1  26  -1  41  -1
M  END
>  <COMPND>  (79) 
    udp_gluA.pdb 

>  <AUTHOR>  (79) 
    GENERATED BY OPEN BABEL 3.1.1

>  <MASTER>  (79) 
        0    0    0    0    0    0    0    0   56    0   56    0

>  <minimizedAffinity>  (79) 
-6.07675

>  <CNNscore>  (79) 
0.2825988233

>  <CNNaffinity>  (79) 
3.4727218151

>  <CNN_VS>  (79) 
0.9813870788

>  <CNNaffinity_variance>  (79) 
1.0681027174

$$$$
80
     RDKit          3D

 43 45  0  0  0  0  0  0  0  0999 V2000
   22.5117   69.6133   -0.0581 P   0  0  2  0  0  0  0  0  0  0  0  0
   21.2271   69.0241    0.7302 O   0  0  0  0  0  0  0  0  0  0  0  0
   23.5640   68.6000   -0.4013 O   0  0  0  0  0  0  0  0  0  0  0  0
   23.0007   70.8490    0.8648 O   0  0  0  0  0  0  0  0  0  0  0  0
   23.1302   70.6416    2.2593 C   0  0  0  0  0  0  0  0  0  0  0  0
   22.9734   73.0260    1.9987 O   0  0  0  0  0  0  0  0  0  0  0  0
   22.9527   73.1651    4.9940 O   0  0  0  0  0  0  0  0  0  0  0  0
   20.3168   73.4695    4.3651 O   0  0  0  0  0  0  0  0  0  0  0  0
   22.3702   72.1884    4.1307 C   0  0  1  0  0  0  0  0  0  0  0  0
   21.1322   72.7499    3.4640 C   0  0  2  0  0  0  0  0  0  0  0  0
   23.3069   71.9892    2.9470 C   0  0  1  0  0  0  0  0  0  0  0  0
   21.7298   73.6337    2.3825 C   0  0  2  0  0  0  0  0  0  0  0  0
   22.3720   73.3094    5.7580 H   0  0  0  0  0  0  0  0  0  0  0  0
   19.9603   72.8629    5.0336 H   0  0  0  0  0  0  0  0  0  0  0  0
   19.8005   71.7070    1.6462 O   0  0  0  0  0  0  0  0  0  0  0  0
   18.5384   74.1242   -2.0697 O   0  0  0  0  0  0  0  0  0  0  0  0
   20.8833   73.7345    1.2274 N   0  0  0  0  0  0  0  0  0  0  0  0
   19.1744   72.9122   -0.2044 N   0  0  0  0  0  0  0  0  0  0  0  0
   19.9469   72.7113    0.9471 C   0  0  0  0  0  0  0  0  0  0  0  0
   20.9839   74.8372    0.3879 C   0  0  0  0  0  0  0  0  0  0  0  0
   20.2406   75.0148   -0.7061 C   0  0  0  0  0  0  0  0  0  0  0  0
   19.2387   73.9917   -1.0706 C   0  0  0  0  0  0  0  0  0  0  0  0
   18.5169   72.2123   -0.4213 H   0  0  0  0  0  0  0  0  0  0  0  0
   21.8475   70.3525   -1.3330 O   0  0  0  0  0  0  0  0  0  0  0  0
   22.3962   71.5500   -2.2703 P   0  0  2  0  0  0  0  0  0  0  0  0
   23.4936   70.8144   -3.2057 O   0  0  0  0  0  0  0  0  0  0  0  0
   22.9237   72.7334   -1.5118 O   0  0  0  0  0  0  0  0  0  0  0  0
   21.1716   71.8846   -3.2657 O   0  0  0  0  0  0  0  0  0  0  0  0
   19.7165   70.0326   -3.5150 O   0  0  0  0  0  0  0  0  0  0  0  0
   18.1488   72.7070   -6.2458 O   0  0  0  0  0  0  0  0  0  0  0  0
   21.0395   72.3625   -6.0025 O   0  0  0  0  0  0  0  0  0  0  0  0
   16.8104   72.2644   -3.7035 O   0  0  0  0  0  0  0  0  0  0  0  0
   18.8107   72.3073   -5.0458 C   0  0  2  0  0  0  0  0  0  0  0  0
   20.0707   71.5153   -5.3958 C   0  0  2  0  0  0  0  0  0  0  0  0
   17.8430   71.4388   -4.2388 C   0  0  1  0  0  0  0  0  0  0  0  0
   20.6799   70.8765   -4.1469 C   0  0  1  0  0  0  0  0  0  0  0  0
   18.5539   70.7373   -3.0851 C   0  0  1  0  0  0  0  0  0  0  0  0
   18.7447   73.2602   -6.7752 H   0  0  0  0  0  0  0  0  0  0  0  0
   20.6596   72.7715   -6.7955 H   0  0  0  0  0  0  0  0  0  0  0  0
   16.3501   72.7168   -4.4275 H   0  0  0  0  0  0  0  0  0  0  0  0
   16.9196   70.1368   -1.5134 O   0  0  0  0  0  0  0  0  0  0  0  0
   17.6904   68.4926   -2.8923 O   0  0  0  0  0  0  0  0  0  0  0  0
   17.6973   69.6544   -2.5141 C   0  0  0  0  0  0  0  0  0  0  0  0
  1  4  1  0
  1 24  1  0
  1  2  1  1
  1  3  2  0
 25 28  1  0
 25 24  1  0
 25 26  1  6
 25 27  2  0
  6 11  1  0
  6 12  1  0
 29 36  1  0
 29 37  1  0
  9  7  1  1
  7 13  1  0
 10  8  1  1
  8 14  1  0
  4  5  1  0
 36 28  1  1
 33 30  1  6
 30 38  1  0
 34 31  1  1
 31 39  1  0
 35 32  1  1
 32 40  1  0
 41 43  1  0
 15 19  2  0
 42 43  2  0
 16 22  2  0
 12 17  1  6
 17 19  1  0
 17 20  1  0
 18 19  1  0
 18 22  1  0
 18 23  1  0
  9 10  1  0
  9 11  1  0
 10 12  1  0
 11  5  1  6
 33 34  1  0
 33 35  1  0
 34 36  1  0
 35 37  1  0
 37 43  1  6
 20 21  2  0
 21 22  1  0
M  CHG  3   2  -1  26  -1  41  -1
M  END
>  <COMPND>  (80) 
    udp_gluA.pdb 

>  <AUTHOR>  (80) 
    GENERATED BY OPEN BABEL 3.1.1

>  <MASTER>  (80) 
        0    0    0    0    0    0    0    0   56    0   56    0

>  <minimizedAffinity>  (80) 
-6.78401

>  <CNNscore>  (80) 
0.2597302496

>  <CNNaffinity>  (80) 
3.9402642250

>  <CNN_VS>  (80) 
1.0234057903

>  <CNNaffinity_variance>  (80) 
0.1765596420

$$$$
81
     RDKit          3D

 43 45  0  0  0  0  0  0  0  0999 V2000
   22.4597   71.2255   -1.7069 P   0  0  2  0  0  0  0  0  0  0  0  0
   22.2126   72.7670   -1.2808 O   0  0  0  0  0  0  0  0  0  0  0  0
   23.3483   71.0328   -2.9007 O   0  0  0  0  0  0  0  0  0  0  0  0
   20.9672   70.6141   -1.8359 O   0  0  0  0  0  0  0  0  0  0  0  0
   20.3772   70.5362   -3.1206 C   0  0  0  0  0  0  0  0  0  0  0  0
   18.8149   71.8894   -4.3477 O   0  0  0  0  0  0  0  0  0  0  0  0
   16.7501   70.9583   -2.3827 O   0  0  0  0  0  0  0  0  0  0  0  0
   16.2585   69.3841   -4.5544 O   0  0  0  0  0  0  0  0  0  0  0  0
   17.8564   70.2458   -2.9368 C   0  0  1  0  0  0  0  0  0  0  0  0
   17.5716   69.8728   -4.3762 C   0  0  2  0  0  0  0  0  0  0  0  0
   19.0167   71.2206   -3.0839 C   0  0  1  0  0  0  0  0  0  0  0  0
   17.8082   71.1895   -5.0960 C   0  0  2  0  0  0  0  0  0  0  0  0
   15.9963   70.3561   -2.2793 H   0  0  0  0  0  0  0  0  0  0  0  0
   16.1585   68.5448   -4.0774 H   0  0  0  0  0  0  0  0  0  0  0  0
   16.1387   70.5606   -7.2856 O   0  0  0  0  0  0  0  0  0  0  0  0
   19.6970   70.4958  -10.2145 O   0  0  0  0  0  0  0  0  0  0  0  0
   18.2720   71.0028   -6.4417 N   0  0  0  0  0  0  0  0  0  0  0  0
   17.9127   70.5280   -8.7421 N   0  0  0  0  0  0  0  0  0  0  0  0
   17.3507   70.6891   -7.4688 C   0  0  0  0  0  0  0  0  0  0  0  0
   19.6245   71.1321   -6.7333 C   0  0  0  0  0  0  0  0  0  0  0  0
   20.1453   70.9757   -7.9520 C   0  0  0  0  0  0  0  0  0  0  0  0
   19.2509   70.6459   -9.0810 C   0  0  0  0  0  0  0  0  0  0  0  0
   17.2912   70.3071   -9.4730 H   0  0  0  0  0  0  0  0  0  0  0  0
   23.0101   70.5556   -0.3427 O   0  0  0  0  0  0  0  0  0  0  0  0
   22.2331   70.0640    0.9870 P   0  0  2  0  0  0  0  0  0  0  0  0
   23.4193   69.4543    1.9044 O   0  0  0  0  0  0  0  0  0  0  0  0
   21.1034   69.1110    0.7233 O   0  0  0  0  0  0  0  0  0  0  0  0
   21.7993   71.4260    1.7347 O   0  0  0  0  0  0  0  0  0  0  0  0
   22.7967   73.5734    1.6790 O   0  0  0  0  0  0  0  0  0  0  0  0
   21.2644   73.4576    5.5139 O   0  0  0  0  0  0  0  0  0  0  0  0
   22.5985   71.1185    4.3810 O   0  0  0  0  0  0  0  0  0  0  0  0
   19.9297   75.0175    3.4557 O   0  0  0  0  0  0  0  0  0  0  0  0
   21.3096   73.1572    4.1190 C   0  0  2  0  0  0  0  0  0  0  0  0
   22.6075   72.4160    3.7969 C   0  0  2  0  0  0  0  0  0  0  0  0
   21.2456   74.4779    3.3485 C   0  0  1  0  0  0  0  0  0  0  0  0
   22.7996   72.2806    2.2858 C   0  0  1  0  0  0  0  0  0  0  0  0
   21.5718   74.2775    1.8714 C   0  0  1  0  0  0  0  0  0  0  0  0
   21.3038   72.6331    6.0238 H   0  0  0  0  0  0  0  0  0  0  0  0
   22.4767   71.1969    5.3398 H   0  0  0  0  0  0  0  0  0  0  0  0
   19.7096   75.1497    4.3911 H   0  0  0  0  0  0  0  0  0  0  0  0
   20.7203   76.3677    1.2329 O   0  0  0  0  0  0  0  0  0  0  0  0
   22.8913   75.9213    0.6974 O   0  0  0  0  0  0  0  0  0  0  0  0
   21.8297   75.5883    1.2025 C   0  0  0  0  0  0  0  0  0  0  0  0
  1  4  1  0
  1 24  1  0
  1  2  1  1
  1  3  2  0
 25 28  1  0
 25 24  1  0
 25 26  1  1
 25 27  2  0
  6 11  1  0
  6 12  1  0
 29 36  1  0
 29 37  1  0
  9  7  1  6
  7 13  1  0
 10  8  1  1
  8 14  1  0
  4  5  1  0
 36 28  1  6
 33 30  1  1
 30 38  1  0
 34 31  1  1
 31 39  1  0
 35 32  1  6
 32 40  1  0
 41 43  1  0
 15 19  2  0
 42 43  2  0
 16 22  2  0
 12 17  1  6
 17 19  1  0
 17 20  1  0
 18 19  1  0
 18 22  1  0
 18 23  1  0
  9 10  1  0
  9 11  1  0
 10 12  1  0
 11  5  1  6
 33 34  1  0
 33 35  1  0
 34 36  1  0
 35 37  1  0
 37 43  1  6
 20 21  2  0
 21 22  1  0
M  CHG  3   2  -1  26  -1  41  -1
M  END
>  <COMPND>  (81) 
    udp_gluA.pdb 

>  <AUTHOR>  (81) 
    GENERATED BY OPEN BABEL 3.1.1

>  <MASTER>  (81) 
        0    0    0    0    0    0    0    0   56    0   56    0

>  <minimizedAffinity>  (81) 
-7.71036

>  <CNNscore>  (81) 
0.8112008572

>  <CNNaffinity>  (81) 
4.8157277107

>  <CNN_VS>  (81) 
3.9065225124

>  <CNNaffinity_variance>  (81) 
0.0778865442

$$$$
82
     RDKit          3D

 43 45  0  0  0  0  0  0  0  0999 V2000
   21.6258   72.6565   -1.6292 P   0  0  2  0  0  0  0  0  0  0  0  0
   21.0663   73.4869   -2.9005 O   0  0  0  0  0  0  0  0  0  0  0  0
   23.1048   72.4035   -1.6389 O   0  0  0  0  0  0  0  0  0  0  0  0
   20.6878   71.3389   -1.5826 O   0  0  0  0  0  0  0  0  0  0  0  0
   20.0843   70.8957   -2.7842 C   0  0  0  0  0  0  0  0  0  0  0  0
   18.2920   71.8863   -4.0427 O   0  0  0  0  0  0  0  0  0  0  0  0
   16.4388   70.5557   -2.0968 O   0  0  0  0  0  0  0  0  0  0  0  0
   16.3177   68.9016   -4.2613 O   0  0  0  0  0  0  0  0  0  0  0  0
   17.6772   70.0867   -2.6305 C   0  0  1  0  0  0  0  0  0  0  0  0
   17.4972   69.6545   -4.0703 C   0  0  2  0  0  0  0  0  0  0  0  0
   18.6107   71.2813   -2.7708 C   0  0  1  0  0  0  0  0  0  0  0  0
   17.4643   70.9876   -4.7981 C   0  0  2  0  0  0  0  0  0  0  0  0
   15.8257   69.8100   -1.9981 H   0  0  0  0  0  0  0  0  0  0  0  0
   16.3880   68.0625   -3.7786 H   0  0  0  0  0  0  0  0  0  0  0  0
   15.9355   70.2031   -7.0395 O   0  0  0  0  0  0  0  0  0  0  0  0
   19.5327   70.6652   -9.8838 O   0  0  0  0  0  0  0  0  0  0  0  0
   17.9762   70.8943   -6.1360 N   0  0  0  0  0  0  0  0  0  0  0  0
   17.7288   70.4330   -8.4538 N   0  0  0  0  0  0  0  0  0  0  0  0
   17.1244   70.4901   -7.1911 C   0  0  0  0  0  0  0  0  0  0  0  0
   19.3066   71.2028   -6.3927 C   0  0  0  0  0  0  0  0  0  0  0  0
   19.8684   71.1438   -7.6017 C   0  0  0  0  0  0  0  0  0  0  0  0
   19.0475   70.7295   -8.7584 C   0  0  0  0  0  0  0  0  0  0  0  0
   17.1562   70.1521   -9.2039 H   0  0  0  0  0  0  0  0  0  0  0  0
   21.0990   73.5223   -0.3700 O   0  0  0  0  0  0  0  0  0  0  0  0
   21.8916   74.4714    0.6716 P   0  0  2  0  0  0  0  0  0  0  0  0
   20.7002   75.1679    1.5176 O   0  0  0  0  0  0  0  0  0  0  0  0
   22.8384   75.4401    0.0242 O   0  0  0  0  0  0  0  0  0  0  0  0
   22.5850   73.4499    1.7099 O   0  0  0  0  0  0  0  0  0  0  0  0
   21.5893   71.3011    1.7031 O   0  0  0  0  0  0  0  0  0  0  0  0
   24.1836   71.0154    4.9056 O   0  0  0  0  0  0  0  0  0  0  0  0
   22.6037   73.4375    4.4912 O   0  0  0  0  0  0  0  0  0  0  0  0
   24.8345   69.7290    2.3813 O   0  0  0  0  0  0  0  0  0  0  0  0
   23.7336   71.4709    3.6297 C   0  0  2  0  0  0  0  0  0  0  0  0
   22.4075   72.2147    3.7905 C   0  0  2  0  0  0  0  0  0  0  0  0
   23.5519   70.2479    2.7280 C   0  0  1  0  0  0  0  0  0  0  0  0
   21.7808   72.5163    2.4284 C   0  0  1  0  0  0  0  0  0  0  0  0
   22.8079   70.6072    1.4451 C   0  0  1  0  0  0  0  0  0  0  0  0
   24.3061   71.7756    5.4959 H   0  0  0  0  0  0  0  0  0  0  0  0
   23.0014   73.2537    5.3563 H   0  0  0  0  0  0  0  0  0  0  0  0
   25.3184   69.4965    3.1891 H   0  0  0  0  0  0  0  0  0  0  0  0
   23.3853   68.7739    0.1008 O   0  0  0  0  0  0  0  0  0  0  0  0
   21.2001   68.9585    0.7252 O   0  0  0  0  0  0  0  0  0  0  0  0
   22.3487   69.3752    0.7354 C   0  0  0  0  0  0  0  0  0  0  0  0
  1  4  1  0
  1 24  1  0
  1  2  1  6
  1  3  2  0
 25 28  1  0
 25 24  1  0
 25 26  1  1
 25 27  2  0
  6 11  1  0
  6 12  1  0
 29 36  1  0
 29 37  1  0
  9  7  1  6
  7 13  1  0
 10  8  1  1
  8 14  1  0
  4  5  1  0
 36 28  1  6
 33 30  1  1
 30 38  1  0
 34 31  1  6
 31 39  1  0
 35 32  1  6
 32 40  1  0
 41 43  1  0
 15 19  2  0
 42 43  2  0
 16 22  2  0
 12 17  1  6
 17 19  1  0
 17 20  1  0
 18 19  1  0
 18 22  1  0
 18 23  1  0
  9 10  1  0
  9 11  1  0
 10 12  1  0
 11  5  1  6
 33 34  1  0
 33 35  1  0
 34 36  1  0
 35 37  1  0
 37 43  1  1
 20 21  2  0
 21 22  1  0
M  CHG  3   2  -1  26  -1  41  -1
M  END
>  <COMPND>  (82) 
    udp_gluA.pdb 

>  <AUTHOR>  (82) 
    GENERATED BY OPEN BABEL 3.1.1

>  <MASTER>  (82) 
        0    0    0    0    0    0    0    0   56    0   56    0

>  <minimizedAffinity>  (82) 
-8.11682

>  <CNNscore>  (82) 
0.7919102907

>  <CNNaffinity>  (82) 
4.7676305771

>  <CNN_VS>  (82) 
3.7755358219

>  <CNNaffinity_variance>  (82) 
0.0244571585

$$$$
83
     RDKit          3D

 43 45  0  0  0  0  0  0  0  0999 V2000
   22.6112   70.8475   -1.8073 P   0  0  2  0  0  0  0  0  0  0  0  0
   22.9038   72.4018   -2.1499 O   0  0  0  0  0  0  0  0  0  0  0  0
   23.2821   69.8609   -2.7174 O   0  0  0  0  0  0  0  0  0  0  0  0
   20.9967   70.7607   -1.7448 O   0  0  0  0  0  0  0  0  0  0  0  0
   20.2917   70.4210   -2.9247 C   0  0  0  0  0  0  0  0  0  0  0  0
   18.5812   71.6726   -4.0584 O   0  0  0  0  0  0  0  0  0  0  0  0
   16.6588   70.4623   -2.1011 O   0  0  0  0  0  0  0  0  0  0  0  0
   16.2685   68.9469   -4.3343 O   0  0  0  0  0  0  0  0  0  0  0  0
   17.8144   69.8839   -2.7081 C   0  0  1  0  0  0  0  0  0  0  0  0
   17.5333   69.5500   -4.1578 C   0  0  2  0  0  0  0  0  0  0  0  0
   18.8740   70.9703   -2.8310 C   0  0  1  0  0  0  0  0  0  0  0  0
   17.6282   70.9141   -4.8198 C   0  0  2  0  0  0  0  0  0  0  0  0
   15.9677   69.7870   -2.0120 H   0  0  0  0  0  0  0  0  0  0  0  0
   16.2589   68.0814   -3.8952 H   0  0  0  0  0  0  0  0  0  0  0  0
   15.9699   70.2545   -7.0087 O   0  0  0  0  0  0  0  0  0  0  0  0
   19.4572   70.6312   -9.9988 O   0  0  0  0  0  0  0  0  0  0  0  0
   18.0768   70.8326   -6.1810 N   0  0  0  0  0  0  0  0  0  0  0  0
   17.7085   70.4418   -8.4957 N   0  0  0  0  0  0  0  0  0  0  0  0
   17.1627   70.4930   -7.2063 C   0  0  0  0  0  0  0  0  0  0  0  0
   19.4073   71.0891   -6.4893 C   0  0  0  0  0  0  0  0  0  0  0  0
   19.9128   71.0364   -7.7232 C   0  0  0  0  0  0  0  0  0  0  0  0
   19.0247   70.6880   -8.8516 C   0  0  0  0  0  0  0  0  0  0  0  0
   17.0919   70.2054   -9.2259 H   0  0  0  0  0  0  0  0  0  0  0  0
   23.0417   70.7311   -0.2536 O   0  0  0  0  0  0  0  0  0  0  0  0
   22.2937   70.0491    1.0069 P   0  0  2  0  0  0  0  0  0  0  0  0
   23.4892   69.2662    1.7672 O   0  0  0  0  0  0  0  0  0  0  0  0
   21.1256   69.1825    0.6346 O   0  0  0  0  0  0  0  0  0  0  0  0
   21.9292   71.2814    1.9822 O   0  0  0  0  0  0  0  0  0  0  0  0
   20.2724   72.6333    0.9642 O   0  0  0  0  0  0  0  0  0  0  0  0
   21.0287   74.7140    4.4523 O   0  0  0  0  0  0  0  0  0  0  0  0
   23.2254   73.5606    2.9101 O   0  0  0  0  0  0  0  0  0  0  0  0
   18.6055   73.1288    4.1950 O   0  0  0  0  0  0  0  0  0  0  0  0
   20.9072   73.5565    3.6256 C   0  0  2  0  0  0  0  0  0  0  0  0
   21.8819   73.6610    2.4523 C   0  0  2  0  0  0  0  0  0  0  0  0
   19.4659   73.4886    3.1158 C   0  0  1  0  0  0  0  0  0  0  0  0
   21.6219   72.5581    1.4252 C   0  0  1  0  0  0  0  0  0  0  0  0
   19.3158   72.4522    2.0059 C   0  0  1  0  0  0  0  0  0  0  0  0
   21.9367   74.7780    4.7879 H   0  0  0  0  0  0  0  0  0  0  0  0
   23.3972   74.2573    3.5624 H   0  0  0  0  0  0  0  0  0  0  0  0
   18.6916   73.7804    4.9083 H   0  0  0  0  0  0  0  0  0  0  0  0
   17.2800   73.6089    1.8669 O   0  0  0  0  0  0  0  0  0  0  0  0
   17.6475   71.9622    0.3332 O   0  0  0  0  0  0  0  0  0  0  0  0
   18.0115   72.6197    1.2966 C   0  0  0  0  0  0  0  0  0  0  0  0
  1  4  1  0
  1 24  1  0
  1  2  1  6
  1  3  2  0
 25 28  1  0
 25 24  1  0
 25 26  1  1
 25 27  2  0
  6 11  1  0
  6 12  1  0
 29 36  1  0
 29 37  1  0
  9  7  1  6
  7 13  1  0
 10  8  1  1
  8 14  1  0
  4  5  1  0
 36 28  1  1
 33 30  1  1
 30 38  1  0
 34 31  1  1
 31 39  1  0
 35 32  1  1
 32 40  1  0
 41 43  1  0
 15 19  2  0
 42 43  2  0
 16 22  2  0
 12 17  1  6
 17 19  1  0
 17 20  1  0
 18 19  1  0
 18 22  1  0
 18 23  1  0
  9 10  1  0
  9 11  1  0
 10 12  1  0
 11  5  1  6
 33 34  1  0
 33 35  1  0
 34 36  1  0
 35 37  1  0
 37 43  1  6
 20 21  2  0
 21 22  1  0
M  CHG  3   2  -1  26  -1  41  -1
M  END
>  <COMPND>  (83) 
    udp_gluA.pdb 

>  <AUTHOR>  (83) 
    GENERATED BY OPEN BABEL 3.1.1

>  <MASTER>  (83) 
        0    0    0    0    0    0    0    0   56    0   56    0

>  <minimizedAffinity>  (83) 
-7.76887

>  <CNNscore>  (83) 
0.7801337838

>  <CNNaffinity>  (83) 
4.8360371590

>  <CNN_VS>  (83) 
3.7727558613

>  <CNNaffinity_variance>  (83) 
0.0696698576

$$$$
84
     RDKit          3D

 43 45  0  0  0  0  0  0  0  0999 V2000
   22.7173   70.0217   -2.0614 P   0  0  2  0  0  0  0  0  0  0  0  0
   23.6589   71.0614   -2.8684 O   0  0  0  0  0  0  0  0  0  0  0  0
   23.1711   68.5919   -2.1034 O   0  0  0  0  0  0  0  0  0  0  0  0
   21.2353   70.3058   -2.6453 O   0  0  0  0  0  0  0  0  0  0  0  0
   21.0871   71.2654   -3.6758 C   0  0  0  0  0  0  0  0  0  0  0  0
   19.3222   72.3344   -4.9086 O   0  0  0  0  0  0  0  0  0  0  0  0
   17.5291   71.5942   -2.6220 O   0  0  0  0  0  0  0  0  0  0  0  0
   16.9380   69.6907   -4.4831 O   0  0  0  0  0  0  0  0  0  0  0  0
   18.6227   70.8687   -3.1843 C   0  0  1  0  0  0  0  0  0  0  0  0
   18.2251   70.2712   -4.5174 C   0  0  2  0  0  0  0  0  0  0  0  0
   19.6926   71.8725   -3.5915 C   0  0  1  0  0  0  0  0  0  0  0  0
   18.2982   71.4774   -5.4380 C   0  0  2  0  0  0  0  0  0  0  0  0
   16.8326   70.9738   -2.3542 H   0  0  0  0  0  0  0  0  0  0  0  0
   16.9436   68.9273   -3.8838 H   0  0  0  0  0  0  0  0  0  0  0  0
   16.4377   70.6136   -7.3794 O   0  0  0  0  0  0  0  0  0  0  0  0
   19.7228   70.1269  -10.5755 O   0  0  0  0  0  0  0  0  0  0  0  0
   18.6401   71.1186   -6.7853 N   0  0  0  0  0  0  0  0  0  0  0  0
   18.0758   70.3710   -8.9691 N   0  0  0  0  0  0  0  0  0  0  0  0
   17.6296   70.6972   -7.6817 C   0  0  0  0  0  0  0  0  0  0  0  0
   19.9623   71.1874   -7.2071 C   0  0  0  0  0  0  0  0  0  0  0  0
   20.3723   70.8733   -8.4375 C   0  0  0  0  0  0  0  0  0  0  0  0
   19.3796   70.4229   -9.4350 C   0  0  0  0  0  0  0  0  0  0  0  0
   17.3907   70.0730   -9.6103 H   0  0  0  0  0  0  0  0  0  0  0  0
   22.6535   70.6646   -0.5797 O   0  0  0  0  0  0  0  0  0  0  0  0
   21.6674   70.3649    0.6659 P   0  0  2  0  0  0  0  0  0  0  0  0
   22.5181   70.8795    1.9433 O   0  0  0  0  0  0  0  0  0  0  0  0
   21.2116   68.9376    0.7608 O   0  0  0  0  0  0  0  0  0  0  0  0
   20.4745   71.4398    0.5113 O   0  0  0  0  0  0  0  0  0  0  0  0
   20.9453   73.7391    0.1936 O   0  0  0  0  0  0  0  0  0  0  0  0
   17.0189   73.8541    1.4733 O   0  0  0  0  0  0  0  0  0  0  0  0
   18.9394   72.0585    2.7467 O   0  0  0  0  0  0  0  0  0  0  0  0
   17.6511   74.2644   -1.3344 O   0  0  0  0  0  0  0  0  0  0  0  0
   18.1594   73.3025    0.8154 C   0  0  2  0  0  0  0  0  0  0  0  0
   19.2832   73.0913    1.8303 C   0  0  2  0  0  0  0  0  0  0  0  0
   18.6009   74.2864   -0.2704 C   0  0  1  0  0  0  0  0  0  0  0  0
   20.5908   72.7202    1.1293 C   0  0  1  0  0  0  0  0  0  0  0  0
   19.9711   73.9183   -0.8321 C   0  0  1  0  0  0  0  0  0  0  0  0
   16.7204   73.2459    2.1678 H   0  0  0  0  0  0  0  0  0  0  0  0
   18.1105   72.2873    3.1949 H   0  0  0  0  0  0  0  0  0  0  0  0
   16.7746   74.4968   -0.9902 H   0  0  0  0  0  0  0  0  0  0  0  0
   19.8469   76.1896   -1.4042 O   0  0  0  0  0  0  0  0  0  0  0  0
   21.4847   74.9543   -2.3996 O   0  0  0  0  0  0  0  0  0  0  0  0
   20.5345   75.0441   -1.6368 C   0  0  0  0  0  0  0  0  0  0  0  0
  1  4  1  0
  1 24  1  0
  1  2  1  6
  1  3  2  0
 25 28  1  0
 25 24  1  0
 25 26  1  1
 25 27  2  0
  6 11  1  0
  6 12  1  0
 29 36  1  0
 29 37  1  0
  9  7  1  6
  7 13  1  0
 10  8  1  1
  8 14  1  0
  4  5  1  0
 36 28  1  6
 33 30  1  1
 30 38  1  0
 34 31  1  1
 31 39  1  0
 35 32  1  6
 32 40  1  0
 41 43  1  0
 15 19  2  0
 42 43  2  0
 16 22  2  0
 12 17  1  6
 17 19  1  0
 17 20  1  0
 18 19  1  0
 18 22  1  0
 18 23  1  0
  9 10  1  0
  9 11  1  0
 10 12  1  0
 11  5  1  6
 33 34  1  0
 33 35  1  0
 34 36  1  0
 35 37  1  0
 37 43  1  6
 20 21  2  0
 21 22  1  0
M  CHG  3   2  -1  26  -1  41  -1
M  END
>  <COMPND>  (84) 
    udp_gluA.pdb 

>  <AUTHOR>  (84) 
    GENERATED BY OPEN BABEL 3.1.1

>  <MASTER>  (84) 
        0    0    0    0    0    0    0    0   56    0   56    0

>  <minimizedAffinity>  (84) 
-6.96972

>  <CNNscore>  (84) 
0.6815710664

>  <CNNaffinity>  (84) 
4.6328501701

>  <CNN_VS>  (84) 
3.1576166153

>  <CNNaffinity_variance>  (84) 
0.0855434239

$$$$
85
     RDKit          3D

 43 45  0  0  0  0  0  0  0  0999 V2000
   22.3887   71.1908   -2.7210 P   0  0  2  0  0  0  0  0  0  0  0  0
   22.4414   72.4346   -1.6870 O   0  0  0  0  0  0  0  0  0  0  0  0
   23.5395   71.1160   -3.6812 O   0  0  0  0  0  0  0  0  0  0  0  0
   20.9206   71.3048   -3.3914 O   0  0  0  0  0  0  0  0  0  0  0  0
   20.1032   72.4079   -3.0457 C   0  0  0  0  0  0  0  0  0  0  0  0
   17.9811   72.0456   -4.1149 O   0  0  0  0  0  0  0  0  0  0  0  0
   17.3331   70.2487   -1.8035 O   0  0  0  0  0  0  0  0  0  0  0  0
   18.0093   68.4777   -3.7637 O   0  0  0  0  0  0  0  0  0  0  0  0
   18.5808   70.4535   -2.4668 C   0  0  1  0  0  0  0  0  0  0  0  0
   18.5741   69.7710   -3.8183 C   0  0  2  0  0  0  0  0  0  0  0  0
   18.6719   71.9235   -2.8527 C   0  0  1  0  0  0  0  0  0  0  0  0
   17.7490   70.7346   -4.6541 C   0  0  2  0  0  0  0  0  0  0  0  0
   17.2520   69.3162   -1.5472 H   0  0  0  0  0  0  0  0  0  0  0  0
   18.5712   67.9021   -3.2206 H   0  0  0  0  0  0  0  0  0  0  0  0
   16.0274   70.0256   -6.7778 O   0  0  0  0  0  0  0  0  0  0  0  0
   19.3201   70.7323   -9.9247 O   0  0  0  0  0  0  0  0  0  0  0  0
   18.1304   70.7247   -6.0380 N   0  0  0  0  0  0  0  0  0  0  0  0
   17.6693   70.3773   -8.3430 N   0  0  0  0  0  0  0  0  0  0  0  0
   17.1894   70.3524   -7.0269 C   0  0  0  0  0  0  0  0  0  0  0  0
   19.4224   71.0822   -6.4040 C   0  0  0  0  0  0  0  0  0  0  0  0
   19.8652   71.1012   -7.6627 C   0  0  0  0  0  0  0  0  0  0  0  0
   18.9452   70.7250   -8.7561 C   0  0  0  0  0  0  0  0  0  0  0  0
   17.0329   70.1200   -9.0488 H   0  0  0  0  0  0  0  0  0  0  0  0
   22.2434   69.9120   -1.7432 O   0  0  0  0  0  0  0  0  0  0  0  0
   23.2105   69.3548   -0.5736 P   0  0  2  0  0  0  0  0  0  0  0  0
   24.6811   69.4202   -1.2471 O   0  0  0  0  0  0  0  0  0  0  0  0
   22.8288   67.9996   -0.0523 O   0  0  0  0  0  0  0  0  0  0  0  0
   23.2205   70.5220    0.5400 O   0  0  0  0  0  0  0  0  0  0  0  0
   22.9676   70.3722    2.8901 O   0  0  0  0  0  0  0  0  0  0  0  0
   21.2859   74.0615    2.0971 O   0  0  0  0  0  0  0  0  0  0  0  0
   20.7485   71.7828    0.3498 O   0  0  0  0  0  0  0  0  0  0  0  0
   23.9362   73.8896    3.2791 O   0  0  0  0  0  0  0  0  0  0  0  0
   22.1857   72.9705    1.9022 C   0  0  2  0  0  0  0  0  0  0  0  0
   21.3907   71.6962    1.6166 C   0  0  2  0  0  0  0  0  0  0  0  0
   23.0136   72.8065    3.1787 C   0  0  1  0  0  0  0  0  0  0  0  0
   22.3021   70.4682    1.6301 C   0  0  1  0  0  0  0  0  0  0  0  0
   23.7975   71.4973    3.1700 C   0  0  1  0  0  0  0  0  0  0  0  0
   20.7490   74.1847    1.2984 H   0  0  0  0  0  0  0  0  0  0  0  0
   20.1688   72.5600    0.3341 H   0  0  0  0  0  0  0  0  0  0  0  0
   23.4501   74.7290    3.2855 H   0  0  0  0  0  0  0  0  0  0  0  0
   23.5485   70.2771    5.1576 O   0  0  0  0  0  0  0  0  0  0  0  0
   25.3362   71.6857    5.0189 O   0  0  0  0  0  0  0  0  0  0  0  0
   24.3317   71.1898    4.5310 C   0  0  0  0  0  0  0  0  0  0  0  0
  1  4  1  0
  1 24  1  0
  1  2  1  1
  1  3  2  0
 25 28  1  0
 25 24  1  0
 25 26  1  6
 25 27  2  0
  6 11  1  0
  6 12  1  0
 29 36  1  0
 29 37  1  0
  9  7  1  6
  7 13  1  0
 10  8  1  1
  8 14  1  0
  4  5  1  0
 36 28  1  6
 33 30  1  1
 30 38  1  0
 34 31  1  6
 31 39  1  0
 35 32  1  6
 32 40  1  0
 41 43  1  0
 15 19  2  0
 42 43  2  0
 16 22  2  0
 12 17  1  6
 17 19  1  0
 17 20  1  0
 18 19  1  0
 18 22  1  0
 18 23  1  0
  9 10  1  0
  9 11  1  0
 10 12  1  0
 11  5  1  6
 33 34  1  0
 33 35  1  0
 34 36  1  0
 35 37  1  0
 37 43  1  1
 20 21  2  0
 21 22  1  0
M  CHG  3   2  -1  26  -1  41  -1
M  END
>  <COMPND>  (85) 
    udp_gluA.pdb 

>  <AUTHOR>  (85) 
    GENERATED BY OPEN BABEL 3.1.1

>  <MASTER>  (85) 
        0    0    0    0    0    0    0    0   56    0   56    0

>  <minimizedAffinity>  (85) 
-8.86323

>  <CNNscore>  (85) 
0.6727281809

>  <CNNaffinity>  (85) 
4.5881967545

>  <CNN_VS>  (85) 
3.0866093636

>  <CNNaffinity_variance>  (85) 
0.0024676942

$$$$
86
     RDKit          3D

 43 45  0  0  0  0  0  0  0  0999 V2000
   20.0675   71.1638   -0.1459 P   0  0  2  0  0  0  0  0  0  0  0  0
   20.4731   69.6035   -0.0049 O   0  0  0  0  0  0  0  0  0  0  0  0
   20.9124   71.9541   -1.1016 O   0  0  0  0  0  0  0  0  0  0  0  0
   20.0460   71.6992    1.3808 O   0  0  0  0  0  0  0  0  0  0  0  0
   19.0739   72.6615    1.7462 C   0  0  0  0  0  0  0  0  0  0  0  0
   20.6612   73.3217    3.4261 O   0  0  0  0  0  0  0  0  0  0  0  0
   20.7907   75.9577    2.0027 O   0  0  0  0  0  0  0  0  0  0  0  0
   23.0506   74.7012    1.1366 O   0  0  0  0  0  0  0  0  0  0  0  0
   20.6416   74.6449    1.4616 C   0  0  1  0  0  0  0  0  0  0  0  0
   21.9569   73.8981    1.5281 C   0  0  2  0  0  0  0  0  0  0  0  0
   19.7695   73.8400    2.4154 C   0  0  1  0  0  0  0  0  0  0  0  0
   22.0192   73.4988    2.9925 C   0  0  2  0  0  0  0  0  0  0  0  0
   21.3444   76.4910    1.4105 H   0  0  0  0  0  0  0  0  0  0  0  0
   22.9649   74.9285    0.1969 H   0  0  0  0  0  0  0  0  0  0  0  0
   23.2915   72.7788    5.4090 O   0  0  0  0  0  0  0  0  0  0  0  0
   24.7481   68.7707    3.6602 O   0  0  0  0  0  0  0  0  0  0  0  0
   22.7380   72.2730    3.1962 N   0  0  0  0  0  0  0  0  0  0  0  0
   24.0166   70.7837    4.5354 N   0  0  0  0  0  0  0  0  0  0  0  0
   23.3409   72.0080    4.4486 C   0  0  0  0  0  0  0  0  0  0  0  0
   22.8389   71.3484    2.1638 C   0  0  0  0  0  0  0  0  0  0  0  0
   23.4863   70.1856    2.2616 C   0  0  0  0  0  0  0  0  0  0  0  0
   24.1448   69.8323    3.5363 C   0  0  0  0  0  0  0  0  0  0  0  0
   24.4462   70.5779    5.3970 H   0  0  0  0  0  0  0  0  0  0  0  0
   18.4988   71.0978   -0.5300 O   0  0  0  0  0  0  0  0  0  0  0  0
   17.7539   70.5667   -1.8629 P   0  0  2  0  0  0  0  0  0  0  0  0
   16.3853   71.4308   -1.8910 O   0  0  0  0  0  0  0  0  0  0  0  0
   17.5475   69.0802   -1.9022 O   0  0  0  0  0  0  0  0  0  0  0  0
   18.6309   71.1534   -3.0832 O   0  0  0  0  0  0  0  0  0  0  0  0
   17.9671   70.1361   -5.1164 O   0  0  0  0  0  0  0  0  0  0  0  0
   21.1039   72.5223   -6.3551 O   0  0  0  0  0  0  0  0  0  0  0  0
   21.2942   70.9984   -3.8700 O   0  0  0  0  0  0  0  0  0  0  0  0
   18.3617   73.3149   -6.9057 O   0  0  0  0  0  0  0  0  0  0  0  0
   19.9828   72.1578   -5.5500 C   0  0  2  0  0  0  0  0  0  0  0  0
   20.2696   70.8327   -4.8433 C   0  0  2  0  0  0  0  0  0  0  0  0
   18.7664   72.0191   -6.4680 C   0  0  1  0  0  0  0  0  0  0  0  0
   19.0129   70.2955   -4.1570 C   0  0  1  0  0  0  0  0  0  0  0  0
   17.5950   71.3606   -5.7450 C   0  0  1  0  0  0  0  0  0  0  0  0
   21.8891   72.6161   -5.7930 H   0  0  0  0  0  0  0  0  0  0  0  0
   22.0945   71.3393   -4.2985 H   0  0  0  0  0  0  0  0  0  0  0  0
   19.0985   73.7449   -7.3674 H   0  0  0  0  0  0  0  0  0  0  0  0
   16.0970   69.6873   -6.4214 O   0  0  0  0  0  0  0  0  0  0  0  0
   16.1367   71.6069   -7.6514 O   0  0  0  0  0  0  0  0  0  0  0  0
   16.5443   70.9328   -6.7173 C   0  0  0  0  0  0  0  0  0  0  0  0
  1  4  1  0
  1 24  1  0
  1  2  1  1
  1  3  2  0
 25 28  1  0
 25 24  1  0
 25 26  1  6
 25 27  2  0
  6 11  1  0
  6 12  1  0
 29 36  1  0
 29 37  1  0
  9  7  1  1
  7 13  1  0
 10  8  1  1
  8 14  1  0
  4  5  1  0
 36 28  1  1
 33 30  1  6
 30 38  1  0
 34 31  1  1
 31 39  1  0
 35 32  1  1
 32 40  1  0
 41 43  1  0
 15 19  2  0
 42 43  2  0
 16 22  2  0
 12 17  1  6
 17 19  1  0
 17 20  1  0
 18 19  1  0
 18 22  1  0
 18 23  1  0
  9 10  1  0
  9 11  1  0
 10 12  1  0
 11  5  1  6
 33 34  1  0
 33 35  1  0
 34 36  1  0
 35 37  1  0
 37 43  1  6
 20 21  2  0
 21 22  1  0
M  CHG  3   2  -1  26  -1  41  -1
M  END
>  <COMPND>  (86) 
    udp_gluA.pdb 

>  <AUTHOR>  (86) 
    GENERATED BY OPEN BABEL 3.1.1

>  <MASTER>  (86) 
        0    0    0    0    0    0    0    0   56    0   56    0

>  <minimizedAffinity>  (86) 
-7.64204

>  <CNNscore>  (86) 
0.5582445264

>  <CNNaffinity>  (86) 
4.1554574966

>  <CNN_VS>  (86) 
2.3197615147

>  <CNNaffinity_variance>  (86) 
0.1396818012

$$$$
87
     RDKit          3D

 43 45  0  0  0  0  0  0  0  0999 V2000
   22.0027   71.2148   -3.1697 P   0  0  2  0  0  0  0  0  0  0  0  0
   22.2921   71.9620   -1.7637 O   0  0  0  0  0  0  0  0  0  0  0  0
   22.7485   71.7700   -4.3475 O   0  0  0  0  0  0  0  0  0  0  0  0
   20.3893   71.2261   -3.2908 O   0  0  0  0  0  0  0  0  0  0  0  0
   19.6830   72.3545   -2.8087 C   0  0  0  0  0  0  0  0  0  0  0  0
   17.6618   72.2182   -4.1026 O   0  0  0  0  0  0  0  0  0  0  0  0
   16.5759   70.5195   -1.8831 O   0  0  0  0  0  0  0  0  0  0  0  0
   17.2620   68.6712   -3.7669 O   0  0  0  0  0  0  0  0  0  0  0  0
   17.9027   70.5821   -2.4068 C   0  0  1  0  0  0  0  0  0  0  0  0
   17.9673   69.8947   -3.7542 C   0  0  2  0  0  0  0  0  0  0  0  0
   18.1949   72.0306   -2.7738 C   0  0  1  0  0  0  0  0  0  0  0  0
   17.3475   70.9365   -4.6698 C   0  0  2  0  0  0  0  0  0  0  0  0
   16.3662   69.6034   -1.6414 H   0  0  0  0  0  0  0  0  0  0  0  0
   17.6958   68.0417   -3.1690 H   0  0  0  0  0  0  0  0  0  0  0  0
   15.8801   70.0716   -6.9227 O   0  0  0  0  0  0  0  0  0  0  0  0
   19.4641   70.7418   -9.7422 O   0  0  0  0  0  0  0  0  0  0  0  0
   17.8726   70.8750   -6.0045 N   0  0  0  0  0  0  0  0  0  0  0  0
   17.6669   70.4052   -8.3246 N   0  0  0  0  0  0  0  0  0  0  0  0
   17.0519   70.4255   -7.0659 C   0  0  0  0  0  0  0  0  0  0  0  0
   19.1851   71.2586   -6.2517 C   0  0  0  0  0  0  0  0  0  0  0  0
   19.7572   71.2339   -7.4571 C   0  0  0  0  0  0  0  0  0  0  0  0
   18.9687   70.7763   -8.6199 C   0  0  0  0  0  0  0  0  0  0  0  0
   17.1159   70.0940   -9.0789 H   0  0  0  0  0  0  0  0  0  0  0  0
   22.3309   69.6683   -2.8330 O   0  0  0  0  0  0  0  0  0  0  0  0
   23.5010   69.0020   -1.9381 P   0  0  2  0  0  0  0  0  0  0  0  0
   24.8542   69.6050   -2.5905 O   0  0  0  0  0  0  0  0  0  0  0  0
   23.4559   67.5024   -1.8832 O   0  0  0  0  0  0  0  0  0  0  0  0
   23.3823   69.7284   -0.5026 O   0  0  0  0  0  0  0  0  0  0  0  0
   23.4771   69.0254    1.7570 O   0  0  0  0  0  0  0  0  0  0  0  0
   20.3657   71.7417    1.8516 O   0  0  0  0  0  0  0  0  0  0  0  0
   20.6072   69.8428   -0.3553 O   0  0  0  0  0  0  0  0  0  0  0  0
   22.9720   72.4708    2.9131 O   0  0  0  0  0  0  0  0  0  0  0  0
   21.6028   71.1925    1.3977 C   0  0  2  0  0  0  0  0  0  0  0  0
   21.3668   69.7861    0.8466 C   0  0  2  0  0  0  0  0  0  0  0  0
   22.5634   71.1434    2.5880 C   0  0  1  0  0  0  0  0  0  0  0  0
   22.6933   69.0793    0.5644 C   0  0  1  0  0  0  0  0  0  0  0  0
   23.8047   70.3155    2.2683 C   0  0  1  0  0  0  0  0  0  0  0  0
   19.7392   71.7827    1.1119 H   0  0  0  0  0  0  0  0  0  0  0  0
   19.7642   70.2904   -0.1837 H   0  0  0  0  0  0  0  0  0  0  0  0
   22.1911   73.0083    3.1186 H   0  0  0  0  0  0  0  0  0  0  0  0
   24.7675   68.6627    3.6258 O   0  0  0  0  0  0  0  0  0  0  0  0
   24.9604   70.8246    4.3242 O   0  0  0  0  0  0  0  0  0  0  0  0
   24.5666   69.9991    3.5140 C   0  0  0  0  0  0  0  0  0  0  0  0
  1  4  1  0
  1 24  1  0
  1  2  1  1
  1  3  2  0
 25 28  1  0
 25 24  1  0
 25 26  1  6
 25 27  2  0
  6 11  1  0
  6 12  1  0
 29 36  1  0
 29 37  1  0
  9  7  1  6
  7 13  1  0
 10  8  1  1
  8 14  1  0
  4  5  1  0
 36 28  1  6
 33 30  1  1
 30 38  1  0
 34 31  1  6
 31 39  1  0
 35 32  1  6
 32 40  1  0
 41 43  1  0
 15 19  2  0
 42 43  2  0
 16 22  2  0
 12 17  1  6
 17 19  1  0
 17 20  1  0
 18 19  1  0
 18 22  1  0
 18 23  1  0
  9 10  1  0
  9 11  1  0
 10 12  1  0
 11  5  1  6
 33 34  1  0
 33 35  1  0
 34 36  1  0
 35 37  1  0
 37 43  1  1
 20 21  2  0
 21 22  1  0
M  CHG  3   2  -1  26  -1  41  -1
M  END
>  <COMPND>  (87) 
    udp_gluA.pdb 

>  <AUTHOR>  (87) 
    GENERATED BY OPEN BABEL 3.1.1

>  <MASTER>  (87) 
        0    0    0    0    0    0    0    0   56    0   56    0

>  <minimizedAffinity>  (87) 
-9.09566

>  <CNNscore>  (87) 
0.5392134190

>  <CNNaffinity>  (87) 
4.5129499435

>  <CNN_VS>  (87) 
2.4334430695

>  <CNNaffinity_variance>  (87) 
0.0862892717

$$$$
88
     RDKit          3D

 43 45  0  0  0  0  0  0  0  0999 V2000
   20.5687   71.3603   -0.9871 P   0  0  2  0  0  0  0  0  0  0  0  0
   19.6490   70.1184   -0.5068 O   0  0  0  0  0  0  0  0  0  0  0  0
   22.0480   71.1205   -0.9093 O   0  0  0  0  0  0  0  0  0  0  0  0
   20.0134   72.6114   -0.1244 O   0  0  0  0  0  0  0  0  0  0  0  0
   19.5254   72.3683    1.1822 C   0  0  0  0  0  0  0  0  0  0  0  0
   20.7428   72.9184    3.1804 O   0  0  0  0  0  0  0  0  0  0  0  0
   20.8344   75.7251    2.1290 O   0  0  0  0  0  0  0  0  0  0  0  0
   23.3207   74.7815    1.5260 O   0  0  0  0  0  0  0  0  0  0  0  0
   20.9092   74.4902    1.4162 C   0  0  1  0  0  0  0  0  0  0  0  0
   22.2650   73.8482    1.6210 C   0  0  2  0  0  0  0  0  0  0  0  0
   19.9797   73.4965    2.0993 C   0  0  1  0  0  0  0  0  0  0  0  0
   22.1281   73.2601    3.0150 C   0  0  2  0  0  0  0  0  0  0  0  0
   21.4201   76.3761    1.7110 H   0  0  0  0  0  0  0  0  0  0  0  0
   23.3665   75.1266    0.6200 H   0  0  0  0  0  0  0  0  0  0  0  0
   23.8079   72.7876    5.2357 O   0  0  0  0  0  0  0  0  0  0  0  0
   25.1386   68.6934    3.5894 O   0  0  0  0  0  0  0  0  0  0  0  0
   22.9248   72.0790    3.1921 N   0  0  0  0  0  0  0  0  0  0  0  0
   24.4698   70.7494    4.4131 N   0  0  0  0  0  0  0  0  0  0  0  0
   23.7347   71.9401    4.3439 C   0  0  0  0  0  0  0  0  0  0  0  0
   22.8976   71.0739    2.2330 C   0  0  0  0  0  0  0  0  0  0  0  0
   23.6038   69.9444    2.3129 C   0  0  0  0  0  0  0  0  0  0  0  0
   24.4762   69.7212    3.4844 C   0  0  0  0  0  0  0  0  0  0  0  0
   25.0428   70.6309    5.2050 H   0  0  0  0  0  0  0  0  0  0  0  0
   20.0139   71.6691   -2.4736 O   0  0  0  0  0  0  0  0  0  0  0  0
   18.9879   72.7972   -3.0105 P   0  0  2  0  0  0  0  0  0  0  0  0
   19.9376   74.0912   -3.2203 O   0  0  0  0  0  0  0  0  0  0  0  0
   17.8086   73.0347   -2.1122 O   0  0  0  0  0  0  0  0  0  0  0  0
   18.6065   72.3255   -4.5053 O   0  0  0  0  0  0  0  0  0  0  0  0
   18.6367   69.9581   -4.5642 O   0  0  0  0  0  0  0  0  0  0  0  0
   17.6503   70.8835   -8.4678 O   0  0  0  0  0  0  0  0  0  0  0  0
   19.7061   72.4075   -7.0588 O   0  0  0  0  0  0  0  0  0  0  0  0
   15.6108   69.9109   -6.6387 O   0  0  0  0  0  0  0  0  0  0  0  0
   17.6824   71.0692   -7.0528 C   0  0  2  0  0  0  0  0  0  0  0  0
   19.1329   71.1940   -6.5859 C   0  0  2  0  0  0  0  0  0  0  0  0
   17.0161   69.8554   -6.4012 C   0  0  1  0  0  0  0  0  0  0  0  0
   19.2209   71.1635   -5.0594 C   0  0  1  0  0  0  0  0  0  0  0  0
   17.2555   69.8306   -4.8943 C   0  0  1  0  0  0  0  0  0  0  0  0
   18.0685   71.6428   -8.9034 H   0  0  0  0  0  0  0  0  0  0  0  0
   19.6534   72.4338   -8.0267 H   0  0  0  0  0  0  0  0  0  0  0  0
   15.4448   69.9273   -7.5943 H   0  0  0  0  0  0  0  0  0  0  0  0
   17.6719   68.2133   -3.2474 O   0  0  0  0  0  0  0  0  0  0  0  0
   16.0213   67.7621   -4.7544 O   0  0  0  0  0  0  0  0  0  0  0  0
   16.8953   68.4984   -4.3219 C   0  0  0  0  0  0  0  0  0  0  0  0
  1  4  1  0
  1 24  1  0
  1  2  1  1
  1  3  2  0
 25 28  1  0
 25 24  1  0
 25 26  1  6
 25 27  2  0
  6 11  1  0
  6 12  1  0
 29 36  1  0
 29 37  1  0
  9  7  1  1
  7 13  1  0
 10  8  1  1
  8 14  1  0
  4  5  1  0
 36 28  1  1
 33 30  1  6
 30 38  1  0
 34 31  1  1
 31 39  1  0
 35 32  1  1
 32 40  1  0
 41 43  1  0
 15 19  2  0
 42 43  2  0
 16 22  2  0
 12 17  1  6
 17 19  1  0
 17 20  1  0
 18 19  1  0
 18 22  1  0
 18 23  1  0
  9 10  1  0
  9 11  1  0
 10 12  1  0
 11  5  1  6
 33 34  1  0
 33 35  1  0
 34 36  1  0
 35 37  1  0
 37 43  1  6
 20 21  2  0
 21 22  1  0
M  CHG  3   2  -1  26  -1  41  -1
M  END
>  <COMPND>  (88) 
    udp_gluA.pdb 

>  <AUTHOR>  (88) 
    GENERATED BY OPEN BABEL 3.1.1

>  <MASTER>  (88) 
        0    0    0    0    0    0    0    0   56    0   56    0

>  <minimizedAffinity>  (88) 
-7.58648

>  <CNNscore>  (88) 
0.4750291407

>  <CNNaffinity>  (88) 
4.1211562157

>  <CNN_VS>  (88) 
1.9576692581

>  <CNNaffinity_variance>  (88) 
0.0912764817

$$$$
89
     RDKit          3D

 43 45  0  0  0  0  0  0  0  0999 V2000
   20.1963   71.1565   -0.0241 P   0  0  2  0  0  0  0  0  0  0  0  0
   20.4727   69.5638    0.0505 O   0  0  0  0  0  0  0  0  0  0  0  0
   21.1104   71.9159   -0.9403 O   0  0  0  0  0  0  0  0  0  0  0  0
   20.2056   71.6254    1.5245 O   0  0  0  0  0  0  0  0  0  0  0  0
   20.9937   72.7441    1.8875 C   0  0  0  0  0  0  0  0  0  0  0  0
   23.2000   73.3539    2.6212 O   0  0  0  0  0  0  0  0  0  0  0  0
   23.9205   70.4674    2.2459 O   0  0  0  0  0  0  0  0  0  0  0  0
   23.5643   70.6468    4.9435 O   0  0  0  0  0  0  0  0  0  0  0  0
   22.6967   71.0408    2.7065 C   0  0  1  0  0  0  0  0  0  0  0  0
   22.8579   71.5528    4.1222 C   0  0  2  0  0  0  0  0  0  0  0  0
   22.4582   72.3271    1.9276 C   0  0  1  0  0  0  0  0  0  0  0  0
   23.6117   72.8535    3.9032 C   0  0  2  0  0  0  0  0  0  0  0  0
   24.0943   69.6441    2.7292 H   0  0  0  0  0  0  0  0  0  0  0  0
   23.0430   69.8354    5.0527 H   0  0  0  0  0  0  0  0  0  0  0  0
   25.5332   74.5287    5.1189 O   0  0  0  0  0  0  0  0  0  0  0  0
   22.3485   76.5867    7.7392 O   0  0  0  0  0  0  0  0  0  0  0  0
   23.3121   73.8360    4.9061 N   0  0  0  0  0  0  0  0  0  0  0  0
   23.9454   75.5514    6.4235 N   0  0  0  0  0  0  0  0  0  0  0  0
   24.3509   74.6261    5.4527 C   0  0  0  0  0  0  0  0  0  0  0  0
   22.0025   74.0104    5.3368 C   0  0  0  0  0  0  0  0  0  0  0  0
   21.6314   74.8966    6.2629 C   0  0  0  0  0  0  0  0  0  0  0  0
   22.6559   75.7609    6.8849 C   0  0  0  0  0  0  0  0  0  0  0  0
   24.6513   76.1115    6.8202 H   0  0  0  0  0  0  0  0  0  0  0  0
   18.6306   71.2351   -0.4182 O   0  0  0  0  0  0  0  0  0  0  0  0
   17.8349   70.6955   -1.7180 P   0  0  2  0  0  0  0  0  0  0  0  0
   16.4827   71.5853   -1.7195 O   0  0  0  0  0  0  0  0  0  0  0  0
   17.5996   69.2128   -1.7243 O   0  0  0  0  0  0  0  0  0  0  0  0
   18.6846   71.2440   -2.9748 O   0  0  0  0  0  0  0  0  0  0  0  0
   18.0393   70.1206   -4.9575 O   0  0  0  0  0  0  0  0  0  0  0  0
   21.1321   72.5027   -6.3096 O   0  0  0  0  0  0  0  0  0  0  0  0
   21.3502   71.1008   -3.7559 O   0  0  0  0  0  0  0  0  0  0  0  0
   18.3759   73.2186   -6.8942 O   0  0  0  0  0  0  0  0  0  0  0  0
   20.0179   72.1561   -5.4872 C   0  0  2  0  0  0  0  0  0  0  0  0
   20.3287   70.8710   -4.7194 C   0  0  2  0  0  0  0  0  0  0  0  0
   18.8041   71.9523   -6.3966 C   0  0  1  0  0  0  0  0  0  0  0  0
   19.0821   70.3438   -4.0075 C   0  0  1  0  0  0  0  0  0  0  0  0
   17.6449   71.3073   -5.6424 C   0  0  1  0  0  0  0  0  0  0  0  0
   21.9155   72.6371   -5.7532 H   0  0  0  0  0  0  0  0  0  0  0  0
   22.1442   71.4357   -4.2006 H   0  0  0  0  0  0  0  0  0  0  0  0
   19.1046   73.6399   -7.3762 H   0  0  0  0  0  0  0  0  0  0  0  0
   16.2305   69.5488   -6.2817 O   0  0  0  0  0  0  0  0  0  0  0  0
   16.1406   71.4595   -7.5227 O   0  0  0  0  0  0  0  0  0  0  0  0
   16.6022   70.8153   -6.5927 C   0  0  0  0  0  0  0  0  0  0  0  0
  1  4  1  0
  1 24  1  0
  1  2  1  1
  1  3  2  0
 25 28  1  0
 25 24  1  0
 25 26  1  6
 25 27  2  0
  6 11  1  0
  6 12  1  0
 29 36  1  0
 29 37  1  0
  9  7  1  6
  7 13  1  0
 10  8  1  1
  8 14  1  0
  4  5  1  0
 36 28  1  1
 33 30  1  6
 30 38  1  0
 34 31  1  1
 31 39  1  0
 35 32  1  1
 32 40  1  0
 41 43  1  0
 15 19  2  0
 42 43  2  0
 16 22  2  0
 12 17  1  1
 17 19  1  0
 17 20  1  0
 18 19  1  0
 18 22  1  0
 18 23  1  0
  9 10  1  0
  9 11  1  0
 10 12  1  0
 11  5  1  1
 33 34  1  0
 33 35  1  0
 34 36  1  0
 35 37  1  0
 37 43  1  6
 20 21  2  0
 21 22  1  0
M  CHG  3   2  -1  26  -1  41  -1
M  END
>  <COMPND>  (89) 
    udp_gluA.pdb 

>  <AUTHOR>  (89) 
    GENERATED BY OPEN BABEL 3.1.1

>  <MASTER>  (89) 
        0    0    0    0    0    0    0    0   56    0   56    0

>  <minimizedAffinity>  (89) 
-7.76713

>  <CNNscore>  (89) 
0.4433606267

>  <CNNaffinity>  (89) 
4.0113830566

>  <CNN_VS>  (89) 
1.7784893513

>  <CNNaffinity_variance>  (89) 
0.1255097836

$$$$
90
     RDKit          3D

 43 45  0  0  0  0  0  0  0  0999 V2000
   20.2026   73.6841   -1.4193 P   0  0  2  0  0  0  0  0  0  0  0  0
   18.6079   73.6836   -1.6951 O   0  0  0  0  0  0  0  0  0  0  0  0
   20.6684   74.6788   -0.3969 O   0  0  0  0  0  0  0  0  0  0  0  0
   20.8518   73.8355   -2.8936 O   0  0  0  0  0  0  0  0  0  0  0  0
   20.9187   72.6906   -3.7238 C   0  0  0  0  0  0  0  0  0  0  0  0
   20.1025   71.9775   -5.8693 O   0  0  0  0  0  0  0  0  0  0  0  0
   19.8666   74.8906   -6.5401 O   0  0  0  0  0  0  0  0  0  0  0  0
   17.2955   74.2068   -5.9419 O   0  0  0  0  0  0  0  0  0  0  0  0
   19.6395   74.2286   -5.2956 C   0  0  1  0  0  0  0  0  0  0  0  0
   18.3341   73.4628   -5.3399 C   0  0  2  0  0  0  0  0  0  0  0  0
   20.6620   73.1079   -5.1661 C   0  0  1  0  0  0  0  0  0  0  0  0
   18.7167   72.2339   -6.1469 C   0  0  2  0  0  0  0  0  0  0  0  0
   19.2250   75.6109   -6.6454 H   0  0  0  0  0  0  0  0  0  0  0  0
   17.0886   74.9780   -5.3902 H   0  0  0  0  0  0  0  0  0  0  0  0
   16.3359   71.4341   -7.4387 O   0  0  0  0  0  0  0  0  0  0  0  0
   15.8439   67.7829   -4.6692 O   0  0  0  0  0  0  0  0  0  0  0  0
   17.9462   71.0783   -5.7838 N   0  0  0  0  0  0  0  0  0  0  0  0
   16.0926   69.6169   -6.0575 N   0  0  0  0  0  0  0  0  0  0  0  0
   16.7651   70.7648   -6.4970 C   0  0  0  0  0  0  0  0  0  0  0  0
   18.3627   70.2689   -4.7339 C   0  0  0  0  0  0  0  0  0  0  0  0
   17.7112   69.1778   -4.3265 C   0  0  0  0  0  0  0  0  0  0  0  0
   16.4672   68.7809   -5.0181 C   0  0  0  0  0  0  0  0  0  0  0  0
   15.2664   69.3796   -6.5374 H   0  0  0  0  0  0  0  0  0  0  0  0
   20.5066   72.1413   -1.0451 O   0  0  0  0  0  0  0  0  0  0  0  0
   19.8557   71.1722    0.0733 P   0  0  2  0  0  0  0  0  0  0  0  0
   19.2225   69.9681   -0.8039 O   0  0  0  0  0  0  0  0  0  0  0  0
   18.8768   71.8542    0.9847 O   0  0  0  0  0  0  0  0  0  0  0  0
   21.1192   70.5078    0.8247 O   0  0  0  0  0  0  0  0  0  0  0  0
   22.6697   72.2716    1.1315 O   0  0  0  0  0  0  0  0  0  0  0  0
   24.5670   69.1417    3.0475 O   0  0  0  0  0  0  0  0  0  0  0  0
   23.2187   68.7141    0.4915 O   0  0  0  0  0  0  0  0  0  0  0  0
   23.2639   71.2270    4.5981 O   0  0  0  0  0  0  0  0  0  0  0  0
   23.4508   69.9061    2.5918 C   0  0  2  0  0  0  0  0  0  0  0  0
   23.4772   69.9902    1.0654 C   0  0  2  0  0  0  0  0  0  0  0  0
   23.5541   71.3049    3.2038 C   0  0  1  0  0  0  0  0  0  0  0  0
   22.4355   70.9865    0.5544 C   0  0  1  0  0  0  0  0  0  0  0  0
   22.5685   72.2716    2.5537 C   0  0  1  0  0  0  0  0  0  0  0  0
   24.5227   68.2485    2.6713 H   0  0  0  0  0  0  0  0  0  0  0  0
   23.8758   68.0770    0.8116 H   0  0  0  0  0  0  0  0  0  0  0  0
   23.8842   70.6146    5.0238 H   0  0  0  0  0  0  0  0  0  0  0  0
   24.0966   73.7531    3.5394 O   0  0  0  0  0  0  0  0  0  0  0  0
   22.1859   74.6506    2.6775 O   0  0  0  0  0  0  0  0  0  0  0  0
   22.8956   73.6844    2.9134 C   0  0  0  0  0  0  0  0  0  0  0  0
  1  4  1  0
  1 24  1  0
  1  2  1  6
  1  3  2  0
 25 28  1  0
 25 24  1  0
 25 26  1  6
 25 27  2  0
  6 11  1  0
  6 12  1  0
 29 36  1  0
 29 37  1  0
  9  7  1  6
  7 13  1  0
 10  8  1  6
  8 14  1  0
  4  5  1  0
 36 28  1  1
 33 30  1  1
 30 38  1  0
 34 31  1  6
 31 39  1  0
 35 32  1  1
 32 40  1  0
 41 43  1  0
 15 19  2  0
 42 43  2  0
 16 22  2  0
 12 17  1  1
 17 19  1  0
 17 20  1  0
 18 19  1  0
 18 22  1  0
 18 23  1  0
  9 10  1  0
  9 11  1  0
 10 12  1  0
 11  5  1  1
 33 34  1  0
 33 35  1  0
 34 36  1  0
 35 37  1  0
 37 43  1  1
 20 21  2  0
 21 22  1  0
M  CHG  3   2  -1  26  -1  41  -1
M  END
>  <COMPND>  (90) 
    udp_gluA.pdb 

>  <AUTHOR>  (90) 
    GENERATED BY OPEN BABEL 3.1.1

>  <MASTER>  (90) 
        0    0    0    0    0    0    0    0   56    0   56    0

>  <minimizedAffinity>  (90) 
-7.63704

>  <CNNscore>  (90) 
0.4354032278

>  <CNNaffinity>  (90) 
4.0527505875

>  <CNN_VS>  (90) 
1.7645807266

>  <CNNaffinity_variance>  (90) 
0.4780002236

$$$$
91
     RDKit          3D

 43 45  0  0  0  0  0  0  0  0999 V2000
   22.2479   70.9533   -2.0750 P   0  0  2  0  0  0  0  0  0  0  0  0
   23.2899   71.1818   -0.8581 O   0  0  0  0  0  0  0  0  0  0  0  0
   22.1720   69.5452   -2.5882 O   0  0  0  0  0  0  0  0  0  0  0  0
   22.6680   72.0756   -3.1621 O   0  0  0  0  0  0  0  0  0  0  0  0
   21.6989   73.0281   -3.5596 C   0  0  0  0  0  0  0  0  0  0  0  0
   21.1189   71.9442   -5.6252 O   0  0  0  0  0  0  0  0  0  0  0  0
   21.3572   74.6496   -6.8961 O   0  0  0  0  0  0  0  0  0  0  0  0
   18.6604   74.3581   -6.6165 O   0  0  0  0  0  0  0  0  0  0  0  0
   20.8688   74.2996   -5.6009 C   0  0  1  0  0  0  0  0  0  0  0  0
   19.4968   73.6690   -5.7110 C   0  0  2  0  0  0  0  0  0  0  0  0
   21.7101   73.1430   -5.0785 C   0  0  1  0  0  0  0  0  0  0  0  0
   19.8324   72.2631   -6.1788 C   0  0  2  0  0  0  0  0  0  0  0  0
   20.8351   75.3868   -7.2505 H   0  0  0  0  0  0  0  0  0  0  0  0
   18.4757   75.2471   -6.2737 H   0  0  0  0  0  0  0  0  0  0  0  0
   17.4588   71.6010   -7.5586 O   0  0  0  0  0  0  0  0  0  0  0  0
   16.2368   68.5238   -4.3522 O   0  0  0  0  0  0  0  0  0  0  0  0
   18.8761   71.2924   -5.7271 N   0  0  0  0  0  0  0  0  0  0  0  0
   16.8519   70.0697   -5.9598 N   0  0  0  0  0  0  0  0  0  0  0  0
   17.7159   71.0342   -6.4949 C   0  0  0  0  0  0  0  0  0  0  0  0
   19.0923   70.6070   -4.5378 C   0  0  0  0  0  0  0  0  0  0  0  0
   18.2597   69.6903   -4.0407 C   0  0  0  0  0  0  0  0  0  0  0  0
   17.0237   69.3623   -4.7810 C   0  0  0  0  0  0  0  0  0  0  0  0
   16.0364   69.8744   -6.4756 H   0  0  0  0  0  0  0  0  0  0  0  0
   20.8603   71.5279   -1.4773 O   0  0  0  0  0  0  0  0  0  0  0  0
   20.1531   71.3108   -0.0398 P   0  0  2  0  0  0  0  0  0  0  0  0
   20.4633   69.7575    0.2942 O   0  0  0  0  0  0  0  0  0  0  0  0
   18.6959   71.6707   -0.0097 O   0  0  0  0  0  0  0  0  0  0  0  0
   21.0692   72.1409    0.9966 O   0  0  0  0  0  0  0  0  0  0  0  0
   21.9207   71.4558    3.0977 O   0  0  0  0  0  0  0  0  0  0  0  0
   21.4809   75.5257    3.6553 O   0  0  0  0  0  0  0  0  0  0  0  0
   19.4224   73.9909    2.2620 O   0  0  0  0  0  0  0  0  0  0  0  0
   24.1221   74.3882    3.2294 O   0  0  0  0  0  0  0  0  0  0  0  0
   21.7340   74.3316    2.9149 C   0  0  2  0  0  0  0  0  0  0  0  0
   20.5090   73.4192    2.9810 C   0  0  2  0  0  0  0  0  0  0  0  0
   22.9484   73.6382    3.5366 C   0  0  1  0  0  0  0  0  0  0  0  0
   20.8217   72.0404    2.3978 C   0  0  1  0  0  0  0  0  0  0  0  0
   23.1189   72.2219    2.9949 C   0  0  1  0  0  0  0  0  0  0  0  0
   20.7131   75.9835    3.2783 H   0  0  0  0  0  0  0  0  0  0  0  0
   19.2187   74.8661    2.6266 H   0  0  0  0  0  0  0  0  0  0  0  0
   24.0264   75.2919    3.5687 H   0  0  0  0  0  0  0  0  0  0  0  0
   24.1292   71.9405    5.0929 O   0  0  0  0  0  0  0  0  0  0  0  0
   24.7466   70.4972    3.4393 O   0  0  0  0  0  0  0  0  0  0  0  0
   24.0852   71.4471    3.8306 C   0  0  0  0  0  0  0  0  0  0  0  0
  1  4  1  0
  1 24  1  0
  1  2  1  1
  1  3  2  0
 25 28  1  0
 25 24  1  0
 25 26  1  1
 25 27  2  0
  6 11  1  0
  6 12  1  0
 29 36  1  0
 29 37  1  0
  9  7  1  6
  7 13  1  0
 10  8  1  6
  8 14  1  0
  4  5  1  0
 36 28  1  6
 33 30  1  1
 30 38  1  0
 34 31  1  6
 31 39  1  0
 35 32  1  6
 32 40  1  0
 41 43  1  0
 15 19  2  0
 42 43  2  0
 16 22  2  0
 12 17  1  1
 17 19  1  0
 17 20  1  0
 18 19  1  0
 18 22  1  0
 18 23  1  0
  9 10  1  0
  9 11  1  0
 10 12  1  0
 11  5  1  1
 33 34  1  0
 33 35  1  0
 34 36  1  0
 35 37  1  0
 37 43  1  1
 20 21  2  0
 21 22  1  0
M  CHG  3   2  -1  26  -1  41  -1
M  END
>  <COMPND>  (91) 
    udp_gluA.pdb 

>  <AUTHOR>  (91) 
    GENERATED BY OPEN BABEL 3.1.1

>  <MASTER>  (91) 
        0    0    0    0    0    0    0    0   56    0   56    0

>  <minimizedAffinity>  (91) 
-7.01798

>  <CNNscore>  (91) 
0.4240966737

>  <CNNaffinity>  (91) 
4.1002855301

>  <CNN_VS>  (91) 
1.7389174700

>  <CNNaffinity_variance>  (91) 
0.1244580597

$$$$
92
     RDKit          3D

 43 45  0  0  0  0  0  0  0  0999 V2000
   18.9150   71.2662   -1.3938 P   0  0  2  0  0  0  0  0  0  0  0  0
   17.4169   71.2192   -0.7836 O   0  0  0  0  0  0  0  0  0  0  0  0
   19.5242   72.6353   -1.4730 O   0  0  0  0  0  0  0  0  0  0  0  0
   18.7879   70.4715   -2.7974 O   0  0  0  0  0  0  0  0  0  0  0  0
   17.5723   70.5613   -3.5176 C   0  0  0  0  0  0  0  0  0  0  0  0
   16.7201   70.9559   -5.7302 O   0  0  0  0  0  0  0  0  0  0  0  0
   19.5678   70.7917   -6.6550 O   0  0  0  0  0  0  0  0  0  0  0  0
   19.1164   73.4802   -6.5903 O   0  0  0  0  0  0  0  0  0  0  0  0
   19.0406   71.3366   -5.4452 C   0  0  1  0  0  0  0  0  0  0  0  0
   18.3634   72.6627   -5.7190 C   0  0  2  0  0  0  0  0  0  0  0  0
   17.8707   70.4656   -5.0083 C   0  0  1  0  0  0  0  0  0  0  0  0
   17.0421   72.2227   -6.3261 C   0  0  2  0  0  0  0  0  0  0  0  0
   20.3168   71.3316   -6.9537 H   0  0  0  0  0  0  0  0  0  0  0  0
   19.9476   73.7338   -6.1581 H   0  0  0  0  0  0  0  0  0  0  0  0
   15.6024   73.6212   -8.3130 O   0  0  0  0  0  0  0  0  0  0  0  0
   12.9850   75.7528   -5.1745 O   0  0  0  0  0  0  0  0  0  0  0  0
   15.9794   73.1493   -6.0561 N   0  0  0  0  0  0  0  0  0  0  0  0
   14.3009   74.6823   -6.7479 N   0  0  0  0  0  0  0  0  0  0  0  0
   15.3207   73.7992   -7.1265 C   0  0  0  0  0  0  0  0  0  0  0  0
   15.5985   73.4048   -4.7444 C   0  0  0  0  0  0  0  0  0  0  0  0
   14.6245   74.2491   -4.3992 C   0  0  0  0  0  0  0  0  0  0  0  0
   13.8867   74.9697   -5.4574 C   0  0  0  0  0  0  0  0  0  0  0  0
   13.8291   75.1482   -7.4757 H   0  0  0  0  0  0  0  0  0  0  0  0
   19.7210   70.2237   -0.4576 O   0  0  0  0  0  0  0  0  0  0  0  0
   21.2833   70.1540   -0.0476 P   0  0  2  0  0  0  0  0  0  0  0  0
   22.0461   70.4063   -1.4529 O   0  0  0  0  0  0  0  0  0  0  0  0
   21.6802   68.8867    0.6527 O   0  0  0  0  0  0  0  0  0  0  0  0
   21.5434   71.4992    0.8041 O   0  0  0  0  0  0  0  0  0  0  0  0
   22.0063   71.1785    3.1045 O   0  0  0  0  0  0  0  0  0  0  0  0
   21.4052   75.2621    2.9293 O   0  0  0  0  0  0  0  0  0  0  0  0
   19.6624   73.4439    1.4491 O   0  0  0  0  0  0  0  0  0  0  0  0
   24.0979   74.1924    3.1656 O   0  0  0  0  0  0  0  0  0  0  0  0
   21.8093   73.9824    2.4426 C   0  0  2  0  0  0  0  0  0  0  0  0
   20.6080   73.0366    2.4312 C   0  0  2  0  0  0  0  0  0  0  0  0
   22.9003   73.4458    3.3720 C   0  0  1  0  0  0  0  0  0  0  0  0
   21.0448   71.6009    2.1367 C   0  0  1  0  0  0  0  0  0  0  0  0
   23.1904   71.9729    3.0984 C   0  0  1  0  0  0  0  0  0  0  0  0
   20.7121   75.6229    2.3542 H   0  0  0  0  0  0  0  0  0  0  0  0
   19.3811   74.3542    1.6296 H   0  0  0  0  0  0  0  0  0  0  0  0
   23.9269   75.1318    3.3363 H   0  0  0  0  0  0  0  0  0  0  0  0
   23.3208   70.3682    4.8042 O   0  0  0  0  0  0  0  0  0  0  0  0
   25.1200   71.7416    4.5282 O   0  0  0  0  0  0  0  0  0  0  0  0
   23.9996   71.3774    4.2042 C   0  0  0  0  0  0  0  0  0  0  0  0
  1  4  1  0
  1 24  1  0
  1  2  1  1
  1  3  2  0
 25 28  1  0
 25 24  1  0
 25 26  1  6
 25 27  2  0
  6 11  1  0
  6 12  1  0
 29 36  1  0
 29 37  1  0
  9  7  1  6
  7 13  1  0
 10  8  1  6
  8 14  1  0
  4  5  1  0
 36 28  1  6
 33 30  1  1
 30 38  1  0
 34 31  1  6
 31 39  1  0
 35 32  1  6
 32 40  1  0
 41 43  1  0
 15 19  2  0
 42 43  2  0
 16 22  2  0
 12 17  1  1
 17 19  1  0
 17 20  1  0
 18 19  1  0
 18 22  1  0
 18 23  1  0
  9 10  1  0
  9 11  1  0
 10 12  1  0
 11  5  1  1
 33 34  1  0
 33 35  1  0
 34 36  1  0
 35 37  1  0
 37 43  1  1
 20 21  2  0
 21 22  1  0
M  CHG  3   2  -1  26  -1  41  -1
M  END
>  <COMPND>  (92) 
    udp_gluA.pdb 

>  <AUTHOR>  (92) 
    GENERATED BY OPEN BABEL 3.1.1

>  <MASTER>  (92) 
        0    0    0    0    0    0    0    0   56    0   56    0

>  <minimizedAffinity>  (92) 
-6.82423

>  <CNNscore>  (92) 
0.3792028129

>  <CNNaffinity>  (92) 
3.9453766346

>  <CNN_VS>  (92) 
1.4960979223

>  <CNNaffinity_variance>  (92) 
0.0234261472

$$$$
93
     RDKit          3D

 43 45  0  0  0  0  0  0  0  0999 V2000
   21.7192   71.4157   -2.6486 P   0  0  2  0  0  0  0  0  0  0  0  0
   20.7771   72.6622   -2.2271 O   0  0  0  0  0  0  0  0  0  0  0  0
   22.9405   71.7835   -3.4391 O   0  0  0  0  0  0  0  0  0  0  0  0
   20.7006   70.3849   -3.3683 O   0  0  0  0  0  0  0  0  0  0  0  0
   19.7911   70.8920   -4.3275 C   0  0  0  0  0  0  0  0  0  0  0  0
   17.6271   71.9327   -4.2192 O   0  0  0  0  0  0  0  0  0  0  0  0
   16.5868   69.2525   -3.3669 O   0  0  0  0  0  0  0  0  0  0  0  0
   15.8986   69.3478   -6.0039 O   0  0  0  0  0  0  0  0  0  0  0  0
   17.6204   69.5654   -4.3009 C   0  0  1  0  0  0  0  0  0  0  0  0
   17.0222   70.0950   -5.5869 C   0  0  2  0  0  0  0  0  0  0  0  0
   18.3753   70.7794   -3.7769 C   0  0  1  0  0  0  0  0  0  0  0  0
   16.6667   71.5219   -5.2052 C   0  0  2  0  0  0  0  0  0  0  0  0
   16.0905   68.4798   -3.6803 H   0  0  0  0  0  0  0  0  0  0  0  0
   16.1771   68.4475   -6.2360 H   0  0  0  0  0  0  0  0  0  0  0  0
   18.2796   71.1146   -7.4875 O   0  0  0  0  0  0  0  0  0  0  0  0
   16.8356   75.0358   -9.4326 O   0  0  0  0  0  0  0  0  0  0  0  0
   16.7314   72.4204   -6.3228 N   0  0  0  0  0  0  0  0  0  0  0  0
   17.5596   73.0685   -8.4536 N   0  0  0  0  0  0  0  0  0  0  0  0
   17.5741   72.1229   -7.4198 C   0  0  0  0  0  0  0  0  0  0  0  0
   15.9652   73.5797   -6.3260 C   0  0  0  0  0  0  0  0  0  0  0  0
   15.9619   74.4715   -7.3187 C   0  0  0  0  0  0  0  0  0  0  0  0
   16.8154   74.2361   -8.5018 C   0  0  0  0  0  0  0  0  0  0  0  0
   18.1399   72.8841   -9.2273 H   0  0  0  0  0  0  0  0  0  0  0  0
   22.0243   70.6966   -1.2335 O   0  0  0  0  0  0  0  0  0  0  0  0
   21.0290   70.1810   -0.0685 P   0  0  2  0  0  0  0  0  0  0  0  0
   21.5990   68.7064    0.2792 O   0  0  0  0  0  0  0  0  0  0  0  0
   19.5754   70.2097   -0.4430 O   0  0  0  0  0  0  0  0  0  0  0  0
   21.4065   71.0773    1.2186 O   0  0  0  0  0  0  0  0  0  0  0  0
   22.7174   73.0126    1.5995 O   0  0  0  0  0  0  0  0  0  0  0  0
   23.6900   70.6817    4.8688 O   0  0  0  0  0  0  0  0  0  0  0  0
   23.4590   69.4857    2.2136 O   0  0  0  0  0  0  0  0  0  0  0  0
   21.8896   72.9437    5.1733 O   0  0  0  0  0  0  0  0  0  0  0  0
   22.8479   71.1863    3.8324 C   0  0  2  0  0  0  0  0  0  0  0  0
   23.4753   70.8850    2.4711 C   0  0  2  0  0  0  0  0  0  0  0  0
   22.7072   72.6972    4.0309 C   0  0  1  0  0  0  0  0  0  0  0  0
   22.7246   71.6064    1.3509 C   0  0  1  0  0  0  0  0  0  0  0  0
   22.0627   73.3609    2.8173 C   0  0  1  0  0  0  0  0  0  0  0  0
   23.7940   69.7229    4.7632 H   0  0  0  0  0  0  0  0  0  0  0  0
   23.9334   69.0217    2.9206 H   0  0  0  0  0  0  0  0  0  0  0  0
   22.2886   72.5264    5.9527 H   0  0  0  0  0  0  0  0  0  0  0  0
   23.2443   75.2447    2.0713 O   0  0  0  0  0  0  0  0  0  0  0  0
   21.5431   75.6011    3.5471 O   0  0  0  0  0  0  0  0  0  0  0  0
   22.2274   74.8447    2.8744 C   0  0  0  0  0  0  0  0  0  0  0  0
  1  4  1  0
  1 24  1  0
  1  2  1  1
  1  3  2  0
 25 28  1  0
 25 24  1  0
 25 26  1  1
 25 27  2  0
  6 11  1  0
  6 12  1  0
 29 36  1  0
 29 37  1  0
  9  7  1  1
  7 13  1  0
 10  8  1  1
  8 14  1  0
  4  5  1  0
 36 28  1  1
 33 30  1  1
 30 38  1  0
 34 31  1  6
 31 39  1  0
 35 32  1  1
 32 40  1  0
 41 43  1  0
 15 19  2  0
 42 43  2  0
 16 22  2  0
 12 17  1  6
 17 19  1  0
 17 20  1  0
 18 19  1  0
 18 22  1  0
 18 23  1  0
  9 10  1  0
  9 11  1  0
 10 12  1  0
 11  5  1  6
 33 34  1  0
 33 35  1  0
 34 36  1  0
 35 37  1  0
 37 43  1  1
 20 21  2  0
 21 22  1  0
M  CHG  3   2  -1  26  -1  41  -1
M  END
>  <COMPND>  (93) 
    udp_gluA.pdb 

>  <AUTHOR>  (93) 
    GENERATED BY OPEN BABEL 3.1.1

>  <MASTER>  (93) 
        0    0    0    0    0    0    0    0   56    0   56    0

>  <minimizedAffinity>  (93) 
-7.75360

>  <CNNscore>  (93) 
0.3751482069

>  <CNNaffinity>  (93) 
4.1466770172

>  <CNN_VS>  (93) 
1.5556184053

>  <CNNaffinity_variance>  (93) 
0.0277325325

$$$$
94
     RDKit          3D

 43 45  0  0  0  0  0  0  0  0999 V2000
   19.7671   75.5202   -2.2349 P   0  0  2  0  0  0  0  0  0  0  0  0
   18.1952   75.8484   -2.0345 O   0  0  0  0  0  0  0  0  0  0  0  0
   20.5505   76.5835   -2.9473 O   0  0  0  0  0  0  0  0  0  0  0  0
   19.7735   74.0587   -2.9291 O   0  0  0  0  0  0  0  0  0  0  0  0
   18.7800   73.7642   -3.8940 C   0  0  0  0  0  0  0  0  0  0  0  0
   17.4491   71.9107   -4.6492 O   0  0  0  0  0  0  0  0  0  0  0  0
   18.1475   70.5901   -2.0493 O   0  0  0  0  0  0  0  0  0  0  0  0
   19.8475   69.3826   -3.8065 O   0  0  0  0  0  0  0  0  0  0  0  0
   18.9454   71.4392   -2.8745 C   0  0  1  0  0  0  0  0  0  0  0  0
   19.4059   70.6900   -4.1069 C   0  0  2  0  0  0  0  0  0  0  0  0
   18.0355   72.5045   -3.4708 C   0  0  1  0  0  0  0  0  0  0  0  0
   18.1548   70.7011   -4.9687 C   0  0  2  0  0  0  0  0  0  0  0  0
   18.7072   69.9011   -1.6571 H   0  0  0  0  0  0  0  0  0  0  0  0
   20.6460   69.4294   -3.2567 H   0  0  0  0  0  0  0  0  0  0  0  0
   16.2880   70.0872   -6.9971 O   0  0  0  0  0  0  0  0  0  0  0  0
   19.4219   70.7013  -10.3205 O   0  0  0  0  0  0  0  0  0  0  0  0
   18.4561   70.6930   -6.3722 N   0  0  0  0  0  0  0  0  0  0  0  0
   17.8509   70.3926   -8.6503 N   0  0  0  0  0  0  0  0  0  0  0  0
   17.4460   70.3706   -7.3092 C   0  0  0  0  0  0  0  0  0  0  0  0
   19.7386   71.0035   -6.8081 C   0  0  0  0  0  0  0  0  0  0  0  0
   20.1094   71.0204   -8.0899 C   0  0  0  0  0  0  0  0  0  0  0  0
   19.1142   70.6945   -9.1324 C   0  0  0  0  0  0  0  0  0  0  0  0
   17.1654   70.1696   -9.3210 H   0  0  0  0  0  0  0  0  0  0  0  0
   20.2677   75.2096   -0.7296 O   0  0  0  0  0  0  0  0  0  0  0  0
   20.1398   73.8778    0.1779 P   0  0  2  0  0  0  0  0  0  0  0  0
   18.5886   73.4530   -0.0053 O   0  0  0  0  0  0  0  0  0  0  0  0
   20.5660   74.0623    1.6056 O   0  0  0  0  0  0  0  0  0  0  0  0
   20.9682   72.7523   -0.6279 O   0  0  0  0  0  0  0  0  0  0  0  0
   22.8250   71.4579    0.0691 O   0  0  0  0  0  0  0  0  0  0  0  0
   23.5411   71.8423   -3.9815 O   0  0  0  0  0  0  0  0  0  0  0  0
   22.5916   74.1232   -2.4226 O   0  0  0  0  0  0  0  0  0  0  0  0
   22.5385   69.3334   -2.9086 O   0  0  0  0  0  0  0  0  0  0  0  0
   22.7412   71.7320   -2.8043 C   0  0  2  0  0  0  0  0  0  0  0  0
   23.0505   72.8974   -1.8643 C   0  0  2  0  0  0  0  0  0  0  0  0
   23.0753   70.4001   -2.1286 C   0  0  1  0  0  0  0  0  0  0  0  0
   22.3877   72.6919   -0.5015 C   0  0  1  0  0  0  0  0  0  0  0  0
   22.4828   70.3238   -0.7245 C   0  0  1  0  0  0  0  0  0  0  0  0
   23.3459   72.6814   -4.4278 H   0  0  0  0  0  0  0  0  0  0  0  0
   23.0080   74.2599   -3.2876 H   0  0  0  0  0  0  0  0  0  0  0  0
   22.9075   69.3707   -3.8049 H   0  0  0  0  0  0  0  0  0  0  0  0
   24.0495   69.6291    0.8769 O   0  0  0  0  0  0  0  0  0  0  0  0
   22.7390   68.0175   -0.0635 O   0  0  0  0  0  0  0  0  0  0  0  0
   23.0775   69.1869    0.0411 C   0  0  0  0  0  0  0  0  0  0  0  0
  1  4  1  0
  1 24  1  0
  1  2  1  1
  1  3  2  0
 25 28  1  0
 25 24  1  0
 25 26  1  1
 25 27  2  0
  6 11  1  0
  6 12  1  0
 29 36  1  0
 29 37  1  0
  9  7  1  1
  7 13  1  0
 10  8  1  1
  8 14  1  0
  4  5  1  0
 36 28  1  6
 33 30  1  6
 30 38  1  0
 34 31  1  6
 31 39  1  0
 35 32  1  6
 32 40  1  0
 41 43  1  0
 15 19  2  0
 42 43  2  0
 16 22  2  0
 12 17  1  6
 17 19  1  0
 17 20  1  0
 18 19  1  0
 18 22  1  0
 18 23  1  0
  9 10  1  0
  9 11  1  0
 10 12  1  0
 11  5  1  6
 33 34  1  0
 33 35  1  0
 34 36  1  0
 35 37  1  0
 37 43  1  1
 20 21  2  0
 21 22  1  0
M  CHG  3   2  -1  26  -1  41  -1
M  END
>  <COMPND>  (94) 
    udp_gluA.pdb 

>  <AUTHOR>  (94) 
    GENERATED BY OPEN BABEL 3.1.1

>  <MASTER>  (94) 
        0    0    0    0    0    0    0    0   56    0   56    0

>  <minimizedAffinity>  (94) 
-7.21331

>  <CNNscore>  (94) 
0.3714750707

>  <CNNaffinity>  (94) 
4.2784223557

>  <CNN_VS>  (94) 
1.5893272161

>  <CNNaffinity_variance>  (94) 
0.1955650598

$$$$
95
     RDKit          3D

 43 45  0  0  0  0  0  0  0  0999 V2000
   23.9699   76.1157    1.6247 P   0  0  2  0  0  0  0  0  0  0  0  0
   22.9943   77.2770    2.1890 O   0  0  0  0  0  0  0  0  0  0  0  0
   24.9021   76.5474    0.5309 O   0  0  0  0  0  0  0  0  0  0  0  0
   22.9604   74.9076    1.2514 O   0  0  0  0  0  0  0  0  0  0  0  0
   22.1775   75.0192    0.0771 C   0  0  0  0  0  0  0  0  0  0  0  0
   22.4613   73.0244   -1.2337 O   0  0  0  0  0  0  0  0  0  0  0  0
   23.7685   74.7803   -3.2830 O   0  0  0  0  0  0  0  0  0  0  0  0
   21.2620   74.4399   -4.3016 O   0  0  0  0  0  0  0  0  0  0  0  0
   22.6681   75.0648   -2.4189 C   0  0  1  0  0  0  0  0  0  0  0  0
   21.4241   74.3495   -2.9015 C   0  0  2  0  0  0  0  0  0  0  0  0
   22.9305   74.3818   -1.0836 C   0  0  1  0  0  0  0  0  0  0  0  0
   21.6765   72.9266   -2.4328 C   0  0  2  0  0  0  0  0  0  0  0  0
   23.6235   75.2063   -4.1427 H   0  0  0  0  0  0  0  0  0  0  0  0
   21.1037   75.3648   -4.5496 H   0  0  0  0  0  0  0  0  0  0  0  0
   21.3778   70.1229   -2.5953 O   0  0  0  0  0  0  0  0  0  0  0  0
   16.9648   70.3339   -1.2819 O   0  0  0  0  0  0  0  0  0  0  0  0
   20.4605   72.2226   -2.1388 N   0  0  0  0  0  0  0  0  0  0  0  0
   19.1799   70.2308   -1.9420 N   0  0  0  0  0  0  0  0  0  0  0  0
   20.4161   70.8129   -2.2518 C   0  0  0  0  0  0  0  0  0  0  0  0
   19.3299   72.9267   -1.7424 C   0  0  0  0  0  0  0  0  0  0  0  0
   18.1587   72.3578   -1.4503 C   0  0  0  0  0  0  0  0  0  0  0  0
   18.0275   70.8890   -1.5440 C   0  0  0  0  0  0  0  0  0  0  0  0
   19.1239   69.2505   -2.0153 H   0  0  0  0  0  0  0  0  0  0  0  0
   24.7032   75.5768    2.9606 O   0  0  0  0  0  0  0  0  0  0  0  0
   24.2015   74.5540    4.1077 P   0  0  2  0  0  0  0  0  0  0  0  0
   22.7370   75.1238    4.4965 O   0  0  0  0  0  0  0  0  0  0  0  0
   25.1425   74.4227    5.2701 O   0  0  0  0  0  0  0  0  0  0  0  0
   23.9070   73.1742    3.3255 O   0  0  0  0  0  0  0  0  0  0  0  0
   22.0821   71.6687    3.2155 O   0  0  0  0  0  0  0  0  0  0  0  0
   25.3022   69.0818    3.3007 O   0  0  0  0  0  0  0  0  0  0  0  0
   25.2459   71.4338    5.0326 O   0  0  0  0  0  0  0  0  0  0  0  0
   23.8845   69.5653    0.8093 O   0  0  0  0  0  0  0  0  0  0  0  0
   24.6097   70.2907    2.9894 C   0  0  2  0  0  0  0  0  0  0  0  0
   24.1356   70.9562    4.2816 C   0  0  2  0  0  0  0  0  0  0  0  0
   23.4133   69.9357    2.1036 C   0  0  1  0  0  0  0  0  0  0  0  0
   23.1969   72.1258    3.9822 C   0  0  1  0  0  0  0  0  0  0  0  0
   22.4595   71.1177    1.9557 C   0  0  1  0  0  0  0  0  0  0  0  0
   26.0668   69.2826    3.8632 H   0  0  0  0  0  0  0  0  0  0  0  0
   25.8459   70.6969    5.2260 H   0  0  0  0  0  0  0  0  0  0  0  0
   24.4927   68.8140    0.8894 H   0  0  0  0  0  0  0  0  0  0  0  0
   21.2422   69.4069    0.9103 O   0  0  0  0  0  0  0  0  0  0  0  0
   20.1416   71.3591    1.3309 O   0  0  0  0  0  0  0  0  0  0  0  0
   21.1542   70.6768    1.3777 C   0  0  0  0  0  0  0  0  0  0  0  0
  1  4  1  0
  1 24  1  0
  1  2  1  1
  1  3  2  0
 25 28  1  0
 25 24  1  0
 25 26  1  1
 25 27  2  0
  6 11  1  0
  6 12  1  0
 29 36  1  0
 29 37  1  0
  9  7  1  6
  7 13  1  0
 10  8  1  6
  8 14  1  0
  4  5  1  0
 36 28  1  6
 33 30  1  1
 30 38  1  0
 34 31  1  6
 31 39  1  0
 35 32  1  6
 32 40  1  0
 41 43  1  0
 15 19  2  0
 42 43  2  0
 16 22  2  0
 12 17  1  1
 17 19  1  0
 17 20  1  0
 18 19  1  0
 18 22  1  0
 18 23  1  0
  9 10  1  0
  9 11  1  0
 10 12  1  0
 11  5  1  1
 33 34  1  0
 33 35  1  0
 34 36  1  0
 35 37  1  0
 37 43  1  1
 20 21  2  0
 21 22  1  0
M  CHG  3   2  -1  26  -1  41  -1
M  END
>  <COMPND>  (95) 
    udp_gluA.pdb 

>  <AUTHOR>  (95) 
    GENERATED BY OPEN BABEL 3.1.1

>  <MASTER>  (95) 
        0    0    0    0    0    0    0    0   56    0   56    0

>  <minimizedAffinity>  (95) 
-6.76187

>  <CNNscore>  (95) 
0.3569331169

>  <CNNaffinity>  (95) 
3.7754852772

>  <CNN_VS>  (95) 
1.3475956917

>  <CNNaffinity_variance>  (95) 
0.6806316376

$$$$
96
     RDKit          3D

 43 45  0  0  0  0  0  0  0  0999 V2000
   20.0348   71.0825   -0.7447 P   0  0  2  0  0  0  0  0  0  0  0  0
   21.2885   70.4027   -1.5096 O   0  0  0  0  0  0  0  0  0  0  0  0
   19.7574   72.5072   -1.1251 O   0  0  0  0  0  0  0  0  0  0  0  0
   20.3473   70.8215    0.8213 O   0  0  0  0  0  0  0  0  0  0  0  0
   20.9038   71.8761    1.5846 C   0  0  0  0  0  0  0  0  0  0  0  0
   22.9774   72.8612    2.2967 O   0  0  0  0  0  0  0  0  0  0  0  0
   24.1590   70.1187    2.0243 O   0  0  0  0  0  0  0  0  0  0  0  0
   23.7622   70.3321    4.7138 O   0  0  0  0  0  0  0  0  0  0  0  0
   22.8556   70.5015    2.4640 C   0  0  1  0  0  0  0  0  0  0  0  0
   22.9231   71.0822    3.8606 C   0  0  2  0  0  0  0  0  0  0  0  0
   22.4163   71.7041    1.6399 C   0  0  1  0  0  0  0  0  0  0  0  0
   23.4572   72.4795    3.5958 C   0  0  2  0  0  0  0  0  0  0  0  0
   24.4611   69.3519    2.5366 H   0  0  0  0  0  0  0  0  0  0  0  0
   23.3788   69.4512    4.8516 H   0  0  0  0  0  0  0  0  0  0  0  0
   25.1524   74.0529    5.2166 O   0  0  0  0  0  0  0  0  0  0  0  0
   21.5781   76.1122    7.2727 O   0  0  0  0  0  0  0  0  0  0  0  0
   22.9962   73.4348    4.5630 N   0  0  0  0  0  0  0  0  0  0  0  0
   23.3706   75.0763    6.2398 N   0  0  0  0  0  0  0  0  0  0  0  0
   23.9308   74.1739    5.3262 C   0  0  0  0  0  0  0  0  0  0  0  0
   21.6332   73.6331    4.7469 C   0  0  0  0  0  0  0  0  0  0  0  0
   21.1142   74.4971    5.6216 C   0  0  0  0  0  0  0  0  0  0  0  0
   22.0223   75.3081    6.4589 C   0  0  0  0  0  0  0  0  0  0  0  0
   24.0015   75.6008    6.7840 H   0  0  0  0  0  0  0  0  0  0  0  0
   18.8239   70.0560   -1.0495 O   0  0  0  0  0  0  0  0  0  0  0  0
   17.8261   69.9378   -2.3161 P   0  0  2  0  0  0  0  0  0  0  0  0
   16.4679   70.6392   -1.7836 O   0  0  0  0  0  0  0  0  0  0  0  0
   17.6406   68.5377   -2.8252 O   0  0  0  0  0  0  0  0  0  0  0  0
   18.4196   70.9722   -3.4026 O   0  0  0  0  0  0  0  0  0  0  0  0
   18.3375   73.2201   -4.1436 O   0  0  0  0  0  0  0  0  0  0  0  0
   17.2027   71.1712   -7.5468 O   0  0  0  0  0  0  0  0  0  0  0  0
   16.1713   70.3819   -4.9300 O   0  0  0  0  0  0  0  0  0  0  0  0
   19.8793   72.2863   -7.3393 O   0  0  0  0  0  0  0  0  0  0  0  0
   17.8996   71.3699   -6.3168 C   0  0  2  0  0  0  0  0  0  0  0  0
   16.8922   71.5816   -5.1863 C   0  0  2  0  0  0  0  0  0  0  0  0
   18.7918   72.6034   -6.4726 C   0  0  1  0  0  0  0  0  0  0  0  0
   17.5957   72.0239   -3.9024 C   0  0  1  0  0  0  0  0  0  0  0  0
   19.3551   73.0568   -5.1289 C   0  0  1  0  0  0  0  0  0  0  0  0
   16.6291   70.3924   -7.4715 H   0  0  0  0  0  0  0  0  0  0  0  0
   15.7227   70.0953   -5.7405 H   0  0  0  0  0  0  0  0  0  0  0  0
   19.5344   71.9961   -8.1982 H   0  0  0  0  0  0  0  0  0  0  0  0
   19.4066   75.0971   -6.2847 O   0  0  0  0  0  0  0  0  0  0  0  0
   20.7875   74.8876   -4.4824 O   0  0  0  0  0  0  0  0  0  0  0  0
   19.9424   74.4265   -5.2349 C   0  0  0  0  0  0  0  0  0  0  0  0
  1  4  1  0
  1 24  1  0
  1  2  1  6
  1  3  2  0
 25 28  1  0
 25 24  1  0
 25 26  1  1
 25 27  2  0
  6 11  1  0
  6 12  1  0
 29 36  1  0
 29 37  1  0
  9  7  1  6
  7 13  1  0
 10  8  1  1
  8 14  1  0
  4  5  1  0
 36 28  1  6
 33 30  1  6
 30 38  1  0
 34 31  1  1
 31 39  1  0
 35 32  1  6
 32 40  1  0
 41 43  1  0
 15 19  2  0
 42 43  2  0
 16 22  2  0
 12 17  1  1
 17 19  1  0
 17 20  1  0
 18 19  1  0
 18 22  1  0
 18 23  1  0
  9 10  1  0
  9 11  1  0
 10 12  1  0
 11  5  1  1
 33 34  1  0
 33 35  1  0
 34 36  1  0
 35 37  1  0
 37 43  1  6
 20 21  2  0
 21 22  1  0
M  CHG  3   2  -1  26  -1  41  -1
M  END
>  <COMPND>  (96) 
    udp_gluA.pdb 

>  <AUTHOR>  (96) 
    GENERATED BY OPEN BABEL 3.1.1

>  <MASTER>  (96) 
        0    0    0    0    0    0    0    0   56    0   56    0

>  <minimizedAffinity>  (96) 
-7.22076

>  <CNNscore>  (96) 
0.3200241625

>  <CNNaffinity>  (96) 
3.9046375751

>  <CNN_VS>  (96) 
1.2495783567

>  <CNNaffinity_variance>  (96) 
0.1247825176

$$$$
97
     RDKit          3D

 43 45  0  0  0  0  0  0  0  0999 V2000
   22.8171   72.5437   -3.5224 P   0  0  2  0  0  0  0  0  0  0  0  0
   23.5686   71.1106   -3.5360 O   0  0  0  0  0  0  0  0  0  0  0  0
   23.6995   73.7246   -3.8029 O   0  0  0  0  0  0  0  0  0  0  0  0
   22.0464   72.5648   -2.0998 O   0  0  0  0  0  0  0  0  0  0  0  0
   22.7905   72.3045   -0.9238 C   0  0  0  0  0  0  0  0  0  0  0  0
   23.0164   70.7977    0.9353 O   0  0  0  0  0  0  0  0  0  0  0  0
   20.2216   69.9069    0.3131 O   0  0  0  0  0  0  0  0  0  0  0  0
   19.8535   71.5925    2.4248 O   0  0  0  0  0  0  0  0  0  0  0  0
   20.7972   71.2099    0.2168 C   0  0  1  0  0  0  0  0  0  0  0  0
   20.9772   71.8067    1.5965 C   0  0  2  0  0  0  0  0  0  0  0  0
   22.2370   71.0539   -0.2531 C   0  0  1  0  0  0  0  0  0  0  0  0
   22.2168   71.0828    2.0940 C   0  0  2  0  0  0  0  0  0  0  0  0
   19.3013   69.9809    0.6118 H   0  0  0  0  0  0  0  0  0  0  0  0
   19.0910   72.0740    2.0660 H   0  0  0  0  0  0  0  0  0  0  0  0
   23.6896   70.0402    4.2666 O   0  0  0  0  0  0  0  0  0  0  0  0
   25.1323   74.2298    5.5355 O   0  0  0  0  0  0  0  0  0  0  0  0
   22.9863   71.8786    3.0080 N   0  0  0  0  0  0  0  0  0  0  0  0
   24.4059   72.1279    4.8971 N   0  0  0  0  0  0  0  0  0  0  0  0
   23.6896   71.2563    4.0664 C   0  0  0  0  0  0  0  0  0  0  0  0
   23.0403   73.2582    2.8507 C   0  0  0  0  0  0  0  0  0  0  0  0
   23.7275   74.0760    3.6506 C   0  0  0  0  0  0  0  0  0  0  0  0
   24.4893   73.5060    4.7812 C   0  0  0  0  0  0  0  0  0  0  0  0
   24.9020   71.7180    5.6423 H   0  0  0  0  0  0  0  0  0  0  0  0
   21.6158   72.3337   -4.5834 O   0  0  0  0  0  0  0  0  0  0  0  0
   21.2158   73.1636   -5.9119 P   0  0  2  0  0  0  0  0  0  0  0  0
   22.2523   72.6052   -7.0228 O   0  0  0  0  0  0  0  0  0  0  0  0
   21.2404   74.6545   -5.7373 O   0  0  0  0  0  0  0  0  0  0  0  0
   19.7844   72.5646   -6.3531 O   0  0  0  0  0  0  0  0  0  0  0  0
   19.5013   70.3901   -5.4585 O   0  0  0  0  0  0  0  0  0  0  0  0
   16.0667   70.8253   -7.7128 O   0  0  0  0  0  0  0  0  0  0  0  0
   18.6431   71.7325   -8.7491 O   0  0  0  0  0  0  0  0  0  0  0  0
   15.9497   71.0508   -4.8169 O   0  0  0  0  0  0  0  0  0  0  0  0
   17.1521   71.2609   -6.8942 C   0  0  2  0  0  0  0  0  0  0  0  0
   18.4768   70.9332   -7.5837 C   0  0  2  0  0  0  0  0  0  0  0  0
   17.0554   70.5307   -5.5528 C   0  0  1  0  0  0  0  0  0  0  0  0
   19.6577   71.1736   -6.6422 C   0  0  1  0  0  0  0  0  0  0  0  0
   18.3234   70.7168   -4.7245 C   0  0  1  0  0  0  0  0  0  0  0  0
   16.1075   71.2761   -8.5710 H   0  0  0  0  0  0  0  0  0  0  0  0
   17.8970   71.5852   -9.3509 H   0  0  0  0  0  0  0  0  0  0  0  0
   15.1362   70.9386   -5.3332 H   0  0  0  0  0  0  0  0  0  0  0  0
   19.1960   70.1893   -2.6122 O   0  0  0  0  0  0  0  0  0  0  0  0
   17.7239   68.7088   -3.5288 O   0  0  0  0  0  0  0  0  0  0  0  0
   18.3593   69.7509   -3.5852 C   0  0  0  0  0  0  0  0  0  0  0  0
  1  4  1  0
  1 24  1  0
  1  2  1  1
  1  3  2  0
 25 28  1  0
 25 24  1  0
 25 26  1  6
 25 27  2  0
  6 11  1  0
  6 12  1  0
 29 36  1  0
 29 37  1  0
  9  7  1  1
  7 13  1  0
 10  8  1  1
  8 14  1  0
  4  5  1  0
 36 28  1  1
 33 30  1  6
 30 38  1  0
 34 31  1  6
 31 39  1  0
 35 32  1  1
 32 40  1  0
 41 43  1  0
 15 19  2  0
 42 43  2  0
 16 22  2  0
 12 17  1  1
 17 19  1  0
 17 20  1  0
 18 19  1  0
 18 22  1  0
 18 23  1  0
  9 10  1  0
  9 11  1  0
 10 12  1  0
 11  5  1  1
 33 34  1  0
 33 35  1  0
 34 36  1  0
 35 37  1  0
 37 43  1  1
 20 21  2  0
 21 22  1  0
M  CHG  3   2  -1  26  -1  41  -1
M  END
>  <COMPND>  (97) 
    udp_gluA.pdb 

>  <AUTHOR>  (97) 
    GENERATED BY OPEN BABEL 3.1.1

>  <MASTER>  (97) 
        0    0    0    0    0    0    0    0   56    0   56    0

>  <minimizedAffinity>  (97) 
-8.65473

>  <CNNscore>  (97) 
0.3159643710

>  <CNNaffinity>  (97) 
3.8617889881

>  <CNN_VS>  (97) 
1.2201877832

>  <CNNaffinity_variance>  (97) 
0.2696558535

$$$$
98
     RDKit          3D

 43 45  0  0  0  0  0  0  0  0999 V2000
   17.7137   70.6185   -1.3232 P   0  0  2  0  0  0  0  0  0  0  0  0
   17.8180   69.1481   -1.9910 O   0  0  0  0  0  0  0  0  0  0  0  0
   16.4576   70.8720   -0.5424 O   0  0  0  0  0  0  0  0  0  0  0  0
   17.9886   71.6267   -2.5585 O   0  0  0  0  0  0  0  0  0  0  0  0
   18.1546   71.0795   -3.8537 C   0  0  0  0  0  0  0  0  0  0  0  0
   16.0778   71.9974   -4.6424 O   0  0  0  0  0  0  0  0  0  0  0  0
   15.6377   69.3563   -5.9923 O   0  0  0  0  0  0  0  0  0  0  0  0
   16.4889   70.9392   -8.0432 O   0  0  0  0  0  0  0  0  0  0  0  0
   16.8528   70.0803   -5.7977 C   0  0  1  0  0  0  0  0  0  0  0  0
   16.9120   71.2669   -6.7362 C   0  0  2  0  0  0  0  0  0  0  0  0
   16.7843   70.7552   -4.4346 C   0  0  1  0  0  0  0  0  0  0  0  0
   15.9843   72.2565   -6.0522 C   0  0  2  0  0  0  0  0  0  0  0  0
   15.6581   68.9163   -6.8570 H   0  0  0  0  0  0  0  0  0  0  0  0
   17.1120   70.3070   -8.4357 H   0  0  0  0  0  0  0  0  0  0  0  0
   15.1634   73.7470   -8.3063 O   0  0  0  0  0  0  0  0  0  0  0  0
   17.4765   77.4804   -6.9078 O   0  0  0  0  0  0  0  0  0  0  0  0
   16.3573   73.6201   -6.3020 N   0  0  0  0  0  0  0  0  0  0  0  0
   16.3171   75.6047   -7.6081 N   0  0  0  0  0  0  0  0  0  0  0  0
   15.8910   74.2777   -7.4649 C   0  0  0  0  0  0  0  0  0  0  0  0
   17.1741   74.2920   -5.4007 C   0  0  0  0  0  0  0  0  0  0  0  0
   17.5718   75.5569   -5.5508 C   0  0  0  0  0  0  0  0  0  0  0  0
   17.1295   76.3152   -6.7394 C   0  0  0  0  0  0  0  0  0  0  0  0
   16.0069   76.0826   -8.4111 H   0  0  0  0  0  0  0  0  0  0  0  0
   19.0760   70.7222   -0.4594 O   0  0  0  0  0  0  0  0  0  0  0  0
   20.5946   71.0489   -0.9075 P   0  0  2  0  0  0  0  0  0  0  0  0
   20.5831   72.6549   -1.1100 O   0  0  0  0  0  0  0  0  0  0  0  0
   21.0620   70.2776   -2.1077 O   0  0  0  0  0  0  0  0  0  0  0  0
   21.4740   70.8127    0.4242 O   0  0  0  0  0  0  0  0  0  0  0  0
   22.9642   72.4532    1.2593 O   0  0  0  0  0  0  0  0  0  0  0  0
   24.4247   69.0147    3.0234 O   0  0  0  0  0  0  0  0  0  0  0  0
   23.5733   68.9986    0.2289 O   0  0  0  0  0  0  0  0  0  0  0  0
   22.8836   70.9173    4.5905 O   0  0  0  0  0  0  0  0  0  0  0  0
   23.4245   69.8792    2.4846 C   0  0  2  0  0  0  0  0  0  0  0  0
   23.7376   70.1719    1.0170 C   0  0  2  0  0  0  0  0  0  0  0  0
   23.4310   71.1750    3.2989 C   0  0  1  0  0  0  0  0  0  0  0  0
   22.8242   71.2704    0.4713 C   0  0  1  0  0  0  0  0  0  0  0  0
   22.5983   72.2611    2.6240 C   0  0  1  0  0  0  0  0  0  0  0  0
   24.4391   68.1845    2.5216 H   0  0  0  0  0  0  0  0  0  0  0  0
   24.1497   68.2973    0.5697 H   0  0  0  0  0  0  0  0  0  0  0  0
   23.4044   70.2275    5.0307 H   0  0  0  0  0  0  0  0  0  0  0  0
   22.0948   73.7901    4.3300 O   0  0  0  0  0  0  0  0  0  0  0  0
   23.6844   74.4071    2.8162 O   0  0  0  0  0  0  0  0  0  0  0  0
   22.8721   73.5964    3.2358 C   0  0  0  0  0  0  0  0  0  0  0  0
  1  4  1  0
  1 24  1  0
  1  2  1  6
  1  3  2  0
 25 28  1  0
 25 24  1  0
 25 26  1  6
 25 27  2  0
  6 11  1  0
  6 12  1  0
 29 36  1  0
 29 37  1  0
  9  7  1  6
  7 13  1  0
 10  8  1  6
  8 14  1  0
  4  5  1  0
 36 28  1  1
 33 30  1  1
 30 38  1  0
 34 31  1  6
 31 39  1  0
 35 32  1  1
 32 40  1  0
 41 43  1  0
 15 19  2  0
 42 43  2  0
 16 22  2  0
 12 17  1  1
 17 19  1  0
 17 20  1  0
 18 19  1  0
 18 22  1  0
 18 23  1  0
  9 10  1  0
  9 11  1  0
 10 12  1  0
 11  5  1  6
 33 34  1  0
 33 35  1  0
 34 36  1  0
 35 37  1  0
 37 43  1  1
 20 21  2  0
 21 22  1  0
M  CHG  3   2  -1  26  -1  41  -1
M  END
>  <COMPND>  (98) 
    udp_gluA.pdb 

>  <AUTHOR>  (98) 
    GENERATED BY OPEN BABEL 3.1.1

>  <MASTER>  (98) 
        0    0    0    0    0    0    0    0   56    0   56    0

>  <minimizedAffinity>  (98) 
-7.46735

>  <CNNscore>  (98) 
0.3156362176

>  <CNNaffinity>  (98) 
3.8913245201

>  <CNN_VS>  (98) 
1.2282429934

>  <CNNaffinity_variance>  (98) 
0.2316122502

$$$$
99
     RDKit          3D

 43 45  0  0  0  0  0  0  0  0999 V2000
   21.5139   73.7701   -2.5694 P   0  0  2  0  0  0  0  0  0  0  0  0
   23.0358   73.9604   -3.0858 O   0  0  0  0  0  0  0  0  0  0  0  0
   20.6384   74.9797   -2.7184 O   0  0  0  0  0  0  0  0  0  0  0  0
   21.6827   73.2063   -1.0622 O   0  0  0  0  0  0  0  0  0  0  0  0
   22.7866   72.3680   -0.7736 C   0  0  0  0  0  0  0  0  0  0  0  0
   23.0972   70.8465    1.0611 O   0  0  0  0  0  0  0  0  0  0  0  0
   20.3111   69.8914    0.4979 O   0  0  0  0  0  0  0  0  0  0  0  0
   19.9537   71.5430    2.6381 O   0  0  0  0  0  0  0  0  0  0  0  0
   20.8510   71.2098    0.4030 C   0  0  1  0  0  0  0  0  0  0  0  0
   21.0504   71.7953    1.7849 C   0  0  2  0  0  0  0  0  0  0  0  0
   22.2820   71.0960   -0.1044 C   0  0  1  0  0  0  0  0  0  0  0  0
   22.3200   71.0978    2.2427 C   0  0  2  0  0  0  0  0  0  0  0  0
   19.3970   69.9384    0.8202 H   0  0  0  0  0  0  0  0  0  0  0  0
   19.1704   72.0088    2.3042 H   0  0  0  0  0  0  0  0  0  0  0  0
   23.7783   70.0795    4.4365 O   0  0  0  0  0  0  0  0  0  0  0  0
   25.2453   74.2786    5.6446 O   0  0  0  0  0  0  0  0  0  0  0  0
   23.0918   71.9026    3.1468 N   0  0  0  0  0  0  0  0  0  0  0  0
   24.5068   72.1719    5.0367 N   0  0  0  0  0  0  0  0  0  0  0  0
   23.7873   71.2922    4.2172 C   0  0  0  0  0  0  0  0  0  0  0  0
   23.1558   73.2792    2.9680 C   0  0  0  0  0  0  0  0  0  0  0  0
   23.8459   74.1047    3.7574 C   0  0  0  0  0  0  0  0  0  0  0  0
   24.5999   73.5475    4.8994 C   0  0  0  0  0  0  0  0  0  0  0  0
   24.9975   71.7704    5.7899 H   0  0  0  0  0  0  0  0  0  0  0  0
   21.0122   72.4706   -3.3894 O   0  0  0  0  0  0  0  0  0  0  0  0
   19.7072   71.5352   -3.2010 P   0  0  2  0  0  0  0  0  0  0  0  0
   18.9105   72.2519   -1.9877 O   0  0  0  0  0  0  0  0  0  0  0  0
   20.0175   70.0853   -2.9657 O   0  0  0  0  0  0  0  0  0  0  0  0
   18.8050   71.8234   -4.5069 O   0  0  0  0  0  0  0  0  0  0  0  0
   16.9491   73.0229   -5.3590 O   0  0  0  0  0  0  0  0  0  0  0  0
   15.7169   69.1098   -5.8467 O   0  0  0  0  0  0  0  0  0  0  0  0
   17.0848   69.9378   -3.4018 O   0  0  0  0  0  0  0  0  0  0  0  0
   16.6174   70.6527   -8.1401 O   0  0  0  0  0  0  0  0  0  0  0  0
   16.6586   70.1806   -5.7778 C   0  0  2  0  0  0  0  0  0  0  0  0
   16.5942   70.8304   -4.3954 C   0  0  2  0  0  0  0  0  0  0  0  0
   16.2973   71.1986   -6.8618 C   0  0  1  0  0  0  0  0  0  0  0  0
   17.4175   72.1187   -4.3576 C   0  0  1  0  0  0  0  0  0  0  0  0
   17.0691   72.5024   -6.6810 C   0  0  1  0  0  0  0  0  0  0  0  0
   15.9266   68.4503   -5.1667 H   0  0  0  0  0  0  0  0  0  0  0  0
   16.5671   69.1180   -3.4203 H   0  0  0  0  0  0  0  0  0  0  0  0
   16.1327   69.8223   -8.2677 H   0  0  0  0  0  0  0  0  0  0  0  0
   17.2946   74.6731   -7.5406 O   0  0  0  0  0  0  0  0  0  0  0  0
   15.4179   73.5147   -8.1198 O   0  0  0  0  0  0  0  0  0  0  0  0
   16.4818   73.5877   -7.5234 C   0  0  0  0  0  0  0  0  0  0  0  0
  1  4  1  0
  1 24  1  0
  1  2  1  6
  1  3  2  0
 25 28  1  0
 25 24  1  0
 25 26  1  1
 25 27  2  0
  6 11  1  0
  6 12  1  0
 29 36  1  0
 29 37  1  0
  9  7  1  1
  7 13  1  0
 10  8  1  1
  8 14  1  0
  4  5  1  0
 36 28  1  6
 33 30  1  1
 30 38  1  0
 34 31  1  1
 31 39  1  0
 35 32  1  6
 32 40  1  0
 41 43  1  0
 15 19  2  0
 42 43  2  0
 16 22  2  0
 12 17  1  1
 17 19  1  0
 17 20  1  0
 18 19  1  0
 18 22  1  0
 18 23  1  0
  9 10  1  0
  9 11  1  0
 10 12  1  0
 11  5  1  1
 33 34  1  0
 33 35  1  0
 34 36  1  0
 35 37  1  0
 37 43  1  6
 20 21  2  0
 21 22  1  0
M  CHG  3   2  -1  26  -1  41  -1
M  END
>  <COMPND>  (99) 
    udp_gluA.pdb 

>  <AUTHOR>  (99) 
    GENERATED BY OPEN BABEL 3.1.1

>  <MASTER>  (99) 
        0    0    0    0    0    0    0    0   56    0   56    0

>  <minimizedAffinity>  (99) 
-7.52826

>  <CNNscore>  (99) 
0.3043741584

>  <CNNaffinity>  (99) 
3.8158156872

>  <CNN_VS>  (99) 
1.1614357233

>  <CNNaffinity_variance>  (99) 
0.1269160658

$$$$
100
     RDKit          3D

 43 45  0  0  0  0  0  0  0  0999 V2000
   22.3498   71.5581   -3.4284 P   0  0  2  0  0  0  0  0  0  0  0  0
   21.8841   72.2347   -2.0340 O   0  0  0  0  0  0  0  0  0  0  0  0
   23.6223   72.1062   -4.0047 O   0  0  0  0  0  0  0  0  0  0  0  0
   21.0420   71.6768   -4.3737 O   0  0  0  0  0  0  0  0  0  0  0  0
   20.2047   70.5439   -4.5149 C   0  0  0  0  0  0  0  0  0  0  0  0
   18.2474   71.6760   -3.6996 O   0  0  0  0  0  0  0  0  0  0  0  0
   17.7149   69.2028   -2.0899 O   0  0  0  0  0  0  0  0  0  0  0  0
   16.0082   68.9207   -4.1979 O   0  0  0  0  0  0  0  0  0  0  0  0
   18.2689   69.3264   -3.4000 C   0  0  1  0  0  0  0  0  0  0  0  0
   17.1845   69.6766   -4.3968 C   0  0  2  0  0  0  0  0  0  0  0  0
   19.1404   70.5747   -3.4257 C   0  0  1  0  0  0  0  0  0  0  0  0
   16.9791   71.1584   -4.1318 C   0  0  2  0  0  0  0  0  0  0  0  0
   17.1540   68.4120   -2.0490 H   0  0  0  0  0  0  0  0  0  0  0  0
   16.1908   67.9849   -4.3793 H   0  0  0  0  0  0  0  0  0  0  0  0
   17.4253   70.2793   -6.7785 O   0  0  0  0  0  0  0  0  0  0  0  0
   15.3227   73.9762   -8.5549 O   0  0  0  0  0  0  0  0  0  0  0  0
   16.5589   71.8717   -5.3046 N   0  0  0  0  0  0  0  0  0  0  0  0
   16.3786   72.1219   -7.6607 N   0  0  0  0  0  0  0  0  0  0  0  0
   16.8328   71.3431   -6.5883 C   0  0  0  0  0  0  0  0  0  0  0  0
   15.8825   73.0788   -5.1771 C   0  0  0  0  0  0  0  0  0  0  0  0
   15.4557   73.8098   -6.2087 C   0  0  0  0  0  0  0  0  0  0  0  0
   15.7023   73.3287   -7.5839 C   0  0  0  0  0  0  0  0  0  0  0  0
   16.5594   71.7754   -8.5643 H   0  0  0  0  0  0  0  0  0  0  0  0
   22.3969   69.9827   -3.0694 O   0  0  0  0  0  0  0  0  0  0  0  0
   23.4179   69.1344   -2.1467 P   0  0  2  0  0  0  0  0  0  0  0  0
   24.8733   69.6086   -2.6732 O   0  0  0  0  0  0  0  0  0  0  0  0
   23.1983   67.6499   -2.1895 O   0  0  0  0  0  0  0  0  0  0  0  0
   23.2829   69.7891   -0.6784 O   0  0  0  0  0  0  0  0  0  0  0  0
   23.3788   68.9322    1.5274 O   0  0  0  0  0  0  0  0  0  0  0  0
   20.3363   71.7099    1.8361 O   0  0  0  0  0  0  0  0  0  0  0  0
   20.5128   69.9600   -0.4964 O   0  0  0  0  0  0  0  0  0  0  0  0
   22.9684   72.3023    2.9189 O   0  0  0  0  0  0  0  0  0  0  0  0
   21.5557   71.1632    1.3340 C   0  0  2  0  0  0  0  0  0  0  0  0
   21.2805   69.8035    0.6913 C   0  0  2  0  0  0  0  0  0  0  0  0
   22.5245   71.0103    2.5087 C   0  0  1  0  0  0  0  0  0  0  0  0
   22.5868   69.0858    0.3490 C   0  0  1  0  0  0  0  0  0  0  0  0
   23.7424   70.1763    2.1216 C   0  0  1  0  0  0  0  0  0  0  0  0
   19.7050   71.8161    1.1071 H   0  0  0  0  0  0  0  0  0  0  0  0
   19.6825   70.4150   -0.2867 H   0  0  0  0  0  0  0  0  0  0  0  0
   22.2027   72.8432    3.1679 H   0  0  0  0  0  0  0  0  0  0  0  0
   23.8001   70.0261    4.4616 O   0  0  0  0  0  0  0  0  0  0  0  0
   25.6140   69.2422    3.3239 O   0  0  0  0  0  0  0  0  0  0  0  0
   24.5064   69.7578    3.3354 C   0  0  0  0  0  0  0  0  0  0  0  0
  1  4  1  0
  1 24  1  0
  1  2  1  1
  1  3  2  0
 25 28  1  0
 25 24  1  0
 25 26  1  6
 25 27  2  0
  6 11  1  0
  6 12  1  0
 29 36  1  0
 29 37  1  0
  9  7  1  1
  7 13  1  0
 10  8  1  1
  8 14  1  0
  4  5  1  0
 36 28  1  6
 33 30  1  1
 30 38  1  0
 34 31  1  6
 31 39  1  0
 35 32  1  6
 32 40  1  0
 41 43  1  0
 15 19  2  0
 42 43  2  0
 16 22  2  0
 12 17  1  6
 17 19  1  0
 17 20  1  0
 18 19  1  0
 18 22  1  0
 18 23  1  0
  9 10  1  0
  9 11  1  0
 10 12  1  0
 11  5  1  6
 33 34  1  0
 33 35  1  0
 34 36  1  0
 35 37  1  0
 37 43  1  1
 20 21  2  0
 21 22  1  0
M  CHG  3   2  -1  26  -1  41  -1
M  END
>  <COMPND>  (100) 
    udp_gluA.pdb 

>  <AUTHOR>  (100) 
    GENERATED BY OPEN BABEL 3.1.1

>  <MASTER>  (100) 
        0    0    0    0    0    0    0    0   56    0   56    0

>  <minimizedAffinity>  (100) 
-9.36091

>  <CNNscore>  (100) 
0.2952715158

>  <CNNaffinity>  (100) 
4.1487221718

>  <CNN_VS>  (100) 
1.2249994278

>  <CNNaffinity_variance>  (100) 
0.1162698716

$$$$
101
     RDKit          3D

 43 45  0  0  0  0  0  0  0  0999 V2000
   20.9384   70.3741   -0.3617 P   0  0  2  0  0  0  0  0  0  0  0  0
   22.0942   70.0399   -1.4440 O   0  0  0  0  0  0  0  0  0  0  0  0
   20.9775   69.5397    0.8849 O   0  0  0  0  0  0  0  0  0  0  0  0
   19.5685   70.2930   -1.2188 O   0  0  0  0  0  0  0  0  0  0  0  0
   19.4424   71.1065   -2.3706 C   0  0  0  0  0  0  0  0  0  0  0  0
   17.8249   71.9983   -3.9089 O   0  0  0  0  0  0  0  0  0  0  0  0
   15.7490   70.6423   -2.2226 O   0  0  0  0  0  0  0  0  0  0  0  0
   16.0100   68.9356   -4.3333 O   0  0  0  0  0  0  0  0  0  0  0  0
   17.0688   70.2092   -2.5531 C   0  0  1  0  0  0  0  0  0  0  0  0
   17.1210   69.7375   -3.9908 C   0  0  2  0  0  0  0  0  0  0  0  0
   17.9709   71.4353   -2.5871 C   0  0  1  0  0  0  0  0  0  0  0  0
   17.1510   71.0513   -4.7529 C   0  0  2  0  0  0  0  0  0  0  0  0
   15.1543   69.8760   -2.1949 H   0  0  0  0  0  0  0  0  0  0  0  0
   16.0365   68.1111   -3.8219 H   0  0  0  0  0  0  0  0  0  0  0  0
   15.9940   70.1884   -7.1806 O   0  0  0  0  0  0  0  0  0  0  0  0
   19.9663   70.6907   -9.4637 O   0  0  0  0  0  0  0  0  0  0  0  0
   17.8599   70.9472   -5.9969 N   0  0  0  0  0  0  0  0  0  0  0  0
   17.9738   70.4384   -8.3152 N   0  0  0  0  0  0  0  0  0  0  0  0
   17.1855   70.5027   -7.1586 C   0  0  0  0  0  0  0  0  0  0  0  0
   19.2065   71.2846   -6.0581 C   0  0  0  0  0  0  0  0  0  0  0  0
   19.9447   71.2183   -7.1678 C   0  0  0  0  0  0  0  0  0  0  0  0
   19.3163   70.7627   -8.4252 C   0  0  0  0  0  0  0  0  0  0  0  0
   17.5267   70.1298   -9.1362 H   0  0  0  0  0  0  0  0  0  0  0  0
   21.1197   71.9613   -0.1156 O   0  0  0  0  0  0  0  0  0  0  0  0
   20.2344   73.0110    0.7377 P   0  0  2  0  0  0  0  0  0  0  0  0
   19.1396   72.0661    1.4649 O   0  0  0  0  0  0  0  0  0  0  0  0
   19.6453   74.1255   -0.0777 O   0  0  0  0  0  0  0  0  0  0  0  0
   21.2092   73.4955    1.9283 O   0  0  0  0  0  0  0  0  0  0  0  0
   21.7470   71.9548    3.6447 O   0  0  0  0  0  0  0  0  0  0  0  0
   22.9035   75.5400    5.3408 O   0  0  0  0  0  0  0  0  0  0  0  0
   20.4049   75.3500    3.8389 O   0  0  0  0  0  0  0  0  0  0  0  0
   24.9046   73.7023    4.3068 O   0  0  0  0  0  0  0  0  0  0  0  0
   22.6750   74.6149    4.2777 C   0  0  2  0  0  0  0  0  0  0  0  0
   21.1944   74.2357    4.2387 C   0  0  2  0  0  0  0  0  0  0  0  0
   23.5351   73.3759    4.5361 C   0  0  1  0  0  0  0  0  0  0  0  0
   20.9513   73.0792    3.2681 C   0  0  1  0  0  0  0  0  0  0  0  0
   23.1466   72.2254    3.6119 C   0  0  1  0  0  0  0  0  0  0  0  0
   22.3671   76.3358    5.1980 H   0  0  0  0  0  0  0  0  0  0  0  0
   20.5545   76.0877    4.4503 H   0  0  0  0  0  0  0  0  0  0  0  0
   25.1645   74.4334    4.8888 H   0  0  0  0  0  0  0  0  0  0  0  0
   24.8237   70.6109    3.3256 O   0  0  0  0  0  0  0  0  0  0  0  0
   23.3349   70.2750    5.0196 O   0  0  0  0  0  0  0  0  0  0  0  0
   23.7478   70.9410    4.0821 C   0  0  0  0  0  0  0  0  0  0  0  0
  1  4  1  0
  1 24  1  0
  1  2  1  6
  1  3  2  0
 25 28  1  0
 25 24  1  0
 25 26  1  1
 25 27  2  0
  6 11  1  0
  6 12  1  0
 29 36  1  0
 29 37  1  0
  9  7  1  6
  7 13  1  0
 10  8  1  6
  8 14  1  0
  4  5  1  0
 36 28  1  6
 33 30  1  1
 30 38  1  0
 34 31  1  6
 31 39  1  0
 35 32  1  6
 32 40  1  0
 41 43  1  0
 15 19  2  0
 42 43  2  0
 16 22  2  0
 12 17  1  6
 17 19  1  0
 17 20  1  0
 18 19  1  0
 18 22  1  0
 18 23  1  0
  9 10  1  0
  9 11  1  0
 10 12  1  0
 11  5  1  6
 33 34  1  0
 33 35  1  0
 34 36  1  0
 35 37  1  0
 37 43  1  1
 20 21  2  0
 21 22  1  0
M  CHG  3   2  -1  26  -1  41  -1
M  END
>  <COMPND>  (101) 
    udp_gluA.pdb 

>  <AUTHOR>  (101) 
    GENERATED BY OPEN BABEL 3.1.1

>  <MASTER>  (101) 
        0    0    0    0    0    0    0    0   56    0   56    0

>  <minimizedAffinity>  (101) 
-7.83354

>  <CNNscore>  (101) 
0.7523105741

>  <CNNaffinity>  (101) 
4.6169066429

>  <CNN_VS>  (101) 
3.4733476639

>  <CNNaffinity_variance>  (101) 
0.0556778833

$$$$
102
     RDKit          3D

 43 45  0  0  0  0  0  0  0  0999 V2000
   22.1428   71.2183   -2.1587 P   0  0  2  0  0  0  0  0  0  0  0  0
   22.9410   72.5322   -1.6533 O   0  0  0  0  0  0  0  0  0  0  0  0
   22.3514   70.8666   -3.6025 O   0  0  0  0  0  0  0  0  0  0  0  0
   20.6117   71.5006   -1.7184 O   0  0  0  0  0  0  0  0  0  0  0  0
   19.7804   72.2369   -2.5967 C   0  0  0  0  0  0  0  0  0  0  0  0
   17.7008   71.8947   -3.7524 O   0  0  0  0  0  0  0  0  0  0  0  0
   17.0062   69.9813   -1.5506 O   0  0  0  0  0  0  0  0  0  0  0  0
   17.7750   68.3149   -3.5675 O   0  0  0  0  0  0  0  0  0  0  0  0
   18.2716   70.2354   -2.1613 C   0  0  1  0  0  0  0  0  0  0  0  0
   18.3204   69.6174   -3.5426 C   0  0  2  0  0  0  0  0  0  0  0  0
   18.3516   71.7232   -2.4748 C   0  0  1  0  0  0  0  0  0  0  0  0
   17.5078   70.6073   -4.3598 C   0  0  2  0  0  0  0  0  0  0  0  0
   16.9318   69.0368   -1.3410 H   0  0  0  0  0  0  0  0  0  0  0  0
   18.3280   67.7226   -3.0333 H   0  0  0  0  0  0  0  0  0  0  0  0
   15.8977   69.8880   -6.5658 O   0  0  0  0  0  0  0  0  0  0  0  0
   19.2500   70.8812   -9.5691 O   0  0  0  0  0  0  0  0  0  0  0  0
   17.9347   70.6683   -5.7291 N   0  0  0  0  0  0  0  0  0  0  0  0
   17.5692   70.3824   -8.0595 N   0  0  0  0  0  0  0  0  0  0  0  0
   17.0481   70.2840   -6.7626 C   0  0  0  0  0  0  0  0  0  0  0  0
   19.2171   71.1061   -6.0369 C   0  0  0  0  0  0  0  0  0  0  0  0
   19.6996   71.1946   -7.2779 C   0  0  0  0  0  0  0  0  0  0  0  0
   18.8377   70.8113   -8.4153 C   0  0  0  0  0  0  0  0  0  0  0  0
   16.9711   70.1184   -8.7956 H   0  0  0  0  0  0  0  0  0  0  0  0
   22.6177   70.0807   -1.1131 O   0  0  0  0  0  0  0  0  0  0  0  0
   22.2055   69.8166    0.4277 P   0  0  2  0  0  0  0  0  0  0  0  0
   23.3683   68.8221    0.9563 O   0  0  0  0  0  0  0  0  0  0  0  0
   20.8114   69.2904    0.6107 O   0  0  0  0  0  0  0  0  0  0  0  0
   22.4963   71.2165    1.1749 O   0  0  0  0  0  0  0  0  0  0  0  0
   22.5831   71.5881    3.5123 O   0  0  0  0  0  0  0  0  0  0  0  0
   21.4375   75.3024    2.1124 O   0  0  0  0  0  0  0  0  0  0  0  0
   20.2687   72.8717    0.9898 O   0  0  0  0  0  0  0  0  0  0  0  0
   24.1710   74.8550    2.9948 O   0  0  0  0  0  0  0  0  0  0  0  0
   22.1030   74.0403    2.0650 C   0  0  2  0  0  0  0  0  0  0  0  0
   21.0730   72.9147    2.1628 C   0  0  2  0  0  0  0  0  0  0  0  0
   23.0768   73.9746    3.2437 C   0  0  1  0  0  0  0  0  0  0  0  0
   21.7587   71.5601    2.3465 C   0  0  1  0  0  0  0  0  0  0  0  0
   23.6214   72.5625    3.4383 C   0  0  1  0  0  0  0  0  0  0  0  0
   20.8132   75.3670    1.3726 H   0  0  0  0  0  0  0  0  0  0  0  0
   19.8308   73.7282    0.8670 H   0  0  0  0  0  0  0  0  0  0  0  0
   23.8380   75.7573    2.8689 H   0  0  0  0  0  0  0  0  0  0  0  0
   23.6783   73.2001    5.6948 O   0  0  0  0  0  0  0  0  0  0  0  0
   25.2741   71.7328    4.9881 O   0  0  0  0  0  0  0  0  0  0  0  0
   24.2980   72.4330    4.7641 C   0  0  0  0  0  0  0  0  0  0  0  0
  1  4  1  0
  1 24  1  0
  1  2  1  1
  1  3  2  0
 25 28  1  0
 25 24  1  0
 25 26  1  1
 25 27  2  0
  6 11  1  0
  6 12  1  0
 29 36  1  0
 29 37  1  0
  9  7  1  6
  7 13  1  0
 10  8  1  1
  8 14  1  0
  4  5  1  0
 36 28  1  6
 33 30  1  1
 30 38  1  0
 34 31  1  6
 31 39  1  0
 35 32  1  6
 32 40  1  0
 41 43  1  0
 15 19  2  0
 42 43  2  0
 16 22  2  0
 12 17  1  6
 17 19  1  0
 17 20  1  0
 18 19  1  0
 18 22  1  0
 18 23  1  0
  9 10  1  0
  9 11  1  0
 10 12  1  0
 11  5  1  6
 33 34  1  0
 33 35  1  0
 34 36  1  0
 35 37  1  0
 37 43  1  1
 20 21  2  0
 21 22  1  0
M  CHG  3   2  -1  26  -1  41  -1
M  END
>  <COMPND>  (102) 
    udp_gluA.pdb 

>  <AUTHOR>  (102) 
    GENERATED BY OPEN BABEL 3.1.1

>  <MASTER>  (102) 
        0    0    0    0    0    0    0    0   56    0   56    0

>  <minimizedAffinity>  (102) 
-8.48477

>  <CNNscore>  (102) 
0.7135603428

>  <CNNaffinity>  (102) 
4.6742458344

>  <CNN_VS>  (102) 
3.3353564739

>  <CNNaffinity_variance>  (102) 
0.0122270938

$$$$
103
     RDKit          3D

 43 45  0  0  0  0  0  0  0  0999 V2000
   21.9596   71.1349   -1.8769 P   0  0  2  0  0  0  0  0  0  0  0  0
   22.8030   72.3963   -2.4394 O   0  0  0  0  0  0  0  0  0  0  0  0
   21.9428   69.9328   -2.7749 O   0  0  0  0  0  0  0  0  0  0  0  0
   20.5127   71.7640   -1.5179 O   0  0  0  0  0  0  0  0  0  0  0  0
   19.7353   72.3129   -2.5661 C   0  0  0  0  0  0  0  0  0  0  0  0
   17.6719   71.9381   -3.7407 O   0  0  0  0  0  0  0  0  0  0  0  0
   16.9698   70.0449   -1.5238 O   0  0  0  0  0  0  0  0  0  0  0  0
   17.7760   68.3616   -3.5120 O   0  0  0  0  0  0  0  0  0  0  0  0
   18.2396   70.3031   -2.1235 C   0  0  1  0  0  0  0  0  0  0  0  0
   18.3093   69.6693   -3.4966 C   0  0  2  0  0  0  0  0  0  0  0  0
   18.3098   71.7877   -2.4539 C   0  0  1  0  0  0  0  0  0  0  0  0
   17.4972   70.6419   -4.3346 C   0  0  2  0  0  0  0  0  0  0  0  0
   16.9015   69.1022   -1.3038 H   0  0  0  0  0  0  0  0  0  0  0  0
   18.3282   67.7808   -2.9646 H   0  0  0  0  0  0  0  0  0  0  0  0
   15.8914   69.9596   -6.5555 O   0  0  0  0  0  0  0  0  0  0  0  0
   19.2963   70.8656   -9.5270 O   0  0  0  0  0  0  0  0  0  0  0  0
   17.9388   70.6905   -5.6997 N   0  0  0  0  0  0  0  0  0  0  0  0
   17.5890   70.4105   -8.0333 N   0  0  0  0  0  0  0  0  0  0  0  0
   17.0530   70.3268   -6.7415 C   0  0  0  0  0  0  0  0  0  0  0  0
   19.2345   71.0961   -5.9955 C   0  0  0  0  0  0  0  0  0  0  0  0
   19.7311   71.1709   -7.2318 C   0  0  0  0  0  0  0  0  0  0  0  0
   18.8711   70.8075   -8.3772 C   0  0  0  0  0  0  0  0  0  0  0  0
   16.9918   70.1604   -8.7750 H   0  0  0  0  0  0  0  0  0  0  0  0
   22.6158   70.8794   -0.4219 O   0  0  0  0  0  0  0  0  0  0  0  0
   22.1313   69.9561    0.8136 P   0  0  2  0  0  0  0  0  0  0  0  0
   23.3831   68.9551    1.0404 O   0  0  0  0  0  0  0  0  0  0  0  0
   20.8188   69.2634    0.5871 O   0  0  0  0  0  0  0  0  0  0  0  0
   22.1581   70.9380    2.0933 O   0  0  0  0  0  0  0  0  0  0  0  0
   21.5059   73.1637    1.6137 O   0  0  0  0  0  0  0  0  0  0  0  0
   22.9089   73.5141    5.4837 O   0  0  0  0  0  0  0  0  0  0  0  0
   24.3438   71.8832    3.5303 O   0  0  0  0  0  0  0  0  0  0  0  0
   20.0491   73.5223    4.9621 O   0  0  0  0  0  0  0  0  0  0  0  0
   22.2902   72.8596    4.3761 C   0  0  2  0  0  0  0  0  0  0  0  0
   23.2801   72.7739    3.2142 C   0  0  2  0  0  0  0  0  0  0  0  0
   21.0619   73.6770    3.9697 C   0  0  1  0  0  0  0  0  0  0  0  0
   22.5872   72.2896    1.9397 C   0  0  1  0  0  0  0  0  0  0  0  0
   20.5040   73.2140    2.6270 C   0  0  1  0  0  0  0  0  0  0  0  0
   23.6923   73.0126    5.7595 H   0  0  0  0  0  0  0  0  0  0  0  0
   24.7878   72.1843    4.3382 H   0  0  0  0  0  0  0  0  0  0  0  0
   20.3915   73.8133    5.8217 H   0  0  0  0  0  0  0  0  0  0  0  0
   19.5704   74.2309    0.7308 O   0  0  0  0  0  0  0  0  0  0  0  0
   18.7918   74.9084    2.7640 O   0  0  0  0  0  0  0  0  0  0  0  0
   19.5294   74.2089    2.0861 C   0  0  0  0  0  0  0  0  0  0  0  0
  1  4  1  0
  1 24  1  0
  1  2  1  6
  1  3  2  0
 25 28  1  0
 25 24  1  0
 25 26  1  1
 25 27  2  0
  6 11  1  0
  6 12  1  0
 29 36  1  0
 29 37  1  0
  9  7  1  6
  7 13  1  0
 10  8  1  1
  8 14  1  0
  4  5  1  0
 36 28  1  1
 33 30  1  1
 30 38  1  0
 34 31  1  1
 31 39  1  0
 35 32  1  1
 32 40  1  0
 41 43  1  0
 15 19  2  0
 42 43  2  0
 16 22  2  0
 12 17  1  6
 17 19  1  0
 17 20  1  0
 18 19  1  0
 18 22  1  0
 18 23  1  0
  9 10  1  0
  9 11  1  0
 10 12  1  0
 11  5  1  6
 33 34  1  0
 33 35  1  0
 34 36  1  0
 35 37  1  0
 37 43  1  6
 20 21  2  0
 21 22  1  0
M  CHG  3   2  -1  26  -1  41  -1
M  END
>  <COMPND>  (103) 
    udp_gluA.pdb 

>  <AUTHOR>  (103) 
    GENERATED BY OPEN BABEL 3.1.1

>  <MASTER>  (103) 
        0    0    0    0    0    0    0    0   56    0   56    0

>  <minimizedAffinity>  (103) 
-8.23379

>  <CNNscore>  (103) 
0.7088699341

>  <CNNaffinity>  (103) 
4.7029085159

>  <CNN_VS>  (103) 
3.3337504864

>  <CNNaffinity_variance>  (103) 
0.0056735142

$$$$
104
     RDKit          3D

 43 45  0  0  0  0  0  0  0  0999 V2000
   22.2039   72.3617   -3.7814 P   0  0  2  0  0  0  0  0  0  0  0  0
   22.1180   73.5084   -4.9201 O   0  0  0  0  0  0  0  0  0  0  0  0
   23.5392   71.6879   -3.6602 O   0  0  0  0  0  0  0  0  0  0  0  0
   20.9539   71.3895   -4.1140 O   0  0  0  0  0  0  0  0  0  0  0  0
   20.3073   70.7288   -3.0417 C   0  0  0  0  0  0  0  0  0  0  0  0
   18.5258   71.8094   -4.2401 O   0  0  0  0  0  0  0  0  0  0  0  0
   16.6740   70.5687   -2.2344 O   0  0  0  0  0  0  0  0  0  0  0  0
   16.3997   68.9267   -4.3943 O   0  0  0  0  0  0  0  0  0  0  0  0
   17.8694   70.0398   -2.8089 C   0  0  1  0  0  0  0  0  0  0  0  0
   17.6208   69.6198   -4.2421 C   0  0  2  0  0  0  0  0  0  0  0  0
   18.8559   71.1869   -2.9796 C   0  0  1  0  0  0  0  0  0  0  0  0
   17.6301   70.9543   -4.9680 C   0  0  2  0  0  0  0  0  0  0  0  0
   16.0283   69.8541   -2.1158 H   0  0  0  0  0  0  0  0  0  0  0  0
   16.4442   68.0843   -3.9144 H   0  0  0  0  0  0  0  0  0  0  0  0
   15.9988   70.2169   -7.1524 O   0  0  0  0  0  0  0  0  0  0  0  0
   19.5109   70.5413  -10.1197 O   0  0  0  0  0  0  0  0  0  0  0  0
   18.0924   70.8384   -6.3221 N   0  0  0  0  0  0  0  0  0  0  0  0
   17.7498   70.3782   -8.6280 N   0  0  0  0  0  0  0  0  0  0  0  0
   17.1913   70.4610   -7.3457 C   0  0  0  0  0  0  0  0  0  0  0  0
   19.4233   71.0985   -6.6253 C   0  0  0  0  0  0  0  0  0  0  0  0
   19.9410   71.0155   -7.8525 C   0  0  0  0  0  0  0  0  0  0  0  0
   19.0670   70.6266   -8.9786 C   0  0  0  0  0  0  0  0  0  0  0  0
   17.1423   70.1152   -9.3568 H   0  0  0  0  0  0  0  0  0  0  0  0
   21.7171   73.1363   -2.4488 O   0  0  0  0  0  0  0  0  0  0  0  0
   22.5379   74.0322   -1.3823 P   0  0  2  0  0  0  0  0  0  0  0  0
   21.4622   75.1577   -0.9392 O   0  0  0  0  0  0  0  0  0  0  0  0
   23.8306   74.5854   -1.9084 O   0  0  0  0  0  0  0  0  0  0  0  0
   22.6935   73.0848   -0.0859 O   0  0  0  0  0  0  0  0  0  0  0  0
   21.8859   70.8757   -0.3629 O   0  0  0  0  0  0  0  0  0  0  0  0
   22.5682   71.0169    3.7093 O   0  0  0  0  0  0  0  0  0  0  0  0
   21.3375   73.2819    2.3346 O   0  0  0  0  0  0  0  0  0  0  0  0
   24.4125   69.5951    1.9692 O   0  0  0  0  0  0  0  0  0  0  0  0
   22.7950   71.3423    2.3379 C   0  0  2  0  0  0  0  0  0  0  0  0
   21.5439   71.9992    1.7542 C   0  0  2  0  0  0  0  0  0  0  0  0
   23.1131   70.0453    1.5905 C   0  0  1  0  0  0  0  0  0  0  0  0
   21.6635   72.1524    0.2373 C   0  0  1  0  0  0  0  0  0  0  0  0
   23.0903   70.2535    0.0790 C   0  0  1  0  0  0  0  0  0  0  0  0
   22.3640   71.8260    4.2043 H   0  0  0  0  0  0  0  0  0  0  0  0
   21.2610   73.1922    3.2971 H   0  0  0  0  0  0  0  0  0  0  0  0
   24.4405   69.4590    2.9292 H   0  0  0  0  0  0  0  0  0  0  0  0
   22.8048   67.9300    0.2250 O   0  0  0  0  0  0  0  0  0  0  0  0
   23.2689   68.7936   -1.8337 O   0  0  0  0  0  0  0  0  0  0  0  0
   23.0726   68.9422   -0.6368 C   0  0  0  0  0  0  0  0  0  0  0  0
  1  4  1  0
  1 24  1  0
  1  2  1  6
  1  3  2  0
 25 28  1  0
 25 24  1  0
 25 26  1  1
 25 27  2  0
  6 11  1  0
  6 12  1  0
 29 36  1  0
 29 37  1  0
  9  7  1  6
  7 13  1  0
 10  8  1  1
  8 14  1  0
  4  5  1  0
 36 28  1  1
 33 30  1  1
 30 38  1  0
 34 31  1  1
 31 39  1  0
 35 32  1  1
 32 40  1  0
 41 43  1  0
 15 19  2  0
 42 43  2  0
 16 22  2  0
 12 17  1  6
 17 19  1  0
 17 20  1  0
 18 19  1  0
 18 22  1  0
 18 23  1  0
  9 10  1  0
  9 11  1  0
 10 12  1  0
 11  5  1  6
 33 34  1  0
 33 35  1  0
 34 36  1  0
 35 37  1  0
 37 43  1  6
 20 21  2  0
 21 22  1  0
M  CHG  3   2  -1  26  -1  41  -1
M  END
>  <COMPND>  (104) 
    udp_gluA.pdb 

>  <AUTHOR>  (104) 
    GENERATED BY OPEN BABEL 3.1.1

>  <MASTER>  (104) 
        0    0    0    0    0    0    0    0   56    0   56    0

>  <minimizedAffinity>  (104) 
-8.04890

>  <CNNscore>  (104) 
0.6785518527

>  <CNNaffinity>  (104) 
4.6219830513

>  <CNN_VS>  (104) 
3.1362552643

>  <CNNaffinity_variance>  (104) 
0.1720368117

$$$$
105
     RDKit          3D

 43 45  0  0  0  0  0  0  0  0999 V2000
   21.7440   71.7780   -3.2747 P   0  0  2  0  0  0  0  0  0  0  0  0
   22.1760   72.6495   -1.9813 O   0  0  0  0  0  0  0  0  0  0  0  0
   22.5064   72.0864   -4.5298 O   0  0  0  0  0  0  0  0  0  0  0  0
   20.1406   71.9774   -3.3596 O   0  0  0  0  0  0  0  0  0  0  0  0
   19.3101   71.0996   -2.6219 C   0  0  0  0  0  0  0  0  0  0  0  0
   17.7516   72.0176   -4.2049 O   0  0  0  0  0  0  0  0  0  0  0  0
   15.6031   70.7371   -2.5509 O   0  0  0  0  0  0  0  0  0  0  0  0
   15.8635   69.0006   -4.6372 O   0  0  0  0  0  0  0  0  0  0  0  0
   16.9175   70.2648   -2.8474 C   0  0  1  0  0  0  0  0  0  0  0  0
   16.9882   69.7759   -4.2786 C   0  0  2  0  0  0  0  0  0  0  0  0
   17.8532   71.4656   -2.8744 C   0  0  1  0  0  0  0  0  0  0  0  0
   17.0707   71.0799   -5.0536 C   0  0  2  0  0  0  0  0  0  0  0  0
   14.9873   69.9875   -2.5283 H   0  0  0  0  0  0  0  0  0  0  0  0
   15.8563   68.1814   -4.1167 H   0  0  0  0  0  0  0  0  0  0  0  0
   15.9215   70.3325   -7.5229 O   0  0  0  0  0  0  0  0  0  0  0  0
   19.9786   70.5852   -9.6955 O   0  0  0  0  0  0  0  0  0  0  0  0
   17.8036   70.9428   -6.2804 N   0  0  0  0  0  0  0  0  0  0  0  0
   17.9435   70.4581   -8.6024 N   0  0  0  0  0  0  0  0  0  0  0  0
   17.1311   70.5621   -7.4657 C   0  0  0  0  0  0  0  0  0  0  0  0
   19.1716   71.1857   -6.3019 C   0  0  0  0  0  0  0  0  0  0  0  0
   19.9326   71.0826   -7.3932 C   0  0  0  0  0  0  0  0  0  0  0  0
   19.3078   70.6889   -8.6730 C   0  0  0  0  0  0  0  0  0  0  0  0
   17.4980   70.1924   -9.4393 H   0  0  0  0  0  0  0  0  0  0  0  0
   21.8938   70.2555   -2.7528 O   0  0  0  0  0  0  0  0  0  0  0  0
   23.1478   69.4787   -2.0912 P   0  0  2  0  0  0  0  0  0  0  0  0
   24.4286   70.1932   -2.7763 O   0  0  0  0  0  0  0  0  0  0  0  0
   23.1074   67.9875   -2.2608 O   0  0  0  0  0  0  0  0  0  0  0  0
   23.1753   69.9775   -0.5574 O   0  0  0  0  0  0  0  0  0  0  0  0
   23.4259   68.9801    1.5761 O   0  0  0  0  0  0  0  0  0  0  0  0
   20.3185   71.6198    2.2420 O   0  0  0  0  0  0  0  0  0  0  0  0
   20.4162   70.0361   -0.2109 O   0  0  0  0  0  0  0  0  0  0  0  0
   22.9882   72.2334    3.2152 O   0  0  0  0  0  0  0  0  0  0  0  0
   21.5238   71.1519    1.6369 C   0  0  2  0  0  0  0  0  0  0  0  0
   21.2559   69.8289    0.9190 C   0  0  2  0  0  0  0  0  0  0  0  0
   22.5632   70.9564    2.7429 C   0  0  1  0  0  0  0  0  0  0  0  0
   22.5627   69.1830    0.4566 C   0  0  1  0  0  0  0  0  0  0  0  0
   23.7829   70.1944    2.2328 C   0  0  1  0  0  0  0  0  0  0  0  0
   19.6430   71.7513    1.5581 H   0  0  0  0  0  0  0  0  0  0  0  0
   19.5852   70.4460    0.0752 H   0  0  0  0  0  0  0  0  0  0  0  0
   22.2212   72.7287    3.5426 H   0  0  0  0  0  0  0  0  0  0  0  0
   25.0904   70.7763    4.0911 O   0  0  0  0  0  0  0  0  0  0  0  0
   24.8739   68.5545    3.6264 O   0  0  0  0  0  0  0  0  0  0  0  0
   24.6288   69.7240    3.3710 C   0  0  0  0  0  0  0  0  0  0  0  0
  1  4  1  0
  1 24  1  0
  1  2  1  1
  1  3  2  0
 25 28  1  0
 25 24  1  0
 25 26  1  6
 25 27  2  0
  6 11  1  0
  6 12  1  0
 29 36  1  0
 29 37  1  0
  9  7  1  6
  7 13  1  0
 10  8  1  6
  8 14  1  0
  4  5  1  0
 36 28  1  6
 33 30  1  1
 30 38  1  0
 34 31  1  6
 31 39  1  0
 35 32  1  6
 32 40  1  0
 41 43  1  0
 15 19  2  0
 42 43  2  0
 16 22  2  0
 12 17  1  6
 17 19  1  0
 17 20  1  0
 18 19  1  0
 18 22  1  0
 18 23  1  0
  9 10  1  0
  9 11  1  0
 10 12  1  0
 11  5  1  6
 33 34  1  0
 33 35  1  0
 34 36  1  0
 35 37  1  0
 37 43  1  1
 20 21  2  0
 21 22  1  0
M  CHG  3   2  -1  26  -1  41  -1
M  END
>  <COMPND>  (105) 
    udp_gluA.pdb 

>  <AUTHOR>  (105) 
    GENERATED BY OPEN BABEL 3.1.1

>  <MASTER>  (105) 
        0    0    0    0    0    0    0    0   56    0   56    0

>  <minimizedAffinity>  (105) 
-8.76794

>  <CNNscore>  (105) 
0.5805243254

>  <CNNaffinity>  (105) 
4.4361538887

>  <CNN_VS>  (105) 
2.5752952099

>  <CNNaffinity_variance>  (105) 
0.1353048235

$$$$
106
     RDKit          3D

 43 45  0  0  0  0  0  0  0  0999 V2000
   19.4815   71.3814    0.0127 P   0  0  2  0  0  0  0  0  0  0  0  0
   19.4837   69.9077   -0.6560 O   0  0  0  0  0  0  0  0  0  0  0  0
   20.1549   71.4710    1.3507 O   0  0  0  0  0  0  0  0  0  0  0  0
   17.9248   71.8211   -0.0213 O   0  0  0  0  0  0  0  0  0  0  0  0
   17.4903   72.6913   -1.0501 C   0  0  0  0  0  0  0  0  0  0  0  0
   15.8661   70.9252   -1.1926 O   0  0  0  0  0  0  0  0  0  0  0  0
   14.9841   72.1957   -3.7615 O   0  0  0  0  0  0  0  0  0  0  0  0
   13.0942   73.0536   -1.9928 O   0  0  0  0  0  0  0  0  0  0  0  0
   15.4463   72.8132   -2.5600 C   0  0  1  0  0  0  0  0  0  0  0  0
   14.3772   72.7440   -1.4902 C   0  0  2  0  0  0  0  0  0  0  0  0
   16.5425   71.9351   -1.9722 C   0  0  1  0  0  0  0  0  0  0  0  0
   14.4904   71.3025   -1.0240 C   0  0  2  0  0  0  0  0  0  0  0  0
   14.2830   72.7388   -4.1554 H   0  0  0  0  0  0  0  0  0  0  0  0
   13.0732   73.9816   -2.2761 H   0  0  0  0  0  0  0  0  0  0  0  0
   12.7322   69.3153   -0.0565 O   0  0  0  0  0  0  0  0  0  0  0  0
   13.1722   70.7838    4.2902 O   0  0  0  0  0  0  0  0  0  0  0  0
   14.1281   71.1428    0.3559 N   0  0  0  0  0  0  0  0  0  0  0  0
   12.9523   70.0492    2.1073 N   0  0  0  0  0  0  0  0  0  0  0  0
   13.2366   70.1122    0.7368 C   0  0  0  0  0  0  0  0  0  0  0  0
   14.6548   71.9995    1.3149 C   0  0  0  0  0  0  0  0  0  0  0  0
   14.3746   71.9269    2.6175 C   0  0  0  0  0  0  0  0  0  0  0  0
   13.4509   70.8787    3.0987 C   0  0  0  0  0  0  0  0  0  0  0  0
   12.3324   69.3410    2.3964 H   0  0  0  0  0  0  0  0  0  0  0  0
   20.1446   72.3029   -1.1379 O   0  0  0  0  0  0  0  0  0  0  0  0
   20.8576   71.9083   -2.5342 P   0  0  2  0  0  0  0  0  0  0  0  0
   21.6825   70.5662   -2.1619 O   0  0  0  0  0  0  0  0  0  0  0  0
   21.6945   73.0034   -3.1294 O   0  0  0  0  0  0  0  0  0  0  0  0
   19.6536   71.3974   -3.4785 O   0  0  0  0  0  0  0  0  0  0  0  0
   19.0253   69.2546   -4.2678 O   0  0  0  0  0  0  0  0  0  0  0  0
   18.1450   71.6410   -7.5233 O   0  0  0  0  0  0  0  0  0  0  0  0
   20.6079   72.0540   -6.0072 O   0  0  0  0  0  0  0  0  0  0  0  0
   16.0074   70.6459   -5.8230 O   0  0  0  0  0  0  0  0  0  0  0  0
   18.2959   71.3302   -6.1381 C   0  0  2  0  0  0  0  0  0  0  0  0
   19.7452   70.9323   -5.8578 C   0  0  2  0  0  0  0  0  0  0  0  0
   17.3524   70.1715   -5.8080 C   0  0  1  0  0  0  0  0  0  0  0  0
   19.8952   70.3737   -4.4421 C   0  0  1  0  0  0  0  0  0  0  0  0
   17.6483   69.5876   -4.4295 C   0  0  1  0  0  0  0  0  0  0  0  0
   18.7353   72.3749   -7.7563 H   0  0  0  0  0  0  0  0  0  0  0  0
   20.5177   72.4136   -6.9033 H   0  0  0  0  0  0  0  0  0  0  0  0
   15.8063   71.0203   -6.6949 H   0  0  0  0  0  0  0  0  0  0  0  0
   17.6913   67.4561   -3.4516 O   0  0  0  0  0  0  0  0  0  0  0  0
   15.8904   67.9670   -4.7535 O   0  0  0  0  0  0  0  0  0  0  0  0
   16.9620   68.2723   -4.2521 C   0  0  0  0  0  0  0  0  0  0  0  0
  1  4  1  0
  1 24  1  0
  1  2  1  6
  1  3  2  0
 25 28  1  0
 25 24  1  0
 25 26  1  1
 25 27  2  0
  6 11  1  0
  6 12  1  0
 29 36  1  0
 29 37  1  0
  9  7  1  6
  7 13  1  0
 10  8  1  6
  8 14  1  0
  4  5  1  0
 36 28  1  1
 33 30  1  6
 30 38  1  0
 34 31  1  1
 31 39  1  0
 35 32  1  1
 32 40  1  0
 41 43  1  0
 15 19  2  0
 42 43  2  0
 16 22  2  0
 12 17  1  1
 17 19  1  0
 17 20  1  0
 18 19  1  0
 18 22  1  0
 18 23  1  0
  9 10  1  0
  9 11  1  0
 10 12  1  0
 11  5  1  1
 33 34  1  0
 33 35  1  0
 34 36  1  0
 35 37  1  0
 37 43  1  6
 20 21  2  0
 21 22  1  0
M  CHG  3   2  -1  26  -1  41  -1
M  END
>  <COMPND>  (106) 
    udp_gluA.pdb 

>  <AUTHOR>  (106) 
    GENERATED BY OPEN BABEL 3.1.1

>  <MASTER>  (106) 
        0    0    0    0    0    0    0    0   56    0   56    0

>  <minimizedAffinity>  (106) 
-6.65143

>  <CNNscore>  (106) 
0.4007207155

>  <CNNaffinity>  (106) 
4.0470280647

>  <CNN_VS>  (106) 
1.6217279434

>  <CNNaffinity_variance>  (106) 
0.5026698112

$$$$
107
     RDKit          3D

 43 45  0  0  0  0  0  0  0  0999 V2000
   20.2621   74.9241   -3.6528 P   0  0  2  0  0  0  0  0  0  0  0  0
   20.4539   75.0105   -2.0483 O   0  0  0  0  0  0  0  0  0  0  0  0
   20.6043   76.1795   -4.4003 O   0  0  0  0  0  0  0  0  0  0  0  0
   18.7459   74.3892   -3.8347 O   0  0  0  0  0  0  0  0  0  0  0  0
   18.2357   73.4684   -2.8879 C   0  0  0  0  0  0  0  0  0  0  0  0
   16.7466   73.0104   -4.7184 O   0  0  0  0  0  0  0  0  0  0  0  0
   14.9601   71.7045   -2.6949 O   0  0  0  0  0  0  0  0  0  0  0  0
   16.1869   69.5720   -3.8710 O   0  0  0  0  0  0  0  0  0  0  0  0
   16.3862   71.7261   -2.7610 C   0  0  1  0  0  0  0  0  0  0  0  0
   16.8740   70.8058   -3.8598 C   0  0  2  0  0  0  0  0  0  0  0  0
   16.8118   73.0934   -3.2782 C   0  0  1  0  0  0  0  0  0  0  0  0
   16.6090   71.6340   -5.1055 C   0  0  2  0  0  0  0  0  0  0  0  0
   14.6643   70.8404   -2.3669 H   0  0  0  0  0  0  0  0  0  0  0  0
   16.3884   69.0824   -3.0576 H   0  0  0  0  0  0  0  0  0  0  0  0
   15.9277   70.3695   -7.5373 O   0  0  0  0  0  0  0  0  0  0  0  0
   20.2646   70.5962   -9.0813 O   0  0  0  0  0  0  0  0  0  0  0  0
   17.5404   71.3503   -6.1604 N   0  0  0  0  0  0  0  0  0  0  0  0
   18.0886   70.4827   -8.3036 N   0  0  0  0  0  0  0  0  0  0  0  0
   17.0956   70.7112   -7.3419 C   0  0  0  0  0  0  0  0  0  0  0  0
   18.8765   71.7054   -6.0201 C   0  0  0  0  0  0  0  0  0  0  0  0
   19.8114   71.4811   -6.9456 C   0  0  0  0  0  0  0  0  0  0  0  0
   19.4299   70.8169   -8.2092 C   0  0  0  0  0  0  0  0  0  0  0  0
   17.8033   70.0371   -9.1339 H   0  0  0  0  0  0  0  0  0  0  0  0
   21.1524   73.6366   -4.0559 O   0  0  0  0  0  0  0  0  0  0  0  0
   22.4570   72.9870   -3.3560 P   0  0  2  0  0  0  0  0  0  0  0  0
   23.2548   74.2773   -2.7912 O   0  0  0  0  0  0  0  0  0  0  0  0
   23.2678   72.1065   -4.2622 O   0  0  0  0  0  0  0  0  0  0  0  0
   21.8899   72.2498   -2.0379 O   0  0  0  0  0  0  0  0  0  0  0  0
   22.7188   72.7764    0.1173 O   0  0  0  0  0  0  0  0  0  0  0  0
   20.9800   69.0850    0.7641 O   0  0  0  0  0  0  0  0  0  0  0  0
   22.5557   69.5778   -1.6460 O   0  0  0  0  0  0  0  0  0  0  0  0
   19.6497   71.5042    1.6744 O   0  0  0  0  0  0  0  0  0  0  0  0
   21.1294   70.3658    0.1515 C   0  0  2  0  0  0  0  0  0  0  0  0
   22.4975   70.4528   -0.5254 C   0  0  2  0  0  0  0  0  0  0  0  0
   21.0077   71.4299    1.2445 C   0  0  1  0  0  0  0  0  0  0  0  0
   22.7871   71.8800   -0.9924 C   0  0  1  0  0  0  0  0  0  0  0  0
   21.4337   72.8036    0.7345 C   0  0  1  0  0  0  0  0  0  0  0  0
   21.0538   68.3926    0.0885 H   0  0  0  0  0  0  0  0  0  0  0  0
   22.3727   68.6704   -1.3570 H   0  0  0  0  0  0  0  0  0  0  0  0
   19.3661   70.6362    2.0013 H   0  0  0  0  0  0  0  0  0  0  0  0
   21.9547   74.9880    1.4116 O   0  0  0  0  0  0  0  0  0  0  0  0
   21.5065   73.4694    3.0524 O   0  0  0  0  0  0  0  0  0  0  0  0
   21.6272   73.7546    1.8704 C   0  0  0  0  0  0  0  0  0  0  0  0
  1  4  1  0
  1 24  1  0
  1  2  1  1
  1  3  2  0
 25 28  1  0
 25 24  1  0
 25 26  1  1
 25 27  2  0
  6 11  1  0
  6 12  1  0
 29 36  1  0
 29 37  1  0
  9  7  1  6
  7 13  1  0
 10  8  1  6
  8 14  1  0
  4  5  1  0
 36 28  1  6
 33 30  1  1
 30 38  1  0
 34 31  1  6
 31 39  1  0
 35 32  1  6
 32 40  1  0
 41 43  1  0
 15 19  2  0
 42 43  2  0
 16 22  2  0
 12 17  1  6
 17 19  1  0
 17 20  1  0
 18 19  1  0
 18 22  1  0
 18 23  1  0
  9 10  1  0
  9 11  1  0
 10 12  1  0
 11  5  1  6
 33 34  1  0
 33 35  1  0
 34 36  1  0
 35 37  1  0
 37 43  1  1
 20 21  2  0
 21 22  1  0
M  CHG  3   2  -1  26  -1  41  -1
M  END
>  <COMPND>  (107) 
    udp_gluA.pdb 

>  <AUTHOR>  (107) 
    GENERATED BY OPEN BABEL 3.1.1

>  <MASTER>  (107) 
        0    0    0    0    0    0    0    0   56    0   56    0

>  <minimizedAffinity>  (107) 
-6.81468

>  <CNNscore>  (107) 
0.3823517263

>  <CNNaffinity>  (107) 
4.1353330612

>  <CNN_VS>  (107) 
1.5811517239

>  <CNNaffinity_variance>  (107) 
0.3240727782

$$$$
108
     RDKit          3D

 43 45  0  0  0  0  0  0  0  0999 V2000
   22.7542   72.8007   -3.2426 P   0  0  2  0  0  0  0  0  0  0  0  0
   23.5797   71.4967   -3.7293 O   0  0  0  0  0  0  0  0  0  0  0  0
   23.5424   74.0775   -3.2202 O   0  0  0  0  0  0  0  0  0  0  0  0
   22.1101   72.3477   -1.8292 O   0  0  0  0  0  0  0  0  0  0  0  0
   22.9821   72.0046   -0.7679 C   0  0  0  0  0  0  0  0  0  0  0  0
   23.1417   70.6565    1.2158 O   0  0  0  0  0  0  0  0  0  0  0  0
   20.3654   69.7199    0.5780 O   0  0  0  0  0  0  0  0  0  0  0  0
   19.9348   71.5748    2.5299 O   0  0  0  0  0  0  0  0  0  0  0  0
   20.9487   71.0100    0.3933 C   0  0  1  0  0  0  0  0  0  0  0  0
   21.0857   71.7187    1.7241 C   0  0  2  0  0  0  0  0  0  0  0  0
   22.4025   70.8142   -0.0147 C   0  0  1  0  0  0  0  0  0  0  0  0
   22.3057   71.0373    2.3201 C   0  0  2  0  0  0  0  0  0  0  0  0
   19.4361   69.8192    0.8392 H   0  0  0  0  0  0  0  0  0  0  0  0
   19.1862   72.0257    2.1077 H   0  0  0  0  0  0  0  0  0  0  0  0
   23.6279   70.1913    4.6680 O   0  0  0  0  0  0  0  0  0  0  0  0
   25.1228   74.4546    5.5811 O   0  0  0  0  0  0  0  0  0  0  0  0
   23.0479   71.9052    3.1900 N   0  0  0  0  0  0  0  0  0  0  0  0
   24.3703   72.3156    5.1211 N   0  0  0  0  0  0  0  0  0  0  0  0
   23.6745   71.3796    4.3447 C   0  0  0  0  0  0  0  0  0  0  0  0
   23.1509   73.2593    2.8956 C   0  0  0  0  0  0  0  0  0  0  0  0
   23.8178   74.1392    3.6452 C   0  0  0  0  0  0  0  0  0  0  0  0
   24.5004   73.6719    4.8696 C   0  0  0  0  0  0  0  0  0  0  0  0
   24.8131   71.9737    5.9312 H   0  0  0  0  0  0  0  0  0  0  0  0
   21.4787   72.8142   -4.2355 O   0  0  0  0  0  0  0  0  0  0  0  0
   21.2743   73.4857   -5.6919 P   0  0  2  0  0  0  0  0  0  0  0  0
   22.5972   73.0226   -6.5016 O   0  0  0  0  0  0  0  0  0  0  0  0
   21.0569   74.9709   -5.6602 O   0  0  0  0  0  0  0  0  0  0  0  0
   20.0711   72.6472   -6.3640 O   0  0  0  0  0  0  0  0  0  0  0  0
   19.1477   70.5708   -5.6968 O   0  0  0  0  0  0  0  0  0  0  0  0
   18.5911   70.4623   -9.7890 O   0  0  0  0  0  0  0  0  0  0  0  0
   21.0948   71.4590   -8.6610 O   0  0  0  0  0  0  0  0  0  0  0  0
   16.3444   71.0010   -8.0246 O   0  0  0  0  0  0  0  0  0  0  0  0
   18.7042   71.0760   -8.5051 C   0  0  2  0  0  0  0  0  0  0  0  0
   20.0856   70.7846   -7.9184 C   0  0  2  0  0  0  0  0  0  0  0  0
   17.6107   70.4956   -7.6055 C   0  0  1  0  0  0  0  0  0  0  0  0
   20.1636   71.2267   -6.4565 C   0  0  1  0  0  0  0  0  0  0  0  0
   17.8295   70.8786   -6.1447 C   0  0  1  0  0  0  0  0  0  0  0  0
   19.2763   70.8158  -10.3780 H   0  0  0  0  0  0  0  0  0  0  0  0
   21.0510   71.1834   -9.5897 H   0  0  0  0  0  0  0  0  0  0  0  0
   16.1929   70.7642   -8.9529 H   0  0  0  0  0  0  0  0  0  0  0  0
   17.4137   70.1161   -3.9659 O   0  0  0  0  0  0  0  0  0  0  0  0
   15.9938   69.4091   -5.6040 O   0  0  0  0  0  0  0  0  0  0  0  0
   16.9683   70.0531   -5.2452 C   0  0  0  0  0  0  0  0  0  0  0  0
  1  4  1  0
  1 24  1  0
  1  2  1  6
  1  3  2  0
 25 28  1  0
 25 24  1  0
 25 26  1  6
 25 27  2  0
  6 11  1  0
  6 12  1  0
 29 36  1  0
 29 37  1  0
  9  7  1  1
  7 13  1  0
 10  8  1  1
  8 14  1  0
  4  5  1  0
 36 28  1  6
 33 30  1  6
 30 38  1  0
 34 31  1  6
 31 39  1  0
 35 32  1  6
 32 40  1  0
 41 43  1  0
 15 19  2  0
 42 43  2  0
 16 22  2  0
 12 17  1  1
 17 19  1  0
 17 20  1  0
 18 19  1  0
 18 22  1  0
 18 23  1  0
  9 10  1  0
  9 11  1  0
 10 12  1  0
 11  5  1  1
 33 34  1  0
 33 35  1  0
 34 36  1  0
 35 37  1  0
 37 43  1  1
 20 21  2  0
 21 22  1  0
M  CHG  3   2  -1  26  -1  41  -1
M  END
>  <COMPND>  (108) 
    udp_gluA.pdb 

>  <AUTHOR>  (108) 
    GENERATED BY OPEN BABEL 3.1.1

>  <MASTER>  (108) 
        0    0    0    0    0    0    0    0   56    0   56    0

>  <minimizedAffinity>  (108) 
-8.68215

>  <CNNscore>  (108) 
0.3634883761

>  <CNNaffinity>  (108) 
4.0205945969

>  <CNN_VS>  (108) 
1.4614393711

>  <CNNaffinity_variance>  (108) 
0.1158206239

$$$$
109
     RDKit          3D

 43 45  0  0  0  0  0  0  0  0999 V2000
   20.2053   71.4734   -0.5601 P   0  0  2  0  0  0  0  0  0  0  0  0
   19.0778   72.5142   -0.0460 O   0  0  0  0  0  0  0  0  0  0  0  0
   19.8111   70.0271   -0.4909 O   0  0  0  0  0  0  0  0  0  0  0  0
   21.5249   71.8830    0.2819 O   0  0  0  0  0  0  0  0  0  0  0  0
   21.6979   71.3358    1.5762 C   0  0  0  0  0  0  0  0  0  0  0  0
   23.6037   72.4853    2.4840 O   0  0  0  0  0  0  0  0  0  0  0  0
   24.8959   69.7877    2.6963 O   0  0  0  0  0  0  0  0  0  0  0  0
   24.0767   70.2589    5.2542 O   0  0  0  0  0  0  0  0  0  0  0  0
   23.5288   70.1524    2.8876 C   0  0  1  0  0  0  0  0  0  0  0  0
   23.3592   70.8767    4.2063 C   0  0  2  0  0  0  0  0  0  0  0  0
   23.1876   71.2415    1.8798 C   0  0  1  0  0  0  0  0  0  0  0  0
   23.8856   72.2626    3.8749 C   0  0  2  0  0  0  0  0  0  0  0  0
   25.1372   69.0929    3.3293 H   0  0  0  0  0  0  0  0  0  0  0  0
   23.7033   69.3799    5.4274 H   0  0  0  0  0  0  0  0  0  0  0  0
   25.2690   74.2633    5.3102 O   0  0  0  0  0  0  0  0  0  0  0  0
   21.3443   76.1538    6.8157 O   0  0  0  0  0  0  0  0  0  0  0  0
   23.2501   73.2901    4.6503 N   0  0  0  0  0  0  0  0  0  0  0  0
   23.3130   75.2023    6.0594 N   0  0  0  0  0  0  0  0  0  0  0  0
   24.0369   74.2472    5.3337 C   0  0  0  0  0  0  0  0  0  0  0  0
   21.8637   73.3437    4.7270 C   0  0  0  0  0  0  0  0  0  0  0  0
   21.1879   74.2603    5.4228 C   0  0  0  0  0  0  0  0  0  0  0  0
   21.9348   75.2960    6.1663 C   0  0  0  0  0  0  0  0  0  0  0  0
   23.8391   75.8780    6.5452 H   0  0  0  0  0  0  0  0  0  0  0  0
   20.5424   72.0090   -2.0474 O   0  0  0  0  0  0  0  0  0  0  0  0
   20.9049   71.2113   -3.4061 P   0  0  2  0  0  0  0  0  0  0  0  0
   21.8771   70.0244   -2.8900 O   0  0  0  0  0  0  0  0  0  0  0  0
   21.4972   72.0706   -4.4853 O   0  0  0  0  0  0  0  0  0  0  0  0
   19.5358   70.4652   -3.8202 O   0  0  0  0  0  0  0  0  0  0  0  0
   17.8101   71.9919   -4.3681 O   0  0  0  0  0  0  0  0  0  0  0  0
   15.7996   68.3838   -4.4558 O   0  0  0  0  0  0  0  0  0  0  0  0
   17.7324   68.9511   -2.3399 O   0  0  0  0  0  0  0  0  0  0  0  0
   16.5255   69.7105   -6.9385 O   0  0  0  0  0  0  0  0  0  0  0  0
   16.9206   69.2550   -4.6058 C   0  0  2  0  0  0  0  0  0  0  0  0
   17.2395   69.9144   -3.2638 C   0  0  2  0  0  0  0  0  0  0  0  0
   16.5587   70.3161   -5.6476 C   0  0  1  0  0  0  0  0  0  0  0  0
   18.2810   71.0216   -3.4321 C   0  0  1  0  0  0  0  0  0  0  0  0
   17.5805   71.4493   -5.6666 C   0  0  1  0  0  0  0  0  0  0  0  0
   16.0063   67.7010   -3.7983 H   0  0  0  0  0  0  0  0  0  0  0  0
   17.0767   68.2454   -2.2285 H   0  0  0  0  0  0  0  0  0  0  0  0
   15.8790   68.9873   -6.9399 H   0  0  0  0  0  0  0  0  0  0  0  0
   17.1462   72.3982   -7.7672 O   0  0  0  0  0  0  0  0  0  0  0  0
   16.6107   73.6424   -5.9330 O   0  0  0  0  0  0  0  0  0  0  0  0
   17.0586   72.6212   -6.4324 C   0  0  0  0  0  0  0  0  0  0  0  0
  1  4  1  0
  1 24  1  0
  1  2  1  1
  1  3  2  0
 25 28  1  0
 25 24  1  0
 25 26  1  1
 25 27  2  0
  6 11  1  0
  6 12  1  0
 29 36  1  0
 29 37  1  0
  9  7  1  6
  7 13  1  0
 10  8  1  1
  8 14  1  0
  4  5  1  0
 36 28  1  6
 33 30  1  1
 30 38  1  0
 34 31  1  1
 31 39  1  0
 35 32  1  6
 32 40  1  0
 41 43  1  0
 15 19  2  0
 42 43  2  0
 16 22  2  0
 12 17  1  1
 17 19  1  0
 17 20  1  0
 18 19  1  0
 18 22  1  0
 18 23  1  0
  9 10  1  0
  9 11  1  0
 10 12  1  0
 11  5  1  1
 33 34  1  0
 33 35  1  0
 34 36  1  0
 35 37  1  0
 37 43  1  6
 20 21  2  0
 21 22  1  0
M  CHG  3   2  -1  26  -1  41  -1
M  END
>  <COMPND>  (109) 
    udp_gluA.pdb 

>  <AUTHOR>  (109) 
    GENERATED BY OPEN BABEL 3.1.1

>  <MASTER>  (109) 
        0    0    0    0    0    0    0    0   56    0   56    0

>  <minimizedAffinity>  (109) 
-7.35056

>  <CNNscore>  (109) 
0.3551541567

>  <CNNaffinity>  (109) 
4.0099558830

>  <CNN_VS>  (109) 
1.4241524935

>  <CNNaffinity_variance>  (109) 
0.0930039063

$$$$
110
     RDKit          3D

 43 45  0  0  0  0  0  0  0  0999 V2000
   17.7541   74.3076   -0.1727 P   0  0  2  0  0  0  0  0  0  0  0  0
   18.4749   75.7565   -0.1765 O   0  0  0  0  0  0  0  0  0  0  0  0
   16.3998   74.2753    0.4728 O   0  0  0  0  0  0  0  0  0  0  0  0
   18.8640   73.3232    0.4732 O   0  0  0  0  0  0  0  0  0  0  0  0
   20.2309   73.6690    0.3451 C   0  0  0  0  0  0  0  0  0  0  0  0
   22.2606   72.4367   -0.0280 O   0  0  0  0  0  0  0  0  0  0  0  0
   20.6047   70.5764   -1.6979 O   0  0  0  0  0  0  0  0  0  0  0  0
   20.8493   69.2114    0.6501 O   0  0  0  0  0  0  0  0  0  0  0  0
   20.2542   71.2695   -0.4998 C   0  0  1  0  0  0  0  0  0  0  0  0
   20.9209   70.6211    0.6949 C   0  0  2  0  0  0  0  0  0  0  0  0
   20.9234   72.6366   -0.5352 C   0  0  1  0  0  0  0  0  0  0  0  0
   22.3448   71.1382    0.5806 C   0  0  2  0  0  0  0  0  0  0  0  0
   20.1886   69.6997   -1.6982 H   0  0  0  0  0  0  0  0  0  0  0  0
   19.9229   68.9321    0.7268 H   0  0  0  0  0  0  0  0  0  0  0  0
   23.7359   69.0493    1.8757 O   0  0  0  0  0  0  0  0  0  0  0  0
   24.7698   71.7275    5.4816 O   0  0  0  0  0  0  0  0  0  0  0  0
   22.9870   71.2623    1.8585 N   0  0  0  0  0  0  0  0  0  0  0  0
   24.2486   70.3849    3.6709 N   0  0  0  0  0  0  0  0  0  0  0  0
   23.6592   70.1517    2.4214 C   0  0  0  0  0  0  0  0  0  0  0  0
   22.9488   72.4730    2.5393 C   0  0  0  0  0  0  0  0  0  0  0  0
   23.5155   72.6801    3.7296 C   0  0  0  0  0  0  0  0  0  0  0  0
   24.2368   71.5708    4.3872 C   0  0  0  0  0  0  0  0  0  0  0  0
   24.7206   69.6259    4.0837 H   0  0  0  0  0  0  0  0  0  0  0  0
   17.7654   73.8926   -1.7349 O   0  0  0  0  0  0  0  0  0  0  0  0
   16.8174   74.3506   -2.9617 P   0  0  2  0  0  0  0  0  0  0  0  0
   17.7440   75.4009   -3.7732 O   0  0  0  0  0  0  0  0  0  0  0  0
   15.4854   74.8993   -2.5390 O   0  0  0  0  0  0  0  0  0  0  0  0
   16.7343   73.0557   -3.9203 O   0  0  0  0  0  0  0  0  0  0  0  0
   18.2049   71.2066   -3.7557 O   0  0  0  0  0  0  0  0  0  0  0  0
   16.8850   70.8862   -7.6573 O   0  0  0  0  0  0  0  0  0  0  0  0
   17.5720   73.4948   -6.5359 O   0  0  0  0  0  0  0  0  0  0  0  0
   15.8523   69.0929   -5.6156 O   0  0  0  0  0  0  0  0  0  0  0  0
   16.7874   71.2143   -6.2714 C   0  0  2  0  0  0  0  0  0  0  0  0
   17.8564   72.2472   -5.9136 C   0  0  2  0  0  0  0  0  0  0  0  0
   16.9971   69.9304   -5.4655 C   0  0  1  0  0  0  0  0  0  0  0  0
   17.9343   72.4520   -4.4001 C   0  0  1  0  0  0  0  0  0  0  0  0
   17.1915   70.2294   -3.9819 C   0  0  1  0  0  0  0  0  0  0  0  0
   16.7551   71.6870   -8.1894 H   0  0  0  0  0  0  0  0  0  0  0  0
   17.5208   73.3722   -7.4965 H   0  0  0  0  0  0  0  0  0  0  0  0
   15.7172   68.8952   -6.5556 H   0  0  0  0  0  0  0  0  0  0  0  0
   17.8231   69.2759   -1.9341 O   0  0  0  0  0  0  0  0  0  0  0  0
   18.0092   67.9673   -3.7921 O   0  0  0  0  0  0  0  0  0  0  0  0
   17.7164   69.0292   -3.2632 C   0  0  0  0  0  0  0  0  0  0  0  0
  1  4  1  0
  1 24  1  0
  1  2  1  6
  1  3  2  0
 25 28  1  0
 25 24  1  0
 25 26  1  6
 25 27  2  0
  6 11  1  0
  6 12  1  0
 29 36  1  0
 29 37  1  0
  9  7  1  6
  7 13  1  0
 10  8  1  6
  8 14  1  0
  4  5  1  0
 36 28  1  1
 33 30  1  6
 30 38  1  0
 34 31  1  6
 31 39  1  0
 35 32  1  1
 32 40  1  0
 41 43  1  0
 15 19  2  0
 42 43  2  0
 16 22  2  0
 12 17  1  1
 17 19  1  0
 17 20  1  0
 18 19  1  0
 18 22  1  0
 18 23  1  0
  9 10  1  0
  9 11  1  0
 10 12  1  0
 11  5  1  1
 33 34  1  0
 33 35  1  0
 34 36  1  0
 35 37  1  0
 37 43  1  1
 20 21  2  0
 21 22  1  0
M  CHG  3   2  -1  26  -1  41  -1
M  END
>  <COMPND>  (110) 
    udp_gluA.pdb 

>  <AUTHOR>  (110) 
    GENERATED BY OPEN BABEL 3.1.1

>  <MASTER>  (110) 
        0    0    0    0    0    0    0    0   56    0   56    0

>  <minimizedAffinity>  (110) 
-7.57008

>  <CNNscore>  (110) 
0.3531888127

>  <CNNaffinity>  (110) 
3.9829926491

>  <CNN_VS>  (110) 
1.4067484140

>  <CNNaffinity_variance>  (110) 
0.3080474436

$$$$
111
     RDKit          3D

 43 45  0  0  0  0  0  0  0  0999 V2000
   19.0106   71.1599   -1.5118 P   0  0  2  0  0  0  0  0  0  0  0  0
   18.4964   69.6299   -1.6292 O   0  0  0  0  0  0  0  0  0  0  0  0
   18.3526   71.9684   -0.4324 O   0  0  0  0  0  0  0  0  0  0  0  0
   18.8569   71.7378   -3.0152 O   0  0  0  0  0  0  0  0  0  0  0  0
   18.7371   70.8175   -4.0844 C   0  0  0  0  0  0  0  0  0  0  0  0
   16.6166   71.8861   -4.4572 O   0  0  0  0  0  0  0  0  0  0  0  0
   15.7357   69.2943   -5.6812 O   0  0  0  0  0  0  0  0  0  0  0  0
   16.2801   70.8310   -7.8671 O   0  0  0  0  0  0  0  0  0  0  0  0
   17.0136   69.9292   -5.7315 C   0  0  1  0  0  0  0  0  0  0  0  0
   16.9722   71.1168   -6.6697 C   0  0  2  0  0  0  0  0  0  0  0  0
   17.2604   70.5955   -4.3849 C   0  0  1  0  0  0  0  0  0  0  0  0
   16.2683   72.1633   -5.8229 C   0  0  2  0  0  0  0  0  0  0  0  0
   15.5557   68.8615   -6.5309 H   0  0  0  0  0  0  0  0  0  0  0  0
   16.7683   70.1600   -8.3705 H   0  0  0  0  0  0  0  0  0  0  0  0
   15.0288   73.7847   -7.7751 O   0  0  0  0  0  0  0  0  0  0  0  0
   17.9358   77.2735   -6.9864 O   0  0  0  0  0  0  0  0  0  0  0  0
   16.6808   73.4994   -6.1480 N   0  0  0  0  0  0  0  0  0  0  0  0
   16.4784   75.5204   -7.3811 N   0  0  0  0  0  0  0  0  0  0  0  0
   15.9906   74.2284   -7.1450 C   0  0  0  0  0  0  0  0  0  0  0  0
   17.7561   74.0747   -5.4817 C   0  0  0  0  0  0  0  0  0  0  0  0
   18.2095   75.3074   -5.7177 C   0  0  0  0  0  0  0  0  0  0  0  0
   17.5445   76.1355   -6.7449 C   0  0  0  0  0  0  0  0  0  0  0  0
   16.0152   76.0465   -8.0725 H   0  0  0  0  0  0  0  0  0  0  0  0
   20.6101   70.9936   -1.3482 O   0  0  0  0  0  0  0  0  0  0  0  0
   21.4999   70.4507   -0.1124 P   0  0  2  0  0  0  0  0  0  0  0  0
   22.9523   70.2033   -0.7831 O   0  0  0  0  0  0  0  0  0  0  0  0
   20.9251   69.2484    0.5789 O   0  0  0  0  0  0  0  0  0  0  0  0
   21.7050   71.7364    0.8401 O   0  0  0  0  0  0  0  0  0  0  0  0
   22.2242   71.2546    3.1001 O   0  0  0  0  0  0  0  0  0  0  0  0
   21.4251   75.3045    3.2661 O   0  0  0  0  0  0  0  0  0  0  0  0
   19.7450   73.5279    1.6675 O   0  0  0  0  0  0  0  0  0  0  0  0
   24.1698   74.3531    3.3767 O   0  0  0  0  0  0  0  0  0  0  0  0
   21.8811   74.0895    2.6713 C   0  0  2  0  0  0  0  0  0  0  0  0
   20.7266   73.0898    2.5999 C   0  0  2  0  0  0  0  0  0  0  0  0
   23.0131   73.5342    3.5385 C   0  0  1  0  0  0  0  0  0  0  0  0
   21.2263   71.7057    2.1835 C   0  0  1  0  0  0  0  0  0  0  0  0
   23.3685   72.1042    3.1420 C   0  0  1  0  0  0  0  0  0  0  0  0
   20.7052   75.6759    2.7320 H   0  0  0  0  0  0  0  0  0  0  0  0
   19.4237   74.4058    1.9255 H   0  0  0  0  0  0  0  0  0  0  0  0
   23.9570   75.2661    3.6257 H   0  0  0  0  0  0  0  0  0  0  0  0
   24.8677   70.3813    3.6763 O   0  0  0  0  0  0  0  0  0  0  0  0
   24.3386   71.8518    5.3367 O   0  0  0  0  0  0  0  0  0  0  0  0
   24.2251   71.4621    4.1842 C   0  0  0  0  0  0  0  0  0  0  0  0
  1  4  1  0
  1 24  1  0
  1  2  1  6
  1  3  2  0
 25 28  1  0
 25 24  1  0
 25 26  1  6
 25 27  2  0
  6 11  1  0
  6 12  1  0
 29 36  1  0
 29 37  1  0
  9  7  1  1
  7 13  1  0
 10  8  1  6
  8 14  1  0
  4  5  1  0
 36 28  1  6
 33 30  1  1
 30 38  1  0
 34 31  1  6
 31 39  1  0
 35 32  1  6
 32 40  1  0
 41 43  1  0
 15 19  2  0
 42 43  2  0
 16 22  2  0
 12 17  1  6
 17 19  1  0
 17 20  1  0
 18 19  1  0
 18 22  1  0
 18 23  1  0
  9 10  1  0
  9 11  1  0
 10 12  1  0
 11  5  1  6
 33 34  1  0
 33 35  1  0
 34 36  1  0
 35 37  1  0
 37 43  1  1
 20 21  2  0
 21 22  1  0
M  CHG  3   2  -1  26  -1  41  -1
M  END
>  <COMPND>  (111) 
    udp_gluA.pdb 

>  <AUTHOR>  (111) 
    GENERATED BY OPEN BABEL 3.1.1

>  <MASTER>  (111) 
        0    0    0    0    0    0    0    0   56    0   56    0

>  <minimizedAffinity>  (111) 
-7.44415

>  <CNNscore>  (111) 
0.3451617658

>  <CNNaffinity>  (111) 
4.0343756676

>  <CNN_VS>  (111) 
1.3925122023

>  <CNNaffinity_variance>  (111) 
0.0616186149

$$$$
112
     RDKit          3D

 43 45  0  0  0  0  0  0  0  0999 V2000
   21.2860   70.4231    0.1257 P   0  0  2  0  0  0  0  0  0  0  0  0
   21.1500   68.9043    0.6675 O   0  0  0  0  0  0  0  0  0  0  0  0
   22.6928   70.9344    0.0197 O   0  0  0  0  0  0  0  0  0  0  0  0
   20.3017   71.2696    1.0914 O   0  0  0  0  0  0  0  0  0  0  0  0
   19.9899   72.6042    0.7364 C   0  0  0  0  0  0  0  0  0  0  0  0
   19.8437   72.7902    3.1285 O   0  0  0  0  0  0  0  0  0  0  0  0
   18.3226   75.3300    2.6518 O   0  0  0  0  0  0  0  0  0  0  0  0
   20.8165   76.2377    3.2783 O   0  0  0  0  0  0  0  0  0  0  0  0
   19.4197   74.7829    1.9201 C   0  0  1  0  0  0  0  0  0  0  0  0
   20.7067   74.9544    2.6988 C   0  0  2  0  0  0  0  0  0  0  0  0
   19.2607   73.2688    1.8970 C   0  0  1  0  0  0  0  0  0  0  0  0
   20.5963   73.8513    3.7374 C   0  0  2  0  0  0  0  0  0  0  0  0
   18.4023   76.2967    2.6802 H   0  0  0  0  0  0  0  0  0  0  0  0
   20.8842   76.9046    2.5765 H   0  0  0  0  0  0  0  0  0  0  0  0
   22.1672   74.9454    5.8139 O   0  0  0  0  0  0  0  0  0  0  0  0
   25.5005   71.8251    5.1837 O   0  0  0  0  0  0  0  0  0  0  0  0
   21.8787   73.3445    4.1369 N   0  0  0  0  0  0  0  0  0  0  0  0
   23.8263   73.3909    5.4974 N   0  0  0  0  0  0  0  0  0  0  0  0
   22.5862   73.9672    5.1922 C   0  0  0  0  0  0  0  0  0  0  0  0
   22.4218   72.2424    3.4878 C   0  0  0  0  0  0  0  0  0  0  0  0
   23.6050   71.7043    3.7900 C   0  0  0  0  0  0  0  0  0  0  0  0
   24.4085   72.2957    4.8799 C   0  0  0  0  0  0  0  0  0  0  0  0
   24.3384   73.8085    6.2273 H   0  0  0  0  0  0  0  0  0  0  0  0
   20.4768   70.3833   -1.2730 O   0  0  0  0  0  0  0  0  0  0  0  0
   20.8474   70.9756   -2.7309 P   0  0  2  0  0  0  0  0  0  0  0  0
   22.0088   69.9756   -3.2520 O   0  0  0  0  0  0  0  0  0  0  0  0
   21.2363   72.4256   -2.7258 O   0  0  0  0  0  0  0  0  0  0  0  0
   19.5684   70.6287   -3.6508 O   0  0  0  0  0  0  0  0  0  0  0  0
   17.8124   72.0818   -4.2944 O   0  0  0  0  0  0  0  0  0  0  0  0
   15.9124   68.4133   -4.2994 O   0  0  0  0  0  0  0  0  0  0  0  0
   17.7744   69.1137   -2.1601 O   0  0  0  0  0  0  0  0  0  0  0  0
   16.6601   69.6727   -6.8105 O   0  0  0  0  0  0  0  0  0  0  0  0
   17.0104   69.3123   -4.4542 C   0  0  2  0  0  0  0  0  0  0  0  0
   17.2763   70.0282   -3.1297 C   0  0  2  0  0  0  0  0  0  0  0  0
   16.6433   70.3243   -5.5418 C   0  0  1  0  0  0  0  0  0  0  0  0
   18.2884   71.1600   -3.3130 C   0  0  1  0  0  0  0  0  0  0  0  0
   17.6312   71.4868   -5.5775 C   0  0  1  0  0  0  0  0  0  0  0  0
   16.1229   67.7607   -3.6129 H   0  0  0  0  0  0  0  0  0  0  0  0
   17.1373   68.3927   -2.0389 H   0  0  0  0  0  0  0  0  0  0  0  0
   16.0355   68.9306   -6.8011 H   0  0  0  0  0  0  0  0  0  0  0  0
   16.6170   73.6016   -5.5994 O   0  0  0  0  0  0  0  0  0  0  0  0
   17.0845   72.6513   -7.6187 O   0  0  0  0  0  0  0  0  0  0  0  0
   17.0941   72.6144   -6.3974 C   0  0  0  0  0  0  0  0  0  0  0  0
  1  4  1  0
  1 24  1  0
  1  2  1  1
  1  3  2  0
 25 28  1  0
 25 24  1  0
 25 26  1  6
 25 27  2  0
  6 11  1  0
  6 12  1  0
 29 36  1  0
 29 37  1  0
  9  7  1  1
  7 13  1  0
 10  8  1  1
  8 14  1  0
  4  5  1  0
 36 28  1  6
 33 30  1  1
 30 38  1  0
 34 31  1  1
 31 39  1  0
 35 32  1  6
 32 40  1  0
 41 43  1  0
 15 19  2  0
 42 43  2  0
 16 22  2  0
 12 17  1  6
 17 19  1  0
 17 20  1  0
 18 19  1  0
 18 22  1  0
 18 23  1  0
  9 10  1  0
  9 11  1  0
 10 12  1  0
 11  5  1  6
 33 34  1  0
 33 35  1  0
 34 36  1  0
 35 37  1  0
 37 43  1  6
 20 21  2  0
 21 22  1  0
M  CHG  3   2  -1  26  -1  41  -1
M  END
>  <COMPND>  (112) 
    udp_gluA.pdb 

>  <AUTHOR>  (112) 
    GENERATED BY OPEN BABEL 3.1.1

>  <MASTER>  (112) 
        0    0    0    0    0    0    0    0   56    0   56    0

>  <minimizedAffinity>  (112) 
-7.28369

>  <CNNscore>  (112) 
0.3345133960

>  <CNNaffinity>  (112) 
4.0626840591

>  <CNN_VS>  (112) 
1.3590222597

>  <CNNaffinity_variance>  (112) 
0.1326374859

$$$$
113
     RDKit          3D

 43 45  0  0  0  0  0  0  0  0999 V2000
   23.1744   73.5370   -4.5140 P   0  0  2  0  0  0  0  0  0  0  0  0
   24.2459   74.6809   -4.9170 O   0  0  0  0  0  0  0  0  0  0  0  0
   23.7715   72.2082   -4.1541 O   0  0  0  0  0  0  0  0  0  0  0  0
   22.1326   73.5271   -5.7519 O   0  0  0  0  0  0  0  0  0  0  0  0
   20.9175   72.8152   -5.6073 C   0  0  0  0  0  0  0  0  0  0  0  0
   18.7146   72.8743   -6.5674 O   0  0  0  0  0  0  0  0  0  0  0  0
   18.4884   75.6331   -5.4144 O   0  0  0  0  0  0  0  0  0  0  0  0
   17.0797   74.1250   -3.6320 O   0  0  0  0  0  0  0  0  0  0  0  0
   19.1372   74.4799   -4.8780 C   0  0  1  0  0  0  0  0  0  0  0  0
   18.1110   73.4937   -4.3616 C   0  0  2  0  0  0  0  0  0  0  0  0
   19.7630   73.7124   -6.0345 C   0  0  1  0  0  0  0  0  0  0  0  0
   17.6121   72.8558   -5.6469 C   0  0  2  0  0  0  0  0  0  0  0  0
   18.0809   76.1396   -4.6940 H   0  0  0  0  0  0  0  0  0  0  0  0
   17.4479   74.5150   -2.8231 H   0  0  0  0  0  0  0  0  0  0  0  0
   15.9895   71.4226   -7.4606 O   0  0  0  0  0  0  0  0  0  0  0  0
   16.0401   67.6524   -4.8098 O   0  0  0  0  0  0  0  0  0  0  0  0
   17.1863   71.4983   -5.4555 N   0  0  0  0  0  0  0  0  0  0  0  0
   16.0154   69.5465   -6.1381 N   0  0  0  0  0  0  0  0  0  0  0  0
   16.3720   70.8702   -6.4274 C   0  0  0  0  0  0  0  0  0  0  0  0
   17.5759   70.8031   -4.3171 C   0  0  0  0  0  0  0  0  0  0  0  0
   17.2282   69.5416   -4.0553 C   0  0  0  0  0  0  0  0  0  0  0  0
   16.3777   68.8135   -5.0196 C   0  0  0  0  0  0  0  0  0  0  0  0
   15.4470   69.0890   -6.7991 H   0  0  0  0  0  0  0  0  0  0  0  0
   22.3250   74.2365   -3.3299 O   0  0  0  0  0  0  0  0  0  0  0  0
   22.6223   74.3697   -1.7463 P   0  0  2  0  0  0  0  0  0  0  0  0
   21.4964   75.4195   -1.2457 O   0  0  0  0  0  0  0  0  0  0  0  0
   24.0312   74.7695   -1.4158 O   0  0  0  0  0  0  0  0  0  0  0  0
   22.1645   72.9538   -1.1235 O   0  0  0  0  0  0  0  0  0  0  0  0
   20.1484   73.2315    0.0879 O   0  0  0  0  0  0  0  0  0  0  0  0
   20.9791   69.2379    0.7427 O   0  0  0  0  0  0  0  0  0  0  0  0
   23.1135   71.2301    0.8424 O   0  0  0  0  0  0  0  0  0  0  0  0
   18.8981   70.0065   -1.1360 O   0  0  0  0  0  0  0  0  0  0  0  0
   20.9672   70.4635    0.0107 C   0  0  2  0  0  0  0  0  0  0  0  0
   21.7245   71.5353    0.7950 C   0  0  2  0  0  0  0  0  0  0  0  0
   19.5085   70.8810   -0.1888 C   0  0  1  0  0  0  0  0  0  0  0  0
   21.5388   72.9131    0.1578 C   0  0  1  0  0  0  0  0  0  0  0  0
   19.4046   72.3119   -0.7084 C   0  0  1  0  0  0  0  0  0  0  0  0
   21.8961   68.9530    0.8816 H   0  0  0  0  0  0  0  0  0  0  0  0
   23.2387   70.3570    1.2453 H   0  0  0  0  0  0  0  0  0  0  0  0
   18.9575   69.0923   -0.8173 H   0  0  0  0  0  0  0  0  0  0  0  0
   17.9547   73.8946    0.2374 O   0  0  0  0  0  0  0  0  0  0  0  0
   17.0334   72.3403   -1.1535 O   0  0  0  0  0  0  0  0  0  0  0  0
   18.0047   72.8198   -0.5879 C   0  0  0  0  0  0  0  0  0  0  0  0
  1  4  1  0
  1 24  1  0
  1  2  1  6
  1  3  2  0
 25 28  1  0
 25 24  1  0
 25 26  1  1
 25 27  2  0
  6 11  1  0
  6 12  1  0
 29 36  1  0
 29 37  1  0
  9  7  1  6
  7 13  1  0
 10  8  1  6
  8 14  1  0
  4  5  1  0
 36 28  1  6
 33 30  1  1
 30 38  1  0
 34 31  1  6
 31 39  1  0
 35 32  1  6
 32 40  1  0
 41 43  1  0
 15 19  2  0
 42 43  2  0
 16 22  2  0
 12 17  1  1
 17 19  1  0
 17 20  1  0
 18 19  1  0
 18 22  1  0
 18 23  1  0
  9 10  1  0
  9 11  1  0
 10 12  1  0
 11  5  1  1
 33 34  1  0
 33 35  1  0
 34 36  1  0
 35 37  1  0
 37 43  1  1
 20 21  2  0
 21 22  1  0
M  CHG  3   2  -1  26  -1  41  -1
M  END
>  <COMPND>  (113) 
    udp_gluA.pdb 

>  <AUTHOR>  (113) 
    GENERATED BY OPEN BABEL 3.1.1

>  <MASTER>  (113) 
        0    0    0    0    0    0    0    0   56    0   56    0

>  <minimizedAffinity>  (113) 
-6.77051

>  <CNNscore>  (113) 
0.3298198581

>  <CNNaffinity>  (113) 
3.7257537842

>  <CNN_VS>  (113) 
1.2288275957

>  <CNNaffinity_variance>  (113) 
0.8086286783

$$$$
114
     RDKit          3D

 43 45  0  0  0  0  0  0  0  0999 V2000
   19.7679   74.0489   -1.4107 P   0  0  2  0  0  0  0  0  0  0  0  0
   19.5479   72.4694   -1.1361 O   0  0  0  0  0  0  0  0  0  0  0  0
   18.5223   74.8831   -1.3443 O   0  0  0  0  0  0  0  0  0  0  0  0
   20.5677   74.0911   -2.8166 O   0  0  0  0  0  0  0  0  0  0  0  0
   20.5684   72.9317   -3.6291 C   0  0  0  0  0  0  0  0  0  0  0  0
   19.8546   72.1789   -5.7974 O   0  0  0  0  0  0  0  0  0  0  0  0
   19.4443   75.0739   -6.4620 O   0  0  0  0  0  0  0  0  0  0  0  0
   16.9096   74.2192   -5.9317 O   0  0  0  0  0  0  0  0  0  0  0  0
   19.2302   74.3913   -5.2264 C   0  0  1  0  0  0  0  0  0  0  0  0
   17.9797   73.5417   -5.3068 C   0  0  2  0  0  0  0  0  0  0  0  0
   20.3208   73.3396   -5.0757 C   0  0  1  0  0  0  0  0  0  0  0  0
   18.4623   72.3452   -6.1088 C   0  0  2  0  0  0  0  0  0  0  0  0
   18.7594   75.7511   -6.5805 H   0  0  0  0  0  0  0  0  0  0  0  0
   16.6387   74.9720   -5.3823 H   0  0  0  0  0  0  0  0  0  0  0  0
   16.1386   71.4282   -7.4264 O   0  0  0  0  0  0  0  0  0  0  0  0
   15.8546   67.7051   -4.7243 O   0  0  0  0  0  0  0  0  0  0  0  0
   17.7608   71.1393   -5.7701 N   0  0  0  0  0  0  0  0  0  0  0  0
   15.9988   69.5752   -6.0787 N   0  0  0  0  0  0  0  0  0  0  0  0
   16.6032   70.7689   -6.4946 C   0  0  0  0  0  0  0  0  0  0  0  0
   18.2207   70.3375   -4.7325 C   0  0  0  0  0  0  0  0  0  0  0  0
   17.6340   69.2025   -4.3477 C   0  0  0  0  0  0  0  0  0  0  0  0
   16.4186   68.7445   -5.0524 C   0  0  0  0  0  0  0  0  0  0  0  0
   15.1901   69.2977   -6.5668 H   0  0  0  0  0  0  0  0  0  0  0  0
   20.9048   74.4496   -0.3337 O   0  0  0  0  0  0  0  0  0  0  0  0
   22.4797   74.0900   -0.2694 P   0  0  2  0  0  0  0  0  0  0  0  0
   23.1918   75.5437   -0.2831 O   0  0  0  0  0  0  0  0  0  0  0  0
   22.9446   73.1634   -1.3552 O   0  0  0  0  0  0  0  0  0  0  0  0
   22.7123   73.5368    1.2281 O   0  0  0  0  0  0  0  0  0  0  0  0
   21.6369   71.4315    1.0856 O   0  0  0  0  0  0  0  0  0  0  0  0
   23.6324   71.1139    4.6890 O   0  0  0  0  0  0  0  0  0  0  0  0
   22.2565   73.5891    3.9713 O   0  0  0  0  0  0  0  0  0  0  0  0
   24.6452   69.7426    2.3344 O   0  0  0  0  0  0  0  0  0  0  0  0
   23.4271   71.5576    3.3478 C   0  0  2  0  0  0  0  0  0  0  0  0
   22.1278   72.3593    3.2671 C   0  0  2  0  0  0  0  0  0  0  0  0
   23.3469   70.3222    2.4481 C   0  0  1  0  0  0  0  0  0  0  0  0
   21.7564   72.6545    1.8133 C   0  0  1  0  0  0  0  0  0  0  0  0
   22.8492   70.6818    1.0511 C   0  0  1  0  0  0  0  0  0  0  0  0
   23.6865   71.8821    5.2792 H   0  0  0  0  0  0  0  0  0  0  0  0
   22.4924   73.4093    4.8946 H   0  0  0  0  0  0  0  0  0  0  0  0
   24.9736   69.5093    3.2168 H   0  0  0  0  0  0  0  0  0  0  0  0
   21.2914   69.6447   -0.3628 O   0  0  0  0  0  0  0  0  0  0  0  0
   23.1083   68.4166    0.2616 O   0  0  0  0  0  0  0  0  0  0  0  0
   22.4627   69.4535    0.2933 C   0  0  0  0  0  0  0  0  0  0  0  0
  1  4  1  0
  1 24  1  0
  1  2  1  1
  1  3  2  0
 25 28  1  0
 25 24  1  0
 25 26  1  1
 25 27  2  0
  6 11  1  0
  6 12  1  0
 29 36  1  0
 29 37  1  0
  9  7  1  6
  7 13  1  0
 10  8  1  6
  8 14  1  0
  4  5  1  0
 36 28  1  6
 33 30  1  1
 30 38  1  0
 34 31  1  1
 31 39  1  0
 35 32  1  6
 32 40  1  0
 41 43  1  0
 15 19  2  0
 42 43  2  0
 16 22  2  0
 12 17  1  1
 17 19  1  0
 17 20  1  0
 18 19  1  0
 18 22  1  0
 18 23  1  0
  9 10  1  0
  9 11  1  0
 10 12  1  0
 11  5  1  1
 33 34  1  0
 33 35  1  0
 34 36  1  0
 35 37  1  0
 37 43  1  6
 20 21  2  0
 21 22  1  0
M  CHG  3   2  -1  26  -1  41  -1
M  END
>  <COMPND>  (114) 
    udp_gluA.pdb 

>  <AUTHOR>  (114) 
    GENERATED BY OPEN BABEL 3.1.1

>  <MASTER>  (114) 
        0    0    0    0    0    0    0    0   56    0   56    0

>  <minimizedAffinity>  (114) 
-7.03969

>  <CNNscore>  (114) 
0.3272632658

>  <CNNaffinity>  (114) 
3.9725811481

>  <CNN_VS>  (114) 
1.3000798225

>  <CNNaffinity_variance>  (114) 
0.1948530823

$$$$
115
     RDKit          3D

 43 45  0  0  0  0  0  0  0  0999 V2000
   22.9057   73.0436   -3.4338 P   0  0  2  0  0  0  0  0  0  0  0  0
   23.6241   71.6415   -3.8036 O   0  0  0  0  0  0  0  0  0  0  0  0
   23.7690   74.2602   -3.5968 O   0  0  0  0  0  0  0  0  0  0  0  0
   22.3129   72.7966   -1.9487 O   0  0  0  0  0  0  0  0  0  0  0  0
   21.1022   73.4363   -1.5889 C   0  0  0  0  0  0  0  0  0  0  0  0
   20.7120   71.1760   -0.8700 O   0  0  0  0  0  0  0  0  0  0  0  0
   17.8763   72.0186   -0.3798 O   0  0  0  0  0  0  0  0  0  0  0  0
   18.9501   72.0540    2.1265 O   0  0  0  0  0  0  0  0  0  0  0  0
   19.0834   72.7588   -0.1968 C   0  0  1  0  0  0  0  0  0  0  0  0
   19.8178   72.2682    1.0329 C   0  0  2  0  0  0  0  0  0  0  0  0
   20.0433   72.3761   -1.3150 C   0  0  1  0  0  0  0  0  0  0  0  0
   20.4523   70.9829    0.5295 C   0  0  2  0  0  0  0  0  0  0  0  0
   17.2472   72.2464    0.3230 H   0  0  0  0  0  0  0  0  0  0  0  0
   18.5720   72.9018    2.4100 H   0  0  0  0  0  0  0  0  0  0  0  0
   21.9529   68.6247    0.1249 O   0  0  0  0  0  0  0  0  0  0  0  0
   25.1773   69.9409    3.1440 O   0  0  0  0  0  0  0  0  0  0  0  0
   21.6876   70.6837    1.1967 N   0  0  0  0  0  0  0  0  0  0  0  0
   23.5569   69.2820    1.6297 N   0  0  0  0  0  0  0  0  0  0  0  0
   22.3624   69.4707    0.9221 C   0  0  0  0  0  0  0  0  0  0  0  0
   22.2192   71.5865    2.1096 C   0  0  0  0  0  0  0  0  0  0  0  0
   23.3588   71.3928    2.7763 C   0  0  0  0  0  0  0  0  0  0  0  0
   24.1252   70.1502    2.5478 C   0  0  0  0  0  0  0  0  0  0  0  0
   24.0435   68.4438    1.4568 H   0  0  0  0  0  0  0  0  0  0  0  0
   21.5816   73.0285   -4.3608 O   0  0  0  0  0  0  0  0  0  0  0  0
   21.3443   73.5252   -5.8808 P   0  0  2  0  0  0  0  0  0  0  0  0
   22.6028   72.8915   -6.6777 O   0  0  0  0  0  0  0  0  0  0  0  0
   21.2048   75.0128   -6.0279 O   0  0  0  0  0  0  0  0  0  0  0  0
   20.0700   72.6793   -6.3937 O   0  0  0  0  0  0  0  0  0  0  0  0
   19.1209   70.6314   -5.6762 O   0  0  0  0  0  0  0  0  0  0  0  0
   18.5485   70.4371   -9.7631 O   0  0  0  0  0  0  0  0  0  0  0  0
   21.0694   71.4251   -8.6662 O   0  0  0  0  0  0  0  0  0  0  0  0
   16.3155   71.0465   -8.0042 O   0  0  0  0  0  0  0  0  0  0  0  0
   18.6744   71.0784   -8.4939 C   0  0  2  0  0  0  0  0  0  0  0  0
   20.0538   70.7816   -7.9052 C   0  0  2  0  0  0  0  0  0  0  0  0
   17.5763   70.5336   -7.5777 C   0  0  1  0  0  0  0  0  0  0  0  0
   20.1429   71.2560   -6.4540 C   0  0  1  0  0  0  0  0  0  0  0  0
   17.8054   70.9468   -6.1268 C   0  0  1  0  0  0  0  0  0  0  0  0
   19.2363   70.7677  -10.3622 H   0  0  0  0  0  0  0  0  0  0  0  0
   21.0185   71.1290   -9.5882 H   0  0  0  0  0  0  0  0  0  0  0  0
   16.1575   70.7906   -8.9264 H   0  0  0  0  0  0  0  0  0  0  0  0
   17.0167   70.6339   -3.9401 O   0  0  0  0  0  0  0  0  0  0  0  0
   16.2436   69.2041   -5.5392 O   0  0  0  0  0  0  0  0  0  0  0  0
   16.9363   70.1538   -5.2058 C   0  0  0  0  0  0  0  0  0  0  0  0
  1  4  1  0
  1 24  1  0
  1  2  1  6
  1  3  2  0
 25 28  1  0
 25 24  1  0
 25 26  1  6
 25 27  2  0
  6 11  1  0
  6 12  1  0
 29 36  1  0
 29 37  1  0
  9  7  1  6
  7 13  1  0
 10  8  1  1
  8 14  1  0
  4  5  1  0
 36 28  1  6
 33 30  1  6
 30 38  1  0
 34 31  1  6
 31 39  1  0
 35 32  1  6
 32 40  1  0
 41 43  1  0
 15 19  2  0
 42 43  2  0
 16 22  2  0
 12 17  1  1
 17 19  1  0
 17 20  1  0
 18 19  1  0
 18 22  1  0
 18 23  1  0
  9 10  1  0
  9 11  1  0
 10 12  1  0
 11  5  1  1
 33 34  1  0
 33 35  1  0
 34 36  1  0
 35 37  1  0
 37 43  1  1
 20 21  2  0
 21 22  1  0
M  CHG  3   2  -1  26  -1  41  -1
M  END
>  <COMPND>  (115) 
    udp_gluA.pdb 

>  <AUTHOR>  (115) 
    GENERATED BY OPEN BABEL 3.1.1

>  <MASTER>  (115) 
        0    0    0    0    0    0    0    0   56    0   56    0

>  <minimizedAffinity>  (115) 
-8.37417

>  <CNNscore>  (115) 
0.3149632514

>  <CNNaffinity>  (115) 
4.0662827492

>  <CNN_VS>  (115) 
1.2807296515

>  <CNNaffinity_variance>  (115) 
0.3385990858

$$$$
116
     RDKit          3D

 43 45  0  0  0  0  0  0  0  0999 V2000
   22.1268   73.6736   -2.7373 P   0  0  2  0  0  0  0  0  0  0  0  0
   22.6066   73.1948   -4.2068 O   0  0  0  0  0  0  0  0  0  0  0  0
   22.9942   74.7170   -2.0964 O   0  0  0  0  0  0  0  0  0  0  0  0
   21.9643   72.2914   -1.9121 O   0  0  0  0  0  0  0  0  0  0  0  0
   22.9096   71.9920   -0.9016 C   0  0  0  0  0  0  0  0  0  0  0  0
   23.1922   70.7206    1.1187 O   0  0  0  0  0  0  0  0  0  0  0  0
   20.4495   69.6280    0.5941 O   0  0  0  0  0  0  0  0  0  0  0  0
   19.9816   71.5238    2.4975 O   0  0  0  0  0  0  0  0  0  0  0  0
   20.9619   70.9382    0.3508 C   0  0  1  0  0  0  0  0  0  0  0  0
   21.1007   71.6969    1.6536 C   0  0  2  0  0  0  0  0  0  0  0  0
   22.4117   70.8005   -0.0937 C   0  0  1  0  0  0  0  0  0  0  0  0
   22.3696   71.0966    2.2346 C   0  0  2  0  0  0  0  0  0  0  0  0
   19.5241   69.6902    0.8795 H   0  0  0  0  0  0  0  0  0  0  0  0
   19.1997   71.9230    2.0835 H   0  0  0  0  0  0  0  0  0  0  0  0
   22.3004   73.9002    1.9007 O   0  0  0  0  0  0  0  0  0  0  0  0
   25.1796   74.5755    5.4359 O   0  0  0  0  0  0  0  0  0  0  0  0
   23.0916   72.0286    3.0538 N   0  0  0  0  0  0  0  0  0  0  0  0
   23.7353   74.2338    3.6611 N   0  0  0  0  0  0  0  0  0  0  0  0
   22.9883   73.4171    2.8020 C   0  0  0  0  0  0  0  0  0  0  0  0
   23.8890   71.5655    4.0933 C   0  0  0  0  0  0  0  0  0  0  0  0
   24.5950   72.3563    4.9039 C   0  0  0  0  0  0  0  0  0  0  0  0
   24.5429   73.8199    4.7079 C   0  0  0  0  0  0  0  0  0  0  0  0
   23.6809   75.2043    3.5041 H   0  0  0  0  0  0  0  0  0  0  0  0
   20.5964   74.1304   -2.9861 O   0  0  0  0  0  0  0  0  0  0  0  0
   19.2449   73.2613   -3.1643 P   0  0  2  0  0  0  0  0  0  0  0  0
   18.0714   74.3631   -2.9938 O   0  0  0  0  0  0  0  0  0  0  0  0
   19.1365   72.0925   -2.2283 O   0  0  0  0  0  0  0  0  0  0  0  0
   19.2126   72.8709   -4.7293 O   0  0  0  0  0  0  0  0  0  0  0  0
   18.7651   70.5470   -4.8190 O   0  0  0  0  0  0  0  0  0  0  0  0
   18.8925   71.5340   -8.8287 O   0  0  0  0  0  0  0  0  0  0  0  0
   20.8495   72.6467   -6.9668 O   0  0  0  0  0  0  0  0  0  0  0  0
   16.3389   71.0574   -7.5237 O   0  0  0  0  0  0  0  0  0  0  0  0
   18.6442   71.7529   -7.4400 C   0  0  2  0  0  0  0  0  0  0  0  0
   19.9466   71.5918   -6.6557 C   0  0  2  0  0  0  0  0  0  0  0  0
   17.6125   70.7223   -6.9759 C   0  0  1  0  0  0  0  0  0  0  0  0
   19.6817   71.5910   -5.1495 C   0  0  1  0  0  0  0  0  0  0  0  0
   17.4973   70.6954   -5.4545 C   0  0  1  0  0  0  0  0  0  0  0  0
   19.5455   72.1776   -9.1459 H   0  0  0  0  0  0  0  0  0  0  0  0
   21.0218   72.6533   -7.9211 H   0  0  0  0  0  0  0  0  0  0  0  0
   16.3985   71.0781   -8.4916 H   0  0  0  0  0  0  0  0  0  0  0  0
   16.9004   69.3016   -3.6650 O   0  0  0  0  0  0  0  0  0  0  0  0
   16.0910   68.7537   -5.7250 O   0  0  0  0  0  0  0  0  0  0  0  0
   16.7504   69.4838   -5.0004 C   0  0  0  0  0  0  0  0  0  0  0  0
  1  4  1  0
  1 24  1  0
  1  2  1  6
  1  3  2  0
 25 28  1  0
 25 24  1  0
 25 26  1  6
 25 27  2  0
  6 11  1  0
  6 12  1  0
 29 36  1  0
 29 37  1  0
  9  7  1  1
  7 13  1  0
 10  8  1  1
  8 14  1  0
  4  5  1  0
 36 28  1  6
 33 30  1  6
 30 38  1  0
 34 31  1  1
 31 39  1  0
 35 32  1  6
 32 40  1  0
 41 43  1  0
 15 19  2  0
 42 43  2  0
 16 22  2  0
 12 17  1  1
 17 19  1  0
 17 20  1  0
 18 19  1  0
 18 22  1  0
 18 23  1  0
  9 10  1  0
  9 11  1  0
 10 12  1  0
 11  5  1  1
 33 34  1  0
 33 35  1  0
 34 36  1  0
 35 37  1  0
 37 43  1  6
 20 21  2  0
 21 22  1  0
M  CHG  3   2  -1  26  -1  41  -1
M  END
>  <COMPND>  (116) 
    udp_gluA.pdb 

>  <AUTHOR>  (116) 
    GENERATED BY OPEN BABEL 3.1.1

>  <MASTER>  (116) 
        0    0    0    0    0    0    0    0   56    0   56    0

>  <minimizedAffinity>  (116) 
-7.49073

>  <CNNscore>  (116) 
0.3142087758

>  <CNNaffinity>  (116) 
3.7273325920

>  <CNN_VS>  (116) 
1.1711605787

>  <CNNaffinity_variance>  (116) 
0.3862218261

$$$$
117
     RDKit          3D

 43 45  0  0  0  0  0  0  0  0999 V2000
   22.4015   71.0751   -2.5382 P   0  0  2  0  0  0  0  0  0  0  0  0
   21.8343   72.4156   -1.8308 O   0  0  0  0  0  0  0  0  0  0  0  0
   23.5006   71.3010   -3.5345 O   0  0  0  0  0  0  0  0  0  0  0  0
   21.0747   70.3460   -3.1091 O   0  0  0  0  0  0  0  0  0  0  0  0
   20.0181   71.1514   -3.5985 C   0  0  0  0  0  0  0  0  0  0  0  0
   17.8088   71.9483   -3.0874 O   0  0  0  0  0  0  0  0  0  0  0  0
   17.4038   69.3464   -1.6530 O   0  0  0  0  0  0  0  0  0  0  0  0
   16.1159   68.9286   -4.0200 O   0  0  0  0  0  0  0  0  0  0  0  0
   18.1342   69.6141   -2.8502 C   0  0  1  0  0  0  0  0  0  0  0  0
   17.1820   69.8546   -4.0025 C   0  0  2  0  0  0  0  0  0  0  0  0
   18.8016   70.9742   -2.6991 C   0  0  1  0  0  0  0  0  0  0  0  0
   16.7175   71.2763   -3.7361 C   0  0  2  0  0  0  0  0  0  0  0  0
   16.9684   68.4822   -1.7259 H   0  0  0  0  0  0  0  0  0  0  0  0
   16.4631   68.0390   -4.1934 H   0  0  0  0  0  0  0  0  0  0  0  0
   15.1037   73.5917   -3.8413 O   0  0  0  0  0  0  0  0  0  0  0  0
   15.5158   73.8927   -8.4220 O   0  0  0  0  0  0  0  0  0  0  0  0
   16.3871   71.9800   -4.9430 N   0  0  0  0  0  0  0  0  0  0  0  0
   15.3096   73.7388   -6.1228 N   0  0  0  0  0  0  0  0  0  0  0  0
   15.5685   73.1328   -4.8864 C   0  0  0  0  0  0  0  0  0  0  0  0
   16.8730   71.5287   -6.1641 C   0  0  0  0  0  0  0  0  0  0  0  0
   16.6177   72.1171   -7.3344 C   0  0  0  0  0  0  0  0  0  0  0  0
   15.7697   73.3268   -7.3630 C   0  0  0  0  0  0  0  0  0  0  0  0
   14.7403   74.5420   -6.1089 H   0  0  0  0  0  0  0  0  0  0  0  0
   22.8132   70.1474   -1.2802 O   0  0  0  0  0  0  0  0  0  0  0  0
   22.0834   69.9018    0.1414 P   0  0  2  0  0  0  0  0  0  0  0  0
   22.8612   68.6140    0.7389 O   0  0  0  0  0  0  0  0  0  0  0  0
   20.5941   69.7364    0.0485 O   0  0  0  0  0  0  0  0  0  0  0  0
   22.5639   71.1330    1.0663 O   0  0  0  0  0  0  0  0  0  0  0  0
   22.4985   71.6331    3.3803 O   0  0  0  0  0  0  0  0  0  0  0  0
   21.5173   75.2795    1.7042 O   0  0  0  0  0  0  0  0  0  0  0  0
   20.3841   72.8067    0.6383 O   0  0  0  0  0  0  0  0  0  0  0  0
   24.1762   74.8434    2.7955 O   0  0  0  0  0  0  0  0  0  0  0  0
   22.1617   74.0074    1.7717 C   0  0  2  0  0  0  0  0  0  0  0  0
   21.1075   72.9037    1.8598 C   0  0  2  0  0  0  0  0  0  0  0  0
   23.0520   73.9938    3.0163 C   0  0  1  0  0  0  0  0  0  0  0  0
   21.7548   71.5519    2.1639 C   0  0  1  0  0  0  0  0  0  0  0  0
   23.5567   72.5872    3.3248 C   0  0  1  0  0  0  0  0  0  0  0  0
   20.9459   75.3115    0.9207 H   0  0  0  0  0  0  0  0  0  0  0  0
   19.9709   73.6611    0.4391 H   0  0  0  0  0  0  0  0  0  0  0  0
   23.8686   75.7418    2.5979 H   0  0  0  0  0  0  0  0  0  0  0  0
   24.1677   71.2425    5.1469 O   0  0  0  0  0  0  0  0  0  0  0  0
   24.5399   73.4840    5.3374 O   0  0  0  0  0  0  0  0  0  0  0  0
   24.1394   72.5222    4.6991 C   0  0  0  0  0  0  0  0  0  0  0  0
  1  4  1  0
  1 24  1  0
  1  2  1  1
  1  3  2  0
 25 28  1  0
 25 24  1  0
 25 26  1  1
 25 27  2  0
  6 11  1  0
  6 12  1  0
 29 36  1  0
 29 37  1  0
  9  7  1  1
  7 13  1  0
 10  8  1  1
  8 14  1  0
  4  5  1  0
 36 28  1  6
 33 30  1  1
 30 38  1  0
 34 31  1  6
 31 39  1  0
 35 32  1  6
 32 40  1  0
 41 43  1  0
 15 19  2  0
 42 43  2  0
 16 22  2  0
 12 17  1  6
 17 19  1  0
 17 20  1  0
 18 19  1  0
 18 22  1  0
 18 23  1  0
  9 10  1  0
  9 11  1  0
 10 12  1  0
 11  5  1  6
 33 34  1  0
 33 35  1  0
 34 36  1  0
 35 37  1  0
 37 43  1  1
 20 21  2  0
 21 22  1  0
M  CHG  3   2  -1  26  -1  41  -1
M  END
>  <COMPND>  (117) 
    udp_gluA.pdb 

>  <AUTHOR>  (117) 
    GENERATED BY OPEN BABEL 3.1.1

>  <MASTER>  (117) 
        0    0    0    0    0    0    0    0   56    0   56    0

>  <minimizedAffinity>  (117) 
-7.73325

>  <CNNscore>  (117) 
0.3103149533

>  <CNNaffinity>  (117) 
4.1638488770

>  <CNN_VS>  (117) 
1.2921046019

>  <CNNaffinity_variance>  (117) 
0.0391513333

$$$$
118
     RDKit          3D

 43 45  0  0  0  0  0  0  0  0999 V2000
   19.9442   71.3117   -0.4899 P   0  0  2  0  0  0  0  0  0  0  0  0
   19.0699   72.6589   -0.2911 O   0  0  0  0  0  0  0  0  0  0  0  0
   19.1708   70.1200   -0.9731 O   0  0  0  0  0  0  0  0  0  0  0  0
   20.7038   71.1289    0.9270 O   0  0  0  0  0  0  0  0  0  0  0  0
   21.3193   72.2602    1.5151 C   0  0  0  0  0  0  0  0  0  0  0  0
   23.3728   73.0590    2.4757 O   0  0  0  0  0  0  0  0  0  0  0  0
   24.3620   70.2379    2.2436 O   0  0  0  0  0  0  0  0  0  0  0  0
   23.6921   70.4193    4.8807 O   0  0  0  0  0  0  0  0  0  0  0  0
   23.0519   70.7135    2.5535 C   0  0  1  0  0  0  0  0  0  0  0  0
   23.0113   71.2540    3.9672 C   0  0  2  0  0  0  0  0  0  0  0  0
   22.7990   71.9663    1.7260 C   0  0  1  0  0  0  0  0  0  0  0  0
   23.6772   72.6098    3.8057 C   0  0  2  0  0  0  0  0  0  0  0  0
   24.5464   69.4375    2.7604 H   0  0  0  0  0  0  0  0  0  0  0  0
   23.2292   69.5690    4.9485 H   0  0  0  0  0  0  0  0  0  0  0  0
   25.3178   74.3905    5.2597 O   0  0  0  0  0  0  0  0  0  0  0  0
   21.6935   76.2744    7.3950 O   0  0  0  0  0  0  0  0  0  0  0  0
   23.1886   73.5761    4.7482 N   0  0  0  0  0  0  0  0  0  0  0  0
   23.5112   75.3264    6.3226 N   0  0  0  0  0  0  0  0  0  0  0  0
   24.0971   74.4232    5.4259 C   0  0  0  0  0  0  0  0  0  0  0  0
   21.8244   73.6788    4.9920 C   0  0  0  0  0  0  0  0  0  0  0  0
   21.2809   74.5448    5.8495 C   0  0  0  0  0  0  0  0  0  0  0  0
   22.1607   75.4654    6.5991 C   0  0  0  0  0  0  0  0  0  0  0  0
   24.1239   75.9252    6.8077 H   0  0  0  0  0  0  0  0  0  0  0  0
   21.1297   71.7911   -1.4786 O   0  0  0  0  0  0  0  0  0  0  0  0
   22.2623   70.9471   -2.2651 P   0  0  2  0  0  0  0  0  0  0  0  0
   21.4261   69.7239   -2.9169 O   0  0  0  0  0  0  0  0  0  0  0  0
   23.4176   70.5186   -1.4074 O   0  0  0  0  0  0  0  0  0  0  0  0
   22.6683   71.8767   -3.5194 O   0  0  0  0  0  0  0  0  0  0  0  0
   22.8595   74.1268   -4.2335 O   0  0  0  0  0  0  0  0  0  0  0  0
   20.2308   72.5808   -7.0205 O   0  0  0  0  0  0  0  0  0  0  0  0
   19.9702   71.8870   -4.1948 O   0  0  0  0  0  0  0  0  0  0  0  0
   23.0050   73.0642   -7.7423 O   0  0  0  0  0  0  0  0  0  0  0  0
   21.3204   72.5487   -6.0987 C   0  0  2  0  0  0  0  0  0  0  0  0
   20.8187   72.9110   -4.7006 C   0  0  2  0  0  0  0  0  0  0  0  0
   22.3668   73.5621   -6.5679 C   0  0  1  0  0  0  0  0  0  0  0  0
   21.9875   73.1116   -3.7350 C   0  0  1  0  0  0  0  0  0  0  0  0
   23.4295   73.8009   -5.4992 C   0  0  1  0  0  0  0  0  0  0  0  0
   19.5531   71.9446   -6.7426 H   0  0  0  0  0  0  0  0  0  0  0  0
   19.2265   71.7542   -4.8027 H   0  0  0  0  0  0  0  0  0  0  0  0
   22.3395   72.9078   -8.4304 H   0  0  0  0  0  0  0  0  0  0  0  0
   23.6487   75.7426   -6.7965 O   0  0  0  0  0  0  0  0  0  0  0  0
   25.3002   75.3095   -5.2852 O   0  0  0  0  0  0  0  0  0  0  0  0
   24.2439   75.0111   -5.8220 C   0  0  0  0  0  0  0  0  0  0  0  0
  1  4  1  0
  1 24  1  0
  1  2  1  1
  1  3  2  0
 25 28  1  0
 25 24  1  0
 25 26  1  6
 25 27  2  0
  6 11  1  0
  6 12  1  0
 29 36  1  0
 29 37  1  0
  9  7  1  6
  7 13  1  0
 10  8  1  1
  8 14  1  0
  4  5  1  0
 36 28  1  6
 33 30  1  6
 30 38  1  0
 34 31  1  1
 31 39  1  0
 35 32  1  6
 32 40  1  0
 41 43  1  0
 15 19  2  0
 42 43  2  0
 16 22  2  0
 12 17  1  1
 17 19  1  0
 17 20  1  0
 18 19  1  0
 18 22  1  0
 18 23  1  0
  9 10  1  0
  9 11  1  0
 10 12  1  0
 11  5  1  1
 33 34  1  0
 33 35  1  0
 34 36  1  0
 35 37  1  0
 37 43  1  6
 20 21  2  0
 21 22  1  0
M  CHG  3   2  -1  26  -1  41  -1
M  END
>  <COMPND>  (118) 
    udp_gluA.pdb 

>  <AUTHOR>  (118) 
    GENERATED BY OPEN BABEL 3.1.1

>  <MASTER>  (118) 
        0    0    0    0    0    0    0    0   56    0   56    0

>  <minimizedAffinity>  (118) 
-6.73040

>  <CNNscore>  (118) 
0.3040010333

>  <CNNaffinity>  (118) 
3.7555038929

>  <CNN_VS>  (118) 
1.1416770220

>  <CNNaffinity_variance>  (118) 
0.1695937663

$$$$
119
     RDKit          3D

 43 45  0  0  0  0  0  0  0  0999 V2000
   18.6262   72.8709   -0.8229 P   0  0  2  0  0  0  0  0  0  0  0  0
   18.1661   71.6214   -1.7427 O   0  0  0  0  0  0  0  0  0  0  0  0
   17.7940   74.1102   -0.9754 O   0  0  0  0  0  0  0  0  0  0  0  0
   20.2014   73.0373   -1.1533 O   0  0  0  0  0  0  0  0  0  0  0  0
   20.5792   73.4569   -2.4516 C   0  0  0  0  0  0  0  0  0  0  0  0
   20.5337   71.5420   -3.9037 O   0  0  0  0  0  0  0  0  0  0  0  0
   23.4963   71.9138   -4.1801 O   0  0  0  0  0  0  0  0  0  0  0  0
   22.5407   73.0067   -6.4885 O   0  0  0  0  0  0  0  0  0  0  0  0
   22.4693   72.8984   -4.0605 C   0  0  1  0  0  0  0  0  0  0  0  0
   21.6954   73.0089   -5.3571 C   0  0  2  0  0  0  0  0  0  0  0  0
   21.4132   72.3617   -3.1039 C   0  0  1  0  0  0  0  0  0  0  0  0
   20.7988   71.7841   -5.2946 C   0  0  2  0  0  0  0  0  0  0  0  0
   24.1827   72.2342   -4.7866 H   0  0  0  0  0  0  0  0  0  0  0  0
   23.0907   73.8063   -6.4827 H   0  0  0  0  0  0  0  0  0  0  0  0
   20.3775   71.2241   -8.0305 O   0  0  0  0  0  0  0  0  0  0  0  0
   15.9775   72.5801   -7.8182 O   0  0  0  0  0  0  0  0  0  0  0  0
   19.5529   71.9814   -5.9799 N   0  0  0  0  0  0  0  0  0  0  0  0
   18.1868   71.9010   -7.9224 N   0  0  0  0  0  0  0  0  0  0  0  0
   19.4469   71.6687   -7.3558 C   0  0  0  0  0  0  0  0  0  0  0  0
   18.4531   72.4776   -5.2905 C   0  0  0  0  0  0  0  0  0  0  0  0
   17.2584   72.6936   -5.8442 C   0  0  0  0  0  0  0  0  0  0  0  0
   17.0636   72.3936   -7.2779 C   0  0  0  0  0  0  0  0  0  0  0  0
   18.0892   71.6927   -8.8797 H   0  0  0  0  0  0  0  0  0  0  0  0
   18.6317   72.2426    0.6664 O   0  0  0  0  0  0  0  0  0  0  0  0
   19.3055   72.7695    2.0382 P   0  0  2  0  0  0  0  0  0  0  0  0
   18.2807   72.2482    3.1777 O   0  0  0  0  0  0  0  0  0  0  0  0
   19.5644   74.2480    2.0689 O   0  0  0  0  0  0  0  0  0  0  0  0
   20.6215   71.8553    2.2252 O   0  0  0  0  0  0  0  0  0  0  0  0
   22.7716   72.7634    2.6273 O   0  0  0  0  0  0  0  0  0  0  0  0
   23.7037   69.0309    1.1214 O   0  0  0  0  0  0  0  0  0  0  0  0
   21.5687   70.6220   -0.0808 O   0  0  0  0  0  0  0  0  0  0  0  0
   23.9414   69.5558    3.9708 O   0  0  0  0  0  0  0  0  0  0  0  0
   22.9223   69.9917    1.8315 C   0  0  2  0  0  0  0  0  0  0  0  0
   22.4979   71.1105    0.8798 C   0  0  2  0  0  0  0  0  0  0  0  0
   23.7816   70.5551    2.9656 C   0  0  1  0  0  0  0  0  0  0  0  0
   21.8585   72.2685    1.6472 C   0  0  1  0  0  0  0  0  0  0  0  0
   23.1339   71.7836    3.5978 C   0  0  1  0  0  0  0  0  0  0  0  0
   23.1780   68.6592    0.3956 H   0  0  0  0  0  0  0  0  0  0  0  0
   21.9678   69.8868   -0.5713 H   0  0  0  0  0  0  0  0  0  0  0  0
   24.3525   68.7683    3.5814 H   0  0  0  0  0  0  0  0  0  0  0  0
   24.4066   73.7253    3.9322 O   0  0  0  0  0  0  0  0  0  0  0  0
   24.5808   72.0838    5.5051 O   0  0  0  0  0  0  0  0  0  0  0  0
   24.1106   72.5126    4.4621 C   0  0  0  0  0  0  0  0  0  0  0  0
  1  4  1  0
  1 24  1  0
  1  2  1  6
  1  3  2  0
 25 28  1  0
 25 24  1  0
 25 26  1  1
 25 27  2  0
  6 11  1  0
  6 12  1  0
 29 36  1  0
 29 37  1  0
  9  7  1  6
  7 13  1  0
 10  8  1  6
  8 14  1  0
  4  5  1  0
 36 28  1  1
 33 30  1  6
 30 38  1  0
 34 31  1  6
 31 39  1  0
 35 32  1  1
 32 40  1  0
 41 43  1  0
 15 19  2  0
 42 43  2  0
 16 22  2  0
 12 17  1  6
 17 19  1  0
 17 20  1  0
 18 19  1  0
 18 22  1  0
 18 23  1  0
  9 10  1  0
  9 11  1  0
 10 12  1  0
 11  5  1  6
 33 34  1  0
 33 35  1  0
 34 36  1  0
 35 37  1  0
 37 43  1  1
 20 21  2  0
 21 22  1  0
M  CHG  3   2  -1  26  -1  41  -1
M  END
>  <COMPND>  (119) 
    udp_gluA.pdb 

>  <AUTHOR>  (119) 
    GENERATED BY OPEN BABEL 3.1.1

>  <MASTER>  (119) 
        0    0    0    0    0    0    0    0   56    0   56    0

>  <minimizedAffinity>  (119) 
-6.85026

>  <CNNscore>  (119) 
0.3015854359

>  <CNNaffinity>  (119) 
4.0715069771

>  <CNN_VS>  (119) 
1.2279071808

>  <CNNaffinity_variance>  (119) 
0.0415144861

$$$$
120
     RDKit          3D

 43 45  0  0  0  0  0  0  0  0999 V2000
   22.6483   73.1695   -3.5705 P   0  0  2  0  0  0  0  0  0  0  0  0
   23.9688   72.7668   -4.4148 O   0  0  0  0  0  0  0  0  0  0  0  0
   22.6357   74.5756   -3.0465 O   0  0  0  0  0  0  0  0  0  0  0  0
   22.5294   72.0031   -2.4555 O   0  0  0  0  0  0  0  0  0  0  0  0
   22.5888   72.3661   -1.0883 C   0  0  0  0  0  0  0  0  0  0  0  0
   21.8170   70.0922   -0.9820 O   0  0  0  0  0  0  0  0  0  0  0  0
   21.3948   70.5684    1.9483 O   0  0  0  0  0  0  0  0  0  0  0  0
   23.7495   69.1940    1.9012 O   0  0  0  0  0  0  0  0  0  0  0  0
   22.4234   71.0642    1.0912 C   0  0  1  0  0  0  0  0  0  0  0  0
   23.4108   69.9634    0.7663 C   0  0  2  0  0  0  0  0  0  0  0  0
   21.8040   71.3486   -0.2703 C   0  0  1  0  0  0  0  0  0  0  0  0
   22.6559   69.1613   -0.2799 C   0  0  2  0  0  0  0  0  0  0  0  0
   21.7666   70.3794    2.8244 H   0  0  0  0  0  0  0  0  0  0  0  0
   24.2285   69.7493    2.5370 H   0  0  0  0  0  0  0  0  0  0  0  0
   22.9879   66.3658   -0.5075 O   0  0  0  0  0  0  0  0  0  0  0  0
   26.0509   66.8239   -3.9211 O   0  0  0  0  0  0  0  0  0  0  0  0
   23.5336   68.5230   -1.2196 N   0  0  0  0  0  0  0  0  0  0  0  0
   24.5139   66.5967   -2.2068 N   0  0  0  0  0  0  0  0  0  0  0  0
   23.6270   67.1115   -1.2521 C   0  0  0  0  0  0  0  0  0  0  0  0
   24.2885   69.2924   -2.0966 C   0  0  0  0  0  0  0  0  0  0  0  0
   25.1295   68.7873   -3.0012 C   0  0  0  0  0  0  0  0  0  0  0  0
   25.2864   67.3213   -3.0999 C   0  0  0  0  0  0  0  0  0  0  0  0
   24.5974   65.6165   -2.2469 H   0  0  0  0  0  0  0  0  0  0  0  0
   21.4445   72.8205   -4.5912 O   0  0  0  0  0  0  0  0  0  0  0  0
   21.1159   73.3746   -6.0740 P   0  0  2  0  0  0  0  0  0  0  0  0
   22.1823   72.5910   -7.0063 O   0  0  0  0  0  0  0  0  0  0  0  0
   21.1675   74.8699   -6.1982 O   0  0  0  0  0  0  0  0  0  0  0  0
   19.6896   72.7205   -6.4487 O   0  0  0  0  0  0  0  0  0  0  0  0
   19.4249   70.5482   -5.5429 O   0  0  0  0  0  0  0  0  0  0  0  0
   16.0568   70.8878   -7.9112 O   0  0  0  0  0  0  0  0  0  0  0  0
   18.6452   71.8421   -8.8723 O   0  0  0  0  0  0  0  0  0  0  0  0
   15.8408   71.1364   -5.0228 O   0  0  0  0  0  0  0  0  0  0  0  0
   17.1053   71.3544   -7.0621 C   0  0  2  0  0  0  0  0  0  0  0  0
   18.4584   71.0498   -7.7052 C   0  0  2  0  0  0  0  0  0  0  0  0
   16.9808   70.6343   -5.7175 C   0  0  1  0  0  0  0  0  0  0  0  0
   19.6027   71.3244   -6.7284 C   0  0  1  0  0  0  0  0  0  0  0  0
   18.2169   70.8555   -4.8505 C   0  0  1  0  0  0  0  0  0  0  0  0
   16.1157   71.3318   -8.7718 H   0  0  0  0  0  0  0  0  0  0  0  0
   17.9225   71.6731   -9.4964 H   0  0  0  0  0  0  0  0  0  0  0  0
   15.0471   71.0019   -5.5640 H   0  0  0  0  0  0  0  0  0  0  0  0
   19.3816   70.0350   -2.9873 O   0  0  0  0  0  0  0  0  0  0  0  0
   17.3471   69.1072   -3.4335 O   0  0  0  0  0  0  0  0  0  0  0  0
   18.2366   69.9008   -3.7014 C   0  0  0  0  0  0  0  0  0  0  0  0
  1  4  1  0
  1 24  1  0
  1  2  1  6
  1  3  2  0
 25 28  1  0
 25 24  1  0
 25 26  1  6
 25 27  2  0
  6 11  1  0
  6 12  1  0
 29 36  1  0
 29 37  1  0
  9  7  1  1
  7 13  1  0
 10  8  1  1
  8 14  1  0
  4  5  1  0
 36 28  1  1
 33 30  1  6
 30 38  1  0
 34 31  1  6
 31 39  1  0
 35 32  1  1
 32 40  1  0
 41 43  1  0
 15 19  2  0
 42 43  2  0
 16 22  2  0
 12 17  1  6
 17 19  1  0
 17 20  1  0
 18 19  1  0
 18 22  1  0
 18 23  1  0
  9 10  1  0
  9 11  1  0
 10 12  1  0
 11  5  1  6
 33 34  1  0
 33 35  1  0
 34 36  1  0
 35 37  1  0
 37 43  1  1
 20 21  2  0
 21 22  1  0
M  CHG  3   2  -1  26  -1  41  -1
M  END
>  <COMPND>  (120) 
    udp_gluA.pdb 

>  <AUTHOR>  (120) 
    GENERATED BY OPEN BABEL 3.1.1

>  <MASTER>  (120) 
        0    0    0    0    0    0    0    0   56    0   56    0

>  <minimizedAffinity>  (120) 
-8.95456

>  <CNNscore>  (120) 
0.3008936048

>  <CNNaffinity>  (120) 
4.2336463928

>  <CNN_VS>  (120) 
1.2738771439

>  <CNNaffinity_variance>  (120) 
0.6675000191

$$$$
121
     RDKit          3D

 43 45  0  0  0  0  0  0  0  0999 V2000
   21.7012   73.0057   -1.8459 P   0  0  2  0  0  0  0  0  0  0  0  0
   22.5604   73.8636   -2.9158 O   0  0  0  0  0  0  0  0  0  0  0  0
   21.9202   71.5222   -1.9012 O   0  0  0  0  0  0  0  0  0  0  0  0
   20.1791   73.5006   -2.0838 O   0  0  0  0  0  0  0  0  0  0  0  0
   19.5664   73.2275   -3.3306 C   0  0  0  0  0  0  0  0  0  0  0  0
   17.6363   72.2356   -4.3642 O   0  0  0  0  0  0  0  0  0  0  0  0
   17.3819   70.5847   -1.8740 O   0  0  0  0  0  0  0  0  0  0  0  0
   18.5393   68.8453   -3.6264 O   0  0  0  0  0  0  0  0  0  0  0  0
   18.5600   71.0253   -2.5496 C   0  0  1  0  0  0  0  0  0  0  0  0
   18.7663   70.2259   -3.8188 C   0  0  2  0  0  0  0  0  0  0  0  0
   18.2951   72.4228   -3.0929 C   0  0  1  0  0  0  0  0  0  0  0  0
   17.7547   70.8595   -4.7585 C   0  0  2  0  0  0  0  0  0  0  0  0
   17.5270   69.6936   -1.5181 H   0  0  0  0  0  0  0  0  0  0  0  0
   19.2091   68.4888   -3.0212 H   0  0  0  0  0  0  0  0  0  0  0  0
   16.0753   70.1145   -6.9035 O   0  0  0  0  0  0  0  0  0  0  0  0
   19.4576   70.6713   -9.9846 O   0  0  0  0  0  0  0  0  0  0  0  0
   18.1706   70.8013   -6.1313 N   0  0  0  0  0  0  0  0  0  0  0  0
   17.7618   70.3915   -8.4359 N   0  0  0  0  0  0  0  0  0  0  0  0
   17.2485   70.4145   -7.1324 C   0  0  0  0  0  0  0  0  0  0  0  0
   19.4773   71.1264   -6.4745 C   0  0  0  0  0  0  0  0  0  0  0  0
   19.9519   71.0999   -7.7214 C   0  0  0  0  0  0  0  0  0  0  0  0
   19.0534   70.7057   -8.8263 C   0  0  0  0  0  0  0  0  0  0  0  0
   17.1390   70.1234   -9.1498 H   0  0  0  0  0  0  0  0  0  0  0  0
   22.0899   73.6916   -0.4348 O   0  0  0  0  0  0  0  0  0  0  0  0
   21.2439   73.8593    0.9326 P   0  0  2  0  0  0  0  0  0  0  0  0
   20.0273   72.8079    0.7462 O   0  0  0  0  0  0  0  0  0  0  0  0
   20.8066   75.2670    1.2175 O   0  0  0  0  0  0  0  0  0  0  0  0
   22.1769   73.2042    2.0741 O   0  0  0  0  0  0  0  0  0  0  0  0
   21.5020   70.9346    2.0207 O   0  0  0  0  0  0  0  0  0  0  0  0
   24.7928   70.7747    4.5133 O   0  0  0  0  0  0  0  0  0  0  0  0
   22.8526   72.9449    4.7596 O   0  0  0  0  0  0  0  0  0  0  0  0
   24.9946   69.8392    1.7683 O   0  0  0  0  0  0  0  0  0  0  0  0
   23.9981   71.2665    3.4341 C   0  0  2  0  0  0  0  0  0  0  0  0
   22.6608   71.7745    3.9735 C   0  0  2  0  0  0  0  0  0  0  0  0
   23.7729   70.1161    2.4503 C   0  0  1  0  0  0  0  0  0  0  0  0
   21.6961   72.0947    2.8307 C   0  0  1  0  0  0  0  0  0  0  0  0
   22.7063   70.4675    1.4171 C   0  0  1  0  0  0  0  0  0  0  0  0
   24.9490   71.4886    5.1515 H   0  0  0  0  0  0  0  0  0  0  0  0
   23.4639   72.7490    5.4865 H   0  0  0  0  0  0  0  0  0  0  0  0
   25.6819   69.6142    2.4147 H   0  0  0  0  0  0  0  0  0  0  0  0
   20.9071   69.2001    0.6060 O   0  0  0  0  0  0  0  0  0  0  0  0
   23.0055   68.4048    0.2017 O   0  0  0  0  0  0  0  0  0  0  0  0
   22.2604   69.2474    0.6790 C   0  0  0  0  0  0  0  0  0  0  0  0
  1  4  1  0
  1 24  1  0
  1  2  1  6
  1  3  2  0
 25 28  1  0
 25 24  1  0
 25 26  1  6
 25 27  2  0
  6 11  1  0
  6 12  1  0
 29 36  1  0
 29 37  1  0
  9  7  1  6
  7 13  1  0
 10  8  1  1
  8 14  1  0
  4  5  1  0
 36 28  1  6
 33 30  1  1
 30 38  1  0
 34 31  1  6
 31 39  1  0
 35 32  1  6
 32 40  1  0
 41 43  1  0
 15 19  2  0
 42 43  2  0
 16 22  2  0
 12 17  1  6
 17 19  1  0
 17 20  1  0
 18 19  1  0
 18 22  1  0
 18 23  1  0
  9 10  1  0
  9 11  1  0
 10 12  1  0
 11  5  1  6
 33 34  1  0
 33 35  1  0
 34 36  1  0
 35 37  1  0
 37 43  1  1
 20 21  2  0
 21 22  1  0
M  CHG  3   2  -1  26  -1  41  -1
M  END
>  <COMPND>  (121) 
    udp_gluA.pdb 

>  <AUTHOR>  (121) 
    GENERATED BY OPEN BABEL 3.1.1

>  <MASTER>  (121) 
        0    0    0    0    0    0    0    0   56    0   56    0

>  <minimizedAffinity>  (121) 
-8.16121

>  <CNNscore>  (121) 
0.8017114401

>  <CNNaffinity>  (121) 
4.6490535736

>  <CNN_VS>  (121) 
3.7271995544

>  <CNNaffinity_variance>  (121) 
0.0194556080

$$$$
122
     RDKit          3D

 43 45  0  0  0  0  0  0  0  0999 V2000
   21.9972   71.1160   -1.8844 P   0  0  2  0  0  0  0  0  0  0  0  0
   22.9242   72.2924   -2.4974 O   0  0  0  0  0  0  0  0  0  0  0  0
   21.9092   69.8759   -2.7248 O   0  0  0  0  0  0  0  0  0  0  0  0
   20.5915   71.8531   -1.5702 O   0  0  0  0  0  0  0  0  0  0  0  0
   19.8214   72.3321   -2.6574 C   0  0  0  0  0  0  0  0  0  0  0  0
   17.7372   71.9633   -3.7966 O   0  0  0  0  0  0  0  0  0  0  0  0
   17.0562   70.0929   -1.5540 O   0  0  0  0  0  0  0  0  0  0  0  0
   17.8189   68.3881   -3.5409 O   0  0  0  0  0  0  0  0  0  0  0  0
   18.3182   70.3370   -2.1754 C   0  0  1  0  0  0  0  0  0  0  0  0
   18.3619   69.6918   -3.5444 C   0  0  2  0  0  0  0  0  0  0  0  0
   18.3941   71.8184   -2.5188 C   0  0  1  0  0  0  0  0  0  0  0  0
   17.5438   70.6638   -4.3774 C   0  0  2  0  0  0  0  0  0  0  0  0
   16.9844   69.1526   -1.3254 H   0  0  0  0  0  0  0  0  0  0  0  0
   18.3753   67.8075   -2.9976 H   0  0  0  0  0  0  0  0  0  0  0  0
   15.9051   69.9558   -6.5659 O   0  0  0  0  0  0  0  0  0  0  0  0
   19.2627   70.8341   -9.5988 O   0  0  0  0  0  0  0  0  0  0  0  0
   17.9644   70.6983   -5.7495 N   0  0  0  0  0  0  0  0  0  0  0  0
   17.5793   70.3929   -8.0743 N   0  0  0  0  0  0  0  0  0  0  0  0
   17.0633   70.3224   -6.7736 C   0  0  0  0  0  0  0  0  0  0  0  0
   19.2549   71.1023   -6.0695 C   0  0  0  0  0  0  0  0  0  0  0  0
   19.7323   71.1645   -7.3140 C   0  0  0  0  0  0  0  0  0  0  0  0
   18.8554   70.7878   -8.4420 C   0  0  0  0  0  0  0  0  0  0  0  0
   16.9711   70.1341   -8.8040 H   0  0  0  0  0  0  0  0  0  0  0  0
   22.6253   70.8888   -0.4125 O   0  0  0  0  0  0  0  0  0  0  0  0
   22.1333   69.9664    0.8207 P   0  0  2  0  0  0  0  0  0  0  0  0
   23.3919   68.9793    1.0694 O   0  0  0  0  0  0  0  0  0  0  0  0
   20.8310   69.2594    0.5796 O   0  0  0  0  0  0  0  0  0  0  0  0
   22.1326   70.9544    2.0960 O   0  0  0  0  0  0  0  0  0  0  0  0
   21.4716   73.1809    1.6320 O   0  0  0  0  0  0  0  0  0  0  0  0
   22.9133   73.5183    5.4889 O   0  0  0  0  0  0  0  0  0  0  0  0
   24.3312   71.8979    3.5145 O   0  0  0  0  0  0  0  0  0  0  0  0
   20.0483   73.5234    4.9964 O   0  0  0  0  0  0  0  0  0  0  0  0
   22.2845   72.8671    4.3850 C   0  0  2  0  0  0  0  0  0  0  0  0
   23.2627   72.7879    3.2127 C   0  0  2  0  0  0  0  0  0  0  0  0
   21.0507   73.6839    3.9945 C   0  0  1  0  0  0  0  0  0  0  0  0
   22.5577   72.3075    1.9435 C   0  0  1  0  0  0  0  0  0  0  0  0
   20.4800   73.2253    2.6556 C   0  0  1  0  0  0  0  0  0  0  0  0
   23.7003   73.0171    5.7547 H   0  0  0  0  0  0  0  0  0  0  0  0
   24.7828   72.1966    4.3190 H   0  0  0  0  0  0  0  0  0  0  0  0
   20.3989   73.8116    5.8536 H   0  0  0  0  0  0  0  0  0  0  0  0
   19.4002   74.1280    0.7792 O   0  0  0  0  0  0  0  0  0  0  0  0
   18.8649   75.0109    2.8122 O   0  0  0  0  0  0  0  0  0  0  0  0
   19.4982   74.2206    2.1286 C   0  0  0  0  0  0  0  0  0  0  0  0
  1  4  1  0
  1 24  1  0
  1  2  1  6
  1  3  2  0
 25 28  1  0
 25 24  1  0
 25 26  1  1
 25 27  2  0
  6 11  1  0
  6 12  1  0
 29 36  1  0
 29 37  1  0
  9  7  1  6
  7 13  1  0
 10  8  1  1
  8 14  1  0
  4  5  1  0
 36 28  1  1
 33 30  1  1
 30 38  1  0
 34 31  1  1
 31 39  1  0
 35 32  1  1
 32 40  1  0
 41 43  1  0
 15 19  2  0
 42 43  2  0
 16 22  2  0
 12 17  1  6
 17 19  1  0
 17 20  1  0
 18 19  1  0
 18 22  1  0
 18 23  1  0
  9 10  1  0
  9 11  1  0
 10 12  1  0
 11  5  1  6
 33 34  1  0
 33 35  1  0
 34 36  1  0
 35 37  1  0
 37 43  1  6
 20 21  2  0
 21 22  1  0
M  CHG  3   2  -1  26  -1  41  -1
M  END
>  <COMPND>  (122) 
    udp_gluA.pdb 

>  <AUTHOR>  (122) 
    GENERATED BY OPEN BABEL 3.1.1

>  <MASTER>  (122) 
        0    0    0    0    0    0    0    0   56    0   56    0

>  <minimizedAffinity>  (122) 
-8.24412

>  <CNNscore>  (122) 
0.7110804915

>  <CNNaffinity>  (122) 
4.6931190491

>  <CNN_VS>  (122) 
3.3371853828

>  <CNNaffinity_variance>  (122) 
0.0035683922

$$$$
123
     RDKit          3D

 43 45  0  0  0  0  0  0  0  0999 V2000
   22.5558   71.5734   -3.2453 P   0  0  2  0  0  0  0  0  0  0  0  0
   22.3312   72.2528   -1.7938 O   0  0  0  0  0  0  0  0  0  0  0  0
   23.7696   72.0509   -3.9874 O   0  0  0  0  0  0  0  0  0  0  0  0
   21.1408   71.7907   -3.9992 O   0  0  0  0  0  0  0  0  0  0  0  0
   20.3557   72.9167   -3.6522 C   0  0  0  0  0  0  0  0  0  0  0  0
   18.2338   72.4434   -4.6774 O   0  0  0  0  0  0  0  0  0  0  0  0
   17.5720   70.9304   -2.1745 O   0  0  0  0  0  0  0  0  0  0  0  0
   18.2424   68.9403   -3.9142 O   0  0  0  0  0  0  0  0  0  0  0  0
   18.8219   71.0505   -2.8541 C   0  0  1  0  0  0  0  0  0  0  0  0
   18.8141   70.2157   -4.1172 C   0  0  2  0  0  0  0  0  0  0  0  0
   18.9216   72.4653   -3.4078 C   0  0  1  0  0  0  0  0  0  0  0  0
   17.9957   71.0799   -5.0613 C   0  0  2  0  0  0  0  0  0  0  0  0
   17.4855   70.0345   -1.8119 H   0  0  0  0  0  0  0  0  0  0  0  0
   18.8003   68.4289   -3.3065 H   0  0  0  0  0  0  0  0  0  0  0  0
   16.2018   70.4639   -7.1538 O   0  0  0  0  0  0  0  0  0  0  0  0
   19.5803   70.4408  -10.2889 O   0  0  0  0  0  0  0  0  0  0  0  0
   18.3797   70.9073   -6.4338 N   0  0  0  0  0  0  0  0  0  0  0  0
   17.8863   70.4520   -8.7131 N   0  0  0  0  0  0  0  0  0  0  0  0
   17.4003   70.5991   -7.4073 C   0  0  0  0  0  0  0  0  0  0  0  0
   19.7120   71.0450   -6.8038 C   0  0  0  0  0  0  0  0  0  0  0  0
   20.1601   70.9020   -8.0526 C   0  0  0  0  0  0  0  0  0  0  0  0
   19.2016   70.5786   -9.1297 C   0  0  0  0  0  0  0  0  0  0  0  0
   17.2234   70.2352   -9.4080 H   0  0  0  0  0  0  0  0  0  0  0  0
   22.5501   69.9920   -2.9106 O   0  0  0  0  0  0  0  0  0  0  0  0
   23.5351   69.0980   -1.9918 P   0  0  2  0  0  0  0  0  0  0  0  0
   25.0086   69.5065   -2.5232 O   0  0  0  0  0  0  0  0  0  0  0  0
   23.2487   67.6249   -2.0345 O   0  0  0  0  0  0  0  0  0  0  0  0
   23.4349   69.7572   -0.5228 O   0  0  0  0  0  0  0  0  0  0  0  0
   23.4596   68.9933    1.7188 O   0  0  0  0  0  0  0  0  0  0  0  0
   20.3687   71.7333    1.7986 O   0  0  0  0  0  0  0  0  0  0  0  0
   20.6577   69.8920   -0.4510 O   0  0  0  0  0  0  0  0  0  0  0  0
   22.9494   72.4108    2.9527 O   0  0  0  0  0  0  0  0  0  0  0  0
   21.6138   71.1856    1.3653 C   0  0  2  0  0  0  0  0  0  0  0  0
   21.3823   69.7965    0.7699 C   0  0  2  0  0  0  0  0  0  0  0  0
   22.5397   71.0963    2.5805 C   0  0  1  0  0  0  0  0  0  0  0  0
   22.7106   69.0859    0.5065 C   0  0  1  0  0  0  0  0  0  0  0  0
   23.7829   70.2663    2.2738 C   0  0  1  0  0  0  0  0  0  0  0  0
   19.7639   71.7995    1.0429 H   0  0  0  0  0  0  0  0  0  0  0  0
   19.8138   70.3422   -0.2912 H   0  0  0  0  0  0  0  0  0  0  0  0
   22.1674   72.9495    3.1504 H   0  0  0  0  0  0  0  0  0  0  0  0
   23.7420   70.1841    4.6175 O   0  0  0  0  0  0  0  0  0  0  0  0
   25.6308   69.4347    3.5833 O   0  0  0  0  0  0  0  0  0  0  0  0
   24.5064   69.9101    3.5315 C   0  0  0  0  0  0  0  0  0  0  0  0
  1  4  1  0
  1 24  1  0
  1  2  1  1
  1  3  2  0
 25 28  1  0
 25 24  1  0
 25 26  1  6
 25 27  2  0
  6 11  1  0
  6 12  1  0
 29 36  1  0
 29 37  1  0
  9  7  1  6
  7 13  1  0
 10  8  1  1
  8 14  1  0
  4  5  1  0
 36 28  1  6
 33 30  1  1
 30 38  1  0
 34 31  1  6
 31 39  1  0
 35 32  1  6
 32 40  1  0
 41 43  1  0
 15 19  2  0
 42 43  2  0
 16 22  2  0
 12 17  1  6
 17 19  1  0
 17 20  1  0
 18 19  1  0
 18 22  1  0
 18 23  1  0
  9 10  1  0
  9 11  1  0
 10 12  1  0
 11  5  1  6
 33 34  1  0
 33 35  1  0
 34 36  1  0
 35 37  1  0
 37 43  1  1
 20 21  2  0
 21 22  1  0
M  CHG  3   2  -1  26  -1  41  -1
M  END
>  <COMPND>  (123) 
    udp_gluA.pdb 

>  <AUTHOR>  (123) 
    GENERATED BY OPEN BABEL 3.1.1

>  <MASTER>  (123) 
        0    0    0    0    0    0    0    0   56    0   56    0

>  <minimizedAffinity>  (123) 
-9.36761

>  <CNNscore>  (123) 
0.6793477535

>  <CNNaffinity>  (123) 
4.5613574982

>  <CNN_VS>  (123) 
3.0987479687

>  <CNNaffinity_variance>  (123) 
0.0588269532

$$$$
124
     RDKit          3D

 43 45  0  0  0  0  0  0  0  0999 V2000
   22.9587   69.5316   -2.2019 P   0  0  2  0  0  0  0  0  0  0  0  0
   23.9232   70.4029   -3.1661 O   0  0  0  0  0  0  0  0  0  0  0  0
   23.3023   68.0737   -2.1123 O   0  0  0  0  0  0  0  0  0  0  0  0
   21.4687   69.8709   -2.7337 O   0  0  0  0  0  0  0  0  0  0  0  0
   21.3006   70.9557   -3.6277 C   0  0  0  0  0  0  0  0  0  0  0  0
   19.4753   72.1179   -4.6743 O   0  0  0  0  0  0  0  0  0  0  0  0
   17.8150   71.2276   -2.3414 O   0  0  0  0  0  0  0  0  0  0  0  0
   17.0963   69.4630   -4.2922 O   0  0  0  0  0  0  0  0  0  0  0  0
   18.8663   70.5379   -3.0179 C   0  0  1  0  0  0  0  0  0  0  0  0
   18.3843   70.0379   -4.3632 C   0  0  2  0  0  0  0  0  0  0  0  0
   19.9193   71.5625   -3.4174 C   0  0  1  0  0  0  0  0  0  0  0  0
   18.4136   71.3056   -5.1998 C   0  0  2  0  0  0  0  0  0  0  0  0
   17.1300   70.5935   -2.0762 H   0  0  0  0  0  0  0  0  0  0  0  0
   17.1305   68.6592   -3.7492 H   0  0  0  0  0  0  0  0  0  0  0  0
   16.4363   70.5668   -7.0763 O   0  0  0  0  0  0  0  0  0  0  0  0
   19.5163   70.3142  -10.4959 O   0  0  0  0  0  0  0  0  0  0  0  0
   18.6712   71.0408   -6.5871 N   0  0  0  0  0  0  0  0  0  0  0  0
   17.9724   70.4407   -8.7775 N   0  0  0  0  0  0  0  0  0  0  0  0
   17.6070   70.6765   -7.4456 C   0  0  0  0  0  0  0  0  0  0  0  0
   19.9645   71.1444   -7.0844 C   0  0  0  0  0  0  0  0  0  0  0  0
   20.2973   70.9166   -8.3565 C   0  0  0  0  0  0  0  0  0  0  0  0
   19.2446   70.5303   -9.3188 C   0  0  0  0  0  0  0  0  0  0  0  0
   17.2488   70.1836   -9.3937 H   0  0  0  0  0  0  0  0  0  0  0  0
   23.0336   70.3287   -0.7976 O   0  0  0  0  0  0  0  0  0  0  0  0
   22.3239   70.0399    0.6259 P   0  0  2  0  0  0  0  0  0  0  0  0
   23.4804   69.2839    1.4693 O   0  0  0  0  0  0  0  0  0  0  0  0
   21.0331   69.2795    0.5275 O   0  0  0  0  0  0  0  0  0  0  0  0
   22.1952   71.4901    1.3208 O   0  0  0  0  0  0  0  0  0  0  0  0
   22.6613   71.2451    3.6298 O   0  0  0  0  0  0  0  0  0  0  0  0
   21.8543   75.2879    3.3594 O   0  0  0  0  0  0  0  0  0  0  0  0
   20.2143   73.3504    1.9133 O   0  0  0  0  0  0  0  0  0  0  0  0
   24.5966   74.3623    3.6315 O   0  0  0  0  0  0  0  0  0  0  0  0
   22.3255   74.0197    2.9036 C   0  0  2  0  0  0  0  0  0  0  0  0
   21.1740   73.0140    2.9085 C   0  0  2  0  0  0  0  0  0  0  0  0
   23.4373   73.5605    3.8497 C   0  0  1  0  0  0  0  0  0  0  0  0
   21.6849   71.5961    2.6486 C   0  0  1  0  0  0  0  0  0  0  0  0
   23.8035   72.0985    3.6108 C   0  0  1  0  0  0  0  0  0  0  0  0
   21.1469   75.5998    2.7733 H   0  0  0  0  0  0  0  0  0  0  0  0
   19.8861   74.2490    2.0720 H   0  0  0  0  0  0  0  0  0  0  0  0
   24.3771   75.2954    3.7802 H   0  0  0  0  0  0  0  0  0  0  0  0
   25.2997   70.4509    4.3512 O   0  0  0  0  0  0  0  0  0  0  0  0
   24.7152   72.0718    5.8446 O   0  0  0  0  0  0  0  0  0  0  0  0
   24.6359   71.5699    4.7334 C   0  0  0  0  0  0  0  0  0  0  0  0
  1  4  1  0
  1 24  1  0
  1  2  1  6
  1  3  2  0
 25 28  1  0
 25 24  1  0
 25 26  1  1
 25 27  2  0
  6 11  1  0
  6 12  1  0
 29 36  1  0
 29 37  1  0
  9  7  1  6
  7 13  1  0
 10  8  1  1
  8 14  1  0
  4  5  1  0
 36 28  1  6
 33 30  1  1
 30 38  1  0
 34 31  1  6
 31 39  1  0
 35 32  1  6
 32 40  1  0
 41 43  1  0
 15 19  2  0
 42 43  2  0
 16 22  2  0
 12 17  1  6
 17 19  1  0
 17 20  1  0
 18 19  1  0
 18 22  1  0
 18 23  1  0
  9 10  1  0
  9 11  1  0
 10 12  1  0
 11  5  1  6
 33 34  1  0
 33 35  1  0
 34 36  1  0
 35 37  1  0
 37 43  1  1
 20 21  2  0
 21 22  1  0
M  CHG  3   2  -1  26  -1  41  -1
M  END
>  <COMPND>  (124) 
    udp_gluA.pdb 

>  <AUTHOR>  (124) 
    GENERATED BY OPEN BABEL 3.1.1

>  <MASTER>  (124) 
        0    0    0    0    0    0    0    0   56    0   56    0

>  <minimizedAffinity>  (124) 
-8.93291

>  <CNNscore>  (124) 
0.6695152521

>  <CNNaffinity>  (124) 
4.6535902023

>  <CNN_VS>  (124) 
3.1156497002

>  <CNNaffinity_variance>  (124) 
0.0483904481

$$$$
125
     RDKit          3D

 43 45  0  0  0  0  0  0  0  0999 V2000
   20.0772   71.0749   -0.4614 P   0  0  2  0  0  0  0  0  0  0  0  0
   20.3895   69.7036    0.3391 O   0  0  0  0  0  0  0  0  0  0  0  0
   20.9630   71.3335   -1.6448 O   0  0  0  0  0  0  0  0  0  0  0  0
   20.0951   72.2103    0.6911 O   0  0  0  0  0  0  0  0  0  0  0  0
   20.6811   73.4648    0.3954 C   0  0  0  0  0  0  0  0  0  0  0  0
   21.0931   73.3627    2.7613 O   0  0  0  0  0  0  0  0  0  0  0  0
   21.6399   76.3069    2.6047 O   0  0  0  0  0  0  0  0  0  0  0  0
   24.1476   75.2380    2.6724 O   0  0  0  0  0  0  0  0  0  0  0  0
   21.9383   75.2808    1.6578 C   0  0  1  0  0  0  0  0  0  0  0  0
   23.1063   74.4465    2.1397 C   0  0  2  0  0  0  0  0  0  0  0  0
   20.7965   74.2738    1.6809 C   0  0  1  0  0  0  0  0  0  0  0  0
   22.4510   73.5611    3.1859 C   0  0  2  0  0  0  0  0  0  0  0  0
   22.3555   76.9623    2.6080 H   0  0  0  0  0  0  0  0  0  0  0  0
   24.5324   75.7830    1.9675 H   0  0  0  0  0  0  0  0  0  0  0  0
   24.1093   72.8035    5.3428 O   0  0  0  0  0  0  0  0  0  0  0  0
   24.8686   68.6334    3.5324 O   0  0  0  0  0  0  0  0  0  0  0  0
   23.0948   72.2834    3.3035 N   0  0  0  0  0  0  0  0  0  0  0  0
   24.4867   70.7276    4.4386 N   0  0  0  0  0  0  0  0  0  0  0  0
   23.9077   72.0034    4.4273 C   0  0  0  0  0  0  0  0  0  0  0  0
   22.9171   71.3236    2.3145 C   0  0  0  0  0  0  0  0  0  0  0  0
   23.4755   70.1118    2.3392 C   0  0  0  0  0  0  0  0  0  0  0  0
   24.3401   69.7397    3.4783 C   0  0  0  0  0  0  0  0  0  0  0  0
   25.0586   70.5103    5.2100 H   0  0  0  0  0  0  0  0  0  0  0  0
   18.5054   70.9395   -0.8137 O   0  0  0  0  0  0  0  0  0  0  0  0
   17.7553   70.2707   -2.0801 P   0  0  2  0  0  0  0  0  0  0  0  0
   16.2618   70.8891   -1.9941 O   0  0  0  0  0  0  0  0  0  0  0  0
   17.8030   68.7703   -2.1021 O   0  0  0  0  0  0  0  0  0  0  0  0
   18.4163   70.9806   -3.3690 O   0  0  0  0  0  0  0  0  0  0  0  0
   17.6051   70.3771   -5.5107 O   0  0  0  0  0  0  0  0  0  0  0  0
   21.1259   72.3181   -6.4617 O   0  0  0  0  0  0  0  0  0  0  0  0
   21.0188   70.4662   -4.2049 O   0  0  0  0  0  0  0  0  0  0  0  0
   18.5721   73.6471   -6.8650 O   0  0  0  0  0  0  0  0  0  0  0  0
   19.9498   72.0521   -5.6975 C   0  0  2  0  0  0  0  0  0  0  0  0
   19.9912   70.6149   -5.1779 C   0  0  2  0  0  0  0  0  0  0  0  0
   18.7375   72.2536   -6.6096 C   0  0  1  0  0  0  0  0  0  0  0  0
   18.6525   70.2203   -4.5527 C   0  0  1  0  0  0  0  0  0  0  0  0
   17.4610   71.7208   -5.9653 C   0  0  1  0  0  0  0  0  0  0  0  0
   21.9094   72.1963   -5.9027 H   0  0  0  0  0  0  0  0  0  0  0  0
   21.8711   70.7151   -4.5947 H   0  0  0  0  0  0  0  0  0  0  0  0
   19.3778   73.9986   -7.2750 H   0  0  0  0  0  0  0  0  0  0  0  0
   15.9779   70.3277   -7.1319 O   0  0  0  0  0  0  0  0  0  0  0  0
   15.8688   72.5625   -7.5709 O   0  0  0  0  0  0  0  0  0  0  0  0
   16.3616   71.6184   -6.9719 C   0  0  0  0  0  0  0  0  0  0  0  0
  1  4  1  0
  1 24  1  0
  1  2  1  1
  1  3  2  0
 25 28  1  0
 25 24  1  0
 25 26  1  1
 25 27  2  0
  6 11  1  0
  6 12  1  0
 29 36  1  0
 29 37  1  0
  9  7  1  1
  7 13  1  0
 10  8  1  1
  8 14  1  0
  4  5  1  0
 36 28  1  1
 33 30  1  6
 30 38  1  0
 34 31  1  1
 31 39  1  0
 35 32  1  1
 32 40  1  0
 41 43  1  0
 15 19  2  0
 42 43  2  0
 16 22  2  0
 12 17  1  6
 17 19  1  0
 17 20  1  0
 18 19  1  0
 18 22  1  0
 18 23  1  0
  9 10  1  0
  9 11  1  0
 10 12  1  0
 11  5  1  6
 33 34  1  0
 33 35  1  0
 34 36  1  0
 35 37  1  0
 37 43  1  6
 20 21  2  0
 21 22  1  0
M  CHG  3   2  -1  26  -1  41  -1
M  END
>  <COMPND>  (125) 
    udp_gluA.pdb 

>  <AUTHOR>  (125) 
    GENERATED BY OPEN BABEL 3.1.1

>  <MASTER>  (125) 
        0    0    0    0    0    0    0    0   56    0   56    0

>  <minimizedAffinity>  (125) 
-7.67788

>  <CNNscore>  (125) 
0.5433046818

>  <CNNaffinity>  (125) 
4.1501355171

>  <CNN_VS>  (125) 
2.2547881603

>  <CNNaffinity_variance>  (125) 
0.0760663375

$$$$
126
     RDKit          3D

 43 45  0  0  0  0  0  0  0  0999 V2000
   21.6143   72.1625   -2.0980 P   0  0  2  0  0  0  0  0  0  0  0  0
   22.3145   73.5945   -2.3771 O   0  0  0  0  0  0  0  0  0  0  0  0
   22.5140   70.9735   -2.2674 O   0  0  0  0  0  0  0  0  0  0  0  0
   20.2960   72.1852   -3.0358 O   0  0  0  0  0  0  0  0  0  0  0  0
   19.7398   73.4381   -3.3900 C   0  0  0  0  0  0  0  0  0  0  0  0
   19.6317   72.3189   -5.5145 O   0  0  0  0  0  0  0  0  0  0  0  0
   19.2075   75.0344   -6.7137 O   0  0  0  0  0  0  0  0  0  0  0  0
   16.6822   74.0069   -6.6571 O   0  0  0  0  0  0  0  0  0  0  0  0
   18.7419   74.5137   -5.4685 C   0  0  1  0  0  0  0  0  0  0  0  0
   17.6081   73.5373   -5.6997 C   0  0  2  0  0  0  0  0  0  0  0  0
   19.8289   73.6112   -4.9008 C   0  0  1  0  0  0  0  0  0  0  0  0
   18.3507   72.2960   -6.1640 C   0  0  2  0  0  0  0  0  0  0  0  0
   18.5297   75.6143   -7.0958 H   0  0  0  0  0  0  0  0  0  0  0  0
   16.2357   74.7975   -6.3144 H   0  0  0  0  0  0  0  0  0  0  0  0
   16.1545   71.2269   -7.5818 O   0  0  0  0  0  0  0  0  0  0  0  0
   15.8112   67.6400   -4.7077 O   0  0  0  0  0  0  0  0  0  0  0  0
   17.6684   71.0841   -5.8081 N   0  0  0  0  0  0  0  0  0  0  0  0
   15.9850   69.4420   -6.1484 N   0  0  0  0  0  0  0  0  0  0  0  0
   16.5762   70.6341   -6.5869 C   0  0  0  0  0  0  0  0  0  0  0  0
   18.0829   70.3544   -4.7005 C   0  0  0  0  0  0  0  0  0  0  0  0
   17.5096   69.2197   -4.2949 C   0  0  0  0  0  0  0  0  0  0  0  0
   16.3612   68.6814   -5.0532 C   0  0  0  0  0  0  0  0  0  0  0  0
   15.2213   69.1099   -6.6736 H   0  0  0  0  0  0  0  0  0  0  0  0
   21.0056   72.3398   -0.6111 O   0  0  0  0  0  0  0  0  0  0  0  0
   20.3055   71.2746    0.3832 P   0  0  2  0  0  0  0  0  0  0  0  0
   20.0898   69.9759   -0.5587 O   0  0  0  0  0  0  0  0  0  0  0  0
   19.0526   71.7768    1.0403 O   0  0  0  0  0  0  0  0  0  0  0  0
   21.4733   70.8438    1.4094 O   0  0  0  0  0  0  0  0  0  0  0  0
   23.2218   72.3874    1.8208 O   0  0  0  0  0  0  0  0  0  0  0  0
   24.8109   68.8914    3.3443 O   0  0  0  0  0  0  0  0  0  0  0  0
   23.3454   68.8740    0.8171 O   0  0  0  0  0  0  0  0  0  0  0  0
   23.7998   70.9398    5.1423 O   0  0  0  0  0  0  0  0  0  0  0  0
   23.7749   69.8155    3.0115 C   0  0  2  0  0  0  0  0  0  0  0  0
   23.7639   70.0497    1.5007 C   0  0  2  0  0  0  0  0  0  0  0  0
   24.0542   71.1257    3.7512 C   0  0  1  0  0  0  0  0  0  0  0  0
   22.8263   71.2003    1.1322 C   0  0  1  0  0  0  0  0  0  0  0  0
   23.1648   72.2550    3.2393 C   0  0  1  0  0  0  0  0  0  0  0  0
   24.6544   68.0510    2.8855 H   0  0  0  0  0  0  0  0  0  0  0  0
   23.9358   68.1397    1.0465 H   0  0  0  0  0  0  0  0  0  0  0  0
   24.3596   70.2235    5.4805 H   0  0  0  0  0  0  0  0  0  0  0  0
   24.7885   73.4303    4.4574 O   0  0  0  0  0  0  0  0  0  0  0  0
   23.1298   74.6551    3.4840 O   0  0  0  0  0  0  0  0  0  0  0  0
   23.6603   73.5800    3.7201 C   0  0  0  0  0  0  0  0  0  0  0  0
  1  4  1  0
  1 24  1  0
  1  2  1  6
  1  3  2  0
 25 28  1  0
 25 24  1  0
 25 26  1  6
 25 27  2  0
  6 11  1  0
  6 12  1  0
 29 36  1  0
 29 37  1  0
  9  7  1  6
  7 13  1  0
 10  8  1  6
  8 14  1  0
  4  5  1  0
 36 28  1  1
 33 30  1  6
 30 38  1  0
 34 31  1  6
 31 39  1  0
 35 32  1  1
 32 40  1  0
 41 43  1  0
 15 19  2  0
 42 43  2  0
 16 22  2  0
 12 17  1  1
 17 19  1  0
 17 20  1  0
 18 19  1  0
 18 22  1  0
 18 23  1  0
  9 10  1  0
  9 11  1  0
 10 12  1  0
 11  5  1  1
 33 34  1  0
 33 35  1  0
 34 36  1  0
 35 37  1  0
 37 43  1  1
 20 21  2  0
 21 22  1  0
M  CHG  3   2  -1  26  -1  41  -1
M  END
>  <COMPND>  (126) 
    udp_gluA.pdb 

>  <AUTHOR>  (126) 
    GENERATED BY OPEN BABEL 3.1.1

>  <MASTER>  (126) 
        0    0    0    0    0    0    0    0   56    0   56    0

>  <minimizedAffinity>  (126) 
-7.91251

>  <CNNscore>  (126) 
0.4830429554

>  <CNNaffinity>  (126) 
4.1478714943

>  <CNN_VS>  (126) 
2.0036001205

>  <CNNaffinity_variance>  (126) 
0.2250302732

$$$$
127
     RDKit          3D

 43 45  0  0  0  0  0  0  0  0999 V2000
   20.3651   70.7417   -0.1305 P   0  0  2  0  0  0  0  0  0  0  0  0
   20.8748   69.3697    0.5598 O   0  0  0  0  0  0  0  0  0  0  0  0
   20.5804   71.9808    0.6880 O   0  0  0  0  0  0  0  0  0  0  0  0
   18.8311   70.4257   -0.5368 O   0  0  0  0  0  0  0  0  0  0  0  0
   17.9187   71.5048   -0.6236 C   0  0  0  0  0  0  0  0  0  0  0  0
   15.8262   70.3253   -0.5364 O   0  0  0  0  0  0  0  0  0  0  0  0
   15.1277   71.7541   -3.0784 O   0  0  0  0  0  0  0  0  0  0  0  0
   13.7741   73.1901   -1.1965 O   0  0  0  0  0  0  0  0  0  0  0  0
   15.8723   72.2225   -1.9538 C   0  0  1  0  0  0  0  0  0  0  0  0
   14.9436   72.5090   -0.7929 C   0  0  2  0  0  0  0  0  0  0  0  0
   16.6993   71.0604   -1.4210 C   0  0  1  0  0  0  0  0  0  0  0  0
   14.6555   71.1130   -0.2675 C   0  0  2  0  0  0  0  0  0  0  0  0
   14.5912   72.4793   -3.4362 H   0  0  0  0  0  0  0  0  0  0  0  0
   14.0105   74.0732   -1.5224 H   0  0  0  0  0  0  0  0  0  0  0  0
   12.9813   69.2473    1.0337 O   0  0  0  0  0  0  0  0  0  0  0  0
   13.7442   71.1627    5.1560 O   0  0  0  0  0  0  0  0  0  0  0  0
   14.3989   71.1011    1.1449 N   0  0  0  0  0  0  0  0  0  0  0  0
   13.3621   70.2037    3.0854 N   0  0  0  0  0  0  0  0  0  0  0  0
   13.5418   70.1208    1.6984 C   0  0  0  0  0  0  0  0  0  0  0  0
   14.9941   72.0512    1.9659 C   0  0  0  0  0  0  0  0  0  0  0  0
   14.8133   72.1175    3.2864 C   0  0  0  0  0  0  0  0  0  0  0  0
   13.9317   71.1304    3.9435 C   0  0  0  0  0  0  0  0  0  0  0  0
   12.7679   69.5330    3.4934 H   0  0  0  0  0  0  0  0  0  0  0  0
   21.1272   70.7356   -1.5560 O   0  0  0  0  0  0  0  0  0  0  0  0
   21.1540   71.8253   -2.7500 P   0  0  2  0  0  0  0  0  0  0  0  0
   22.4356   71.3768   -3.6313 O   0  0  0  0  0  0  0  0  0  0  0  0
   21.1939   73.2511   -2.2816 O   0  0  0  0  0  0  0  0  0  0  0  0
   19.8796   71.4576   -3.6683 O   0  0  0  0  0  0  0  0  0  0  0  0
   19.0962   69.3426   -4.3908 O   0  0  0  0  0  0  0  0  0  0  0  0
   17.9982   71.7694   -7.5488 O   0  0  0  0  0  0  0  0  0  0  0  0
   20.6099   72.0837   -6.2781 O   0  0  0  0  0  0  0  0  0  0  0  0
   15.9980   70.8527   -5.6489 O   0  0  0  0  0  0  0  0  0  0  0  0
   18.2700   71.4495   -6.1843 C   0  0  2  0  0  0  0  0  0  0  0  0
   19.7232   70.9955   -6.0448 C   0  0  2  0  0  0  0  0  0  0  0  0
   17.3189   70.3269   -5.7633 C   0  0  1  0  0  0  0  0  0  0  0  0
   19.9876   70.4279   -4.6495 C   0  0  1  0  0  0  0  0  0  0  0  0
   17.7238   69.7285   -4.4192 C   0  0  1  0  0  0  0  0  0  0  0  0
   18.5909   72.4807   -7.8386 H   0  0  0  0  0  0  0  0  0  0  0  0
   20.4475   72.4488   -7.1616 H   0  0  0  0  0  0  0  0  0  0  0  0
   15.7282   71.2368   -6.4978 H   0  0  0  0  0  0  0  0  0  0  0  0
   17.5840   67.7585   -3.1539 O   0  0  0  0  0  0  0  0  0  0  0  0
   16.0353   68.0482   -4.8021 O   0  0  0  0  0  0  0  0  0  0  0  0
   17.0079   68.4401   -4.1749 C   0  0  0  0  0  0  0  0  0  0  0  0
  1  4  1  0
  1 24  1  0
  1  2  1  1
  1  3  2  0
 25 28  1  0
 25 24  1  0
 25 26  1  6
 25 27  2  0
  6 11  1  0
  6 12  1  0
 29 36  1  0
 29 37  1  0
  9  7  1  6
  7 13  1  0
 10  8  1  6
  8 14  1  0
  4  5  1  0
 36 28  1  1
 33 30  1  6
 30 38  1  0
 34 31  1  1
 31 39  1  0
 35 32  1  1
 32 40  1  0
 41 43  1  0
 15 19  2  0
 42 43  2  0
 16 22  2  0
 12 17  1  1
 17 19  1  0
 17 20  1  0
 18 19  1  0
 18 22  1  0
 18 23  1  0
  9 10  1  0
  9 11  1  0
 10 12  1  0
 11  5  1  1
 33 34  1  0
 33 35  1  0
 34 36  1  0
 35 37  1  0
 37 43  1  6
 20 21  2  0
 21 22  1  0
M  CHG  3   2  -1  26  -1  41  -1
M  END
>  <COMPND>  (127) 
    udp_gluA.pdb 

>  <AUTHOR>  (127) 
    GENERATED BY OPEN BABEL 3.1.1

>  <MASTER>  (127) 
        0    0    0    0    0    0    0    0   56    0   56    0

>  <minimizedAffinity>  (127) 
-7.10844

>  <CNNscore>  (127) 
0.4604727328

>  <CNNaffinity>  (127) 
4.1273779869

>  <CNN_VS>  (127) 
1.9005450010

>  <CNNaffinity_variance>  (127) 
0.4422587454

$$$$
128
     RDKit          3D

 43 45  0  0  0  0  0  0  0  0999 V2000
   20.5565   74.0203   -4.7979 P   0  0  2  0  0  0  0  0  0  0  0  0
   20.4355   75.6182   -4.5725 O   0  0  0  0  0  0  0  0  0  0  0  0
   21.1641   73.6093   -6.1070 O   0  0  0  0  0  0  0  0  0  0  0  0
   19.0601   73.4737   -4.5155 O   0  0  0  0  0  0  0  0  0  0  0  0
   18.6637   73.2502   -3.1748 C   0  0  0  0  0  0  0  0  0  0  0  0
   17.0224   72.1358   -4.5320 O   0  0  0  0  0  0  0  0  0  0  0  0
   16.4504   70.4443   -2.1231 O   0  0  0  0  0  0  0  0  0  0  0  0
   18.0205   68.8099   -3.6396 O   0  0  0  0  0  0  0  0  0  0  0  0
   17.6949   70.9742   -2.5803 C   0  0  1  0  0  0  0  0  0  0  0  0
   18.1788   70.2051   -3.7913 C   0  0  2  0  0  0  0  0  0  0  0  0
   17.4311   72.3553   -3.1645 C   0  0  1  0  0  0  0  0  0  0  0  0
   17.3066   70.7758   -4.8966 C   0  0  2  0  0  0  0  0  0  0  0  0
   16.5935   69.5619   -1.7455 H   0  0  0  0  0  0  0  0  0  0  0  0
   18.5964   68.4950   -2.9247 H   0  0  0  0  0  0  0  0  0  0  0  0
   15.9609   70.8072   -7.3794 O   0  0  0  0  0  0  0  0  0  0  0  0
   19.9221   70.7201   -9.7343 O   0  0  0  0  0  0  0  0  0  0  0  0
   17.9617   70.7619   -6.1739 N   0  0  0  0  0  0  0  0  0  0  0  0
   17.9350   70.7628   -8.5499 N   0  0  0  0  0  0  0  0  0  0  0  0
   17.1929   70.7795   -7.3616 C   0  0  0  0  0  0  0  0  0  0  0  0
   19.3493   70.7329   -6.2414 C   0  0  0  0  0  0  0  0  0  0  0  0
   20.0426   70.7174   -7.3815 C   0  0  0  0  0  0  0  0  0  0  0  0
   19.3152   70.7333   -8.6676 C   0  0  0  0  0  0  0  0  0  0  0  0
   17.4217   70.7725   -9.3900 H   0  0  0  0  0  0  0  0  0  0  0  0
   21.3747   73.5306   -3.4926 O   0  0  0  0  0  0  0  0  0  0  0  0
   22.9179   73.0836   -3.3132 P   0  0  2  0  0  0  0  0  0  0  0  0
   23.5961   74.3716   -2.6051 O   0  0  0  0  0  0  0  0  0  0  0  0
   23.5868   72.6545   -4.5869 O   0  0  0  0  0  0  0  0  0  0  0  0
   22.8858   71.9552   -2.1607 O   0  0  0  0  0  0  0  0  0  0  0  0
   22.4901   69.6318   -2.3935 O   0  0  0  0  0  0  0  0  0  0  0  0
   21.0509   70.3526    1.4114 O   0  0  0  0  0  0  0  0  0  0  0  0
   20.4978   72.2262   -0.7607 O   0  0  0  0  0  0  0  0  0  0  0  0
   23.6160   69.0340    1.0470 O   0  0  0  0  0  0  0  0  0  0  0  0
   21.9026   70.5454    0.2820 C   0  0  2  0  0  0  0  0  0  0  0  0
   21.0603   70.9308   -0.9343 C   0  0  2  0  0  0  0  0  0  0  0  0
   22.6458   69.2334    0.0207 C   0  0  1  0  0  0  0  0  0  0  0  0
   21.9044   70.9212   -2.2095 C   0  0  1  0  0  0  0  0  0  0  0  0
   23.3598   69.2566   -1.3277 C   0  0  1  0  0  0  0  0  0  0  0  0
   20.5681   71.1735    1.5964 H   0  0  0  0  0  0  0  0  0  0  0  0
   19.9611   72.2396    0.0468 H   0  0  0  0  0  0  0  0  0  0  0  0
   23.1745   69.0174    1.9105 H   0  0  0  0  0  0  0  0  0  0  0  0
   24.6575   67.9355   -2.7672 O   0  0  0  0  0  0  0  0  0  0  0  0
   23.4379   66.8499   -1.1756 O   0  0  0  0  0  0  0  0  0  0  0  0
   23.7978   67.8830   -1.7198 C   0  0  0  0  0  0  0  0  0  0  0  0
  1  4  1  0
  1 24  1  0
  1  2  1  6
  1  3  2  0
 25 28  1  0
 25 24  1  0
 25 26  1  1
 25 27  2  0
  6 11  1  0
  6 12  1  0
 29 36  1  0
 29 37  1  0
  9  7  1  6
  7 13  1  0
 10  8  1  1
  8 14  1  0
  4  5  1  0
 36 28  1  1
 33 30  1  1
 30 38  1  0
 34 31  1  1
 31 39  1  0
 35 32  1  1
 32 40  1  0
 41 43  1  0
 15 19  2  0
 42 43  2  0
 16 22  2  0
 12 17  1  6
 17 19  1  0
 17 20  1  0
 18 19  1  0
 18 22  1  0
 18 23  1  0
  9 10  1  0
  9 11  1  0
 10 12  1  0
 11  5  1  6
 33 34  1  0
 33 35  1  0
 34 36  1  0
 35 37  1  0
 37 43  1  6
 20 21  2  0
 21 22  1  0
M  CHG  3   2  -1  26  -1  41  -1
M  END
>  <COMPND>  (128) 
    udp_gluA.pdb 

>  <AUTHOR>  (128) 
    GENERATED BY OPEN BABEL 3.1.1

>  <MASTER>  (128) 
        0    0    0    0    0    0    0    0   56    0   56    0

>  <minimizedAffinity>  (128) 
-7.88119

>  <CNNscore>  (128) 
0.3944475353

>  <CNNaffinity>  (128) 
4.4248309135

>  <CNN_VS>  (128) 
1.7453635931

>  <CNNaffinity_variance>  (128) 
0.1517439336

$$$$
129
     RDKit          3D

 43 45  0  0  0  0  0  0  0  0999 V2000
   17.9943   72.9873   -0.1566 P   0  0  2  0  0  0  0  0  0  0  0  0
   17.4972   72.2330    1.1861 O   0  0  0  0  0  0  0  0  0  0  0  0
   17.6887   74.4555   -0.2084 O   0  0  0  0  0  0  0  0  0  0  0  0
   17.3713   72.0972   -1.3556 O   0  0  0  0  0  0  0  0  0  0  0  0
   17.5221   72.5555   -2.6866 C   0  0  0  0  0  0  0  0  0  0  0  0
   17.6148   71.7468   -4.9482 O   0  0  0  0  0  0  0  0  0  0  0  0
   16.7136   69.1083   -3.8447 O   0  0  0  0  0  0  0  0  0  0  0  0
   19.3939   68.7314   -4.1760 O   0  0  0  0  0  0  0  0  0  0  0  0
   17.5861   70.0791   -3.2663 C   0  0  1  0  0  0  0  0  0  0  0  0
   18.9343   70.0483   -3.9545 C   0  0  2  0  0  0  0  0  0  0  0  0
   17.0677   71.4603   -3.6429 C   0  0  1  0  0  0  0  0  0  0  0  0
   18.6456   70.7921   -5.2473 C   0  0  2  0  0  0  0  0  0  0  0  0
   17.0246   68.2175   -3.6177 H   0  0  0  0  0  0  0  0  0  0  0  0
   19.5636   68.3004   -3.3231 H   0  0  0  0  0  0  0  0  0  0  0  0
   19.3662   70.9301   -7.9746 O   0  0  0  0  0  0  0  0  0  0  0  0
   23.0832   73.4943   -7.0510 O   0  0  0  0  0  0  0  0  0  0  0  0
   19.7967   71.4891   -5.7473 N   0  0  0  0  0  0  0  0  0  0  0  0
   21.2173   72.2062   -7.5119 N   0  0  0  0  0  0  0  0  0  0  0  0
   20.0691   71.4969   -7.1358 C   0  0  0  0  0  0  0  0  0  0  0  0
   20.6401   72.1561   -4.8672 C   0  0  0  0  0  0  0  0  0  0  0  0
   21.7309   72.8280   -5.2406 C   0  0  0  0  0  0  0  0  0  0  0  0
   22.0872   72.8846   -6.6736 C   0  0  0  0  0  0  0  0  0  0  0  0
   21.4287   72.2241   -8.4733 H   0  0  0  0  0  0  0  0  0  0  0  0
   19.5684   72.6247   -0.2150 O   0  0  0  0  0  0  0  0  0  0  0  0
   20.3284   71.1982   -0.2514 P   0  0  2  0  0  0  0  0  0  0  0  0
   21.4066   71.3839   -1.4444 O   0  0  0  0  0  0  0  0  0  0  0  0
   19.4157   70.0183   -0.4209 O   0  0  0  0  0  0  0  0  0  0  0  0
   21.2137   71.1716    1.0970 O   0  0  0  0  0  0  0  0  0  0  0  0
   22.4195   72.8119    2.3071 O   0  0  0  0  0  0  0  0  0  0  0  0
   24.9158   69.5347    2.6167 O   0  0  0  0  0  0  0  0  0  0  0  0
   23.5982   70.1587    0.0851 O   0  0  0  0  0  0  0  0  0  0  0  0
   23.2940   70.3531    4.8862 O   0  0  0  0  0  0  0  0  0  0  0  0
   23.6652   70.2147    2.5096 C   0  0  2  0  0  0  0  0  0  0  0  0
   23.6325   71.0249    1.2135 C   0  0  2  0  0  0  0  0  0  0  0  0
   23.5254   71.1408    3.7199 C   0  0  1  0  0  0  0  0  0  0  0  0
   22.4107   71.9437    1.1733 C   0  0  1  0  0  0  0  0  0  0  0  0
   22.3602   72.1109    3.5474 C   0  0  1  0  0  0  0  0  0  0  0  0
   25.0268   68.9401    1.8581 H   0  0  0  0  0  0  0  0  0  0  0  0
   24.3706   69.5726    0.1043 H   0  0  0  0  0  0  0  0  0  0  0  0
   24.0285   69.7312    5.0074 H   0  0  0  0  0  0  0  0  0  0  0  0
   21.3747   74.0500    4.4249 O   0  0  0  0  0  0  0  0  0  0  0  0
   23.3129   73.3389    5.3928 O   0  0  0  0  0  0  0  0  0  0  0  0
   22.4306   73.2095    4.5574 C   0  0  0  0  0  0  0  0  0  0  0  0
  1  4  1  0
  1 24  1  0
  1  2  1  1
  1  3  2  0
 25 28  1  0
 25 24  1  0
 25 26  1  6
 25 27  2  0
  6 11  1  0
  6 12  1  0
 29 36  1  0
 29 37  1  0
  9  7  1  6
  7 13  1  0
 10  8  1  6
  8 14  1  0
  4  5  1  0
 36 28  1  1
 33 30  1  1
 30 38  1  0
 34 31  1  6
 31 39  1  0
 35 32  1  1
 32 40  1  0
 41 43  1  0
 15 19  2  0
 42 43  2  0
 16 22  2  0
 12 17  1  1
 17 19  1  0
 17 20  1  0
 18 19  1  0
 18 22  1  0
 18 23  1  0
  9 10  1  0
  9 11  1  0
 10 12  1  0
 11  5  1  1
 33 34  1  0
 33 35  1  0
 34 36  1  0
 35 37  1  0
 37 43  1  1
 20 21  2  0
 21 22  1  0
M  CHG  3   2  -1  26  -1  41  -1
M  END
>  <COMPND>  (129) 
    udp_gluA.pdb 

>  <AUTHOR>  (129) 
    GENERATED BY OPEN BABEL 3.1.1

>  <MASTER>  (129) 
        0    0    0    0    0    0    0    0   56    0   56    0

>  <minimizedAffinity>  (129) 
-6.99777

>  <CNNscore>  (129) 
0.3310550153

>  <CNNaffinity>  (129) 
4.1259980202

>  <CNN_VS>  (129) 
1.3659323454

>  <CNNaffinity_variance>  (129) 
0.0918494239

$$$$
130
     RDKit          3D

 43 45  0  0  0  0  0  0  0  0999 V2000
   22.9248   72.3083   -3.5674 P   0  0  2  0  0  0  0  0  0  0  0  0
   23.5851   70.8359   -3.4460 O   0  0  0  0  0  0  0  0  0  0  0  0
   23.8930   73.4138   -3.8710 O   0  0  0  0  0  0  0  0  0  0  0  0
   22.0810   72.4700   -2.1964 O   0  0  0  0  0  0  0  0  0  0  0  0
   22.7491   72.2716   -0.9640 C   0  0  0  0  0  0  0  0  0  0  0  0
   22.9590   70.7723    0.9030 O   0  0  0  0  0  0  0  0  0  0  0  0
   20.1547   69.9083    0.2859 O   0  0  0  0  0  0  0  0  0  0  0  0
   19.8052   71.6089    2.3887 O   0  0  0  0  0  0  0  0  0  0  0  0
   20.7443   71.2045    0.1826 C   0  0  1  0  0  0  0  0  0  0  0  0
   20.9310   71.8066    1.5592 C   0  0  2  0  0  0  0  0  0  0  0  0
   22.1823   71.0305   -0.2866 C   0  0  1  0  0  0  0  0  0  0  0  0
   22.1627   71.0721    2.0603 C   0  0  2  0  0  0  0  0  0  0  0  0
   19.2353   69.9937    0.5843 H   0  0  0  0  0  0  0  0  0  0  0  0
   19.0478   72.0966    2.0275 H   0  0  0  0  0  0  0  0  0  0  0  0
   23.6984   70.0165    4.1827 O   0  0  0  0  0  0  0  0  0  0  0  0
   25.1088   74.2060    5.4877 O   0  0  0  0  0  0  0  0  0  0  0  0
   22.9409   71.8644    2.9700 N   0  0  0  0  0  0  0  0  0  0  0  0
   24.3985   72.1042    4.8312 N   0  0  0  0  0  0  0  0  0  0  0  0
   23.6765   71.2355    4.0023 C   0  0  0  0  0  0  0  0  0  0  0  0
   22.9717   73.2469    2.8341 C   0  0  0  0  0  0  0  0  0  0  0  0
   23.6647   74.0618    3.6319 C   0  0  0  0  0  0  0  0  0  0  0  0
   24.4596   73.4851    4.7360 C   0  0  0  0  0  0  0  0  0  0  0  0
   24.9169   71.6898    5.5585 H   0  0  0  0  0  0  0  0  0  0  0  0
   21.7720   72.0983   -4.6809 O   0  0  0  0  0  0  0  0  0  0  0  0
   21.2784   73.0507   -5.8904 P   0  0  2  0  0  0  0  0  0  0  0  0
   22.2241   72.6010   -7.1248 O   0  0  0  0  0  0  0  0  0  0  0  0
   21.3263   74.5183   -5.5774 O   0  0  0  0  0  0  0  0  0  0  0  0
   19.8136   72.4960   -6.2766 O   0  0  0  0  0  0  0  0  0  0  0  0
   19.4230   70.3131   -5.4449 O   0  0  0  0  0  0  0  0  0  0  0  0
   16.0716   70.9356   -7.7792 O   0  0  0  0  0  0  0  0  0  0  0  0
   18.7086   71.7666   -8.7226 O   0  0  0  0  0  0  0  0  0  0  0  0
   15.8827   71.0957   -4.8827 O   0  0  0  0  0  0  0  0  0  0  0  0
   17.1496   71.3089   -6.9209 C   0  0  2  0  0  0  0  0  0  0  0  0
   18.4795   70.9466   -7.5826 C   0  0  2  0  0  0  0  0  0  0  0  0
   16.9877   70.5509   -5.6014 C   0  0  1  0  0  0  0  0  0  0  0  0
   19.6421   71.1182   -6.6039 C   0  0  1  0  0  0  0  0  0  0  0  0
   18.2384   70.6677   -4.7349 C   0  0  1  0  0  0  0  0  0  0  0  0
   16.1535   71.4050   -8.6243 H   0  0  0  0  0  0  0  0  0  0  0  0
   17.9745   71.6629   -9.3478 H   0  0  0  0  0  0  0  0  0  0  0  0
   15.0802   71.0278   -5.4233 H   0  0  0  0  0  0  0  0  0  0  0  0
   19.0537   70.0404   -2.6270 O   0  0  0  0  0  0  0  0  0  0  0  0
   17.5116   68.6686   -3.5960 O   0  0  0  0  0  0  0  0  0  0  0  0
   18.2056   69.6740   -3.6196 C   0  0  0  0  0  0  0  0  0  0  0  0
  1  4  1  0
  1 24  1  0
  1  2  1  1
  1  3  2  0
 25 28  1  0
 25 24  1  0
 25 26  1  6
 25 27  2  0
  6 11  1  0
  6 12  1  0
 29 36  1  0
 29 37  1  0
  9  7  1  1
  7 13  1  0
 10  8  1  1
  8 14  1  0
  4  5  1  0
 36 28  1  1
 33 30  1  6
 30 38  1  0
 34 31  1  6
 31 39  1  0
 35 32  1  1
 32 40  1  0
 41 43  1  0
 15 19  2  0
 42 43  2  0
 16 22  2  0
 12 17  1  1
 17 19  1  0
 17 20  1  0
 18 19  1  0
 18 22  1  0
 18 23  1  0
  9 10  1  0
  9 11  1  0
 10 12  1  0
 11  5  1  1
 33 34  1  0
 33 35  1  0
 34 36  1  0
 35 37  1  0
 37 43  1  1
 20 21  2  0
 21 22  1  0
M  CHG  3   2  -1  26  -1  41  -1
M  END
>  <COMPND>  (130) 
    udp_gluA.pdb 

>  <AUTHOR>  (130) 
    GENERATED BY OPEN BABEL 3.1.1

>  <MASTER>  (130) 
        0    0    0    0    0    0    0    0   56    0   56    0

>  <minimizedAffinity>  (130) 
-8.71919

>  <CNNscore>  (130) 
0.3170112669

>  <CNNaffinity>  (130) 
3.8618500233

>  <CNN_VS>  (130) 
1.2242499590

>  <CNNaffinity_variance>  (130) 
0.3022294641

$$$$
131
     RDKit          3D

 43 45  0  0  0  0  0  0  0  0999 V2000
   19.3186   70.7224   -1.3208 P   0  0  2  0  0  0  0  0  0  0  0  0
   20.8813   70.3441   -1.1376 O   0  0  0  0  0  0  0  0  0  0  0  0
   18.4297   69.5756   -1.7036 O   0  0  0  0  0  0  0  0  0  0  0  0
   19.3390   71.9698   -2.3512 O   0  0  0  0  0  0  0  0  0  0  0  0
   20.5134   72.7557   -2.4382 C   0  0  0  0  0  0  0  0  0  0  0  0
   20.6555   71.4742   -4.4668 O   0  0  0  0  0  0  0  0  0  0  0  0
   23.4702   72.4840   -4.6881 O   0  0  0  0  0  0  0  0  0  0  0  0
   22.1234   74.0857   -6.4364 O   0  0  0  0  0  0  0  0  0  0  0  0
   22.3066   73.1513   -4.1991 C   0  0  1  0  0  0  0  0  0  0  0  0
   21.4036   73.5415   -5.3500 C   0  0  2  0  0  0  0  0  0  0  0  0
   21.4552   72.1291   -3.4585 C   0  0  1  0  0  0  0  0  0  0  0  0
   20.7396   72.2187   -5.6923 C   0  0  2  0  0  0  0  0  0  0  0  0
   24.0300   73.1171   -5.1651 H   0  0  0  0  0  0  0  0  0  0  0  0
   22.5268   74.9267   -6.1681 H   0  0  0  0  0  0  0  0  0  0  0  0
   19.6937   70.7505   -7.8665 O   0  0  0  0  0  0  0  0  0  0  0  0
   15.6560   72.9631   -7.6545 O   0  0  0  0  0  0  0  0  0  0  0  0
   19.4180   72.3908   -6.2258 N   0  0  0  0  0  0  0  0  0  0  0  0
   17.6840   71.8546   -7.7595 N   0  0  0  0  0  0  0  0  0  0  0  0
   18.9904   71.6025   -7.3203 C   0  0  0  0  0  0  0  0  0  0  0  0
   18.5607   73.3299   -5.6653 C   0  0  0  0  0  0  0  0  0  0  0  0
   17.3181   73.5587   -6.0948 C   0  0  0  0  0  0  0  0  0  0  0  0
   16.7944   72.7781   -7.2348 C   0  0  0  0  0  0  0  0  0  0  0  0
   17.3647   71.3195   -8.5217 H   0  0  0  0  0  0  0  0  0  0  0  0
   18.9467   71.4213    0.0885 O   0  0  0  0  0  0  0  0  0  0  0  0
   19.8691   72.2037    1.1612 P   0  0  2  0  0  0  0  0  0  0  0  0
   18.9546   72.2147    2.4969 O   0  0  0  0  0  0  0  0  0  0  0  0
   20.3208   73.5624    0.7099 O   0  0  0  0  0  0  0  0  0  0  0  0
   21.0673   71.1770    1.4966 O   0  0  0  0  0  0  0  0  0  0  0  0
   22.8854   72.6006    2.0232 O   0  0  0  0  0  0  0  0  0  0  0  0
   24.4412   68.8813    2.9256 O   0  0  0  0  0  0  0  0  0  0  0  0
   22.8386   69.2708    0.5143 O   0  0  0  0  0  0  0  0  0  0  0  0
   23.5983   70.6671    5.0590 O   0  0  0  0  0  0  0  0  0  0  0  0
   23.4191   69.8690    2.7927 C   0  0  2  0  0  0  0  0  0  0  0  0
   23.3324   70.3229    1.3353 C   0  0  2  0  0  0  0  0  0  0  0  0
   23.7815   71.0492    3.6970 C   0  0  1  0  0  0  0  0  0  0  0  0
   22.4139   71.5375    1.1943 C   0  0  1  0  0  0  0  0  0  0  0  0
   22.9024   72.2627    3.4084 C   0  0  1  0  0  0  0  0  0  0  0  0
   24.2323   68.1214    2.3597 H   0  0  0  0  0  0  0  0  0  0  0  0
   23.4165   68.4967    0.5991 H   0  0  0  0  0  0  0  0  0  0  0  0
   24.1522   69.8956    5.2557 H   0  0  0  0  0  0  0  0  0  0  0  0
   23.1654   73.5246    5.3680 O   0  0  0  0  0  0  0  0  0  0  0  0
   24.1137   74.3486    3.4651 O   0  0  0  0  0  0  0  0  0  0  0  0
   23.4667   73.4902    4.0462 C   0  0  0  0  0  0  0  0  0  0  0  0
  1  4  1  0
  1 24  1  0
  1  2  1  1
  1  3  2  0
 25 28  1  0
 25 24  1  0
 25 26  1  1
 25 27  2  0
  6 11  1  0
  6 12  1  0
 29 36  1  0
 29 37  1  0
  9  7  1  6
  7 13  1  0
 10  8  1  6
  8 14  1  0
  4  5  1  0
 36 28  1  1
 33 30  1  6
 30 38  1  0
 34 31  1  6
 31 39  1  0
 35 32  1  1
 32 40  1  0
 41 43  1  0
 15 19  2  0
 42 43  2  0
 16 22  2  0
 12 17  1  1
 17 19  1  0
 17 20  1  0
 18 19  1  0
 18 22  1  0
 18 23  1  0
  9 10  1  0
  9 11  1  0
 10 12  1  0
 11  5  1  1
 33 34  1  0
 33 35  1  0
 34 36  1  0
 35 37  1  0
 37 43  1  1
 20 21  2  0
 21 22  1  0
M  CHG  3   2  -1  26  -1  41  -1
M  END
>  <COMPND>  (131) 
    udp_gluA.pdb 

>  <AUTHOR>  (131) 
    GENERATED BY OPEN BABEL 3.1.1

>  <MASTER>  (131) 
        0    0    0    0    0    0    0    0   56    0   56    0

>  <minimizedAffinity>  (131) 
-7.41389

>  <CNNscore>  (131) 
0.3042055070

>  <CNNaffinity>  (131) 
4.1264467239

>  <CNN_VS>  (131) 
1.2552877665

>  <CNNaffinity_variance>  (131) 
0.0526415594

$$$$
132
     RDKit          3D

 43 45  0  0  0  0  0  0  0  0999 V2000
   22.6861   73.1477   -3.6293 P   0  0  2  0  0  0  0  0  0  0  0  0
   24.1390   72.9621   -4.3174 O   0  0  0  0  0  0  0  0  0  0  0  0
   22.3870   74.5362   -3.1453 O   0  0  0  0  0  0  0  0  0  0  0  0
   22.6378   71.9859   -2.5042 O   0  0  0  0  0  0  0  0  0  0  0  0
   22.6266   72.3655   -1.1403 C   0  0  0  0  0  0  0  0  0  0  0  0
   21.8348   70.0972   -1.0665 O   0  0  0  0  0  0  0  0  0  0  0  0
   21.3340   70.5633    1.8530 O   0  0  0  0  0  0  0  0  0  0  0  0
   23.6787   69.1710    1.8655 O   0  0  0  0  0  0  0  0  0  0  0  0
   22.3901   71.0551    1.0275 C   0  0  1  0  0  0  0  0  0  0  0  0
   23.3779   69.9481    0.7252 C   0  0  2  0  0  0  0  0  0  0  0  0
   21.8114   71.3504   -0.3495 C   0  0  1  0  0  0  0  0  0  0  0  0
   22.6466   69.1566   -0.3456 C   0  0  2  0  0  0  0  0  0  0  0  0
   21.6797   70.3675    2.7383 H   0  0  0  0  0  0  0  0  0  0  0  0
   24.1438   69.7197    2.5171 H   0  0  0  0  0  0  0  0  0  0  0  0
   23.0122   66.3623   -0.5311 O   0  0  0  0  0  0  0  0  0  0  0  0
   26.1222   66.8094   -3.9034 O   0  0  0  0  0  0  0  0  0  0  0  0
   23.5455   68.5159   -1.2633 N   0  0  0  0  0  0  0  0  0  0  0  0
   24.5616   66.5877   -2.2098 N   0  0  0  0  0  0  0  0  0  0  0  0
   23.6546   67.1052   -1.2757 C   0  0  0  0  0  0  0  0  0  0  0  0
   24.3054   69.2820   -2.1388 C   0  0  0  0  0  0  0  0  0  0  0  0
   25.1656   68.7744   -3.0237 C   0  0  0  0  0  0  0  0  0  0  0  0
   25.3398   67.3091   -3.1006 C   0  0  0  0  0  0  0  0  0  0  0  0
   24.6563   65.6080   -2.2357 H   0  0  0  0  0  0  0  0  0  0  0  0
   21.6744   72.5974   -4.7635 O   0  0  0  0  0  0  0  0  0  0  0  0
   21.2028   73.2430   -6.1687 P   0  0  2  0  0  0  0  0  0  0  0  0
   22.1637   72.5168   -7.2503 O   0  0  0  0  0  0  0  0  0  0  0  0
   21.2536   74.7430   -6.2051 O   0  0  0  0  0  0  0  0  0  0  0  0
   19.7409   72.6159   -6.4371 O   0  0  0  0  0  0  0  0  0  0  0  0
   19.3666   70.4987   -5.4438 O   0  0  0  0  0  0  0  0  0  0  0  0
   16.0667   70.8694   -7.9018 O   0  0  0  0  0  0  0  0  0  0  0  0
   18.7126   71.6738   -8.8435 O   0  0  0  0  0  0  0  0  0  0  0  0
   15.7998   71.2549   -5.0328 O   0  0  0  0  0  0  0  0  0  0  0  0
   17.1154   71.3303   -7.0499 C   0  0  2  0  0  0  0  0  0  0  0  0
   18.4681   70.9425   -7.6477 C   0  0  2  0  0  0  0  0  0  0  0  0
   16.9325   70.6763   -5.6784 C   0  0  1  0  0  0  0  0  0  0  0  0
   19.6017   71.2135   -6.6576 C   0  0  1  0  0  0  0  0  0  0  0  0
   18.1580   70.8855   -4.7936 C   0  0  1  0  0  0  0  0  0  0  0  0
   16.1624   71.2719   -8.7794 H   0  0  0  0  0  0  0  0  0  0  0  0
   17.9969   71.5067   -9.4762 H   0  0  0  0  0  0  0  0  0  0  0  0
   15.0130   71.1288   -5.5858 H   0  0  0  0  0  0  0  0  0  0  0  0
   16.9874   69.2273   -3.6180 O   0  0  0  0  0  0  0  0  0  0  0  0
   18.9702   69.9252   -2.7346 O   0  0  0  0  0  0  0  0  0  0  0  0
   18.1134   69.9828   -3.6038 C   0  0  0  0  0  0  0  0  0  0  0  0
  1  4  1  0
  1 24  1  0
  1  2  1  6
  1  3  2  0
 25 28  1  0
 25 24  1  0
 25 26  1  6
 25 27  2  0
  6 11  1  0
  6 12  1  0
 29 36  1  0
 29 37  1  0
  9  7  1  1
  7 13  1  0
 10  8  1  1
  8 14  1  0
  4  5  1  0
 36 28  1  1
 33 30  1  6
 30 38  1  0
 34 31  1  6
 31 39  1  0
 35 32  1  1
 32 40  1  0
 41 43  1  0
 15 19  2  0
 42 43  2  0
 16 22  2  0
 12 17  1  6
 17 19  1  0
 17 20  1  0
 18 19  1  0
 18 22  1  0
 18 23  1  0
  9 10  1  0
  9 11  1  0
 10 12  1  0
 11  5  1  6
 33 34  1  0
 33 35  1  0
 34 36  1  0
 35 37  1  0
 37 43  1  1
 20 21  2  0
 21 22  1  0
M  CHG  3   2  -1  26  -1  41  -1
M  END
>  <COMPND>  (132) 
    udp_gluA.pdb 

>  <AUTHOR>  (132) 
    GENERATED BY OPEN BABEL 3.1.1

>  <MASTER>  (132) 
        0    0    0    0    0    0    0    0   56    0   56    0

>  <minimizedAffinity>  (132) 
-8.98187

>  <CNNscore>  (132) 
0.3031127453

>  <CNNaffinity>  (132) 
4.2312612534

>  <CNN_VS>  (132) 
1.2825492620

>  <CNNaffinity_variance>  (132) 
0.6760923862

$$$$
133
     RDKit          3D

 43 45  0  0  0  0  0  0  0  0999 V2000
   19.5316   71.0755   -1.7957 P   0  0  2  0  0  0  0  0  0  0  0  0
   21.0232   70.5462   -2.1331 O   0  0  0  0  0  0  0  0  0  0  0  0
   18.6294   70.0618   -1.1552 O   0  0  0  0  0  0  0  0  0  0  0  0
   19.0117   71.6921   -3.1983 O   0  0  0  0  0  0  0  0  0  0  0  0
   18.8374   70.8177   -4.2981 C   0  0  0  0  0  0  0  0  0  0  0  0
   16.6813   71.8628   -4.4901 O   0  0  0  0  0  0  0  0  0  0  0  0
   15.7631   69.3082   -5.7639 O   0  0  0  0  0  0  0  0  0  0  0  0
   16.1428   70.9429   -7.9133 O   0  0  0  0  0  0  0  0  0  0  0  0
   17.0254   69.9673   -5.8684 C   0  0  1  0  0  0  0  0  0  0  0  0
   16.9059   71.1915   -6.7512 C   0  0  2  0  0  0  0  0  0  0  0  0
   17.3479   70.5820   -4.5133 C   0  0  1  0  0  0  0  0  0  0  0  0
   16.2420   72.1897   -5.8181 C   0  0  2  0  0  0  0  0  0  0  0  0
   15.5356   68.9075   -6.6179 H   0  0  0  0  0  0  0  0  0  0  0  0
   16.6078   70.3019   -8.4744 H   0  0  0  0  0  0  0  0  0  0  0  0
   15.0113   73.7862   -7.7962 O   0  0  0  0  0  0  0  0  0  0  0  0
   17.7458   77.3763   -6.8595 O   0  0  0  0  0  0  0  0  0  0  0  0
   16.6126   73.5450   -6.1121 N   0  0  0  0  0  0  0  0  0  0  0  0
   16.3751   75.5724   -7.3285 N   0  0  0  0  0  0  0  0  0  0  0  0
   15.9308   74.2592   -7.1256 C   0  0  0  0  0  0  0  0  0  0  0  0
   17.6388   74.1536   -5.3997 C   0  0  0  0  0  0  0  0  0  0  0  0
   18.0510   75.4062   -5.6044 C   0  0  0  0  0  0  0  0  0  0  0  0
   17.3916   76.2208   -6.6460 C   0  0  0  0  0  0  0  0  0  0  0  0
   15.9169   76.0889   -8.0304 H   0  0  0  0  0  0  0  0  0  0  0  0
   19.8079   72.3924   -0.9000 O   0  0  0  0  0  0  0  0  0  0  0  0
   19.7692   72.6145    0.7009 P   0  0  2  0  0  0  0  0  0  0  0  0
   18.3815   71.9057    1.1392 O   0  0  0  0  0  0  0  0  0  0  0  0
   19.8924   74.0489    1.1268 O   0  0  0  0  0  0  0  0  0  0  0  0
   20.9218   71.6438    1.2767 O   0  0  0  0  0  0  0  0  0  0  0  0
   22.7917   72.8722    2.0536 O   0  0  0  0  0  0  0  0  0  0  0  0
   24.1274   68.9808    2.4291 O   0  0  0  0  0  0  0  0  0  0  0  0
   22.6250   69.8091    0.0646 O   0  0  0  0  0  0  0  0  0  0  0  0
   23.3079   70.4759    4.7837 O   0  0  0  0  0  0  0  0  0  0  0  0
   23.1614   70.0319    2.4201 C   0  0  2  0  0  0  0  0  0  0  0  0
   23.1447   70.6998    1.0449 C   0  0  2  0  0  0  0  0  0  0  0  0
   23.5539   71.0441    3.4987 C   0  0  1  0  0  0  0  0  0  0  0  0
   22.2940   71.9706    1.0643 C   0  0  1  0  0  0  0  0  0  0  0  0
   22.7471   72.3332    3.3729 C   0  0  1  0  0  0  0  0  0  0  0  0
   23.8986   68.3253    1.7514 H   0  0  0  0  0  0  0  0  0  0  0  0
   23.1599   69.0004    0.0471 H   0  0  0  0  0  0  0  0  0  0  0  0
   23.8154   69.6545    4.8766 H   0  0  0  0  0  0  0  0  0  0  0  0
   23.9507   74.3461    3.4102 O   0  0  0  0  0  0  0  0  0  0  0  0
   23.3150   73.4768    5.4201 O   0  0  0  0  0  0  0  0  0  0  0  0
   23.3521   73.4204    4.2001 C   0  0  0  0  0  0  0  0  0  0  0  0
  1  4  1  0
  1 24  1  0
  1  2  1  6
  1  3  2  0
 25 28  1  0
 25 24  1  0
 25 26  1  1
 25 27  2  0
  6 11  1  0
  6 12  1  0
 29 36  1  0
 29 37  1  0
  9  7  1  1
  7 13  1  0
 10  8  1  6
  8 14  1  0
  4  5  1  0
 36 28  1  1
 33 30  1  6
 30 38  1  0
 34 31  1  6
 31 39  1  0
 35 32  1  1
 32 40  1  0
 41 43  1  0
 15 19  2  0
 42 43  2  0
 16 22  2  0
 12 17  1  6
 17 19  1  0
 17 20  1  0
 18 19  1  0
 18 22  1  0
 18 23  1  0
  9 10  1  0
  9 11  1  0
 10 12  1  0
 11  5  1  6
 33 34  1  0
 33 35  1  0
 34 36  1  0
 35 37  1  0
 37 43  1  1
 20 21  2  0
 21 22  1  0
M  CHG  3   2  -1  26  -1  41  -1
M  END
>  <COMPND>  (133) 
    udp_gluA.pdb 

>  <AUTHOR>  (133) 
    GENERATED BY OPEN BABEL 3.1.1

>  <MASTER>  (133) 
        0    0    0    0    0    0    0    0   56    0   56    0

>  <minimizedAffinity>  (133) 
-7.07192

>  <CNNscore>  (133) 
0.2725038528

>  <CNNaffinity>  (133) 
3.7198765278

>  <CNN_VS>  (133) 
1.0136806965

>  <CNNaffinity_variance>  (133) 
0.3707904220

$$$$
134
     RDKit          3D

 43 45  0  0  0  0  0  0  0  0999 V2000
   21.2937   70.8289   -2.3017 P   0  0  2  0  0  0  0  0  0  0  0  0
   21.3297   72.2858   -3.0054 O   0  0  0  0  0  0  0  0  0  0  0  0
   22.4244   69.9162   -2.6763 O   0  0  0  0  0  0  0  0  0  0  0  0
   19.8079   70.2769   -2.6270 O   0  0  0  0  0  0  0  0  0  0  0  0
   19.3842   70.2311   -3.9771 C   0  0  0  0  0  0  0  0  0  0  0  0
   17.4108   69.7446   -2.6939 O   0  0  0  0  0  0  0  0  0  0  0  0
   15.9368   69.7520   -5.3052 O   0  0  0  0  0  0  0  0  0  0  0  0
   15.3401   72.2062   -4.2771 O   0  0  0  0  0  0  0  0  0  0  0  0
   17.0305   70.5667   -4.8826 C   0  0  1  0  0  0  0  0  0  0  0  0
   16.5570   71.6048   -3.8874 C   0  0  2  0  0  0  0  0  0  0  0  0
   17.9549   69.7073   -4.0310 C   0  0  1  0  0  0  0  0  0  0  0  0
   16.4229   70.7845   -2.6158 C   0  0  2  0  0  0  0  0  0  0  0  0
   15.3322   70.2795   -5.8510 H   0  0  0  0  0  0  0  0  0  0  0  0
   15.4779   72.7170   -5.0909 H   0  0  0  0  0  0  0  0  0  0  0  0
   15.1122   70.3738   -0.1480 O   0  0  0  0  0  0  0  0  0  0  0  0
   17.4041   73.8358    1.8535 O   0  0  0  0  0  0  0  0  0  0  0  0
   16.6580   71.5640   -1.4334 N   0  0  0  0  0  0  0  0  0  0  0  0
   16.2542   72.0991    0.8462 N   0  0  0  0  0  0  0  0  0  0  0  0
   15.9465   71.2757   -0.2448 C   0  0  0  0  0  0  0  0  0  0  0  0
   17.5850   72.5989   -1.4580 C   0  0  0  0  0  0  0  0  0  0  0  0
   17.8676   73.3750   -0.4099 C   0  0  0  0  0  0  0  0  0  0  0  0
   17.1675   73.1407    0.8701 C   0  0  0  0  0  0  0  0  0  0  0  0
   15.7700   71.9189    1.6843 H   0  0  0  0  0  0  0  0  0  0  0  0
   21.2114   71.1881   -0.7278 O   0  0  0  0  0  0  0  0  0  0  0  0
   21.6918   70.3618    0.5760 P   0  0  2  0  0  0  0  0  0  0  0  0
   23.3022   70.3225    0.4163 O   0  0  0  0  0  0  0  0  0  0  0  0
   21.0515   69.0114    0.7197 O   0  0  0  0  0  0  0  0  0  0  0  0
   21.4297   71.3622    1.8141 O   0  0  0  0  0  0  0  0  0  0  0  0
   22.2011   73.5780    1.4912 O   0  0  0  0  0  0  0  0  0  0  0  0
   21.2645   73.5920    5.5149 O   0  0  0  0  0  0  0  0  0  0  0  0
   22.6331   71.3037    4.3210 O   0  0  0  0  0  0  0  0  0  0  0  0
   19.5018   74.8896    3.6019 O   0  0  0  0  0  0  0  0  0  0  0  0
   21.1332   73.2028    4.1477 C   0  0  2  0  0  0  0  0  0  0  0  0
   22.4340   72.5547    3.6729 C   0  0  2  0  0  0  0  0  0  0  0  0
   20.8328   74.4580    3.3255 C   0  0  1  0  0  0  0  0  0  0  0  0
   22.4148   72.3342    2.1597 C   0  0  1  0  0  0  0  0  0  0  0  0
   20.9567   74.1865    1.8290 C   0  0  1  0  0  0  0  0  0  0  0  0
   21.4558   72.8103    6.0569 H   0  0  0  0  0  0  0  0  0  0  0  0
   22.6461   71.4362    5.2816 H   0  0  0  0  0  0  0  0  0  0  0  0
   19.4095   75.0657    4.5513 H   0  0  0  0  0  0  0  0  0  0  0  0
   19.7782   76.0760    1.0922 O   0  0  0  0  0  0  0  0  0  0  0  0
   21.9678   75.9108    0.4776 O   0  0  0  0  0  0  0  0  0  0  0  0
   20.9891   75.4663    1.0586 C   0  0  0  0  0  0  0  0  0  0  0  0
  1  4  1  0
  1 24  1  0
  1  2  1  6
  1  3  2  0
 25 28  1  0
 25 24  1  0
 25 26  1  6
 25 27  2  0
  6 11  1  0
  6 12  1  0
 29 36  1  0
 29 37  1  0
  9  7  1  1
  7 13  1  0
 10  8  1  6
  8 14  1  0
  4  5  1  0
 36 28  1  1
 33 30  1  1
 30 38  1  0
 34 31  1  1
 31 39  1  0
 35 32  1  6
 32 40  1  0
 41 43  1  0
 15 19  2  0
 42 43  2  0
 16 22  2  0
 12 17  1  1
 17 19  1  0
 17 20  1  0
 18 19  1  0
 18 22  1  0
 18 23  1  0
  9 10  1  0
  9 11  1  0
 10 12  1  0
 11  5  1  1
 33 34  1  0
 33 35  1  0
 34 36  1  0
 35 37  1  0
 37 43  1  6
 20 21  2  0
 21 22  1  0
M  CHG  3   2  -1  26  -1  41  -1
M  END
>  <COMPND>  (134) 
    udp_gluA.pdb 

>  <AUTHOR>  (134) 
    GENERATED BY OPEN BABEL 3.1.1

>  <MASTER>  (134) 
        0    0    0    0    0    0    0    0   56    0   56    0

>  <minimizedAffinity>  (134) 
-6.37243

>  <CNNscore>  (134) 
0.2702561021

>  <CNNaffinity>  (134) 
3.8585000038

>  <CNN_VS>  (134) 
1.0427831411

>  <CNNaffinity_variance>  (134) 
0.2524927557

$$$$
135
     RDKit          3D

 43 45  0  0  0  0  0  0  0  0999 V2000
   22.2056   70.9249   -2.8085 P   0  0  2  0  0  0  0  0  0  0  0  0
   23.5684   71.2774   -3.6069 O   0  0  0  0  0  0  0  0  0  0  0  0
   21.6059   69.5894   -3.1377 O   0  0  0  0  0  0  0  0  0  0  0  0
   21.2556   72.2070   -3.0765 O   0  0  0  0  0  0  0  0  0  0  0  0
   21.8656   73.4553   -3.3487 C   0  0  0  0  0  0  0  0  0  0  0  0
   22.0827   75.1380   -5.0514 O   0  0  0  0  0  0  0  0  0  0  0  0
   20.1744   73.4837   -6.6680 O   0  0  0  0  0  0  0  0  0  0  0  0
   22.5902   72.8427   -7.7584 O   0  0  0  0  0  0  0  0  0  0  0  0
   21.2033   73.0604   -5.7732 C   0  0  1  0  0  0  0  0  0  0  0  0
   22.5636   73.2562   -6.4083 C   0  0  2  0  0  0  0  0  0  0  0  0
   21.2495   74.0436   -4.6115 C   0  0  1  0  0  0  0  0  0  0  0  0
   22.7726   74.7527   -6.2509 C   0  0  2  0  0  0  0  0  0  0  0  0
   20.1258   72.8706   -7.4186 H   0  0  0  0  0  0  0  0  0  0  0  0
   22.4529   71.8830   -7.8054 H   0  0  0  0  0  0  0  0  0  0  0  0
   24.2546   76.1347   -8.2182 O   0  0  0  0  0  0  0  0  0  0  0  0
   28.0869   76.0396   -5.6592 O   0  0  0  0  0  0  0  0  0  0  0  0
   24.1593   75.1020   -6.1247 N   0  0  0  0  0  0  0  0  0  0  0  0
   26.1622   76.0851   -6.9423 N   0  0  0  0  0  0  0  0  0  0  0  0
   24.8104   75.7966   -7.1715 C   0  0  0  0  0  0  0  0  0  0  0  0
   24.8590   74.7590   -4.9742 C   0  0  0  0  0  0  0  0  0  0  0  0
   26.1473   75.0410   -4.7700 C   0  0  0  0  0  0  0  0  0  0  0  0
   26.9012   75.7641   -5.8151 C   0  0  0  0  0  0  0  0  0  0  0  0
   26.6373   76.5663   -7.6578 H   0  0  0  0  0  0  0  0  0  0  0  0
   22.6342   71.1075   -1.2607 O   0  0  0  0  0  0  0  0  0  0  0  0
   22.4429   70.1338    0.0156 P   0  0  2  0  0  0  0  0  0  0  0  0
   23.6027   69.0233   -0.1892 O   0  0  0  0  0  0  0  0  0  0  0  0
   21.0603   69.5655    0.1548 O   0  0  0  0  0  0  0  0  0  0  0  0
   22.9365   71.0103    1.2768 O   0  0  0  0  0  0  0  0  0  0  0  0
   22.5655   71.5997    3.5404 O   0  0  0  0  0  0  0  0  0  0  0  0
   21.7704   75.1610    1.6031 O   0  0  0  0  0  0  0  0  0  0  0  0
   20.8125   72.6303    0.5020 O   0  0  0  0  0  0  0  0  0  0  0  0
   24.2696   74.8113    3.0463 O   0  0  0  0  0  0  0  0  0  0  0  0
   22.4145   73.9032    1.8056 C   0  0  2  0  0  0  0  0  0  0  0  0
   21.3700   72.7868    1.8018 C   0  0  2  0  0  0  0  0  0  0  0  0
   23.1356   73.9529    3.1545 C   0  0  1  0  0  0  0  0  0  0  0  0
   21.9871   71.4587    2.2423 C   0  0  1  0  0  0  0  0  0  0  0  0
   23.6114   72.5679    3.5832 C   0  0  1  0  0  0  0  0  0  0  0  0
   21.3053   75.1530    0.7517 H   0  0  0  0  0  0  0  0  0  0  0  0
   20.4194   73.4694    0.2161 H   0  0  0  0  0  0  0  0  0  0  0  0
   23.9804   75.6962    2.7739 H   0  0  0  0  0  0  0  0  0  0  0  0
   23.3535   73.5376    5.7032 O   0  0  0  0  0  0  0  0  0  0  0  0
   24.8170   71.7980    5.5262 O   0  0  0  0  0  0  0  0  0  0  0  0
   24.0113   72.5663    5.0228 C   0  0  0  0  0  0  0  0  0  0  0  0
  1  4  1  0
  1 24  1  0
  1  2  1  6
  1  3  2  0
 25 28  1  0
 25 24  1  0
 25 26  1  6
 25 27  2  0
  6 11  1  0
  6 12  1  0
 29 36  1  0
 29 37  1  0
  9  7  1  6
  7 13  1  0
 10  8  1  6
  8 14  1  0
  4  5  1  0
 36 28  1  6
 33 30  1  1
 30 38  1  0
 34 31  1  6
 31 39  1  0
 35 32  1  6
 32 40  1  0
 41 43  1  0
 15 19  2  0
 42 43  2  0
 16 22  2  0
 12 17  1  1
 17 19  1  0
 17 20  1  0
 18 19  1  0
 18 22  1  0
 18 23  1  0
  9 10  1  0
  9 11  1  0
 10 12  1  0
 11  5  1  1
 33 34  1  0
 33 35  1  0
 34 36  1  0
 35 37  1  0
 37 43  1  1
 20 21  2  0
 21 22  1  0
M  CHG  3   2  -1  26  -1  41  -1
M  END
>  <COMPND>  (135) 
    udp_gluA.pdb 

>  <AUTHOR>  (135) 
    GENERATED BY OPEN BABEL 3.1.1

>  <MASTER>  (135) 
        0    0    0    0    0    0    0    0   56    0   56    0

>  <minimizedAffinity>  (135) 
-6.98770

>  <CNNscore>  (135) 
0.2687547505

>  <CNNaffinity>  (135) 
3.6866889000

>  <CNN_VS>  (135) 
0.9908151627

>  <CNNaffinity_variance>  (135) 
0.1752506495

$$$$
136
     RDKit          3D

 43 45  0  0  0  0  0  0  0  0999 V2000
   22.1389   72.7950   -4.6146 P   0  0  2  0  0  0  0  0  0  0  0  0
   22.7453   73.0087   -6.0997 O   0  0  0  0  0  0  0  0  0  0  0  0
   22.7842   71.6987   -3.8185 O   0  0  0  0  0  0  0  0  0  0  0  0
   20.5477   72.6396   -4.8633 O   0  0  0  0  0  0  0  0  0  0  0  0
   20.0611   72.7068   -6.1911 C   0  0  0  0  0  0  0  0  0  0  0  0
   18.7715   70.7939   -5.5165 O   0  0  0  0  0  0  0  0  0  0  0  0
   18.6524   70.0807   -8.4266 O   0  0  0  0  0  0  0  0  0  0  0  0
   16.2065   71.2035   -7.9878 O   0  0  0  0  0  0  0  0  0  0  0  0
   18.6259   71.3682   -7.8099 C   0  0  1  0  0  0  0  0  0  0  0  0
   17.2784   71.6123   -7.1641 C   0  0  2  0  0  0  0  0  0  0  0  0
   19.5550   71.3308   -6.6043 C   0  0  1  0  0  0  0  0  0  0  0  0
   17.3849   70.7893   -5.8916 C   0  0  2  0  0  0  0  0  0  0  0  0
   18.0661   70.0800   -9.1998 H   0  0  0  0  0  0  0  0  0  0  0  0
   16.1811   71.7577   -8.7841 H   0  0  0  0  0  0  0  0  0  0  0  0
   16.7021   69.3868   -3.5371 O   0  0  0  0  0  0  0  0  0  0  0  0
   14.4022   72.9998   -1.8339 O   0  0  0  0  0  0  0  0  0  0  0  0
   16.6086   71.3394   -4.8166 N   0  0  0  0  0  0  0  0  0  0  0  0
   15.5564   71.1873   -2.6915 N   0  0  0  0  0  0  0  0  0  0  0  0
   16.3213   70.5505   -3.6777 C   0  0  0  0  0  0  0  0  0  0  0  0
   16.1423   72.6461   -4.8958 C   0  0  0  0  0  0  0  0  0  0  0  0
   15.4145   73.2394   -3.9477 C   0  0  0  0  0  0  0  0  0  0  0  0
   15.0695   72.4840   -2.7255 C   0  0  0  0  0  0  0  0  0  0  0  0
   15.3419   70.6573   -1.8900 H   0  0  0  0  0  0  0  0  0  0  0  0
   22.2620   74.2665   -3.9572 O   0  0  0  0  0  0  0  0  0  0  0  0
   21.9353   74.7926   -2.4638 P   0  0  2  0  0  0  0  0  0  0  0  0
   21.0646   76.1318   -2.7256 O   0  0  0  0  0  0  0  0  0  0  0  0
   23.1492   75.0021   -1.6055 O   0  0  0  0  0  0  0  0  0  0  0  0
   20.8763   73.7266   -1.8769 O   0  0  0  0  0  0  0  0  0  0  0  0
   19.6109   73.2831    0.0754 O   0  0  0  0  0  0  0  0  0  0  0  0
   21.4875   69.6564   -0.5520 O   0  0  0  0  0  0  0  0  0  0  0  0
   22.9532   72.1605   -0.8919 O   0  0  0  0  0  0  0  0  0  0  0  0
   18.6741   69.9767   -1.2100 O   0  0  0  0  0  0  0  0  0  0  0  0
   20.8842   70.8940   -0.9293 C   0  0  2  0  0  0  0  0  0  0  0  0
   21.6613   72.0534   -0.3052 C   0  0  2  0  0  0  0  0  0  0  0  0
   19.4394   70.8890   -0.4249 C   0  0  1  0  0  0  0  0  0  0  0  0
   20.9169   73.3758   -0.4948 C   0  0  1  0  0  0  0  0  0  0  0  0
   18.8073   72.2738   -0.5317 C   0  0  1  0  0  0  0  0  0  0  0  0
   22.4066   69.6368   -0.8619 H   0  0  0  0  0  0  0  0  0  0  0  0
   23.4310   71.3248   -0.7755 H   0  0  0  0  0  0  0  0  0  0  0  0
   19.0660   69.0914   -1.1508 H   0  0  0  0  0  0  0  0  0  0  0  0
   17.5393   73.4154    1.0778 O   0  0  0  0  0  0  0  0  0  0  0  0
   16.6180   71.5389    0.1672 O   0  0  0  0  0  0  0  0  0  0  0  0
   17.5374   72.3391    0.2528 C   0  0  0  0  0  0  0  0  0  0  0  0
  1  4  1  0
  1 24  1  0
  1  2  1  6
  1  3  2  0
 25 28  1  0
 25 24  1  0
 25 26  1  6
 25 27  2  0
  6 11  1  0
  6 12  1  0
 29 36  1  0
 29 37  1  0
  9  7  1  1
  7 13  1  0
 10  8  1  6
  8 14  1  0
  4  5  1  0
 36 28  1  6
 33 30  1  1
 30 38  1  0
 34 31  1  6
 31 39  1  0
 35 32  1  6
 32 40  1  0
 41 43  1  0
 15 19  2  0
 42 43  2  0
 16 22  2  0
 12 17  1  1
 17 19  1  0
 17 20  1  0
 18 19  1  0
 18 22  1  0
 18 23  1  0
  9 10  1  0
  9 11  1  0
 10 12  1  0
 11  5  1  1
 33 34  1  0
 33 35  1  0
 34 36  1  0
 35 37  1  0
 37 43  1  1
 20 21  2  0
 21 22  1  0
M  CHG  3   2  -1  26  -1  41  -1
M  END
>  <COMPND>  (136) 
    udp_gluA.pdb 

>  <AUTHOR>  (136) 
    GENERATED BY OPEN BABEL 3.1.1

>  <MASTER>  (136) 
        0    0    0    0    0    0    0    0   56    0   56    0

>  <minimizedAffinity>  (136) 
-6.05947

>  <CNNscore>  (136) 
0.2665952742

>  <CNNaffinity>  (136) 
3.8048934937

>  <CNN_VS>  (136) 
1.0143666267

>  <CNNaffinity_variance>  (136) 
0.7495622635

$$$$
137
     RDKit          3D

 43 45  0  0  0  0  0  0  0  0999 V2000
   22.2588   71.4958   -3.3459 P   0  0  2  0  0  0  0  0  0  0  0  0
   21.8228   72.2158   -1.9638 O   0  0  0  0  0  0  0  0  0  0  0  0
   23.5157   72.0287   -3.9689 O   0  0  0  0  0  0  0  0  0  0  0  0
   20.9292   71.5798   -4.2641 O   0  0  0  0  0  0  0  0  0  0  0  0
   20.1468   70.4115   -4.4294 C   0  0  0  0  0  0  0  0  0  0  0  0
   18.1815   71.5023   -3.5776 O   0  0  0  0  0  0  0  0  0  0  0  0
   17.6147   68.9399   -2.1269 O   0  0  0  0  0  0  0  0  0  0  0  0
   15.9395   68.7925   -4.2736 O   0  0  0  0  0  0  0  0  0  0  0  0
   18.1893   69.1390   -3.4188 C   0  0  1  0  0  0  0  0  0  0  0  0
   17.1217   69.5533   -4.4091 C   0  0  2  0  0  0  0  0  0  0  0  0
   19.0659   70.3824   -3.3565 C   0  0  1  0  0  0  0  0  0  0  0  0
   16.9181   71.0175   -4.0592 C   0  0  2  0  0  0  0  0  0  0  0  0
   17.0502   68.1508   -2.1419 H   0  0  0  0  0  0  0  0  0  0  0  0
   16.1212   67.8683   -4.5078 H   0  0  0  0  0  0  0  0  0  0  0  0
   15.3954   73.3909   -3.9008 O   0  0  0  0  0  0  0  0  0  0  0  0
   15.4437   73.9435   -8.4765 O   0  0  0  0  0  0  0  0  0  0  0  0
   16.5187   71.8016   -5.1935 N   0  0  0  0  0  0  0  0  0  0  0  0
   15.4200   73.6633   -6.1800 N   0  0  0  0  0  0  0  0  0  0  0  0
   15.7545   72.9774   -5.0049 C   0  0  0  0  0  0  0  0  0  0  0  0
   16.8847   71.4053   -6.4741 C   0  0  0  0  0  0  0  0  0  0  0  0
   16.5585   72.0696   -7.5845 C   0  0  0  0  0  0  0  0  0  0  0  0
   15.7603   73.3082   -7.4753 C   0  0  0  0  0  0  0  0  0  0  0  0
   14.8865   74.4840   -6.0742 H   0  0  0  0  0  0  0  0  0  0  0  0
   22.3201   69.9330   -2.9374 O   0  0  0  0  0  0  0  0  0  0  0  0
   23.3833   69.1120   -2.0378 P   0  0  2  0  0  0  0  0  0  0  0  0
   24.8134   69.5975   -2.6202 O   0  0  0  0  0  0  0  0  0  0  0  0
   23.1827   67.6242   -2.0519 O   0  0  0  0  0  0  0  0  0  0  0  0
   23.2890   69.7864   -0.5753 O   0  0  0  0  0  0  0  0  0  0  0  0
   23.3730   69.0107    1.6608 O   0  0  0  0  0  0  0  0  0  0  0  0
   20.3012   71.7674    1.8421 O   0  0  0  0  0  0  0  0  0  0  0  0
   20.5158   69.9362   -0.4240 O   0  0  0  0  0  0  0  0  0  0  0  0
   22.9174   72.4246    2.9258 O   0  0  0  0  0  0  0  0  0  0  0  0
   21.5303   71.2150    1.3708 C   0  0  2  0  0  0  0  0  0  0  0  0
   21.2741   69.8304    0.7753 C   0  0  2  0  0  0  0  0  0  0  0  0
   22.4898   71.1143    2.5588 C   0  0  1  0  0  0  0  0  0  0  0  0
   22.5904   69.1138    0.4707 C   0  0  1  0  0  0  0  0  0  0  0  0
   23.7191   70.2791    2.2127 C   0  0  1  0  0  0  0  0  0  0  0  0
   19.6755   71.8409    1.1042 H   0  0  0  0  0  0  0  0  0  0  0  0
   19.6793   70.3902   -0.2381 H   0  0  0  0  0  0  0  0  0  0  0  0
   22.1444   72.9666    3.1483 H   0  0  0  0  0  0  0  0  0  0  0  0
   23.7431   70.1826    4.5562 O   0  0  0  0  0  0  0  0  0  0  0  0
   25.5995   69.4324    3.4651 O   0  0  0  0  0  0  0  0  0  0  0  0
   24.4760   69.9123    3.4476 C   0  0  0  0  0  0  0  0  0  0  0  0
  1  4  1  0
  1 24  1  0
  1  2  1  1
  1  3  2  0
 25 28  1  0
 25 24  1  0
 25 26  1  6
 25 27  2  0
  6 11  1  0
  6 12  1  0
 29 36  1  0
 29 37  1  0
  9  7  1  1
  7 13  1  0
 10  8  1  1
  8 14  1  0
  4  5  1  0
 36 28  1  6
 33 30  1  1
 30 38  1  0
 34 31  1  6
 31 39  1  0
 35 32  1  6
 32 40  1  0
 41 43  1  0
 15 19  2  0
 42 43  2  0
 16 22  2  0
 12 17  1  6
 17 19  1  0
 17 20  1  0
 18 19  1  0
 18 22  1  0
 18 23  1  0
  9 10  1  0
  9 11  1  0
 10 12  1  0
 11  5  1  6
 33 34  1  0
 33 35  1  0
 34 36  1  0
 35 37  1  0
 37 43  1  1
 20 21  2  0
 21 22  1  0
M  CHG  3   2  -1  26  -1  41  -1
M  END
>  <COMPND>  (137) 
    udp_gluA.pdb 

>  <AUTHOR>  (137) 
    GENERATED BY OPEN BABEL 3.1.1

>  <MASTER>  (137) 
        0    0    0    0    0    0    0    0   56    0   56    0

>  <minimizedAffinity>  (137) 
-9.02364

>  <CNNscore>  (137) 
0.2600850761

>  <CNNaffinity>  (137) 
3.9935193062

>  <CNN_VS>  (137) 
1.0386548042

>  <CNNaffinity_variance>  (137) 
0.2769994736

$$$$
138
     RDKit          3D

 43 45  0  0  0  0  0  0  0  0999 V2000
   20.6065   74.8766   -3.5662 P   0  0  2  0  0  0  0  0  0  0  0  0
   20.5023   76.4770   -3.7824 O   0  0  0  0  0  0  0  0  0  0  0  0
   19.2990   74.1850   -3.3135 O   0  0  0  0  0  0  0  0  0  0  0  0
   21.7233   74.7131   -2.4069 O   0  0  0  0  0  0  0  0  0  0  0  0
   21.4548   73.8362   -1.3283 C   0  0  0  0  0  0  0  0  0  0  0  0
   22.9099   71.9948   -0.8091 O   0  0  0  0  0  0  0  0  0  0  0  0
   21.0530   70.3067   -2.4505 O   0  0  0  0  0  0  0  0  0  0  0  0
   20.2937   69.7188    0.1017 O   0  0  0  0  0  0  0  0  0  0  0  0
   20.7524   71.4049   -1.5890 C   0  0  1  0  0  0  0  0  0  0  0  0
   20.8745   70.9832   -0.1401 C   0  0  2  0  0  0  0  0  0  0  0  0
   21.8750   72.4253   -1.7196 C   0  0  1  0  0  0  0  0  0  0  0  0
   22.3801   70.9835    0.0627 C   0  0  2  0  0  0  0  0  0  0  0  0
   20.3497   69.6415   -2.3843 H   0  0  0  0  0  0  0  0  0  0  0  0
   19.3350   69.7710   -0.0404 H   0  0  0  0  0  0  0  0  0  0  0  0
   23.5993   69.1564    1.8380 O   0  0  0  0  0  0  0  0  0  0  0  0
   23.7587   72.2753    5.2278 O   0  0  0  0  0  0  0  0  0  0  0  0
   22.7509   71.2917    1.4149 N   0  0  0  0  0  0  0  0  0  0  0  0
   23.6766   70.7112    3.5249 N   0  0  0  0  0  0  0  0  0  0  0  0
   23.3577   70.3018    2.2235 C   0  0  0  0  0  0  0  0  0  0  0  0
   22.5147   72.5619    1.9265 C   0  0  0  0  0  0  0  0  0  0  0  0
   22.8243   72.9374    3.1690 C   0  0  0  0  0  0  0  0  0  0  0  0
   23.4606   71.9626    4.0791 C   0  0  0  0  0  0  0  0  0  0  0  0
   24.0981   70.0386    4.1074 H   0  0  0  0  0  0  0  0  0  0  0  0
   21.3850   74.3811   -4.8933 O   0  0  0  0  0  0  0  0  0  0  0  0
   21.5064   72.9170   -5.5682 P   0  0  2  0  0  0  0  0  0  0  0  0
   22.5337   72.1414   -4.5867 O   0  0  0  0  0  0  0  0  0  0  0  0
   21.9241   72.9364   -7.0101 O   0  0  0  0  0  0  0  0  0  0  0  0
   20.0773   72.2204   -5.2944 O   0  0  0  0  0  0  0  0  0  0  0  0
   19.3090   70.0419   -4.7719 O   0  0  0  0  0  0  0  0  0  0  0  0
   16.5390   71.2579   -7.5855 O   0  0  0  0  0  0  0  0  0  0  0  0
   19.3789   71.8326   -7.9586 O   0  0  0  0  0  0  0  0  0  0  0  0
   15.8292   71.2050   -4.7670 O   0  0  0  0  0  0  0  0  0  0  0  0
   17.4706   71.4253   -6.5169 C   0  0  2  0  0  0  0  0  0  0  0  0
   18.8549   70.9574   -6.9666 C   0  0  2  0  0  0  0  0  0  0  0  0
   16.9853   70.5887   -5.3310 C   0  0  1  0  0  0  0  0  0  0  0  0
   19.8252   70.9052   -5.7857 C   0  0  1  0  0  0  0  0  0  0  0  0
   18.0568   70.4805   -4.2499 C   0  0  1  0  0  0  0  0  0  0  0  0
   16.8269   71.7806   -8.3505 H   0  0  0  0  0  0  0  0  0  0  0  0
   18.7681   71.8708   -8.7108 H   0  0  0  0  0  0  0  0  0  0  0  0
   15.1395   71.2800   -5.4449 H   0  0  0  0  0  0  0  0  0  0  0  0
   16.9332   68.4622   -3.8427 O   0  0  0  0  0  0  0  0  0  0  0  0
   18.0759   69.3865   -2.0995 O   0  0  0  0  0  0  0  0  0  0  0  0
   17.7108   69.4113   -3.2653 C   0  0  0  0  0  0  0  0  0  0  0  0
  1  4  1  0
  1 24  1  0
  1  2  1  6
  1  3  2  0
 25 28  1  0
 25 24  1  0
 25 26  1  1
 25 27  2  0
  6 11  1  0
  6 12  1  0
 29 36  1  0
 29 37  1  0
  9  7  1  6
  7 13  1  0
 10  8  1  6
  8 14  1  0
  4  5  1  0
 36 28  1  1
 33 30  1  6
 30 38  1  0
 34 31  1  6
 31 39  1  0
 35 32  1  1
 32 40  1  0
 41 43  1  0
 15 19  2  0
 42 43  2  0
 16 22  2  0
 12 17  1  1
 17 19  1  0
 17 20  1  0
 18 19  1  0
 18 22  1  0
 18 23  1  0
  9 10  1  0
  9 11  1  0
 10 12  1  0
 11  5  1  1
 33 34  1  0
 33 35  1  0
 34 36  1  0
 35 37  1  0
 37 43  1  1
 20 21  2  0
 21 22  1  0
M  CHG  3   2  -1  26  -1  41  -1
M  END
>  <COMPND>  (138) 
    udp_gluA.pdb 

>  <AUTHOR>  (138) 
    GENERATED BY OPEN BABEL 3.1.1

>  <MASTER>  (138) 
        0    0    0    0    0    0    0    0   56    0   56    0

>  <minimizedAffinity>  (138) 
-7.74874

>  <CNNscore>  (138) 
0.2578919232

>  <CNNaffinity>  (138) 
3.9546387196

>  <CNN_VS>  (138) 
1.0198693275

>  <CNNaffinity_variance>  (138) 
0.2127971649

$$$$
139
     RDKit          3D

 43 45  0  0  0  0  0  0  0  0999 V2000
   22.2178   72.8653   -4.6999 P   0  0  2  0  0  0  0  0  0  0  0  0
   22.5663   73.8384   -5.9452 O   0  0  0  0  0  0  0  0  0  0  0  0
   23.3877   72.1124   -4.1375 O   0  0  0  0  0  0  0  0  0  0  0  0
   20.9951   71.9575   -5.2466 O   0  0  0  0  0  0  0  0  0  0  0  0
   20.3810   72.3167   -6.4706 C   0  0  0  0  0  0  0  0  0  0  0  0
   18.8606   70.5383   -5.9196 O   0  0  0  0  0  0  0  0  0  0  0  0
   18.3298   70.3305   -8.8635 O   0  0  0  0  0  0  0  0  0  0  0  0
   16.1662   71.7261   -7.9650 O   0  0  0  0  0  0  0  0  0  0  0  0
   18.5839   71.4905   -8.0708 C   0  0  1  0  0  0  0  0  0  0  0  0
   17.3694   71.8290   -7.2326 C   0  0  2  0  0  0  0  0  0  0  0  0
   19.6100   71.1184   -7.0092 C   0  0  1  0  0  0  0  0  0  0  0  0
   17.4627   70.8050   -6.1143 C   0  0  2  0  0  0  0  0  0  0  0  0
   17.6768   70.5437   -9.5490 H   0  0  0  0  0  0  0  0  0  0  0  0
   16.1549   72.3988   -8.6644 H   0  0  0  0  0  0  0  0  0  0  0  0
   16.4571   69.1439   -4.0634 O   0  0  0  0  0  0  0  0  0  0  0  0
   15.3392   72.7597   -1.4327 O   0  0  0  0  0  0  0  0  0  0  0  0
   16.9032   71.2859   -4.8828 N   0  0  0  0  0  0  0  0  0  0  0  0
   15.9004   70.9464   -2.7555 N   0  0  0  0  0  0  0  0  0  0  0  0
   16.4259   70.3674   -3.9181 C   0  0  0  0  0  0  0  0  0  0  0  0
   16.8329   72.6523   -4.6399 C   0  0  0  0  0  0  0  0  0  0  0  0
   16.3294   73.1892   -3.5268 C   0  0  0  0  0  0  0  0  0  0  0  0
   15.8085   72.2988   -2.4688 C   0  0  0  0  0  0  0  0  0  0  0  0
   15.5600   70.3270   -2.0702 H   0  0  0  0  0  0  0  0  0  0  0  0
   21.4918   73.8608   -3.6536 O   0  0  0  0  0  0  0  0  0  0  0  0
   22.0140   74.5079   -2.2672 P   0  0  2  0  0  0  0  0  0  0  0  0
   21.0285   75.7746   -2.0559 O   0  0  0  0  0  0  0  0  0  0  0  0
   23.4750   74.8532   -2.2605 O   0  0  0  0  0  0  0  0  0  0  0  0
   21.5702   73.4528   -1.1304 O   0  0  0  0  0  0  0  0  0  0  0  0
   22.8265   73.0514    0.8368 O   0  0  0  0  0  0  0  0  0  0  0  0
   20.6215   69.5719    0.5229 O   0  0  0  0  0  0  0  0  0  0  0  0
   21.8301   70.7781   -1.8475 O   0  0  0  0  0  0  0  0  0  0  0  0
   19.8923   71.5894    2.4846 O   0  0  0  0  0  0  0  0  0  0  0  0
   20.8805   70.9681    0.3769 C   0  0  2  0  0  0  0  0  0  0  0  0
   22.1101   71.1707   -0.5088 C   0  0  2  0  0  0  0  0  0  0  0  0
   21.1262   71.5517    1.7702 C   0  0  1  0  0  0  0  0  0  0  0  0
   22.5545   72.6340   -0.5016 C   0  0  1  0  0  0  0  0  0  0  0  0
   21.6869   72.9686    1.6897 C   0  0  1  0  0  0  0  0  0  0  0  0
   20.4623   69.1794   -0.3500 H   0  0  0  0  0  0  0  0  0  0  0  0
   21.5472   69.8506   -1.8596 H   0  0  0  0  0  0  0  0  0  0  0  0
   19.5248   70.6937    2.5428 H   0  0  0  0  0  0  0  0  0  0  0  0
   23.5707   73.5706    2.9508 O   0  0  0  0  0  0  0  0  0  0  0  0
   21.5565   73.5827    4.0194 O   0  0  0  0  0  0  0  0  0  0  0  0
   22.2267   73.4014    3.0139 C   0  0  0  0  0  0  0  0  0  0  0  0
  1  4  1  0
  1 24  1  0
  1  2  1  6
  1  3  2  0
 25 28  1  0
 25 24  1  0
 25 26  1  1
 25 27  2  0
  6 11  1  0
  6 12  1  0
 29 36  1  0
 29 37  1  0
  9  7  1  6
  7 13  1  0
 10  8  1  6
  8 14  1  0
  4  5  1  0
 36 28  1  1
 33 30  1  1
 30 38  1  0
 34 31  1  6
 31 39  1  0
 35 32  1  1
 32 40  1  0
 41 43  1  0
 15 19  2  0
 42 43  2  0
 16 22  2  0
 12 17  1  1
 17 19  1  0
 17 20  1  0
 18 19  1  0
 18 22  1  0
 18 23  1  0
  9 10  1  0
  9 11  1  0
 10 12  1  0
 11  5  1  1
 33 34  1  0
 33 35  1  0
 34 36  1  0
 35 37  1  0
 37 43  1  1
 20 21  2  0
 21 22  1  0
M  CHG  3   2  -1  26  -1  41  -1
M  END
>  <COMPND>  (139) 
    udp_gluA.pdb 

>  <AUTHOR>  (139) 
    GENERATED BY OPEN BABEL 3.1.1

>  <MASTER>  (139) 
        0    0    0    0    0    0    0    0   56    0   56    0

>  <minimizedAffinity>  (139) 
-6.80080

>  <CNNscore>  (139) 
0.2459755391

>  <CNNaffinity>  (139) 
3.8936734200

>  <CNN_VS>  (139) 
0.9577484131

>  <CNNaffinity_variance>  (139) 
0.4864469171

$$$$
140
     RDKit          3D

 43 45  0  0  0  0  0  0  0  0999 V2000
   18.6630   73.4754   -0.3208 P   0  0  2  0  0  0  0  0  0  0  0  0
   19.9857   73.1234   -1.1840 O   0  0  0  0  0  0  0  0  0  0  0  0
   18.1505   74.8757   -0.4894 O   0  0  0  0  0  0  0  0  0  0  0  0
   19.0595   73.0494    1.1889 O   0  0  0  0  0  0  0  0  0  0  0  0
   20.1877   73.6587    1.7892 C   0  0  0  0  0  0  0  0  0  0  0  0
   20.8978   71.5025    2.5792 O   0  0  0  0  0  0  0  0  0  0  0  0
   21.8574   72.9260    5.0378 O   0  0  0  0  0  0  0  0  0  0  0  0
   24.1601   72.5618    3.6231 O   0  0  0  0  0  0  0  0  0  0  0  0
   21.8654   73.3641    3.6789 C   0  0  1  0  0  0  0  0  0  0  0  0
   22.9482   72.6448    2.9027 C   0  0  2  0  0  0  0  0  0  0  0  0
   20.5982   72.8475    3.0114 C   0  0  1  0  0  0  0  0  0  0  0  0
   22.3150   71.2845    2.6647 C   0  0  2  0  0  0  0  0  0  0  0  0
   22.6577   73.2440    5.4851 H   0  0  0  0  0  0  0  0  0  0  0  0
   24.5234   73.4530    3.7485 H   0  0  0  0  0  0  0  0  0  0  0  0
   24.6822   69.7624    2.4273 O   0  0  0  0  0  0  0  0  0  0  0  0
   23.9542   68.9925   -2.0583 O   0  0  0  0  0  0  0  0  0  0  0  0
   22.7679   70.6748    1.4466 N   0  0  0  0  0  0  0  0  0  0  0  0
   24.3179   69.3813    0.1932 N   0  0  0  0  0  0  0  0  0  0  0  0
   23.9714   69.9307    1.4347 C   0  0  0  0  0  0  0  0  0  0  0  0
   22.0229   70.8150    0.2820 C   0  0  0  0  0  0  0  0  0  0  0  0
   22.3659   70.2853   -0.8938 C   0  0  0  0  0  0  0  0  0  0  0  0
   23.6098   69.4939   -0.9924 C   0  0  0  0  0  0  0  0  0  0  0  0
   25.1528   68.8607    0.1596 H   0  0  0  0  0  0  0  0  0  0  0  0
   17.6228   72.3199   -0.7631 O   0  0  0  0  0  0  0  0  0  0  0  0
   17.8265   71.0009   -1.6754 P   0  0  2  0  0  0  0  0  0  0  0  0
   16.3226   70.4228   -1.8310 O   0  0  0  0  0  0  0  0  0  0  0  0
   18.8137   70.0150   -1.1208 O   0  0  0  0  0  0  0  0  0  0  0  0
   18.1978   71.5689   -3.1389 O   0  0  0  0  0  0  0  0  0  0  0  0
   17.6406   70.5860   -5.2204 O   0  0  0  0  0  0  0  0  0  0  0  0
   21.0787   72.6712   -6.1689 O   0  0  0  0  0  0  0  0  0  0  0  0
   20.8991   71.1706   -3.6689 O   0  0  0  0  0  0  0  0  0  0  0  0
   18.4813   73.6933   -6.9811 O   0  0  0  0  0  0  0  0  0  0  0  0
   19.8591   72.4173   -5.4717 C   0  0  2  0  0  0  0  0  0  0  0  0
   19.9598   71.0819   -4.7340 C   0  0  2  0  0  0  0  0  0  0  0  0
   18.7268   72.3731   -6.5002 C   0  0  1  0  0  0  0  0  0  0  0  0
   18.6016   70.6663   -4.1671 C   0  0  1  0  0  0  0  0  0  0  0  0
   17.4390   71.8297   -5.8880 C   0  0  1  0  0  0  0  0  0  0  0  0
   21.8128   72.7036   -5.5354 H   0  0  0  0  0  0  0  0  0  0  0  0
   21.7631   71.4342   -4.0214 H   0  0  0  0  0  0  0  0  0  0  0  0
   19.2933   74.0508   -7.3732 H   0  0  0  0  0  0  0  0  0  0  0  0
   16.2913   70.1384   -7.0385 O   0  0  0  0  0  0  0  0  0  0  0  0
   15.8609   72.2914   -7.6537 O   0  0  0  0  0  0  0  0  0  0  0  0
   16.4506   71.4824   -6.9532 C   0  0  0  0  0  0  0  0  0  0  0  0
  1  4  1  0
  1 24  1  0
  1  2  1  6
  1  3  2  0
 25 28  1  0
 25 24  1  0
 25 26  1  6
 25 27  2  0
  6 11  1  0
  6 12  1  0
 29 36  1  0
 29 37  1  0
  9  7  1  1
  7 13  1  0
 10  8  1  1
  8 14  1  0
  4  5  1  0
 36 28  1  1
 33 30  1  6
 30 38  1  0
 34 31  1  1
 31 39  1  0
 35 32  1  1
 32 40  1  0
 41 43  1  0
 15 19  2  0
 42 43  2  0
 16 22  2  0
 12 17  1  6
 17 19  1  0
 17 20  1  0
 18 19  1  0
 18 22  1  0
 18 23  1  0
  9 10  1  0
  9 11  1  0
 10 12  1  0
 11  5  1  6
 33 34  1  0
 33 35  1  0
 34 36  1  0
 35 37  1  0
 37 43  1  6
 20 21  2  0
 21 22  1  0
M  CHG  3   2  -1  26  -1  41  -1
M  END
>  <COMPND>  (140) 
    udp_gluA.pdb 

>  <AUTHOR>  (140) 
    GENERATED BY OPEN BABEL 3.1.1

>  <MASTER>  (140) 
        0    0    0    0    0    0    0    0   56    0   56    0

>  <minimizedAffinity>  (140) 
-7.16381

>  <CNNscore>  (140) 
0.2390995622

>  <CNNaffinity>  (140) 
3.9383730888

>  <CNN_VS>  (140) 
0.9416632652

>  <CNNaffinity_variance>  (140) 
0.2354625016

$$$$
141
     RDKit          3D

 43 45  0  0  0  0  0  0  0  0999 V2000
   22.5747   72.0181   -3.1909 P   0  0  2  0  0  0  0  0  0  0  0  0
   23.4599   72.4871   -4.4619 O   0  0  0  0  0  0  0  0  0  0  0  0
   23.2852   71.1205   -2.2207 O   0  0  0  0  0  0  0  0  0  0  0  0
   21.2312   71.4099   -3.8565 O   0  0  0  0  0  0  0  0  0  0  0  0
   20.4451   70.5129   -3.0936 C   0  0  0  0  0  0  0  0  0  0  0  0
   18.7083   71.7326   -4.2220 O   0  0  0  0  0  0  0  0  0  0  0  0
   16.8320   70.5772   -2.1882 O   0  0  0  0  0  0  0  0  0  0  0  0
   16.3915   69.0004   -4.3689 O   0  0  0  0  0  0  0  0  0  0  0  0
   17.9737   69.9821   -2.8053 C   0  0  1  0  0  0  0  0  0  0  0  0
   17.6596   69.6081   -4.2384 C   0  0  2  0  0  0  0  0  0  0  0  0
   19.0296   71.0647   -2.9827 C   0  0  1  0  0  0  0  0  0  0  0  0
   17.7385   70.9533   -4.9399 C   0  0  2  0  0  0  0  0  0  0  0  0
   16.1435   69.9047   -2.0645 H   0  0  0  0  0  0  0  0  0  0  0  0
   16.3925   68.1475   -3.9059 H   0  0  0  0  0  0  0  0  0  0  0  0
   16.0272   70.2491   -7.0735 O   0  0  0  0  0  0  0  0  0  0  0  0
   19.4484   70.5259  -10.1496 O   0  0  0  0  0  0  0  0  0  0  0  0
   18.1558   70.8341   -6.3083 N   0  0  0  0  0  0  0  0  0  0  0  0
   17.7330   70.3866   -8.6034 N   0  0  0  0  0  0  0  0  0  0  0  0
   17.2167   70.4745   -7.3038 C   0  0  0  0  0  0  0  0  0  0  0  0
   19.4805   71.0736   -6.6529 C   0  0  0  0  0  0  0  0  0  0  0  0
   19.9577   70.9861   -7.8960 C   0  0  0  0  0  0  0  0  0  0  0  0
   19.0423   70.6148   -8.9949 C   0  0  0  0  0  0  0  0  0  0  0  0
   17.0986   70.1358   -9.3133 H   0  0  0  0  0  0  0  0  0  0  0  0
   22.0678   73.4194   -2.5647 O   0  0  0  0  0  0  0  0  0  0  0  0
   22.7714   74.4303   -1.5176 P   0  0  2  0  0  0  0  0  0  0  0  0
   21.6682   75.6008   -1.3352 O   0  0  0  0  0  0  0  0  0  0  0  0
   24.1249   74.9178   -1.9469 O   0  0  0  0  0  0  0  0  0  0  0  0
   22.7600   73.6375   -0.1127 O   0  0  0  0  0  0  0  0  0  0  0  0
   21.3692   71.7730    0.3327 O   0  0  0  0  0  0  0  0  0  0  0  0
   22.1737   73.1510    4.1435 O   0  0  0  0  0  0  0  0  0  0  0  0
   21.5763   75.0275    1.9856 O   0  0  0  0  0  0  0  0  0  0  0  0
   23.5085   70.7714    3.1402 O   0  0  0  0  0  0  0  0  0  0  0  0
   22.4440   72.8999    2.7644 C   0  0  2  0  0  0  0  0  0  0  0  0
   21.4064   73.6173    1.9006 C   0  0  2  0  0  0  0  0  0  0  0  0
   22.3732   71.3884    2.5362 C   0  0  1  0  0  0  0  0  0  0  0  0
   21.5225   73.1890    0.4371 C   0  0  1  0  0  0  0  0  0  0  0  0
   22.3677   71.0493    1.0484 C   0  0  1  0  0  0  0  0  0  0  0  0
   22.2132   74.1056    4.3123 H   0  0  0  0  0  0  0  0  0  0  0  0
   21.5041   75.3062    2.9116 H   0  0  0  0  0  0  0  0  0  0  0  0
   23.5240   70.9796    4.0874 H   0  0  0  0  0  0  0  0  0  0  0  0
   23.0584   68.8158    0.8589 O   0  0  0  0  0  0  0  0  0  0  0  0
   20.8267   69.2354    0.6525 O   0  0  0  0  0  0  0  0  0  0  0  0
   21.9710   69.6254    0.8303 C   0  0  0  0  0  0  0  0  0  0  0  0
  1  4  1  0
  1 24  1  0
  1  2  1  6
  1  3  2  0
 25 28  1  0
 25 24  1  0
 25 26  1  1
 25 27  2  0
  6 11  1  0
  6 12  1  0
 29 36  1  0
 29 37  1  0
  9  7  1  6
  7 13  1  0
 10  8  1  1
  8 14  1  0
  4  5  1  0
 36 28  1  1
 33 30  1  1
 30 38  1  0
 34 31  1  6
 31 39  1  0
 35 32  1  1
 32 40  1  0
 41 43  1  0
 15 19  2  0
 42 43  2  0
 16 22  2  0
 12 17  1  6
 17 19  1  0
 17 20  1  0
 18 19  1  0
 18 22  1  0
 18 23  1  0
  9 10  1  0
  9 11  1  0
 10 12  1  0
 11  5  1  6
 33 34  1  0
 33 35  1  0
 34 36  1  0
 35 37  1  0
 37 43  1  1
 20 21  2  0
 21 22  1  0
M  CHG  3   2  -1  26  -1  41  -1
M  END
>  <COMPND>  (141) 
    udp_gluA.pdb 

>  <AUTHOR>  (141) 
    GENERATED BY OPEN BABEL 3.1.1

>  <MASTER>  (141) 
        0    0    0    0    0    0    0    0   56    0   56    0

>  <minimizedAffinity>  (141) 
-7.77531

>  <CNNscore>  (141) 
0.8879121542

>  <CNNaffinity>  (141) 
4.8280396461

>  <CNN_VS>  (141) 
4.2868752480

>  <CNNaffinity_variance>  (141) 
0.0094422512

$$$$
142
     RDKit          3D

 43 45  0  0  0  0  0  0  0  0999 V2000
   22.5256   71.1496   -1.7971 P   0  0  2  0  0  0  0  0  0  0  0  0
   22.9906   72.6718   -2.0898 O   0  0  0  0  0  0  0  0  0  0  0  0
   23.0993   70.1218   -2.7279 O   0  0  0  0  0  0  0  0  0  0  0  0
   20.9105   71.2377   -1.7570 O   0  0  0  0  0  0  0  0  0  0  0  0
   20.1727   70.5937   -2.7795 C   0  0  0  0  0  0  0  0  0  0  0  0
   18.4476   71.7581   -3.9819 O   0  0  0  0  0  0  0  0  0  0  0  0
   16.5178   70.4964   -2.0647 O   0  0  0  0  0  0  0  0  0  0  0  0
   16.2575   68.9358   -4.2857 O   0  0  0  0  0  0  0  0  0  0  0  0
   17.7139   69.9579   -2.6285 C   0  0  1  0  0  0  0  0  0  0  0  0
   17.4907   69.5929   -4.0808 C   0  0  2  0  0  0  0  0  0  0  0  0
   18.7316   71.0853   -2.7361 C   0  0  1  0  0  0  0  0  0  0  0  0
   17.5498   70.9506   -4.7599 C   0  0  2  0  0  0  0  0  0  0  0  0
   15.8525   69.7945   -1.9861 H   0  0  0  0  0  0  0  0  0  0  0  0
   16.2699   68.0768   -3.8342 H   0  0  0  0  0  0  0  0  0  0  0  0
   15.9839   70.2045   -6.9887 O   0  0  0  0  0  0  0  0  0  0  0  0
   19.5448   70.6720   -9.8775 O   0  0  0  0  0  0  0  0  0  0  0  0
   18.0424   70.8691   -6.1059 N   0  0  0  0  0  0  0  0  0  0  0  0
   17.7592   70.4370   -8.4252 N   0  0  0  0  0  0  0  0  0  0  0  0
   17.1729   70.4839   -7.1536 C   0  0  0  0  0  0  0  0  0  0  0  0
   19.3715   71.1702   -6.3775 C   0  0  0  0  0  0  0  0  0  0  0  0
   19.9159   71.1211   -7.5948 C   0  0  0  0  0  0  0  0  0  0  0  0
   19.0758   70.7268   -8.7447 C   0  0  0  0  0  0  0  0  0  0  0  0
   17.1740   70.1695   -9.1704 H   0  0  0  0  0  0  0  0  0  0  0  0
   22.9170   70.9432   -0.2424 O   0  0  0  0  0  0  0  0  0  0  0  0
   22.1959   70.0953    0.9301 P   0  0  2  0  0  0  0  0  0  0  0  0
   23.4150   69.2512    1.5794 O   0  0  0  0  0  0  0  0  0  0  0  0
   21.0424   69.2557    0.4626 O   0  0  0  0  0  0  0  0  0  0  0  0
   21.8156   71.1901    2.0522 O   0  0  0  0  0  0  0  0  0  0  0  0
   21.3545   73.5068    1.8807 O   0  0  0  0  0  0  0  0  0  0  0  0
   23.2457   73.2954    5.5477 O   0  0  0  0  0  0  0  0  0  0  0  0
   24.2486   71.7602    3.2735 O   0  0  0  0  0  0  0  0  0  0  0  0
   20.3614   73.6320    5.4106 O   0  0  0  0  0  0  0  0  0  0  0  0
   22.4302   72.8281    4.4731 C   0  0  2  0  0  0  0  0  0  0  0  0
   23.2570   72.7771    3.1880 C   0  0  2  0  0  0  0  0  0  0  0  0
   21.2573   73.7980    4.3132 C   0  0  1  0  0  0  0  0  0  0  0  0
   22.3665   72.5036    1.9751 C   0  0  1  0  0  0  0  0  0  0  0  0
   20.4941   73.5403    3.0172 C   0  0  1  0  0  0  0  0  0  0  0  0
   23.9978   72.6945    5.6679 H   0  0  0  0  0  0  0  0  0  0  0  0
   24.8171   71.9273    4.0412 H   0  0  0  0  0  0  0  0  0  0  0  0
   20.8348   73.7931    6.2417 H   0  0  0  0  0  0  0  0  0  0  0  0
   19.8452   75.7413    3.5033 O   0  0  0  0  0  0  0  0  0  0  0  0
   18.6981   74.6583    1.8569 O   0  0  0  0  0  0  0  0  0  0  0  0
   19.5744   74.6766    2.7083 C   0  0  0  0  0  0  0  0  0  0  0  0
  1  4  1  0
  1 24  1  0
  1  2  1  6
  1  3  2  0
 25 28  1  0
 25 24  1  0
 25 26  1  1
 25 27  2  0
  6 11  1  0
  6 12  1  0
 29 36  1  0
 29 37  1  0
  9  7  1  6
  7 13  1  0
 10  8  1  1
  8 14  1  0
  4  5  1  0
 36 28  1  1
 33 30  1  1
 30 38  1  0
 34 31  1  1
 31 39  1  0
 35 32  1  1
 32 40  1  0
 41 43  1  0
 15 19  2  0
 42 43  2  0
 16 22  2  0
 12 17  1  6
 17 19  1  0
 17 20  1  0
 18 19  1  0
 18 22  1  0
 18 23  1  0
  9 10  1  0
  9 11  1  0
 10 12  1  0
 11  5  1  6
 33 34  1  0
 33 35  1  0
 34 36  1  0
 35 37  1  0
 37 43  1  6
 20 21  2  0
 21 22  1  0
M  CHG  3   2  -1  26  -1  41  -1
M  END
>  <COMPND>  (142) 
    udp_gluA.pdb 

>  <AUTHOR>  (142) 
    GENERATED BY OPEN BABEL 3.1.1

>  <MASTER>  (142) 
        0    0    0    0    0    0    0    0   56    0   56    0

>  <minimizedAffinity>  (142) 
-8.11853

>  <CNNscore>  (142) 
0.7721909881

>  <CNNaffinity>  (142) 
4.8209147453

>  <CNN_VS>  (142) 
3.7226669788

>  <CNNaffinity_variance>  (142) 
0.0452087782

$$$$
143
     RDKit          3D

 43 45  0  0  0  0  0  0  0  0999 V2000
   20.0815   71.4062   -0.3823 P   0  0  2  0  0  0  0  0  0  0  0  0
   19.2511   71.5085    1.0029 O   0  0  0  0  0  0  0  0  0  0  0  0
   21.0095   72.5544   -0.6509 O   0  0  0  0  0  0  0  0  0  0  0  0
   18.9412   71.1479   -1.5007 O   0  0  0  0  0  0  0  0  0  0  0  0
   18.7182   72.1442   -2.4816 C   0  0  0  0  0  0  0  0  0  0  0  0
   17.1597   72.4373   -4.2880 O   0  0  0  0  0  0  0  0  0  0  0  0
   15.1862   70.9637   -2.5777 O   0  0  0  0  0  0  0  0  0  0  0  0
   16.0136   69.0403   -4.3248 O   0  0  0  0  0  0  0  0  0  0  0  0
   16.5936   70.7635   -2.7103 C   0  0  1  0  0  0  0  0  0  0  0  0
   16.9057   70.0955   -4.0327 C   0  0  2  0  0  0  0  0  0  0  0  0
   17.2481   72.1277   -2.8802 C   0  0  1  0  0  0  0  0  0  0  0  0
   16.7812   71.2535   -5.0081 C   0  0  2  0  0  0  0  0  0  0  0  0
   14.7462   70.1058   -2.4679 H   0  0  0  0  0  0  0  0  0  0  0  0
   16.1319   68.3281   -3.6762 H   0  0  0  0  0  0  0  0  0  0  0  0
   15.9994   70.0782   -7.4544 O   0  0  0  0  0  0  0  0  0  0  0  0
   20.1659   70.7365   -9.3121 O   0  0  0  0  0  0  0  0  0  0  0  0
   17.6416   71.1050   -6.1477 N   0  0  0  0  0  0  0  0  0  0  0  0
   18.0756   70.4063   -8.3769 N   0  0  0  0  0  0  0  0  0  0  0  0
   17.1505   70.5003   -7.3289 C   0  0  0  0  0  0  0  0  0  0  0  0
   18.9543   71.5569   -6.0891 C   0  0  0  0  0  0  0  0  0  0  0  0
   19.8243   71.4604   -7.0964 C   0  0  0  0  0  0  0  0  0  0  0  0
   19.3913   70.8405   -8.3658 C   0  0  0  0  0  0  0  0  0  0  0  0
   17.7574   69.9870   -9.2090 H   0  0  0  0  0  0  0  0  0  0  0  0
   20.8077   69.9669   -0.2646 O   0  0  0  0  0  0  0  0  0  0  0  0
   22.3083   69.5688    0.1864 P   0  0  2  0  0  0  0  0  0  0  0  0
   23.2376   70.4065   -0.8407 O   0  0  0  0  0  0  0  0  0  0  0  0
   22.5762   68.0917    0.1986 O   0  0  0  0  0  0  0  0  0  0  0  0
   22.5149   70.2985    1.6102 O   0  0  0  0  0  0  0  0  0  0  0  0
   22.9541   72.6237    1.7103 O   0  0  0  0  0  0  0  0  0  0  0  0
   24.1808   71.3745    5.4524 O   0  0  0  0  0  0  0  0  0  0  0  0
   24.8219   69.7949    3.0800 O   0  0  0  0  0  0  0  0  0  0  0  0
   21.6568   72.7823    5.1387 O   0  0  0  0  0  0  0  0  0  0  0  0
   23.3872   71.3509    4.2659 C   0  0  2  0  0  0  0  0  0  0  0  0
   24.2871   71.1132    3.0530 C   0  0  2  0  0  0  0  0  0  0  0  0
   22.6769   72.7011    4.1452 C   0  0  1  0  0  0  0  0  0  0  0  0
   23.5116   71.3095    1.7496 C   0  0  1  0  0  0  0  0  0  0  0  0
   22.0347   72.8718    2.7716 C   0  0  1  0  0  0  0  0  0  0  0  0
   24.6418   70.5264    5.5501 H   0  0  0  0  0  0  0  0  0  0  0  0
   25.3150   69.6633    3.9045 H   0  0  0  0  0  0  0  0  0  0  0  0
   22.0523   72.6750    6.0179 H   0  0  0  0  0  0  0  0  0  0  0  0
   22.4054   75.1299    3.2863 O   0  0  0  0  0  0  0  0  0  0  0  0
   20.7449   74.6621    1.7954 O   0  0  0  0  0  0  0  0  0  0  0  0
   21.6368   74.2940    2.5451 C   0  0  0  0  0  0  0  0  0  0  0  0
  1  4  1  0
  1 24  1  0
  1  2  1  1
  1  3  2  0
 25 28  1  0
 25 24  1  0
 25 26  1  6
 25 27  2  0
  6 11  1  0
  6 12  1  0
 29 36  1  0
 29 37  1  0
  9  7  1  6
  7 13  1  0
 10  8  1  6
  8 14  1  0
  4  5  1  0
 36 28  1  1
 33 30  1  1
 30 38  1  0
 34 31  1  1
 31 39  1  0
 35 32  1  1
 32 40  1  0
 41 43  1  0
 15 19  2  0
 42 43  2  0
 16 22  2  0
 12 17  1  6
 17 19  1  0
 17 20  1  0
 18 19  1  0
 18 22  1  0
 18 23  1  0
  9 10  1  0
  9 11  1  0
 10 12  1  0
 11  5  1  6
 33 34  1  0
 33 35  1  0
 34 36  1  0
 35 37  1  0
 37 43  1  6
 20 21  2  0
 21 22  1  0
M  CHG  3   2  -1  26  -1  41  -1
M  END
>  <COMPND>  (143) 
    udp_gluA.pdb 

>  <AUTHOR>  (143) 
    GENERATED BY OPEN BABEL 3.1.1

>  <MASTER>  (143) 
        0    0    0    0    0    0    0    0   56    0   56    0

>  <minimizedAffinity>  (143) 
-7.43561

>  <CNNscore>  (143) 
0.7075089216

>  <CNNaffinity>  (143) 
4.4765057564

>  <CNN_VS>  (143) 
3.1671676636

>  <CNNaffinity_variance>  (143) 
0.0711944401

$$$$
144
     RDKit          3D

 43 45  0  0  0  0  0  0  0  0999 V2000
   19.4399   74.1408   -1.3672 P   0  0  2  0  0  0  0  0  0  0  0  0
   19.3016   75.7370   -1.1392 O   0  0  0  0  0  0  0  0  0  0  0  0
   20.5069   73.7297   -2.3390 O   0  0  0  0  0  0  0  0  0  0  0  0
   17.9362   73.6690   -1.7336 O   0  0  0  0  0  0  0  0  0  0  0  0
   17.5379   73.6748   -3.0922 C   0  0  0  0  0  0  0  0  0  0  0  0
   16.2778   72.3722   -4.6711 O   0  0  0  0  0  0  0  0  0  0  0  0
   15.2650   70.8294   -2.3078 O   0  0  0  0  0  0  0  0  0  0  0  0
   17.1924   69.1828   -3.3128 O   0  0  0  0  0  0  0  0  0  0  0  0
   16.5565   71.3957   -2.5312 C   0  0  1  0  0  0  0  0  0  0  0  0
   17.3230   70.5701   -3.5427 C   0  0  2  0  0  0  0  0  0  0  0  0
   16.3701   72.7133   -3.2710 C   0  0  1  0  0  0  0  0  0  0  0  0
   16.6895   71.0080   -4.8522 C   0  0  2  0  0  0  0  0  0  0  0  0
   15.3584   69.9864   -1.8363 H   0  0  0  0  0  0  0  0  0  0  0  0
   17.6115   68.9543   -2.4677 H   0  0  0  0  0  0  0  0  0  0  0  0
   15.9228   70.6255   -7.5433 O   0  0  0  0  0  0  0  0  0  0  0  0
   20.2940   70.7612   -8.9988 O   0  0  0  0  0  0  0  0  0  0  0  0
   17.6067   70.9395   -5.9545 N   0  0  0  0  0  0  0  0  0  0  0  0
   18.1007   70.6924   -8.2655 N   0  0  0  0  0  0  0  0  0  0  0  0
   17.1182   70.7444   -7.2680 C   0  0  0  0  0  0  0  0  0  0  0  0
   18.9721   71.0665   -5.7296 C   0  0  0  0  0  0  0  0  0  0  0  0
   19.8965   71.0149   -6.6906 C   0  0  0  0  0  0  0  0  0  0  0  0
   19.4699   70.8129   -8.0908 C   0  0  0  0  0  0  0  0  0  0  0  0
   17.7850   70.5553   -9.1880 H   0  0  0  0  0  0  0  0  0  0  0  0
   19.6423   73.5761    0.1338 O   0  0  0  0  0  0  0  0  0  0  0  0
   19.2041   72.1737    0.8083 P   0  0  2  0  0  0  0  0  0  0  0  0
   19.2359   71.1388   -0.4360 O   0  0  0  0  0  0  0  0  0  0  0  0
   17.8926   72.2242    1.5372 O   0  0  0  0  0  0  0  0  0  0  0  0
   20.4628   71.7488    1.7236 O   0  0  0  0  0  0  0  0  0  0  0  0
   22.3739   72.9880    2.3723 O   0  0  0  0  0  0  0  0  0  0  0  0
   23.9055   69.1605    2.1029 O   0  0  0  0  0  0  0  0  0  0  0  0
   22.0464   70.1573    0.0818 O   0  0  0  0  0  0  0  0  0  0  0  0
   23.3735   70.3394    4.7064 O   0  0  0  0  0  0  0  0  0  0  0  0
   22.9067   70.1500    2.3503 C   0  0  2  0  0  0  0  0  0  0  0  0
   22.6654   70.9629    1.0781 C   0  0  2  0  0  0  0  0  0  0  0  0
   23.4091   71.0582    3.4749 C   0  0  1  0  0  0  0  0  0  0  0  0
   21.7758   72.1738    1.3630 C   0  0  1  0  0  0  0  0  0  0  0  0
   22.5413   72.3058    3.6131 C   0  0  1  0  0  0  0  0  0  0  0  0
   23.6082   68.5715    1.3915 H   0  0  0  0  0  0  0  0  0  0  0  0
   22.6054   69.3869   -0.1037 H   0  0  0  0  0  0  0  0  0  0  0  0
   23.9218   69.5428    4.6317 H   0  0  0  0  0  0  0  0  0  0  0  0
   23.4117   74.4776    3.7780 O   0  0  0  0  0  0  0  0  0  0  0  0
   23.5435   73.1605    5.6346 O   0  0  0  0  0  0  0  0  0  0  0  0
   23.2147   73.3280    4.4698 C   0  0  0  0  0  0  0  0  0  0  0  0
  1  4  1  0
  1 24  1  0
  1  2  1  1
  1  3  2  0
 25 28  1  0
 25 24  1  0
 25 26  1  6
 25 27  2  0
  6 11  1  0
  6 12  1  0
 29 36  1  0
 29 37  1  0
  9  7  1  6
  7 13  1  0
 10  8  1  1
  8 14  1  0
  4  5  1  0
 36 28  1  1
 33 30  1  6
 30 38  1  0
 34 31  1  6
 31 39  1  0
 35 32  1  1
 32 40  1  0
 41 43  1  0
 15 19  2  0
 42 43  2  0
 16 22  2  0
 12 17  1  6
 17 19  1  0
 17 20  1  0
 18 19  1  0
 18 22  1  0
 18 23  1  0
  9 10  1  0
  9 11  1  0
 10 12  1  0
 11  5  1  6
 33 34  1  0
 33 35  1  0
 34 36  1  0
 35 37  1  0
 37 43  1  1
 20 21  2  0
 21 22  1  0
M  CHG  3   2  -1  26  -1  41  -1
M  END
>  <COMPND>  (144) 
    udp_gluA.pdb 

>  <AUTHOR>  (144) 
    GENERATED BY OPEN BABEL 3.1.1

>  <MASTER>  (144) 
        0    0    0    0    0    0    0    0   56    0   56    0

>  <minimizedAffinity>  (144) 
-6.83456

>  <CNNscore>  (144) 
0.6015890241

>  <CNNaffinity>  (144) 
4.4384818077

>  <CNN_VS>  (144) 
2.6701419353

>  <CNNaffinity_variance>  (144) 
0.0145533178

$$$$
145
     RDKit          3D

 43 45  0  0  0  0  0  0  0  0999 V2000
   22.8655   69.5917   -2.2370 P   0  0  2  0  0  0  0  0  0  0  0  0
   23.8646   70.4346   -3.1910 O   0  0  0  0  0  0  0  0  0  0  0  0
   23.1902   68.1319   -2.1119 O   0  0  0  0  0  0  0  0  0  0  0  0
   21.3939   69.9372   -2.8138 O   0  0  0  0  0  0  0  0  0  0  0  0
   21.1479   71.2440   -3.2999 C   0  0  0  0  0  0  0  0  0  0  0  0
   19.1326   72.1208   -4.2733 O   0  0  0  0  0  0  0  0  0  0  0  0
   17.6929   70.8766   -1.9558 O   0  0  0  0  0  0  0  0  0  0  0  0
   17.2407   69.0909   -3.9665 O   0  0  0  0  0  0  0  0  0  0  0  0
   18.8310   70.3997   -2.6741 C   0  0  1  0  0  0  0  0  0  0  0  0
   18.4124   69.8766   -4.0319 C   0  0  2  0  0  0  0  0  0  0  0  0
   19.6890   71.6012   -3.0462 C   0  0  1  0  0  0  0  0  0  0  0  0
   18.2117   71.1618   -4.8167 C   0  0  2  0  0  0  0  0  0  0  0  0
   17.1295   70.1267   -1.7072 H   0  0  0  0  0  0  0  0  0  0  0  0
   17.4202   68.2845   -3.4571 H   0  0  0  0  0  0  0  0  0  0  0  0
   16.2786   70.4181   -6.7368 O   0  0  0  0  0  0  0  0  0  0  0  0
   19.3606   70.5576  -10.1611 O   0  0  0  0  0  0  0  0  0  0  0  0
   18.4817   70.9965   -6.2170 N   0  0  0  0  0  0  0  0  0  0  0  0
   17.8157   70.4873   -8.4403 N   0  0  0  0  0  0  0  0  0  0  0  0
   17.4397   70.6204   -7.0972 C   0  0  0  0  0  0  0  0  0  0  0  0
   19.7653   71.2079   -6.7054 C   0  0  0  0  0  0  0  0  0  0  0  0
   20.1084   71.0772   -7.9884 C   0  0  0  0  0  0  0  0  0  0  0  0
   19.0789   70.6861   -8.9735 C   0  0  0  0  0  0  0  0  0  0  0  0
   17.1077   70.2242   -9.0718 H   0  0  0  0  0  0  0  0  0  0  0  0
   22.9127   70.4135   -0.8459 O   0  0  0  0  0  0  0  0  0  0  0  0
   22.2802   70.0823    0.6046 P   0  0  2  0  0  0  0  0  0  0  0  0
   23.4472   69.2269    1.3304 O   0  0  0  0  0  0  0  0  0  0  0  0
   20.9484   69.3913    0.5524 O   0  0  0  0  0  0  0  0  0  0  0  0
   22.2705   71.4971    1.3797 O   0  0  0  0  0  0  0  0  0  0  0  0
   22.6870   71.6922    3.7029 O   0  0  0  0  0  0  0  0  0  0  0  0
   20.6308   75.1891    2.9208 O   0  0  0  0  0  0  0  0  0  0  0  0
   19.7706   72.6663    1.7249 O   0  0  0  0  0  0  0  0  0  0  0  0
   23.5099   75.2471    3.3181 O   0  0  0  0  0  0  0  0  0  0  0  0
   21.5061   74.0994    2.6307 C   0  0  2  0  0  0  0  0  0  0  0  0
   20.7420   72.7813    2.7582 C   0  0  2  0  0  0  0  0  0  0  0  0
   22.6631   74.1429    3.6314 C   0  0  1  0  0  0  0  0  0  0  0  0
   21.6944   71.5872    2.6815 C   0  0  1  0  0  0  0  0  0  0  0  0
   23.4920   72.8627    3.5806 C   0  0  1  0  0  0  0  0  0  0  0  0
   19.8875   75.1819    2.2973 H   0  0  0  0  0  0  0  0  0  0  0  0
   19.1630   73.4210    1.7675 H   0  0  0  0  0  0  0  0  0  0  0  0
   22.9945   76.0682    3.3468 H   0  0  0  0  0  0  0  0  0  0  0  0
   24.3737   71.5218    5.2912 O   0  0  0  0  0  0  0  0  0  0  0  0
   25.0765   73.6891    5.2016 O   0  0  0  0  0  0  0  0  0  0  0  0
   24.3994   72.7710    4.7640 C   0  0  0  0  0  0  0  0  0  0  0  0
  1  4  1  0
  1 24  1  0
  1  2  1  6
  1  3  2  0
 25 28  1  0
 25 24  1  0
 25 26  1  1
 25 27  2  0
  6 11  1  0
  6 12  1  0
 29 36  1  0
 29 37  1  0
  9  7  1  1
  7 13  1  0
 10  8  1  1
  8 14  1  0
  4  5  1  0
 36 28  1  6
 33 30  1  1
 30 38  1  0
 34 31  1  6
 31 39  1  0
 35 32  1  6
 32 40  1  0
 41 43  1  0
 15 19  2  0
 42 43  2  0
 16 22  2  0
 12 17  1  6
 17 19  1  0
 17 20  1  0
 18 19  1  0
 18 22  1  0
 18 23  1  0
  9 10  1  0
  9 11  1  0
 10 12  1  0
 11  5  1  6
 33 34  1  0
 33 35  1  0
 34 36  1  0
 35 37  1  0
 37 43  1  1
 20 21  2  0
 21 22  1  0
M  CHG  3   2  -1  26  -1  41  -1
M  END
>  <COMPND>  (145) 
    udp_gluA.pdb 

>  <AUTHOR>  (145) 
    GENERATED BY OPEN BABEL 3.1.1

>  <MASTER>  (145) 
        0    0    0    0    0    0    0    0   56    0   56    0

>  <minimizedAffinity>  (145) 
-8.59131

>  <CNNscore>  (145) 
0.5750787854

>  <CNNaffinity>  (145) 
4.6378870010

>  <CNN_VS>  (145) 
2.6671504974

>  <CNNaffinity_variance>  (145) 
0.0406812727

$$$$
146
     RDKit          3D

 43 45  0  0  0  0  0  0  0  0999 V2000
   18.8421   71.1209   -1.4313 P   0  0  2  0  0  0  0  0  0  0  0  0
   18.2447   69.6308   -1.6353 O   0  0  0  0  0  0  0  0  0  0  0  0
   17.9376   72.2325   -1.8762 O   0  0  0  0  0  0  0  0  0  0  0  0
   20.2894   71.0614   -2.1523 O   0  0  0  0  0  0  0  0  0  0  0  0
   20.8983   72.2769   -2.5476 C   0  0  0  0  0  0  0  0  0  0  0  0
   21.3273   71.1049   -4.6019 O   0  0  0  0  0  0  0  0  0  0  0  0
   23.6472   72.9700   -4.9646 O   0  0  0  0  0  0  0  0  0  0  0  0
   21.7552   74.0457   -6.6076 O   0  0  0  0  0  0  0  0  0  0  0  0
   22.3611   73.2265   -4.3998 C   0  0  1  0  0  0  0  0  0  0  0  0
   21.3147   73.3008   -5.4915 C   0  0  2  0  0  0  0  0  0  0  0  0
   21.9304   71.9859   -3.6295 C   0  0  1  0  0  0  0  0  0  0  0  0
   21.0946   71.8335   -5.8177 C   0  0  2  0  0  0  0  0  0  0  0  0
   23.9435   73.7488   -5.4619 H   0  0  0  0  0  0  0  0  0  0  0  0
   21.8804   74.9726   -6.3486 H   0  0  0  0  0  0  0  0  0  0  0  0
   20.4384   70.9995   -8.4351 O   0  0  0  0  0  0  0  0  0  0  0  0
   15.9378   70.8431   -7.4531 O   0  0  0  0  0  0  0  0  0  0  0  0
   19.7593   71.5677   -6.2730 N   0  0  0  0  0  0  0  0  0  0  0  0
   18.1974   70.9234   -7.9438 N   0  0  0  0  0  0  0  0  0  0  0  0
   19.5380   71.1537   -7.6078 C   0  0  0  0  0  0  0  0  0  0  0  0
   18.6871   71.7157   -5.4016 C   0  0  0  0  0  0  0  0  0  0  0  0
   17.4147   71.4923   -5.7364 C   0  0  0  0  0  0  0  0  0  0  0  0
   17.0972   71.0577   -7.1125 C   0  0  0  0  0  0  0  0  0  0  0  0
   18.0182   70.6363   -8.8684 H   0  0  0  0  0  0  0  0  0  0  0  0
   19.2200   71.1484    0.1402 O   0  0  0  0  0  0  0  0  0  0  0  0
   19.4185   72.3849    1.1626 P   0  0  2  0  0  0  0  0  0  0  0  0
   18.1204   72.2818    2.1242 O   0  0  0  0  0  0  0  0  0  0  0  0
   19.5871   73.7175    0.4920 O   0  0  0  0  0  0  0  0  0  0  0  0
   20.6557   71.9459    2.1003 O   0  0  0  0  0  0  0  0  0  0  0  0
   22.6616   72.9849    2.8115 O   0  0  0  0  0  0  0  0  0  0  0  0
   23.9279   69.1197    2.0874 O   0  0  0  0  0  0  0  0  0  0  0  0
   22.0856   70.4437    0.2470 O   0  0  0  0  0  0  0  0  0  0  0  0
   23.5454   70.0426    4.8174 O   0  0  0  0  0  0  0  0  0  0  0  0
   23.0040   70.1379    2.4716 C   0  0  2  0  0  0  0  0  0  0  0  0
   22.7832   71.0966    1.3013 C   0  0  2  0  0  0  0  0  0  0  0  0
   23.5955   70.8861    3.6683 C   0  0  1  0  0  0  0  0  0  0  0  0
   21.9839   72.3235    1.7425 C   0  0  1  0  0  0  0  0  0  0  0  0
   22.8166   72.1638    3.9669 C   0  0  1  0  0  0  0  0  0  0  0  0
   23.5732   68.6307    1.3282 H   0  0  0  0  0  0  0  0  0  0  0  0
   22.5870   69.6640   -0.0377 H   0  0  0  0  0  0  0  0  0  0  0  0
   24.0374   69.2256    4.6405 H   0  0  0  0  0  0  0  0  0  0  0  0
   22.7324   73.7504    5.6924 O   0  0  0  0  0  0  0  0  0  0  0  0
   24.7973   73.1192    4.9597 O   0  0  0  0  0  0  0  0  0  0  0  0
   23.5790   73.0433    4.9037 C   0  0  0  0  0  0  0  0  0  0  0  0
  1  4  1  0
  1 24  1  0
  1  2  1  1
  1  3  2  0
 25 28  1  0
 25 24  1  0
 25 26  1  1
 25 27  2  0
  6 11  1  0
  6 12  1  0
 29 36  1  0
 29 37  1  0
  9  7  1  6
  7 13  1  0
 10  8  1  6
  8 14  1  0
  4  5  1  0
 36 28  1  1
 33 30  1  6
 30 38  1  0
 34 31  1  6
 31 39  1  0
 35 32  1  1
 32 40  1  0
 41 43  1  0
 15 19  2  0
 42 43  2  0
 16 22  2  0
 12 17  1  1
 17 19  1  0
 17 20  1  0
 18 19  1  0
 18 22  1  0
 18 23  1  0
  9 10  1  0
  9 11  1  0
 10 12  1  0
 11  5  1  1
 33 34  1  0
 33 35  1  0
 34 36  1  0
 35 37  1  0
 37 43  1  1
 20 21  2  0
 21 22  1  0
M  CHG  3   2  -1  26  -1  41  -1
M  END
>  <COMPND>  (146) 
    udp_gluA.pdb 

>  <AUTHOR>  (146) 
    GENERATED BY OPEN BABEL 3.1.1

>  <MASTER>  (146) 
        0    0    0    0    0    0    0    0   56    0   56    0

>  <minimizedAffinity>  (146) 
-7.34386

>  <CNNscore>  (146) 
0.5087534189

>  <CNNaffinity>  (146) 
4.3407778740

>  <CNN_VS>  (146) 
2.2083854675

>  <CNNaffinity_variance>  (146) 
0.0071670758

$$$$
147
     RDKit          3D

 43 45  0  0  0  0  0  0  0  0999 V2000
   20.8597   70.9341   -0.9289 P   0  0  2  0  0  0  0  0  0  0  0  0
   20.0547   69.9652    0.0870 O   0  0  0  0  0  0  0  0  0  0  0  0
   22.0283   70.2958   -1.6209 O   0  0  0  0  0  0  0  0  0  0  0  0
   21.1998   72.2386   -0.0342 O   0  0  0  0  0  0  0  0  0  0  0  0
   21.3997   72.0706    1.3573 C   0  0  0  0  0  0  0  0  0  0  0  0
   23.3952   72.9370    2.3795 O   0  0  0  0  0  0  0  0  0  0  0  0
   24.4750   70.1452    2.2022 O   0  0  0  0  0  0  0  0  0  0  0  0
   23.7121   70.3242    4.8141 O   0  0  0  0  0  0  0  0  0  0  0  0
   23.1417   70.5835    2.4647 C   0  0  1  0  0  0  0  0  0  0  0  0
   23.0378   71.1320    3.8720 C   0  0  2  0  0  0  0  0  0  0  0  0
   22.8796   71.8226    1.6196 C   0  0  1  0  0  0  0  0  0  0  0  0
   23.6682   72.5061    3.7223 C   0  0  2  0  0  0  0  0  0  0  0  0
   24.6657   69.3543    2.7310 H   0  0  0  0  0  0  0  0  0  0  0  0
   23.2727   69.4609    4.8730 H   0  0  0  0  0  0  0  0  0  0  0  0
   25.2122   74.2598    5.3088 O   0  0  0  0  0  0  0  0  0  0  0  0
   21.4572   76.1380    7.2106 O   0  0  0  0  0  0  0  0  0  0  0  0
   23.1198   73.4636    4.6406 N   0  0  0  0  0  0  0  0  0  0  0  0
   23.3406   75.1929    6.2552 N   0  0  0  0  0  0  0  0  0  0  0  0
   23.9830   74.2973    5.3902 C   0  0  0  0  0  0  0  0  0  0  0  0
   21.7425   73.5710    4.7904 C   0  0  0  0  0  0  0  0  0  0  0  0
   21.1448   74.4296    5.6188 C   0  0  0  0  0  0  0  0  0  0  0  0
   21.9748   75.3361    6.4391 C   0  0  0  0  0  0  0  0  0  0  0  0
   23.9208   75.7824    6.7892 H   0  0  0  0  0  0  0  0  0  0  0  0
   19.6986   71.4659   -1.9199 O   0  0  0  0  0  0  0  0  0  0  0  0
   19.6542   72.7380   -2.9166 P   0  0  2  0  0  0  0  0  0  0  0  0
   21.2055   72.9344   -3.3350 O   0  0  0  0  0  0  0  0  0  0  0  0
   19.0134   73.9607   -2.3262 O   0  0  0  0  0  0  0  0  0  0  0  0
   18.9387   72.1862   -4.2530 O   0  0  0  0  0  0  0  0  0  0  0  0
   18.8889   69.8282   -4.4690 O   0  0  0  0  0  0  0  0  0  0  0  0
   17.6618   71.0425   -8.2224 O   0  0  0  0  0  0  0  0  0  0  0  0
   19.8589   72.4109   -6.8680 O   0  0  0  0  0  0  0  0  0  0  0  0
   15.7253   70.0042   -6.3191 O   0  0  0  0  0  0  0  0  0  0  0  0
   17.7989   71.1310   -6.8042 C   0  0  2  0  0  0  0  0  0  0  0  0
   19.2817   71.1843   -6.4357 C   0  0  2  0  0  0  0  0  0  0  0  0
   17.1413   69.8945   -6.1874 C   0  0  1  0  0  0  0  0  0  0  0  0
   19.4753   71.0480   -4.9248 C   0  0  1  0  0  0  0  0  0  0  0  0
   17.4846   69.7611   -4.7066 C   0  0  1  0  0  0  0  0  0  0  0  0
   18.0726   71.8179   -8.6362 H   0  0  0  0  0  0  0  0  0  0  0  0
   19.7395   72.5041   -7.8259 H   0  0  0  0  0  0  0  0  0  0  0  0
   15.4934   70.0898   -7.2570 H   0  0  0  0  0  0  0  0  0  0  0  0
   15.9806   67.9628   -4.7815 O   0  0  0  0  0  0  0  0  0  0  0  0
   17.7635   67.7697   -3.3732 O   0  0  0  0  0  0  0  0  0  0  0  0
   17.1228   68.4035   -4.1983 C   0  0  0  0  0  0  0  0  0  0  0  0
  1  4  1  0
  1 24  1  0
  1  2  1  1
  1  3  2  0
 25 28  1  0
 25 24  1  0
 25 26  1  6
 25 27  2  0
  6 11  1  0
  6 12  1  0
 29 36  1  0
 29 37  1  0
  9  7  1  6
  7 13  1  0
 10  8  1  1
  8 14  1  0
  4  5  1  0
 36 28  1  1
 33 30  1  6
 30 38  1  0
 34 31  1  1
 31 39  1  0
 35 32  1  1
 32 40  1  0
 41 43  1  0
 15 19  2  0
 42 43  2  0
 16 22  2  0
 12 17  1  1
 17 19  1  0
 17 20  1  0
 18 19  1  0
 18 22  1  0
 18 23  1  0
  9 10  1  0
  9 11  1  0
 10 12  1  0
 11  5  1  1
 33 34  1  0
 33 35  1  0
 34 36  1  0
 35 37  1  0
 37 43  1  6
 20 21  2  0
 21 22  1  0
M  CHG  3   2  -1  26  -1  41  -1
M  END
>  <COMPND>  (147) 
    udp_gluA.pdb 

>  <AUTHOR>  (147) 
    GENERATED BY OPEN BABEL 3.1.1

>  <MASTER>  (147) 
        0    0    0    0    0    0    0    0   56    0   56    0

>  <minimizedAffinity>  (147) 
-7.94660

>  <CNNscore>  (147) 
0.3864479661

>  <CNNaffinity>  (147) 
3.9411468506

>  <CNN_VS>  (147) 
1.5230481625

>  <CNNaffinity_variance>  (147) 
0.2016969174

$$$$
148
     RDKit          3D

 43 45  0  0  0  0  0  0  0  0999 V2000
   22.1798   71.0079   -2.1194 P   0  0  2  0  0  0  0  0  0  0  0  0
   23.6905   70.7765   -2.6514 O   0  0  0  0  0  0  0  0  0  0  0  0
   21.1912   69.9620   -2.5444 O   0  0  0  0  0  0  0  0  0  0  0  0
   21.8368   72.5234   -2.5704 O   0  0  0  0  0  0  0  0  0  0  0  0
   20.5494   72.7990   -3.0910 C   0  0  0  0  0  0  0  0  0  0  0  0
   20.2596   71.8211   -5.2676 O   0  0  0  0  0  0  0  0  0  0  0  0
   20.2685   74.6271   -6.3248 O   0  0  0  0  0  0  0  0  0  0  0  0
   17.6123   74.0109   -6.2927 O   0  0  0  0  0  0  0  0  0  0  0  0
   19.7294   74.1238   -5.1022 C   0  0  1  0  0  0  0  0  0  0  0  0
   18.4545   73.3523   -5.3699 C   0  0  2  0  0  0  0  0  0  0  0  0
   20.6608   73.0327   -4.5921 C   0  0  1  0  0  0  0  0  0  0  0  0
   18.9894   72.0345   -5.9037 C   0  0  2  0  0  0  0  0  0  0  0  0
   19.6903   75.3258   -6.6701 H   0  0  0  0  0  0  0  0  0  0  0  0
   17.2977   74.8437   -5.9061 H   0  0  0  0  0  0  0  0  0  0  0  0
   16.7452   71.2964   -7.4514 O   0  0  0  0  0  0  0  0  0  0  0  0
   15.7422   67.7764   -4.6500 O   0  0  0  0  0  0  0  0  0  0  0  0
   18.1244   70.9293   -5.6016 N   0  0  0  0  0  0  0  0  0  0  0  0
   16.2472   69.5445   -6.0541 N   0  0  0  0  0  0  0  0  0  0  0  0
   17.0239   70.6436   -6.4438 C   0  0  0  0  0  0  0  0  0  0  0  0
   18.3705   70.1413   -4.4838 C   0  0  0  0  0  0  0  0  0  0  0  0
   17.6214   69.0968   -4.1253 C   0  0  0  0  0  0  0  0  0  0  0  0
   16.4518   68.7314   -4.9511 C   0  0  0  0  0  0  0  0  0  0  0  0
   15.4742   69.3274   -6.6238 H   0  0  0  0  0  0  0  0  0  0  0  0
   22.3745   71.1399   -0.5201 O   0  0  0  0  0  0  0  0  0  0  0  0
   22.0191   70.1172    0.6805 P   0  0  2  0  0  0  0  0  0  0  0  0
   23.3313   69.1729    0.7626 O   0  0  0  0  0  0  0  0  0  0  0  0
   20.7305   69.3703    0.4919 O   0  0  0  0  0  0  0  0  0  0  0  0
   22.0814   71.0180    2.0173 O   0  0  0  0  0  0  0  0  0  0  0  0
   21.6004   73.3233    1.7652 O   0  0  0  0  0  0  0  0  0  0  0  0
   23.2066   73.2108    5.5698 O   0  0  0  0  0  0  0  0  0  0  0  0
   24.4044   71.6504    3.4101 O   0  0  0  0  0  0  0  0  0  0  0  0
   20.3368   73.4977    5.2054 O   0  0  0  0  0  0  0  0  0  0  0  0
   22.4834   72.7105    4.4453 C   0  0  2  0  0  0  0  0  0  0  0  0
   23.4073   72.6491    3.2287 C   0  0  2  0  0  0  0  0  0  0  0  0
   21.3120   73.6579    4.1769 C   0  0  1  0  0  0  0  0  0  0  0  0
   22.6170   72.3387    1.9567 C   0  0  1  0  0  0  0  0  0  0  0  0
   20.6547   73.3638    2.8315 C   0  0  1  0  0  0  0  0  0  0  0  0
   23.9562   72.6247    5.7593 H   0  0  0  0  0  0  0  0  0  0  0  0
   24.9096   71.8409    4.2156 H   0  0  0  0  0  0  0  0  0  0  0  0
   20.7424   73.6818    6.0670 H   0  0  0  0  0  0  0  0  0  0  0  0
   20.3904   75.3572    1.6240 O   0  0  0  0  0  0  0  0  0  0  0  0
   18.5778   74.5905    2.7754 O   0  0  0  0  0  0  0  0  0  0  0  0
   19.7447   74.4789    2.4306 C   0  0  0  0  0  0  0  0  0  0  0  0
  1  4  1  0
  1 24  1  0
  1  2  1  6
  1  3  2  0
 25 28  1  0
 25 24  1  0
 25 26  1  1
 25 27  2  0
  6 11  1  0
  6 12  1  0
 29 36  1  0
 29 37  1  0
  9  7  1  6
  7 13  1  0
 10  8  1  6
  8 14  1  0
  4  5  1  0
 36 28  1  1
 33 30  1  1
 30 38  1  0
 34 31  1  1
 31 39  1  0
 35 32  1  1
 32 40  1  0
 41 43  1  0
 15 19  2  0
 42 43  2  0
 16 22  2  0
 12 17  1  1
 17 19  1  0
 17 20  1  0
 18 19  1  0
 18 22  1  0
 18 23  1  0
  9 10  1  0
  9 11  1  0
 10 12  1  0
 11  5  1  1
 33 34  1  0
 33 35  1  0
 34 36  1  0
 35 37  1  0
 37 43  1  6
 20 21  2  0
 21 22  1  0
M  CHG  3   2  -1  26  -1  41  -1
M  END
>  <COMPND>  (148) 
    udp_gluA.pdb 

>  <AUTHOR>  (148) 
    GENERATED BY OPEN BABEL 3.1.1

>  <MASTER>  (148) 
        0    0    0    0    0    0    0    0   56    0   56    0

>  <minimizedAffinity>  (148) 
-7.44048

>  <CNNscore>  (148) 
0.3771977127

>  <CNNaffinity>  (148) 
4.0654807091

>  <CNN_VS>  (148) 
1.5334900618

>  <CNNaffinity_variance>  (148) 
0.1648732573

$$$$
149
     RDKit          3D

 43 45  0  0  0  0  0  0  0  0999 V2000
   22.3868   71.3789   -3.2438 P   0  0  2  0  0  0  0  0  0  0  0  0
   21.1811   70.2997   -3.2233 O   0  0  0  0  0  0  0  0  0  0  0  0
   23.7534   70.7979   -3.4597 O   0  0  0  0  0  0  0  0  0  0  0  0
   22.1863   72.2116   -1.8711 O   0  0  0  0  0  0  0  0  0  0  0  0
   23.0233   71.9110   -0.7695 C   0  0  0  0  0  0  0  0  0  0  0  0
   23.1443   70.6140    1.2507 O   0  0  0  0  0  0  0  0  0  0  0  0
   20.3662   69.6898    0.6032 O   0  0  0  0  0  0  0  0  0  0  0  0
   19.9317   71.5998    2.5004 O   0  0  0  0  0  0  0  0  0  0  0  0
   20.9653   70.9684    0.3920 C   0  0  1  0  0  0  0  0  0  0  0  0
   21.0938   71.7104    1.7054 C   0  0  2  0  0  0  0  0  0  0  0  0
   22.4218   70.7469    0.0074 C   0  0  1  0  0  0  0  0  0  0  0  0
   22.2991   71.0324    2.3342 C   0  0  2  0  0  0  0  0  0  0  0  0
   19.4349   69.8055    0.8501 H   0  0  0  0  0  0  0  0  0  0  0  0
   19.1931   72.0471    2.0573 H   0  0  0  0  0  0  0  0  0  0  0  0
   23.6842   70.2130    4.6551 O   0  0  0  0  0  0  0  0  0  0  0  0
   25.1075   74.5061    5.5425 O   0  0  0  0  0  0  0  0  0  0  0  0
   23.0399   71.9152    3.1902 N   0  0  0  0  0  0  0  0  0  0  0  0
   24.3909   72.3522    5.0954 N   0  0  0  0  0  0  0  0  0  0  0  0
   23.6997   71.4022    4.3319 C   0  0  0  0  0  0  0  0  0  0  0  0
   23.1089   73.2713    2.8950 C   0  0  0  0  0  0  0  0  0  0  0  0
   23.7718   74.1645    3.6322 C   0  0  0  0  0  0  0  0  0  0  0  0
   24.4878   73.7110    4.8426 C   0  0  0  0  0  0  0  0  0  0  0  0
   24.8565   72.0191    5.8965 H   0  0  0  0  0  0  0  0  0  0  0  0
   21.9147   72.4291   -4.3782 O   0  0  0  0  0  0  0  0  0  0  0  0
   20.4837   73.1334   -4.6430 P   0  0  2  0  0  0  0  0  0  0  0  0
   20.8825   74.6656   -4.9805 O   0  0  0  0  0  0  0  0  0  0  0  0
   19.5052   72.9833   -3.5143 O   0  0  0  0  0  0  0  0  0  0  0  0
   19.9817   72.5240   -6.0498 O   0  0  0  0  0  0  0  0  0  0  0  0
   18.9913   70.4162   -5.6192 O   0  0  0  0  0  0  0  0  0  0  0  0
   18.5854   70.7139   -9.7198 O   0  0  0  0  0  0  0  0  0  0  0  0
   21.0655   71.5370   -8.4135 O   0  0  0  0  0  0  0  0  0  0  0  0
   16.2862   71.1352   -7.9915 O   0  0  0  0  0  0  0  0  0  0  0  0
   18.6633   71.1988   -8.3793 C   0  0  2  0  0  0  0  0  0  0  0  0
   20.0156   70.8192   -7.7755 C   0  0  2  0  0  0  0  0  0  0  0  0
   17.5252   70.5615   -7.5790 C   0  0  1  0  0  0  0  0  0  0  0  0
   20.0481   71.1172   -6.2759 C   0  0  1  0  0  0  0  0  0  0  0  0
   17.6973   70.7973   -6.0813 C   0  0  1  0  0  0  0  0  0  0  0  0
   19.2992   71.1055  -10.2474 H   0  0  0  0  0  0  0  0  0  0  0  0
   21.0506   71.3528   -9.3655 H   0  0  0  0  0  0  0  0  0  0  0  0
   16.1645   70.9922   -8.9431 H   0  0  0  0  0  0  0  0  0  0  0  0
   16.7035   70.3284   -4.0091 O   0  0  0  0  0  0  0  0  0  0  0  0
   16.1919   68.9419   -5.7455 O   0  0  0  0  0  0  0  0  0  0  0  0
   16.7863   69.9105   -5.2965 C   0  0  0  0  0  0  0  0  0  0  0  0
  1  4  1  0
  1 24  1  0
  1  2  1  1
  1  3  2  0
 25 28  1  0
 25 24  1  0
 25 26  1  6
 25 27  2  0
  6 11  1  0
  6 12  1  0
 29 36  1  0
 29 37  1  0
  9  7  1  1
  7 13  1  0
 10  8  1  1
  8 14  1  0
  4  5  1  0
 36 28  1  6
 33 30  1  6
 30 38  1  0
 34 31  1  6
 31 39  1  0
 35 32  1  6
 32 40  1  0
 41 43  1  0
 15 19  2  0
 42 43  2  0
 16 22  2  0
 12 17  1  1
 17 19  1  0
 17 20  1  0
 18 19  1  0
 18 22  1  0
 18 23  1  0
  9 10  1  0
  9 11  1  0
 10 12  1  0
 11  5  1  1
 33 34  1  0
 33 35  1  0
 34 36  1  0
 35 37  1  0
 37 43  1  1
 20 21  2  0
 21 22  1  0
M  CHG  3   2  -1  26  -1  41  -1
M  END
>  <COMPND>  (149) 
    udp_gluA.pdb 

>  <AUTHOR>  (149) 
    GENERATED BY OPEN BABEL 3.1.1

>  <MASTER>  (149) 
        0    0    0    0    0    0    0    0   56    0   56    0

>  <minimizedAffinity>  (149) 
-8.85868

>  <CNNscore>  (149) 
0.3685665429

>  <CNNaffinity>  (149) 
4.0772604942

>  <CNN_VS>  (149) 
1.5027418137

>  <CNNaffinity_variance>  (149) 
0.0795885175

$$$$
150
     RDKit          3D

 43 45  0  0  0  0  0  0  0  0999 V2000
   18.9993   75.7598   -2.1777 P   0  0  2  0  0  0  0  0  0  0  0  0
   18.1481   77.1361   -2.1908 O   0  0  0  0  0  0  0  0  0  0  0  0
   20.1466   75.7151   -3.1439 O   0  0  0  0  0  0  0  0  0  0  0  0
   17.8784   74.6080   -2.3642 O   0  0  0  0  0  0  0  0  0  0  0  0
   17.9670   73.7544   -3.4903 C   0  0  0  0  0  0  0  0  0  0  0  0
   16.7525   71.9337   -4.4841 O   0  0  0  0  0  0  0  0  0  0  0  0
   17.0719   70.5296   -1.8539 O   0  0  0  0  0  0  0  0  0  0  0  0
   19.0013   69.3651   -3.3891 O   0  0  0  0  0  0  0  0  0  0  0  0
   17.9807   71.3982   -2.5308 C   0  0  1  0  0  0  0  0  0  0  0  0
   18.6098   70.6840   -3.7082 C   0  0  2  0  0  0  0  0  0  0  0  0
   17.1671   72.4873   -3.2165 C   0  0  1  0  0  0  0  0  0  0  0  0
   17.4937   70.7297   -4.7378 C   0  0  2  0  0  0  0  0  0  0  0  0
   17.5686   69.8253   -1.4080 H   0  0  0  0  0  0  0  0  0  0  0  0
   19.7138   69.3897   -2.7305 H   0  0  0  0  0  0  0  0  0  0  0  0
   15.9562   70.1009   -7.0219 O   0  0  0  0  0  0  0  0  0  0  0  0
   19.5063   70.8897   -9.8536 O   0  0  0  0  0  0  0  0  0  0  0  0
   17.9911   70.7626   -6.0841 N   0  0  0  0  0  0  0  0  0  0  0  0
   17.7261   70.4934   -8.4300 N   0  0  0  0  0  0  0  0  0  0  0  0
   17.1361   70.4285   -7.1608 C   0  0  0  0  0  0  0  0  0  0  0  0
   19.3107   71.1240   -6.3273 C   0  0  0  0  0  0  0  0  0  0  0  0
   19.8587   71.1814   -7.5426 C   0  0  0  0  0  0  0  0  0  0  0  0
   19.0336   70.8466   -8.7218 C   0  0  0  0  0  0  0  0  0  0  0  0
   17.1510   70.2632   -9.1953 H   0  0  0  0  0  0  0  0  0  0  0  0
   19.4208   75.6086   -0.6245 O   0  0  0  0  0  0  0  0  0  0  0  0
   19.9279   74.3250    0.2176 P   0  0  2  0  0  0  0  0  0  0  0  0
   18.5665   73.4862    0.4689 O   0  0  0  0  0  0  0  0  0  0  0  0
   20.6825   74.6686    1.4691 O   0  0  0  0  0  0  0  0  0  0  0  0
   20.7603   73.4414   -0.8448 O   0  0  0  0  0  0  0  0  0  0  0  0
   22.2393   71.8147    0.0359 O   0  0  0  0  0  0  0  0  0  0  0  0
   23.4272   71.9783   -3.9176 O   0  0  0  0  0  0  0  0  0  0  0  0
   22.7999   74.4294   -2.4572 O   0  0  0  0  0  0  0  0  0  0  0  0
   21.8382   69.7390   -2.9629 O   0  0  0  0  0  0  0  0  0  0  0  0
   22.5056   72.0502   -2.8298 C   0  0  2  0  0  0  0  0  0  0  0  0
   22.9445   73.1466   -1.8588 C   0  0  2  0  0  0  0  0  0  0  0  0
   22.4954   70.6904   -2.1278 C   0  0  1  0  0  0  0  0  0  0  0  0
   22.1185   73.1011   -0.5725 C   0  0  1  0  0  0  0  0  0  0  0  0
   21.7596   70.7581   -0.7927 C   0  0  1  0  0  0  0  0  0  0  0  0
   23.4507   72.8315   -4.3788 H   0  0  0  0  0  0  0  0  0  0  0  0
   23.3212   74.4653   -3.2741 H   0  0  0  0  0  0  0  0  0  0  0  0
   22.2967   69.6863   -3.8161 H   0  0  0  0  0  0  0  0  0  0  0  0
   23.2936   69.0885   -0.1922 O   0  0  0  0  0  0  0  0  0  0  0  0
   21.2379   69.0148    0.7915 O   0  0  0  0  0  0  0  0  0  0  0  0
   22.0333   69.5388    0.0262 C   0  0  0  0  0  0  0  0  0  0  0  0
  1  4  1  0
  1 24  1  0
  1  2  1  1
  1  3  2  0
 25 28  1  0
 25 24  1  0
 25 26  1  1
 25 27  2  0
  6 11  1  0
  6 12  1  0
 29 36  1  0
 29 37  1  0
  9  7  1  6
  7 13  1  0
 10  8  1  1
  8 14  1  0
  4  5  1  0
 36 28  1  6
 33 30  1  6
 30 38  1  0
 34 31  1  6
 31 39  1  0
 35 32  1  6
 32 40  1  0
 41 43  1  0
 15 19  2  0
 42 43  2  0
 16 22  2  0
 12 17  1  6
 17 19  1  0
 17 20  1  0
 18 19  1  0
 18 22  1  0
 18 23  1  0
  9 10  1  0
  9 11  1  0
 10 12  1  0
 11  5  1  6
 33 34  1  0
 33 35  1  0
 34 36  1  0
 35 37  1  0
 37 43  1  1
 20 21  2  0
 21 22  1  0
M  CHG  3   2  -1  26  -1  41  -1
M  END
>  <COMPND>  (150) 
    udp_gluA.pdb 

>  <AUTHOR>  (150) 
    GENERATED BY OPEN BABEL 3.1.1

>  <MASTER>  (150) 
        0    0    0    0    0    0    0    0   56    0   56    0

>  <minimizedAffinity>  (150) 
-6.78474

>  <CNNscore>  (150) 
0.3501010835

>  <CNNaffinity>  (150) 
4.2770528793

>  <CNN_VS>  (150) 
1.4974008799

>  <CNNaffinity_variance>  (150) 
0.1514015645

$$$$
151
     RDKit          3D

 43 45  0  0  0  0  0  0  0  0999 V2000
   20.3476   73.5768   -1.7132 P   0  0  2  0  0  0  0  0  0  0  0  0
   19.9287   74.9239   -2.5061 O   0  0  0  0  0  0  0  0  0  0  0  0
   19.2936   72.5093   -1.6768 O   0  0  0  0  0  0  0  0  0  0  0  0
   20.8529   74.1147   -0.2733 O   0  0  0  0  0  0  0  0  0  0  0  0
   20.3265   73.5138    0.8956 C   0  0  0  0  0  0  0  0  0  0  0  0
   21.1316   73.5010    3.1604 O   0  0  0  0  0  0  0  0  0  0  0  0
   21.7395   76.4104    2.7641 O   0  0  0  0  0  0  0  0  0  0  0  0
   24.1860   75.2441    2.4630 O   0  0  0  0  0  0  0  0  0  0  0  0
   21.8388   75.3317    1.8341 C   0  0  1  0  0  0  0  0  0  0  0  0
   23.0439   74.4728    2.1543 C   0  0  2  0  0  0  0  0  0  0  0  0
   20.6854   74.3741    2.1004 C   0  0  1  0  0  0  0  0  0  0  0  0
   22.5476   73.6625    3.3397 C   0  0  2  0  0  0  0  0  0  0  0  0
   22.4663   77.0356    2.6135 H   0  0  0  0  0  0  0  0  0  0  0  0
   24.4628   75.7409    1.6765 H   0  0  0  0  0  0  0  0  0  0  0  0
   24.2789   72.8301    5.4101 O   0  0  0  0  0  0  0  0  0  0  0  0
   24.8394   68.6661    3.5152 O   0  0  0  0  0  0  0  0  0  0  0  0
   23.1600   72.3662    3.4122 N   0  0  0  0  0  0  0  0  0  0  0  0
   24.5572   70.7573    4.4638 N   0  0  0  0  0  0  0  0  0  0  0  0
   24.0142   72.0486    4.4946 C   0  0  0  0  0  0  0  0  0  0  0  0
   22.9115   71.4253    2.4203 C   0  0  0  0  0  0  0  0  0  0  0  0
   23.4363   70.1984    2.4046 C   0  0  0  0  0  0  0  0  0  0  0  0
   24.3402   69.7871    3.4988 C   0  0  0  0  0  0  0  0  0  0  0  0
   25.1566   70.5139    5.2059 H   0  0  0  0  0  0  0  0  0  0  0  0
   21.7233   73.1402   -2.4411 O   0  0  0  0  0  0  0  0  0  0  0  0
   22.0278   71.9838   -3.5291 P   0  0  2  0  0  0  0  0  0  0  0  0
   21.9146   70.6214   -2.6622 O   0  0  0  0  0  0  0  0  0  0  0  0
   23.3318   72.1487   -4.2544 O   0  0  0  0  0  0  0  0  0  0  0  0
   20.7278   71.9679   -4.4842 O   0  0  0  0  0  0  0  0  0  0  0  0
   19.5556   69.9103   -4.4457 O   0  0  0  0  0  0  0  0  0  0  0  0
   17.6434   71.9099   -7.5137 O   0  0  0  0  0  0  0  0  0  0  0  0
   20.5515   72.0215   -7.2595 O   0  0  0  0  0  0  0  0  0  0  0  0
   16.3610   71.6523   -4.9176 O   0  0  0  0  0  0  0  0  0  0  0  0
   18.3457   71.7867   -6.2770 C   0  0  2  0  0  0  0  0  0  0  0  0
   19.7091   71.1409   -6.5249 C   0  0  2  0  0  0  0  0  0  0  0  0
   17.5059   70.9145   -5.3411 C   0  0  1  0  0  0  0  0  0  0  0  0
   20.3932   70.7831   -5.2047 C   0  0  1  0  0  0  0  0  0  0  0  0
   18.3003   70.4960   -4.1073 C   0  0  1  0  0  0  0  0  0  0  0  0
   18.1582   72.4603   -8.1247 H   0  0  0  0  0  0  0  0  0  0  0  0
   20.1235   72.2530   -8.0983 H   0  0  0  0  0  0  0  0  0  0  0  0
   15.8467   71.9248   -5.6935 H   0  0  0  0  0  0  0  0  0  0  0  0
   16.7055   68.7777   -4.1826 O   0  0  0  0  0  0  0  0  0  0  0  0
   17.8090   69.0870   -2.2114 O   0  0  0  0  0  0  0  0  0  0  0  0
   17.6031   69.3957   -3.3755 C   0  0  0  0  0  0  0  0  0  0  0  0
  1  4  1  0
  1 24  1  0
  1  2  1  6
  1  3  2  0
 25 28  1  0
 25 24  1  0
 25 26  1  1
 25 27  2  0
  6 11  1  0
  6 12  1  0
 29 36  1  0
 29 37  1  0
  9  7  1  1
  7 13  1  0
 10  8  1  1
  8 14  1  0
  4  5  1  0
 36 28  1  1
 33 30  1  6
 30 38  1  0
 34 31  1  1
 31 39  1  0
 35 32  1  1
 32 40  1  0
 41 43  1  0
 15 19  2  0
 42 43  2  0
 16 22  2  0
 12 17  1  6
 17 19  1  0
 17 20  1  0
 18 19  1  0
 18 22  1  0
 18 23  1  0
  9 10  1  0
  9 11  1  0
 10 12  1  0
 11  5  1  6
 33 34  1  0
 33 35  1  0
 34 36  1  0
 35 37  1  0
 37 43  1  6
 20 21  2  0
 21 22  1  0
M  CHG  3   2  -1  26  -1  41  -1
M  END
>  <COMPND>  (151) 
    udp_gluA.pdb 

>  <AUTHOR>  (151) 
    GENERATED BY OPEN BABEL 3.1.1

>  <MASTER>  (151) 
        0    0    0    0    0    0    0    0   56    0   56    0

>  <minimizedAffinity>  (151) 
-6.95046

>  <CNNscore>  (151) 
0.3431216776

>  <CNNaffinity>  (151) 
4.0387473106

>  <CNN_VS>  (151) 
1.3857817650

>  <CNNaffinity_variance>  (151) 
0.0558337457

$$$$
152
     RDKit          3D

 43 45  0  0  0  0  0  0  0  0999 V2000
   21.5749   71.2770   -2.4805 P   0  0  2  0  0  0  0  0  0  0  0  0
   22.5933   72.3891   -3.0677 O   0  0  0  0  0  0  0  0  0  0  0  0
   22.1322   69.8858   -2.4026 O   0  0  0  0  0  0  0  0  0  0  0  0
   20.2451   71.4515   -3.3855 O   0  0  0  0  0  0  0  0  0  0  0  0
   19.7920   70.3439   -4.1421 C   0  0  0  0  0  0  0  0  0  0  0  0
   17.6178   71.1460   -3.5039 O   0  0  0  0  0  0  0  0  0  0  0  0
   16.6630   68.3342   -3.9208 O   0  0  0  0  0  0  0  0  0  0  0  0
   15.8539   69.5833   -6.2058 O   0  0  0  0  0  0  0  0  0  0  0  0
   17.6476   69.0711   -4.6462 C   0  0  1  0  0  0  0  0  0  0  0  0
   16.9825   70.1019   -5.5336 C   0  0  2  0  0  0  0  0  0  0  0  0
   18.4049   69.9448   -3.6554 C   0  0  1  0  0  0  0  0  0  0  0  0
   16.6206   71.1897   -4.5368 C   0  0  2  0  0  0  0  0  0  0  0  0
   16.1661   67.7685   -4.5329 H   0  0  0  0  0  0  0  0  0  0  0  0
   16.1367   68.8948   -6.8288 H   0  0  0  0  0  0  0  0  0  0  0  0
   14.6666   73.1660   -4.0344 O   0  0  0  0  0  0  0  0  0  0  0  0
   16.7150   76.1711   -6.8659 O   0  0  0  0  0  0  0  0  0  0  0  0
   16.6191   72.4973   -5.1293 N   0  0  0  0  0  0  0  0  0  0  0  0
   15.6881   74.6605   -5.4459 N   0  0  0  0  0  0  0  0  0  0  0  0
   15.5911   73.4157   -4.8102 C   0  0  0  0  0  0  0  0  0  0  0  0
   17.6280   72.8592   -6.0138 C   0  0  0  0  0  0  0  0  0  0  0  0
   17.7071   74.0495   -6.6118 C   0  0  0  0  0  0  0  0  0  0  0  0
   16.6718   75.0663   -6.3332 C   0  0  0  0  0  0  0  0  0  0  0  0
   14.9826   75.3159   -5.2409 H   0  0  0  0  0  0  0  0  0  0  0  0
   21.1318   71.9054   -1.0587 O   0  0  0  0  0  0  0  0  0  0  0  0
   20.3138   71.2610    0.1780 P   0  0  2  0  0  0  0  0  0  0  0  0
   19.6888   69.9092   -0.4564 O   0  0  0  0  0  0  0  0  0  0  0  0
   19.2998   72.1821    0.7923 O   0  0  0  0  0  0  0  0  0  0  0  0
   21.4526   70.7439    1.1969 O   0  0  0  0  0  0  0  0  0  0  0  0
   22.8120   72.3765    2.2437 O   0  0  0  0  0  0  0  0  0  0  0  0
   24.9220   68.9083    3.0104 O   0  0  0  0  0  0  0  0  0  0  0  0
   23.7270   69.3647    0.3840 O   0  0  0  0  0  0  0  0  0  0  0  0
   23.3616   70.1631    5.1179 O   0  0  0  0  0  0  0  0  0  0  0  0
   23.7570   69.7024    2.7863 C   0  0  2  0  0  0  0  0  0  0  0  0
   23.8376   70.3506    1.4040 C   0  0  2  0  0  0  0  0  0  0  0  0
   23.6999   70.7761    3.8752 C   0  0  1  0  0  0  0  0  0  0  0  0
   22.7266   71.3852    1.2193 C   0  0  1  0  0  0  0  0  0  0  0  0
   22.6531   71.8392    3.5549 C   0  0  1  0  0  0  0  0  0  0  0  0
   24.9794   68.2189    2.3302 H   0  0  0  0  0  0  0  0  0  0  0  0
   24.4288   68.7048    0.4953 H   0  0  0  0  0  0  0  0  0  0  0  0
   24.0200   69.4842    5.3334 H   0  0  0  0  0  0  0  0  0  0  0  0
   22.0917   74.0783    3.9708 O   0  0  0  0  0  0  0  0  0  0  0  0
   23.5322   73.0791    5.4288 O   0  0  0  0  0  0  0  0  0  0  0  0
   22.8276   73.0365    4.4314 C   0  0  0  0  0  0  0  0  0  0  0  0
  1  4  1  0
  1 24  1  0
  1  2  1  6
  1  3  2  0
 25 28  1  0
 25 24  1  0
 25 26  1  6
 25 27  2  0
  6 11  1  0
  6 12  1  0
 29 36  1  0
 29 37  1  0
  9  7  1  1
  7 13  1  0
 10  8  1  1
  8 14  1  0
  4  5  1  0
 36 28  1  1
 33 30  1  1
 30 38  1  0
 34 31  1  6
 31 39  1  0
 35 32  1  1
 32 40  1  0
 41 43  1  0
 15 19  2  0
 42 43  2  0
 16 22  2  0
 12 17  1  6
 17 19  1  0
 17 20  1  0
 18 19  1  0
 18 22  1  0
 18 23  1  0
  9 10  1  0
  9 11  1  0
 10 12  1  0
 11  5  1  6
 33 34  1  0
 33 35  1  0
 34 36  1  0
 35 37  1  0
 37 43  1  1
 20 21  2  0
 21 22  1  0
M  CHG  3   2  -1  26  -1  41  -1
M  END
>  <COMPND>  (152) 
    udp_gluA.pdb 

>  <AUTHOR>  (152) 
    GENERATED BY OPEN BABEL 3.1.1

>  <MASTER>  (152) 
        0    0    0    0    0    0    0    0   56    0   56    0

>  <minimizedAffinity>  (152) 
-7.29177

>  <CNNscore>  (152) 
0.3190956414

>  <CNNaffinity>  (152) 
3.9925346375

>  <CNN_VS>  (152) 
1.2740004063

>  <CNNaffinity_variance>  (152) 
0.1443162262

$$$$
153
     RDKit          3D

 43 45  0  0  0  0  0  0  0  0999 V2000
   22.4202   74.8143   -2.5271 P   0  0  2  0  0  0  0  0  0  0  0  0
   23.9066   74.3675   -2.9854 O   0  0  0  0  0  0  0  0  0  0  0  0
   22.1740   76.2945   -2.5316 O   0  0  0  0  0  0  0  0  0  0  0  0
   22.2126   74.0717   -1.1047 O   0  0  0  0  0  0  0  0  0  0  0  0
   21.1511   74.4958   -0.2692 C   0  0  0  0  0  0  0  0  0  0  0  0
   20.6615   72.1426   -0.2898 O   0  0  0  0  0  0  0  0  0  0  0  0
   17.8884   72.9014    0.5619 O   0  0  0  0  0  0  0  0  0  0  0  0
   19.0293   72.0899    2.9019 O   0  0  0  0  0  0  0  0  0  0  0  0
   19.1373   73.4936    0.9195 C   0  0  1  0  0  0  0  0  0  0  0  0
   19.8775   72.6059    1.8974 C   0  0  2  0  0  0  0  0  0  0  0  0
   20.0454   73.4485   -0.3019 C   0  0  1  0  0  0  0  0  0  0  0  0
   20.4295   71.5236    0.9854 C   0  0  2  0  0  0  0  0  0  0  0  0
   17.2912   72.9187    1.3266 H   0  0  0  0  0  0  0  0  0  0  0  0
   18.7043   72.8176    3.4558 H   0  0  0  0  0  0  0  0  0  0  0  0
   21.4605   69.0037    0.2344 O   0  0  0  0  0  0  0  0  0  0  0  0
   25.1782   69.5240    2.9087 O   0  0  0  0  0  0  0  0  0  0  0  0
   21.6648   70.9759    1.4703 N   0  0  0  0  0  0  0  0  0  0  0  0
   23.3106   69.2648    1.5678 N   0  0  0  0  0  0  0  0  0  0  0  0
   22.0925   69.7009    1.0303 C   0  0  0  0  0  0  0  0  0  0  0  0
   22.4388   71.6995    2.3693 C   0  0  0  0  0  0  0  0  0  0  0  0
   23.5978   71.2707    2.8728 C   0  0  0  0  0  0  0  0  0  0  0  0
   24.1155   69.9482    2.4650 C   0  0  0  0  0  0  0  0  0  0  0  0
   23.6280   68.3791    1.2779 H   0  0  0  0  0  0  0  0  0  0  0  0
   21.4650   73.9698   -3.5207 O   0  0  0  0  0  0  0  0  0  0  0  0
   21.7499   72.6347   -4.3868 P   0  0  2  0  0  0  0  0  0  0  0  0
   22.1870   71.5525   -3.2651 O   0  0  0  0  0  0  0  0  0  0  0  0
   22.7500   72.8189   -5.4912 O   0  0  0  0  0  0  0  0  0  0  0  0
   20.2928   72.1465   -4.8776 O   0  0  0  0  0  0  0  0  0  0  0  0
   19.4352   69.9620   -4.5591 O   0  0  0  0  0  0  0  0  0  0  0  0
   17.2438   71.2594   -7.8122 O   0  0  0  0  0  0  0  0  0  0  0  0
   20.1047   71.8235   -7.6337 O   0  0  0  0  0  0  0  0  0  0  0  0
   16.0187   71.1478   -5.1783 O   0  0  0  0  0  0  0  0  0  0  0  0
   17.9592   71.3965   -6.5845 C   0  0  2  0  0  0  0  0  0  0  0  0
   19.4022   70.9296   -6.7781 C   0  0  2  0  0  0  0  0  0  0  0  0
   17.2585   70.5366   -5.5302 C   0  0  1  0  0  0  0  0  0  0  0  0
   20.1341   70.8444   -5.4380 C   0  0  1  0  0  0  0  0  0  0  0  0
   18.1083   70.3970   -4.2706 C   0  0  1  0  0  0  0  0  0  0  0  0
   17.6711   71.7972   -8.4974 H   0  0  0  0  0  0  0  0  0  0  0  0
   19.6456   71.8826   -8.4859 H   0  0  0  0  0  0  0  0  0  0  0  0
   15.4683   71.2426   -5.9714 H   0  0  0  0  0  0  0  0  0  0  0  0
   16.7122   68.5224   -4.0755 O   0  0  0  0  0  0  0  0  0  0  0  0
   17.8885   69.1405   -2.2226 O   0  0  0  0  0  0  0  0  0  0  0  0
   17.5816   69.3083   -3.3933 C   0  0  0  0  0  0  0  0  0  0  0  0
  1  4  1  0
  1 24  1  0
  1  2  1  6
  1  3  2  0
 25 28  1  0
 25 24  1  0
 25 26  1  1
 25 27  2  0
  6 11  1  0
  6 12  1  0
 29 36  1  0
 29 37  1  0
  9  7  1  6
  7 13  1  0
 10  8  1  1
  8 14  1  0
  4  5  1  0
 36 28  1  1
 33 30  1  6
 30 38  1  0
 34 31  1  6
 31 39  1  0
 35 32  1  1
 32 40  1  0
 41 43  1  0
 15 19  2  0
 42 43  2  0
 16 22  2  0
 12 17  1  1
 17 19  1  0
 17 20  1  0
 18 19  1  0
 18 22  1  0
 18 23  1  0
  9 10  1  0
  9 11  1  0
 10 12  1  0
 11  5  1  1
 33 34  1  0
 33 35  1  0
 34 36  1  0
 35 37  1  0
 37 43  1  1
 20 21  2  0
 21 22  1  0
M  CHG  3   2  -1  26  -1  41  -1
M  END
>  <COMPND>  (153) 
    udp_gluA.pdb 

>  <AUTHOR>  (153) 
    GENERATED BY OPEN BABEL 3.1.1

>  <MASTER>  (153) 
        0    0    0    0    0    0    0    0   56    0   56    0

>  <minimizedAffinity>  (153) 
-7.89460

>  <CNNscore>  (153) 
0.3122479022

>  <CNNaffinity>  (153) 
3.9656212330

>  <CNN_VS>  (153) 
1.2382569313

>  <CNNaffinity_variance>  (153) 
0.4664663374

$$$$
154
     RDKit          3D

 43 45  0  0  0  0  0  0  0  0999 V2000
   22.5189   71.0844   -2.6085 P   0  0  2  0  0  0  0  0  0  0  0  0
   22.7483   72.4500   -1.7711 O   0  0  0  0  0  0  0  0  0  0  0  0
   23.7445   70.5412   -3.2828 O   0  0  0  0  0  0  0  0  0  0  0  0
   21.2756   71.4311   -3.5841 O   0  0  0  0  0  0  0  0  0  0  0  0
   20.8070   72.7662   -3.6338 C   0  0  0  0  0  0  0  0  0  0  0  0
   20.0699   72.0153   -5.7949 O   0  0  0  0  0  0  0  0  0  0  0  0
   19.8147   74.9163   -6.5097 O   0  0  0  0  0  0  0  0  0  0  0  0
   17.2357   74.2029   -5.9848 O   0  0  0  0  0  0  0  0  0  0  0  0
   19.5572   74.2663   -5.2648 C   0  0  1  0  0  0  0  0  0  0  0  0
   18.2648   73.4813   -5.3408 C   0  0  2  0  0  0  0  0  0  0  0  0
   20.5907   73.1622   -5.0887 C   0  0  1  0  0  0  0  0  0  0  0  0
   18.6902   72.2483   -6.1197 C   0  0  2  0  0  0  0  0  0  0  0  0
   19.1668   75.6260   -6.6444 H   0  0  0  0  0  0  0  0  0  0  0  0
   17.0005   74.9777   -5.4498 H   0  0  0  0  0  0  0  0  0  0  0  0
   16.3143   71.4479   -7.4202 O   0  0  0  0  0  0  0  0  0  0  0  0
   15.8368   67.7722   -4.6807 O   0  0  0  0  0  0  0  0  0  0  0  0
   17.9248   71.0862   -5.7667 N   0  0  0  0  0  0  0  0  0  0  0  0
   16.0782   69.6185   -6.0539 N   0  0  0  0  0  0  0  0  0  0  0  0
   16.7457   70.7730   -6.4835 C   0  0  0  0  0  0  0  0  0  0  0  0
   18.3440   70.2703   -4.7229 C   0  0  0  0  0  0  0  0  0  0  0  0
   17.6973   69.1730   -4.3249 C   0  0  0  0  0  0  0  0  0  0  0  0
   16.4558   68.7758   -5.0209 C   0  0  0  0  0  0  0  0  0  0  0  0
   15.2535   69.3812   -6.5365 H   0  0  0  0  0  0  0  0  0  0  0  0
   21.8577   70.0948   -1.5148 O   0  0  0  0  0  0  0  0  0  0  0  0
   22.2311   69.8240    0.0347 P   0  0  2  0  0  0  0  0  0  0  0  0
   23.7303   69.2189   -0.0465 O   0  0  0  0  0  0  0  0  0  0  0  0
   21.2500   68.9500    0.7610 O   0  0  0  0  0  0  0  0  0  0  0  0
   22.4192   71.2935    0.6732 O   0  0  0  0  0  0  0  0  0  0  0  0
   22.0518   71.6802    2.9807 O   0  0  0  0  0  0  0  0  0  0  0  0
   21.7894   75.5027    1.4354 O   0  0  0  0  0  0  0  0  0  0  0  0
   20.5497   73.2539    0.0424 O   0  0  0  0  0  0  0  0  0  0  0  0
   24.1726   74.6726    2.8785 O   0  0  0  0  0  0  0  0  0  0  0  0
   22.2583   74.1564    1.5095 C   0  0  2  0  0  0  0  0  0  0  0  0
   21.0788   73.1948    1.3619 C   0  0  2  0  0  0  0  0  0  0  0  0
   22.9341   73.9651    2.8691 C   0  0  1  0  0  0  0  0  0  0  0  0
   21.5039   71.7572    1.6642 C   0  0  1  0  0  0  0  0  0  0  0  0
   23.2121   72.4913    3.1506 C   0  0  1  0  0  0  0  0  0  0  0  0
   21.3560   75.6477    0.5796 H   0  0  0  0  0  0  0  0  0  0  0  0
   20.2783   74.1635   -0.1562 H   0  0  0  0  0  0  0  0  0  0  0  0
   24.0096   75.6120    2.7004 H   0  0  0  0  0  0  0  0  0  0  0  0
   23.0625   73.2865    5.3522 O   0  0  0  0  0  0  0  0  0  0  0  0
   24.2015   71.3385    5.0250 O   0  0  0  0  0  0  0  0  0  0  0  0
   23.5600   72.2823    4.5885 C   0  0  0  0  0  0  0  0  0  0  0  0
  1  4  1  0
  1 24  1  0
  1  2  1  1
  1  3  2  0
 25 28  1  0
 25 24  1  0
 25 26  1  6
 25 27  2  0
  6 11  1  0
  6 12  1  0
 29 36  1  0
 29 37  1  0
  9  7  1  6
  7 13  1  0
 10  8  1  6
  8 14  1  0
  4  5  1  0
 36 28  1  6
 33 30  1  1
 30 38  1  0
 34 31  1  6
 31 39  1  0
 35 32  1  6
 32 40  1  0
 41 43  1  0
 15 19  2  0
 42 43  2  0
 16 22  2  0
 12 17  1  1
 17 19  1  0
 17 20  1  0
 18 19  1  0
 18 22  1  0
 18 23  1  0
  9 10  1  0
  9 11  1  0
 10 12  1  0
 11  5  1  1
 33 34  1  0
 33 35  1  0
 34 36  1  0
 35 37  1  0
 37 43  1  1
 20 21  2  0
 21 22  1  0
M  CHG  3   2  -1  26  -1  41  -1
M  END
>  <COMPND>  (154) 
    udp_gluA.pdb 

>  <AUTHOR>  (154) 
    GENERATED BY OPEN BABEL 3.1.1

>  <MASTER>  (154) 
        0    0    0    0    0    0    0    0   56    0   56    0

>  <minimizedAffinity>  (154) 
-7.89135

>  <CNNscore>  (154) 
0.3077499568

>  <CNNaffinity>  (154) 
4.0005331039

>  <CNN_VS>  (154) 
1.2311638594

>  <CNNaffinity_variance>  (154) 
0.0713692456

$$$$
155
     RDKit          3D

 43 45  0  0  0  0  0  0  0  0999 V2000
   20.6029   75.1082   -2.5589 P   0  0  2  0  0  0  0  0  0  0  0  0
   21.1320   76.6098   -2.8493 O   0  0  0  0  0  0  0  0  0  0  0  0
   19.1207   74.9205   -2.6990 O   0  0  0  0  0  0  0  0  0  0  0  0
   21.2221   74.7521   -1.1072 O   0  0  0  0  0  0  0  0  0  0  0  0
   20.7560   73.5942   -0.4388 C   0  0  0  0  0  0  0  0  0  0  0  0
   22.6632   72.1332   -0.3640 O   0  0  0  0  0  0  0  0  0  0  0  0
   20.9914   70.1769   -1.9033 O   0  0  0  0  0  0  0  0  0  0  0  0
   20.8386   69.2163    0.6442 O   0  0  0  0  0  0  0  0  0  0  0  0
   20.5986   71.0940   -0.8819 C   0  0  1  0  0  0  0  0  0  0  0  0
   21.0620   70.6002    0.4722 C   0  0  2  0  0  0  0  0  0  0  0  0
   21.4162   72.3669   -1.0537 C   0  0  1  0  0  0  0  0  0  0  0  0
   22.5388   70.9557    0.4492 C   0  0  2  0  0  0  0  0  0  0  0  0
   20.4824   69.3556   -1.8141 H   0  0  0  0  0  0  0  0  0  0  0  0
   19.8840   69.0415    0.6524 H   0  0  0  0  0  0  0  0  0  0  0  0
   23.7813   69.0442    2.1161 O   0  0  0  0  0  0  0  0  0  0  0  0
   24.4834   72.1433    5.4547 O   0  0  0  0  0  0  0  0  0  0  0  0
   23.0555   71.2360    1.7589 N   0  0  0  0  0  0  0  0  0  0  0  0
   24.1289   70.5893    3.7778 N   0  0  0  0  0  0  0  0  0  0  0  0
   23.6611   70.2043    2.5145 C   0  0  0  0  0  0  0  0  0  0  0  0
   22.9615   72.5202    2.2814 C   0  0  0  0  0  0  0  0  0  0  0  0
   23.4121   72.8720    3.4871 C   0  0  0  0  0  0  0  0  0  0  0  0
   24.0575   71.8532    4.3409 C   0  0  0  0  0  0  0  0  0  0  0  0
   24.5526   69.8876    4.3232 H   0  0  0  0  0  0  0  0  0  0  0  0
   21.4935   74.2089   -3.5644 O   0  0  0  0  0  0  0  0  0  0  0  0
   21.1556   73.5954   -5.0215 P   0  0  2  0  0  0  0  0  0  0  0  0
   22.4629   72.7026   -5.3592 O   0  0  0  0  0  0  0  0  0  0  0  0
   20.8249   74.6260   -6.0619 O   0  0  0  0  0  0  0  0  0  0  0  0
   19.9857   72.5181   -4.7506 O   0  0  0  0  0  0  0  0  0  0  0  0
   19.5084   70.2311   -4.3620 O   0  0  0  0  0  0  0  0  0  0  0  0
   17.4971   70.9195   -7.9044 O   0  0  0  0  0  0  0  0  0  0  0  0
   20.1698   72.0204   -7.4809 O   0  0  0  0  0  0  0  0  0  0  0  0
   16.0248   70.7186   -5.4058 O   0  0  0  0  0  0  0  0  0  0  0  0
   18.0334   71.2534   -6.6243 C   0  0  2  0  0  0  0  0  0  0  0  0
   19.5496   71.0567   -6.6374 C   0  0  2  0  0  0  0  0  0  0  0  0
   17.3865   70.3339   -5.5860 C   0  0  1  0  0  0  0  0  0  0  0  0
   20.1297   71.1816   -5.2280 C   0  0  1  0  0  0  0  0  0  0  0  0
   18.1007   70.4234   -4.2405 C   0  0  1  0  0  0  0  0  0  0  0  0
   17.8938   71.4911   -8.5805 H   0  0  0  0  0  0  0  0  0  0  0  0
   19.8062   71.9469   -8.3769 H   0  0  0  0  0  0  0  0  0  0  0  0
   15.5589   70.6661   -6.2550 H   0  0  0  0  0  0  0  0  0  0  0  0
   16.9402   68.3966   -4.0239 O   0  0  0  0  0  0  0  0  0  0  0  0
   17.9745   69.2072   -2.1605 O   0  0  0  0  0  0  0  0  0  0  0  0
   17.6852   69.3029   -3.3438 C   0  0  0  0  0  0  0  0  0  0  0  0
  1  4  1  0
  1 24  1  0
  1  2  1  6
  1  3  2  0
 25 28  1  0
 25 24  1  0
 25 26  1  6
 25 27  2  0
  6 11  1  0
  6 12  1  0
 29 36  1  0
 29 37  1  0
  9  7  1  6
  7 13  1  0
 10  8  1  6
  8 14  1  0
  4  5  1  0
 36 28  1  1
 33 30  1  6
 30 38  1  0
 34 31  1  6
 31 39  1  0
 35 32  1  1
 32 40  1  0
 41 43  1  0
 15 19  2  0
 42 43  2  0
 16 22  2  0
 12 17  1  1
 17 19  1  0
 17 20  1  0
 18 19  1  0
 18 22  1  0
 18 23  1  0
  9 10  1  0
  9 11  1  0
 10 12  1  0
 11  5  1  1
 33 34  1  0
 33 35  1  0
 34 36  1  0
 35 37  1  0
 37 43  1  1
 20 21  2  0
 21 22  1  0
M  CHG  3   2  -1  26  -1  41  -1
M  END
>  <COMPND>  (155) 
    udp_gluA.pdb 

>  <AUTHOR>  (155) 
    GENERATED BY OPEN BABEL 3.1.1

>  <MASTER>  (155) 
        0    0    0    0    0    0    0    0   56    0   56    0

>  <minimizedAffinity>  (155) 
-8.03699

>  <CNNscore>  (155) 
0.3007456958

>  <CNNaffinity>  (155) 
3.8156878948

>  <CNN_VS>  (155) 
1.1475516558

>  <CNNaffinity_variance>  (155) 
0.4825296402

$$$$
156
     RDKit          3D

 43 45  0  0  0  0  0  0  0  0999 V2000
   21.5763   74.6367   -2.4649 P   0  0  2  0  0  0  0  0  0  0  0  0
   22.5817   75.6713   -1.7316 O   0  0  0  0  0  0  0  0  0  0  0  0
   20.3492   75.2611   -3.0616 O   0  0  0  0  0  0  0  0  0  0  0  0
   21.3121   73.4950   -1.3492 O   0  0  0  0  0  0  0  0  0  0  0  0
   22.4285   72.8502   -0.7641 C   0  0  0  0  0  0  0  0  0  0  0  0
   22.8699   71.1690    0.8962 O   0  0  0  0  0  0  0  0  0  0  0  0
   20.0707   70.2131    0.4040 O   0  0  0  0  0  0  0  0  0  0  0  0
   19.8140   71.6472    2.7091 O   0  0  0  0  0  0  0  0  0  0  0  0
   20.5835   71.5456    0.4048 C   0  0  1  0  0  0  0  0  0  0  0  0
   20.8547   72.0020    1.8227 C   0  0  2  0  0  0  0  0  0  0  0  0
   21.9839   71.5104   -0.1918 C   0  0  1  0  0  0  0  0  0  0  0  0
   22.1596   71.2912    2.1387 C   0  0  2  0  0  0  0  0  0  0  0  0
   19.1765   70.2102    0.7809 H   0  0  0  0  0  0  0  0  0  0  0  0
   19.0053   72.1259    2.4664 H   0  0  0  0  0  0  0  0  0  0  0  0
   23.6300   70.1128    4.2425 O   0  0  0  0  0  0  0  0  0  0  0  0
   25.2367   74.1966    5.6513 O   0  0  0  0  0  0  0  0  0  0  0  0
   22.9707   72.0231    3.0701 N   0  0  0  0  0  0  0  0  0  0  0  0
   24.4280   72.1480    4.9427 N   0  0  0  0  0  0  0  0  0  0  0  0
   23.6688   71.3352    4.0906 C   0  0  0  0  0  0  0  0  0  0  0  0
   23.0698   73.4053    2.9666 C   0  0  0  0  0  0  0  0  0  0  0  0
   23.7976   74.1665    3.7863 C   0  0  0  0  0  0  0  0  0  0  0  0
   24.5571   73.5260    4.8801 C   0  0  0  0  0  0  0  0  0  0  0  0
   24.9213   71.6919    5.6624 H   0  0  0  0  0  0  0  0  0  0  0  0
   22.5369   73.8896   -3.5288 O   0  0  0  0  0  0  0  0  0  0  0  0
   22.2595   72.6368   -4.5122 P   0  0  2  0  0  0  0  0  0  0  0  0
   23.0855   71.4308   -3.8168 O   0  0  0  0  0  0  0  0  0  0  0  0
   22.6226   72.8881   -5.9471 O   0  0  0  0  0  0  0  0  0  0  0  0
   20.7094   72.2615   -4.2696 O   0  0  0  0  0  0  0  0  0  0  0  0
   19.5714   70.4241   -3.3011 O   0  0  0  0  0  0  0  0  0  0  0  0
   17.1801   71.2698   -6.5621 O   0  0  0  0  0  0  0  0  0  0  0  0
   20.0906   71.3117   -6.8095 O   0  0  0  0  0  0  0  0  0  0  0  0
   16.3317   72.0422   -3.8910 O   0  0  0  0  0  0  0  0  0  0  0  0
   18.0721   71.5676   -5.4881 C   0  0  2  0  0  0  0  0  0  0  0  0
   19.3823   70.8045   -5.6845 C   0  0  2  0  0  0  0  0  0  0  0  0
   17.3986   71.1413   -4.1818 C   0  0  1  0  0  0  0  0  0  0  0  0
   20.2712   70.9154   -4.4449 C   0  0  1  0  0  0  0  0  0  0  0  0
   18.3830   71.1585   -3.0159 C   0  0  1  0  0  0  0  0  0  0  0  0
   17.5870   71.5322   -7.4028 H   0  0  0  0  0  0  0  0  0  0  0  0
   19.5324   71.2446   -7.5996 H   0  0  0  0  0  0  0  0  0  0  0  0
   15.6981   72.0409   -4.6254 H   0  0  0  0  0  0  0  0  0  0  0  0
   17.9934   69.0995   -1.9621 O   0  0  0  0  0  0  0  0  0  0  0  0
   17.2758   70.9739   -0.8801 O   0  0  0  0  0  0  0  0  0  0  0  0
   17.8189   70.4382   -1.8347 C   0  0  0  0  0  0  0  0  0  0  0  0
  1  4  1  0
  1 24  1  0
  1  2  1  1
  1  3  2  0
 25 28  1  0
 25 24  1  0
 25 26  1  1
 25 27  2  0
  6 11  1  0
  6 12  1  0
 29 36  1  0
 29 37  1  0
  9  7  1  1
  7 13  1  0
 10  8  1  1
  8 14  1  0
  4  5  1  0
 36 28  1  1
 33 30  1  6
 30 38  1  0
 34 31  1  6
 31 39  1  0
 35 32  1  1
 32 40  1  0
 41 43  1  0
 15 19  2  0
 42 43  2  0
 16 22  2  0
 12 17  1  1
 17 19  1  0
 17 20  1  0
 18 19  1  0
 18 22  1  0
 18 23  1  0
  9 10  1  0
  9 11  1  0
 10 12  1  0
 11  5  1  1
 33 34  1  0
 33 35  1  0
 34 36  1  0
 35 37  1  0
 37 43  1  1
 20 21  2  0
 21 22  1  0
M  CHG  3   2  -1  26  -1  41  -1
M  END
>  <COMPND>  (156) 
    udp_gluA.pdb 

>  <AUTHOR>  (156) 
    GENERATED BY OPEN BABEL 3.1.1

>  <MASTER>  (156) 
        0    0    0    0    0    0    0    0   56    0   56    0

>  <minimizedAffinity>  (156) 
-7.23022

>  <CNNscore>  (156) 
0.2878153622

>  <CNNaffinity>  (156) 
3.8466477394

>  <CNN_VS>  (156) 
1.1071243286

>  <CNNaffinity_variance>  (156) 
0.2546164095

$$$$
157
     RDKit          3D

 43 45  0  0  0  0  0  0  0  0999 V2000
   21.6820   73.2832   -3.0403 P   0  0  2  0  0  0  0  0  0  0  0  0
   22.7753   72.2163   -3.5744 O   0  0  0  0  0  0  0  0  0  0  0  0
   21.9516   74.7100   -3.4189 O   0  0  0  0  0  0  0  0  0  0  0  0
   21.5893   72.9830   -1.4531 O   0  0  0  0  0  0  0  0  0  0  0  0
   22.6911   72.3616   -0.8170 C   0  0  0  0  0  0  0  0  0  0  0  0
   23.0307   70.8826    1.0470 O   0  0  0  0  0  0  0  0  0  0  0  0
   20.2672   69.8565    0.4974 O   0  0  0  0  0  0  0  0  0  0  0  0
   19.8693   71.5405    2.6049 O   0  0  0  0  0  0  0  0  0  0  0  0
   20.7785   71.1843    0.3781 C   0  0  1  0  0  0  0  0  0  0  0  0
   20.9622   71.8003    1.7489 C   0  0  2  0  0  0  0  0  0  0  0  0
   22.2128   71.0920   -0.1245 C   0  0  1  0  0  0  0  0  0  0  0  0
   22.2456   71.1395    2.2222 C   0  0  2  0  0  0  0  0  0  0  0  0
   19.3516   69.8897    0.8171 H   0  0  0  0  0  0  0  0  0  0  0  0
   19.0769   71.9827    2.2608 H   0  0  0  0  0  0  0  0  0  0  0  0
   23.4316   70.2535    4.6274 O   0  0  0  0  0  0  0  0  0  0  0  0
   25.1086   74.4446    5.5579 O   0  0  0  0  0  0  0  0  0  0  0  0
   22.9978   71.9780    3.1121 N   0  0  0  0  0  0  0  0  0  0  0  0
   24.2649   72.3420    5.0891 N   0  0  0  0  0  0  0  0  0  0  0  0
   23.5519   71.4341    4.2950 C   0  0  0  0  0  0  0  0  0  0  0  0
   23.1818   73.3217    2.8093 C   0  0  0  0  0  0  0  0  0  0  0  0
   23.8640   74.1747    3.5759 C   0  0  0  0  0  0  0  0  0  0  0  0
   24.4743   73.6868    4.8301 C   0  0  0  0  0  0  0  0  0  0  0  0
   24.6582   71.9870    5.9189 H   0  0  0  0  0  0  0  0  0  0  0  0
   20.2889   72.6885   -3.6045 O   0  0  0  0  0  0  0  0  0  0  0  0
   19.5389   71.2859   -3.3152 P   0  0  2  0  0  0  0  0  0  0  0  0
   18.5346   71.6477   -2.0983 O   0  0  0  0  0  0  0  0  0  0  0  0
   20.4654   70.1391   -3.0321 O   0  0  0  0  0  0  0  0  0  0  0  0
   18.5732   71.0678   -4.5889 O   0  0  0  0  0  0  0  0  0  0  0  0
   17.4291   73.1055   -4.9737 O   0  0  0  0  0  0  0  0  0  0  0  0
   15.9294   70.7163   -7.9921 O   0  0  0  0  0  0  0  0  0  0  0  0
   16.2897   69.6466   -5.2976 O   0  0  0  0  0  0  0  0  0  0  0  0
   17.9072   72.7598   -8.5951 O   0  0  0  0  0  0  0  0  0  0  0  0
   16.9106   71.1856   -7.0674 C   0  0  2  0  0  0  0  0  0  0  0  0
   16.3871   71.0243   -5.6401 C   0  0  2  0  0  0  0  0  0  0  0  0
   17.1800   72.6609   -7.3720 C   0  0  1  0  0  0  0  0  0  0  0  0
   17.3070   71.7228   -4.6377 C   0  0  1  0  0  0  0  0  0  0  0  0
   17.9977   73.3182   -6.2639 C   0  0  1  0  0  0  0  0  0  0  0  0
   15.7419   69.7805   -7.8178 H   0  0  0  0  0  0  0  0  0  0  0  0
   15.7077   69.1971   -5.9297 H   0  0  0  0  0  0  0  0  0  0  0  0
   17.3976   72.3450   -9.3086 H   0  0  0  0  0  0  0  0  0  0  0  0
   18.3362   75.3981   -5.2339 O   0  0  0  0  0  0  0  0  0  0  0  0
   17.6765   75.4134   -7.4165 O   0  0  0  0  0  0  0  0  0  0  0  0
   17.9752   74.8060   -6.3992 C   0  0  0  0  0  0  0  0  0  0  0  0
  1  4  1  0
  1 24  1  0
  1  2  1  6
  1  3  2  0
 25 28  1  0
 25 24  1  0
 25 26  1  1
 25 27  2  0
  6 11  1  0
  6 12  1  0
 29 36  1  0
 29 37  1  0
  9  7  1  1
  7 13  1  0
 10  8  1  1
  8 14  1  0
  4  5  1  0
 36 28  1  6
 33 30  1  6
 30 38  1  0
 34 31  1  1
 31 39  1  0
 35 32  1  6
 32 40  1  0
 41 43  1  0
 15 19  2  0
 42 43  2  0
 16 22  2  0
 12 17  1  1
 17 19  1  0
 17 20  1  0
 18 19  1  0
 18 22  1  0
 18 23  1  0
  9 10  1  0
  9 11  1  0
 10 12  1  0
 11  5  1  1
 33 34  1  0
 33 35  1  0
 34 36  1  0
 35 37  1  0
 37 43  1  6
 20 21  2  0
 21 22  1  0
M  CHG  3   2  -1  26  -1  41  -1
M  END
>  <COMPND>  (157) 
    udp_gluA.pdb 

>  <AUTHOR>  (157) 
    GENERATED BY OPEN BABEL 3.1.1

>  <MASTER>  (157) 
        0    0    0    0    0    0    0    0   56    0   56    0

>  <minimizedAffinity>  (157) 
-7.30993

>  <CNNscore>  (157) 
0.2737671137

>  <CNNaffinity>  (157) 
3.8037490845

>  <CNN_VS>  (157) 
1.0413414240

>  <CNNaffinity_variance>  (157) 
0.0568988100

$$$$
158
     RDKit          3D

 43 45  0  0  0  0  0  0  0  0999 V2000
   18.0370   70.5253   -1.8800 P   0  0  2  0  0  0  0  0  0  0  0  0
   17.7356   69.0204   -2.3930 O   0  0  0  0  0  0  0  0  0  0  0  0
   17.3218   70.9207   -0.6214 O   0  0  0  0  0  0  0  0  0  0  0  0
   17.7376   71.4452   -3.1769 O   0  0  0  0  0  0  0  0  0  0  0  0
   16.9326   70.9123   -4.2125 C   0  0  0  0  0  0  0  0  0  0  0  0
   17.6594   73.0282   -5.0914 O   0  0  0  0  0  0  0  0  0  0  0  0
   15.9627   72.4065   -7.4843 O   0  0  0  0  0  0  0  0  0  0  0  0
   18.4726   71.7969   -8.3589 O   0  0  0  0  0  0  0  0  0  0  0  0
   16.7404   71.5247   -6.6743 C   0  0  1  0  0  0  0  0  0  0  0  0
   18.2140   71.7007   -6.9738 C   0  0  2  0  0  0  0  0  0  0  0  0
   16.6484   72.0068   -5.2331 C   0  0  1  0  0  0  0  0  0  0  0  0
   18.5363   72.9845   -6.2283 C   0  0  2  0  0  0  0  0  0  0  0  0
   16.0061   72.1186   -8.4100 H   0  0  0  0  0  0  0  0  0  0  0  0
   18.2518   70.9549   -8.7882 H   0  0  0  0  0  0  0  0  0  0  0  0
   20.1876   75.2729   -6.3405 O   0  0  0  0  0  0  0  0  0  0  0  0
   23.7384   73.0279   -4.4442 O   0  0  0  0  0  0  0  0  0  0  0  0
   19.8963   73.0259   -5.7708 N   0  0  0  0  0  0  0  0  0  0  0  0
   21.9549   74.1523   -5.3968 N   0  0  0  0  0  0  0  0  0  0  0  0
   20.6390   74.2260   -5.8724 C   0  0  0  0  0  0  0  0  0  0  0  0
   20.4803   71.8880   -5.2275 C   0  0  0  0  0  0  0  0  0  0  0  0
   21.7357   71.8332   -4.7783 C   0  0  0  0  0  0  0  0  0  0  0  0
   22.5799   73.0439   -4.8489 C   0  0  0  0  0  0  0  0  0  0  0  0
   22.4923   74.9749   -5.4590 H   0  0  0  0  0  0  0  0  0  0  0  0
   19.6498   70.5572   -1.7764 O   0  0  0  0  0  0  0  0  0  0  0  0
   20.6287   70.6962   -0.4973 P   0  0  2  0  0  0  0  0  0  0  0  0
   22.0750   70.9783   -1.1673 O   0  0  0  0  0  0  0  0  0  0  0  0
   20.5973   69.5183    0.4331 O   0  0  0  0  0  0  0  0  0  0  0  0
   20.2151   72.0988    0.1841 O   0  0  0  0  0  0  0  0  0  0  0  0
   20.4966   71.8090    2.5178 O   0  0  0  0  0  0  0  0  0  0  0  0
   19.3316   75.7665    2.2966 O   0  0  0  0  0  0  0  0  0  0  0  0
   18.0198   73.7423    0.6485 O   0  0  0  0  0  0  0  0  0  0  0  0
   22.1153   75.0903    2.7910 O   0  0  0  0  0  0  0  0  0  0  0  0
   19.9611   74.5663    1.8479 C   0  0  2  0  0  0  0  0  0  0  0  0
   18.9157   73.4583    1.7168 C   0  0  2  0  0  0  0  0  0  0  0  0
   21.0238   74.1762    2.8776 C   0  0  1  0  0  0  0  0  0  0  0  0
   19.5816   72.1053    1.4622 C   0  0  1  0  0  0  0  0  0  0  0  0
   21.5486   72.7650    2.6293 C   0  0  1  0  0  0  0  0  0  0  0  0
   18.6520   76.0337    1.6578 H   0  0  0  0  0  0  0  0  0  0  0  0
   17.5939   74.5996    0.8034 H   0  0  0  0  0  0  0  0  0  0  0  0
   21.7948   75.9924    2.9469 H   0  0  0  0  0  0  0  0  0  0  0  0
   22.9692   71.1179    3.5070 O   0  0  0  0  0  0  0  0  0  0  0  0
   22.3806   72.8300    4.8932 O   0  0  0  0  0  0  0  0  0  0  0  0
   22.3255   72.2731    3.8070 C   0  0  0  0  0  0  0  0  0  0  0  0
  1  4  1  0
  1 24  1  0
  1  2  1  6
  1  3  2  0
 25 28  1  0
 25 24  1  0
 25 26  1  6
 25 27  2  0
  6 11  1  0
  6 12  1  0
 29 36  1  0
 29 37  1  0
  9  7  1  6
  7 13  1  0
 10  8  1  6
  8 14  1  0
  4  5  1  0
 36 28  1  6
 33 30  1  1
 30 38  1  0
 34 31  1  6
 31 39  1  0
 35 32  1  6
 32 40  1  0
 41 43  1  0
 15 19  2  0
 42 43  2  0
 16 22  2  0
 12 17  1  1
 17 19  1  0
 17 20  1  0
 18 19  1  0
 18 22  1  0
 18 23  1  0
  9 10  1  0
  9 11  1  0
 10 12  1  0
 11  5  1  1
 33 34  1  0
 33 35  1  0
 34 36  1  0
 35 37  1  0
 37 43  1  1
 20 21  2  0
 21 22  1  0
M  CHG  3   2  -1  26  -1  41  -1
M  END
>  <COMPND>  (158) 
    udp_gluA.pdb 

>  <AUTHOR>  (158) 
    GENERATED BY OPEN BABEL 3.1.1

>  <MASTER>  (158) 
        0    0    0    0    0    0    0    0   56    0   56    0

>  <minimizedAffinity>  (158) 
-6.62954

>  <CNNscore>  (158) 
0.2726092935

>  <CNNaffinity>  (158) 
4.0828666687

>  <CNN_VS>  (158) 
1.1130274534

>  <CNNaffinity_variance>  (158) 
0.0212350506

$$$$
159
     RDKit          3D

 43 45  0  0  0  0  0  0  0  0999 V2000
   22.6606   73.2947   -3.4881 P   0  0  2  0  0  0  0  0  0  0  0  0
   23.7443   72.3949   -4.2848 O   0  0  0  0  0  0  0  0  0  0  0  0
   23.1903   74.5878   -2.9411 O   0  0  0  0  0  0  0  0  0  0  0  0
   22.0345   72.2751   -2.3989 O   0  0  0  0  0  0  0  0  0  0  0  0
   22.4934   72.3489   -1.0616 C   0  0  0  0  0  0  0  0  0  0  0  0
   21.7553   70.0651   -0.9313 O   0  0  0  0  0  0  0  0  0  0  0  0
   21.3991   70.5429    2.0075 O   0  0  0  0  0  0  0  0  0  0  0  0
   23.7704   69.2003    1.9052 O   0  0  0  0  0  0  0  0  0  0  0  0
   22.3995   71.0504    1.1242 C   0  0  1  0  0  0  0  0  0  0  0  0
   23.3934   69.9622    0.7774 C   0  0  2  0  0  0  0  0  0  0  0  0
   21.7429   71.3230   -0.2222 C   0  0  1  0  0  0  0  0  0  0  0  0
   22.6238   69.1473   -0.2481 C   0  0  2  0  0  0  0  0  0  0  0  0
   21.7950   70.3612    2.8746 H   0  0  0  0  0  0  0  0  0  0  0  0
   24.2573   69.7636    2.5278 H   0  0  0  0  0  0  0  0  0  0  0  0
   22.9880   66.3560   -0.4776 O   0  0  0  0  0  0  0  0  0  0  0  0
   25.9592   66.8467   -3.9669 O   0  0  0  0  0  0  0  0  0  0  0  0
   23.4866   68.5186   -1.2078 N   0  0  0  0  0  0  0  0  0  0  0  0
   24.4683   66.6031   -2.2146 N   0  0  0  0  0  0  0  0  0  0  0  0
   23.5983   67.1084   -1.2394 C   0  0  0  0  0  0  0  0  0  0  0  0
   24.2091   69.2959   -2.1049 C   0  0  0  0  0  0  0  0  0  0  0  0
   25.0343   68.7998   -3.0289 C   0  0  0  0  0  0  0  0  0  0  0  0
   25.2085   67.3358   -3.1282 C   0  0  0  0  0  0  0  0  0  0  0  0
   24.5641   65.6240   -2.2546 H   0  0  0  0  0  0  0  0  0  0  0  0
   21.4642   73.4580   -4.5628 O   0  0  0  0  0  0  0  0  0  0  0  0
   19.9524   74.0050   -4.3931 P   0  0  2  0  0  0  0  0  0  0  0  0
   19.7431   74.9272   -5.7069 O   0  0  0  0  0  0  0  0  0  0  0  0
   19.6955   74.7122   -3.0939 O   0  0  0  0  0  0  0  0  0  0  0  0
   19.0190   72.7143   -4.6487 O   0  0  0  0  0  0  0  0  0  0  0  0
   19.2022   70.3772   -4.3118 O   0  0  0  0  0  0  0  0  0  0  0  0
   17.4812   70.5533   -8.0635 O   0  0  0  0  0  0  0  0  0  0  0  0
   19.6428   72.3800   -7.3386 O   0  0  0  0  0  0  0  0  0  0  0  0
   15.8686   69.8476   -5.7500 O   0  0  0  0  0  0  0  0  0  0  0  0
   17.7495   70.9898   -6.7310 C   0  0  2  0  0  0  0  0  0  0  0  0
   19.2474   71.2500   -6.5695 C   0  0  2  0  0  0  0  0  0  0  0  0
   17.2942   69.8879   -5.7717 C   0  0  1  0  0  0  0  0  0  0  0  0
   19.6050   71.4957   -5.1031 C   0  0  1  0  0  0  0  0  0  0  0  0
   17.7966   70.1415   -4.3533 C   0  0  1  0  0  0  0  0  0  0  0  0
   17.7625   71.2378   -8.6910 H   0  0  0  0  0  0  0  0  0  0  0  0
   19.4186   72.2310   -8.2702 H   0  0  0  0  0  0  0  0  0  0  0  0
   15.5359   69.6870   -6.6469 H   0  0  0  0  0  0  0  0  0  0  0  0
   17.8619   69.2093   -2.2019 O   0  0  0  0  0  0  0  0  0  0  0  0
   17.3400   67.8112   -3.9258 O   0  0  0  0  0  0  0  0  0  0  0  0
   17.6361   68.9204   -3.5075 C   0  0  0  0  0  0  0  0  0  0  0  0
  1  4  1  0
  1 24  1  0
  1  2  1  6
  1  3  2  0
 25 28  1  0
 25 24  1  0
 25 26  1  6
 25 27  2  0
  6 11  1  0
  6 12  1  0
 29 36  1  0
 29 37  1  0
  9  7  1  1
  7 13  1  0
 10  8  1  1
  8 14  1  0
  4  5  1  0
 36 28  1  1
 33 30  1  6
 30 38  1  0
 34 31  1  6
 31 39  1  0
 35 32  1  1
 32 40  1  0
 41 43  1  0
 15 19  2  0
 42 43  2  0
 16 22  2  0
 12 17  1  6
 17 19  1  0
 17 20  1  0
 18 19  1  0
 18 22  1  0
 18 23  1  0
  9 10  1  0
  9 11  1  0
 10 12  1  0
 11  5  1  6
 33 34  1  0
 33 35  1  0
 34 36  1  0
 35 37  1  0
 37 43  1  1
 20 21  2  0
 21 22  1  0
M  CHG  3   2  -1  26  -1  41  -1
M  END
>  <COMPND>  (159) 
    udp_gluA.pdb 

>  <AUTHOR>  (159) 
    GENERATED BY OPEN BABEL 3.1.1

>  <MASTER>  (159) 
        0    0    0    0    0    0    0    0   56    0   56    0

>  <minimizedAffinity>  (159) 
-8.68629

>  <CNNscore>  (159) 
0.2660801709

>  <CNNaffinity>  (159) 
4.0024595261

>  <CNN_VS>  (159) 
1.0649751425

>  <CNNaffinity_variance>  (159) 
1.2376601696

$$$$
160
     RDKit          3D

 43 45  0  0  0  0  0  0  0  0999 V2000
   22.1401   70.8310   -2.7339 P   0  0  2  0  0  0  0  0  0  0  0  0
   21.8895   72.2631   -3.4446 O   0  0  0  0  0  0  0  0  0  0  0  0
   23.4795   70.2128   -3.0092 O   0  0  0  0  0  0  0  0  0  0  0  0
   20.8560   69.9497   -3.1724 O   0  0  0  0  0  0  0  0  0  0  0  0
   20.0270   70.4340   -4.2129 C   0  0  0  0  0  0  0  0  0  0  0  0
   18.1833   69.7294   -2.8411 O   0  0  0  0  0  0  0  0  0  0  0  0
   16.6883   69.2869   -5.4025 O   0  0  0  0  0  0  0  0  0  0  0  0
   15.7049   71.6813   -4.5447 O   0  0  0  0  0  0  0  0  0  0  0  0
   17.6365   70.3023   -5.0735 C   0  0  1  0  0  0  0  0  0  0  0  0
   17.0113   71.3225   -4.1458 C   0  0  2  0  0  0  0  0  0  0  0  0
   18.7050   69.6778   -4.1867 C   0  0  1  0  0  0  0  0  0  0  0  0
   17.0364   70.5939   -2.8130 C   0  0  2  0  0  0  0  0  0  0  0  0
   15.9955   69.6622   -5.9689 H   0  0  0  0  0  0  0  0  0  0  0  0
   15.7426   72.1422   -5.3980 H   0  0  0  0  0  0  0  0  0  0  0  0
   15.5414   70.3832   -0.4262 O   0  0  0  0  0  0  0  0  0  0  0  0
   17.5780   74.0965    1.3925 O   0  0  0  0  0  0  0  0  0  0  0  0
   17.1560   71.4922   -1.6996 N   0  0  0  0  0  0  0  0  0  0  0  0
   16.5565   72.2335    0.4769 N   0  0  0  0  0  0  0  0  0  0  0  0
   16.3583   71.2981   -0.5472 C   0  0  0  0  0  0  0  0  0  0  0  0
   18.0561   72.5494   -1.7550 C   0  0  0  0  0  0  0  0  0  0  0  0
   18.2340   73.4328   -0.7707 C   0  0  0  0  0  0  0  0  0  0  0  0
   17.4388   73.3016    0.4678 C   0  0  0  0  0  0  0  0  0  0  0  0
   16.0108   72.1201    1.2886 H   0  0  0  0  0  0  0  0  0  0  0  0
   21.8507   71.1440   -1.1747 O   0  0  0  0  0  0  0  0  0  0  0  0
   21.1975   70.2301   -0.0121 P   0  0  2  0  0  0  0  0  0  0  0  0
   22.1072   68.8914   -0.0391 O   0  0  0  0  0  0  0  0  0  0  0  0
   19.7262   69.9814   -0.1779 O   0  0  0  0  0  0  0  0  0  0  0  0
   21.6007   70.9687    1.3643 O   0  0  0  0  0  0  0  0  0  0  0  0
   22.8507   72.9495    1.7151 O   0  0  0  0  0  0  0  0  0  0  0  0
   23.8166   70.7407    5.0701 O   0  0  0  0  0  0  0  0  0  0  0  0
   23.6740   69.4633    2.4467 O   0  0  0  0  0  0  0  0  0  0  0  0
   21.9497   72.9599    5.2718 O   0  0  0  0  0  0  0  0  0  0  0  0
   22.9833   71.1920    4.0025 C   0  0  2  0  0  0  0  0  0  0  0  0
   23.6472   70.8693    2.6636 C   0  0  2  0  0  0  0  0  0  0  0  0
   22.7977   72.7035    4.1539 C   0  0  1  0  0  0  0  0  0  0  0  0
   22.9010   71.5374    1.5078 C   0  0  1  0  0  0  0  0  0  0  0  0
   22.1613   73.3142    2.9087 C   0  0  1  0  0  0  0  0  0  0  0  0
   23.9486   69.7825    4.9946 H   0  0  0  0  0  0  0  0  0  0  0  0
   24.1457   69.0329    3.1765 H   0  0  0  0  0  0  0  0  0  0  0  0
   22.3433   72.5762    6.0710 H   0  0  0  0  0  0  0  0  0  0  0  0
   22.0262   75.3189    1.6986 O   0  0  0  0  0  0  0  0  0  0  0  0
   22.5754   75.4717    3.9064 O   0  0  0  0  0  0  0  0  0  0  0  0
   22.2846   74.8031    2.9258 C   0  0  0  0  0  0  0  0  0  0  0  0
  1  4  1  0
  1 24  1  0
  1  2  1  6
  1  3  2  0
 25 28  1  0
 25 24  1  0
 25 26  1  1
 25 27  2  0
  6 11  1  0
  6 12  1  0
 29 36  1  0
 29 37  1  0
  9  7  1  1
  7 13  1  0
 10  8  1  6
  8 14  1  0
  4  5  1  0
 36 28  1  1
 33 30  1  1
 30 38  1  0
 34 31  1  6
 31 39  1  0
 35 32  1  1
 32 40  1  0
 41 43  1  0
 15 19  2  0
 42 43  2  0
 16 22  2  0
 12 17  1  1
 17 19  1  0
 17 20  1  0
 18 19  1  0
 18 22  1  0
 18 23  1  0
  9 10  1  0
  9 11  1  0
 10 12  1  0
 11  5  1  1
 33 34  1  0
 33 35  1  0
 34 36  1  0
 35 37  1  0
 37 43  1  1
 20 21  2  0
 21 22  1  0
M  CHG  3   2  -1  26  -1  41  -1
M  END
>  <COMPND>  (160) 
    udp_gluA.pdb 

>  <AUTHOR>  (160) 
    GENERATED BY OPEN BABEL 3.1.1

>  <MASTER>  (160) 
        0    0    0    0    0    0    0    0   56    0   56    0

>  <minimizedAffinity>  (160) 
-7.13749

>  <CNNscore>  (160) 
0.2409633845

>  <CNNaffinity>  (160) 
3.9455444813

>  <CNN_VS>  (160) 
0.9507317543

>  <CNNaffinity_variance>  (160) 
0.2257820368

$$$$
161
     RDKit          3D

 43 45  0  0  0  0  0  0  0  0999 V2000
   21.7378   71.9140   -1.6487 P   0  0  2  0  0  0  0  0  0  0  0  0
   22.5966   73.2274   -2.0444 O   0  0  0  0  0  0  0  0  0  0  0  0
   22.4973   70.6209   -1.7017 O   0  0  0  0  0  0  0  0  0  0  0  0
   20.4326   72.0018   -2.6009 O   0  0  0  0  0  0  0  0  0  0  0  0
   19.6380   70.8420   -2.7674 C   0  0  0  0  0  0  0  0  0  0  0  0
   17.9851   71.8669   -4.1799 O   0  0  0  0  0  0  0  0  0  0  0  0
   15.9396   70.5689   -2.4128 O   0  0  0  0  0  0  0  0  0  0  0  0
   15.9841   68.9196   -4.5839 O   0  0  0  0  0  0  0  0  0  0  0  0
   17.2123   70.0776   -2.8339 C   0  0  1  0  0  0  0  0  0  0  0  0
   17.1552   69.6502   -4.2852 C   0  0  2  0  0  0  0  0  0  0  0  0
   18.1765   71.2548   -2.8861 C   0  0  1  0  0  0  0  0  0  0  0  0
   17.2126   70.9845   -5.0093 C   0  0  2  0  0  0  0  0  0  0  0  0
   15.3065   69.8346   -2.3719 H   0  0  0  0  0  0  0  0  0  0  0  0
   15.9951   68.0788   -4.0991 H   0  0  0  0  0  0  0  0  0  0  0  0
   15.8621   70.3077   -7.3957 O   0  0  0  0  0  0  0  0  0  0  0  0
   19.7264   70.6251   -9.8878 O   0  0  0  0  0  0  0  0  0  0  0  0
   17.8415   70.8831   -6.2959 N   0  0  0  0  0  0  0  0  0  0  0  0
   17.7882   70.4654   -8.6344 N   0  0  0  0  0  0  0  0  0  0  0  0
   17.0727   70.5363   -7.4320 C   0  0  0  0  0  0  0  0  0  0  0  0
   19.2034   71.1275   -6.4233 C   0  0  0  0  0  0  0  0  0  0  0  0
   19.8716   71.0562   -7.5762 C   0  0  0  0  0  0  0  0  0  0  0  0
   19.1425   70.6990   -8.8108 C   0  0  0  0  0  0  0  0  0  0  0  0
   17.2747   70.2237   -9.4389 H   0  0  0  0  0  0  0  0  0  0  0  0
   21.1500   72.2905   -0.1908 O   0  0  0  0  0  0  0  0  0  0  0  0
   20.5068   71.3625    0.9663 P   0  0  2  0  0  0  0  0  0  0  0  0
   20.4045   69.9093    0.2607 O   0  0  0  0  0  0  0  0  0  0  0  0
   19.2075   71.8758    1.5161 O   0  0  0  0  0  0  0  0  0  0  0  0
   21.6803   71.2016    2.0615 O   0  0  0  0  0  0  0  0  0  0  0  0
   23.6143   72.5384    2.3474 O   0  0  0  0  0  0  0  0  0  0  0  0
   24.9255   68.8623    3.7021 O   0  0  0  0  0  0  0  0  0  0  0  0
   23.2730   69.0522    1.3005 O   0  0  0  0  0  0  0  0  0  0  0  0
   24.2893   70.9734    5.5966 O   0  0  0  0  0  0  0  0  0  0  0  0
   23.9740   69.8994    3.4631 C   0  0  2  0  0  0  0  0  0  0  0  0
   23.8701   70.1623    1.9605 C   0  0  2  0  0  0  0  0  0  0  0  0
   24.4525   71.1573    4.1916 C   0  0  1  0  0  0  0  0  0  0  0  0
   23.0383   71.4147    1.6805 C   0  0  1  0  0  0  0  0  0  0  0  0
   23.6547   72.3859    3.7645 C   0  0  1  0  0  0  0  0  0  0  0  0
   24.6423   68.0527    3.2485 H   0  0  0  0  0  0  0  0  0  0  0  0
   23.7955   68.2540    1.4741 H   0  0  0  0  0  0  0  0  0  0  0  0
   24.7920   70.1943    5.8814 H   0  0  0  0  0  0  0  0  0  0  0  0
   24.2756   74.5885    3.2502 O   0  0  0  0  0  0  0  0  0  0  0  0
   24.8552   73.7983    5.3090 O   0  0  0  0  0  0  0  0  0  0  0  0
   24.3287   73.6399    4.2178 C   0  0  0  0  0  0  0  0  0  0  0  0
  1  4  1  0
  1 24  1  0
  1  2  1  6
  1  3  2  0
 25 28  1  0
 25 24  1  0
 25 26  1  6
 25 27  2  0
  6 11  1  0
  6 12  1  0
 29 36  1  0
 29 37  1  0
  9  7  1  6
  7 13  1  0
 10  8  1  1
  8 14  1  0
  4  5  1  0
 36 28  1  1
 33 30  1  6
 30 38  1  0
 34 31  1  6
 31 39  1  0
 35 32  1  1
 32 40  1  0
 41 43  1  0
 15 19  2  0
 42 43  2  0
 16 22  2  0
 12 17  1  6
 17 19  1  0
 17 20  1  0
 18 19  1  0
 18 22  1  0
 18 23  1  0
  9 10  1  0
  9 11  1  0
 10 12  1  0
 11  5  1  6
 33 34  1  0
 33 35  1  0
 34 36  1  0
 35 37  1  0
 37 43  1  1
 20 21  2  0
 21 22  1  0
M  CHG  3   2  -1  26  -1  41  -1
M  END
>  <COMPND>  (161) 
    udp_gluA.pdb 

>  <AUTHOR>  (161) 
    GENERATED BY OPEN BABEL 3.1.1

>  <MASTER>  (161) 
        0    0    0    0    0    0    0    0   56    0   56    0

>  <minimizedAffinity>  (161) 
-8.16003

>  <CNNscore>  (161) 
0.7653980255

>  <CNNaffinity>  (161) 
4.6684241295

>  <CNN_VS>  (161) 
3.5732026100

>  <CNNaffinity_variance>  (161) 
0.0315192342

$$$$
162
     RDKit          3D

 43 45  0  0  0  0  0  0  0  0999 V2000
   22.6630   71.7386   -3.2576 P   0  0  2  0  0  0  0  0  0  0  0  0
   23.2281   72.8555   -2.2319 O   0  0  0  0  0  0  0  0  0  0  0  0
   22.5403   72.1916   -4.6829 O   0  0  0  0  0  0  0  0  0  0  0  0
   21.2937   71.2296   -2.5619 O   0  0  0  0  0  0  0  0  0  0  0  0
   20.3679   70.4996   -3.3457 C   0  0  0  0  0  0  0  0  0  0  0  0
   18.8460   71.8757   -4.5978 O   0  0  0  0  0  0  0  0  0  0  0  0
   16.7490   71.0215   -2.6319 O   0  0  0  0  0  0  0  0  0  0  0  0
   16.2287   69.4326   -4.7861 O   0  0  0  0  0  0  0  0  0  0  0  0
   17.8398   70.2746   -3.1713 C   0  0  1  0  0  0  0  0  0  0  0  0
   17.5527   69.8905   -4.6074 C   0  0  2  0  0  0  0  0  0  0  0  0
   19.0249   71.2181   -3.3247 C   0  0  1  0  0  0  0  0  0  0  0  0
   17.8257   71.1917   -5.3424 C   0  0  2  0  0  0  0  0  0  0  0  0
   15.9798   70.4397   -2.5249 H   0  0  0  0  0  0  0  0  0  0  0  0
   16.1053   68.6022   -4.2992 H   0  0  0  0  0  0  0  0  0  0  0  0
   16.1442   70.6604   -7.5485 O   0  0  0  0  0  0  0  0  0  0  0  0
   19.7217   70.3818  -10.4411 O   0  0  0  0  0  0  0  0  0  0  0  0
   18.2913   70.9764   -6.6832 N   0  0  0  0  0  0  0  0  0  0  0  0
   17.9277   70.5211   -8.9869 N   0  0  0  0  0  0  0  0  0  0  0  0
   17.3634   70.7166   -7.7194 C   0  0  0  0  0  0  0  0  0  0  0  0
   19.6519   71.0250   -6.9612 C   0  0  0  0  0  0  0  0  0  0  0  0
   20.1747   70.8368   -8.1744 C   0  0  0  0  0  0  0  0  0  0  0  0
   19.2739   70.5592   -9.3123 C   0  0  0  0  0  0  0  0  0  0  0  0
   17.3016   70.3367   -9.7240 H   0  0  0  0  0  0  0  0  0  0  0  0
   23.6701   70.4948   -3.0307 O   0  0  0  0  0  0  0  0  0  0  0  0
   23.6843   69.3318   -1.9078 P   0  0  2  0  0  0  0  0  0  0  0  0
   25.2605   69.1428   -1.5910 O   0  0  0  0  0  0  0  0  0  0  0  0
   22.9805   68.0708   -2.3182 O   0  0  0  0  0  0  0  0  0  0  0  0
   23.0844   70.0331   -0.5846 O   0  0  0  0  0  0  0  0  0  0  0  0
   23.3616   69.0347    1.5451 O   0  0  0  0  0  0  0  0  0  0  0  0
   20.2346   71.6437    2.2402 O   0  0  0  0  0  0  0  0  0  0  0  0
   20.3277   70.0648   -0.2159 O   0  0  0  0  0  0  0  0  0  0  0  0
   22.9060   72.2811    3.1930 O   0  0  0  0  0  0  0  0  0  0  0  0
   21.4394   71.1882    1.6247 C   0  0  2  0  0  0  0  0  0  0  0  0
   21.1784   69.8638    0.9069 C   0  0  2  0  0  0  0  0  0  0  0  0
   22.4895   71.0008    2.7221 C   0  0  1  0  0  0  0  0  0  0  0  0
   22.4875   69.2311    0.4329 C   0  0  1  0  0  0  0  0  0  0  0  0
   23.7123   70.2513    2.2009 C   0  0  1  0  0  0  0  0  0  0  0  0
   19.5524   71.7698    1.5620 H   0  0  0  0  0  0  0  0  0  0  0  0
   19.4952   70.4663    0.0775 H   0  0  0  0  0  0  0  0  0  0  0  0
   22.1370   72.7686    3.5274 H   0  0  0  0  0  0  0  0  0  0  0  0
   24.9713   70.8371    4.0912 O   0  0  0  0  0  0  0  0  0  0  0  0
   24.8754   68.6241    3.5503 O   0  0  0  0  0  0  0  0  0  0  0  0
   24.5717   69.7873    3.3316 C   0  0  0  0  0  0  0  0  0  0  0  0
  1  4  1  0
  1 24  1  0
  1  2  1  1
  1  3  2  0
 25 28  1  0
 25 24  1  0
 25 26  1  1
 25 27  2  0
  6 11  1  0
  6 12  1  0
 29 36  1  0
 29 37  1  0
  9  7  1  6
  7 13  1  0
 10  8  1  1
  8 14  1  0
  4  5  1  0
 36 28  1  6
 33 30  1  1
 30 38  1  0
 34 31  1  6
 31 39  1  0
 35 32  1  6
 32 40  1  0
 41 43  1  0
 15 19  2  0
 42 43  2  0
 16 22  2  0
 12 17  1  6
 17 19  1  0
 17 20  1  0
 18 19  1  0
 18 22  1  0
 18 23  1  0
  9 10  1  0
  9 11  1  0
 10 12  1  0
 11  5  1  6
 33 34  1  0
 33 35  1  0
 34 36  1  0
 35 37  1  0
 37 43  1  1
 20 21  2  0
 21 22  1  0
M  CHG  3   2  -1  26  -1  41  -1
M  END
>  <COMPND>  (162) 
    udp_gluA.pdb 

>  <AUTHOR>  (162) 
    GENERATED BY OPEN BABEL 3.1.1

>  <MASTER>  (162) 
        0    0    0    0    0    0    0    0   56    0   56    0

>  <minimizedAffinity>  (162) 
-8.84326

>  <CNNscore>  (162) 
0.7178028822

>  <CNNaffinity>  (162) 
4.5866441727

>  <CNN_VS>  (162) 
3.2923064232

>  <CNNaffinity_variance>  (162) 
0.0923356786

$$$$
163
     RDKit          3D

 43 45  0  0  0  0  0  0  0  0999 V2000
   21.1736   73.8247   -1.0382 P   0  0  2  0  0  0  0  0  0  0  0  0
   20.3446   74.8977   -1.9216 O   0  0  0  0  0  0  0  0  0  0  0  0
   22.6578   74.0435   -1.0046 O   0  0  0  0  0  0  0  0  0  0  0  0
   20.6875   72.3916   -1.6108 O   0  0  0  0  0  0  0  0  0  0  0  0
   20.0520   72.3491   -2.8753 C   0  0  0  0  0  0  0  0  0  0  0  0
   17.9403   71.9713   -3.9595 O   0  0  0  0  0  0  0  0  0  0  0  0
   17.3255   70.0996   -1.6988 O   0  0  0  0  0  0  0  0  0  0  0  0
   18.0428   68.3966   -3.7041 O   0  0  0  0  0  0  0  0  0  0  0  0
   18.5699   70.3483   -2.3531 C   0  0  1  0  0  0  0  0  0  0  0  0
   18.5804   69.7024   -3.7224 C   0  0  2  0  0  0  0  0  0  0  0  0
   18.6309   71.8298   -2.6992 C   0  0  1  0  0  0  0  0  0  0  0  0
   17.7370   70.6706   -4.5343 C   0  0  2  0  0  0  0  0  0  0  0  0
   17.2635   69.1592   -1.4679 H   0  0  0  0  0  0  0  0  0  0  0  0
   18.6157   67.8186   -3.1752 H   0  0  0  0  0  0  0  0  0  0  0  0
   16.0306   69.9970   -6.6816 O   0  0  0  0  0  0  0  0  0  0  0  0
   19.3188   70.8423   -9.7988 O   0  0  0  0  0  0  0  0  0  0  0  0
   18.1214   70.7059   -5.9170 N   0  0  0  0  0  0  0  0  0  0  0  0
   17.6703   70.4177   -8.2321 N   0  0  0  0  0  0  0  0  0  0  0  0
   17.1880   70.3481   -6.9184 C   0  0  0  0  0  0  0  0  0  0  0  0
   19.4086   71.0930   -6.2693 C   0  0  0  0  0  0  0  0  0  0  0  0
   19.8537   71.1546   -7.5258 C   0  0  0  0  0  0  0  0  0  0  0  0
   18.9417   70.7961   -8.6318 C   0  0  0  0  0  0  0  0  0  0  0  0
   17.0393   70.1712   -8.9465 H   0  0  0  0  0  0  0  0  0  0  0  0
   20.4484   73.9046    0.4042 O   0  0  0  0  0  0  0  0  0  0  0  0
   21.0070   74.3680    1.8488 P   0  0  2  0  0  0  0  0  0  0  0  0
   19.7473   74.1106    2.8323 O   0  0  0  0  0  0  0  0  0  0  0  0
   21.5406   75.7709    1.8816 O   0  0  0  0  0  0  0  0  0  0  0  0
   22.0797   73.2340    2.2559 O   0  0  0  0  0  0  0  0  0  0  0  0
   21.3657   70.9823    2.0851 O   0  0  0  0  0  0  0  0  0  0  0  0
   24.8575   70.5944    4.2587 O   0  0  0  0  0  0  0  0  0  0  0  0
   22.9819   72.7565    4.8432 O   0  0  0  0  0  0  0  0  0  0  0  0
   24.8047   69.8772    1.4420 O   0  0  0  0  0  0  0  0  0  0  0  0
   23.9802   71.1775    3.2952 C   0  0  2  0  0  0  0  0  0  0  0  0
   22.7033   71.6539    3.9880 C   0  0  2  0  0  0  0  0  0  0  0  0
   23.6515   70.1109    2.2482 C   0  0  1  0  0  0  0  0  0  0  0  0
   21.6484   72.0727    2.9630 C   0  0  1  0  0  0  0  0  0  0  0  0
   22.5052   70.5531    1.3433 C   0  0  1  0  0  0  0  0  0  0  0  0
   25.0802   71.2539    4.9345 H   0  0  0  0  0  0  0  0  0  0  0  0
   23.6507   72.4979    5.4960 H   0  0  0  0  0  0  0  0  0  0  0  0
   25.5418   69.5953    2.0060 H   0  0  0  0  0  0  0  0  0  0  0  0
   20.6306   69.4890    0.4187 O   0  0  0  0  0  0  0  0  0  0  0  0
   22.6572   68.4972    0.0897 O   0  0  0  0  0  0  0  0  0  0  0  0
   21.9769   69.3995    0.5544 C   0  0  0  0  0  0  0  0  0  0  0  0
  1  4  1  0
  1 24  1  0
  1  2  1  6
  1  3  2  0
 25 28  1  0
 25 24  1  0
 25 26  1  1
 25 27  2  0
  6 11  1  0
  6 12  1  0
 29 36  1  0
 29 37  1  0
  9  7  1  6
  7 13  1  0
 10  8  1  1
  8 14  1  0
  4  5  1  0
 36 28  1  6
 33 30  1  1
 30 38  1  0
 34 31  1  1
 31 39  1  0
 35 32  1  6
 32 40  1  0
 41 43  1  0
 15 19  2  0
 42 43  2  0
 16 22  2  0
 12 17  1  6
 17 19  1  0
 17 20  1  0
 18 19  1  0
 18 22  1  0
 18 23  1  0
  9 10  1  0
  9 11  1  0
 10 12  1  0
 11  5  1  6
 33 34  1  0
 33 35  1  0
 34 36  1  0
 35 37  1  0
 37 43  1  6
 20 21  2  0
 21 22  1  0
M  CHG  3   2  -1  26  -1  41  -1
M  END
>  <COMPND>  (163) 
    udp_gluA.pdb 

>  <AUTHOR>  (163) 
    GENERATED BY OPEN BABEL 3.1.1

>  <MASTER>  (163) 
        0    0    0    0    0    0    0    0   56    0   56    0

>  <minimizedAffinity>  (163) 
-8.17542

>  <CNNscore>  (163) 
0.6500320435

>  <CNNaffinity>  (163) 
4.4620795250

>  <CNN_VS>  (163) 
2.9004945755

>  <CNNaffinity_variance>  (163) 
0.1100075617

$$$$
164
     RDKit          3D

 43 45  0  0  0  0  0  0  0  0999 V2000
   22.8556   69.6746   -2.2941 P   0  0  2  0  0  0  0  0  0  0  0  0
   23.7958   70.5816   -3.2493 O   0  0  0  0  0  0  0  0  0  0  0  0
   23.1995   68.2142   -2.2690 O   0  0  0  0  0  0  0  0  0  0  0  0
   21.3527   70.0345   -2.7734 O   0  0  0  0  0  0  0  0  0  0  0  0
   21.1026   71.3230   -3.3041 C   0  0  0  0  0  0  0  0  0  0  0  0
   19.0980   72.1632   -4.3303 O   0  0  0  0  0  0  0  0  0  0  0  0
   17.6280   70.9590   -2.0108 O   0  0  0  0  0  0  0  0  0  0  0  0
   17.2229   69.1265   -3.9892 O   0  0  0  0  0  0  0  0  0  0  0  0
   18.7815   70.4751   -2.6991 C   0  0  1  0  0  0  0  0  0  0  0  0
   18.3899   69.9194   -4.0520 C   0  0  2  0  0  0  0  0  0  0  0  0
   19.6371   71.6746   -3.0829 C   0  0  1  0  0  0  0  0  0  0  0  0
   18.1933   71.1856   -4.8681 C   0  0  2  0  0  0  0  0  0  0  0  0
   17.0658   70.2104   -1.7554 H   0  0  0  0  0  0  0  0  0  0  0  0
   17.3995   68.3328   -3.4593 H   0  0  0  0  0  0  0  0  0  0  0  0
   16.2971   70.3923   -6.8050 O   0  0  0  0  0  0  0  0  0  0  0  0
   19.4375   70.4735  -10.1778 O   0  0  0  0  0  0  0  0  0  0  0  0
   18.4883   70.9920   -6.2596 N   0  0  0  0  0  0  0  0  0  0  0  0
   17.8632   70.4325   -8.4828 N   0  0  0  0  0  0  0  0  0  0  0  0
   17.4634   70.5924   -7.1495 C   0  0  0  0  0  0  0  0  0  0  0  0
   19.7793   71.1989   -6.7302 C   0  0  0  0  0  0  0  0  0  0  0  0
   20.1452   71.0426   -8.0040 C   0  0  0  0  0  0  0  0  0  0  0  0
   19.1347   70.6259   -8.9982 C   0  0  0  0  0  0  0  0  0  0  0  0
   17.1675   70.1527   -9.1207 H   0  0  0  0  0  0  0  0  0  0  0  0
   22.9683   70.4176   -0.8629 O   0  0  0  0  0  0  0  0  0  0  0  0
   22.2716   70.0928    0.5593 P   0  0  2  0  0  0  0  0  0  0  0  0
   23.4237   69.2850    1.3596 O   0  0  0  0  0  0  0  0  0  0  0  0
   20.9646   69.3619    0.4522 O   0  0  0  0  0  0  0  0  0  0  0  0
   22.1814   71.5199    1.3062 O   0  0  0  0  0  0  0  0  0  0  0  0
   22.6571   71.2197    3.6068 O   0  0  0  0  0  0  0  0  0  0  0  0
   21.8337   75.2648    3.4394 O   0  0  0  0  0  0  0  0  0  0  0  0
   20.1956   73.3573    1.9519 O   0  0  0  0  0  0  0  0  0  0  0  0
   24.5805   74.3434    3.6785 O   0  0  0  0  0  0  0  0  0  0  0  0
   22.3080   74.0101    2.9507 C   0  0  2  0  0  0  0  0  0  0  0  0
   21.1604   73.0001    2.9349 C   0  0  2  0  0  0  0  0  0  0  0  0
   23.4251   73.5320    3.8810 C   0  0  1  0  0  0  0  0  0  0  0  0
   21.6757   71.5911    2.6381 C   0  0  1  0  0  0  0  0  0  0  0  0
   23.7959   72.0777    3.6047 C   0  0  1  0  0  0  0  0  0  0  0  0
   21.1229   75.5883    2.8637 H   0  0  0  0  0  0  0  0  0  0  0  0
   19.8646   74.2504    2.1339 H   0  0  0  0  0  0  0  0  0  0  0  0
   24.3580   75.2717    3.8509 H   0  0  0  0  0  0  0  0  0  0  0  0
   25.2758   70.3997    4.3087 O   0  0  0  0  0  0  0  0  0  0  0  0
   24.7362   72.0140    5.8258 O   0  0  0  0  0  0  0  0  0  0  0  0
   24.6345   71.5248    4.7108 C   0  0  0  0  0  0  0  0  0  0  0  0
  1  4  1  0
  1 24  1  0
  1  2  1  6
  1  3  2  0
 25 28  1  0
 25 24  1  0
 25 26  1  1
 25 27  2  0
  6 11  1  0
  6 12  1  0
 29 36  1  0
 29 37  1  0
  9  7  1  6
  7 13  1  0
 10  8  1  1
  8 14  1  0
  4  5  1  0
 36 28  1  6
 33 30  1  1
 30 38  1  0
 34 31  1  6
 31 39  1  0
 35 32  1  6
 32 40  1  0
 41 43  1  0
 15 19  2  0
 42 43  2  0
 16 22  2  0
 12 17  1  6
 17 19  1  0
 17 20  1  0
 18 19  1  0
 18 22  1  0
 18 23  1  0
  9 10  1  0
  9 11  1  0
 10 12  1  0
 11  5  1  6
 33 34  1  0
 33 35  1  0
 34 36  1  0
 35 37  1  0
 37 43  1  1
 20 21  2  0
 21 22  1  0
M  CHG  3   2  -1  26  -1  41  -1
M  END
>  <COMPND>  (164) 
    udp_gluA.pdb 

>  <AUTHOR>  (164) 
    GENERATED BY OPEN BABEL 3.1.1

>  <MASTER>  (164) 
        0    0    0    0    0    0    0    0   56    0   56    0

>  <minimizedAffinity>  (164) 
-8.82224

>  <CNNscore>  (164) 
0.6305390596

>  <CNNaffinity>  (164) 
4.6396398544

>  <CNN_VS>  (164) 
2.9254741669

>  <CNNaffinity_variance>  (164) 
0.0235049017

$$$$
165
     RDKit          3D

 43 45  0  0  0  0  0  0  0  0999 V2000
   22.5187   70.1798   -2.0201 P   0  0  2  0  0  0  0  0  0  0  0  0
   23.2004   71.3747   -2.8724 O   0  0  0  0  0  0  0  0  0  0  0  0
   23.1537   68.8320   -2.1988 O   0  0  0  0  0  0  0  0  0  0  0  0
   20.9500   70.2740   -2.4051 O   0  0  0  0  0  0  0  0  0  0  0  0
   20.4176   71.5345   -2.7691 C   0  0  0  0  0  0  0  0  0  0  0  0
   18.3128   71.9255   -3.8619 O   0  0  0  0  0  0  0  0  0  0  0  0
   17.0925   70.2304   -1.7104 O   0  0  0  0  0  0  0  0  0  0  0  0
   17.2454   68.5031   -3.8149 O   0  0  0  0  0  0  0  0  0  0  0  0
   18.3591   70.0978   -2.3558 C   0  0  1  0  0  0  0  0  0  0  0  0
   18.1781   69.5622   -3.7603 C   0  0  2  0  0  0  0  0  0  0  0  0
   18.9026   71.4961   -2.6157 C   0  0  1  0  0  0  0  0  0  0  0  0
   17.7060   70.7963   -4.5101 C   0  0  2  0  0  0  0  0  0  0  0  0
   16.7252   69.3496   -1.5340 H   0  0  0  0  0  0  0  0  0  0  0  0
   17.5921   67.7413   -3.3235 H   0  0  0  0  0  0  0  0  0  0  0  0
   16.0255   70.0136   -6.6408 O   0  0  0  0  0  0  0  0  0  0  0  0
   19.3240   70.7845   -9.7665 O   0  0  0  0  0  0  0  0  0  0  0  0
   18.1000   70.7829   -5.8905 N   0  0  0  0  0  0  0  0  0  0  0  0
   17.6703   70.3973   -8.1954 N   0  0  0  0  0  0  0  0  0  0  0  0
   17.1794   70.3722   -6.8834 C   0  0  0  0  0  0  0  0  0  0  0  0
   19.3841   71.1749   -6.2490 C   0  0  0  0  0  0  0  0  0  0  0  0
   19.8375   71.1937   -7.5040 C   0  0  0  0  0  0  0  0  0  0  0  0
   18.9390   70.7785   -8.6011 C   0  0  0  0  0  0  0  0  0  0  0  0
   17.0482   70.1136   -8.9039 H   0  0  0  0  0  0  0  0  0  0  0  0
   22.5561   70.7465   -0.5067 O   0  0  0  0  0  0  0  0  0  0  0  0
   21.9750   70.1324    0.8713 P   0  0  2  0  0  0  0  0  0  0  0  0
   23.2805   69.4672    1.5593 O   0  0  0  0  0  0  0  0  0  0  0  0
   20.8236   69.1868    0.6868 O   0  0  0  0  0  0  0  0  0  0  0  0
   21.6442   71.4197    1.7856 O   0  0  0  0  0  0  0  0  0  0  0  0
   22.6830   73.5418    1.6222 O   0  0  0  0  0  0  0  0  0  0  0  0
   21.4706   73.5012    5.5714 O   0  0  0  0  0  0  0  0  0  0  0  0
   22.6521   71.1196    4.3605 O   0  0  0  0  0  0  0  0  0  0  0  0
   20.0067   75.0721    3.6117 O   0  0  0  0  0  0  0  0  0  0  0  0
   21.3934   73.1859    4.1812 C   0  0  2  0  0  0  0  0  0  0  0  0
   22.6427   72.4106    3.7622 C   0  0  2  0  0  0  0  0  0  0  0  0
   21.2965   74.4999    3.4029 C   0  0  1  0  0  0  0  0  0  0  0  0
   22.7062   72.2555    2.2421 C   0  0  1  0  0  0  0  0  0  0  0  0
   21.4948   74.2770    1.9064 C   0  0  1  0  0  0  0  0  0  0  0  0
   21.5330   72.6812    6.0862 H   0  0  0  0  0  0  0  0  0  0  0  0
   22.6118   71.2104    5.3251 H   0  0  0  0  0  0  0  0  0  0  0  0
   19.8679   75.2189    4.5604 H   0  0  0  0  0  0  0  0  0  0  0  0
   20.5505   76.1221    0.8085 O   0  0  0  0  0  0  0  0  0  0  0  0
   22.8215   76.0807    1.0078 O   0  0  0  0  0  0  0  0  0  0  0  0
   21.7267   75.5745    1.2029 C   0  0  0  0  0  0  0  0  0  0  0  0
  1  4  1  0
  1 24  1  0
  1  2  1  6
  1  3  2  0
 25 28  1  0
 25 24  1  0
 25 26  1  1
 25 27  2  0
  6 11  1  0
  6 12  1  0
 29 36  1  0
 29 37  1  0
  9  7  1  6
  7 13  1  0
 10  8  1  1
  8 14  1  0
  4  5  1  0
 36 28  1  6
 33 30  1  1
 30 38  1  0
 34 31  1  1
 31 39  1  0
 35 32  1  6
 32 40  1  0
 41 43  1  0
 15 19  2  0
 42 43  2  0
 16 22  2  0
 12 17  1  6
 17 19  1  0
 17 20  1  0
 18 19  1  0
 18 22  1  0
 18 23  1  0
  9 10  1  0
  9 11  1  0
 10 12  1  0
 11  5  1  6
 33 34  1  0
 33 35  1  0
 34 36  1  0
 35 37  1  0
 37 43  1  6
 20 21  2  0
 21 22  1  0
M  CHG  3   2  -1  26  -1  41  -1
M  END
>  <COMPND>  (165) 
    udp_gluA.pdb 

>  <AUTHOR>  (165) 
    GENERATED BY OPEN BABEL 3.1.1

>  <MASTER>  (165) 
        0    0    0    0    0    0    0    0   56    0   56    0

>  <minimizedAffinity>  (165) 
-7.99055

>  <CNNscore>  (165) 
0.6209872365

>  <CNNaffinity>  (165) 
4.7305655479

>  <CNN_VS>  (165) 
2.9376208782

>  <CNNaffinity_variance>  (165) 
0.0924379081

$$$$
166
     RDKit          3D

 43 45  0  0  0  0  0  0  0  0999 V2000
   19.7035   71.3008   -0.8187 P   0  0  2  0  0  0  0  0  0  0  0  0
   18.3919   71.1106   -1.7473 O   0  0  0  0  0  0  0  0  0  0  0  0
   20.1304   70.0746   -0.0664 O   0  0  0  0  0  0  0  0  0  0  0  0
   19.3537   72.5948    0.0874 O   0  0  0  0  0  0  0  0  0  0  0  0
   19.1456   72.4117    1.4758 C   0  0  0  0  0  0  0  0  0  0  0  0
   20.6108   73.0840    3.2587 O   0  0  0  0  0  0  0  0  0  0  0  0
   20.6561   75.7834    1.9537 O   0  0  0  0  0  0  0  0  0  0  0  0
   23.0230   74.6933    1.1503 O   0  0  0  0  0  0  0  0  0  0  0  0
   20.6085   74.4894    1.3520 C   0  0  1  0  0  0  0  0  0  0  0  0
   21.9599   73.8143    1.4532 C   0  0  2  0  0  0  0  0  0  0  0  0
   19.7398   73.5962    2.2270 C   0  0  1  0  0  0  0  0  0  0  0  0
   21.9754   73.3550    2.9011 C   0  0  2  0  0  0  0  0  0  0  0  0
   21.2057   76.3720    1.4124 H   0  0  0  0  0  0  0  0  0  0  0  0
   22.9691   74.9566    0.2177 H   0  0  0  0  0  0  0  0  0  0  0  0
   23.6085   72.8552    5.1505 O   0  0  0  0  0  0  0  0  0  0  0  0
   24.9141   68.7473    3.5183 O   0  0  0  0  0  0  0  0  0  0  0  0
   22.7529   72.1630    3.0896 N   0  0  0  0  0  0  0  0  0  0  0  0
   24.2580   70.8102    4.3349 N   0  0  0  0  0  0  0  0  0  0  0  0
   23.5401   72.0108    4.2555 C   0  0  0  0  0  0  0  0  0  0  0  0
   22.7297   71.1604    2.1277 C   0  0  0  0  0  0  0  0  0  0  0  0
   23.4193   70.0215    2.2175 C   0  0  0  0  0  0  0  0  0  0  0  0
   24.2674   69.7841    3.4040 C   0  0  0  0  0  0  0  0  0  0  0  0
   24.8150   70.6823    5.1367 H   0  0  0  0  0  0  0  0  0  0  0  0
   20.8036   71.8709   -1.8569 O   0  0  0  0  0  0  0  0  0  0  0  0
   21.3336   71.2873   -3.2684 P   0  0  2  0  0  0  0  0  0  0  0  0
   21.5567   69.7143   -2.9579 O   0  0  0  0  0  0  0  0  0  0  0  0
   22.5458   71.9890   -3.8086 O   0  0  0  0  0  0  0  0  0  0  0  0
   20.0459   71.3320   -4.2392 O   0  0  0  0  0  0  0  0  0  0  0  0
   20.1469   72.0188   -6.5035 O   0  0  0  0  0  0  0  0  0  0  0  0
   16.1589   72.6321   -5.6160 O   0  0  0  0  0  0  0  0  0  0  0  0
   18.2337   73.3711   -3.6968 O   0  0  0  0  0  0  0  0  0  0  0  0
   16.9621   70.3424   -7.2169 O   0  0  0  0  0  0  0  0  0  0  0  0
   17.4309   71.9907   -5.5233 C   0  0  2  0  0  0  0  0  0  0  0  0
   18.4784   72.9977   -5.0479 C   0  0  2  0  0  0  0  0  0  0  0  0
   17.7949   71.4594   -6.9115 C   0  0  1  0  0  0  0  0  0  0  0  0
   19.8876   72.4134   -5.1557 C   0  0  1  0  0  0  0  0  0  0  0  0
   19.2525   71.0120   -6.9722 C   0  0  1  0  0  0  0  0  0  0  0  0
   15.9067   72.9779   -4.7453 H   0  0  0  0  0  0  0  0  0  0  0  0
   17.3411   73.7424   -3.6210 H   0  0  0  0  0  0  0  0  0  0  0  0
   16.0315   70.6136   -7.1815 H   0  0  0  0  0  0  0  0  0  0  0  0
   18.7045   71.1775   -9.2468 O   0  0  0  0  0  0  0  0  0  0  0  0
   20.7760   70.3759   -8.7317 O   0  0  0  0  0  0  0  0  0  0  0  0
   19.6869   70.8098   -8.3873 C   0  0  0  0  0  0  0  0  0  0  0  0
  1  4  1  0
  1 24  1  0
  1  2  1  6
  1  3  2  0
 25 28  1  0
 25 24  1  0
 25 26  1  1
 25 27  2  0
  6 11  1  0
  6 12  1  0
 29 36  1  0
 29 37  1  0
  9  7  1  1
  7 13  1  0
 10  8  1  1
  8 14  1  0
  4  5  1  0
 36 28  1  1
 33 30  1  6
 30 38  1  0
 34 31  1  1
 31 39  1  0
 35 32  1  1
 32 40  1  0
 41 43  1  0
 15 19  2  0
 42 43  2  0
 16 22  2  0
 12 17  1  6
 17 19  1  0
 17 20  1  0
 18 19  1  0
 18 22  1  0
 18 23  1  0
  9 10  1  0
  9 11  1  0
 10 12  1  0
 11  5  1  6
 33 34  1  0
 33 35  1  0
 34 36  1  0
 35 37  1  0
 37 43  1  6
 20 21  2  0
 21 22  1  0
M  CHG  3   2  -1  26  -1  41  -1
M  END
>  <COMPND>  (166) 
    udp_gluA.pdb 

>  <AUTHOR>  (166) 
    GENERATED BY OPEN BABEL 3.1.1

>  <MASTER>  (166) 
        0    0    0    0    0    0    0    0   56    0   56    0

>  <minimizedAffinity>  (166) 
-6.75372

>  <CNNscore>  (166) 
0.4242607355

>  <CNNaffinity>  (166) 
4.0409121513

>  <CNN_VS>  (166) 
1.7144004107

>  <CNNaffinity_variance>  (166) 
0.0418475643

$$$$
167
     RDKit          3D

 43 45  0  0  0  0  0  0  0  0999 V2000
   19.4376   70.8633   -1.3497 P   0  0  2  0  0  0  0  0  0  0  0  0
   18.4784   71.5558   -0.2455 O   0  0  0  0  0  0  0  0  0  0  0  0
   20.1398   71.8199   -2.2682 O   0  0  0  0  0  0  0  0  0  0  0  0
   18.4802   69.7745   -2.0679 O   0  0  0  0  0  0  0  0  0  0  0  0
   18.5660   69.6209   -3.4727 C   0  0  0  0  0  0  0  0  0  0  0  0
   16.2721   70.2712   -3.1682 O   0  0  0  0  0  0  0  0  0  0  0  0
   15.9051   69.6551   -6.0797 O   0  0  0  0  0  0  0  0  0  0  0  0
   16.1098   72.3743   -6.0673 O   0  0  0  0  0  0  0  0  0  0  0  0
   17.0320   70.2223   -5.4112 C   0  0  1  0  0  0  0  0  0  0  0  0
   16.7462   71.6591   -5.0290 C   0  0  2  0  0  0  0  0  0  0  0  0
   17.1585   69.5499   -4.0509 C   0  0  1  0  0  0  0  0  0  0  0  0
   15.8598   71.4900   -3.8068 C   0  0  2  0  0  0  0  0  0  0  0  0
   15.8038   70.0691   -6.9515 H   0  0  0  0  0  0  0  0  0  0  0  0
   16.7147   72.4553   -6.8220 H   0  0  0  0  0  0  0  0  0  0  0  0
   14.0028   72.0822   -1.7629 O   0  0  0  0  0  0  0  0  0  0  0  0
   16.4885   75.6749   -0.2941 O   0  0  0  0  0  0  0  0  0  0  0  0
   15.9970   72.5744   -2.8761 N   0  0  0  0  0  0  0  0  0  0  0  0
   15.2421   73.8716   -1.0340 N   0  0  0  0  0  0  0  0  0  0  0  0
   15.0072   72.7855   -1.8873 C   0  0  0  0  0  0  0  0  0  0  0  0
   17.1023   73.4136   -2.9471 C   0  0  0  0  0  0  0  0  0  0  0  0
   17.3125   74.4448   -2.1266 C   0  0  0  0  0  0  0  0  0  0  0  0
   16.3255   74.7346   -1.0658 C   0  0  0  0  0  0  0  0  0  0  0  0
   14.5656   74.0397   -0.3386 H   0  0  0  0  0  0  0  0  0  0  0  0
   20.4211   69.9466   -0.4524 O   0  0  0  0  0  0  0  0  0  0  0  0
   21.9191   70.2159    0.0928 P   0  0  2  0  0  0  0  0  0  0  0  0
   22.7456   70.5662   -1.2542 O   0  0  0  0  0  0  0  0  0  0  0  0
   22.4949   69.0851    0.8952 O   0  0  0  0  0  0  0  0  0  0  0  0
   21.8202   71.6172    0.8859 O   0  0  0  0  0  0  0  0  0  0  0  0
   22.3030   71.2862    3.1808 O   0  0  0  0  0  0  0  0  0  0  0  0
   21.3355   75.3018    3.0959 O   0  0  0  0  0  0  0  0  0  0  0  0
   19.7690   73.3684    1.5654 O   0  0  0  0  0  0  0  0  0  0  0  0
   24.1132   74.4745    3.3219 O   0  0  0  0  0  0  0  0  0  0  0  0
   21.8552   74.0754    2.5822 C   0  0  2  0  0  0  0  0  0  0  0  0
   20.7445   73.0255    2.5428 C   0  0  2  0  0  0  0  0  0  0  0  0
   22.9873   73.6182    3.5048 C   0  0  1  0  0  0  0  0  0  0  0  0
   21.3103   71.6424    2.2179 C   0  0  1  0  0  0  0  0  0  0  0  0
   23.4103   72.1842    3.1992 C   0  0  1  0  0  0  0  0  0  0  0  0
   20.6144   75.6117    2.5256 H   0  0  0  0  0  0  0  0  0  0  0  0
   19.4059   74.2451    1.7652 H   0  0  0  0  0  0  0  0  0  0  0  0
   23.8573   75.3904    3.5132 H   0  0  0  0  0  0  0  0  0  0  0  0
   24.1532   72.3971    5.4137 O   0  0  0  0  0  0  0  0  0  0  0  0
   24.9726   70.6455    4.2056 O   0  0  0  0  0  0  0  0  0  0  0  0
   24.2666   71.6387    4.2953 C   0  0  0  0  0  0  0  0  0  0  0  0
  1  4  1  0
  1 24  1  0
  1  2  1  1
  1  3  2  0
 25 28  1  0
 25 24  1  0
 25 26  1  6
 25 27  2  0
  6 11  1  0
  6 12  1  0
 29 36  1  0
 29 37  1  0
  9  7  1  6
  7 13  1  0
 10  8  1  6
  8 14  1  0
  4  5  1  0
 36 28  1  6
 33 30  1  1
 30 38  1  0
 34 31  1  6
 31 39  1  0
 35 32  1  6
 32 40  1  0
 41 43  1  0
 15 19  2  0
 42 43  2  0
 16 22  2  0
 12 17  1  1
 17 19  1  0
 17 20  1  0
 18 19  1  0
 18 22  1  0
 18 23  1  0
  9 10  1  0
  9 11  1  0
 10 12  1  0
 11  5  1  1
 33 34  1  0
 33 35  1  0
 34 36  1  0
 35 37  1  0
 37 43  1  1
 20 21  2  0
 21 22  1  0
M  CHG  3   2  -1  26  -1  41  -1
M  END
>  <COMPND>  (167) 
    udp_gluA.pdb 

>  <AUTHOR>  (167) 
    GENERATED BY OPEN BABEL 3.1.1

>  <MASTER>  (167) 
        0    0    0    0    0    0    0    0   56    0   56    0

>  <minimizedAffinity>  (167) 
-6.53558

>  <CNNscore>  (167) 
0.3679302335

>  <CNNaffinity>  (167) 
4.0472340584

>  <CNN_VS>  (167) 
1.4890997410

>  <CNNaffinity_variance>  (167) 
0.1209877357

$$$$
168
     RDKit          3D

 43 45  0  0  0  0  0  0  0  0999 V2000
   20.8097   71.0040   -2.1732 P   0  0  2  0  0  0  0  0  0  0  0  0
   19.6821   70.5504   -1.1047 O   0  0  0  0  0  0  0  0  0  0  0  0
   21.0075   72.4865   -2.2948 O   0  0  0  0  0  0  0  0  0  0  0  0
   20.3862   70.2378   -3.5339 O   0  0  0  0  0  0  0  0  0  0  0  0
   19.5367   70.9050   -4.4492 C   0  0  0  0  0  0  0  0  0  0  0  0
   17.3990   72.0027   -4.3957 O   0  0  0  0  0  0  0  0  0  0  0  0
   16.2617   69.3434   -3.6042 O   0  0  0  0  0  0  0  0  0  0  0  0
   15.6577   69.4833   -6.2597 O   0  0  0  0  0  0  0  0  0  0  0  0
   17.3316   69.6374   -4.5028 C   0  0  1  0  0  0  0  0  0  0  0  0
   16.7875   70.1957   -5.8007 C   0  0  2  0  0  0  0  0  0  0  0  0
   18.1021   70.8253   -3.9432 C   0  0  1  0  0  0  0  0  0  0  0  0
   16.4587   71.6277   -5.4148 C   0  0  2  0  0  0  0  0  0  0  0  0
   15.7547   68.5875   -3.9408 H   0  0  0  0  0  0  0  0  0  0  0  0
   15.9190   68.5781   -6.4928 H   0  0  0  0  0  0  0  0  0  0  0  0
   18.2146   71.2559   -7.5955 O   0  0  0  0  0  0  0  0  0  0  0  0
   16.8471   75.1744   -9.6002 O   0  0  0  0  0  0  0  0  0  0  0  0
   16.5818   72.5352   -6.5204 N   0  0  0  0  0  0  0  0  0  0  0  0
   17.5325   73.2084   -8.5914 N   0  0  0  0  0  0  0  0  0  0  0  0
   17.4943   72.2555   -7.5650 C   0  0  0  0  0  0  0  0  0  0  0  0
   15.8035   73.6856   -6.5633 C   0  0  0  0  0  0  0  0  0  0  0  0
   15.8510   74.5845   -7.5484 C   0  0  0  0  0  0  0  0  0  0  0  0
   16.7788   74.3677   -8.6778 C   0  0  0  0  0  0  0  0  0  0  0  0
   18.1618   73.0364   -9.3288 H   0  0  0  0  0  0  0  0  0  0  0  0
   22.1180   70.1877   -1.6887 O   0  0  0  0  0  0  0  0  0  0  0  0
   22.6712   69.8518   -0.2072 P   0  0  2  0  0  0  0  0  0  0  0  0
   24.2570   69.6310   -0.4457 O   0  0  0  0  0  0  0  0  0  0  0  0
   21.9800   68.6990    0.4615 O   0  0  0  0  0  0  0  0  0  0  0  0
   22.5705   71.2486    0.5937 O   0  0  0  0  0  0  0  0  0  0  0  0
   22.3677   71.0112    2.9414 O   0  0  0  0  0  0  0  0  0  0  0  0
   21.6582   75.0502    2.4403 O   0  0  0  0  0  0  0  0  0  0  0  0
   20.4976   73.1030    0.5975 O   0  0  0  0  0  0  0  0  0  0  0  0
   24.2153   74.1356    3.4774 O   0  0  0  0  0  0  0  0  0  0  0  0
   22.2424   73.7827    2.1403 C   0  0  2  0  0  0  0  0  0  0  0  0
   21.1390   72.7727    1.8240 C   0  0  2  0  0  0  0  0  0  0  0  0
   23.0438   73.3300    3.3628 C   0  0  1  0  0  0  0  0  0  0  0  0
   21.7064   71.3561    1.7235 C   0  0  1  0  0  0  0  0  0  0  0  0
   23.4666   71.8688    3.2420 C   0  0  1  0  0  0  0  0  0  0  0  0
   21.1438   75.3581    1.6775 H   0  0  0  0  0  0  0  0  0  0  0  0
   20.1355   74.0008    0.6541 H   0  0  0  0  0  0  0  0  0  0  0  0
   23.9602   75.0682    3.5549 H   0  0  0  0  0  0  0  0  0  0  0  0
   23.4760   70.0952    4.7769 O   0  0  0  0  0  0  0  0  0  0  0  0
   24.6756   71.9543    5.3282 O   0  0  0  0  0  0  0  0  0  0  0  0
   23.9504   71.3462    4.5554 C   0  0  0  0  0  0  0  0  0  0  0  0
  1  4  1  0
  1 24  1  0
  1  2  1  1
  1  3  2  0
 25 28  1  0
 25 24  1  0
 25 26  1  6
 25 27  2  0
  6 11  1  0
  6 12  1  0
 29 36  1  0
 29 37  1  0
  9  7  1  1
  7 13  1  0
 10  8  1  1
  8 14  1  0
  4  5  1  0
 36 28  1  6
 33 30  1  1
 30 38  1  0
 34 31  1  6
 31 39  1  0
 35 32  1  6
 32 40  1  0
 41 43  1  0
 15 19  2  0
 42 43  2  0
 16 22  2  0
 12 17  1  6
 17 19  1  0
 17 20  1  0
 18 19  1  0
 18 22  1  0
 18 23  1  0
  9 10  1  0
  9 11  1  0
 10 12  1  0
 11  5  1  6
 33 34  1  0
 33 35  1  0
 34 36  1  0
 35 37  1  0
 37 43  1  1
 20 21  2  0
 21 22  1  0
M  CHG  3   2  -1  26  -1  41  -1
M  END
>  <COMPND>  (168) 
    udp_gluA.pdb 

>  <AUTHOR>  (168) 
    GENERATED BY OPEN BABEL 3.1.1

>  <MASTER>  (168) 
        0    0    0    0    0    0    0    0   56    0   56    0

>  <minimizedAffinity>  (168) 
-8.12175

>  <CNNscore>  (168) 
0.3250551820

>  <CNNaffinity>  (168) 
3.9840674400

>  <CNN_VS>  (168) 
1.2950417995

>  <CNNaffinity_variance>  (168) 
0.0528998077

$$$$
169
     RDKit          3D

 43 45  0  0  0  0  0  0  0  0999 V2000
   21.7112   75.6672    0.5053 P   0  0  2  0  0  0  0  0  0  0  0  0
   21.9271   77.2434    0.2087 O   0  0  0  0  0  0  0  0  0  0  0  0
   20.3275   75.1548    0.2319 O   0  0  0  0  0  0  0  0  0  0  0  0
   22.2425   75.4809    2.0221 O   0  0  0  0  0  0  0  0  0  0  0  0
   21.2903   75.3964    3.0665 C   0  0  0  0  0  0  0  0  0  0  0  0
   22.1979   74.3472    5.0294 O   0  0  0  0  0  0  0  0  0  0  0  0
   23.6990   76.9044    5.4753 O   0  0  0  0  0  0  0  0  0  0  0  0
   25.6006   75.2785    4.3906 O   0  0  0  0  0  0  0  0  0  0  0  0
   23.3755   76.2485    4.2490 C   0  0  1  0  0  0  0  0  0  0  0  0
   24.2505   75.0273    4.0611 C   0  0  2  0  0  0  0  0  0  0  0  0
   21.9924   75.6296    4.3980 C   0  0  1  0  0  0  0  0  0  0  0  0
   23.5971   74.0242    4.9964 C   0  0  2  0  0  0  0  0  0  0  0  0
   24.5787   77.3078    5.4043 H   0  0  0  0  0  0  0  0  0  0  0  0
   25.9713   75.9227    3.7664 H   0  0  0  0  0  0  0  0  0  0  0  0
   25.7412   72.3366    5.7254 O   0  0  0  0  0  0  0  0  0  0  0  0
   24.0945   68.8498    3.2006 O   0  0  0  0  0  0  0  0  0  0  0  0
   23.7534   72.6708    4.5441 N   0  0  0  0  0  0  0  0  0  0  0  0
   24.9196   70.6019    4.4664 N   0  0  0  0  0  0  0  0  0  0  0  0
   24.8670   71.9085    4.9694 C   0  0  0  0  0  0  0  0  0  0  0  0
   22.8100   72.1114    3.6909 C   0  0  0  0  0  0  0  0  0  0  0  0
   22.8735   70.8644    3.2198 C   0  0  0  0  0  0  0  0  0  0  0  0
   24.0060   70.0015    3.6152 C   0  0  0  0  0  0  0  0  0  0  0  0
   25.6869   70.0525    4.7469 H   0  0  0  0  0  0  0  0  0  0  0  0
   22.8736   74.9697   -0.3752 O   0  0  0  0  0  0  0  0  0  0  0  0
   22.8177   74.2294   -1.8113 P   0  0  2  0  0  0  0  0  0  0  0  0
   24.2309   74.6321   -2.4903 O   0  0  0  0  0  0  0  0  0  0  0  0
   21.6133   74.5778   -2.6372 O   0  0  0  0  0  0  0  0  0  0  0  0
   22.9632   72.6598   -1.4686 O   0  0  0  0  0  0  0  0  0  0  0  0
   23.0096   70.6260   -2.6813 O   0  0  0  0  0  0  0  0  0  0  0  0
   20.5433   69.6585    0.4888 O   0  0  0  0  0  0  0  0  0  0  0  0
   20.2830   72.2388   -0.8562 O   0  0  0  0  0  0  0  0  0  0  0  0
   23.2891   68.7057    0.4326 O   0  0  0  0  0  0  0  0  0  0  0  0
   21.6164   70.3320   -0.1691 C   0  0  2  0  0  0  0  0  0  0  0  0
   21.0668   71.1526   -1.3362 C   0  0  2  0  0  0  0  0  0  0  0  0
   22.5976   69.2736   -0.6781 C   0  0  1  0  0  0  0  0  0  0  0  0
   22.2020   71.7016   -2.2014 C   0  0  1  0  0  0  0  0  0  0  0  0
   23.6225   69.8779   -1.6336 C   0  0  1  0  0  0  0  0  0  0  0  0
   19.9068   70.3112    0.8207 H   0  0  0  0  0  0  0  0  0  0  0  0
   19.5609   71.8977   -0.3061 H   0  0  0  0  0  0  0  0  0  0  0  0
   22.6481   68.3177    1.0486 H   0  0  0  0  0  0  0  0  0  0  0  0
   23.8580   67.5836   -2.0606 O   0  0  0  0  0  0  0  0  0  0  0  0
   25.2773   68.9956   -3.1517 O   0  0  0  0  0  0  0  0  0  0  0  0
   24.3562   68.8058   -2.3717 C   0  0  0  0  0  0  0  0  0  0  0  0
  1  4  1  0
  1 24  1  0
  1  2  1  6
  1  3  2  0
 25 28  1  0
 25 24  1  0
 25 26  1  6
 25 27  2  0
  6 11  1  0
  6 12  1  0
 29 36  1  0
 29 37  1  0
  9  7  1  1
  7 13  1  0
 10  8  1  1
  8 14  1  0
  4  5  1  0
 36 28  1  1
 33 30  1  6
 30 38  1  0
 34 31  1  1
 31 39  1  0
 35 32  1  1
 32 40  1  0
 41 43  1  0
 15 19  2  0
 42 43  2  0
 16 22  2  0
 12 17  1  6
 17 19  1  0
 17 20  1  0
 18 19  1  0
 18 22  1  0
 18 23  1  0
  9 10  1  0
  9 11  1  0
 10 12  1  0
 11  5  1  6
 33 34  1  0
 33 35  1  0
 34 36  1  0
 35 37  1  0
 37 43  1  6
 20 21  2  0
 21 22  1  0
M  CHG  3   2  -1  26  -1  41  -1
M  END
>  <COMPND>  (169) 
    udp_gluA.pdb 

>  <AUTHOR>  (169) 
    GENERATED BY OPEN BABEL 3.1.1

>  <MASTER>  (169) 
        0    0    0    0    0    0    0    0   56    0   56    0

>  <minimizedAffinity>  (169) 
-6.81470

>  <CNNscore>  (169) 
0.3116743565

>  <CNNaffinity>  (169) 
3.5777168274

>  <CNN_VS>  (169) 
1.1150826216

>  <CNNaffinity_variance>  (169) 
1.2028321028

$$$$
170
     RDKit          3D

 43 45  0  0  0  0  0  0  0  0999 V2000
   18.6390   73.1251   -1.3026 P   0  0  2  0  0  0  0  0  0  0  0  0
   18.4942   74.6175   -1.9114 O   0  0  0  0  0  0  0  0  0  0  0  0
   18.6184   73.0474    0.1958 O   0  0  0  0  0  0  0  0  0  0  0  0
   19.9672   72.5408   -2.0183 O   0  0  0  0  0  0  0  0  0  0  0  0
   21.2307   73.0110   -1.5858 C   0  0  0  0  0  0  0  0  0  0  0  0
   22.9624   72.0068   -0.2551 O   0  0  0  0  0  0  0  0  0  0  0  0
   22.3581   69.4630   -1.7231 O   0  0  0  0  0  0  0  0  0  0  0  0
   21.0725   69.0989    0.6541 O   0  0  0  0  0  0  0  0  0  0  0  0
   21.4671   70.4943   -1.2977 C   0  0  1  0  0  0  0  0  0  0  0  0
   21.2600   70.4232    0.2004 C   0  0  2  0  0  0  0  0  0  0  0  0
   22.1827   71.8287   -1.4574 C   0  0  1  0  0  0  0  0  0  0  0  0
   22.5425   71.0452    0.7259 C   0  0  2  0  0  0  0  0  0  0  0  0
   21.9229   68.6006   -1.6302 H   0  0  0  0  0  0  0  0  0  0  0  0
   20.2431   68.7477    0.2925 H   0  0  0  0  0  0  0  0  0  0  0  0
   23.5011   70.0842    3.2026 O   0  0  0  0  0  0  0  0  0  0  0  0
   21.7561   73.6889    5.4841 O   0  0  0  0  0  0  0  0  0  0  0  0
   22.3528   71.7127    1.9827 N   0  0  0  0  0  0  0  0  0  0  0  0
   22.6302   71.8800    4.3367 N   0  0  0  0  0  0  0  0  0  0  0  0
   22.8746   71.1450    3.1691 C   0  0  0  0  0  0  0  0  0  0  0  0
   21.6588   72.9155    2.0314 C   0  0  0  0  0  0  0  0  0  0  0  0
   21.4339   73.6045    3.1519 C   0  0  0  0  0  0  0  0  0  0  0  0
   21.9449   73.0801    4.4353 C   0  0  0  0  0  0  0  0  0  0  0  0
   22.9820   71.5037    5.1757 H   0  0  0  0  0  0  0  0  0  0  0  0
   17.4461   72.3170   -2.0352 O   0  0  0  0  0  0  0  0  0  0  0  0
   17.3155   70.7588   -2.4458 P   0  0  2  0  0  0  0  0  0  0  0  0
   15.7326   70.4639   -2.2794 O   0  0  0  0  0  0  0  0  0  0  0  0
   18.2022   69.8382   -1.6584 O   0  0  0  0  0  0  0  0  0  0  0  0
   17.5693   70.7326   -4.0387 O   0  0  0  0  0  0  0  0  0  0  0  0
   17.5256   72.8844   -5.0272 O   0  0  0  0  0  0  0  0  0  0  0  0
   17.7035   70.4362   -8.3503 O   0  0  0  0  0  0  0  0  0  0  0  0
   15.9764   69.7502   -6.0962 O   0  0  0  0  0  0  0  0  0  0  0  0
   20.0697   71.8790   -7.4724 O   0  0  0  0  0  0  0  0  0  0  0  0
   17.9582   70.8195   -6.9989 C   0  0  2  0  0  0  0  0  0  0  0  0
   16.6321   71.0023   -6.2602 C   0  0  2  0  0  0  0  0  0  0  0  0
   18.7413   72.1341   -7.0198 C   0  0  1  0  0  0  0  0  0  0  0  0
   16.8546   71.6319   -4.8844 C   0  0  1  0  0  0  0  0  0  0  0  0
   18.8115   72.7629   -5.6312 C   0  0  1  0  0  0  0  0  0  0  0  0
   17.2066   69.6030   -8.3620 H   0  0  0  0  0  0  0  0  0  0  0  0
   15.8323   69.3448   -6.9653 H   0  0  0  0  0  0  0  0  0  0  0  0
   20.0391   71.4785   -8.3553 H   0  0  0  0  0  0  0  0  0  0  0  0
   20.6293   74.2451   -5.6098 O   0  0  0  0  0  0  0  0  0  0  0  0
   18.5514   75.1510   -5.8566 O   0  0  0  0  0  0  0  0  0  0  0  0
   19.2788   74.1797   -5.7134 C   0  0  0  0  0  0  0  0  0  0  0  0
  1  4  1  0
  1 24  1  0
  1  2  1  1
  1  3  2  0
 25 28  1  0
 25 24  1  0
 25 26  1  6
 25 27  2  0
  6 11  1  0
  6 12  1  0
 29 36  1  0
 29 37  1  0
  9  7  1  1
  7 13  1  0
 10  8  1  1
  8 14  1  0
  4  5  1  0
 36 28  1  1
 33 30  1  6
 30 38  1  0
 34 31  1  1
 31 39  1  0
 35 32  1  1
 32 40  1  0
 41 43  1  0
 15 19  2  0
 42 43  2  0
 16 22  2  0
 12 17  1  1
 17 19  1  0
 17 20  1  0
 18 19  1  0
 18 22  1  0
 18 23  1  0
  9 10  1  0
  9 11  1  0
 10 12  1  0
 11  5  1  1
 33 34  1  0
 33 35  1  0
 34 36  1  0
 35 37  1  0
 37 43  1  6
 20 21  2  0
 21 22  1  0
M  CHG  3   2  -1  26  -1  41  -1
M  END
>  <COMPND>  (170) 
    udp_gluA.pdb 

>  <AUTHOR>  (170) 
    GENERATED BY OPEN BABEL 3.1.1

>  <MASTER>  (170) 
        0    0    0    0    0    0    0    0   56    0   56    0

>  <minimizedAffinity>  (170) 
-7.39704

>  <CNNscore>  (170) 
0.3104766309

>  <CNNaffinity>  (170) 
4.0010576248

>  <CNN_VS>  (170) 
1.2422349453

>  <CNNaffinity_variance>  (170) 
0.2107945979

$$$$
171
     RDKit          3D

 43 45  0  0  0  0  0  0  0  0999 V2000
   21.9706   72.8140   -3.0292 P   0  0  2  0  0  0  0  0  0  0  0  0
   22.2919   72.3699   -4.5519 O   0  0  0  0  0  0  0  0  0  0  0  0
   22.1551   74.2755   -2.7432 O   0  0  0  0  0  0  0  0  0  0  0  0
   22.8632   71.8046   -2.1335 O   0  0  0  0  0  0  0  0  0  0  0  0
   22.9581   72.0406   -0.7408 C   0  0  0  0  0  0  0  0  0  0  0  0
   23.1393   70.6703    1.2257 O   0  0  0  0  0  0  0  0  0  0  0  0
   20.3557   69.7418    0.6087 O   0  0  0  0  0  0  0  0  0  0  0  0
   19.9478   71.5749    2.5860 O   0  0  0  0  0  0  0  0  0  0  0  0
   20.9373   71.0337    0.4319 C   0  0  1  0  0  0  0  0  0  0  0  0
   21.0897   71.7274    1.7690 C   0  0  2  0  0  0  0  0  0  0  0  0
   22.3864   70.8420    0.0055 C   0  0  1  0  0  0  0  0  0  0  0  0
   22.3160   71.0389    2.3436 C   0  0  2  0  0  0  0  0  0  0  0  0
   19.4294   69.8385    0.8814 H   0  0  0  0  0  0  0  0  0  0  0  0
   19.1947   72.0307    2.1774 H   0  0  0  0  0  0  0  0  0  0  0  0
   23.6590   70.1673    4.6702 O   0  0  0  0  0  0  0  0  0  0  0  0
   25.1713   74.4185    5.6106 O   0  0  0  0  0  0  0  0  0  0  0  0
   23.0683   71.8968    3.2148 N   0  0  0  0  0  0  0  0  0  0  0  0
   24.4101   72.2856    5.1369 N   0  0  0  0  0  0  0  0  0  0  0  0
   23.7049   71.3587    4.3581 C   0  0  0  0  0  0  0  0  0  0  0  0
   23.1712   73.2536    2.9327 C   0  0  0  0  0  0  0  0  0  0  0  0
   23.8470   74.1247    3.6844 C   0  0  0  0  0  0  0  0  0  0  0  0
   24.5405   73.6440    4.8975 C   0  0  0  0  0  0  0  0  0  0  0  0
   24.8600   71.9349    5.9393 H   0  0  0  0  0  0  0  0  0  0  0  0
   20.4663   72.2681   -2.8017 O   0  0  0  0  0  0  0  0  0  0  0  0
   19.7356   70.9226   -3.3208 P   0  0  2  0  0  0  0  0  0  0  0  0
   18.9160   70.4207   -2.0182 O   0  0  0  0  0  0  0  0  0  0  0  0
   20.6693   69.8977   -3.8967 O   0  0  0  0  0  0  0  0  0  0  0  0
   18.5994   71.4417   -4.3416 O   0  0  0  0  0  0  0  0  0  0  0  0
   19.4014   72.0176   -6.4944 O   0  0  0  0  0  0  0  0  0  0  0  0
   15.5216   73.4299   -6.6371 O   0  0  0  0  0  0  0  0  0  0  0  0
   17.1499   73.8135   -4.2422 O   0  0  0  0  0  0  0  0  0  0  0  0
   16.2321   70.9738   -8.0204 O   0  0  0  0  0  0  0  0  0  0  0  0
   16.5761   72.5554   -6.2357 C   0  0  2  0  0  0  0  0  0  0  0  0
   17.6481   73.3535   -5.4931 C   0  0  2  0  0  0  0  0  0  0  0  0
   17.1653   71.9159   -7.4949 C   0  0  1  0  0  0  0  0  0  0  0  0
   18.8944   72.5012   -5.2500 C   0  0  1  0  0  0  0  0  0  0  0  0
   18.4728   71.1900   -7.1915 C   0  0  1  0  0  0  0  0  0  0  0  0
   15.1318   73.8480   -5.8531 H   0  0  0  0  0  0  0  0  0  0  0  0
   16.3588   74.3548   -4.3889 H   0  0  0  0  0  0  0  0  0  0  0  0
   15.3954   71.4231   -8.2176 H   0  0  0  0  0  0  0  0  0  0  0  0
   20.4207   70.3341   -8.1787 O   0  0  0  0  0  0  0  0  0  0  0  0
   18.7633   71.0303   -9.5814 O   0  0  0  0  0  0  0  0  0  0  0  0
   19.2007   70.8584   -8.4535 C   0  0  0  0  0  0  0  0  0  0  0  0
  1  4  1  0
  1 24  1  0
  1  2  1  6
  1  3  2  0
 25 28  1  0
 25 24  1  0
 25 26  1  1
 25 27  2  0
  6 11  1  0
  6 12  1  0
 29 36  1  0
 29 37  1  0
  9  7  1  1
  7 13  1  0
 10  8  1  1
  8 14  1  0
  4  5  1  0
 36 28  1  1
 33 30  1  6
 30 38  1  0
 34 31  1  1
 31 39  1  0
 35 32  1  1
 32 40  1  0
 41 43  1  0
 15 19  2  0
 42 43  2  0
 16 22  2  0
 12 17  1  1
 17 19  1  0
 17 20  1  0
 18 19  1  0
 18 22  1  0
 18 23  1  0
  9 10  1  0
  9 11  1  0
 10 12  1  0
 11  5  1  1
 33 34  1  0
 33 35  1  0
 34 36  1  0
 35 37  1  0
 37 43  1  6
 20 21  2  0
 21 22  1  0
M  CHG  3   2  -1  26  -1  41  -1
M  END
>  <COMPND>  (171) 
    udp_gluA.pdb 

>  <AUTHOR>  (171) 
    GENERATED BY OPEN BABEL 3.1.1

>  <MASTER>  (171) 
        0    0    0    0    0    0    0    0   56    0   56    0

>  <minimizedAffinity>  (171) 
-7.57922

>  <CNNscore>  (171) 
0.3081569076

>  <CNNaffinity>  (171) 
3.9516131878

>  <CNN_VS>  (171) 
1.2177169323

>  <CNNaffinity_variance>  (171) 
0.0317522511

$$$$
172
     RDKit          3D

 43 45  0  0  0  0  0  0  0  0999 V2000
   22.6705   73.1021   -3.1973 P   0  0  2  0  0  0  0  0  0  0  0  0
   23.7488   72.6547   -4.3180 O   0  0  0  0  0  0  0  0  0  0  0  0
   22.9642   74.4094   -2.5218 O   0  0  0  0  0  0  0  0  0  0  0  0
   22.5668   71.8150   -2.2223 O   0  0  0  0  0  0  0  0  0  0  0  0
   22.8528   71.9846   -0.8461 C   0  0  0  0  0  0  0  0  0  0  0  0
   23.0308   70.6602    1.1519 O   0  0  0  0  0  0  0  0  0  0  0  0
   20.2418   69.7307    0.5613 O   0  0  0  0  0  0  0  0  0  0  0  0
   19.8459   71.6118    2.4954 O   0  0  0  0  0  0  0  0  0  0  0  0
   20.8293   71.0153    0.3532 C   0  0  1  0  0  0  0  0  0  0  0  0
   20.9871   71.7396    1.6733 C   0  0  2  0  0  0  0  0  0  0  0  0
   22.2767   70.8067   -0.0709 C   0  0  1  0  0  0  0  0  0  0  0  0
   22.2111   71.0590    2.2620 C   0  0  2  0  0  0  0  0  0  0  0  0
   19.3164   69.8382    0.8331 H   0  0  0  0  0  0  0  0  0  0  0  0
   19.0942   72.0615    2.0773 H   0  0  0  0  0  0  0  0  0  0  0  0
   23.4854   70.2530    4.6501 O   0  0  0  0  0  0  0  0  0  0  0  0
   25.0913   74.5001    5.4418 O   0  0  0  0  0  0  0  0  0  0  0  0
   22.9689   71.9336    3.1116 N   0  0  0  0  0  0  0  0  0  0  0  0
   24.2832   72.3693    5.0426 N   0  0  0  0  0  0  0  0  0  0  0  0
   23.5689   71.4284    4.2892 C   0  0  0  0  0  0  0  0  0  0  0  0
   23.1131   73.2741    2.7749 C   0  0  0  0  0  0  0  0  0  0  0  0
   23.7971   74.1588    3.5030 C   0  0  0  0  0  0  0  0  0  0  0  0
   24.4541   73.7125    4.7491 C   0  0  0  0  0  0  0  0  0  0  0  0
   24.7081   72.0415    5.8681 H   0  0  0  0  0  0  0  0  0  0  0  0
   21.2703   73.0605   -4.0040 O   0  0  0  0  0  0  0  0  0  0  0  0
   19.7550   73.3407   -3.5152 P   0  0  2  0  0  0  0  0  0  0  0  0
   19.4414   74.8138   -4.1083 O   0  0  0  0  0  0  0  0  0  0  0  0
   19.5530   73.2150   -2.0328 O   0  0  0  0  0  0  0  0  0  0  0  0
   18.8481   72.3434   -4.4014 O   0  0  0  0  0  0  0  0  0  0  0  0
   18.7737   69.9768   -4.4568 O   0  0  0  0  0  0  0  0  0  0  0  0
   17.9216   70.9369   -8.3837 O   0  0  0  0  0  0  0  0  0  0  0  0
   20.0099   72.3706   -6.9283 O   0  0  0  0  0  0  0  0  0  0  0  0
   15.7983   70.0604   -6.6020 O   0  0  0  0  0  0  0  0  0  0  0  0
   17.9288   71.1242   -6.9684 C   0  0  2  0  0  0  0  0  0  0  0  0
   19.3721   71.1850   -6.4676 C   0  0  2  0  0  0  0  0  0  0  0  0
   17.1938   69.9427   -6.3314 C   0  0  1  0  0  0  0  0  0  0  0  0
   19.4227   71.1539   -4.9395 C   0  0  1  0  0  0  0  0  0  0  0  0
   17.3963   69.9105   -4.8192 C   0  0  1  0  0  0  0  0  0  0  0  0
   18.3835   71.6759   -8.8101 H   0  0  0  0  0  0  0  0  0  0  0  0
   19.9812   72.3971   -7.8973 H   0  0  0  0  0  0  0  0  0  0  0  0
   15.6557   70.0822   -7.5612 H   0  0  0  0  0  0  0  0  0  0  0  0
   17.7042   68.2776   -3.1639 O   0  0  0  0  0  0  0  0  0  0  0  0
   16.0655   67.9013   -4.7040 O   0  0  0  0  0  0  0  0  0  0  0  0
   16.9635   68.5970   -4.2540 C   0  0  0  0  0  0  0  0  0  0  0  0
  1  4  1  0
  1 24  1  0
  1  2  1  6
  1  3  2  0
 25 28  1  0
 25 24  1  0
 25 26  1  6
 25 27  2  0
  6 11  1  0
  6 12  1  0
 29 36  1  0
 29 37  1  0
  9  7  1  1
  7 13  1  0
 10  8  1  1
  8 14  1  0
  4  5  1  0
 36 28  1  1
 33 30  1  6
 30 38  1  0
 34 31  1  1
 31 39  1  0
 35 32  1  1
 32 40  1  0
 41 43  1  0
 15 19  2  0
 42 43  2  0
 16 22  2  0
 12 17  1  1
 17 19  1  0
 17 20  1  0
 18 19  1  0
 18 22  1  0
 18 23  1  0
  9 10  1  0
  9 11  1  0
 10 12  1  0
 11  5  1  1
 33 34  1  0
 33 35  1  0
 34 36  1  0
 35 37  1  0
 37 43  1  6
 20 21  2  0
 21 22  1  0
M  CHG  3   2  -1  26  -1  41  -1
M  END
>  <COMPND>  (172) 
    udp_gluA.pdb 

>  <AUTHOR>  (172) 
    GENERATED BY OPEN BABEL 3.1.1

>  <MASTER>  (172) 
        0    0    0    0    0    0    0    0   56    0   56    0

>  <minimizedAffinity>  (172) 
-8.46857

>  <CNNscore>  (172) 
0.2954202890

>  <CNNaffinity>  (172) 
3.7799823284

>  <CNN_VS>  (172) 
1.1166834831

>  <CNNaffinity_variance>  (172) 
0.4312548041

$$$$
173
     RDKit          3D

 43 45  0  0  0  0  0  0  0  0999 V2000
   23.0418   72.7688   -3.5359 P   0  0  2  0  0  0  0  0  0  0  0  0
   23.4433   71.2072   -3.6746 O   0  0  0  0  0  0  0  0  0  0  0  0
   24.1124   73.7371   -3.9457 O   0  0  0  0  0  0  0  0  0  0  0  0
   22.5208   72.9019   -2.0098 O   0  0  0  0  0  0  0  0  0  0  0  0
   21.2642   73.5105   -1.7751 C   0  0  0  0  0  0  0  0  0  0  0  0
   20.8707   71.2347   -1.1090 O   0  0  0  0  0  0  0  0  0  0  0  0
   17.9853   72.0066   -0.8448 O   0  0  0  0  0  0  0  0  0  0  0  0
   18.8505   72.0414    1.7409 O   0  0  0  0  0  0  0  0  0  0  0  0
   19.1555   72.7726   -0.5579 C   0  0  1  0  0  0  0  0  0  0  0  0
   19.7989   72.2866    0.7236 C   0  0  2  0  0  0  0  0  0  0  0  0
   20.2120   72.4234   -1.5972 C   0  0  1  0  0  0  0  0  0  0  0  0
   20.5027   71.0215    0.2630 C   0  0  2  0  0  0  0  0  0  0  0  0
   17.2958   72.2127   -0.1938 H   0  0  0  0  0  0  0  0  0  0  0  0
   18.4306   72.8773    1.9996 H   0  0  0  0  0  0  0  0  0  0  0  0
   21.8894   68.5615    0.2178 O   0  0  0  0  0  0  0  0  0  0  0  0
   25.0329   70.0694    3.2325 O   0  0  0  0  0  0  0  0  0  0  0  0
   21.6864   70.7441    1.0263 N   0  0  0  0  0  0  0  0  0  0  0  0
   23.4531   69.3145    1.7201 N   0  0  0  0  0  0  0  0  0  0  0  0
   22.3060   69.4755    0.9318 C   0  0  0  0  0  0  0  0  0  0  0  0
   22.2224   71.7223    1.8550 C   0  0  0  0  0  0  0  0  0  0  0  0
   23.3165   71.5540    2.6003 C   0  0  0  0  0  0  0  0  0  0  0  0
   24.0236   70.2572    2.5600 C   0  0  0  0  0  0  0  0  0  0  0  0
   23.9008   68.4389    1.6726 H   0  0  0  0  0  0  0  0  0  0  0  0
   21.6769   72.8704   -4.3960 O   0  0  0  0  0  0  0  0  0  0  0  0
   21.3935   73.4706   -5.8701 P   0  0  2  0  0  0  0  0  0  0  0  0
   22.6237   72.8910   -6.7482 O   0  0  0  0  0  0  0  0  0  0  0  0
   21.2550   74.9649   -5.9104 O   0  0  0  0  0  0  0  0  0  0  0  0
   20.1004   72.6639   -6.3988 O   0  0  0  0  0  0  0  0  0  0  0  0
   19.0816   70.6599   -5.6535 O   0  0  0  0  0  0  0  0  0  0  0  0
   18.4969   70.4321   -9.7369 O   0  0  0  0  0  0  0  0  0  0  0  0
   21.0523   71.3460   -8.6556 O   0  0  0  0  0  0  0  0  0  0  0  0
   16.2890   71.1418   -7.9841 O   0  0  0  0  0  0  0  0  0  0  0  0
   18.6469   71.0852   -8.4764 C   0  0  2  0  0  0  0  0  0  0  0  0
   20.0160   70.7483   -7.8852 C   0  0  2  0  0  0  0  0  0  0  0  0
   17.5318   70.5910   -7.5522 C   0  0  1  0  0  0  0  0  0  0  0  0
   20.1236   71.2382   -6.4404 C   0  0  1  0  0  0  0  0  0  0  0  0
   17.7772   71.0150   -6.1070 C   0  0  1  0  0  0  0  0  0  0  0  0
   19.1950   70.7306  -10.3410 H   0  0  0  0  0  0  0  0  0  0  0  0
   20.9899   71.0397   -9.5735 H   0  0  0  0  0  0  0  0  0  0  0  0
   16.1210   70.8796   -8.9027 H   0  0  0  0  0  0  0  0  0  0  0  0
   16.3303   69.1948   -5.7987 O   0  0  0  0  0  0  0  0  0  0  0  0
   16.6730   70.5658   -4.0092 O   0  0  0  0  0  0  0  0  0  0  0  0
   16.8823   70.2649   -5.1749 C   0  0  0  0  0  0  0  0  0  0  0  0
  1  4  1  0
  1 24  1  0
  1  2  1  1
  1  3  2  0
 25 28  1  0
 25 24  1  0
 25 26  1  6
 25 27  2  0
  6 11  1  0
  6 12  1  0
 29 36  1  0
 29 37  1  0
  9  7  1  6
  7 13  1  0
 10  8  1  1
  8 14  1  0
  4  5  1  0
 36 28  1  6
 33 30  1  6
 30 38  1  0
 34 31  1  6
 31 39  1  0
 35 32  1  6
 32 40  1  0
 41 43  1  0
 15 19  2  0
 42 43  2  0
 16 22  2  0
 12 17  1  1
 17 19  1  0
 17 20  1  0
 18 19  1  0
 18 22  1  0
 18 23  1  0
  9 10  1  0
  9 11  1  0
 10 12  1  0
 11  5  1  1
 33 34  1  0
 33 35  1  0
 34 36  1  0
 35 37  1  0
 37 43  1  1
 20 21  2  0
 21 22  1  0
M  CHG  3   2  -1  26  -1  41  -1
M  END
>  <COMPND>  (173) 
    udp_gluA.pdb 

>  <AUTHOR>  (173) 
    GENERATED BY OPEN BABEL 3.1.1

>  <MASTER>  (173) 
        0    0    0    0    0    0    0    0   56    0   56    0

>  <minimizedAffinity>  (173) 
-8.46405

>  <CNNscore>  (173) 
0.2882320881

>  <CNNaffinity>  (173) 
4.0257596970

>  <CNN_VS>  (173) 
1.1603530645

>  <CNNaffinity_variance>  (173) 
0.2990478873

$$$$
174
     RDKit          3D

 43 45  0  0  0  0  0  0  0  0999 V2000
   23.0950   72.7031   -3.9020 P   0  0  2  0  0  0  0  0  0  0  0  0
   23.3258   71.1179   -3.6723 O   0  0  0  0  0  0  0  0  0  0  0  0
   24.1662   73.3907   -4.6967 O   0  0  0  0  0  0  0  0  0  0  0  0
   22.8469   73.2796   -2.4107 O   0  0  0  0  0  0  0  0  0  0  0  0
   21.5733   73.8110   -2.0944 C   0  0  0  0  0  0  0  0  0  0  0  0
   19.7422   73.6149   -0.5497 O   0  0  0  0  0  0  0  0  0  0  0  0
   21.2975   71.3894    0.7230 O   0  0  0  0  0  0  0  0  0  0  0  0
   19.4606   70.0482   -0.7813 O   0  0  0  0  0  0  0  0  0  0  0  0
   21.1954   71.7473   -0.6554 C   0  0  1  0  0  0  0  0  0  0  0  0
   19.8443   71.3400   -1.2039 C   0  0  2  0  0  0  0  0  0  0  0  0
   21.1301   73.2660   -0.7428 C   0  0  1  0  0  0  0  0  0  0  0  0
   18.9390   72.4285   -0.6529 C   0  0  2  0  0  0  0  0  0  0  0  0
   21.3406   70.4234    0.8043 H   0  0  0  0  0  0  0  0  0  0  0  0
   20.0672   69.3912   -1.1586 H   0  0  0  0  0  0  0  0  0  0  0  0
   16.4173   71.1783   -0.4191 O   0  0  0  0  0  0  0  0  0  0  0  0
   14.7150   73.5322   -3.9976 O   0  0  0  0  0  0  0  0  0  0  0  0
   17.8191   72.6959   -1.5102 N   0  0  0  0  0  0  0  0  0  0  0  0
   15.5722   72.3511   -2.2023 N   0  0  0  0  0  0  0  0  0  0  0  0
   16.5963   72.0133   -1.3078 C   0  0  0  0  0  0  0  0  0  0  0  0
   17.9374   73.6258   -2.5360 C   0  0  0  0  0  0  0  0  0  0  0  0
   16.9522   73.9374   -3.3805 C   0  0  0  0  0  0  0  0  0  0  0  0
   15.6424   73.2685   -3.2381 C   0  0  0  0  0  0  0  0  0  0  0  0
   14.7121   71.8873   -2.0824 H   0  0  0  0  0  0  0  0  0  0  0  0
   21.6218   72.7630   -4.5645 O   0  0  0  0  0  0  0  0  0  0  0  0
   21.1244   73.3218   -5.9976 P   0  0  2  0  0  0  0  0  0  0  0  0
   22.1122   72.5830   -7.0458 O   0  0  0  0  0  0  0  0  0  0  0  0
   21.1164   74.8192   -6.1056 O   0  0  0  0  0  0  0  0  0  0  0  0
   19.6880   72.6260   -6.2321 O   0  0  0  0  0  0  0  0  0  0  0  0
   19.3813   70.3950   -5.4989 O   0  0  0  0  0  0  0  0  0  0  0  0
   16.1441   70.9055   -8.0144 O   0  0  0  0  0  0  0  0  0  0  0  0
   18.7776   71.9236   -8.7647 O   0  0  0  0  0  0  0  0  0  0  0  0
   15.7728   70.9479   -5.1315 O   0  0  0  0  0  0  0  0  0  0  0  0
   17.1442   71.3095   -7.0791 C   0  0  2  0  0  0  0  0  0  0  0  0
   18.5308   71.0503   -7.6687 C   0  0  2  0  0  0  0  0  0  0  0  0
   16.9499   70.4955   -5.7979 C   0  0  1  0  0  0  0  0  0  0  0  0
   19.6202   71.2536   -6.6148 C   0  0  1  0  0  0  0  0  0  0  0  0
   18.1371   70.6533   -4.8522 C   0  0  1  0  0  0  0  0  0  0  0  0
   16.2478   71.4096   -8.8368 H   0  0  0  0  0  0  0  0  0  0  0  0
   18.0899   71.8001   -9.4372 H   0  0  0  0  0  0  0  0  0  0  0  0
   15.0097   70.8529   -5.7227 H   0  0  0  0  0  0  0  0  0  0  0  0
   19.2441   68.8944   -3.7649 O   0  0  0  0  0  0  0  0  0  0  0  0
   17.1669   69.4452   -3.0027 O   0  0  0  0  0  0  0  0  0  0  0  0
   18.0980   69.6191   -3.7746 C   0  0  0  0  0  0  0  0  0  0  0  0
  1  4  1  0
  1 24  1  0
  1  2  1  1
  1  3  2  0
 25 28  1  0
 25 24  1  0
 25 26  1  6
 25 27  2  0
  6 11  1  0
  6 12  1  0
 29 36  1  0
 29 37  1  0
  9  7  1  1
  7 13  1  0
 10  8  1  1
  8 14  1  0
  4  5  1  0
 36 28  1  1
 33 30  1  6
 30 38  1  0
 34 31  1  6
 31 39  1  0
 35 32  1  1
 32 40  1  0
 41 43  1  0
 15 19  2  0
 42 43  2  0
 16 22  2  0
 12 17  1  6
 17 19  1  0
 17 20  1  0
 18 19  1  0
 18 22  1  0
 18 23  1  0
  9 10  1  0
  9 11  1  0
 10 12  1  0
 11  5  1  6
 33 34  1  0
 33 35  1  0
 34 36  1  0
 35 37  1  0
 37 43  1  1
 20 21  2  0
 21 22  1  0
M  CHG  3   2  -1  26  -1  41  -1
M  END
>  <COMPND>  (174) 
    udp_gluA.pdb 

>  <AUTHOR>  (174) 
    GENERATED BY OPEN BABEL 3.1.1

>  <MASTER>  (174) 
        0    0    0    0    0    0    0    0   56    0   56    0

>  <minimizedAffinity>  (174) 
-6.58415

>  <CNNscore>  (174) 
0.2655796409

>  <CNNaffinity>  (174) 
3.6180808544

>  <CNN_VS>  (174) 
0.9608886242

>  <CNNaffinity_variance>  (174) 
1.0036776066

$$$$
175
     RDKit          3D

 43 45  0  0  0  0  0  0  0  0999 V2000
   22.2596   71.5050   -3.3471 P   0  0  2  0  0  0  0  0  0  0  0  0
   21.8208   72.2269   -1.9668 O   0  0  0  0  0  0  0  0  0  0  0  0
   23.5198   72.0345   -3.9662 O   0  0  0  0  0  0  0  0  0  0  0  0
   20.9332   71.5917   -4.2697 O   0  0  0  0  0  0  0  0  0  0  0  0
   20.1500   70.4245   -4.4391 C   0  0  0  0  0  0  0  0  0  0  0  0
   18.1845   71.5078   -3.5783 O   0  0  0  0  0  0  0  0  0  0  0  0
   17.6289   68.9400   -2.1329 O   0  0  0  0  0  0  0  0  0  0  0  0
   15.9476   68.7938   -4.2748 O   0  0  0  0  0  0  0  0  0  0  0  0
   18.1990   69.1440   -3.4259 C   0  0  1  0  0  0  0  0  0  0  0  0
   17.1272   69.5581   -4.4119 C   0  0  2  0  0  0  0  0  0  0  0  0
   19.0725   70.3896   -3.3630 C   0  0  1  0  0  0  0  0  0  0  0  0
   16.9208   71.0209   -4.0574 C   0  0  2  0  0  0  0  0  0  0  0  0
   17.0664   68.1494   -2.1483 H   0  0  0  0  0  0  0  0  0  0  0  0
   16.1310   67.8708   -4.5121 H   0  0  0  0  0  0  0  0  0  0  0  0
   15.3750   73.3786   -3.8895 O   0  0  0  0  0  0  0  0  0  0  0  0
   15.4260   73.9554   -8.4621 O   0  0  0  0  0  0  0  0  0  0  0  0
   16.5159   71.8070   -5.1883 N   0  0  0  0  0  0  0  0  0  0  0  0
   15.4010   73.6631   -6.1672 N   0  0  0  0  0  0  0  0  0  0  0  0
   15.7400   72.9743   -4.9951 C   0  0  0  0  0  0  0  0  0  0  0  0
   16.8880   71.4209   -6.4703 C   0  0  0  0  0  0  0  0  0  0  0  0
   16.5574   72.0877   -7.5779 C   0  0  0  0  0  0  0  0  0  0  0  0
   15.7470   73.3180   -7.4636 C   0  0  0  0  0  0  0  0  0  0  0  0
   14.8594   74.4780   -6.0581 H   0  0  0  0  0  0  0  0  0  0  0  0
   22.3157   69.9423   -2.9374 O   0  0  0  0  0  0  0  0  0  0  0  0
   23.3868   69.1145   -2.0536 P   0  0  2  0  0  0  0  0  0  0  0  0
   24.8110   69.5854   -2.6622 O   0  0  0  0  0  0  0  0  0  0  0  0
   23.1727   67.6286   -2.0594 O   0  0  0  0  0  0  0  0  0  0  0  0
   23.3239   69.7943   -0.5919 O   0  0  0  0  0  0  0  0  0  0  0  0
   23.4377   69.0632    1.6579 O   0  0  0  0  0  0  0  0  0  0  0  0
   20.3067   71.7545    1.8057 O   0  0  0  0  0  0  0  0  0  0  0  0
   20.5489   69.8858   -0.4267 O   0  0  0  0  0  0  0  0  0  0  0  0
   22.9137   72.4896    2.8610 O   0  0  0  0  0  0  0  0  0  0  0  0
   21.5450   71.2205    1.3376 C   0  0  2  0  0  0  0  0  0  0  0  0
   21.3162   69.8195    0.7698 C   0  0  2  0  0  0  0  0  0  0  0  0
   22.5132   71.1635    2.5214 C   0  0  1  0  0  0  0  0  0  0  0  0
   22.6462   69.1264    0.4708 C   0  0  1  0  0  0  0  0  0  0  0  0
   23.7587   70.3491    2.1837 C   0  0  1  0  0  0  0  0  0  0  0  0
   19.6754   71.8001    1.0704 H   0  0  0  0  0  0  0  0  0  0  0  0
   19.7037   70.3247   -0.2443 H   0  0  0  0  0  0  0  0  0  0  0  0
   22.1301   73.0186    3.0780 H   0  0  0  0  0  0  0  0  0  0  0  0
   24.7382   68.6860    3.5164 O   0  0  0  0  0  0  0  0  0  0  0  0
   24.9259   70.8411    4.2372 O   0  0  0  0  0  0  0  0  0  0  0  0
   24.5305   70.0227    3.4207 C   0  0  0  0  0  0  0  0  0  0  0  0
  1  4  1  0
  1 24  1  0
  1  2  1  1
  1  3  2  0
 25 28  1  0
 25 24  1  0
 25 26  1  6
 25 27  2  0
  6 11  1  0
  6 12  1  0
 29 36  1  0
 29 37  1  0
  9  7  1  1
  7 13  1  0
 10  8  1  1
  8 14  1  0
  4  5  1  0
 36 28  1  6
 33 30  1  1
 30 38  1  0
 34 31  1  6
 31 39  1  0
 35 32  1  6
 32 40  1  0
 41 43  1  0
 15 19  2  0
 42 43  2  0
 16 22  2  0
 12 17  1  6
 17 19  1  0
 17 20  1  0
 18 19  1  0
 18 22  1  0
 18 23  1  0
  9 10  1  0
  9 11  1  0
 10 12  1  0
 11  5  1  6
 33 34  1  0
 33 35  1  0
 34 36  1  0
 35 37  1  0
 37 43  1  1
 20 21  2  0
 21 22  1  0
M  CHG  3   2  -1  26  -1  41  -1
M  END
>  <COMPND>  (175) 
    udp_gluA.pdb 

>  <AUTHOR>  (175) 
    GENERATED BY OPEN BABEL 3.1.1

>  <MASTER>  (175) 
        0    0    0    0    0    0    0    0   56    0   56    0

>  <minimizedAffinity>  (175) 
-9.03792

>  <CNNscore>  (175) 
0.2514044642

>  <CNNaffinity>  (175) 
3.9356658459

>  <CNN_VS>  (175) 
0.9894439578

>  <CNNaffinity_variance>  (175) 
0.3250769973

$$$$
176
     RDKit          3D

 43 45  0  0  0  0  0  0  0  0999 V2000
   22.6762   73.0278   -3.3986 P   0  0  2  0  0  0  0  0  0  0  0  0
   23.7468   72.2690   -4.3456 O   0  0  0  0  0  0  0  0  0  0  0  0
   23.1156   74.3717   -2.8959 O   0  0  0  0  0  0  0  0  0  0  0  0
   22.3203   71.9340   -2.2607 O   0  0  0  0  0  0  0  0  0  0  0  0
   22.4437   72.3084   -0.9008 C   0  0  0  0  0  0  0  0  0  0  0  0
   21.7491   70.0125   -0.7455 O   0  0  0  0  0  0  0  0  0  0  0  0
   21.4982   70.4821    2.2054 O   0  0  0  0  0  0  0  0  0  0  0  0
   23.8858   69.1792    2.0103 O   0  0  0  0  0  0  0  0  0  0  0  0
   22.4554   71.0068    1.2851 C   0  0  1  0  0  0  0  0  0  0  0  0
   23.4531   69.9356    0.8988 C   0  0  2  0  0  0  0  0  0  0  0  0
   21.7431   71.2695   -0.0347 C   0  0  1  0  0  0  0  0  0  0  0  0
   22.6584   69.1088   -0.0975 C   0  0  2  0  0  0  0  0  0  0  0  0
   21.9301   70.3063    3.0564 H   0  0  0  0  0  0  0  0  0  0  0  0
   24.3868   69.7500    2.6145 H   0  0  0  0  0  0  0  0  0  0  0  0
   22.9349   66.3200   -0.4472 O   0  0  0  0  0  0  0  0  0  0  0  0
   25.8926   66.8671   -3.9396 O   0  0  0  0  0  0  0  0  0  0  0  0
   23.4940   68.4953   -1.0905 N   0  0  0  0  0  0  0  0  0  0  0  0
   24.4085   66.5951   -2.1856 N   0  0  0  0  0  0  0  0  0  0  0  0
   23.5621   67.0850   -1.1823 C   0  0  0  0  0  0  0  0  0  0  0  0
   24.2330   69.2875   -1.9607 C   0  0  0  0  0  0  0  0  0  0  0  0
   25.0353   68.8061   -2.9122 C   0  0  0  0  0  0  0  0  0  0  0  0
   25.1638   67.3430   -3.0744 C   0  0  0  0  0  0  0  0  0  0  0  0
   24.4739   65.6162   -2.2675 H   0  0  0  0  0  0  0  0  0  0  0  0
   21.3405   73.0531   -4.3087 O   0  0  0  0  0  0  0  0  0  0  0  0
   19.8395   73.5537   -3.9771 P   0  0  2  0  0  0  0  0  0  0  0  0
   19.5975   74.7367   -5.0552 O   0  0  0  0  0  0  0  0  0  0  0  0
   19.6293   73.9662   -2.5489 O   0  0  0  0  0  0  0  0  0  0  0  0
   18.8875   72.3496   -4.4732 O   0  0  0  0  0  0  0  0  0  0  0  0
   18.8953   69.9816   -4.5111 O   0  0  0  0  0  0  0  0  0  0  0  0
   17.7473   70.8804   -8.3766 O   0  0  0  0  0  0  0  0  0  0  0  0
   19.8753   72.3990   -7.0728 O   0  0  0  0  0  0  0  0  0  0  0  0
   15.7815   69.9422   -6.4514 O   0  0  0  0  0  0  0  0  0  0  0  0
   17.8427   71.0786   -6.9661 C   0  0  2  0  0  0  0  0  0  0  0  0
   19.3132   71.1949   -6.5640 C   0  0  2  0  0  0  0  0  0  0  0  0
   17.1953   69.8766   -6.2748 C   0  0  1  0  0  0  0  0  0  0  0  0
   19.4674   71.1773   -5.0426 C   0  0  1  0  0  0  0  0  0  0  0  0
   17.4999   69.8633   -4.7796 C   0  0  1  0  0  0  0  0  0  0  0  0
   18.1524   71.6322   -8.8371 H   0  0  0  0  0  0  0  0  0  0  0  0
   19.7807   72.4170   -8.0377 H   0  0  0  0  0  0  0  0  0  0  0  0
   15.5741   69.9515   -7.3989 H   0  0  0  0  0  0  0  0  0  0  0  0
   16.0056   68.0565   -4.7153 O   0  0  0  0  0  0  0  0  0  0  0  0
   17.8107   67.9632   -3.3254 O   0  0  0  0  0  0  0  0  0  0  0  0
   17.1539   68.5394   -4.1795 C   0  0  0  0  0  0  0  0  0  0  0  0
  1  4  1  0
  1 24  1  0
  1  2  1  6
  1  3  2  0
 25 28  1  0
 25 24  1  0
 25 26  1  6
 25 27  2  0
  6 11  1  0
  6 12  1  0
 29 36  1  0
 29 37  1  0
  9  7  1  1
  7 13  1  0
 10  8  1  1
  8 14  1  0
  4  5  1  0
 36 28  1  1
 33 30  1  6
 30 38  1  0
 34 31  1  1
 31 39  1  0
 35 32  1  1
 32 40  1  0
 41 43  1  0
 15 19  2  0
 42 43  2  0
 16 22  2  0
 12 17  1  6
 17 19  1  0
 17 20  1  0
 18 19  1  0
 18 22  1  0
 18 23  1  0
  9 10  1  0
  9 11  1  0
 10 12  1  0
 11  5  1  6
 33 34  1  0
 33 35  1  0
 34 36  1  0
 35 37  1  0
 37 43  1  6
 20 21  2  0
 21 22  1  0
M  CHG  3   2  -1  26  -1  41  -1
M  END
>  <COMPND>  (176) 
    udp_gluA.pdb 

>  <AUTHOR>  (176) 
    GENERATED BY OPEN BABEL 3.1.1

>  <MASTER>  (176) 
        0    0    0    0    0    0    0    0   56    0   56    0

>  <minimizedAffinity>  (176) 
-8.89616

>  <CNNscore>  (176) 
0.2492625564

>  <CNNaffinity>  (176) 
4.0262527466

>  <CNN_VS>  (176) 
1.0035940409

>  <CNNaffinity_variance>  (176) 
1.0902832747

$$$$
177
     RDKit          3D

 43 45  0  0  0  0  0  0  0  0999 V2000
   17.4223   70.4315   -1.6796 P   0  0  2  0  0  0  0  0  0  0  0  0
   17.6957   68.9883   -2.3589 O   0  0  0  0  0  0  0  0  0  0  0  0
   16.3431   70.4469   -0.6371 O   0  0  0  0  0  0  0  0  0  0  0  0
   17.1942   71.4180   -2.9417 O   0  0  0  0  0  0  0  0  0  0  0  0
   16.2127   71.0719   -3.9016 C   0  0  0  0  0  0  0  0  0  0  0  0
   17.6329   72.6783   -4.9878 O   0  0  0  0  0  0  0  0  0  0  0  0
   16.1825   71.9739   -7.5160 O   0  0  0  0  0  0  0  0  0  0  0  0
   18.5080   70.5693   -7.7519 O   0  0  0  0  0  0  0  0  0  0  0  0
   16.5522   71.1339   -6.4222 C   0  0  1  0  0  0  0  0  0  0  0  0
   18.0410   70.8603   -6.4512 C   0  0  2  0  0  0  0  0  0  0  0  0
   16.4013   71.9397   -5.1392 C   0  0  1  0  0  0  0  0  0  0  0  0
   18.6107   72.1569   -5.9018 C   0  0  2  0  0  0  0  0  0  0  0  0
   16.2709   71.4808   -8.3470 H   0  0  0  0  0  0  0  0  0  0  0  0
   18.1170   69.7349   -8.0567 H   0  0  0  0  0  0  0  0  0  0  0  0
   20.6836   74.0691   -5.7496 O   0  0  0  0  0  0  0  0  0  0  0  0
   23.3100   71.2862   -3.1804 O   0  0  0  0  0  0  0  0  0  0  0  0
   19.8470   71.9582   -5.1997 N   0  0  0  0  0  0  0  0  0  0  0  0
   21.9902   72.6809   -4.4710 N   0  0  0  0  0  0  0  0  0  0  0  0
   20.8230   72.9826   -5.1849 C   0  0  0  0  0  0  0  0  0  0  0  0
   20.0822   70.7610   -4.5345 C   0  0  0  0  0  0  0  0  0  0  0  0
   21.1997   70.4880   -3.8582 C   0  0  0  0  0  0  0  0  0  0  0  0
   22.2700   71.5047   -3.7943 C   0  0  0  0  0  0  0  0  0  0  0  0
   22.6851   73.3779   -4.4482 H   0  0  0  0  0  0  0  0  0  0  0  0
   18.8845   70.8621   -1.1415 O   0  0  0  0  0  0  0  0  0  0  0  0
   19.4651   72.2988   -0.6806 P   0  0  2  0  0  0  0  0  0  0  0  0
   18.2111   72.9754    0.0874 O   0  0  0  0  0  0  0  0  0  0  0  0
   20.0229   73.1262   -1.8023 O   0  0  0  0  0  0  0  0  0  0  0  0
   20.5224   71.9568    0.4889 O   0  0  0  0  0  0  0  0  0  0  0  0
   22.4404   73.1525    1.1965 O   0  0  0  0  0  0  0  0  0  0  0  0
   23.5663   69.2462    1.9318 O   0  0  0  0  0  0  0  0  0  0  0  0
   22.1479   69.9409   -0.5258 O   0  0  0  0  0  0  0  0  0  0  0  0
   22.7867   70.9788    4.1321 O   0  0  0  0  0  0  0  0  0  0  0  0
   22.6564   70.3397    1.8127 C   0  0  2  0  0  0  0  0  0  0  0  0
   22.6969   70.8860    0.3853 C   0  0  2  0  0  0  0  0  0  0  0  0
   23.0829   71.4205    2.8086 C   0  0  1  0  0  0  0  0  0  0  0  0
   21.9129   72.1947    0.2779 C   0  0  1  0  0  0  0  0  0  0  0  0
   22.3462   72.7328    2.5559 C   0  0  1  0  0  0  0  0  0  0  0  0
   23.3151   68.5468    1.3081 H   0  0  0  0  0  0  0  0  0  0  0  0
   22.6404   69.1079   -0.4628 H   0  0  0  0  0  0  0  0  0  0  0  0
   23.2494   70.1442    4.3055 H   0  0  0  0  0  0  0  0  0  0  0  0
   22.3789   74.0571    4.4915 O   0  0  0  0  0  0  0  0  0  0  0  0
   23.9457   74.5067    2.8972 O   0  0  0  0  0  0  0  0  0  0  0  0
   22.9930   73.8558    3.2994 C   0  0  0  0  0  0  0  0  0  0  0  0
  1  4  1  0
  1 24  1  0
  1  2  1  6
  1  3  2  0
 25 28  1  0
 25 24  1  0
 25 26  1  1
 25 27  2  0
  6 11  1  0
  6 12  1  0
 29 36  1  0
 29 37  1  0
  9  7  1  6
  7 13  1  0
 10  8  1  6
  8 14  1  0
  4  5  1  0
 36 28  1  1
 33 30  1  6
 30 38  1  0
 34 31  1  6
 31 39  1  0
 35 32  1  1
 32 40  1  0
 41 43  1  0
 15 19  2  0
 42 43  2  0
 16 22  2  0
 12 17  1  1
 17 19  1  0
 17 20  1  0
 18 19  1  0
 18 22  1  0
 18 23  1  0
  9 10  1  0
  9 11  1  0
 10 12  1  0
 11  5  1  1
 33 34  1  0
 33 35  1  0
 34 36  1  0
 35 37  1  0
 37 43  1  1
 20 21  2  0
 21 22  1  0
M  CHG  3   2  -1  26  -1  41  -1
M  END
>  <COMPND>  (177) 
    udp_gluA.pdb 

>  <AUTHOR>  (177) 
    GENERATED BY OPEN BABEL 3.1.1

>  <MASTER>  (177) 
        0    0    0    0    0    0    0    0   56    0   56    0

>  <minimizedAffinity>  (177) 
-6.86569

>  <CNNscore>  (177) 
0.2430019528

>  <CNNaffinity>  (177) 
3.7784111500

>  <CNN_VS>  (177) 
0.9181612730

>  <CNNaffinity_variance>  (177) 
0.5098642111

$$$$
178
     RDKit          3D

 43 45  0  0  0  0  0  0  0  0999 V2000
   23.2705   74.3755   -3.9709 P   0  0  2  0  0  0  0  0  0  0  0  0
   24.3607   73.4070   -4.6724 O   0  0  0  0  0  0  0  0  0  0  0  0
   23.3430   75.8159   -4.3854 O   0  0  0  0  0  0  0  0  0  0  0  0
   23.4571   74.0893   -2.3894 O   0  0  0  0  0  0  0  0  0  0  0  0
   22.3972   73.4688   -1.6849 C   0  0  0  0  0  0  0  0  0  0  0  0
   23.3180   71.4447   -0.7724 O   0  0  0  0  0  0  0  0  0  0  0  0
   21.2832   69.9926   -2.4285 O   0  0  0  0  0  0  0  0  0  0  0  0
   20.1620   69.9595    0.0570 O   0  0  0  0  0  0  0  0  0  0  0  0
   21.1686   71.2419   -1.7469 C   0  0  1  0  0  0  0  0  0  0  0  0
   21.0460   71.0157   -0.2549 C   0  0  2  0  0  0  0  0  0  0  0  0
   22.5078   71.9587   -1.8515 C   0  0  1  0  0  0  0  0  0  0  0  0
   22.4819   70.7115    0.1370 C   0  0  2  0  0  0  0  0  0  0  0  0
   20.4395   69.5162   -2.3752 H   0  0  0  0  0  0  0  0  0  0  0  0
   19.2613   70.2018   -0.2114 H   0  0  0  0  0  0  0  0  0  0  0  0
   23.7878   69.0887    2.0442 O   0  0  0  0  0  0  0  0  0  0  0  0
   23.5805   72.3844    5.2597 O   0  0  0  0  0  0  0  0  0  0  0  0
   22.7818   71.1205    1.4800 N   0  0  0  0  0  0  0  0  0  0  0  0
   23.6824   70.7313    3.6442 N   0  0  0  0  0  0  0  0  0  0  0  0
   23.4408   70.2286    2.3589 C   0  0  0  0  0  0  0  0  0  0  0  0
   22.4259   72.3917    1.9137 C   0  0  0  0  0  0  0  0  0  0  0  0
   22.6629   72.8567    3.1419 C   0  0  0  0  0  0  0  0  0  0  0  0
   23.3468   71.9877    4.1220 C   0  0  0  0  0  0  0  0  0  0  0  0
   24.1383   70.1279    4.2746 H   0  0  0  0  0  0  0  0  0  0  0  0
   21.8675   73.6474   -4.3089 O   0  0  0  0  0  0  0  0  0  0  0  0
   20.9683   73.6473   -5.6525 P   0  0  2  0  0  0  0  0  0  0  0  0
   21.8889   72.8428   -6.7135 O   0  0  0  0  0  0  0  0  0  0  0  0
   20.5460   75.0131   -6.1109 O   0  0  0  0  0  0  0  0  0  0  0  0
   19.7482   72.6430   -5.3283 O   0  0  0  0  0  0  0  0  0  0  0  0
   19.5158   70.3689   -4.7087 O   0  0  0  0  0  0  0  0  0  0  0  0
   16.5388   70.7760   -7.5441 O   0  0  0  0  0  0  0  0  0  0  0  0
   19.1628   71.9883   -7.9674 O   0  0  0  0  0  0  0  0  0  0  0  0
   15.8597   70.6771   -4.7192 O   0  0  0  0  0  0  0  0  0  0  0  0
   17.4038   71.2039   -6.4921 C   0  0  2  0  0  0  0  0  0  0  0  0
   18.8597   71.0571   -6.9351 C   0  0  2  0  0  0  0  0  0  0  0  0
   17.1290   70.3276   -5.2680 C   0  0  1  0  0  0  0  0  0  0  0  0
   19.8142   71.2857   -5.7622 C   0  0  1  0  0  0  0  0  0  0  0  0
   18.1951   70.5214   -4.1935 C   0  0  1  0  0  0  0  0  0  0  0  0
   16.6956   71.3189   -8.3328 H   0  0  0  0  0  0  0  0  0  0  0  0
   18.5608   71.8492   -8.7148 H   0  0  0  0  0  0  0  0  0  0  0  0
   15.1723   70.5583   -5.3931 H   0  0  0  0  0  0  0  0  0  0  0  0
   18.0172   68.2251   -3.7497 O   0  0  0  0  0  0  0  0  0  0  0  0
   18.1260   69.6261   -1.9541 O   0  0  0  0  0  0  0  0  0  0  0  0
   18.1108   69.4437   -3.1621 C   0  0  0  0  0  0  0  0  0  0  0  0
  1  4  1  0
  1 24  1  0
  1  2  1  6
  1  3  2  0
 25 28  1  0
 25 24  1  0
 25 26  1  6
 25 27  2  0
  6 11  1  0
  6 12  1  0
 29 36  1  0
 29 37  1  0
  9  7  1  6
  7 13  1  0
 10  8  1  6
  8 14  1  0
  4  5  1  0
 36 28  1  1
 33 30  1  6
 30 38  1  0
 34 31  1  6
 31 39  1  0
 35 32  1  1
 32 40  1  0
 41 43  1  0
 15 19  2  0
 42 43  2  0
 16 22  2  0
 12 17  1  1
 17 19  1  0
 17 20  1  0
 18 19  1  0
 18 22  1  0
 18 23  1  0
  9 10  1  0
  9 11  1  0
 10 12  1  0
 11  5  1  1
 33 34  1  0
 33 35  1  0
 34 36  1  0
 35 37  1  0
 37 43  1  1
 20 21  2  0
 21 22  1  0
M  CHG  3   2  -1  26  -1  41  -1
M  END
>  <COMPND>  (178) 
    udp_gluA.pdb 

>  <AUTHOR>  (178) 
    GENERATED BY OPEN BABEL 3.1.1

>  <MASTER>  (178) 
        0    0    0    0    0    0    0    0   56    0   56    0

>  <minimizedAffinity>  (178) 
-7.93379

>  <CNNscore>  (178) 
0.2329347432

>  <CNNaffinity>  (178) 
3.8885047436

>  <CNN_VS>  (178) 
0.9057678580

>  <CNNaffinity_variance>  (178) 
0.2558432519

$$$$
179
     RDKit          3D

 43 45  0  0  0  0  0  0  0  0999 V2000
   22.5164   72.9188   -3.2176 P   0  0  2  0  0  0  0  0  0  0  0  0
   23.0505   72.3793   -4.6467 O   0  0  0  0  0  0  0  0  0  0  0  0
   22.9809   74.2967   -2.8468 O   0  0  0  0  0  0  0  0  0  0  0  0
   22.9164   71.7405   -2.1833 O   0  0  0  0  0  0  0  0  0  0  0  0
   22.9244   72.0310   -0.7977 C   0  0  0  0  0  0  0  0  0  0  0  0
   23.1167   70.6853    1.1847 O   0  0  0  0  0  0  0  0  0  0  0  0
   20.3401   69.7282    0.5795 O   0  0  0  0  0  0  0  0  0  0  0  0
   19.9186   71.5811    2.5353 O   0  0  0  0  0  0  0  0  0  0  0  0
   20.9118   71.0224    0.3874 C   0  0  1  0  0  0  0  0  0  0  0  0
   21.0591   71.7328    1.7162 C   0  0  2  0  0  0  0  0  0  0  0  0
   22.3621   70.8369   -0.0372 C   0  0  1  0  0  0  0  0  0  0  0  0
   22.2908   71.0607    2.2984 C   0  0  2  0  0  0  0  0  0  0  0  0
   19.4132   69.8210    0.8513 H   0  0  0  0  0  0  0  0  0  0  0  0
   19.1619   72.0263    2.1216 H   0  0  0  0  0  0  0  0  0  0  0  0
   23.6044   70.2347    4.6582 O   0  0  0  0  0  0  0  0  0  0  0  0
   25.1226   74.4998    5.5235 O   0  0  0  0  0  0  0  0  0  0  0  0
   23.0366   71.9345    3.1592 N   0  0  0  0  0  0  0  0  0  0  0  0
   24.3585   72.3599    5.0874 N   0  0  0  0  0  0  0  0  0  0  0  0
   23.6584   71.4189    4.3210 C   0  0  0  0  0  0  0  0  0  0  0  0
   23.1480   73.2844    2.8491 C   0  0  0  0  0  0  0  0  0  0  0  0
   23.8187   74.1692    3.5893 C   0  0  0  0  0  0  0  0  0  0  0  0
   24.4968   73.7124    4.8202 C   0  0  0  0  0  0  0  0  0  0  0  0
   24.7981   72.0250    5.9022 H   0  0  0  0  0  0  0  0  0  0  0  0
   20.9129   72.7606   -3.3461 O   0  0  0  0  0  0  0  0  0  0  0  0
   19.9886   71.4500   -3.5507 P   0  0  2  0  0  0  0  0  0  0  0  0
   18.9377   71.5433   -2.3231 O   0  0  0  0  0  0  0  0  0  0  0  0
   20.7543   70.1601   -3.6127 O   0  0  0  0  0  0  0  0  0  0  0  0
   19.1093   71.7704   -4.8647 O   0  0  0  0  0  0  0  0  0  0  0  0
   17.5823   73.5694   -5.0679 O   0  0  0  0  0  0  0  0  0  0  0  0
   16.1015   70.8920   -7.8440 O   0  0  0  0  0  0  0  0  0  0  0  0
   17.0317   69.9590   -5.2367 O   0  0  0  0  0  0  0  0  0  0  0  0
   17.5815   73.2351   -8.7217 O   0  0  0  0  0  0  0  0  0  0  0  0
   17.1092   71.5444   -7.0714 C   0  0  2  0  0  0  0  0  0  0  0  0
   16.8354   71.3250   -5.5834 C   0  0  2  0  0  0  0  0  0  0  0  0
   17.0687   73.0373   -7.4055 C   0  0  1  0  0  0  0  0  0  0  0  0
   17.7545   72.1940   -4.7240 C   0  0  1  0  0  0  0  0  0  0  0  0
   17.9110   73.8502   -6.4266 C   0  0  1  0  0  0  0  0  0  0  0  0
   16.1082   69.9418   -7.6483 H   0  0  0  0  0  0  0  0  0  0  0  0
   16.4518   69.4017   -5.7784 H   0  0  0  0  0  0  0  0  0  0  0  0
   17.0542   72.7229   -9.3545 H   0  0  0  0  0  0  0  0  0  0  0  0
   17.0844   75.7880   -5.3956 O   0  0  0  0  0  0  0  0  0  0  0  0
   17.8061   75.9831   -7.5497 O   0  0  0  0  0  0  0  0  0  0  0  0
   17.6088   75.3082   -6.5504 C   0  0  0  0  0  0  0  0  0  0  0  0
  1  4  1  0
  1 24  1  0
  1  2  1  6
  1  3  2  0
 25 28  1  0
 25 24  1  0
 25 26  1  1
 25 27  2  0
  6 11  1  0
  6 12  1  0
 29 36  1  0
 29 37  1  0
  9  7  1  1
  7 13  1  0
 10  8  1  1
  8 14  1  0
  4  5  1  0
 36 28  1  6
 33 30  1  6
 30 38  1  0
 34 31  1  1
 31 39  1  0
 35 32  1  6
 32 40  1  0
 41 43  1  0
 15 19  2  0
 42 43  2  0
 16 22  2  0
 12 17  1  1
 17 19  1  0
 17 20  1  0
 18 19  1  0
 18 22  1  0
 18 23  1  0
  9 10  1  0
  9 11  1  0
 10 12  1  0
 11  5  1  1
 33 34  1  0
 33 35  1  0
 34 36  1  0
 35 37  1  0
 37 43  1  6
 20 21  2  0
 21 22  1  0
M  CHG  3   2  -1  26  -1  41  -1
M  END
>  <COMPND>  (179) 
    udp_gluA.pdb 

>  <AUTHOR>  (179) 
    GENERATED BY OPEN BABEL 3.1.1

>  <MASTER>  (179) 
        0    0    0    0    0    0    0    0   56    0   56    0

>  <minimizedAffinity>  (179) 
-7.42959

>  <CNNscore>  (179) 
0.2267136872

>  <CNNaffinity>  (179) 
3.7840447426

>  <CNN_VS>  (179) 
0.8578947186

>  <CNNaffinity_variance>  (179) 
0.0684630498

$$$$
180
     RDKit          3D

 43 45  0  0  0  0  0  0  0  0999 V2000
   20.2373   74.9052    0.6013 P   0  0  2  0  0  0  0  0  0  0  0  0
   19.4834   74.8393    2.0317 O   0  0  0  0  0  0  0  0  0  0  0  0
   21.2895   75.9692    0.4881 O   0  0  0  0  0  0  0  0  0  0  0  0
   19.0290   74.9952   -0.4710 O   0  0  0  0  0  0  0  0  0  0  0  0
   18.8434   73.9192   -1.3723 C   0  0  0  0  0  0  0  0  0  0  0  0
   16.8229   73.0407   -2.3332 O   0  0  0  0  0  0  0  0  0  0  0  0
   16.4404   71.5886    0.2623 O   0  0  0  0  0  0  0  0  0  0  0  0
   17.4209   69.6387   -1.3726 O   0  0  0  0  0  0  0  0  0  0  0  0
   17.6480   71.8744   -0.4439 C   0  0  1  0  0  0  0  0  0  0  0  0
   17.7706   70.9771   -1.6572 C   0  0  2  0  0  0  0  0  0  0  0  0
   17.5064   73.2510   -1.0787 C   0  0  1  0  0  0  0  0  0  0  0  0
   16.8129   71.6364   -2.6350 C   0  0  2  0  0  0  0  0  0  0  0  0
   16.5071   70.7136    0.6765 H   0  0  0  0  0  0  0  0  0  0  0  0
   18.0606   69.2637   -0.7463 H   0  0  0  0  0  0  0  0  0  0  0  0
   16.3038   69.3008   -4.1392 O   0  0  0  0  0  0  0  0  0  0  0  0
   18.3847   71.0304   -7.8704 O   0  0  0  0  0  0  0  0  0  0  0  0
   17.2105   71.4497   -4.0017 N   0  0  0  0  0  0  0  0  0  0  0  0
   17.3416   70.1641   -5.9958 N   0  0  0  0  0  0  0  0  0  0  0  0
   16.9059   70.2381   -4.6662 C   0  0  0  0  0  0  0  0  0  0  0  0
   17.8921   72.4595   -4.6699 C   0  0  0  0  0  0  0  0  0  0  0  0
   18.3008   72.3744   -5.9374 C   0  0  0  0  0  0  0  0  0  0  0  0
   18.0232   71.1413   -6.7028 C   0  0  0  0  0  0  0  0  0  0  0  0
   17.1428   69.3293   -6.4785 H   0  0  0  0  0  0  0  0  0  0  0  0
   20.7826   73.3958    0.4086 O   0  0  0  0  0  0  0  0  0  0  0  0
   21.5738   72.4156    1.4219 P   0  0  2  0  0  0  0  0  0  0  0  0
   20.3906   71.5220    2.0715 O   0  0  0  0  0  0  0  0  0  0  0  0
   22.4314   73.1300    2.4259 O   0  0  0  0  0  0  0  0  0  0  0  0
   22.3747   71.3953    0.4627 O   0  0  0  0  0  0  0  0  0  0  0  0
   21.1048   70.3520   -1.2427 O   0  0  0  0  0  0  0  0  0  0  0  0
   24.6000   68.1511   -1.3312 O   0  0  0  0  0  0  0  0  0  0  0  0
   23.4001   68.9227    1.2181 O   0  0  0  0  0  0  0  0  0  0  0  0
   24.0677   70.1278   -3.3952 O   0  0  0  0  0  0  0  0  0  0  0  0
   23.7989   69.3175   -1.1422 C   0  0  2  0  0  0  0  0  0  0  0  0
   22.7640   69.0557   -0.0477 C   0  0  2  0  0  0  0  0  0  0  0  0
   23.1031   69.6333   -2.4681 C   0  0  1  0  0  0  0  0  0  0  0  0
   21.7443   70.1932    0.0244 C   0  0  1  0  0  0  0  0  0  0  0  0
   22.0141   70.6871   -2.2886 C   0  0  1  0  0  0  0  0  0  0  0  0
   25.0520   67.9311   -0.5014 H   0  0  0  0  0  0  0  0  0  0  0  0
   24.0487   68.2029    1.1796 H   0  0  0  0  0  0  0  0  0  0  0  0
   24.7666   69.4666   -3.5183 H   0  0  0  0  0  0  0  0  0  0  0  0
   21.4084   71.8513   -4.2326 O   0  0  0  0  0  0  0  0  0  0  0  0
   20.2787   69.9230   -3.7806 O   0  0  0  0  0  0  0  0  0  0  0  0
   21.1321   70.7489   -3.4929 C   0  0  0  0  0  0  0  0  0  0  0  0
  1  4  1  0
  1 24  1  0
  1  2  1  1
  1  3  2  0
 25 28  1  0
 25 24  1  0
 25 26  1  1
 25 27  2  0
  6 11  1  0
  6 12  1  0
 29 36  1  0
 29 37  1  0
  9  7  1  6
  7 13  1  0
 10  8  1  1
  8 14  1  0
  4  5  1  0
 36 28  1  6
 33 30  1  6
 30 38  1  0
 34 31  1  1
 31 39  1  0
 35 32  1  6
 32 40  1  0
 41 43  1  0
 15 19  2  0
 42 43  2  0
 16 22  2  0
 12 17  1  6
 17 19  1  0
 17 20  1  0
 18 19  1  0
 18 22  1  0
 18 23  1  0
  9 10  1  0
  9 11  1  0
 10 12  1  0
 11  5  1  6
 33 34  1  0
 33 35  1  0
 34 36  1  0
 35 37  1  0
 37 43  1  6
 20 21  2  0
 21 22  1  0
M  CHG  3   2  -1  26  -1  41  -1
M  END
>  <COMPND>  (180) 
    udp_gluA.pdb 

>  <AUTHOR>  (180) 
    GENERATED BY OPEN BABEL 3.1.1

>  <MASTER>  (180) 
        0    0    0    0    0    0    0    0   56    0   56    0

>  <minimizedAffinity>  (180) 
-6.69856

>  <CNNscore>  (180) 
0.2205618620

>  <CNNaffinity>  (180) 
3.8886535168

>  <CNN_VS>  (180) 
0.8576886654

>  <CNNaffinity_variance>  (180) 
0.5224612355

$$$$
181
     RDKit          3D

 43 45  0  0  0  0  0  0  0  0999 V2000
   22.5928   71.9735   -3.0466 P   0  0  2  0  0  0  0  0  0  0  0  0
   23.6155   72.2514   -4.2696 O   0  0  0  0  0  0  0  0  0  0  0  0
   23.1556   71.1516   -1.9243 O   0  0  0  0  0  0  0  0  0  0  0  0
   21.2778   71.3684   -3.7697 O   0  0  0  0  0  0  0  0  0  0  0  0
   20.4661   70.4610   -3.0471 C   0  0  0  0  0  0  0  0  0  0  0  0
   18.7458   71.7245   -4.1523 O   0  0  0  0  0  0  0  0  0  0  0  0
   16.8637   70.5978   -2.1079 O   0  0  0  0  0  0  0  0  0  0  0  0
   16.3692   69.0438   -4.2935 O   0  0  0  0  0  0  0  0  0  0  0  0
   17.9866   69.9819   -2.7390 C   0  0  1  0  0  0  0  0  0  0  0  0
   17.6514   69.6233   -4.1712 C   0  0  2  0  0  0  0  0  0  0  0  0
   19.0640   71.0424   -2.9199 C   0  0  1  0  0  0  0  0  0  0  0  0
   17.7528   70.9706   -4.8657 C   0  0  2  0  0  0  0  0  0  0  0  0
   16.1620   69.9395   -1.9817 H   0  0  0  0  0  0  0  0  0  0  0  0
   16.3560   68.1883   -3.8353 H   0  0  0  0  0  0  0  0  0  0  0  0
   16.0214   70.2497   -6.9773 O   0  0  0  0  0  0  0  0  0  0  0  0
   19.4046   70.5407  -10.0939 O   0  0  0  0  0  0  0  0  0  0  0  0
   18.1549   70.8505   -6.2386 N   0  0  0  0  0  0  0  0  0  0  0  0
   17.7083   70.3944   -8.5274 N   0  0  0  0  0  0  0  0  0  0  0  0
   17.2067   70.4822   -7.2222 C   0  0  0  0  0  0  0  0  0  0  0  0
   19.4739   71.0978   -6.5992 C   0  0  0  0  0  0  0  0  0  0  0  0
   19.9371   71.0101   -7.8476 C   0  0  0  0  0  0  0  0  0  0  0  0
   19.0114   70.6300   -8.9348 C   0  0  0  0  0  0  0  0  0  0  0  0
   17.0673   70.1375   -9.2292 H   0  0  0  0  0  0  0  0  0  0  0  0
   22.1223   73.4605   -2.6220 O   0  0  0  0  0  0  0  0  0  0  0  0
   22.8190   74.5614   -1.6649 P   0  0  2  0  0  0  0  0  0  0  0  0
   21.7674   75.7918   -1.6900 O   0  0  0  0  0  0  0  0  0  0  0  0
   24.2160   74.9336   -2.0697 O   0  0  0  0  0  0  0  0  0  0  0  0
   22.6936   73.9489   -0.1778 O   0  0  0  0  0  0  0  0  0  0  0  0
   20.5435   74.0419    0.8110 O   0  0  0  0  0  0  0  0  0  0  0  0
   22.9102   73.0216    4.0399 O   0  0  0  0  0  0  0  0  0  0  0  0
   23.8054   75.0397    2.1266 O   0  0  0  0  0  0  0  0  0  0  0  0
   21.2429   71.0132    2.7604 O   0  0  0  0  0  0  0  0  0  0  0  0
   22.5227   73.0523    2.6662 C   0  0  2  0  0  0  0  0  0  0  0  0
   22.4897   74.5001    2.1761 C   0  0  2  0  0  0  0  0  0  0  0  0
   21.1338   72.4201    2.5525 C   0  0  1  0  0  0  0  0  0  0  0  0
   21.8609   74.5926    0.7851 C   0  0  1  0  0  0  0  0  0  0  0  0
   20.5218   72.6637    1.1760 C   0  0  1  0  0  0  0  0  0  0  0  0
   23.7903   73.4184    4.1367 H   0  0  0  0  0  0  0  0  0  0  0  0
   24.2105   74.9840    3.0059 H   0  0  0  0  0  0  0  0  0  0  0  0
   21.6312   70.8445    3.6331 H   0  0  0  0  0  0  0  0  0  0  0  0
   18.6095   72.1875    2.4479 O   0  0  0  0  0  0  0  0  0  0  0  0
   18.3670   72.2296    0.1811 O   0  0  0  0  0  0  0  0  0  0  0  0
   19.0632   72.3404    1.1791 C   0  0  0  0  0  0  0  0  0  0  0  0
  1  4  1  0
  1 24  1  0
  1  2  1  6
  1  3  2  0
 25 28  1  0
 25 24  1  0
 25 26  1  1
 25 27  2  0
  6 11  1  0
  6 12  1  0
 29 36  1  0
 29 37  1  0
  9  7  1  6
  7 13  1  0
 10  8  1  1
  8 14  1  0
  4  5  1  0
 36 28  1  6
 33 30  1  1
 30 38  1  0
 34 31  1  6
 31 39  1  0
 35 32  1  6
 32 40  1  0
 41 43  1  0
 15 19  2  0
 42 43  2  0
 16 22  2  0
 12 17  1  6
 17 19  1  0
 17 20  1  0
 18 19  1  0
 18 22  1  0
 18 23  1  0
  9 10  1  0
  9 11  1  0
 10 12  1  0
 11  5  1  6
 33 34  1  0
 33 35  1  0
 34 36  1  0
 35 37  1  0
 37 43  1  1
 20 21  2  0
 21 22  1  0
M  CHG  3   2  -1  26  -1  41  -1
M  END
>  <COMPND>  (181) 
    udp_gluA.pdb 

>  <AUTHOR>  (181) 
    GENERATED BY OPEN BABEL 3.1.1

>  <MASTER>  (181) 
        0    0    0    0    0    0    0    0   56    0   56    0

>  <minimizedAffinity>  (181) 
-6.77417

>  <CNNscore>  (181) 
0.8897173405

>  <CNNaffinity>  (181) 
4.7669801712

>  <CNN_VS>  (181) 
4.2412648201

>  <CNNaffinity_variance>  (181) 
0.0132252723

$$$$
182
     RDKit          3D

 43 45  0  0  0  0  0  0  0  0999 V2000
   22.0877   71.2234   -2.1152 P   0  0  2  0  0  0  0  0  0  0  0  0
   22.8671   72.5706   -1.6722 O   0  0  0  0  0  0  0  0  0  0  0  0
   22.2693   70.8297   -3.5518 O   0  0  0  0  0  0  0  0  0  0  0  0
   20.5615   71.4853   -1.6460 O   0  0  0  0  0  0  0  0  0  0  0  0
   19.7232   72.2667   -2.4773 C   0  0  0  0  0  0  0  0  0  0  0  0
   17.6663   71.8976   -3.6649 O   0  0  0  0  0  0  0  0  0  0  0  0
   16.9474   70.0022   -1.4553 O   0  0  0  0  0  0  0  0  0  0  0  0
   17.7624   68.3206   -3.4412 O   0  0  0  0  0  0  0  0  0  0  0  0
   18.2212   70.2590   -2.0469 C   0  0  1  0  0  0  0  0  0  0  0  0
   18.2980   69.6272   -3.4206 C   0  0  2  0  0  0  0  0  0  0  0  0
   18.2962   71.7440   -2.3745 C   0  0  1  0  0  0  0  0  0  0  0  0
   17.4927   70.6027   -4.2619 C   0  0  2  0  0  0  0  0  0  0  0  0
   16.8759   69.0593   -1.2371 H   0  0  0  0  0  0  0  0  0  0  0  0
   18.3102   67.7378   -2.8915 H   0  0  0  0  0  0  0  0  0  0  0  0
   15.8967   69.9340   -6.4940 O   0  0  0  0  0  0  0  0  0  0  0  0
   19.3236   70.8308   -9.4430 O   0  0  0  0  0  0  0  0  0  0  0  0
   17.9426   70.6525   -5.6242 N   0  0  0  0  0  0  0  0  0  0  0  0
   17.6053   70.3803   -7.9605 N   0  0  0  0  0  0  0  0  0  0  0  0
   17.0613   70.2959   -6.6722 C   0  0  0  0  0  0  0  0  0  0  0  0
   19.2421   71.0525   -5.9113 C   0  0  0  0  0  0  0  0  0  0  0  0
   19.7463   71.1280   -7.1445 C   0  0  0  0  0  0  0  0  0  0  0  0
   18.8914   70.7718   -8.2958 C   0  0  0  0  0  0  0  0  0  0  0  0
   17.0113   70.1350   -8.7064 H   0  0  0  0  0  0  0  0  0  0  0  0
   22.6142   70.1313   -1.0461 O   0  0  0  0  0  0  0  0  0  0  0  0
   22.1624   69.8339    0.4774 P   0  0  2  0  0  0  0  0  0  0  0  0
   23.3445   68.8783    1.0339 O   0  0  0  0  0  0  0  0  0  0  0  0
   20.7842   69.2531    0.6088 O   0  0  0  0  0  0  0  0  0  0  0  0
   22.3746   71.2351    1.2483 O   0  0  0  0  0  0  0  0  0  0  0  0
   22.5813   71.8584    3.5238 O   0  0  0  0  0  0  0  0  0  0  0  0
   20.2746   74.9359    2.0153 O   0  0  0  0  0  0  0  0  0  0  0  0
   19.7559   72.1718    1.2248 O   0  0  0  0  0  0  0  0  0  0  0  0
   23.0938   75.3665    2.5788 O   0  0  0  0  0  0  0  0  0  0  0  0
   21.2694   73.9129    1.9757 C   0  0  2  0  0  0  0  0  0  0  0  0
   20.6253   72.5606    2.2820 C   0  0  2  0  0  0  0  0  0  0  0  0
   22.3323   74.2460    3.0251 C   0  0  1  0  0  0  0  0  0  0  0  0
   21.6891   71.4790    2.4752 C   0  0  1  0  0  0  0  0  0  0  0  0
   23.2797   73.0712    3.2509 C   0  0  1  0  0  0  0  0  0  0  0  0
   19.5882   74.7454    1.3565 H   0  0  0  0  0  0  0  0  0  0  0  0
   19.0784   72.8537    1.0966 H   0  0  0  0  0  0  0  0  0  0  0  0
   22.5025   76.1211    2.4312 H   0  0  0  0  0  0  0  0  0  0  0  0
   24.8969   74.3598    4.3579 O   0  0  0  0  0  0  0  0  0  0  0  0
   24.0444   72.5696    5.4836 O   0  0  0  0  0  0  0  0  0  0  0  0
   24.0928   73.2756    4.4875 C   0  0  0  0  0  0  0  0  0  0  0  0
  1  4  1  0
  1 24  1  0
  1  2  1  6
  1  3  2  0
 25 28  1  0
 25 24  1  0
 25 26  1  1
 25 27  2  0
  6 11  1  0
  6 12  1  0
 29 36  1  0
 29 37  1  0
  9  7  1  6
  7 13  1  0
 10  8  1  1
  8 14  1  0
  4  5  1  0
 36 28  1  6
 33 30  1  1
 30 38  1  0
 34 31  1  6
 31 39  1  0
 35 32  1  6
 32 40  1  0
 41 43  1  0
 15 19  2  0
 42 43  2  0
 16 22  2  0
 12 17  1  6
 17 19  1  0
 17 20  1  0
 18 19  1  0
 18 22  1  0
 18 23  1  0
  9 10  1  0
  9 11  1  0
 10 12  1  0
 11  5  1  6
 33 34  1  0
 33 35  1  0
 34 36  1  0
 35 37  1  0
 37 43  1  1
 20 21  2  0
 21 22  1  0
M  CHG  3   2  -1  26  -1  41  -1
M  END
>  <COMPND>  (182) 
    udp_gluA.pdb 

>  <AUTHOR>  (182) 
    GENERATED BY OPEN BABEL 3.1.1

>  <MASTER>  (182) 
        0    0    0    0    0    0    0    0   56    0   56    0

>  <minimizedAffinity>  (182) 
-8.18768

>  <CNNscore>  (182) 
0.7007355094

>  <CNNaffinity>  (182) 
4.6981287003

>  <CNN_VS>  (182) 
3.2921454906

>  <CNNaffinity_variance>  (182) 
0.0202099234

$$$$
183
     RDKit          3D

 43 45  0  0  0  0  0  0  0  0999 V2000
   22.4010   70.4724   -2.0633 P   0  0  2  0  0  0  0  0  0  0  0  0
   23.0275   71.7852   -2.7725 O   0  0  0  0  0  0  0  0  0  0  0  0
   23.1294   69.1912   -2.3458 O   0  0  0  0  0  0  0  0  0  0  0  0
   20.8420   70.5042   -2.4950 O   0  0  0  0  0  0  0  0  0  0  0  0
   20.2145   71.7612   -2.6703 C   0  0  0  0  0  0  0  0  0  0  0  0
   18.1024   71.9440   -3.8031 O   0  0  0  0  0  0  0  0  0  0  0  0
   17.0049   70.1686   -1.6503 O   0  0  0  0  0  0  0  0  0  0  0  0
   17.3534   68.4386   -3.7292 O   0  0  0  0  0  0  0  0  0  0  0  0
   18.2896   70.1458   -2.2727 C   0  0  1  0  0  0  0  0  0  0  0  0
   18.1837   69.5797   -3.6729 C   0  0  2  0  0  0  0  0  0  0  0  0
   18.7069   71.5852   -2.5417 C   0  0  1  0  0  0  0  0  0  0  0  0
   17.6137   70.7564   -4.4465 C   0  0  2  0  0  0  0  0  0  0  0  0
   16.7171   69.2598   -1.4686 H   0  0  0  0  0  0  0  0  0  0  0  0
   17.7599   67.7178   -3.2221 H   0  0  0  0  0  0  0  0  0  0  0  0
   15.9704   70.0072   -6.6179 O   0  0  0  0  0  0  0  0  0  0  0  0
   19.3235   70.8226   -9.6733 O   0  0  0  0  0  0  0  0  0  0  0  0
   18.0319   70.7635   -5.8198 N   0  0  0  0  0  0  0  0  0  0  0  0
   17.6423   70.4131   -8.1375 N   0  0  0  0  0  0  0  0  0  0  0  0
   17.1286   70.3686   -6.8348 C   0  0  0  0  0  0  0  0  0  0  0  0
   19.3222   71.1599   -6.1499 C   0  0  0  0  0  0  0  0  0  0  0  0
   19.7975   71.1972   -7.3963 C   0  0  0  0  0  0  0  0  0  0  0  0
   18.9182   70.7993   -8.5152 C   0  0  0  0  0  0  0  0  0  0  0  0
   17.0326   70.1406   -8.8609 H   0  0  0  0  0  0  0  0  0  0  0  0
   22.3545   70.8905   -0.5025 O   0  0  0  0  0  0  0  0  0  0  0  0
   22.0811   70.0088    0.8247 P   0  0  2  0  0  0  0  0  0  0  0  0
   23.5297   69.3603    1.1429 O   0  0  0  0  0  0  0  0  0  0  0  0
   20.9729   69.0063    0.6806 O   0  0  0  0  0  0  0  0  0  0  0  0
   21.8542   71.0936    1.9971 O   0  0  0  0  0  0  0  0  0  0  0  0
   21.5481   73.4338    1.8004 O   0  0  0  0  0  0  0  0  0  0  0  0
   23.3780   73.1327    5.4921 O   0  0  0  0  0  0  0  0  0  0  0  0
   24.3048   71.5144    3.2434 O   0  0  0  0  0  0  0  0  0  0  0  0
   20.5239   73.6562    5.3166 O   0  0  0  0  0  0  0  0  0  0  0  0
   22.5464   72.7100    4.4115 C   0  0  2  0  0  0  0  0  0  0  0  0
   23.3831   72.5931    3.1372 C   0  0  2  0  0  0  0  0  0  0  0  0
   21.4416   73.7531    4.2290 C   0  0  1  0  0  0  0  0  0  0  0  0
   22.4909   72.3674    1.9157 C   0  0  1  0  0  0  0  0  0  0  0  0
   20.6784   73.5340    2.9259 C   0  0  1  0  0  0  0  0  0  0  0  0
   24.0877   72.4850    5.6266 H   0  0  0  0  0  0  0  0  0  0  0  0
   24.8740   71.6509    4.0166 H   0  0  0  0  0  0  0  0  0  0  0  0
   20.9971   73.7935    6.1521 H   0  0  0  0  0  0  0  0  0  0  0  0
   20.3900   75.4323    1.5787 O   0  0  0  0  0  0  0  0  0  0  0  0
   18.7970   75.0265    3.1589 O   0  0  0  0  0  0  0  0  0  0  0  0
   19.8389   74.7252    2.5961 C   0  0  0  0  0  0  0  0  0  0  0  0
  1  4  1  0
  1 24  1  0
  1  2  1  6
  1  3  2  0
 25 28  1  0
 25 24  1  0
 25 26  1  1
 25 27  2  0
  6 11  1  0
  6 12  1  0
 29 36  1  0
 29 37  1  0
  9  7  1  6
  7 13  1  0
 10  8  1  1
  8 14  1  0
  4  5  1  0
 36 28  1  1
 33 30  1  1
 30 38  1  0
 34 31  1  1
 31 39  1  0
 35 32  1  1
 32 40  1  0
 41 43  1  0
 15 19  2  0
 42 43  2  0
 16 22  2  0
 12 17  1  6
 17 19  1  0
 17 20  1  0
 18 19  1  0
 18 22  1  0
 18 23  1  0
  9 10  1  0
  9 11  1  0
 10 12  1  0
 11  5  1  6
 33 34  1  0
 33 35  1  0
 34 36  1  0
 35 37  1  0
 37 43  1  6
 20 21  2  0
 21 22  1  0
M  CHG  3   2  -1  26  -1  41  -1
M  END
>  <COMPND>  (183) 
    udp_gluA.pdb 

>  <AUTHOR>  (183) 
    GENERATED BY OPEN BABEL 3.1.1

>  <MASTER>  (183) 
        0    0    0    0    0    0    0    0   56    0   56    0

>  <minimizedAffinity>  (183) 
-8.19813

>  <CNNscore>  (183) 
0.6422902346

>  <CNNaffinity>  (183) 
4.6965117455

>  <CNN_VS>  (183) 
3.0165235996

>  <CNNaffinity_variance>  (183) 
0.0293563120

$$$$
184
     RDKit          3D

 43 45  0  0  0  0  0  0  0  0999 V2000
   19.6717   72.1479   -1.2988 P   0  0  2  0  0  0  0  0  0  0  0  0
   18.6270   71.6896   -0.1510 O   0  0  0  0  0  0  0  0  0  0  0  0
   20.1761   73.5555   -1.1710 O   0  0  0  0  0  0  0  0  0  0  0  0
   18.9078   71.7982   -2.6816 O   0  0  0  0  0  0  0  0  0  0  0  0
   18.8416   70.4454   -3.0940 C   0  0  0  0  0  0  0  0  0  0  0  0
   16.5791   71.2347   -3.2826 O   0  0  0  0  0  0  0  0  0  0  0  0
   15.8984   68.4844   -4.2645 O   0  0  0  0  0  0  0  0  0  0  0  0
   16.0190   69.9289   -6.5743 O   0  0  0  0  0  0  0  0  0  0  0  0
   17.0767   69.2585   -4.4900 C   0  0  1  0  0  0  0  0  0  0  0  0
   16.7925   70.3700   -5.4781 C   0  0  2  0  0  0  0  0  0  0  0  0
   17.3798   70.0348   -3.2158 C   0  0  1  0  0  0  0  0  0  0  0  0
   16.0585   71.3806   -4.6134 C   0  0  2  0  0  0  0  0  0  0  0  0
   15.6847   67.9795   -5.0652 H   0  0  0  0  0  0  0  0  0  0  0  0
   16.5302   69.2877   -7.0935 H   0  0  0  0  0  0  0  0  0  0  0  0
   14.2723   73.5123   -4.1215 O   0  0  0  0  0  0  0  0  0  0  0  0
   16.9660   76.5224   -6.3413 O   0  0  0  0  0  0  0  0  0  0  0  0
   16.2684   72.7315   -5.0514 N   0  0  0  0  0  0  0  0  0  0  0  0
   15.6151   75.0093   -5.2284 N   0  0  0  0  0  0  0  0  0  0  0  0
   15.3091   73.7277   -4.7521 C   0  0  0  0  0  0  0  0  0  0  0  0
   17.4138   73.0586   -5.7668 C   0  0  0  0  0  0  0  0  0  0  0  0
   17.6918   74.2848   -6.2141 C   0  0  0  0  0  0  0  0  0  0  0  0
   16.7407   75.3830   -5.9447 C   0  0  0  0  0  0  0  0  0  0  0  0
   14.9611   75.7191   -5.0341 H   0  0  0  0  0  0  0  0  0  0  0  0
   20.8189   71.0119   -1.2201 O   0  0  0  0  0  0  0  0  0  0  0  0
   21.6357   70.4138    0.0404 P   0  0  2  0  0  0  0  0  0  0  0  0
   23.0939   70.0906   -0.5835 O   0  0  0  0  0  0  0  0  0  0  0  0
   20.9729   69.2411    0.7033 O   0  0  0  0  0  0  0  0  0  0  0  0
   21.8790   71.6809    1.0089 O   0  0  0  0  0  0  0  0  0  0  0  0
   22.3716   71.1236    3.2574 O   0  0  0  0  0  0  0  0  0  0  0  0
   21.7939   75.2065    3.5104 O   0  0  0  0  0  0  0  0  0  0  0  0
   20.0193   73.5582    1.8768 O   0  0  0  0  0  0  0  0  0  0  0  0
   24.4828   74.1051    3.5971 O   0  0  0  0  0  0  0  0  0  0  0  0
   22.1831   73.9815    2.8893 C   0  0  2  0  0  0  0  0  0  0  0  0
   20.9759   73.0477    2.7983 C   0  0  2  0  0  0  0  0  0  0  0  0
   23.2834   73.3471    3.7431 C   0  0  1  0  0  0  0  0  0  0  0  0
   21.3995   71.6477    2.3519 C   0  0  1  0  0  0  0  0  0  0  0  0
   23.5604   71.9087    3.3158 C   0  0  1  0  0  0  0  0  0  0  0  0
   21.0952   75.6277    2.9853 H   0  0  0  0  0  0  0  0  0  0  0  0
   19.7463   74.4465    2.1538 H   0  0  0  0  0  0  0  0  0  0  0  0
   24.3200   75.0229    3.8656 H   0  0  0  0  0  0  0  0  0  0  0  0
   24.0037   69.9003    4.4433 O   0  0  0  0  0  0  0  0  0  0  0  0
   25.2727   71.7098    5.0040 O   0  0  0  0  0  0  0  0  0  0  0  0
   24.3811   71.1989    4.3429 C   0  0  0  0  0  0  0  0  0  0  0  0
  1  4  1  0
  1 24  1  0
  1  2  1  1
  1  3  2  0
 25 28  1  0
 25 24  1  0
 25 26  1  6
 25 27  2  0
  6 11  1  0
  6 12  1  0
 29 36  1  0
 29 37  1  0
  9  7  1  1
  7 13  1  0
 10  8  1  6
  8 14  1  0
  4  5  1  0
 36 28  1  6
 33 30  1  1
 30 38  1  0
 34 31  1  6
 31 39  1  0
 35 32  1  6
 32 40  1  0
 41 43  1  0
 15 19  2  0
 42 43  2  0
 16 22  2  0
 12 17  1  6
 17 19  1  0
 17 20  1  0
 18 19  1  0
 18 22  1  0
 18 23  1  0
  9 10  1  0
  9 11  1  0
 10 12  1  0
 11  5  1  6
 33 34  1  0
 33 35  1  0
 34 36  1  0
 35 37  1  0
 37 43  1  1
 20 21  2  0
 21 22  1  0
M  CHG  3   2  -1  26  -1  41  -1
M  END
>  <COMPND>  (184) 
    udp_gluA.pdb 

>  <AUTHOR>  (184) 
    GENERATED BY OPEN BABEL 3.1.1

>  <MASTER>  (184) 
        0    0    0    0    0    0    0    0   56    0   56    0

>  <minimizedAffinity>  (184) 
-6.86705

>  <CNNscore>  (184) 
0.4366221130

>  <CNNaffinity>  (184) 
4.1511588097

>  <CNN_VS>  (184) 
1.8124877214

>  <CNNaffinity_variance>  (184) 
0.0461343676

$$$$
185
     RDKit          3D

 43 45  0  0  0  0  0  0  0  0999 V2000
   18.5069   73.3966    0.2728 P   0  0  2  0  0  0  0  0  0  0  0  0
   17.1120   73.1816    1.0645 O   0  0  0  0  0  0  0  0  0  0  0  0
   19.0083   74.8107    0.2452 O   0  0  0  0  0  0  0  0  0  0  0  0
   18.2430   72.7163   -1.1713 O   0  0  0  0  0  0  0  0  0  0  0  0
   16.9059   72.5500   -1.6061 C   0  0  0  0  0  0  0  0  0  0  0  0
   15.8646   71.0714   -3.1894 O   0  0  0  0  0  0  0  0  0  0  0  0
   17.7720   68.9769   -2.2064 O   0  0  0  0  0  0  0  0  0  0  0  0
   18.9255   69.7843   -4.5417 O   0  0  0  0  0  0  0  0  0  0  0  0
   17.9807   70.3784   -2.3815 C   0  0  1  0  0  0  0  0  0  0  0  0
   18.1100   70.7093   -3.8532 C   0  0  2  0  0  0  0  0  0  0  0  0
   16.6914   71.0959   -2.0057 C   0  0  1  0  0  0  0  0  0  0  0  0
   16.6629   70.6691   -4.3138 C   0  0  2  0  0  0  0  0  0  0  0  0
   18.5825   68.4972   -2.4405 H   0  0  0  0  0  0  0  0  0  0  0  0
   19.8364   69.8489   -4.2128 H   0  0  0  0  0  0  0  0  0  0  0  0
   17.0347   70.0040   -7.0334 O   0  0  0  0  0  0  0  0  0  0  0  0
   15.6660   74.1776   -8.4302 O   0  0  0  0  0  0  0  0  0  0  0  0
   16.4113   71.5629   -5.4087 N   0  0  0  0  0  0  0  0  0  0  0  0
   16.3536   72.0837   -7.7264 N   0  0  0  0  0  0  0  0  0  0  0  0
   16.6305   71.1301   -6.7379 C   0  0  0  0  0  0  0  0  0  0  0  0
   15.9516   72.8507   -5.1612 C   0  0  0  0  0  0  0  0  0  0  0  0
   15.6920   73.7483   -6.1139 C   0  0  0  0  0  0  0  0  0  0  0  0
   15.8956   73.3763   -7.5294 C   0  0  0  0  0  0  0  0  0  0  0  0
   16.5006   71.8061   -8.6595 H   0  0  0  0  0  0  0  0  0  0  0  0
   19.4995   72.3443    0.9942 O   0  0  0  0  0  0  0  0  0  0  0  0
   20.4901   71.2254    0.3775 P   0  0  2  0  0  0  0  0  0  0  0  0
   21.3218   72.0453   -0.7434 O   0  0  0  0  0  0  0  0  0  0  0  0
   19.7907   70.0030   -0.1426 O   0  0  0  0  0  0  0  0  0  0  0  0
   21.5610   70.9365    1.5488 O   0  0  0  0  0  0  0  0  0  0  0  0
   23.3378   72.3742    2.1697 O   0  0  0  0  0  0  0  0  0  0  0  0
   24.7696   68.6946    3.3856 O   0  0  0  0  0  0  0  0  0  0  0  0
   23.3952   68.9756    0.8231 O   0  0  0  0  0  0  0  0  0  0  0  0
   23.7549   70.5859    5.3462 O   0  0  0  0  0  0  0  0  0  0  0  0
   23.7733   69.6802    3.1137 C   0  0  2  0  0  0  0  0  0  0  0  0
   23.8230   70.0635    1.6344 C   0  0  2  0  0  0  0  0  0  0  0  0
   24.0640   70.9007    3.9898 C   0  0  1  0  0  0  0  0  0  0  0  0
   22.9329   71.2748    1.3530 C   0  0  1  0  0  0  0  0  0  0  0  0
   23.2265   72.1035    3.5652 C   0  0  1  0  0  0  0  0  0  0  0  0
   24.6053   67.9093    2.8400 H   0  0  0  0  0  0  0  0  0  0  0  0
   23.9555   68.2034    0.9967 H   0  0  0  0  0  0  0  0  0  0  0  0
   24.2813   69.8218    5.6289 H   0  0  0  0  0  0  0  0  0  0  0  0
   23.4246   73.3998    5.5099 O   0  0  0  0  0  0  0  0  0  0  0  0
   24.3684   74.2285    3.6068 O   0  0  0  0  0  0  0  0  0  0  0  0
   23.7428   73.3575    4.1923 C   0  0  0  0  0  0  0  0  0  0  0  0
  1  4  1  0
  1 24  1  0
  1  2  1  1
  1  3  2  0
 25 28  1  0
 25 24  1  0
 25 26  1  6
 25 27  2  0
  6 11  1  0
  6 12  1  0
 29 36  1  0
 29 37  1  0
  9  7  1  6
  7 13  1  0
 10  8  1  6
  8 14  1  0
  4  5  1  0
 36 28  1  1
 33 30  1  6
 30 38  1  0
 34 31  1  6
 31 39  1  0
 35 32  1  1
 32 40  1  0
 41 43  1  0
 15 19  2  0
 42 43  2  0
 16 22  2  0
 12 17  1  6
 17 19  1  0
 17 20  1  0
 18 19  1  0
 18 22  1  0
 18 23  1  0
  9 10  1  0
  9 11  1  0
 10 12  1  0
 11  5  1  6
 33 34  1  0
 33 35  1  0
 34 36  1  0
 35 37  1  0
 37 43  1  1
 20 21  2  0
 21 22  1  0
M  CHG  3   2  -1  26  -1  41  -1
M  END
>  <COMPND>  (185) 
    udp_gluA.pdb 

>  <AUTHOR>  (185) 
    GENERATED BY OPEN BABEL 3.1.1

>  <MASTER>  (185) 
        0    0    0    0    0    0    0    0   56    0   56    0

>  <minimizedAffinity>  (185) 
-7.43516

>  <CNNscore>  (185) 
0.4129700363

>  <CNNaffinity>  (185) 
4.0358953476

>  <CNN_VS>  (185) 
1.6667038202

>  <CNNaffinity_variance>  (185) 
0.1316106170

$$$$
186
     RDKit          3D

 43 45  0  0  0  0  0  0  0  0999 V2000
   22.5505   71.5498   -2.6098 P   0  0  2  0  0  0  0  0  0  0  0  0
   22.6426   72.8232   -1.6153 O   0  0  0  0  0  0  0  0  0  0  0  0
   23.6102   71.4966   -3.6709 O   0  0  0  0  0  0  0  0  0  0  0  0
   21.0233   71.5829   -3.1431 O   0  0  0  0  0  0  0  0  0  0  0  0
   20.2681   72.7661   -2.9581 C   0  0  0  0  0  0  0  0  0  0  0  0
   19.5675   72.3230   -5.2143 O   0  0  0  0  0  0  0  0  0  0  0  0
   18.9591   75.2531   -5.4035 O   0  0  0  0  0  0  0  0  0  0  0  0
   16.4947   74.1576   -5.0005 O   0  0  0  0  0  0  0  0  0  0  0  0
   18.8110   74.3693   -4.2919 C   0  0  1  0  0  0  0  0  0  0  0  0
   17.6169   73.4619   -4.4993 C   0  0  2  0  0  0  0  0  0  0  0  0
   19.9698   73.3821   -4.3189 C   0  0  1  0  0  0  0  0  0  0  0  0
   18.1622   72.4436   -5.4860 C   0  0  2  0  0  0  0  0  0  0  0  0
   18.2299   75.8933   -5.4074 H   0  0  0  0  0  0  0  0  0  0  0  0
   16.1850   74.7933   -4.3357 H   0  0  0  0  0  0  0  0  0  0  0  0
   16.2627   71.3720   -7.2805 O   0  0  0  0  0  0  0  0  0  0  0  0
   15.8651   67.4900   -4.8278 O   0  0  0  0  0  0  0  0  0  0  0  0
   17.5462   71.1551   -5.3404 N   0  0  0  0  0  0  0  0  0  0  0  0
   16.0657   69.4400   -6.0566 N   0  0  0  0  0  0  0  0  0  0  0  0
   16.6039   70.7110   -6.2979 C   0  0  0  0  0  0  0  0  0  0  0  0
   17.8777   70.3459   -4.2604 C   0  0  0  0  0  0  0  0  0  0  0  0
   17.3564   69.1367   -4.0439 C   0  0  0  0  0  0  0  0  0  0  0  0
   16.3636   68.5987   -4.9969 C   0  0  0  0  0  0  0  0  0  0  0  0
   15.4059   69.1102   -6.7086 H   0  0  0  0  0  0  0  0  0  0  0  0
   22.5529   70.2938   -1.5922 O   0  0  0  0  0  0  0  0  0  0  0  0
   21.6804   70.0033   -0.2625 P   0  0  2  0  0  0  0  0  0  0  0  0
   22.2456   68.5742    0.2459 O   0  0  0  0  0  0  0  0  0  0  0  0
   20.1954   70.0389   -0.4804 O   0  0  0  0  0  0  0  0  0  0  0  0
   22.2234   71.0656    0.8234 O   0  0  0  0  0  0  0  0  0  0  0  0
   22.3948   70.9505    3.1828 O   0  0  0  0  0  0  0  0  0  0  0  0
   21.5030   74.9419    2.5984 O   0  0  0  0  0  0  0  0  0  0  0  0
   20.1251   72.8760    1.0596 O   0  0  0  0  0  0  0  0  0  0  0  0
   24.2149   74.1352    3.2662 O   0  0  0  0  0  0  0  0  0  0  0  0
   22.0687   73.6720    2.2740 C   0  0  2  0  0  0  0  0  0  0  0  0
   20.9584   72.6247    2.1853 C   0  0  2  0  0  0  0  0  0  0  0  0
   23.0629   73.3015    3.3770 C   0  0  1  0  0  0  0  0  0  0  0  0
   21.5427   71.2163    2.0679 C   0  0  1  0  0  0  0  0  0  0  0  0
   23.5025   71.8446    3.2643 C   0  0  1  0  0  0  0  0  0  0  0  0
   20.8678   75.1981    1.9113 H   0  0  0  0  0  0  0  0  0  0  0  0
   19.7511   73.7681    1.1274 H   0  0  0  0  0  0  0  0  0  0  0  0
   23.9488   75.0654    3.3361 H   0  0  0  0  0  0  0  0  0  0  0  0
   23.5219   70.3888    5.1033 O   0  0  0  0  0  0  0  0  0  0  0  0
   25.2372   71.8821    4.9408 O   0  0  0  0  0  0  0  0  0  0  0  0
   24.1991   71.4029    4.5101 C   0  0  0  0  0  0  0  0  0  0  0  0
  1  4  1  0
  1 24  1  0
  1  2  1  1
  1  3  2  0
 25 28  1  0
 25 24  1  0
 25 26  1  1
 25 27  2  0
  6 11  1  0
  6 12  1  0
 29 36  1  0
 29 37  1  0
  9  7  1  6
  7 13  1  0
 10  8  1  6
  8 14  1  0
  4  5  1  0
 36 28  1  6
 33 30  1  1
 30 38  1  0
 34 31  1  6
 31 39  1  0
 35 32  1  6
 32 40  1  0
 41 43  1  0
 15 19  2  0
 42 43  2  0
 16 22  2  0
 12 17  1  1
 17 19  1  0
 17 20  1  0
 18 19  1  0
 18 22  1  0
 18 23  1  0
  9 10  1  0
  9 11  1  0
 10 12  1  0
 11  5  1  1
 33 34  1  0
 33 35  1  0
 34 36  1  0
 35 37  1  0
 37 43  1  1
 20 21  2  0
 21 22  1  0
M  CHG  3   2  -1  26  -1  41  -1
M  END
>  <COMPND>  (186) 
    udp_gluA.pdb 

>  <AUTHOR>  (186) 
    GENERATED BY OPEN BABEL 3.1.1

>  <MASTER>  (186) 
        0    0    0    0    0    0    0    0   56    0   56    0

>  <minimizedAffinity>  (186) 
-7.82514

>  <CNNscore>  (186) 
0.4026306868

>  <CNNaffinity>  (186) 
4.0637588501

>  <CNN_VS>  (186) 
1.6361939907

>  <CNNaffinity_variance>  (186) 
0.0918447450

$$$$
187
     RDKit          3D

 43 45  0  0  0  0  0  0  0  0999 V2000
   19.8934   71.0292   -1.1205 P   0  0  2  0  0  0  0  0  0  0  0  0
   19.9662   70.3786    0.3594 O   0  0  0  0  0  0  0  0  0  0  0  0
   20.8837   70.4784   -2.1042 O   0  0  0  0  0  0  0  0  0  0  0  0
   19.9838   72.6218   -0.8496 O   0  0  0  0  0  0  0  0  0  0  0  0
   21.2159   73.1642   -0.4110 C   0  0  0  0  0  0  0  0  0  0  0  0
   21.0762   73.0574    1.9863 O   0  0  0  0  0  0  0  0  0  0  0  0
   21.4583   76.0314    1.9552 O   0  0  0  0  0  0  0  0  0  0  0  0
   23.9448   75.1179    2.6027 O   0  0  0  0  0  0  0  0  0  0  0  0
   22.0312   75.0378    1.1048 C   0  0  1  0  0  0  0  0  0  0  0  0
   23.1063   74.2708    1.8451 C   0  0  2  0  0  0  0  0  0  0  0  0
   20.9804   73.9623    0.8650 C   0  0  1  0  0  0  0  0  0  0  0  0
   22.2841   73.3334    2.7130 C   0  0  2  0  0  0  0  0  0  0  0  0
   22.1112   76.7295    2.1227 H   0  0  0  0  0  0  0  0  0  0  0  0
   24.4469   75.6945    2.0050 H   0  0  0  0  0  0  0  0  0  0  0  0
   23.6152   72.7313    5.1301 O   0  0  0  0  0  0  0  0  0  0  0  0
   24.8521   68.5555    3.6211 O   0  0  0  0  0  0  0  0  0  0  0  0
   22.9623   72.0963    2.9785 N   0  0  0  0  0  0  0  0  0  0  0  0
   24.2309   70.6525    4.3758 N   0  0  0  0  0  0  0  0  0  0  0  0
   23.5998   71.8944    4.2255 C   0  0  0  0  0  0  0  0  0  0  0  0
   22.9899   71.0990    2.0113 C   0  0  0  0  0  0  0  0  0  0  0  0
   23.5954   69.9204    2.1692 C   0  0  0  0  0  0  0  0  0  0  0  0
   24.2859   69.6297    3.4428 C   0  0  0  0  0  0  0  0  0  0  0  0
   24.6834   70.4896    5.2349 H   0  0  0  0  0  0  0  0  0  0  0  0
   18.3451   70.8183   -1.5339 O   0  0  0  0  0  0  0  0  0  0  0  0
   17.6758   70.0188   -2.7695 P   0  0  2  0  0  0  0  0  0  0  0  0
   16.1448   70.5445   -2.7643 O   0  0  0  0  0  0  0  0  0  0  0  0
   17.8175   68.5265   -2.6864 O   0  0  0  0  0  0  0  0  0  0  0  0
   18.3292   70.6810   -4.0874 O   0  0  0  0  0  0  0  0  0  0  0  0
   19.3833   72.7954   -4.2525 O   0  0  0  0  0  0  0  0  0  0  0  0
   17.9611   72.2628   -8.0946 O   0  0  0  0  0  0  0  0  0  0  0  0
   16.3104   71.5492   -5.7924 O   0  0  0  0  0  0  0  0  0  0  0  0
   20.7890   71.9066   -7.5230 O   0  0  0  0  0  0  0  0  0  0  0  0
   18.4822   71.8549   -6.8297 C   0  0  2  0  0  0  0  0  0  0  0  0
   17.5250   72.2868   -5.7185 C   0  0  2  0  0  0  0  0  0  0  0  0
   19.8479   72.5200   -6.6441 C   0  0  1  0  0  0  0  0  0  0  0  0
   18.1541   72.0738   -4.3410 C   0  0  1  0  0  0  0  0  0  0  0  0
   20.3499   72.3709   -5.2109 C   0  0  1  0  0  0  0  0  0  0  0  0
   17.0932   71.8524   -8.2346 H   0  0  0  0  0  0  0  0  0  0  0  0
   15.9059   71.6796   -6.6640 H   0  0  0  0  0  0  0  0  0  0  0  0
   20.4812   71.9944   -8.4386 H   0  0  0  0  0  0  0  0  0  0  0  0
   22.6504   72.7624   -5.4481 O   0  0  0  0  0  0  0  0  0  0  0  0
   21.4273   74.3640   -4.3814 O   0  0  0  0  0  0  0  0  0  0  0  0
   21.5017   73.2873   -4.9542 C   0  0  0  0  0  0  0  0  0  0  0  0
  1  4  1  0
  1 24  1  0
  1  2  1  1
  1  3  2  0
 25 28  1  0
 25 24  1  0
 25 26  1  6
 25 27  2  0
  6 11  1  0
  6 12  1  0
 29 36  1  0
 29 37  1  0
  9  7  1  1
  7 13  1  0
 10  8  1  1
  8 14  1  0
  4  5  1  0
 36 28  1  6
 33 30  1  6
 30 38  1  0
 34 31  1  1
 31 39  1  0
 35 32  1  6
 32 40  1  0
 41 43  1  0
 15 19  2  0
 42 43  2  0
 16 22  2  0
 12 17  1  6
 17 19  1  0
 17 20  1  0
 18 19  1  0
 18 22  1  0
 18 23  1  0
  9 10  1  0
  9 11  1  0
 10 12  1  0
 11  5  1  6
 33 34  1  0
 33 35  1  0
 34 36  1  0
 35 37  1  0
 37 43  1  6
 20 21  2  0
 21 22  1  0
M  CHG  3   2  -1  26  -1  41  -1
M  END
>  <COMPND>  (187) 
    udp_gluA.pdb 

>  <AUTHOR>  (187) 
    GENERATED BY OPEN BABEL 3.1.1

>  <MASTER>  (187) 
        0    0    0    0    0    0    0    0   56    0   56    0

>  <minimizedAffinity>  (187) 
-7.21714

>  <CNNscore>  (187) 
0.3518253565

>  <CNNaffinity>  (187) 
3.9680545330

>  <CNN_VS>  (187) 
1.3960622549

>  <CNNaffinity_variance>  (187) 
0.1524507105

$$$$
188
     RDKit          3D

 43 45  0  0  0  0  0  0  0  0999 V2000
   18.5854   73.0136   -1.1530 P   0  0  2  0  0  0  0  0  0  0  0  0
   18.3814   74.5688   -1.5511 O   0  0  0  0  0  0  0  0  0  0  0  0
   18.6099   72.7349    0.3213 O   0  0  0  0  0  0  0  0  0  0  0  0
   19.9084   72.5729   -1.9735 O   0  0  0  0  0  0  0  0  0  0  0  0
   21.1670   73.0486   -1.5329 C   0  0  0  0  0  0  0  0  0  0  0  0
   22.9368   72.0498   -0.2492 O   0  0  0  0  0  0  0  0  0  0  0  0
   22.3320   69.5159   -1.7341 O   0  0  0  0  0  0  0  0  0  0  0  0
   21.0994   69.1098    0.6642 O   0  0  0  0  0  0  0  0  0  0  0  0
   21.4381   70.5318   -1.2789 C   0  0  1  0  0  0  0  0  0  0  0  0
   21.2624   70.4412    0.2222 C   0  0  2  0  0  0  0  0  0  0  0  0
   22.1349   71.8762   -1.4375 C   0  0  1  0  0  0  0  0  0  0  0  0
   22.5481   71.0722    0.7288 C   0  0  2  0  0  0  0  0  0  0  0  0
   21.9088   68.6475   -1.6425 H   0  0  0  0  0  0  0  0  0  0  0  0
   20.2669   68.7530    0.3154 H   0  0  0  0  0  0  0  0  0  0  0  0
   23.5572   70.0879    3.1761 O   0  0  0  0  0  0  0  0  0  0  0  0
   21.8291   73.6525    5.5323 O   0  0  0  0  0  0  0  0  0  0  0  0
   22.3765   71.7230    1.9969 N   0  0  0  0  0  0  0  0  0  0  0  0
   22.6947   71.8637    4.3474 N   0  0  0  0  0  0  0  0  0  0  0  0
   22.9231   71.1447    3.1668 C   0  0  0  0  0  0  0  0  0  0  0  0
   21.6754   72.9204    2.0727 C   0  0  0  0  0  0  0  0  0  0  0  0
   21.4659   73.5942    3.2053 C   0  0  0  0  0  0  0  0  0  0  0  0
   22.0032   73.0577    4.4729 C   0  0  0  0  0  0  0  0  0  0  0  0
   23.0640   71.4797    5.1754 H   0  0  0  0  0  0  0  0  0  0  0  0
   17.3951   72.2737   -1.9584 O   0  0  0  0  0  0  0  0  0  0  0  0
   17.1966   70.7232   -2.3710 P   0  0  2  0  0  0  0  0  0  0  0  0
   15.6072   70.4885   -2.1737 O   0  0  0  0  0  0  0  0  0  0  0  0
   18.0629   69.7662   -1.6045 O   0  0  0  0  0  0  0  0  0  0  0  0
   17.4173   70.6934   -3.9688 O   0  0  0  0  0  0  0  0  0  0  0  0
   17.2894   72.8779   -4.8749 O   0  0  0  0  0  0  0  0  0  0  0  0
   17.6967   70.5770   -8.2820 O   0  0  0  0  0  0  0  0  0  0  0  0
   15.9413   69.7128   -6.1126 O   0  0  0  0  0  0  0  0  0  0  0  0
   19.9556   72.1041   -7.2739 O   0  0  0  0  0  0  0  0  0  0  0  0
   17.8899   70.9187   -6.9094 C   0  0  2  0  0  0  0  0  0  0  0  0
   16.5344   71.0028   -6.2073 C   0  0  2  0  0  0  0  0  0  0  0  0
   18.6026   72.2718   -6.8547 C   0  0  1  0  0  0  0  0  0  0  0  0
   16.6817   71.5876   -4.8019 C   0  0  1  0  0  0  0  0  0  0  0  0
   18.5975   72.8474   -5.4415 C   0  0  1  0  0  0  0  0  0  0  0  0
   17.2452   69.7203   -8.3417 H   0  0  0  0  0  0  0  0  0  0  0  0
   15.8451   69.3357   -7.0008 H   0  0  0  0  0  0  0  0  0  0  0  0
   19.9728   71.7382   -8.1720 H   0  0  0  0  0  0  0  0  0  0  0  0
   18.5927   74.8835   -6.6059 O   0  0  0  0  0  0  0  0  0  0  0  0
   19.5879   74.8608   -4.5545 O   0  0  0  0  0  0  0  0  0  0  0  0
   18.9912   74.2886   -5.4543 C   0  0  0  0  0  0  0  0  0  0  0  0
  1  4  1  0
  1 24  1  0
  1  2  1  1
  1  3  2  0
 25 28  1  0
 25 24  1  0
 25 26  1  6
 25 27  2  0
  6 11  1  0
  6 12  1  0
 29 36  1  0
 29 37  1  0
  9  7  1  1
  7 13  1  0
 10  8  1  6
  8 14  1  0
  4  5  1  0
 36 28  1  1
 33 30  1  6
 30 38  1  0
 34 31  1  1
 31 39  1  0
 35 32  1  1
 32 40  1  0
 41 43  1  0
 15 19  2  0
 42 43  2  0
 16 22  2  0
 12 17  1  1
 17 19  1  0
 17 20  1  0
 18 19  1  0
 18 22  1  0
 18 23  1  0
  9 10  1  0
  9 11  1  0
 10 12  1  0
 11  5  1  1
 33 34  1  0
 33 35  1  0
 34 36  1  0
 35 37  1  0
 37 43  1  6
 20 21  2  0
 21 22  1  0
M  CHG  3   2  -1  26  -1  41  -1
M  END
>  <COMPND>  (188) 
    udp_gluA.pdb 

>  <AUTHOR>  (188) 
    GENERATED BY OPEN BABEL 3.1.1

>  <MASTER>  (188) 
        0    0    0    0    0    0    0    0   56    0   56    0

>  <minimizedAffinity>  (188) 
-7.39004

>  <CNNscore>  (188) 
0.3404132128

>  <CNNaffinity>  (188) 
4.0356774330

>  <CNN_VS>  (188) 
1.3737978935

>  <CNNaffinity_variance>  (188) 
0.2019049823

$$$$
189
     RDKit          3D

 43 45  0  0  0  0  0  0  0  0999 V2000
   17.3855   70.1856   -3.3896 P   0  0  2  0  0  0  0  0  0  0  0  0
   17.8674   68.8223   -2.6629 O   0  0  0  0  0  0  0  0  0  0  0  0
   15.9874   70.6194   -3.0593 O   0  0  0  0  0  0  0  0  0  0  0  0
   17.6863   69.9179   -4.9567 O   0  0  0  0  0  0  0  0  0  0  0  0
   16.6059   69.9653   -5.8703 C   0  0  0  0  0  0  0  0  0  0  0  0
   16.0567   71.5942   -7.5504 O   0  0  0  0  0  0  0  0  0  0  0  0
   18.9706   71.5737   -8.2576 O   0  0  0  0  0  0  0  0  0  0  0  0
   18.7370   73.8401   -6.7593 O   0  0  0  0  0  0  0  0  0  0  0  0
   18.3505   71.4495   -6.9775 C   0  0  1  0  0  0  0  0  0  0  0  0
   17.8216   72.7919   -6.5188 C   0  0  2  0  0  0  0  0  0  0  0  0
   17.0696   70.6451   -7.1522 C   0  0  1  0  0  0  0  0  0  0  0  0
   16.5498   72.9266   -7.3387 C   0  0  2  0  0  0  0  0  0  0  0  0
   19.7915   72.0841   -8.1714 H   0  0  0  0  0  0  0  0  0  0  0  0
   19.5292   73.7090   -6.2140 H   0  0  0  0  0  0  0  0  0  0  0  0
   14.5685   74.4551   -8.6482 O   0  0  0  0  0  0  0  0  0  0  0  0
   12.7351   75.8381   -4.6520 O   0  0  0  0  0  0  0  0  0  0  0  0
   15.5423   73.6958   -6.6649 N   0  0  0  0  0  0  0  0  0  0  0  0
   13.6579   75.1433   -6.6566 N   0  0  0  0  0  0  0  0  0  0  0  0
   14.5935   74.4287   -7.4163 C   0  0  0  0  0  0  0  0  0  0  0  0
   15.4997   73.7177   -5.2761 C   0  0  0  0  0  0  0  0  0  0  0  0
   14.6018   74.4035   -4.5660 C   0  0  0  0  0  0  0  0  0  0  0  0
   13.5758   75.1964   -5.2746 C   0  0  0  0  0  0  0  0  0  0  0  0
   12.9883   75.6629   -7.1577 H   0  0  0  0  0  0  0  0  0  0  0  0
   18.5347   71.2438   -2.9745 O   0  0  0  0  0  0  0  0  0  0  0  0
   19.0112   71.7793   -1.5254 P   0  0  2  0  0  0  0  0  0  0  0  0
   17.8800   71.1958   -0.5252 O   0  0  0  0  0  0  0  0  0  0  0  0
   19.1962   73.2672   -1.4491 O   0  0  0  0  0  0  0  0  0  0  0  0
   20.3351   70.9218   -1.1873 O   0  0  0  0  0  0  0  0  0  0  0  0
   22.2801   71.3501    0.0943 O   0  0  0  0  0  0  0  0  0  0  0  0
   23.8302   69.2554   -3.1116 O   0  0  0  0  0  0  0  0  0  0  0  0
   21.7882   71.3026   -3.5282 O   0  0  0  0  0  0  0  0  0  0  0  0
   23.5145   67.9521   -0.5323 O   0  0  0  0  0  0  0  0  0  0  0  0
   22.8446   69.6140   -2.1430 C   0  0  2  0  0  0  0  0  0  0  0  0
   22.4822   71.0905   -2.3042 C   0  0  2  0  0  0  0  0  0  0  0  0
   23.4325   69.3589   -0.7533 C   0  0  1  0  0  0  0  0  0  0  0  0
   21.6059   71.5684   -1.1455 C   0  0  1  0  0  0  0  0  0  0  0  0
   22.5646   69.9747    0.3403 C   0  0  1  0  0  0  0  0  0  0  0  0
   23.4789   69.4092   -4.0028 H   0  0  0  0  0  0  0  0  0  0  0  0
   22.3383   71.0013   -4.2677 H   0  0  0  0  0  0  0  0  0  0  0  0
   24.0641   67.5480   -1.2217 H   0  0  0  0  0  0  0  0  0  0  0  0
   23.2565   71.2555    2.1794 O   0  0  0  0  0  0  0  0  0  0  0  0
   23.8577   69.0561    2.1584 O   0  0  0  0  0  0  0  0  0  0  0  0
   23.2977   70.0113    1.6416 C   0  0  0  0  0  0  0  0  0  0  0  0
  1  4  1  0
  1 24  1  0
  1  2  1  1
  1  3  2  0
 25 28  1  0
 25 24  1  0
 25 26  1  1
 25 27  2  0
  6 11  1  0
  6 12  1  0
 29 36  1  0
 29 37  1  0
  9  7  1  6
  7 13  1  0
 10  8  1  6
  8 14  1  0
  4  5  1  0
 36 28  1  1
 33 30  1  6
 30 38  1  0
 34 31  1  6
 31 39  1  0
 35 32  1  1
 32 40  1  0
 41 43  1  0
 15 19  2  0
 42 43  2  0
 16 22  2  0
 12 17  1  1
 17 19  1  0
 17 20  1  0
 18 19  1  0
 18 22  1  0
 18 23  1  0
  9 10  1  0
  9 11  1  0
 10 12  1  0
 11  5  1  1
 33 34  1  0
 33 35  1  0
 34 36  1  0
 35 37  1  0
 37 43  1  1
 20 21  2  0
 21 22  1  0
M  CHG  3   2  -1  26  -1  41  -1
M  END
>  <COMPND>  (189) 
    udp_gluA.pdb 

>  <AUTHOR>  (189) 
    GENERATED BY OPEN BABEL 3.1.1

>  <MASTER>  (189) 
        0    0    0    0    0    0    0    0   56    0   56    0

>  <minimizedAffinity>  (189) 
-7.55681

>  <CNNscore>  (189) 
0.3382701278

>  <CNNaffinity>  (189) 
3.9270088673

>  <CNN_VS>  (189) 
1.3283897638

>  <CNNaffinity_variance>  (189) 
0.3030117154

$$$$
190
     RDKit          3D

 43 45  0  0  0  0  0  0  0  0999 V2000
   23.0267   72.3678   -3.5405 P   0  0  2  0  0  0  0  0  0  0  0  0
   23.6467   70.8748   -3.4692 O   0  0  0  0  0  0  0  0  0  0  0  0
   24.0356   73.4654   -3.7108 O   0  0  0  0  0  0  0  0  0  0  0  0
   22.0977   72.4662   -2.2195 O   0  0  0  0  0  0  0  0  0  0  0  0
   22.7096   72.3251   -0.9506 C   0  0  0  0  0  0  0  0  0  0  0  0
   22.9544   70.8217    0.9089 O   0  0  0  0  0  0  0  0  0  0  0  0
   20.1559   69.9250    0.3127 O   0  0  0  0  0  0  0  0  0  0  0  0
   19.8034   71.6134    2.4249 O   0  0  0  0  0  0  0  0  0  0  0  0
   20.7283   71.2289    0.2093 C   0  0  1  0  0  0  0  0  0  0  0  0
   20.9194   71.8282    1.5864 C   0  0  2  0  0  0  0  0  0  0  0  0
   22.1642   71.0746   -0.2731 C   0  0  1  0  0  0  0  0  0  0  0  0
   22.1645   71.1073    2.0741 C   0  0  2  0  0  0  0  0  0  0  0  0
   19.2381   69.9978    0.6194 H   0  0  0  0  0  0  0  0  0  0  0  0
   19.0369   72.0929    2.0721 H   0  0  0  0  0  0  0  0  0  0  0  0
   23.6934   70.0668    4.2087 O   0  0  0  0  0  0  0  0  0  0  0  0
   25.1028   74.2651    5.4862 O   0  0  0  0  0  0  0  0  0  0  0  0
   22.9406   71.9059    2.9801 N   0  0  0  0  0  0  0  0  0  0  0  0
   24.3931   72.1589    4.8436 N   0  0  0  0  0  0  0  0  0  0  0  0
   23.6728   71.2844    4.0192 C   0  0  0  0  0  0  0  0  0  0  0  0
   22.9727   73.2874    2.8338 C   0  0  0  0  0  0  0  0  0  0  0  0
   23.6640   74.1078    3.6275 C   0  0  0  0  0  0  0  0  0  0  0  0
   24.4553   73.5389    4.7381 C   0  0  0  0  0  0  0  0  0  0  0  0
   24.9091   71.7495    5.5754 H   0  0  0  0  0  0  0  0  0  0  0  0
   21.9459   72.2551   -4.7372 O   0  0  0  0  0  0  0  0  0  0  0  0
   21.1147   73.3945   -5.5276 P   0  0  2  0  0  0  0  0  0  0  0  0
   21.8650   73.4730   -6.9598 O   0  0  0  0  0  0  0  0  0  0  0  0
   21.0263   74.7064   -4.8030 O   0  0  0  0  0  0  0  0  0  0  0  0
   19.6897   72.7111   -5.8513 O   0  0  0  0  0  0  0  0  0  0  0  0
   19.3235   70.5203   -5.0295 O   0  0  0  0  0  0  0  0  0  0  0  0
   16.2220   70.9356   -7.7269 O   0  0  0  0  0  0  0  0  0  0  0  0
   18.9002   71.8954   -8.3905 O   0  0  0  0  0  0  0  0  0  0  0  0
   15.7070   71.1190   -4.8718 O   0  0  0  0  0  0  0  0  0  0  0  0
   17.1781   71.3759   -6.7625 C   0  0  2  0  0  0  0  0  0  0  0  0
   18.5897   71.0776   -7.2682 C   0  0  2  0  0  0  0  0  0  0  0  0
   16.9113   70.6258   -5.4556 C   0  0  1  0  0  0  0  0  0  0  0  0
   19.6269   71.3225   -6.1714 C   0  0  1  0  0  0  0  0  0  0  0  0
   18.0511   70.8193   -4.4596 C   0  0  1  0  0  0  0  0  0  0  0  0
   16.3721   71.3989   -8.5661 H   0  0  0  0  0  0  0  0  0  0  0  0
   18.2459   71.7453   -9.0903 H   0  0  0  0  0  0  0  0  0  0  0  0
   14.9736   71.0020   -5.4957 H   0  0  0  0  0  0  0  0  0  0  0  0
   17.0485   68.8667   -3.6327 O   0  0  0  0  0  0  0  0  0  0  0  0
   18.5826   69.8948   -2.2953 O   0  0  0  0  0  0  0  0  0  0  0  0
   17.9473   69.8383   -3.3375 C   0  0  0  0  0  0  0  0  0  0  0  0
  1  4  1  0
  1 24  1  0
  1  2  1  1
  1  3  2  0
 25 28  1  0
 25 24  1  0
 25 26  1  6
 25 27  2  0
  6 11  1  0
  6 12  1  0
 29 36  1  0
 29 37  1  0
  9  7  1  1
  7 13  1  0
 10  8  1  1
  8 14  1  0
  4  5  1  0
 36 28  1  1
 33 30  1  6
 30 38  1  0
 34 31  1  6
 31 39  1  0
 35 32  1  1
 32 40  1  0
 41 43  1  0
 15 19  2  0
 42 43  2  0
 16 22  2  0
 12 17  1  1
 17 19  1  0
 17 20  1  0
 18 19  1  0
 18 22  1  0
 18 23  1  0
  9 10  1  0
  9 11  1  0
 10 12  1  0
 11  5  1  1
 33 34  1  0
 33 35  1  0
 34 36  1  0
 35 37  1  0
 37 43  1  1
 20 21  2  0
 21 22  1  0
M  CHG  3   2  -1  26  -1  41  -1
M  END
>  <COMPND>  (190) 
    udp_gluA.pdb 

>  <AUTHOR>  (190) 
    GENERATED BY OPEN BABEL 3.1.1

>  <MASTER>  (190) 
        0    0    0    0    0    0    0    0   56    0   56    0

>  <minimizedAffinity>  (190) 
-8.29815

>  <CNNscore>  (190) 
0.3250148892

>  <CNNaffinity>  (190) 
3.8463149071

>  <CNN_VS>  (190) 
1.2501096725

>  <CNNaffinity_variance>  (190) 
0.3725459874

$$$$
191
     RDKit          3D

 43 45  0  0  0  0  0  0  0  0999 V2000
   16.4932   73.2107   -2.3026 P   0  0  2  0  0  0  0  0  0  0  0  0
   15.2591   72.6647   -3.1958 O   0  0  0  0  0  0  0  0  0  0  0  0
   16.0968   73.9282   -1.0457 O   0  0  0  0  0  0  0  0  0  0  0  0
   17.3819   74.0664   -3.3495 O   0  0  0  0  0  0  0  0  0  0  0  0
   16.7227   74.7261   -4.4148 C   0  0  0  0  0  0  0  0  0  0  0  0
   18.3826   73.3763   -5.5105 O   0  0  0  0  0  0  0  0  0  0  0  0
   17.3777   74.5548   -8.0781 O   0  0  0  0  0  0  0  0  0  0  0  0
   16.1895   72.1007   -8.0437 O   0  0  0  0  0  0  0  0  0  0  0  0
   16.6508   74.1975   -6.9023 C   0  0  1  0  0  0  0  0  0  0  0  0
   16.5195   72.6924   -6.8045 C   0  0  2  0  0  0  0  0  0  0  0  0
   17.5213   74.5205   -5.6956 C   0  0  1  0  0  0  0  0  0  0  0  0
   17.8981   72.2869   -6.3116 C   0  0  2  0  0  0  0  0  0  0  0  0
   16.8416   74.3576   -8.8626 H   0  0  0  0  0  0  0  0  0  0  0  0
   15.3033   72.3896   -8.3141 H   0  0  0  0  0  0  0  0  0  0  0  0
   20.1728   71.0861   -5.1453 O   0  0  0  0  0  0  0  0  0  0  0  0
   17.6534   67.7209   -3.2555 O   0  0  0  0  0  0  0  0  0  0  0  0
   17.8652   71.0964   -5.5099 N   0  0  0  0  0  0  0  0  0  0  0  0
   18.9160   69.4107   -4.2060 N   0  0  0  0  0  0  0  0  0  0  0  0
   19.0650   70.5750   -4.9709 C   0  0  0  0  0  0  0  0  0  0  0  0
   16.6550   70.4594   -5.2635 C   0  0  0  0  0  0  0  0  0  0  0  0
   16.5287   69.3503   -4.5324 C   0  0  0  0  0  0  0  0  0  0  0  0
   17.7343   68.7406   -3.9337 C   0  0  0  0  0  0  0  0  0  0  0  0
   19.7377   69.0278   -3.8219 H   0  0  0  0  0  0  0  0  0  0  0  0
   17.3860   71.8839   -2.0675 O   0  0  0  0  0  0  0  0  0  0  0  0
   18.6548   71.6156   -1.1022 P   0  0  2  0  0  0  0  0  0  0  0  0
   18.7412   70.0002   -1.0454 O   0  0  0  0  0  0  0  0  0  0  0  0
   18.5568   72.2773    0.2418 O   0  0  0  0  0  0  0  0  0  0  0  0
   19.9355   72.0613   -1.9762 O   0  0  0  0  0  0  0  0  0  0  0  0
   21.6701   71.4255   -0.4944 O   0  0  0  0  0  0  0  0  0  0  0  0
   23.7597   72.1039   -3.9931 O   0  0  0  0  0  0  0  0  0  0  0  0
   21.6272   73.9211   -3.1658 O   0  0  0  0  0  0  0  0  0  0  0  0
   23.2377   69.3841   -3.1093 O   0  0  0  0  0  0  0  0  0  0  0  0
   22.6385   71.7160   -3.1993 C   0  0  2  0  0  0  0  0  0  0  0  0
   22.1820   72.8994   -2.3455 C   0  0  2  0  0  0  0  0  0  0  0  0
   23.0716   70.5512   -2.3063 C   0  0  1  0  0  0  0  0  0  0  0  0
   21.1363   72.4622   -1.3189 C   0  0  1  0  0  0  0  0  0  0  0  0
   22.0311   70.2581   -1.2292 C   0  0  1  0  0  0  0  0  0  0  0  0
   23.5082   72.8431   -4.5689 H   0  0  0  0  0  0  0  0  0  0  0  0
   22.2853   74.2031   -3.8199 H   0  0  0  0  0  0  0  0  0  0  0  0
   23.8974   69.5574   -3.7990 H   0  0  0  0  0  0  0  0  0  0  0  0
   21.6235   68.9538    0.6771 O   0  0  0  0  0  0  0  0  0  0  0  0
   23.7689   69.0308   -0.0913 O   0  0  0  0  0  0  0  0  0  0  0  0
   22.5954   69.3603   -0.1768 C   0  0  0  0  0  0  0  0  0  0  0  0
  1  4  1  0
  1 24  1  0
  1  2  1  6
  1  3  2  0
 25 28  1  0
 25 24  1  0
 25 26  1  1
 25 27  2  0
  6 11  1  0
  6 12  1  0
 29 36  1  0
 29 37  1  0
  9  7  1  6
  7 13  1  0
 10  8  1  6
  8 14  1  0
  4  5  1  0
 36 28  1  6
 33 30  1  1
 30 38  1  0
 34 31  1  6
 31 39  1  0
 35 32  1  6
 32 40  1  0
 41 43  1  0
 15 19  2  0
 42 43  2  0
 16 22  2  0
 12 17  1  1
 17 19  1  0
 17 20  1  0
 18 19  1  0
 18 22  1  0
 18 23  1  0
  9 10  1  0
  9 11  1  0
 10 12  1  0
 11  5  1  1
 33 34  1  0
 33 35  1  0
 34 36  1  0
 35 37  1  0
 37 43  1  1
 20 21  2  0
 21 22  1  0
M  CHG  3   2  -1  26  -1  41  -1
M  END
>  <COMPND>  (191) 
    udp_gluA.pdb 

>  <AUTHOR>  (191) 
    GENERATED BY OPEN BABEL 3.1.1

>  <MASTER>  (191) 
        0    0    0    0    0    0    0    0   56    0   56    0

>  <minimizedAffinity>  (191) 
-7.39646

>  <CNNscore>  (191) 
0.3102803528

>  <CNNaffinity>  (191) 
3.7141833305

>  <CNN_VS>  (191) 
1.1524381638

>  <CNNaffinity_variance>  (191) 
0.9546892047

$$$$
192
     RDKit          3D

 43 45  0  0  0  0  0  0  0  0999 V2000
   18.6082   75.4153   -0.8982 P   0  0  2  0  0  0  0  0  0  0  0  0
   18.9077   76.8444   -1.5959 O   0  0  0  0  0  0  0  0  0  0  0  0
   17.6784   75.4672    0.2784 O   0  0  0  0  0  0  0  0  0  0  0  0
   20.0799   74.8103   -0.6047 O   0  0  0  0  0  0  0  0  0  0  0  0
   20.1818   73.6147    0.1468 C   0  0  0  0  0  0  0  0  0  0  0  0
   22.2496   72.4208   -0.1299 O   0  0  0  0  0  0  0  0  0  0  0  0
   20.6848   70.4664   -1.7802 O   0  0  0  0  0  0  0  0  0  0  0  0
   20.8964   69.1860    0.6182 O   0  0  0  0  0  0  0  0  0  0  0  0
   20.2850   71.1899   -0.6160 C   0  0  1  0  0  0  0  0  0  0  0  0
   20.9335   70.5978    0.6174 C   0  0  2  0  0  0  0  0  0  0  0  0
   20.9226   72.5711   -0.6793 C   0  0  1  0  0  0  0  0  0  0  0  0
   22.3474   71.1456    0.5241 C   0  0  2  0  0  0  0  0  0  0  0  0
   20.2897   69.5803   -1.7621 H   0  0  0  0  0  0  0  0  0  0  0  0
   19.9751   68.8869    0.6793 H   0  0  0  0  0  0  0  0  0  0  0  0
   23.7393   69.1312    1.9318 O   0  0  0  0  0  0  0  0  0  0  0  0
   24.6218   71.9556    5.4656 O   0  0  0  0  0  0  0  0  0  0  0  0
   22.9509   71.3274    1.8139 N   0  0  0  0  0  0  0  0  0  0  0  0
   24.1766   70.5396    3.6909 N   0  0  0  0  0  0  0  0  0  0  0  0
   23.6270   70.2507    2.4349 C   0  0  0  0  0  0  0  0  0  0  0  0
   22.8714   72.5607    2.4492 C   0  0  0  0  0  0  0  0  0  0  0  0
   23.4003   72.8209    3.6464 C   0  0  0  0  0  0  0  0  0  0  0  0
   24.1230   71.7498    4.3633 C   0  0  0  0  0  0  0  0  0  0  0  0
   24.6505   69.8050    4.1438 H   0  0  0  0  0  0  0  0  0  0  0  0
   18.0834   74.5121   -2.1318 O   0  0  0  0  0  0  0  0  0  0  0  0
   18.4648   74.5364   -3.7027 P   0  0  2  0  0  0  0  0  0  0  0  0
   20.0774   74.3951   -3.6940 O   0  0  0  0  0  0  0  0  0  0  0  0
   17.9534   75.7387   -4.4420 O   0  0  0  0  0  0  0  0  0  0  0  0
   17.9354   73.1237   -4.2742 O   0  0  0  0  0  0  0  0  0  0  0  0
   18.8200   70.9397   -4.0360 O   0  0  0  0  0  0  0  0  0  0  0  0
   17.1600   70.7668   -7.8152 O   0  0  0  0  0  0  0  0  0  0  0  0
   18.6548   73.1270   -6.9610 O   0  0  0  0  0  0  0  0  0  0  0  0
   15.8195   69.4916   -5.5730 O   0  0  0  0  0  0  0  0  0  0  0  0
   17.2707   71.1986   -6.4591 C   0  0  2  0  0  0  0  0  0  0  0  0
   18.6164   71.8941   -6.2516 C   0  0  2  0  0  0  0  0  0  0  0  0
   17.1650   69.9649   -5.5598 C   0  0  1  0  0  0  0  0  0  0  0  0
   18.8692   72.1651   -4.7679 C   0  0  1  0  0  0  0  0  0  0  0  0
   17.5538   70.2897   -4.1204 C   0  0  1  0  0  0  0  0  0  0  0  0
   17.2245   71.5342   -8.4054 H   0  0  0  0  0  0  0  0  0  0  0  0
   18.4948   72.9625   -7.9032 H   0  0  0  0  0  0  0  0  0  0  0  0
   15.5596   69.2814   -6.4835 H   0  0  0  0  0  0  0  0  0  0  0  0
   17.7941   69.3072   -2.0041 O   0  0  0  0  0  0  0  0  0  0  0  0
   17.8953   67.9212   -3.8119 O   0  0  0  0  0  0  0  0  0  0  0  0
   17.7661   69.0379   -3.3329 C   0  0  0  0  0  0  0  0  0  0  0  0
  1  4  1  0
  1 24  1  0
  1  2  1  6
  1  3  2  0
 25 28  1  0
 25 24  1  0
 25 26  1  1
 25 27  2  0
  6 11  1  0
  6 12  1  0
 29 36  1  0
 29 37  1  0
  9  7  1  6
  7 13  1  0
 10  8  1  6
  8 14  1  0
  4  5  1  0
 36 28  1  1
 33 30  1  6
 30 38  1  0
 34 31  1  6
 31 39  1  0
 35 32  1  1
 32 40  1  0
 41 43  1  0
 15 19  2  0
 42 43  2  0
 16 22  2  0
 12 17  1  1
 17 19  1  0
 17 20  1  0
 18 19  1  0
 18 22  1  0
 18 23  1  0
  9 10  1  0
  9 11  1  0
 10 12  1  0
 11  5  1  1
 33 34  1  0
 33 35  1  0
 34 36  1  0
 35 37  1  0
 37 43  1  1
 20 21  2  0
 21 22  1  0
M  CHG  3   2  -1  26  -1  41  -1
M  END
>  <COMPND>  (192) 
    udp_gluA.pdb 

>  <AUTHOR>  (192) 
    GENERATED BY OPEN BABEL 3.1.1

>  <MASTER>  (192) 
        0    0    0    0    0    0    0    0   56    0   56    0

>  <minimizedAffinity>  (192) 
-7.58599

>  <CNNscore>  (192) 
0.3020890951

>  <CNNaffinity>  (192) 
3.8439717293

>  <CNN_VS>  (192) 
1.1612219810

>  <CNNaffinity_variance>  (192) 
0.3846290410

$$$$
193
     RDKit          3D

 43 45  0  0  0  0  0  0  0  0999 V2000
   23.1007   72.8883   -3.6022 P   0  0  2  0  0  0  0  0  0  0  0  0
   23.4204   71.3202   -3.8421 O   0  0  0  0  0  0  0  0  0  0  0  0
   24.2147   73.8251   -3.9671 O   0  0  0  0  0  0  0  0  0  0  0  0
   22.6043   72.9526   -2.0635 O   0  0  0  0  0  0  0  0  0  0  0  0
   21.3298   73.5036   -1.7868 C   0  0  0  0  0  0  0  0  0  0  0  0
   20.9998   71.2080   -1.1552 O   0  0  0  0  0  0  0  0  0  0  0  0
   18.0758   71.8590   -1.0219 O   0  0  0  0  0  0  0  0  0  0  0  0
   18.8171   71.9070    1.6019 O   0  0  0  0  0  0  0  0  0  0  0  0
   19.1987   72.6697   -0.6751 C   0  0  1  0  0  0  0  0  0  0  0  0
   19.8010   72.1994    0.6319 C   0  0  2  0  0  0  0  0  0  0  0  0
   20.3161   72.3730   -1.6658 C   0  0  1  0  0  0  0  0  0  0  0  0
   20.5771   70.9681    0.1966 C   0  0  2  0  0  0  0  0  0  0  0  0
   17.3488   72.0312   -0.4026 H   0  0  0  0  0  0  0  0  0  0  0  0
   18.3514   72.7227    1.8462 H   0  0  0  0  0  0  0  0  0  0  0  0
   22.0995   68.5896    0.1573 O   0  0  0  0  0  0  0  0  0  0  0  0
   24.9973   70.1754    3.3716 O   0  0  0  0  0  0  0  0  0  0  0  0
   21.7344   70.7328    1.0128 N   0  0  0  0  0  0  0  0  0  0  0  0
   23.5407   69.3813    1.7590 N   0  0  0  0  0  0  0  0  0  0  0  0
   22.4278   69.5032    0.9166 C   0  0  0  0  0  0  0  0  0  0  0  0
   22.1722   71.7134    1.8946 C   0  0  0  0  0  0  0  0  0  0  0  0
   23.2348   71.5828    2.6911 C   0  0  0  0  0  0  0  0  0  0  0  0
   24.0144   70.3281    2.6527 C   0  0  0  0  0  0  0  0  0  0  0  0
   24.0384   68.5331    1.7112 H   0  0  0  0  0  0  0  0  0  0  0  0
   21.7333   73.1114   -4.4348 O   0  0  0  0  0  0  0  0  0  0  0  0
   21.4848   73.5872   -5.9598 P   0  0  2  0  0  0  0  0  0  0  0  0
   22.7171   72.9118   -6.7634 O   0  0  0  0  0  0  0  0  0  0  0  0
   21.3762   75.0748   -6.1308 O   0  0  0  0  0  0  0  0  0  0  0  0
   20.1846   72.7614   -6.4394 O   0  0  0  0  0  0  0  0  0  0  0  0
   19.1928   70.7826   -5.5970 O   0  0  0  0  0  0  0  0  0  0  0  0
   18.4886   70.4156   -9.6513 O   0  0  0  0  0  0  0  0  0  0  0  0
   21.0726   71.3689   -8.6774 O   0  0  0  0  0  0  0  0  0  0  0  0
   16.3317   71.1817   -7.8591 O   0  0  0  0  0  0  0  0  0  0  0  0
   18.6741   71.1113   -8.4185 C   0  0  2  0  0  0  0  0  0  0  0  0
   20.0608   70.7964   -7.8569 C   0  0  2  0  0  0  0  0  0  0  0  0
   17.5879   70.6474   -7.4456 C   0  0  1  0  0  0  0  0  0  0  0  0
   20.2099   71.3352   -6.4334 C   0  0  1  0  0  0  0  0  0  0  0  0
   17.8748   71.1205   -6.0234 C   0  0  1  0  0  0  0  0  0  0  0  0
   19.1679   70.6943  -10.2854 H   0  0  0  0  0  0  0  0  0  0  0  0
   20.9839   71.0316   -9.5822 H   0  0  0  0  0  0  0  0  0  0  0  0
   16.1372   70.8882   -8.7629 H   0  0  0  0  0  0  0  0  0  0  0  0
   17.0805   70.9892   -3.8204 O   0  0  0  0  0  0  0  0  0  0  0  0
   16.3268   69.4200   -5.2931 O   0  0  0  0  0  0  0  0  0  0  0  0
   17.0094   70.4014   -5.0404 C   0  0  0  0  0  0  0  0  0  0  0  0
  1  4  1  0
  1 24  1  0
  1  2  1  6
  1  3  2  0
 25 28  1  0
 25 24  1  0
 25 26  1  6
 25 27  2  0
  6 11  1  0
  6 12  1  0
 29 36  1  0
 29 37  1  0
  9  7  1  6
  7 13  1  0
 10  8  1  1
  8 14  1  0
  4  5  1  0
 36 28  1  6
 33 30  1  6
 30 38  1  0
 34 31  1  6
 31 39  1  0
 35 32  1  6
 32 40  1  0
 41 43  1  0
 15 19  2  0
 42 43  2  0
 16 22  2  0
 12 17  1  1
 17 19  1  0
 17 20  1  0
 18 19  1  0
 18 22  1  0
 18 23  1  0
  9 10  1  0
  9 11  1  0
 10 12  1  0
 11  5  1  1
 33 34  1  0
 33 35  1  0
 34 36  1  0
 35 37  1  0
 37 43  1  1
 20 21  2  0
 21 22  1  0
M  CHG  3   2  -1  26  -1  41  -1
M  END
>  <COMPND>  (193) 
    udp_gluA.pdb 

>  <AUTHOR>  (193) 
    GENERATED BY OPEN BABEL 3.1.1

>  <MASTER>  (193) 
        0    0    0    0    0    0    0    0   56    0   56    0

>  <minimizedAffinity>  (193) 
-8.22991

>  <CNNscore>  (193) 
0.2971795201

>  <CNNaffinity>  (193) 
4.0325851440

>  <CNN_VS>  (193) 
1.1984016895

>  <CNNaffinity_variance>  (193) 
0.2847400308

$$$$
194
     RDKit          3D

 43 45  0  0  0  0  0  0  0  0999 V2000
   20.8323   71.2941   -0.2837 P   0  0  2  0  0  0  0  0  0  0  0  0
   19.9055   69.9678   -0.2534 O   0  0  0  0  0  0  0  0  0  0  0  0
   22.2237   71.1069    0.2460 O   0  0  0  0  0  0  0  0  0  0  0  0
   19.9373   72.4108    0.4712 O   0  0  0  0  0  0  0  0  0  0  0  0
   19.7080   72.2672    1.8609 C   0  0  0  0  0  0  0  0  0  0  0  0
   20.2587   73.6883    3.7195 O   0  0  0  0  0  0  0  0  0  0  0  0
   19.4138   75.9790    1.9787 O   0  0  0  0  0  0  0  0  0  0  0  0
   22.1336   76.0697    1.8043 O   0  0  0  0  0  0  0  0  0  0  0  0
   20.0859   74.7715    1.6201 C   0  0  1  0  0  0  0  0  0  0  0  0
   21.5300   74.8213    2.0722 C   0  0  2  0  0  0  0  0  0  0  0  0
   19.5220   73.6473    2.4782 C   0  0  1  0  0  0  0  0  0  0  0  0
   21.4047   74.5396    3.5598 C   0  0  2  0  0  0  0  0  0  0  0  0
   19.7573   76.7119    1.4435 H   0  0  0  0  0  0  0  0  0  0  0  0
   22.1907   76.2019    0.8445 H   0  0  0  0  0  0  0  0  0  0  0  0
   23.2890   75.7425    5.2857 O   0  0  0  0  0  0  0  0  0  0  0  0
   25.7977   71.8838    5.5336 O   0  0  0  0  0  0  0  0  0  0  0  0
   22.5596   73.8723    4.0903 N   0  0  0  0  0  0  0  0  0  0  0  0
   24.5372   73.8198    5.4067 N   0  0  0  0  0  0  0  0  0  0  0  0
   23.4440   74.5671    4.9490 C   0  0  0  0  0  0  0  0  0  0  0  0
   22.8061   72.5449    3.7611 C   0  0  0  0  0  0  0  0  0  0  0  0
   23.8523   71.8458    4.2053 C   0  0  0  0  0  0  0  0  0  0  0  0
   24.8248   72.4982    5.1065 C   0  0  0  0  0  0  0  0  0  0  0  0
   25.1679   74.2828    6.0043 H   0  0  0  0  0  0  0  0  0  0  0  0
   20.7572   71.7538   -1.8316 O   0  0  0  0  0  0  0  0  0  0  0  0
   21.0648   70.9427   -3.1959 P   0  0  2  0  0  0  0  0  0  0  0  0
   22.0036   69.7221   -2.6968 O   0  0  0  0  0  0  0  0  0  0  0  0
   21.6667   71.7794   -4.2874 O   0  0  0  0  0  0  0  0  0  0  0  0
   19.6622   70.2458   -3.5827 O   0  0  0  0  0  0  0  0  0  0  0  0
   18.0759   71.8687   -4.2601 O   0  0  0  0  0  0  0  0  0  0  0  0
   15.8164   68.4105   -4.3151 O   0  0  0  0  0  0  0  0  0  0  0  0
   17.6929   68.9188   -2.1346 O   0  0  0  0  0  0  0  0  0  0  0  0
   16.7412   69.5891   -6.8064 O   0  0  0  0  0  0  0  0  0  0  0  0
   17.0025   69.1943   -4.4440 C   0  0  2  0  0  0  0  0  0  0  0  0
   17.3106   69.8793   -3.1123 C   0  0  2  0  0  0  0  0  0  0  0  0
   16.7629   70.2386   -5.5367 C   0  0  1  0  0  0  0  0  0  0  0  0
   18.4353   70.9033   -3.2710 C   0  0  1  0  0  0  0  0  0  0  0  0
   17.8635   71.2955   -5.5483 C   0  0  1  0  0  0  0  0  0  0  0  0
   15.9451   67.7398   -3.6260 H   0  0  0  0  0  0  0  0  0  0  0  0
   16.9839   68.2657   -2.0290 H   0  0  0  0  0  0  0  0  0  0  0  0
   16.0450   68.9137   -6.8123 H   0  0  0  0  0  0  0  0  0  0  0  0
   18.4825   73.3574   -6.4795 O   0  0  0  0  0  0  0  0  0  0  0  0
   16.3645   72.6221   -6.8954 O   0  0  0  0  0  0  0  0  0  0  0  0
   17.4605   72.4719   -6.3766 C   0  0  0  0  0  0  0  0  0  0  0  0
  1  4  1  0
  1 24  1  0
  1  2  1  6
  1  3  2  0
 25 28  1  0
 25 24  1  0
 25 26  1  1
 25 27  2  0
  6 11  1  0
  6 12  1  0
 29 36  1  0
 29 37  1  0
  9  7  1  1
  7 13  1  0
 10  8  1  1
  8 14  1  0
  4  5  1  0
 36 28  1  6
 33 30  1  1
 30 38  1  0
 34 31  1  1
 31 39  1  0
 35 32  1  6
 32 40  1  0
 41 43  1  0
 15 19  2  0
 42 43  2  0
 16 22  2  0
 12 17  1  6
 17 19  1  0
 17 20  1  0
 18 19  1  0
 18 22  1  0
 18 23  1  0
  9 10  1  0
  9 11  1  0
 10 12  1  0
 11  5  1  6
 33 34  1  0
 33 35  1  0
 34 36  1  0
 35 37  1  0
 37 43  1  6
 20 21  2  0
 21 22  1  0
M  CHG  3   2  -1  26  -1  41  -1
M  END
>  <COMPND>  (194) 
    udp_gluA.pdb 

>  <AUTHOR>  (194) 
    GENERATED BY OPEN BABEL 3.1.1

>  <MASTER>  (194) 
        0    0    0    0    0    0    0    0   56    0   56    0

>  <minimizedAffinity>  (194) 
-6.68199

>  <CNNscore>  (194) 
0.2954070866

>  <CNNaffinity>  (194) 
3.9474048615

>  <CNN_VS>  (194) 
1.1660913229

>  <CNNaffinity_variance>  (194) 
0.0726046711

$$$$
195
     RDKit          3D

 43 45  0  0  0  0  0  0  0  0999 V2000
   20.6975   70.7219    0.2800 P   0  0  2  0  0  0  0  0  0  0  0  0
   19.6927   71.4702    1.3044 O   0  0  0  0  0  0  0  0  0  0  0  0
   20.9596   69.2776    0.5913 O   0  0  0  0  0  0  0  0  0  0  0  0
   22.0004   71.6806    0.2440 O   0  0  0  0  0  0  0  0  0  0  0  0
   22.0650   72.7680    1.1483 C   0  0  0  0  0  0  0  0  0  0  0  0
   23.7026   73.4427    2.7734 O   0  0  0  0  0  0  0  0  0  0  0  0
   22.6969   71.1728    4.4550 O   0  0  0  0  0  0  0  0  0  0  0  0
   21.4801   73.3359    5.5847 O   0  0  0  0  0  0  0  0  0  0  0  0
   21.9726   72.0430    3.5852 C   0  0  1  0  0  0  0  0  0  0  0  0
   21.8242   73.4109    4.2170 C   0  0  2  0  0  0  0  0  0  0  0  0
   22.8537   72.3426    2.3801 C   0  0  1  0  0  0  0  0  0  0  0  0
   23.2007   74.0131    3.9924 C   0  0  2  0  0  0  0  0  0  0  0  0
   22.1540   70.9671    5.2326 H   0  0  0  0  0  0  0  0  0  0  0  0
   20.5958   72.9462    5.6748 H   0  0  0  0  0  0  0  0  0  0  0  0
   23.3433   75.8253    6.1539 O   0  0  0  0  0  0  0  0  0  0  0  0
   23.0287   79.4730    3.3540 O   0  0  0  0  0  0  0  0  0  0  0  0
   23.1584   75.4416    3.8567 N   0  0  0  0  0  0  0  0  0  0  0  0
   23.1855   77.6403    4.7574 N   0  0  0  0  0  0  0  0  0  0  0  0
   23.2371   76.2625    5.0065 C   0  0  0  0  0  0  0  0  0  0  0  0
   23.0418   76.0154    2.5965 C   0  0  0  0  0  0  0  0  0  0  0  0
   22.9939   77.3305    2.3749 C   0  0  0  0  0  0  0  0  0  0  0  0
   23.0694   78.2580    3.5227 C   0  0  0  0  0  0  0  0  0  0  0  0
   23.2365   78.2320    5.5426 H   0  0  0  0  0  0  0  0  0  0  0  0
   20.0115   70.9868   -1.1595 O   0  0  0  0  0  0  0  0  0  0  0  0
   20.6611   71.1489   -2.6310 P   0  0  2  0  0  0  0  0  0  0  0  0
   21.6546   69.8755   -2.7391 O   0  0  0  0  0  0  0  0  0  0  0  0
   21.3260   72.4739   -2.8681 O   0  0  0  0  0  0  0  0  0  0  0  0
   19.4561   70.8128   -3.6496 O   0  0  0  0  0  0  0  0  0  0  0  0
   17.6459   72.1385   -4.4078 O   0  0  0  0  0  0  0  0  0  0  0  0
   15.9421   68.3766   -4.2917 O   0  0  0  0  0  0  0  0  0  0  0  0
   17.7011   69.2727   -2.1382 O   0  0  0  0  0  0  0  0  0  0  0  0
   16.6962   69.5590   -6.8382 O   0  0  0  0  0  0  0  0  0  0  0  0
   16.9955   69.3255   -4.4589 C   0  0  2  0  0  0  0  0  0  0  0  0
   17.1843   70.1141   -3.1628 C   0  0  2  0  0  0  0  0  0  0  0  0
   16.6079   70.2658   -5.6024 C   0  0  1  0  0  0  0  0  0  0  0  0
   18.1406   71.2892   -3.3717 C   0  0  1  0  0  0  0  0  0  0  0  0
   17.5340   71.4769   -5.6659 C   0  0  1  0  0  0  0  0  0  0  0  0
   16.1663   67.7682   -3.5700 H   0  0  0  0  0  0  0  0  0  0  0  0
   17.0994   68.5247   -2.0006 H   0  0  0  0  0  0  0  0  0  0  0  0
   16.1115   68.7856   -6.8108 H   0  0  0  0  0  0  0  0  0  0  0  0
   17.7983   73.6012   -6.6246 O   0  0  0  0  0  0  0  0  0  0  0  0
   15.8924   72.4589   -7.1364 O   0  0  0  0  0  0  0  0  0  0  0  0
   16.9627   72.5356   -6.5520 C   0  0  0  0  0  0  0  0  0  0  0  0
  1  4  1  0
  1 24  1  0
  1  2  1  1
  1  3  2  0
 25 28  1  0
 25 24  1  0
 25 26  1  1
 25 27  2  0
  6 11  1  0
  6 12  1  0
 29 36  1  0
 29 37  1  0
  9  7  1  1
  7 13  1  0
 10  8  1  1
  8 14  1  0
  4  5  1  0
 36 28  1  6
 33 30  1  1
 30 38  1  0
 34 31  1  1
 31 39  1  0
 35 32  1  6
 32 40  1  0
 41 43  1  0
 15 19  2  0
 42 43  2  0
 16 22  2  0
 12 17  1  6
 17 19  1  0
 17 20  1  0
 18 19  1  0
 18 22  1  0
 18 23  1  0
  9 10  1  0
  9 11  1  0
 10 12  1  0
 11  5  1  6
 33 34  1  0
 33 35  1  0
 34 36  1  0
 35 37  1  0
 37 43  1  6
 20 21  2  0
 21 22  1  0
M  CHG  3   2  -1  26  -1  41  -1
M  END
>  <COMPND>  (195) 
    udp_gluA.pdb 

>  <AUTHOR>  (195) 
    GENERATED BY OPEN BABEL 3.1.1

>  <MASTER>  (195) 
        0    0    0    0    0    0    0    0   56    0   56    0

>  <minimizedAffinity>  (195) 
-6.97906

>  <CNNscore>  (195) 
0.2834800482

>  <CNNaffinity>  (195) 
4.0001091957

>  <CNN_VS>  (195) 
1.1339511871

>  <CNNaffinity_variance>  (195) 
0.1090183258

$$$$
196
     RDKit          3D

 43 45  0  0  0  0  0  0  0  0999 V2000
   17.9348   71.4602   -0.9004 P   0  0  2  0  0  0  0  0  0  0  0  0
   18.9493   70.2001   -0.9436 O   0  0  0  0  0  0  0  0  0  0  0  0
   16.6079   71.1837   -0.2565 O   0  0  0  0  0  0  0  0  0  0  0  0
   17.8786   71.9665   -2.4361 O   0  0  0  0  0  0  0  0  0  0  0  0
   18.1310   71.0292   -3.4667 C   0  0  0  0  0  0  0  0  0  0  0  0
   16.0689   71.8610   -4.3798 O   0  0  0  0  0  0  0  0  0  0  0  0
   15.8147   69.2012   -5.7409 O   0  0  0  0  0  0  0  0  0  0  0  0
   16.7206   70.8124   -7.7458 O   0  0  0  0  0  0  0  0  0  0  0  0
   16.9864   69.9739   -5.4789 C   0  0  1  0  0  0  0  0  0  0  0  0
   17.0529   71.1598   -6.4178 C   0  0  2  0  0  0  0  0  0  0  0  0
   16.8112   70.6487   -4.1253 C   0  0  1  0  0  0  0  0  0  0  0  0
   16.0479   72.1129   -5.7938 C   0  0  2  0  0  0  0  0  0  0  0  0
   15.9033   68.7604   -6.6009 H   0  0  0  0  0  0  0  0  0  0  0  0
   17.3904   70.2049   -8.0982 H   0  0  0  0  0  0  0  0  0  0  0  0
   15.1890   73.6022   -8.0345 O   0  0  0  0  0  0  0  0  0  0  0  0
   17.3833   77.3886   -6.5881 O   0  0  0  0  0  0  0  0  0  0  0  0
   16.3801   73.4898   -6.0277 N   0  0  0  0  0  0  0  0  0  0  0  0
   16.2836   75.4864   -7.3125 N   0  0  0  0  0  0  0  0  0  0  0  0
   15.8975   74.1455   -7.1850 C   0  0  0  0  0  0  0  0  0  0  0  0
   17.1733   74.1764   -5.1165 C   0  0  0  0  0  0  0  0  0  0  0  0
   17.5328   75.4544   -5.2516 C   0  0  0  0  0  0  0  0  0  0  0  0
   17.0714   76.2118   -6.4335 C   0  0  0  0  0  0  0  0  0  0  0  0
   15.9614   75.9633   -8.1113 H   0  0  0  0  0  0  0  0  0  0  0  0
   18.8110   72.6066   -0.1717 O   0  0  0  0  0  0  0  0  0  0  0  0
   19.4008   72.6974    1.3309 P   0  0  2  0  0  0  0  0  0  0  0  0
   18.2847   71.9256    2.2135 O   0  0  0  0  0  0  0  0  0  0  0  0
   19.6967   74.0949    1.7929 O   0  0  0  0  0  0  0  0  0  0  0  0
   20.6752   71.7083    1.3307 O   0  0  0  0  0  0  0  0  0  0  0  0
   22.7782   72.4898    2.0896 O   0  0  0  0  0  0  0  0  0  0  0  0
   23.8512   69.1041   -0.0207 O   0  0  0  0  0  0  0  0  0  0  0  0
   21.8288   70.9285   -1.0770 O   0  0  0  0  0  0  0  0  0  0  0  0
   23.8307   69.0664    2.8861 O   0  0  0  0  0  0  0  0  0  0  0  0
   23.0067   69.9215    0.7897 C   0  0  2  0  0  0  0  0  0  0  0  0
   22.6668   71.2089    0.0383 C   0  0  2  0  0  0  0  0  0  0  0  0
   23.7593   70.2429    2.0828 C   0  0  1  0  0  0  0  0  0  0  0  0
   21.9580   72.2067    0.9554 C   0  0  1  0  0  0  0  0  0  0  0  0
   23.0544   71.3361    2.8807 C   0  0  1  0  0  0  0  0  0  0  0  0
   23.3938   68.8871   -0.8483 H   0  0  0  0  0  0  0  0  0  0  0  0
   22.2722   70.2958   -1.6630 H   0  0  0  0  0  0  0  0  0  0  0  0
   24.2771   68.3626    2.3898 H   0  0  0  0  0  0  0  0  0  0  0  0
   24.0659   70.9772    4.9662 O   0  0  0  0  0  0  0  0  0  0  0  0
   24.5012   72.9592    3.9264 O   0  0  0  0  0  0  0  0  0  0  0  0
   23.9476   71.8702    3.9526 C   0  0  0  0  0  0  0  0  0  0  0  0
  1  4  1  0
  1 24  1  0
  1  2  1  6
  1  3  2  0
 25 28  1  0
 25 24  1  0
 25 26  1  1
 25 27  2  0
  6 11  1  0
  6 12  1  0
 29 36  1  0
 29 37  1  0
  9  7  1  6
  7 13  1  0
 10  8  1  6
  8 14  1  0
  4  5  1  0
 36 28  1  1
 33 30  1  6
 30 38  1  0
 34 31  1  6
 31 39  1  0
 35 32  1  1
 32 40  1  0
 41 43  1  0
 15 19  2  0
 42 43  2  0
 16 22  2  0
 12 17  1  1
 17 19  1  0
 17 20  1  0
 18 19  1  0
 18 22  1  0
 18 23  1  0
  9 10  1  0
  9 11  1  0
 10 12  1  0
 11  5  1  6
 33 34  1  0
 33 35  1  0
 34 36  1  0
 35 37  1  0
 37 43  1  1
 20 21  2  0
 21 22  1  0
M  CHG  3   2  -1  26  -1  41  -1
M  END
>  <COMPND>  (196) 
    udp_gluA.pdb 

>  <AUTHOR>  (196) 
    GENERATED BY OPEN BABEL 3.1.1

>  <MASTER>  (196) 
        0    0    0    0    0    0    0    0   56    0   56    0

>  <minimizedAffinity>  (196) 
-7.04612

>  <CNNscore>  (196) 
0.2791899741

>  <CNNaffinity>  (196) 
3.8471217155

>  <CNN_VS>  (196) 
1.0740778446

>  <CNNaffinity_variance>  (196) 
0.2334575355

$$$$
197
     RDKit          3D

 43 45  0  0  0  0  0  0  0  0999 V2000
   20.5286   72.3117   -2.9898 P   0  0  2  0  0  0  0  0  0  0  0  0
   20.0994   73.8718   -3.0131 O   0  0  0  0  0  0  0  0  0  0  0  0
   21.6194   71.9402   -3.9510 O   0  0  0  0  0  0  0  0  0  0  0  0
   19.1292   71.5209   -3.1753 O   0  0  0  0  0  0  0  0  0  0  0  0
   18.8946   70.8383   -4.3933 C   0  0  0  0  0  0  0  0  0  0  0  0
   16.7899   71.9685   -4.6589 O   0  0  0  0  0  0  0  0  0  0  0  0
   15.7374   69.3664   -5.7137 O   0  0  0  0  0  0  0  0  0  0  0  0
   16.1754   70.7994   -7.9920 O   0  0  0  0  0  0  0  0  0  0  0  0
   17.0290   69.9522   -5.8787 C   0  0  1  0  0  0  0  0  0  0  0  0
   16.9606   71.1045   -6.8584 C   0  0  2  0  0  0  0  0  0  0  0  0
   17.3936   70.6590   -4.5804 C   0  0  1  0  0  0  0  0  0  0  0  0
   16.3545   72.2069   -6.0068 C   0  0  2  0  0  0  0  0  0  0  0  0
   15.4827   68.9089   -6.5307 H   0  0  0  0  0  0  0  0  0  0  0  0
   16.6036   70.0926   -8.5011 H   0  0  0  0  0  0  0  0  0  0  0  0
   15.0871   73.7598   -7.9965 O   0  0  0  0  0  0  0  0  0  0  0  0
   18.1024   77.2079   -7.4841 O   0  0  0  0  0  0  0  0  0  0  0  0
   16.7874   73.5139   -6.4131 N   0  0  0  0  0  0  0  0  0  0  0  0
   16.5907   75.4752   -7.7401 N   0  0  0  0  0  0  0  0  0  0  0  0
   16.0806   74.2096   -7.4224 C   0  0  0  0  0  0  0  0  0  0  0  0
   17.8986   74.0941   -5.8134 C   0  0  0  0  0  0  0  0  0  0  0  0
   18.3729   75.3014   -6.1269 C   0  0  0  0  0  0  0  0  0  0  0  0
   17.6926   76.0939   -7.1721 C   0  0  0  0  0  0  0  0  0  0  0  0
   16.1165   75.9778   -8.4415 H   0  0  0  0  0  0  0  0  0  0  0  0
   20.8864   72.0570   -1.4342 O   0  0  0  0  0  0  0  0  0  0  0  0
   19.9805   71.5084   -0.2127 P   0  0  2  0  0  0  0  0  0  0  0  0
   19.6659   69.9799   -0.6429 O   0  0  0  0  0  0  0  0  0  0  0  0
   18.7595   72.3355    0.0683 O   0  0  0  0  0  0  0  0  0  0  0  0
   21.0023   71.3798    1.0290 O   0  0  0  0  0  0  0  0  0  0  0  0
   22.8007   72.7284    1.7748 O   0  0  0  0  0  0  0  0  0  0  0  0
   24.2040   68.9295    2.5913 O   0  0  0  0  0  0  0  0  0  0  0  0
   22.8078   69.4857    0.0862 O   0  0  0  0  0  0  0  0  0  0  0  0
   23.2292   70.6195    4.7465 O   0  0  0  0  0  0  0  0  0  0  0  0
   23.2159   69.9476    2.4327 C   0  0  2  0  0  0  0  0  0  0  0  0
   23.2553   70.4802    1.0002 C   0  0  2  0  0  0  0  0  0  0  0  0
   23.5285   71.0688    3.4262 C   0  0  1  0  0  0  0  0  0  0  0  0
   22.3758   71.7228    0.8541 C   0  0  1  0  0  0  0  0  0  0  0  0
   22.7000   72.3171    3.1363 C   0  0  1  0  0  0  0  0  0  0  0  0
   24.0258   68.2061    1.9699 H   0  0  0  0  0  0  0  0  0  0  0  0
   23.3613   68.6943    0.1737 H   0  0  0  0  0  0  0  0  0  0  0  0
   23.7499   69.8253    4.9435 H   0  0  0  0  0  0  0  0  0  0  0  0
   23.0888   73.3214    5.2199 O   0  0  0  0  0  0  0  0  0  0  0  0
   23.7413   74.4811    3.3684 O   0  0  0  0  0  0  0  0  0  0  0  0
   23.2361   73.4948    3.8831 C   0  0  0  0  0  0  0  0  0  0  0  0
  1  4  1  0
  1 24  1  0
  1  2  1  1
  1  3  2  0
 25 28  1  0
 25 24  1  0
 25 26  1  6
 25 27  2  0
  6 11  1  0
  6 12  1  0
 29 36  1  0
 29 37  1  0
  9  7  1  1
  7 13  1  0
 10  8  1  6
  8 14  1  0
  4  5  1  0
 36 28  1  1
 33 30  1  6
 30 38  1  0
 34 31  1  6
 31 39  1  0
 35 32  1  1
 32 40  1  0
 41 43  1  0
 15 19  2  0
 42 43  2  0
 16 22  2  0
 12 17  1  6
 17 19  1  0
 17 20  1  0
 18 19  1  0
 18 22  1  0
 18 23  1  0
  9 10  1  0
  9 11  1  0
 10 12  1  0
 11  5  1  6
 33 34  1  0
 33 35  1  0
 34 36  1  0
 35 37  1  0
 37 43  1  1
 20 21  2  0
 21 22  1  0
M  CHG  3   2  -1  26  -1  41  -1
M  END
>  <COMPND>  (197) 
    udp_gluA.pdb 

>  <AUTHOR>  (197) 
    GENERATED BY OPEN BABEL 3.1.1

>  <MASTER>  (197) 
        0    0    0    0    0    0    0    0   56    0   56    0

>  <minimizedAffinity>  (197) 
-6.87265

>  <CNNscore>  (197) 
0.2734519541

>  <CNNaffinity>  (197) 
3.7644219398

>  <CNN_VS>  (197) 
1.0293885469

>  <CNNaffinity_variance>  (197) 
0.3032897711

$$$$
198
     RDKit          3D

 43 45  0  0  0  0  0  0  0  0999 V2000
   20.8243   74.9094   -3.5653 P   0  0  2  0  0  0  0  0  0  0  0  0
   20.8044   76.5194   -3.7278 O   0  0  0  0  0  0  0  0  0  0  0  0
   19.4931   74.2868   -3.2616 O   0  0  0  0  0  0  0  0  0  0  0  0
   21.9896   74.6434   -2.4748 O   0  0  0  0  0  0  0  0  0  0  0  0
   21.7018   73.8091   -1.3677 C   0  0  0  0  0  0  0  0  0  0  0  0
   23.0174   71.8755   -0.8128 O   0  0  0  0  0  0  0  0  0  0  0  0
   21.0558   70.3024   -2.4465 O   0  0  0  0  0  0  0  0  0  0  0  0
   20.2384   69.8054    0.1071 O   0  0  0  0  0  0  0  0  0  0  0  0
   20.8287   71.4311   -1.6020 C   0  0  1  0  0  0  0  0  0  0  0  0
   20.9101   71.0216   -0.1467 C   0  0  2  0  0  0  0  0  0  0  0  0
   22.0224   72.3665   -1.7370 C   0  0  1  0  0  0  0  0  0  0  0  0
   22.4104   70.9168    0.0680 C   0  0  2  0  0  0  0  0  0  0  0  0
   20.3061   69.6902   -2.3772 H   0  0  0  0  0  0  0  0  0  0  0  0
   19.2870   69.9241   -0.0433 H   0  0  0  0  0  0  0  0  0  0  0  0
   23.6759   69.0887    1.8095 O   0  0  0  0  0  0  0  0  0  0  0  0
   23.8321   72.1743    5.2298 O   0  0  0  0  0  0  0  0  0  0  0  0
   22.7929   71.2162    1.4189 N   0  0  0  0  0  0  0  0  0  0  0  0
   23.7516   70.6269    3.5117 N   0  0  0  0  0  0  0  0  0  0  0  0
   23.4230   70.2265    2.2099 C   0  0  0  0  0  0  0  0  0  0  0  0
   22.5451   72.4776    1.9465 C   0  0  0  0  0  0  0  0  0  0  0  0
   22.8642   72.8445    3.1893 C   0  0  0  0  0  0  0  0  0  0  0  0
   23.5248   71.8693    4.0815 C   0  0  0  0  0  0  0  0  0  0  0  0
   24.1893   69.9543    4.0821 H   0  0  0  0  0  0  0  0  0  0  0  0
   21.5000   74.4135   -4.9475 O   0  0  0  0  0  0  0  0  0  0  0  0
   21.6343   72.9377   -5.5936 P   0  0  2  0  0  0  0  0  0  0  0  0
   22.6212   72.1717   -4.5643 O   0  0  0  0  0  0  0  0  0  0  0  0
   22.1020   72.9303   -7.0202 O   0  0  0  0  0  0  0  0  0  0  0  0
   20.1916   72.2551   -5.3586 O   0  0  0  0  0  0  0  0  0  0  0  0
   19.3887   70.1067   -4.7681 O   0  0  0  0  0  0  0  0  0  0  0  0
   16.7798   71.1787   -7.7868 O   0  0  0  0  0  0  0  0  0  0  0  0
   19.6377   71.7319   -8.0335 O   0  0  0  0  0  0  0  0  0  0  0  0
   15.9176   71.2705   -5.0120 O   0  0  0  0  0  0  0  0  0  0  0  0
   17.6525   71.4001   -6.6789 C   0  0  2  0  0  0  0  0  0  0  0  0
   19.0576   70.9089   -7.0282 C   0  0  2  0  0  0  0  0  0  0  0  0
   17.1006   70.6255   -5.4800 C   0  0  1  0  0  0  0  0  0  0  0  0
   19.9621   70.9166   -5.7950 C   0  0  1  0  0  0  0  0  0  0  0  0
   18.1114   70.5721   -4.3381 C   0  0  1  0  0  0  0  0  0  0  0  0
   17.1106   71.6614   -8.5606 H   0  0  0  0  0  0  0  0  0  0  0  0
   19.0688   71.7319   -8.8189 H   0  0  0  0  0  0  0  0  0  0  0  0
   15.2661   71.3111   -5.7294 H   0  0  0  0  0  0  0  0  0  0  0  0
   16.6368   68.8451   -3.7513 O   0  0  0  0  0  0  0  0  0  0  0  0
   18.2648   69.3787   -2.2467 O   0  0  0  0  0  0  0  0  0  0  0  0
   17.7088   69.5550   -3.3204 C   0  0  0  0  0  0  0  0  0  0  0  0
  1  4  1  0
  1 24  1  0
  1  2  1  6
  1  3  2  0
 25 28  1  0
 25 24  1  0
 25 26  1  1
 25 27  2  0
  6 11  1  0
  6 12  1  0
 29 36  1  0
 29 37  1  0
  9  7  1  6
  7 13  1  0
 10  8  1  6
  8 14  1  0
  4  5  1  0
 36 28  1  1
 33 30  1  6
 30 38  1  0
 34 31  1  6
 31 39  1  0
 35 32  1  1
 32 40  1  0
 41 43  1  0
 15 19  2  0
 42 43  2  0
 16 22  2  0
 12 17  1  1
 17 19  1  0
 17 20  1  0
 18 19  1  0
 18 22  1  0
 18 23  1  0
  9 10  1  0
  9 11  1  0
 10 12  1  0
 11  5  1  1
 33 34  1  0
 33 35  1  0
 34 36  1  0
 35 37  1  0
 37 43  1  1
 20 21  2  0
 21 22  1  0
M  CHG  3   2  -1  26  -1  41  -1
M  END
>  <COMPND>  (198) 
    udp_gluA.pdb 

>  <AUTHOR>  (198) 
    GENERATED BY OPEN BABEL 3.1.1

>  <MASTER>  (198) 
        0    0    0    0    0    0    0    0   56    0   56    0

>  <minimizedAffinity>  (198) 
-7.72145

>  <CNNscore>  (198) 
0.2621334493

>  <CNNaffinity>  (198) 
3.9450049400

>  <CNN_VS>  (198) 
1.0341176987

>  <CNNaffinity_variance>  (198) 
0.2349458486

$$$$
199
     RDKit          3D

 43 45  0  0  0  0  0  0  0  0999 V2000
   21.5847   72.1502   -2.2899 P   0  0  2  0  0  0  0  0  0  0  0  0
   20.3826   73.2292   -2.1926 O   0  0  0  0  0  0  0  0  0  0  0  0
   22.9486   72.6911   -1.9755 O   0  0  0  0  0  0  0  0  0  0  0  0
   21.4078   71.5032   -3.7624 O   0  0  0  0  0  0  0  0  0  0  0  0
   20.3914   70.5373   -3.9588 C   0  0  0  0  0  0  0  0  0  0  0  0
   18.4510   70.4628   -5.3755 O   0  0  0  0  0  0  0  0  0  0  0  0
   20.1395   71.8253   -7.4453 O   0  0  0  0  0  0  0  0  0  0  0  0
   18.6553   73.8802   -6.4402 O   0  0  0  0  0  0  0  0  0  0  0  0
   20.1351   71.9955   -6.0277 C   0  0  1  0  0  0  0  0  0  0  0  0
   18.9114   72.7763   -5.5974 C   0  0  2  0  0  0  0  0  0  0  0  0
   19.8847   70.6348   -5.3920 C   0  0  1  0  0  0  0  0  0  0  0  0
   17.8218   71.7201   -5.6698 C   0  0  2  0  0  0  0  0  0  0  0  0
   20.2977   72.6815   -7.8736 H   0  0  0  0  0  0  0  0  0  0  0  0
   19.3769   74.5240   -6.3579 H   0  0  0  0  0  0  0  0  0  0  0  0
   15.6112   73.4203   -6.1160 O   0  0  0  0  0  0  0  0  0  0  0  0
   13.8520   72.5283   -1.9503 O   0  0  0  0  0  0  0  0  0  0  0  0
   16.7714   71.9504   -4.7188 N   0  0  0  0  0  0  0  0  0  0  0  0
   14.7377   72.9752   -4.0404 N   0  0  0  0  0  0  0  0  0  0  0  0
   15.7059   72.8237   -5.0417 C   0  0  0  0  0  0  0  0  0  0  0  0
   16.8020   71.3142   -3.4838 C   0  0  0  0  0  0  0  0  0  0  0  0
   15.8717   71.4684   -2.5396 C   0  0  0  0  0  0  0  0  0  0  0  0
   14.7252   72.3644   -2.7969 C   0  0  0  0  0  0  0  0  0  0  0  0
   13.9871   73.5799   -4.2414 H   0  0  0  0  0  0  0  0  0  0  0  0
   21.0882   70.9644   -1.3099 O   0  0  0  0  0  0  0  0  0  0  0  0
   21.8224   70.2378   -0.0663 P   0  0  2  0  0  0  0  0  0  0  0  0
   23.1881   69.6696   -0.7238 O   0  0  0  0  0  0  0  0  0  0  0  0
   20.9863   69.1964    0.6194 O   0  0  0  0  0  0  0  0  0  0  0  0
   22.3023   71.4463    0.8885 O   0  0  0  0  0  0  0  0  0  0  0  0
   22.3854   71.5854    3.2513 O   0  0  0  0  0  0  0  0  0  0  0  0
   21.5596   75.4965    2.2076 O   0  0  0  0  0  0  0  0  0  0  0  0
   20.2167   73.2862    0.8491 O   0  0  0  0  0  0  0  0  0  0  0  0
   24.2360   74.7478    3.0604 O   0  0  0  0  0  0  0  0  0  0  0  0
   22.1229   74.1951    2.0434 C   0  0  2  0  0  0  0  0  0  0  0  0
   21.0052   73.1521    2.0260 C   0  0  2  0  0  0  0  0  0  0  0  0
   23.0717   73.9389    3.2165 C   0  0  1  0  0  0  0  0  0  0  0  0
   21.5780   71.7352    2.0829 C   0  0  1  0  0  0  0  0  0  0  0  0
   23.4991   72.4753    3.2780 C   0  0  1  0  0  0  0  0  0  0  0  0
   20.9530   75.6814    1.4734 H   0  0  0  0  0  0  0  0  0  0  0  0
   19.8503   74.1830    0.8063 H   0  0  0  0  0  0  0  0  0  0  0  0
   23.9778   75.6819    3.0197 H   0  0  0  0  0  0  0  0  0  0  0  0
   24.9887   71.1113    4.4705 O   0  0  0  0  0  0  0  0  0  0  0  0
   23.9464   72.7752    5.6299 O   0  0  0  0  0  0  0  0  0  0  0  0
   24.1445   72.1659    4.5895 C   0  0  0  0  0  0  0  0  0  0  0  0
  1  4  1  0
  1 24  1  0
  1  2  1  6
  1  3  2  0
 25 28  1  0
 25 24  1  0
 25 26  1  6
 25 27  2  0
  6 11  1  0
  6 12  1  0
 29 36  1  0
 29 37  1  0
  9  7  1  6
  7 13  1  0
 10  8  1  6
  8 14  1  0
  4  5  1  0
 36 28  1  6
 33 30  1  1
 30 38  1  0
 34 31  1  6
 31 39  1  0
 35 32  1  6
 32 40  1  0
 41 43  1  0
 15 19  2  0
 42 43  2  0
 16 22  2  0
 12 17  1  1
 17 19  1  0
 17 20  1  0
 18 19  1  0
 18 22  1  0
 18 23  1  0
  9 10  1  0
  9 11  1  0
 10 12  1  0
 11  5  1  1
 33 34  1  0
 33 35  1  0
 34 36  1  0
 35 37  1  0
 37 43  1  1
 20 21  2  0
 21 22  1  0
M  CHG  3   2  -1  26  -1  41  -1
M  END
>  <COMPND>  (199) 
    udp_gluA.pdb 

>  <AUTHOR>  (199) 
    GENERATED BY OPEN BABEL 3.1.1

>  <MASTER>  (199) 
        0    0    0    0    0    0    0    0   56    0   56    0

>  <minimizedAffinity>  (199) 
-6.65276

>  <CNNscore>  (199) 
0.2590555549

>  <CNNaffinity>  (199) 
4.0122442245

>  <CNN_VS>  (199) 
1.0393941402

>  <CNNaffinity_variance>  (199) 
0.0174385309

$$$$
200
     RDKit          3D

 43 45  0  0  0  0  0  0  0  0999 V2000
   22.3294   71.5452   -3.4040 P   0  0  2  0  0  0  0  0  0  0  0  0
   21.8381   72.2358   -2.0254 O   0  0  0  0  0  0  0  0  0  0  0  0
   23.6129   72.0870   -3.9617 O   0  0  0  0  0  0  0  0  0  0  0  0
   21.0396   71.6554   -4.3748 O   0  0  0  0  0  0  0  0  0  0  0  0
   20.1844   70.5332   -4.4928 C   0  0  0  0  0  0  0  0  0  0  0  0
   18.2749   71.6908   -3.6032 O   0  0  0  0  0  0  0  0  0  0  0  0
   17.7531   69.2119   -1.9987 O   0  0  0  0  0  0  0  0  0  0  0  0
   15.9732   68.9788   -4.0514 O   0  0  0  0  0  0  0  0  0  0  0  0
   18.2656   69.3385   -3.3252 C   0  0  1  0  0  0  0  0  0  0  0  0
   17.1551   69.7164   -4.2824 C   0  0  2  0  0  0  0  0  0  0  0  0
   19.1572   70.5719   -3.3687 C   0  0  1  0  0  0  0  0  0  0  0  0
   16.9843   71.1989   -3.9977 C   0  0  2  0  0  0  0  0  0  0  0  0
   17.1802   68.4304   -1.9462 H   0  0  0  0  0  0  0  0  0  0  0  0
   16.1334   68.0417   -4.2470 H   0  0  0  0  0  0  0  0  0  0  0  0
   15.4373   73.5592   -3.8874 O   0  0  0  0  0  0  0  0  0  0  0  0
   15.3289   73.9205   -8.4811 O   0  0  0  0  0  0  0  0  0  0  0  0
   16.5381   71.9302   -5.1496 N   0  0  0  0  0  0  0  0  0  0  0  0
   15.3840   73.7363   -6.1754 N   0  0  0  0  0  0  0  0  0  0  0  0
   15.7654   73.1040   -4.9847 C   0  0  0  0  0  0  0  0  0  0  0  0
   16.8671   71.4849   -6.4242 C   0  0  0  0  0  0  0  0  0  0  0  0
   16.4963   72.0984   -7.5498 C   0  0  0  0  0  0  0  0  0  0  0  0
   15.6862   73.3313   -7.4655 C   0  0  0  0  0  0  0  0  0  0  0  0
   14.8436   74.5545   -6.0861 H   0  0  0  0  0  0  0  0  0  0  0  0
   22.3686   69.9735   -3.0288 O   0  0  0  0  0  0  0  0  0  0  0  0
   23.3979   69.1258   -2.1146 P   0  0  2  0  0  0  0  0  0  0  0  0
   24.8485   69.6034   -2.6512 O   0  0  0  0  0  0  0  0  0  0  0  0
   23.1806   67.6409   -2.1579 O   0  0  0  0  0  0  0  0  0  0  0  0
   23.2725   69.7783   -0.6446 O   0  0  0  0  0  0  0  0  0  0  0  0
   23.3875   68.9142    1.5575 O   0  0  0  0  0  0  0  0  0  0  0  0
   20.3512   71.6944    1.9029 O   0  0  0  0  0  0  0  0  0  0  0  0
   20.5043   69.9518   -0.4368 O   0  0  0  0  0  0  0  0  0  0  0  0
   22.9937   72.2802    2.9635 O   0  0  0  0  0  0  0  0  0  0  0  0
   21.5653   71.1479    1.3879 C   0  0  2  0  0  0  0  0  0  0  0  0
   21.2827   69.7906    0.7434 C   0  0  2  0  0  0  0  0  0  0  0  0
   22.5446   70.9901    2.5533 C   0  0  1  0  0  0  0  0  0  0  0  0
   22.5850   69.0724    0.3869 C   0  0  1  0  0  0  0  0  0  0  0  0
   23.7579   70.1560    2.1523 C   0  0  1  0  0  0  0  0  0  0  0  0
   19.7134   71.8036    1.1800 H   0  0  0  0  0  0  0  0  0  0  0  0
   19.6765   70.4071   -0.2180 H   0  0  0  0  0  0  0  0  0  0  0  0
   22.2310   72.8213    3.2212 H   0  0  0  0  0  0  0  0  0  0  0  0
   24.9815   70.8139    4.0422 O   0  0  0  0  0  0  0  0  0  0  0  0
   24.7358   68.5746    3.6899 O   0  0  0  0  0  0  0  0  0  0  0  0
   24.5324   69.7327    3.3578 C   0  0  0  0  0  0  0  0  0  0  0  0
  1  4  1  0
  1 24  1  0
  1  2  1  1
  1  3  2  0
 25 28  1  0
 25 24  1  0
 25 26  1  6
 25 27  2  0
  6 11  1  0
  6 12  1  0
 29 36  1  0
 29 37  1  0
  9  7  1  1
  7 13  1  0
 10  8  1  1
  8 14  1  0
  4  5  1  0
 36 28  1  6
 33 30  1  1
 30 38  1  0
 34 31  1  6
 31 39  1  0
 35 32  1  6
 32 40  1  0
 41 43  1  0
 15 19  2  0
 42 43  2  0
 16 22  2  0
 12 17  1  6
 17 19  1  0
 17 20  1  0
 18 19  1  0
 18 22  1  0
 18 23  1  0
  9 10  1  0
  9 11  1  0
 10 12  1  0
 11  5  1  6
 33 34  1  0
 33 35  1  0
 34 36  1  0
 35 37  1  0
 37 43  1  1
 20 21  2  0
 21 22  1  0
M  CHG  3   2  -1  26  -1  41  -1
M  END
