1
     RDKit          3D

 43 45  0  0  0  0  0  0  0  0999 V2000
   22.0857   70.7804   -2.1942 P   0  0  2  0  0  0  0  0  0  0  0  0
   22.9198   72.1382   -2.4743 O   0  0  0  0  0  0  0  0  0  0  0  0
   22.0401   69.8163   -3.3430 O   0  0  0  0  0  0  0  0  0  0  0  0
   20.6517   71.3083   -1.6624 O   0  0  0  0  0  0  0  0  0  0  0  0
   19.8668   72.1153   -2.5229 C   0  0  0  0  0  0  0  0  0  0  0  0
   17.7730   71.9187   -3.6853 O   0  0  0  0  0  0  0  0  0  0  0  0
   16.9578   70.0221   -1.5106 O   0  0  0  0  0  0  0  0  0  0  0  0
   17.6258   68.3378   -3.5486 O   0  0  0  0  0  0  0  0  0  0  0  0
   18.2367   70.2048   -2.1158 C   0  0  1  0  0  0  0  0  0  0  0  0
   18.2510   69.6044   -3.5061 C   0  0  2  0  0  0  0  0  0  0  0  0
   18.4093   71.6899   -2.4089 C   0  0  1  0  0  0  0  0  0  0  0  0
   17.5018   70.6534   -4.3101 C   0  0  2  0  0  0  0  0  0  0  0  0
   16.8248   69.0811   -1.3138 H   0  0  0  0  0  0  0  0  0  0  0  0
   18.1399   67.7055   -3.0226 H   0  0  0  0  0  0  0  0  0  0  0  0
   15.9179   69.8755   -6.5155 O   0  0  0  0  0  0  0  0  0  0  0  0
   19.2646   70.8999   -9.5140 O   0  0  0  0  0  0  0  0  0  0  0  0
   17.9340   70.7068   -5.6782 N   0  0  0  0  0  0  0  0  0  0  0  0
   17.5855   70.3863   -8.0068 N   0  0  0  0  0  0  0  0  0  0  0  0
   17.0615   70.2919   -6.7112 C   0  0  0  0  0  0  0  0  0  0  0  0
   19.2101   71.1670   -5.9843 C   0  0  0  0  0  0  0  0  0  0  0  0
   19.6951   71.2497   -7.2250 C   0  0  0  0  0  0  0  0  0  0  0  0
   18.8475   70.8358   -8.3617 C   0  0  0  0  0  0  0  0  0  0  0  0
   16.9957   70.1024   -8.7425 H   0  0  0  0  0  0  0  0  0  0  0  0
   22.7782   70.1983   -0.8546 O   0  0  0  0  0  0  0  0  0  0  0  0
   22.2097   70.0368    0.6500 P   0  0  2  0  0  0  0  0  0  0  0  0
   23.4091   69.2710    1.4196 O   0  0  0  0  0  0  0  0  0  0  0  0
   20.8793   69.3461    0.7343 O   0  0  0  0  0  0  0  0  0  0  0  0
   22.2262   71.5327    1.2558 O   0  0  0  0  0  0  0  0  0  0  0  0
   22.5657   71.3708    3.5957 O   0  0  0  0  0  0  0  0  0  0  0  0
   22.0271   75.4532    3.2880 O   0  0  0  0  0  0  0  0  0  0  0  0
   24.6485   74.4044    3.8137 O   0  0  0  0  0  0  0  0  0  0  0  0
   20.4419   73.6608    1.6589 O   0  0  0  0  0  0  0  0  0  0  0  0
   22.4680   74.1613    2.8613 C   0  0  1  0  0  0  0  0  0  0  0  0
   23.4580   73.6260    3.8977 C   0  0  1  0  0  0  0  0  0  0  0  0
   21.2591   73.2350    2.7439 C   0  0  2  0  0  0  0  0  0  0  0  0
   23.7703   72.1438    3.6516 C   0  0  1  0  0  0  0  0  0  0  0  0
   21.6811   71.7775    2.5497 C   0  0  1  0  0  0  0  0  0  0  0  0
   22.7899   76.0464    3.3640 H   0  0  0  0  0  0  0  0  0  0  0  0
   24.4374   75.3383    3.9706 H   0  0  0  0  0  0  0  0  0  0  0  0
   20.1812   74.5847    1.7938 H   0  0  0  0  0  0  0  0  0  0  0  0
   25.2785   70.3938    4.2614 O   0  0  0  0  0  0  0  0  0  0  0  0
   24.6311   71.5484    4.7636 C   0  0  0  0  0  0  0  0  0  0  0  0
   25.8302   70.0043    4.9583 H   0  0  0  0  0  0  0  0  0  0  0  0
 25 28  1  0
 25 24  1  0
 25 26  1  1
 25 27  2  0
  1  4  1  0
  1 24  1  0
  1  2  1  6
  1  3  2  0
  6 11  1  0
  6 12  1  0
 29 36  1  0
 29 37  1  0
  9  7  1  6
  7 13  1  0
 10  8  1  1
  8 14  1  0
 37 28  1  6
  4  5  1  0
 33 30  1  1
 30 38  1  0
 34 31  1  6
 31 39  1  0
 35 32  1  6
 32 40  1  0
 41 42  1  0
 41 43  1  0
 15 19  2  0
 16 22  2  0
 12 17  1  6
 17 19  1  0
 17 20  1  0
 18 19  1  0
 18 22  1  0
 18 23  1  0
  9 10  1  0
  9 11  1  0
 10 12  1  0
 11  5  1  6
 33 34  1  0
 33 35  1  0
 34 36  1  0
 35 37  1  0
 36 42  1  1
 20 21  2  0
 21 22  1  0
M  CHG  2   2  -1  26  -1
M  END
>  <COMPND>  (1) 
    8629 

>  <AUTHOR>  (1) 
    GENERATED BY OPEN BABEL 3.1.1

>  <MASTER>  (1) 
        0    0    0    0    0    0    0    0   58    0   58    0

>  <minimizedAffinity>  (1) 
-8.23022

>  <CNNscore>  (1) 
0.7112274170

>  <CNNaffinity>  (1) 
4.6614689827

>  <CNN_VS>  (1) 
3.3153645992

>  <CNNaffinity_variance>  (1) 
0.0246658958

$$$$
2
     RDKit          3D

 43 45  0  0  0  0  0  0  0  0999 V2000
   22.1239   71.0613   -1.7954 P   0  0  2  0  0  0  0  0  0  0  0  0
   22.8529   72.4078   -2.3180 O   0  0  0  0  0  0  0  0  0  0  0  0
   22.2607   69.8738   -2.7023 O   0  0  0  0  0  0  0  0  0  0  0  0
   20.6090   71.5361   -1.4830 O   0  0  0  0  0  0  0  0  0  0  0  0
   19.8582   72.1315   -2.5268 C   0  0  0  0  0  0  0  0  0  0  0  0
   17.7700   71.8904   -3.6907 O   0  0  0  0  0  0  0  0  0  0  0  0
   16.9799   70.0044   -1.4977 O   0  0  0  0  0  0  0  0  0  0  0  0
   17.6778   68.3094   -3.5167 O   0  0  0  0  0  0  0  0  0  0  0  0
   18.2570   70.2004   -2.1026 C   0  0  1  0  0  0  0  0  0  0  0  0
   18.2833   69.5858   -3.4865 C   0  0  2  0  0  0  0  0  0  0  0  0
   18.4073   71.6849   -2.4109 C   0  0  1  0  0  0  0  0  0  0  0  0
   17.5196   70.6147   -4.3027 C   0  0  2  0  0  0  0  0  0  0  0  0
   16.8610   69.0635   -1.2913 H   0  0  0  0  0  0  0  0  0  0  0  0
   18.2005   67.6906   -2.9832 H   0  0  0  0  0  0  0  0  0  0  0  0
   15.8969   69.9435   -6.5151 O   0  0  0  0  0  0  0  0  0  0  0  0
   19.2913   70.8257   -9.5052 O   0  0  0  0  0  0  0  0  0  0  0  0
   17.9536   70.6604   -5.6705 N   0  0  0  0  0  0  0  0  0  0  0  0
   17.5883   70.3835   -8.0021 N   0  0  0  0  0  0  0  0  0  0  0  0
   17.0605   70.3023   -6.7072 C   0  0  0  0  0  0  0  0  0  0  0  0
   19.2517   71.0572   -5.9728 C   0  0  0  0  0  0  0  0  0  0  0  0
   19.7400   71.1281   -7.2128 C   0  0  0  0  0  0  0  0  0  0  0  0
   18.8718   70.7709   -8.3533 C   0  0  0  0  0  0  0  0  0  0  0  0
   16.9844   70.1384   -8.7404 H   0  0  0  0  0  0  0  0  0  0  0  0
   22.7522   70.8571   -0.3201 O   0  0  0  0  0  0  0  0  0  0  0  0
   22.2557   69.9612    0.9304 P   0  0  2  0  0  0  0  0  0  0  0  0
   23.6170   69.2528    1.4430 O   0  0  0  0  0  0  0  0  0  0  0  0
   21.1464   69.0049    0.6003 O   0  0  0  0  0  0  0  0  0  0  0  0
   21.8948   71.0323    2.0825 O   0  0  0  0  0  0  0  0  0  0  0  0
   21.4838   73.3617    1.9357 O   0  0  0  0  0  0  0  0  0  0  0  0
   23.4879   73.2716    5.5449 O   0  0  0  0  0  0  0  0  0  0  0  0
   20.6568   73.7527    5.5067 O   0  0  0  0  0  0  0  0  0  0  0  0
   24.3293   71.5408    3.3824 O   0  0  0  0  0  0  0  0  0  0  0  0
   22.6102   72.7781    4.5292 C   0  0  1  0  0  0  0  0  0  0  0  0
   21.4771   73.7889    4.3421 C   0  0  1  0  0  0  0  0  0  0  0  0
   23.3963   72.6053    3.2310 C   0  0  2  0  0  0  0  0  0  0  0  0
   20.6463   73.4650    3.0931 C   0  0  1  0  0  0  0  0  0  0  0  0
   22.4718   72.3349    2.0426 C   0  0  1  0  0  0  0  0  0  0  0  0
   22.9951   73.3831    6.3720 H   0  0  0  0  0  0  0  0  0  0  0  0
   21.1936   73.9585    6.2882 H   0  0  0  0  0  0  0  0  0  0  0  0
   24.9089   71.7240    4.1377 H   0  0  0  0  0  0  0  0  0  0  0  0
   19.9370   75.6996    3.5538 O   0  0  0  0  0  0  0  0  0  0  0  0
   19.6101   74.5474    2.7988 C   0  0  0  0  0  0  0  0  0  0  0  0
   19.2861   76.3971    3.3763 H   0  0  0  0  0  0  0  0  0  0  0  0
 25 28  1  0
 25 24  1  0
 25 26  1  1
 25 27  2  0
  1  4  1  0
  1 24  1  0
  1  2  1  6
  1  3  2  0
  6 11  1  0
  6 12  1  0
 29 36  1  0
 29 37  1  0
  9  7  1  6
  7 13  1  0
 10  8  1  1
  8 14  1  0
 37 28  1  1
  4  5  1  0
 33 30  1  1
 30 38  1  0
 34 31  1  1
 31 39  1  0
 35 32  1  1
 32 40  1  0
 41 42  1  0
 41 43  1  0
 15 19  2  0
 16 22  2  0
 12 17  1  6
 17 19  1  0
 17 20  1  0
 18 19  1  0
 18 22  1  0
 18 23  1  0
  9 10  1  0
  9 11  1  0
 10 12  1  0
 11  5  1  6
 33 34  1  0
 33 35  1  0
 34 36  1  0
 35 37  1  0
 36 42  1  6
 20 21  2  0
 21 22  1  0
M  CHG  2   2  -1  26  -1
M  END
>  <COMPND>  (2) 
    8629 

>  <AUTHOR>  (2) 
    GENERATED BY OPEN BABEL 3.1.1

>  <MASTER>  (2) 
        0    0    0    0    0    0    0    0   58    0   58    0

>  <minimizedAffinity>  (2) 
-8.08334

>  <CNNscore>  (2) 
0.6418039203

>  <CNNaffinity>  (2) 
4.6333246231

>  <CNN_VS>  (2) 
2.9736859798

>  <CNNaffinity_variance>  (2) 
0.0127209444

$$$$
3
     RDKit          3D

 43 45  0  0  0  0  0  0  0  0999 V2000
   19.2228   70.9269   -0.8854 P   0  0  2  0  0  0  0  0  0  0  0  0
   17.7451   70.2732   -0.9660 O   0  0  0  0  0  0  0  0  0  0  0  0
   20.2846   70.0262   -0.3262 O   0  0  0  0  0  0  0  0  0  0  0  0
   18.9899   72.3166   -0.0901 O   0  0  0  0  0  0  0  0  0  0  0  0
   18.9331   72.2842    1.3254 C   0  0  0  0  0  0  0  0  0  0  0  0
   20.4827   73.1522    2.9438 O   0  0  0  0  0  0  0  0  0  0  0  0
   20.5645   75.6312    1.2591 O   0  0  0  0  0  0  0  0  0  0  0  0
   22.8651   74.3521    0.5464 O   0  0  0  0  0  0  0  0  0  0  0  0
   20.4547   74.2679    0.8533 C   0  0  1  0  0  0  0  0  0  0  0  0
   21.7867   73.5642    1.0082 C   0  0  2  0  0  0  0  0  0  0  0  0
   19.5905   73.5419    1.8768 C   0  0  1  0  0  0  0  0  0  0  0  0
   21.8413   73.3193    2.5066 C   0  0  2  0  0  0  0  0  0  0  0  0
   21.1119   76.1154    0.6204 H   0  0  0  0  0  0  0  0  0  0  0  0
   22.7854   74.4796   -0.4118 H   0  0  0  0  0  0  0  0  0  0  0  0
   22.8427   72.7431    5.0840 O   0  0  0  0  0  0  0  0  0  0  0  0
   24.6914   68.7630    3.6759 O   0  0  0  0  0  0  0  0  0  0  0  0
   22.5875   72.1393    2.8418 N   0  0  0  0  0  0  0  0  0  0  0  0
   23.7622   70.7617    4.3808 N   0  0  0  0  0  0  0  0  0  0  0  0
   23.0458   71.9460    4.1658 C   0  0  0  0  0  0  0  0  0  0  0  0
   22.8575   71.1889    1.8633 C   0  0  0  0  0  0  0  0  0  0  0  0
   23.5432   70.0653    2.0843 C   0  0  0  0  0  0  0  0  0  0  0  0
   24.0574   69.7871    3.4408 C   0  0  0  0  0  0  0  0  0  0  0  0
   24.0918   70.6058    5.2956 H   0  0  0  0  0  0  0  0  0  0  0  0
   19.4869   71.4166   -2.4031 O   0  0  0  0  0  0  0  0  0  0  0  0
   20.8278   71.4001   -3.3057 P   0  0  2  0  0  0  0  0  0  0  0  0
   21.5434   70.0124   -2.8817 O   0  0  0  0  0  0  0  0  0  0  0  0
   21.6924   72.6169   -3.1456 O   0  0  0  0  0  0  0  0  0  0  0  0
   20.3038   71.1452   -4.8109 O   0  0  0  0  0  0  0  0  0  0  0  0
   20.5257   71.7501   -7.0915 O   0  0  0  0  0  0  0  0  0  0  0  0
   16.7634   73.2885   -6.3638 O   0  0  0  0  0  0  0  0  0  0  0  0
   17.0420   70.9229   -7.9682 O   0  0  0  0  0  0  0  0  0  0  0  0
   18.8182   73.4776   -4.3337 O   0  0  0  0  0  0  0  0  0  0  0  0
   17.8385   72.3554   -6.2263 C   0  0  1  0  0  0  0  0  0  0  0  0
   18.1359   71.7601   -7.6040 C   0  0  1  0  0  0  0  0  0  0  0  0
   19.0647   73.0838   -5.6792 C   0  0  2  0  0  0  0  0  0  0  0  0
   19.4428   70.9557   -7.5894 C   0  0  1  0  0  0  0  0  0  0  0  0
   20.3198   72.2125   -5.7552 C   0  0  1  0  0  0  0  0  0  0  0  0
   15.9816   72.8323   -6.7103 H   0  0  0  0  0  0  0  0  0  0  0  0
   16.2230   71.4428   -7.9732 H   0  0  0  0  0  0  0  0  0  0  0  0
   18.0215   74.0289   -4.2990 H   0  0  0  0  0  0  0  0  0  0  0  0
   19.0426   71.1695   -9.9353 O   0  0  0  0  0  0  0  0  0  0  0  0
   19.8403   70.4852   -8.9868 C   0  0  0  0  0  0  0  0  0  0  0  0
   19.2849   70.8804  -10.8294 H   0  0  0  0  0  0  0  0  0  0  0  0
 25 28  1  0
 25 24  1  0
 25 26  1  1
 25 27  2  0
  1  4  1  0
  1 24  1  0
  1  2  1  6
  1  3  2  0
  6 11  1  0
  6 12  1  0
 29 36  1  0
 29 37  1  0
  9  7  1  1
  7 13  1  0
 10  8  1  1
  8 14  1  0
 37 28  1  1
  4  5  1  0
 33 30  1  6
 30 38  1  0
 34 31  1  1
 31 39  1  0
 35 32  1  1
 32 40  1  0
 41 42  1  0
 41 43  1  0
 15 19  2  0
 16 22  2  0
 12 17  1  6
 17 19  1  0
 17 20  1  0
 18 19  1  0
 18 22  1  0
 18 23  1  0
  9 10  1  0
  9 11  1  0
 10 12  1  0
 11  5  1  6
 33 34  1  0
 33 35  1  0
 34 36  1  0
 35 37  1  0
 36 42  1  6
 20 21  2  0
 21 22  1  0
M  CHG  2   2  -1  26  -1
M  END
>  <COMPND>  (3) 
    8629 

>  <AUTHOR>  (3) 
    GENERATED BY OPEN BABEL 3.1.1

>  <MASTER>  (3) 
        0    0    0    0    0    0    0    0   58    0   58    0

>  <minimizedAffinity>  (3) 
-7.34265

>  <CNNscore>  (3) 
0.5477275848

>  <CNNaffinity>  (3) 
4.0733704567

>  <CNN_VS>  (3) 
2.2310974598

>  <CNNaffinity_variance>  (3) 
0.0592408590

$$$$
4
     RDKit          3D

 43 45  0  0  0  0  0  0  0  0999 V2000
   21.9247   71.4135   -2.9086 P   0  0  2  0  0  0  0  0  0  0  0  0
   23.4654   71.0901   -3.2814 O   0  0  0  0  0  0  0  0  0  0  0  0
   20.9547   70.3088   -3.2087 O   0  0  0  0  0  0  0  0  0  0  0  0
   21.6341   72.8235   -3.6470 O   0  0  0  0  0  0  0  0  0  0  0  0
   20.2877   73.2124   -3.8562 C   0  0  0  0  0  0  0  0  0  0  0  0
   19.6998   72.2463   -5.9763 O   0  0  0  0  0  0  0  0  0  0  0  0
   19.1613   75.0499   -6.8932 O   0  0  0  0  0  0  0  0  0  0  0  0
   16.6568   74.1010   -6.3800 O   0  0  0  0  0  0  0  0  0  0  0  0
   18.9361   74.4602   -5.6138 C   0  0  1  0  0  0  0  0  0  0  0  0
   17.7367   73.5369   -5.6642 C   0  0  2  0  0  0  0  0  0  0  0  0
   20.0754   73.4867   -5.3387 C   0  0  1  0  0  0  0  0  0  0  0  0
   18.3131   72.3086   -6.3478 C   0  0  2  0  0  0  0  0  0  0  0  0
   18.4464   75.6758   -7.0909 H   0  0  0  0  0  0  0  0  0  0  0  0
   16.3250   74.8789   -5.9050 H   0  0  0  0  0  0  0  0  0  0  0  0
   16.0579   71.1882   -7.6272 O   0  0  0  0  0  0  0  0  0  0  0  0
   15.9078   67.6553   -4.6713 O   0  0  0  0  0  0  0  0  0  0  0  0
   17.6645   71.0964   -5.9338 N   0  0  0  0  0  0  0  0  0  0  0  0
   15.9851   69.4299   -6.1545 N   0  0  0  0  0  0  0  0  0  0  0  0
   16.5381   70.6200   -6.6442 C   0  0  0  0  0  0  0  0  0  0  0  0
   18.1460   70.3933   -4.8349 C   0  0  0  0  0  0  0  0  0  0  0  0
   17.6065   69.2606   -4.3798 C   0  0  0  0  0  0  0  0  0  0  0  0
   16.4267   68.6951   -5.0656 C   0  0  0  0  0  0  0  0  0  0  0  0
   15.1993   69.0792   -6.6333 H   0  0  0  0  0  0  0  0  0  0  0  0
   22.0079   71.8305   -1.3491 O   0  0  0  0  0  0  0  0  0  0  0  0
   22.2947   73.2573   -0.6456 P   0  0  2  0  0  0  0  0  0  0  0  0
   20.8252   73.9277   -0.5536 O   0  0  0  0  0  0  0  0  0  0  0  0
   23.3160   74.0988   -1.3547 O   0  0  0  0  0  0  0  0  0  0  0  0
   22.6723   72.8918    0.8805 O   0  0  0  0  0  0  0  0  0  0  0  0
   22.6155   70.7616    1.9176 O   0  0  0  0  0  0  0  0  0  0  0  0
   21.6246   73.1054    5.1696 O   0  0  0  0  0  0  0  0  0  0  0  0
   24.2254   71.8950    5.0340 O   0  0  0  0  0  0  0  0  0  0  0  0
   20.5893   73.7622    2.5473 O   0  0  0  0  0  0  0  0  0  0  0  0
   22.2937   72.7917    3.9452 C   0  0  1  0  0  0  0  0  0  0  0  0
   23.1473   71.5423    4.1718 C   0  0  1  0  0  0  0  0  0  0  0  0
   21.2516   72.5408    2.8569 C   0  0  2  0  0  0  0  0  0  0  0  0
   23.6836   70.9896    2.8443 C   0  0  1  0  0  0  0  0  0  0  0  0
   21.8829   71.9458    1.5969 C   0  0  1  0  0  0  0  0  0  0  0  0
   22.2806   73.2663    5.8647 H   0  0  0  0  0  0  0  0  0  0  0  0
   23.8732   72.2430    5.8683 H   0  0  0  0  0  0  0  0  0  0  0  0
   20.1936   74.1285    3.3530 H   0  0  0  0  0  0  0  0  0  0  0  0
   24.0862   69.1472    4.3114 O   0  0  0  0  0  0  0  0  0  0  0  0
   24.4055   69.6567    3.0297 C   0  0  0  0  0  0  0  0  0  0  0  0
   24.5384   68.2988    4.4433 H   0  0  0  0  0  0  0  0  0  0  0  0
 25 28  1  0
 25 24  1  0
 25 26  1  1
 25 27  2  0
  1  4  1  0
  1 24  1  0
  1  2  1  6
  1  3  2  0
  6 11  1  0
  6 12  1  0
 29 36  1  0
 29 37  1  0
  9  7  1  6
  7 13  1  0
 10  8  1  6
  8 14  1  0
 37 28  1  1
  4  5  1  0
 33 30  1  1
 30 38  1  0
 34 31  1  1
 31 39  1  0
 35 32  1  6
 32 40  1  0
 41 42  1  0
 41 43  1  0
 15 19  2  0
 16 22  2  0
 12 17  1  1
 17 19  1  0
 17 20  1  0
 18 19  1  0
 18 22  1  0
 18 23  1  0
  9 10  1  0
  9 11  1  0
 10 12  1  0
 11  5  1  1
 33 34  1  0
 33 35  1  0
 34 36  1  0
 35 37  1  0
 36 42  1  1
 20 21  2  0
 21 22  1  0
M  CHG  2   2  -1  26  -1
M  END
>  <COMPND>  (4) 
    8629 

>  <AUTHOR>  (4) 
    GENERATED BY OPEN BABEL 3.1.1

>  <MASTER>  (4) 
        0    0    0    0    0    0    0    0   58    0   58    0

>  <minimizedAffinity>  (4) 
-7.22648

>  <CNNscore>  (4) 
0.5298495293

>  <CNNaffinity>  (4) 
4.0665597916

>  <CNN_VS>  (4) 
2.1546647549

>  <CNNaffinity_variance>  (4) 
0.0608793683

$$$$
5
     RDKit          3D

 43 45  0  0  0  0  0  0  0  0999 V2000
   22.6495   72.8099   -3.1986 P   0  0  2  0  0  0  0  0  0  0  0  0
   23.7639   72.6166   -4.3554 O   0  0  0  0  0  0  0  0  0  0  0  0
   22.6008   74.1797   -2.5882 O   0  0  0  0  0  0  0  0  0  0  0  0
   22.9399   71.5932   -2.1723 O   0  0  0  0  0  0  0  0  0  0  0  0
   23.0225   71.8819   -0.7875 C   0  0  0  0  0  0  0  0  0  0  0  0
   23.1704   70.5943    1.2358 O   0  0  0  0  0  0  0  0  0  0  0  0
   20.3942   69.6470    0.6144 O   0  0  0  0  0  0  0  0  0  0  0  0
   19.9593   71.5612    2.5074 O   0  0  0  0  0  0  0  0  0  0  0  0
   20.9807   70.9287    0.3937 C   0  0  1  0  0  0  0  0  0  0  0  0
   21.1151   71.6780    1.7029 C   0  0  2  0  0  0  0  0  0  0  0  0
   22.4366   70.7165   -0.0023 C   0  0  1  0  0  0  0  0  0  0  0  0
   22.3301   71.0106    2.3246 C   0  0  2  0  0  0  0  0  0  0  0  0
   19.4638   69.7568    0.8682 H   0  0  0  0  0  0  0  0  0  0  0  0
   19.2143   72.0012    2.0691 H   0  0  0  0  0  0  0  0  0  0  0  0
   23.7290   70.2133    4.6452 O   0  0  0  0  0  0  0  0  0  0  0  0
   25.1382   74.5180    5.4966 O   0  0  0  0  0  0  0  0  0  0  0  0
   23.0714   71.9022    3.1713 N   0  0  0  0  0  0  0  0  0  0  0  0
   24.4297   72.3573    5.0671 N   0  0  0  0  0  0  0  0  0  0  0  0
   23.7376   71.4006    4.3137 C   0  0  0  0  0  0  0  0  0  0  0  0
   23.1328   73.2574    2.8655 C   0  0  0  0  0  0  0  0  0  0  0  0
   23.7961   74.1569    3.5950 C   0  0  0  0  0  0  0  0  0  0  0  0
   24.5193   73.7153    4.8050 C   0  0  0  0  0  0  0  0  0  0  0  0
   24.9011   72.0311    5.8678 H   0  0  0  0  0  0  0  0  0  0  0  0
   21.2831   72.3502   -3.9298 O   0  0  0  0  0  0  0  0  0  0  0  0
   19.9921   71.5578   -3.3656 P   0  0  2  0  0  0  0  0  0  0  0  0
   19.7035   72.2807   -1.9473 O   0  0  0  0  0  0  0  0  0  0  0  0
   20.1734   70.0702   -3.2769 O   0  0  0  0  0  0  0  0  0  0  0  0
   18.7763   72.0278   -4.3175 O   0  0  0  0  0  0  0  0  0  0  0  0
   19.4794   72.1757   -6.5759 O   0  0  0  0  0  0  0  0  0  0  0  0
   15.7330   73.8739   -6.9387 O   0  0  0  0  0  0  0  0  0  0  0  0
   16.2020   71.2384   -7.9792 O   0  0  0  0  0  0  0  0  0  0  0  0
   17.3491   74.4272   -4.6016 O   0  0  0  0  0  0  0  0  0  0  0  0
   16.7090   72.9716   -6.4107 C   0  0  1  0  0  0  0  0  0  0  0  0
   17.2436   72.1164   -7.5613 C   0  0  1  0  0  0  0  0  0  0  0  0
   17.8379   73.7766   -5.7696 C   0  0  2  0  0  0  0  0  0  0  0  0
   18.4775   71.3135   -7.1279 C   0  0  1  0  0  0  0  0  0  0  0  0
   19.0357   72.8912   -5.4213 C   0  0  1  0  0  0  0  0  0  0  0  0
   15.0132   73.3691   -7.3468 H   0  0  0  0  0  0  0  0  0  0  0  0
   15.4287   71.7579   -8.2497 H   0  0  0  0  0  0  0  0  0  0  0  0
   16.5912   74.9848   -4.8355 H   0  0  0  0  0  0  0  0  0  0  0  0
   18.6145   71.1196   -9.5054 O   0  0  0  0  0  0  0  0  0  0  0  0
   19.1205   70.5758   -8.3002 C   0  0  0  0  0  0  0  0  0  0  0  0
   19.0152   70.6599  -10.2602 H   0  0  0  0  0  0  0  0  0  0  0  0
 25 28  1  0
 25 24  1  0
 25 26  1  1
 25 27  2  0
  1  4  1  0
  1 24  1  0
  1  2  1  6
  1  3  2  0
  6 11  1  0
  6 12  1  0
 29 36  1  0
 29 37  1  0
  9  7  1  1
  7 13  1  0
 10  8  1  1
  8 14  1  0
 37 28  1  1
  4  5  1  0
 33 30  1  6
 30 38  1  0
 34 31  1  1
 31 39  1  0
 35 32  1  1
 32 40  1  0
 41 42  1  0
 41 43  1  0
 15 19  2  0
 16 22  2  0
 12 17  1  1
 17 19  1  0
 17 20  1  0
 18 19  1  0
 18 22  1  0
 18 23  1  0
  9 10  1  0
  9 11  1  0
 10 12  1  0
 11  5  1  1
 33 34  1  0
 33 35  1  0
 34 36  1  0
 35 37  1  0
 36 42  1  6
 20 21  2  0
 21 22  1  0
M  CHG  2   2  -1  26  -1
M  END
>  <COMPND>  (5) 
    8629 

>  <AUTHOR>  (5) 
    GENERATED BY OPEN BABEL 3.1.1

>  <MASTER>  (5) 
        0    0    0    0    0    0    0    0   58    0   58    0

>  <minimizedAffinity>  (5) 
-7.67373

>  <CNNscore>  (5) 
0.4275541306

>  <CNNaffinity>  (5) 
3.9168345928

>  <CNN_VS>  (5) 
1.6746587753

>  <CNNaffinity_variance>  (5) 
0.0787572488

$$$$
6
     RDKit          3D

 43 45  0  0  0  0  0  0  0  0999 V2000
   20.6381   70.7742   -0.4368 P   0  0  2  0  0  0  0  0  0  0  0  0
   20.5732   69.4979    0.5552 O   0  0  0  0  0  0  0  0  0  0  0  0
   21.4513   70.5692   -1.6809 O   0  0  0  0  0  0  0  0  0  0  0  0
   21.1143   71.9875    0.5220 O   0  0  0  0  0  0  0  0  0  0  0  0
   21.4266   71.6985    1.8736 C   0  0  0  0  0  0  0  0  0  0  0  0
   23.3926   73.0202    2.2756 O   0  0  0  0  0  0  0  0  0  0  0  0
   24.7459   70.4461    3.0060 O   0  0  0  0  0  0  0  0  0  0  0  0
   24.1795   71.5320    5.4425 O   0  0  0  0  0  0  0  0  0  0  0  0
   23.3998   70.8560    3.2410 C   0  0  1  0  0  0  0  0  0  0  0  0
   23.3493   71.8820    4.3539 C   0  0  2  0  0  0  0  0  0  0  0  0
   22.9400   71.6693    2.0375 C   0  0  1  0  0  0  0  0  0  0  0  0
   23.8165   73.1409    3.6433 C   0  0  2  0  0  0  0  0  0  0  0  0
   25.0614   69.9246    3.7612 H   0  0  0  0  0  0  0  0  0  0  0  0
   23.8408   70.7254    5.8613 H   0  0  0  0  0  0  0  0  0  0  0  0
   25.0494   74.7159    5.6376 O   0  0  0  0  0  0  0  0  0  0  0  0
   21.5274   77.6872    5.7266 O   0  0  0  0  0  0  0  0  0  0  0  0
   23.2443   74.3316    4.2055 N   0  0  0  0  0  0  0  0  0  0  0  0
   23.2948   76.1942    5.6802 N   0  0  0  0  0  0  0  0  0  0  0  0
   23.9450   75.0490    5.2029 C   0  0  0  0  0  0  0  0  0  0  0  0
   22.0018   74.7769    3.7675 C   0  0  0  0  0  0  0  0  0  0  0  0
   21.3948   75.8702    4.2337 C   0  0  0  0  0  0  0  0  0  0  0  0
   22.0596   76.6768    5.2775 C   0  0  0  0  0  0  0  0  0  0  0  0
   23.7639   76.7097    6.3758 H   0  0  0  0  0  0  0  0  0  0  0  0
   19.0789   71.1097   -0.6999 O   0  0  0  0  0  0  0  0  0  0  0  0
   18.0743   70.6348   -1.8739 P   0  0  2  0  0  0  0  0  0  0  0  0
   16.6680   71.3179   -1.4577 O   0  0  0  0  0  0  0  0  0  0  0  0
   18.0081   69.1469   -2.0626 O   0  0  0  0  0  0  0  0  0  0  0  0
   18.5549   71.4538   -3.1789 O   0  0  0  0  0  0  0  0  0  0  0  0
   18.2087   70.3413   -5.2427 O   0  0  0  0  0  0  0  0  0  0  0  0
   20.7895   73.3032   -6.5145 O   0  0  0  0  0  0  0  0  0  0  0  0
   18.0118   73.4389   -7.2314 O   0  0  0  0  0  0  0  0  0  0  0  0
   21.1907   72.0471   -3.9375 O   0  0  0  0  0  0  0  0  0  0  0  0
   19.7357   72.7435   -5.7262 C   0  0  1  0  0  0  0  0  0  0  0  0
   18.6242   72.2811   -6.6704 C   0  0  1  0  0  0  0  0  0  0  0  0
   20.2843   71.5652   -4.9237 C   0  0  2  0  0  0  0  0  0  0  0  0
   17.5832   71.4330   -5.9272 C   0  0  1  0  0  0  0  0  0  0  0  0
   19.1631   70.7596   -4.2649 C   0  0  1  0  0  0  0  0  0  0  0  0
   20.4479   74.0522   -7.0261 H   0  0  0  0  0  0  0  0  0  0  0  0
   18.6799   73.9659   -7.6973 H   0  0  0  0  0  0  0  0  0  0  0  0
   21.8958   72.5551   -4.3672 H   0  0  0  0  0  0  0  0  0  0  0  0
   17.0832   70.8531   -8.1905 O   0  0  0  0  0  0  0  0  0  0  0  0
   16.5516   70.8307   -6.8786 C   0  0  0  0  0  0  0  0  0  0  0  0
   16.4375   70.4724   -8.8069 H   0  0  0  0  0  0  0  0  0  0  0  0
 25 28  1  0
 25 24  1  0
 25 26  1  1
 25 27  2  0
  1  4  1  0
  1 24  1  0
  1  2  1  1
  1  3  2  0
  6 11  1  0
  6 12  1  0
 29 36  1  0
 29 37  1  0
  9  7  1  6
  7 13  1  0
 10  8  1  1
  8 14  1  0
 37 28  1  1
  4  5  1  0
 33 30  1  6
 30 38  1  0
 34 31  1  1
 31 39  1  0
 35 32  1  1
 32 40  1  0
 41 42  1  0
 41 43  1  0
 15 19  2  0
 16 22  2  0
 12 17  1  1
 17 19  1  0
 17 20  1  0
 18 19  1  0
 18 22  1  0
 18 23  1  0
  9 10  1  0
  9 11  1  0
 10 12  1  0
 11  5  1  1
 33 34  1  0
 33 35  1  0
 34 36  1  0
 35 37  1  0
 36 42  1  6
 20 21  2  0
 21 22  1  0
M  CHG  2   2  -1  26  -1
M  END
>  <COMPND>  (6) 
    8629 

>  <AUTHOR>  (6) 
    GENERATED BY OPEN BABEL 3.1.1

>  <MASTER>  (6) 
        0    0    0    0    0    0    0    0   58    0   58    0

>  <minimizedAffinity>  (6) 
-6.89225

>  <CNNscore>  (6) 
0.4037058055

>  <CNNaffinity>  (6) 
3.9889705181

>  <CNN_VS>  (6) 
1.6103705168

>  <CNNaffinity_variance>  (6) 
0.0883751661

$$$$
7
     RDKit          3D

 43 45  0  0  0  0  0  0  0  0999 V2000
   21.7594   71.4529   -2.3437 P   0  0  2  0  0  0  0  0  0  0  0  0
   22.9744   72.5016   -2.5470 O   0  0  0  0  0  0  0  0  0  0  0  0
   22.1731   70.0134   -2.2536 O   0  0  0  0  0  0  0  0  0  0  0  0
   20.7300   71.8146   -3.5384 O   0  0  0  0  0  0  0  0  0  0  0  0
   20.3328   73.1648   -3.7029 C   0  0  0  0  0  0  0  0  0  0  0  0
   19.7760   72.2264   -5.8437 O   0  0  0  0  0  0  0  0  0  0  0  0
   19.3192   75.0471   -6.7522 O   0  0  0  0  0  0  0  0  0  0  0  0
   16.7835   74.1483   -6.3065 O   0  0  0  0  0  0  0  0  0  0  0  0
   19.0507   74.4534   -5.4831 C   0  0  1  0  0  0  0  0  0  0  0  0
   17.8336   73.5562   -5.5693 C   0  0  2  0  0  0  0  0  0  0  0  0
   20.1623   73.4540   -5.1880 C   0  0  1  0  0  0  0  0  0  0  0  0
   18.4003   72.3208   -6.2480 C   0  0  2  0  0  0  0  0  0  0  0  0
   18.6227   75.6895   -6.9623 H   0  0  0  0  0  0  0  0  0  0  0  0
   16.4569   74.9297   -5.8338 H   0  0  0  0  0  0  0  0  0  0  0  0
   16.0903   71.3148   -7.5245 O   0  0  0  0  0  0  0  0  0  0  0  0
   15.8608   67.7051   -4.6681 O   0  0  0  0  0  0  0  0  0  0  0  0
   17.7165   71.1198   -5.8588 N   0  0  0  0  0  0  0  0  0  0  0  0
   15.9780   69.5182   -6.1014 N   0  0  0  0  0  0  0  0  0  0  0  0
   16.5645   70.7025   -6.5654 C   0  0  0  0  0  0  0  0  0  0  0  0
   18.1890   70.3694   -4.7877 C   0  0  0  0  0  0  0  0  0  0  0  0
   17.6174   69.2429   -4.3568 C   0  0  0  0  0  0  0  0  0  0  0  0
   16.4094   68.7377   -5.0405 C   0  0  0  0  0  0  0  0  0  0  0  0
   15.1740   69.2083   -6.5781 H   0  0  0  0  0  0  0  0  0  0  0  0
   21.0059   72.0197   -1.0307 O   0  0  0  0  0  0  0  0  0  0  0  0
   20.2170   71.2537    0.1541 P   0  0  2  0  0  0  0  0  0  0  0  0
   19.5214   70.0077   -0.6083 O   0  0  0  0  0  0  0  0  0  0  0  0
   19.2617   72.1228    0.9195 O   0  0  0  0  0  0  0  0  0  0  0  0
   21.3790   70.5845    1.0525 O   0  0  0  0  0  0  0  0  0  0  0  0
   22.7027   72.2550    2.0886 O   0  0  0  0  0  0  0  0  0  0  0  0
   24.9461   68.9309    3.0727 O   0  0  0  0  0  0  0  0  0  0  0  0
   23.4107   70.2577    5.1050 O   0  0  0  0  0  0  0  0  0  0  0  0
   23.6933   69.1083    0.4692 O   0  0  0  0  0  0  0  0  0  0  0  0
   23.7444   69.6615    2.8128 C   0  0  1  0  0  0  0  0  0  0  0  0
   23.6569   70.8132    3.8162 C   0  0  1  0  0  0  0  0  0  0  0  0
   23.7849   70.1963    1.3825 C   0  0  2  0  0  0  0  0  0  0  0  0
   22.5411   71.7957    3.4357 C   0  0  1  0  0  0  0  0  0  0  0  0
   22.6616   71.2020    1.1236 C   0  0  1  0  0  0  0  0  0  0  0  0
   24.9266   68.5882    3.9792 H   0  0  0  0  0  0  0  0  0  0  0  0
   24.1222   69.6388    5.3329 H   0  0  0  0  0  0  0  0  0  0  0  0
   24.4099   68.4790    0.6432 H   0  0  0  0  0  0  0  0  0  0  0  0
   21.3409   73.0378    5.0868 O   0  0  0  0  0  0  0  0  0  0  0  0
   22.5383   73.0326    4.3314 C   0  0  0  0  0  0  0  0  0  0  0  0
   21.3254   73.8193    5.6618 H   0  0  0  0  0  0  0  0  0  0  0  0
 25 28  1  0
 25 24  1  0
 25 26  1  6
 25 27  2  0
  1  4  1  0
  1 24  1  0
  1  2  1  6
  1  3  2  0
  6 11  1  0
  6 12  1  0
 29 36  1  0
 29 37  1  0
  9  7  1  6
  7 13  1  0
 10  8  1  6
  8 14  1  0
 37 28  1  1
  4  5  1  0
 33 30  1  1
 30 38  1  0
 34 31  1  1
 31 39  1  0
 35 32  1  6
 32 40  1  0
 41 42  1  0
 41 43  1  0
 15 19  2  0
 16 22  2  0
 12 17  1  1
 17 19  1  0
 17 20  1  0
 18 19  1  0
 18 22  1  0
 18 23  1  0
  9 10  1  0
  9 11  1  0
 10 12  1  0
 11  5  1  1
 33 34  1  0
 33 35  1  0
 34 36  1  0
 35 37  1  0
 36 42  1  1
 20 21  2  0
 21 22  1  0
M  CHG  2   2  -1  26  -1
M  END
>  <COMPND>  (7) 
    8629 

>  <AUTHOR>  (7) 
    GENERATED BY OPEN BABEL 3.1.1

>  <MASTER>  (7) 
        0    0    0    0    0    0    0    0   58    0   58    0

>  <minimizedAffinity>  (7) 
-8.20073

>  <CNNscore>  (7) 
0.4026505351

>  <CNNaffinity>  (7) 
4.1221570969

>  <CNN_VS>  (7) 
1.6597887278

>  <CNNaffinity_variance>  (7) 
0.2203434408

$$$$
8
     RDKit          3D

 43 45  0  0  0  0  0  0  0  0999 V2000
   19.9900   71.6788   -0.9924 P   0  0  2  0  0  0  0  0  0  0  0  0
   19.1014   71.5705    0.3553 O   0  0  0  0  0  0  0  0  0  0  0  0
   19.9379   73.0112   -1.6804 O   0  0  0  0  0  0  0  0  0  0  0  0
   19.5101   70.4119   -1.8770 O   0  0  0  0  0  0  0  0  0  0  0  0
   19.2076   70.6188   -3.2457 C   0  0  0  0  0  0  0  0  0  0  0  0
   17.0626   70.0259   -2.3396 O   0  0  0  0  0  0  0  0  0  0  0  0
   16.1054   69.9056   -5.1786 O   0  0  0  0  0  0  0  0  0  0  0  0
   15.1816   72.3312   -4.3422 O   0  0  0  0  0  0  0  0  0  0  0  0
   17.0494   70.7932   -4.5817 C   0  0  1  0  0  0  0  0  0  0  0  0
   16.3382   71.8132   -3.7171 C   0  0  2  0  0  0  0  0  0  0  0  0
   17.8483   70.0047   -3.5514 C   0  0  1  0  0  0  0  0  0  0  0  0
   16.0170   71.0025   -2.4730 C   0  0  2  0  0  0  0  0  0  0  0  0
   15.5834   70.3865   -5.8406 H   0  0  0  0  0  0  0  0  0  0  0  0
   15.4383   72.8386   -5.1279 H   0  0  0  0  0  0  0  0  0  0  0  0
   15.0063   70.1359    0.0181 O   0  0  0  0  0  0  0  0  0  0  0  0
   15.9242   74.1905    2.0079 O   0  0  0  0  0  0  0  0  0  0  0  0
   15.9800   71.8109   -1.2870 N   0  0  0  0  0  0  0  0  0  0  0  0
   15.4644   72.1554    1.0069 N   0  0  0  0  0  0  0  0  0  0  0  0
   15.4511   71.2808   -0.0872 C   0  0  0  0  0  0  0  0  0  0  0  0
   16.4650   73.1138   -1.3210 C   0  0  0  0  0  0  0  0  0  0  0  0
   16.4693   73.9355   -0.2693 C   0  0  0  0  0  0  0  0  0  0  0  0
   15.9343   73.4591    1.0225 C   0  0  0  0  0  0  0  0  0  0  0  0
   15.1004   71.8079    1.8534 H   0  0  0  0  0  0  0  0  0  0  0  0
   21.4625   71.2365   -0.4933 O   0  0  0  0  0  0  0  0  0  0  0  0
   21.9267   70.2011    0.6579 P   0  0  2  0  0  0  0  0  0  0  0  0
   23.4956   69.9694    0.3380 O   0  0  0  0  0  0  0  0  0  0  0  0
   21.1137   68.9403    0.7158 O   0  0  0  0  0  0  0  0  0  0  0  0
   21.9120   71.0694    2.0184 O   0  0  0  0  0  0  0  0  0  0  0  0
   21.4091   73.3834    1.9218 O   0  0  0  0  0  0  0  0  0  0  0  0
   23.3722   73.2859    5.5532 O   0  0  0  0  0  0  0  0  0  0  0  0
   20.5247   73.6540    5.4902 O   0  0  0  0  0  0  0  0  0  0  0  0
   24.3084   71.6433    3.3612 O   0  0  0  0  0  0  0  0  0  0  0  0
   22.5273   72.7825    4.5149 C   0  0  1  0  0  0  0  0  0  0  0  0
   21.3566   73.7514    4.3374 C   0  0  1  0  0  0  0  0  0  0  0  0
   23.3351   72.6729    3.2231 C   0  0  2  0  0  0  0  0  0  0  0  0
   20.5545   73.4248    3.0705 C   0  0  1  0  0  0  0  0  0  0  0  0
   22.4364   72.3947    2.0169 C   0  0  1  0  0  0  0  0  0  0  0  0
   22.8655   73.3574    6.3764 H   0  0  0  0  0  0  0  0  0  0  0  0
   21.0434   73.8621    6.2832 H   0  0  0  0  0  0  0  0  0  0  0  0
   24.8711   71.8312    4.1279 H   0  0  0  0  0  0  0  0  0  0  0  0
   18.3390   74.1666    3.5709 O   0  0  0  0  0  0  0  0  0  0  0  0
   19.4789   74.4717    2.7888 C   0  0  0  0  0  0  0  0  0  0  0  0
   17.6462   74.8249    3.4022 H   0  0  0  0  0  0  0  0  0  0  0  0
 25 28  1  0
 25 24  1  0
 25 26  1  6
 25 27  2  0
  1  4  1  0
  1 24  1  0
  1  2  1  1
  1  3  2  0
  6 11  1  0
  6 12  1  0
 29 36  1  0
 29 37  1  0
  9  7  1  1
  7 13  1  0
 10  8  1  6
  8 14  1  0
 37 28  1  1
  4  5  1  0
 33 30  1  1
 30 38  1  0
 34 31  1  1
 31 39  1  0
 35 32  1  1
 32 40  1  0
 41 42  1  0
 41 43  1  0
 15 19  2  0
 16 22  2  0
 12 17  1  1
 17 19  1  0
 17 20  1  0
 18 19  1  0
 18 22  1  0
 18 23  1  0
  9 10  1  0
  9 11  1  0
 10 12  1  0
 11  5  1  1
 33 34  1  0
 33 35  1  0
 34 36  1  0
 35 37  1  0
 36 42  1  6
 20 21  2  0
 21 22  1  0
M  CHG  2   2  -1  26  -1
M  END
>  <COMPND>  (8) 
    8629 

>  <AUTHOR>  (8) 
    GENERATED BY OPEN BABEL 3.1.1

>  <MASTER>  (8) 
        0    0    0    0    0    0    0    0   58    0   58    0

>  <minimizedAffinity>  (8) 
-6.43050

>  <CNNscore>  (8) 
0.3388561606

>  <CNNaffinity>  (8) 
3.9302132130

>  <CNN_VS>  (8) 
1.3317769766

>  <CNNaffinity_variance>  (8) 
0.2274363339

$$$$
9
     RDKit          3D

 43 45  0  0  0  0  0  0  0  0999 V2000
   22.7715   72.9115   -3.2625 P   0  0  2  0  0  0  0  0  0  0  0  0
   23.7456   71.7388   -3.8041 O   0  0  0  0  0  0  0  0  0  0  0  0
   23.4342   74.2422   -3.0588 O   0  0  0  0  0  0  0  0  0  0  0  0
   22.0763   72.2648   -1.9524 O   0  0  0  0  0  0  0  0  0  0  0  0
   22.8706   72.0600   -0.7970 C   0  0  0  0  0  0  0  0  0  0  0  0
   23.0724   70.7462    1.2047 O   0  0  0  0  0  0  0  0  0  0  0  0
   20.3183   69.7311    0.5924 O   0  0  0  0  0  0  0  0  0  0  0  0
   19.8471   71.6031    2.5185 O   0  0  0  0  0  0  0  0  0  0  0  0
   20.8668   71.0319    0.3866 C   0  0  1  0  0  0  0  0  0  0  0  0
   20.9920   71.7645    1.7061 C   0  0  2  0  0  0  0  0  0  0  0  0
   22.3245   70.8667   -0.0250 C   0  0  1  0  0  0  0  0  0  0  0  0
   22.2306   71.1220    2.3070 C   0  0  2  0  0  0  0  0  0  0  0  0
   19.3876   69.8108    0.8558 H   0  0  0  0  0  0  0  0  0  0  0  0
   19.0862   72.0287    2.0935 H   0  0  0  0  0  0  0  0  0  0  0  0
   23.4216   70.3822    4.7590 O   0  0  0  0  0  0  0  0  0  0  0  0
   24.9810   74.6553    5.5009 O   0  0  0  0  0  0  0  0  0  0  0  0
   22.9543   72.0210    3.1611 N   0  0  0  0  0  0  0  0  0  0  0  0
   24.1973   72.5105    5.1263 N   0  0  0  0  0  0  0  0  0  0  0  0
   23.5128   71.5491    4.3718 C   0  0  0  0  0  0  0  0  0  0  0  0
   23.1048   73.3542    2.7953 C   0  0  0  0  0  0  0  0  0  0  0  0
   23.7593   74.2587    3.5266 C   0  0  0  0  0  0  0  0  0  0  0  0
   24.3728   73.8473    4.8058 C   0  0  0  0  0  0  0  0  0  0  0  0
   24.5944   72.2047    5.9740 H   0  0  0  0  0  0  0  0  0  0  0  0
   21.5715   72.9163   -4.3456 O   0  0  0  0  0  0  0  0  0  0  0  0
   21.4784   73.5637   -5.8238 P   0  0  2  0  0  0  0  0  0  0  0  0
   22.7740   72.9551   -6.5778 O   0  0  0  0  0  0  0  0  0  0  0  0
   21.4028   75.0631   -5.8352 O   0  0  0  0  0  0  0  0  0  0  0  0
   20.2204   72.8253   -6.5146 O   0  0  0  0  0  0  0  0  0  0  0  0
   19.0793   70.9503   -5.6207 O   0  0  0  0  0  0  0  0  0  0  0  0
   18.4325   70.2615   -9.6404 O   0  0  0  0  0  0  0  0  0  0  0  0
   16.2596   71.1511   -7.9866 O   0  0  0  0  0  0  0  0  0  0  0  0
   20.9811   71.3024   -8.7456 O   0  0  0  0  0  0  0  0  0  0  0  0
   18.6011   71.0599   -8.4659 C   0  0  1  0  0  0  0  0  0  0  0  0
   17.5026   70.6848   -7.4692 C   0  0  1  0  0  0  0  0  0  0  0  0
   19.9819   70.7883   -7.8717 C   0  0  2  0  0  0  0  0  0  0  0  0
   17.7722   71.3010   -6.0899 C   0  0  1  0  0  0  0  0  0  0  0  0
   20.1283   71.4035   -6.4787 C   0  0  1  0  0  0  0  0  0  0  0  0
   17.5579   70.4296  -10.0229 H   0  0  0  0  0  0  0  0  0  0  0  0
   16.1017   70.7549   -8.8580 H   0  0  0  0  0  0  0  0  0  0  0  0
   20.8779   70.9051   -9.6238 H   0  0  0  0  0  0  0  0  0  0  0  0
   15.6535   71.6756   -5.0506 O   0  0  0  0  0  0  0  0  0  0  0  0
   16.7758   70.8126   -5.0407 C   0  0  0  0  0  0  0  0  0  0  0  0
   15.0107   71.3767   -4.3879 H   0  0  0  0  0  0  0  0  0  0  0  0
 25 28  1  0
 25 24  1  0
 25 26  1  6
 25 27  2  0
  1  4  1  0
  1 24  1  0
  1  2  1  6
  1  3  2  0
  6 11  1  0
  6 12  1  0
 29 36  1  0
 29 37  1  0
  9  7  1  1
  7 13  1  0
 10  8  1  1
  8 14  1  0
 37 28  1  6
  4  5  1  0
 33 30  1  6
 30 38  1  0
 34 31  1  6
 31 39  1  0
 35 32  1  6
 32 40  1  0
 41 42  1  0
 41 43  1  0
 15 19  2  0
 16 22  2  0
 12 17  1  1
 17 19  1  0
 17 20  1  0
 18 19  1  0
 18 22  1  0
 18 23  1  0
  9 10  1  0
  9 11  1  0
 10 12  1  0
 11  5  1  1
 33 34  1  0
 33 35  1  0
 34 36  1  0
 35 37  1  0
 36 42  1  1
 20 21  2  0
 21 22  1  0
M  CHG  2   2  -1  26  -1
M  END
>  <COMPND>  (9) 
    8629 

>  <AUTHOR>  (9) 
    GENERATED BY OPEN BABEL 3.1.1

>  <MASTER>  (9) 
        0    0    0    0    0    0    0    0   58    0   58    0

>  <minimizedAffinity>  (9) 
-8.58244

>  <CNNscore>  (9) 
0.3378395438

>  <CNNaffinity>  (9) 
3.8183600903

>  <CNN_VS>  (9) 
1.2899930477

>  <CNNaffinity_variance>  (9) 
0.2089005262

$$$$
10
     RDKit          3D

 43 45  0  0  0  0  0  0  0  0999 V2000
   20.0077   71.0994   -0.7321 P   0  0  2  0  0  0  0  0  0  0  0  0
   21.0584   70.2980   -1.6654 O   0  0  0  0  0  0  0  0  0  0  0  0
   19.8853   72.5649   -1.0299 O   0  0  0  0  0  0  0  0  0  0  0  0
   20.4619   70.7241    0.7748 O   0  0  0  0  0  0  0  0  0  0  0  0
   20.9794   71.7525    1.6009 C   0  0  0  0  0  0  0  0  0  0  0  0
   23.0219   72.8024    2.3077 O   0  0  0  0  0  0  0  0  0  0  0  0
   24.2750   70.0874    2.0860 O   0  0  0  0  0  0  0  0  0  0  0  0
   23.8575   70.3320    4.7698 O   0  0  0  0  0  0  0  0  0  0  0  0
   22.9607   70.4423    2.5126 C   0  0  1  0  0  0  0  0  0  0  0  0
   23.0037   71.0474    3.9003 C   0  0  2  0  0  0  0  0  0  0  0  0
   22.4948   71.6205    1.6662 C   0  0  1  0  0  0  0  0  0  0  0  0
   23.5041   72.4534    3.6156 C   0  0  2  0  0  0  0  0  0  0  0  0
   24.5938   69.3367    2.6121 H   0  0  0  0  0  0  0  0  0  0  0  0
   23.4963   69.4445    4.9199 H   0  0  0  0  0  0  0  0  0  0  0  0
   25.1474   74.0363    5.2804 O   0  0  0  0  0  0  0  0  0  0  0  0
   21.5100   76.0974    7.2204 O   0  0  0  0  0  0  0  0  0  0  0  0
   23.0130   73.4121    4.5648 N   0  0  0  0  0  0  0  0  0  0  0  0
   23.3349   75.0614    6.2449 N   0  0  0  0  0  0  0  0  0  0  0  0
   23.9225   74.1551    5.3531 C   0  0  0  0  0  0  0  0  0  0  0  0
   21.6436   73.6082    4.7065 C   0  0  0  0  0  0  0  0  0  0  0  0
   21.0993   74.4755    5.5625 C   0  0  0  0  0  0  0  0  0  0  0  0
   21.9799   75.2913    6.4233 C   0  0  0  0  0  0  0  0  0  0  0  0
   23.9490   75.5898    6.8047 H   0  0  0  0  0  0  0  0  0  0  0  0
   18.6401   70.2583   -0.9195 O   0  0  0  0  0  0  0  0  0  0  0  0
   17.7452   69.9659   -2.2336 P   0  0  2  0  0  0  0  0  0  0  0  0
   16.3124   70.6173   -1.8592 O   0  0  0  0  0  0  0  0  0  0  0  0
   17.6837   68.5183   -2.6266 O   0  0  0  0  0  0  0  0  0  0  0  0
   18.3528   70.9414   -3.3668 O   0  0  0  0  0  0  0  0  0  0  0  0
   18.2228   73.0731   -4.3944 O   0  0  0  0  0  0  0  0  0  0  0  0
   16.8805   70.7461   -7.5303 O   0  0  0  0  0  0  0  0  0  0  0  0
   19.4986   71.9199   -7.6549 O   0  0  0  0  0  0  0  0  0  0  0  0
   16.1022   70.1016   -4.8176 O   0  0  0  0  0  0  0  0  0  0  0  0
   17.6725   71.0494   -6.3788 C   0  0  1  0  0  0  0  0  0  0  0  0
   18.5167   72.2869   -6.6898 C   0  0  1  0  0  0  0  0  0  0  0  0
   16.7475   71.3139   -5.1922 C   0  0  2  0  0  0  0  0  0  0  0  0
   19.1901   72.8309   -5.4227 C   0  0  1  0  0  0  0  0  0  0  0  0
   17.5093   71.8989   -4.0016 C   0  0  1  0  0  0  0  0  0  0  0  0
   17.4618   70.5766   -8.2871 H   0  0  0  0  0  0  0  0  0  0  0  0
   19.0603   71.5775   -8.4498 H   0  0  0  0  0  0  0  0  0  0  0  0
   15.6233   69.7415   -5.5797 H   0  0  0  0  0  0  0  0  0  0  0  0
   21.0239   73.9044   -6.5152 O   0  0  0  0  0  0  0  0  0  0  0  0
   19.9085   74.1538   -5.6797 C   0  0  0  0  0  0  0  0  0  0  0  0
   21.4907   74.7376   -6.6876 H   0  0  0  0  0  0  0  0  0  0  0  0
 25 28  1  0
 25 24  1  0
 25 26  1  1
 25 27  2  0
  1  4  1  0
  1 24  1  0
  1  2  1  6
  1  3  2  0
  6 11  1  0
  6 12  1  0
 29 36  1  0
 29 37  1  0
  9  7  1  6
  7 13  1  0
 10  8  1  1
  8 14  1  0
 37 28  1  6
  4  5  1  0
 33 30  1  6
 30 38  1  0
 34 31  1  6
 31 39  1  0
 35 32  1  1
 32 40  1  0
 41 42  1  0
 41 43  1  0
 15 19  2  0
 16 22  2  0
 12 17  1  1
 17 19  1  0
 17 20  1  0
 18 19  1  0
 18 22  1  0
 18 23  1  0
  9 10  1  0
  9 11  1  0
 10 12  1  0
 11  5  1  1
 33 34  1  0
 33 35  1  0
 34 36  1  0
 35 37  1  0
 36 42  1  6
 20 21  2  0
 21 22  1  0
M  CHG  2   2  -1  26  -1
M  END
>  <COMPND>  (10) 
    8629 

>  <AUTHOR>  (10) 
    GENERATED BY OPEN BABEL 3.1.1

>  <MASTER>  (10) 
        0    0    0    0    0    0    0    0   58    0   58    0

>  <minimizedAffinity>  (10) 
-7.43571

>  <CNNscore>  (10) 
0.3371163905

>  <CNNaffinity>  (10) 
3.8872313499

>  <CNN_VS>  (10) 
1.3104493618

>  <CNNaffinity_variance>  (10) 
0.1499424875

$$$$
11
     RDKit          3D

 43 45  0  0  0  0  0  0  0  0999 V2000
   21.5347   70.7541   -2.6815 P   0  0  2  0  0  0  0  0  0  0  0  0
   22.3803   71.7042   -3.6814 O   0  0  0  0  0  0  0  0  0  0  0  0
   22.3264   69.6623   -2.0238 O   0  0  0  0  0  0  0  0  0  0  0  0
   20.2778   70.2687   -3.5774 O   0  0  0  0  0  0  0  0  0  0  0  0
   19.4864   71.2522   -4.2210 C   0  0  0  0  0  0  0  0  0  0  0  0
   17.2764   72.1900   -4.3213 O   0  0  0  0  0  0  0  0  0  0  0  0
   16.2929   69.4846   -3.4820 O   0  0  0  0  0  0  0  0  0  0  0  0
   15.8242   69.4804   -6.1685 O   0  0  0  0  0  0  0  0  0  0  0  0
   17.3847   69.8228   -4.3357 C   0  0  1  0  0  0  0  0  0  0  0  0
   16.8738   70.2919   -5.6820 C   0  0  2  0  0  0  0  0  0  0  0  0
   18.0370   71.0851   -3.7857 C   0  0  1  0  0  0  0  0  0  0  0  0
   16.4216   71.7086   -5.3713 C   0  0  2  0  0  0  0  0  0  0  0  0
   15.8607   68.6811   -3.8130 H   0  0  0  0  0  0  0  0  0  0  0  0
   16.1620   68.5898   -6.3512 H   0  0  0  0  0  0  0  0  0  0  0  0
   18.2348   71.3232   -7.5024 O   0  0  0  0  0  0  0  0  0  0  0  0
   16.7825   75.1241   -9.6670 O   0  0  0  0  0  0  0  0  0  0  0  0
   16.5383   72.5819   -6.5049 N   0  0  0  0  0  0  0  0  0  0  0  0
   17.5101   73.2160   -8.5786 N   0  0  0  0  0  0  0  0  0  0  0  0
   17.4816   72.2990   -7.5201 C   0  0  0  0  0  0  0  0  0  0  0  0
   15.7229   73.7041   -6.6020 C   0  0  0  0  0  0  0  0  0  0  0  0
   15.7633   74.5695   -7.6173 C   0  0  0  0  0  0  0  0  0  0  0  0
   16.7211   74.3466   -8.7196 C   0  0  0  0  0  0  0  0  0  0  0  0
   18.1597   73.0395   -9.2973 H   0  0  0  0  0  0  0  0  0  0  0  0
   20.8645   71.8098   -1.6571 O   0  0  0  0  0  0  0  0  0  0  0  0
   19.8829   71.5851   -0.3927 P   0  0  2  0  0  0  0  0  0  0  0  0
   19.6753   69.9809   -0.3646 O   0  0  0  0  0  0  0  0  0  0  0  0
   18.6069   72.3736   -0.4565 O   0  0  0  0  0  0  0  0  0  0  0  0
   20.8001   71.9002    0.8975 O   0  0  0  0  0  0  0  0  0  0  0  0
   22.7906   73.1565    1.1729 O   0  0  0  0  0  0  0  0  0  0  0  0
   23.6658   69.9798    3.6615 O   0  0  0  0  0  0  0  0  0  0  0  0
   23.0417   72.5419    4.7989 O   0  0  0  0  0  0  0  0  0  0  0  0
   22.2608   69.5199    1.1727 O   0  0  0  0  0  0  0  0  0  0  0  0
   22.8216   70.9465    3.0306 C   0  0  1  0  0  0  0  0  0  0  0  0
   23.3187   72.3413    3.4157 C   0  0  1  0  0  0  0  0  0  0  0  0
   22.8849   70.7522    1.5167 C   0  0  2  0  0  0  0  0  0  0  0  0
   22.6357   73.4255    2.5712 C   0  0  1  0  0  0  0  0  0  0  0  0
   22.2196   71.9100    0.7704 C   0  0  1  0  0  0  0  0  0  0  0  0
   23.6298   70.0974    4.6229 H   0  0  0  0  0  0  0  0  0  0  0  0
   23.4783   71.8505    5.3209 H   0  0  0  0  0  0  0  0  0  0  0  0
   22.6911   68.7950    1.6514 H   0  0  0  0  0  0  0  0  0  0  0  0
   24.5216   74.6473    3.3833 O   0  0  0  0  0  0  0  0  0  0  0  0
   23.2295   74.8089    2.8278 C   0  0  0  0  0  0  0  0  0  0  0  0
   24.9119   75.5197    3.5515 H   0  0  0  0  0  0  0  0  0  0  0  0
 25 28  1  0
 25 24  1  0
 25 26  1  1
 25 27  2  0
  1  4  1  0
  1 24  1  0
  1  2  1  6
  1  3  2  0
  6 11  1  0
  6 12  1  0
 29 36  1  0
 29 37  1  0
  9  7  1  1
  7 13  1  0
 10  8  1  1
  8 14  1  0
 37 28  1  1
  4  5  1  0
 33 30  1  1
 30 38  1  0
 34 31  1  1
 31 39  1  0
 35 32  1  1
 32 40  1  0
 41 42  1  0
 41 43  1  0
 15 19  2  0
 16 22  2  0
 12 17  1  6
 17 19  1  0
 17 20  1  0
 18 19  1  0
 18 22  1  0
 18 23  1  0
  9 10  1  0
  9 11  1  0
 10 12  1  0
 11  5  1  6
 33 34  1  0
 33 35  1  0
 34 36  1  0
 35 37  1  0
 36 42  1  6
 20 21  2  0
 21 22  1  0
M  CHG  2   2  -1  26  -1
M  END
>  <COMPND>  (11) 
    8629 

>  <AUTHOR>  (11) 
    GENERATED BY OPEN BABEL 3.1.1

>  <MASTER>  (11) 
        0    0    0    0    0    0    0    0   58    0   58    0

>  <minimizedAffinity>  (11) 
-7.45431

>  <CNNscore>  (11) 
0.3122617006

>  <CNNaffinity>  (11) 
3.9608218670

>  <CNN_VS>  (11) 
1.2368129492

>  <CNNaffinity_variance>  (11) 
0.0937657878

$$$$
12
     RDKit          3D

 43 45  0  0  0  0  0  0  0  0999 V2000
   22.4837   72.9586   -3.2648 P   0  0  2  0  0  0  0  0  0  0  0  0
   23.5961   72.5785   -4.3763 O   0  0  0  0  0  0  0  0  0  0  0  0
   22.4818   74.3965   -2.8359 O   0  0  0  0  0  0  0  0  0  0  0  0
   22.7245   71.8747   -2.0879 O   0  0  0  0  0  0  0  0  0  0  0  0
   22.7033   72.3208   -0.7431 C   0  0  0  0  0  0  0  0  0  0  0  0
   21.8937   70.0612   -0.6308 O   0  0  0  0  0  0  0  0  0  0  0  0
   21.6791   70.4836    2.3300 O   0  0  0  0  0  0  0  0  0  0  0  0
   23.9971   69.0658    2.0983 O   0  0  0  0  0  0  0  0  0  0  0  0
   22.6578   70.9772    1.4169 C   0  0  1  0  0  0  0  0  0  0  0  0
   23.5991   69.8652    1.0032 C   0  0  2  0  0  0  0  0  0  0  0  0
   21.9540   71.3025    0.1053 C   0  0  1  0  0  0  0  0  0  0  0  0
   22.7588   69.0997   -0.0047 C   0  0  2  0  0  0  0  0  0  0  0  0
   22.1050   70.2691    3.1754 H   0  0  0  0  0  0  0  0  0  0  0  0
   24.5288   69.5977    2.7108 H   0  0  0  0  0  0  0  0  0  0  0  0
   22.8947   66.3077   -0.4101 O   0  0  0  0  0  0  0  0  0  0  0  0
   25.8599   66.7753   -3.9072 O   0  0  0  0  0  0  0  0  0  0  0  0
   23.5581   68.4646   -1.0143 N   0  0  0  0  0  0  0  0  0  0  0  0
   24.3709   66.5428   -2.1512 N   0  0  0  0  0  0  0  0  0  0  0  0
   23.5563   67.0552   -1.1333 C   0  0  0  0  0  0  0  0  0  0  0  0
   24.3320   69.2373   -1.8732 C   0  0  0  0  0  0  0  0  0  0  0  0
   25.1044   68.7332   -2.8378 C   0  0  0  0  0  0  0  0  0  0  0  0
   25.1594   67.2695   -3.0292 C   0  0  0  0  0  0  0  0  0  0  0  0
   24.3859   65.5634   -2.2526 H   0  0  0  0  0  0  0  0  0  0  0  0
   21.1051   72.4573   -3.9439 O   0  0  0  0  0  0  0  0  0  0  0  0
   19.8480   71.6519   -3.3243 P   0  0  2  0  0  0  0  0  0  0  0  0
   19.5731   72.4139   -1.9238 O   0  0  0  0  0  0  0  0  0  0  0  0
   20.0697   70.1730   -3.1915 O   0  0  0  0  0  0  0  0  0  0  0  0
   18.5993   72.0596   -4.2621 O   0  0  0  0  0  0  0  0  0  0  0  0
   19.3107   72.3503   -6.5040 O   0  0  0  0  0  0  0  0  0  0  0  0
   15.4279   73.7093   -6.8623 O   0  0  0  0  0  0  0  0  0  0  0  0
   16.1493   71.1661   -7.9846 O   0  0  0  0  0  0  0  0  0  0  0  0
   16.9602   74.3264   -4.4851 O   0  0  0  0  0  0  0  0  0  0  0  0
   16.4771   72.8824   -6.3514 C   0  0  1  0  0  0  0  0  0  0  0  0
   17.1008   72.1207   -7.5225 C   0  0  1  0  0  0  0  0  0  0  0  0
   17.5198   73.7647   -5.6674 C   0  0  2  0  0  0  0  0  0  0  0  0
   18.3987   71.4198   -7.0990 C   0  0  1  0  0  0  0  0  0  0  0  0
   18.7902   72.9813   -5.3323 C   0  0  1  0  0  0  0  0  0  0  0  0
   14.7623   73.1551   -7.2974 H   0  0  0  0  0  0  0  0  0  0  0  0
   15.3344   71.6216   -8.2484 H   0  0  0  0  0  0  0  0  0  0  0  0
   16.1568   74.8199   -4.7107 H   0  0  0  0  0  0  0  0  0  0  0  0
   18.6533   71.3977   -9.4747 O   0  0  0  0  0  0  0  0  0  0  0  0
   19.1199   70.7856   -8.2864 C   0  0  0  0  0  0  0  0  0  0  0  0
   19.1039   71.0043  -10.2388 H   0  0  0  0  0  0  0  0  0  0  0  0
 25 28  1  0
 25 24  1  0
 25 26  1  1
 25 27  2  0
  1  4  1  0
  1 24  1  0
  1  2  1  6
  1  3  2  0
  6 11  1  0
  6 12  1  0
 29 36  1  0
 29 37  1  0
  9  7  1  1
  7 13  1  0
 10  8  1  1
  8 14  1  0
 37 28  1  1
  4  5  1  0
 33 30  1  6
 30 38  1  0
 34 31  1  1
 31 39  1  0
 35 32  1  1
 32 40  1  0
 41 42  1  0
 41 43  1  0
 15 19  2  0
 16 22  2  0
 12 17  1  6
 17 19  1  0
 17 20  1  0
 18 19  1  0
 18 22  1  0
 18 23  1  0
  9 10  1  0
  9 11  1  0
 10 12  1  0
 11  5  1  6
 33 34  1  0
 33 35  1  0
 34 36  1  0
 35 37  1  0
 36 42  1  6
 20 21  2  0
 21 22  1  0
M  CHG  2   2  -1  26  -1
M  END
>  <COMPND>  (12) 
    8629 

>  <AUTHOR>  (12) 
    GENERATED BY OPEN BABEL 3.1.1

>  <MASTER>  (12) 
        0    0    0    0    0    0    0    0   58    0   58    0

>  <minimizedAffinity>  (12) 
-7.96828

>  <CNNscore>  (12) 
0.3048583269

>  <CNNaffinity>  (12) 
4.1786198616

>  <CNN_VS>  (12) 
1.2738870382

>  <CNNaffinity_variance>  (12) 
0.2625362277

$$$$
13
     RDKit          3D

 43 45  0  0  0  0  0  0  0  0999 V2000
   22.7393   73.1720   -3.3084 P   0  0  2  0  0  0  0  0  0  0  0  0
   23.7643   72.6313   -4.4373 O   0  0  0  0  0  0  0  0  0  0  0  0
   22.7486   74.6584   -3.1036 O   0  0  0  0  0  0  0  0  0  0  0  0
   23.0920   72.2809   -2.0048 O   0  0  0  0  0  0  0  0  0  0  0  0
   22.4766   72.6128   -0.7723 C   0  0  0  0  0  0  0  0  0  0  0  0
   22.8255   71.0591    1.0272 O   0  0  0  0  0  0  0  0  0  0  0  0
   20.0108   70.1487    0.5379 O   0  0  0  0  0  0  0  0  0  0  0  0
   19.7412   71.7705    2.7136 O   0  0  0  0  0  0  0  0  0  0  0  0
   20.5634   71.4608    0.4465 C   0  0  1  0  0  0  0  0  0  0  0  0
   20.8148   72.0230    1.8301 C   0  0  2  0  0  0  0  0  0  0  0  0
   21.9770   71.3370   -0.1082 C   0  0  1  0  0  0  0  0  0  0  0  0
   22.0885   71.3015    2.2367 C   0  0  2  0  0  0  0  0  0  0  0  0
   19.1078   70.2021    0.8895 H   0  0  0  0  0  0  0  0  0  0  0  0
   18.9545   72.2513    2.4123 H   0  0  0  0  0  0  0  0  0  0  0  0
   23.3521   70.2835    4.5486 O   0  0  0  0  0  0  0  0  0  0  0  0
   25.1734   74.3887    5.5837 O   0  0  0  0  0  0  0  0  0  0  0  0
   22.8992   72.0820    3.1283 N   0  0  0  0  0  0  0  0  0  0  0  0
   24.2581   72.3283    5.0620 N   0  0  0  0  0  0  0  0  0  0  0  0
   23.4878   71.4747    4.2620 C   0  0  0  0  0  0  0  0  0  0  0  0
   23.1041   73.4339    2.8745 C   0  0  0  0  0  0  0  0  0  0  0  0
   23.8403   74.2344    3.6480 C   0  0  0  0  0  0  0  0  0  0  0  0
   24.4903   73.6784    4.8524 C   0  0  0  0  0  0  0  0  0  0  0  0
   24.6776   71.9273    5.8576 H   0  0  0  0  0  0  0  0  0  0  0  0
   21.3187   72.5679   -3.7880 O   0  0  0  0  0  0  0  0  0  0  0  0
   19.8513   73.2412   -3.8676 P   0  0  2  0  0  0  0  0  0  0  0  0
   19.9586   74.2134   -5.1563 O   0  0  0  0  0  0  0  0  0  0  0  0
   19.4216   73.9312   -2.6054 O   0  0  0  0  0  0  0  0  0  0  0  0
   18.8776   72.0439   -4.3401 O   0  0  0  0  0  0  0  0  0  0  0  0
   16.9638   73.1045   -5.2508 O   0  0  0  0  0  0  0  0  0  0  0  0
   15.8438   69.1640   -5.7691 O   0  0  0  0  0  0  0  0  0  0  0  0
   16.6031   70.7341   -8.0508 O   0  0  0  0  0  0  0  0  0  0  0  0
   17.2667   69.9579   -3.3765 O   0  0  0  0  0  0  0  0  0  0  0  0
   16.7587   70.2616   -5.7112 C   0  0  1  0  0  0  0  0  0  0  0  0
   16.3417   71.2896   -6.7649 C   0  0  1  0  0  0  0  0  0  0  0  0
   16.7136   70.8760   -4.3134 C   0  0  2  0  0  0  0  0  0  0  0  0
   17.1074   72.6075   -6.5865 C   0  0  1  0  0  0  0  0  0  0  0  0
   17.4642   72.2077   -4.2572 C   0  0  1  0  0  0  0  0  0  0  0  0
   15.8679   68.7691   -6.6539 H   0  0  0  0  0  0  0  0  0  0  0  0
   16.1142   69.9021   -8.1504 H   0  0  0  0  0  0  0  0  0  0  0  0
   16.7827   69.1191   -3.4216 H   0  0  0  0  0  0  0  0  0  0  0  0
   17.3231   73.6245   -8.7379 O   0  0  0  0  0  0  0  0  0  0  0  0
   16.5957   73.6978   -7.5255 C   0  0  0  0  0  0  0  0  0  0  0  0
   17.0079   74.3125   -9.3454 H   0  0  0  0  0  0  0  0  0  0  0  0
 25 28  1  0
 25 24  1  0
 25 26  1  6
 25 27  2  0
  1  4  1  0
  1 24  1  0
  1  2  1  6
  1  3  2  0
  6 11  1  0
  6 12  1  0
 29 36  1  0
 29 37  1  0
  9  7  1  1
  7 13  1  0
 10  8  1  1
  8 14  1  0
 37 28  1  6
  4  5  1  0
 33 30  1  1
 30 38  1  0
 34 31  1  6
 31 39  1  0
 35 32  1  1
 32 40  1  0
 41 42  1  0
 41 43  1  0
 15 19  2  0
 16 22  2  0
 12 17  1  1
 17 19  1  0
 17 20  1  0
 18 19  1  0
 18 22  1  0
 18 23  1  0
  9 10  1  0
  9 11  1  0
 10 12  1  0
 11  5  1  1
 33 34  1  0
 33 35  1  0
 34 36  1  0
 35 37  1  0
 36 42  1  6
 20 21  2  0
 21 22  1  0
M  CHG  2   2  -1  26  -1
M  END
>  <COMPND>  (13) 
    8629 

>  <AUTHOR>  (13) 
    GENERATED BY OPEN BABEL 3.1.1

>  <MASTER>  (13) 
        0    0    0    0    0    0    0    0   58    0   58    0

>  <minimizedAffinity>  (13) 
-7.66176

>  <CNNscore>  (13) 
0.2947833240

>  <CNNaffinity>  (13) 
3.7580420971

>  <CNN_VS>  (13) 
1.1078081131

>  <CNNaffinity_variance>  (13) 
0.1739393026

$$$$
14
     RDKit          3D

 43 45  0  0  0  0  0  0  0  0999 V2000
   22.7171   73.0212   -3.4314 P   0  0  2  0  0  0  0  0  0  0  0  0
   24.0441   73.0128   -4.3569 O   0  0  0  0  0  0  0  0  0  0  0  0
   22.2852   74.3770   -2.9552 O   0  0  0  0  0  0  0  0  0  0  0  0
   23.0451   71.9409   -2.2724 O   0  0  0  0  0  0  0  0  0  0  0  0
   22.7201   72.2673   -0.9324 C   0  0  0  0  0  0  0  0  0  0  0  0
   22.9592   70.7864    0.9447 O   0  0  0  0  0  0  0  0  0  0  0  0
   20.1555   69.8975    0.3618 O   0  0  0  0  0  0  0  0  0  0  0  0
   19.8123   71.6139    2.4529 O   0  0  0  0  0  0  0  0  0  0  0  0
   20.7335   71.1963    0.2420 C   0  0  1  0  0  0  0  0  0  0  0  0
   20.9298   71.8128    1.6113 C   0  0  2  0  0  0  0  0  0  0  0  0
   22.1691   71.0284   -0.2400 C   0  0  1  0  0  0  0  0  0  0  0  0
   22.1710   71.0906    2.1070 C   0  0  2  0  0  0  0  0  0  0  0  0
   19.2381   69.9790    0.6681 H   0  0  0  0  0  0  0  0  0  0  0  0
   19.0485   72.0930    2.0953 H   0  0  0  0  0  0  0  0  0  0  0  0
   23.7078   70.0677    4.2448 O   0  0  0  0  0  0  0  0  0  0  0  0
   25.1278   74.2753    5.4782 O   0  0  0  0  0  0  0  0  0  0  0  0
   22.9524   71.8962    3.0025 N   0  0  0  0  0  0  0  0  0  0  0  0
   24.4137   72.1636    4.8571 N   0  0  0  0  0  0  0  0  0  0  0  0
   23.6874   71.2839    4.0443 C   0  0  0  0  0  0  0  0  0  0  0  0
   22.9849   73.2773    2.8429 C   0  0  0  0  0  0  0  0  0  0  0  0
   23.6815   74.1023    3.6273 C   0  0  0  0  0  0  0  0  0  0  0  0
   24.4767   73.5430    4.7394 C   0  0  0  0  0  0  0  0  0  0  0  0
   24.9331   71.7596    5.5898 H   0  0  0  0  0  0  0  0  0  0  0  0
   21.6300   72.2522   -4.3478 O   0  0  0  0  0  0  0  0  0  0  0  0
   20.3083   71.4121   -3.9473 P   0  0  2  0  0  0  0  0  0  0  0  0
   19.6509   72.2969   -2.7630 O   0  0  0  0  0  0  0  0  0  0  0  0
   20.5770   69.9824   -3.5761 O   0  0  0  0  0  0  0  0  0  0  0  0
   19.3088   71.6013   -5.2004 O   0  0  0  0  0  0  0  0  0  0  0  0
   17.2181   71.0153   -4.2504 O   0  0  0  0  0  0  0  0  0  0  0  0
   15.9290   72.2423   -7.9764 O   0  0  0  0  0  0  0  0  0  0  0  0
   15.4133   73.8925   -5.6832 O   0  0  0  0  0  0  0  0  0  0  0  0
   18.4027   70.7609   -7.7199 O   0  0  0  0  0  0  0  0  0  0  0  0
   16.7576   72.2671   -6.8110 C   0  0  1  0  0  0  0  0  0  0  0  0
   15.8692   72.5453   -5.5968 C   0  0  1  0  0  0  0  0  0  0  0  0
   17.4573   70.9169   -6.6672 C   0  0  2  0  0  0  0  0  0  0  0  0
   16.6366   72.3238   -4.2865 C   0  0  1  0  0  0  0  0  0  0  0  0
   18.1485   70.7808   -5.3093 C   0  0  1  0  0  0  0  0  0  0  0  0
   15.4822   73.0969   -8.0738 H   0  0  0  0  0  0  0  0  0  0  0  0
   14.9308   74.0191   -6.5153 H   0  0  0  0  0  0  0  0  0  0  0  0
   17.9528   70.8489   -8.5741 H   0  0  0  0  0  0  0  0  0  0  0  0
   14.3913   72.5784   -3.5101 O   0  0  0  0  0  0  0  0  0  0  0  0
   15.7282   72.4421   -3.0646 C   0  0  0  0  0  0  0  0  0  0  0  0
   13.8017   72.6544   -2.7431 H   0  0  0  0  0  0  0  0  0  0  0  0
 25 28  1  0
 25 24  1  0
 25 26  1  1
 25 27  2  0
  1  4  1  0
  1 24  1  0
  1  2  1  6
  1  3  2  0
  6 11  1  0
  6 12  1  0
 29 36  1  0
 29 37  1  0
  9  7  1  1
  7 13  1  0
 10  8  1  1
  8 14  1  0
 37 28  1  6
  4  5  1  0
 33 30  1  6
 30 38  1  0
 34 31  1  6
 31 39  1  0
 35 32  1  6
 32 40  1  0
 41 42  1  0
 41 43  1  0
 15 19  2  0
 16 22  2  0
 12 17  1  1
 17 19  1  0
 17 20  1  0
 18 19  1  0
 18 22  1  0
 18 23  1  0
  9 10  1  0
  9 11  1  0
 10 12  1  0
 11  5  1  1
 33 34  1  0
 33 35  1  0
 34 36  1  0
 35 37  1  0
 36 42  1  1
 20 21  2  0
 21 22  1  0
M  CHG  2   2  -1  26  -1
M  END
>  <COMPND>  (14) 
    8629 

>  <AUTHOR>  (14) 
    GENERATED BY OPEN BABEL 3.1.1

>  <MASTER>  (14) 
        0    0    0    0    0    0    0    0   58    0   58    0

>  <minimizedAffinity>  (14) 
-7.56307

>  <CNNscore>  (14) 
0.2922751606

>  <CNNaffinity>  (14) 
3.8376984596

>  <CNN_VS>  (14) 
1.1216639280

>  <CNNaffinity_variance>  (14) 
0.0912026763

$$$$
15
     RDKit          3D

 43 45  0  0  0  0  0  0  0  0999 V2000
   20.3626   74.7680   -3.3487 P   0  0  2  0  0  0  0  0  0  0  0  0
   20.4660   74.6859   -1.7362 O   0  0  0  0  0  0  0  0  0  0  0  0
   20.7522   76.0899   -3.9422 O   0  0  0  0  0  0  0  0  0  0  0  0
   18.8559   74.2716   -3.6671 O   0  0  0  0  0  0  0  0  0  0  0  0
   18.2146   73.4173   -2.7361 C   0  0  0  0  0  0  0  0  0  0  0  0
   16.8202   73.0866   -4.6648 O   0  0  0  0  0  0  0  0  0  0  0  0
   14.8504   71.8211   -2.7915 O   0  0  0  0  0  0  0  0  0  0  0  0
   16.0383   69.6593   -3.9542 O   0  0  0  0  0  0  0  0  0  0  0  0
   16.2760   71.7700   -2.7711 C   0  0  1  0  0  0  0  0  0  0  0  0
   16.7850   70.8557   -3.8659 C   0  0  2  0  0  0  0  0  0  0  0  0
   16.8007   73.1277   -3.2211 C   0  0  1  0  0  0  0  0  0  0  0  0
   16.6376   71.7294   -5.1000 C   0  0  2  0  0  0  0  0  0  0  0  0
   14.4922   70.9650   -2.5074 H   0  0  0  0  0  0  0  0  0  0  0  0
   16.1649   69.1385   -3.1459 H   0  0  0  0  0  0  0  0  0  0  0  0
   16.0253   70.7738   -7.6865 O   0  0  0  0  0  0  0  0  0  0  0  0
   20.4750   70.5998   -8.8747 O   0  0  0  0  0  0  0  0  0  0  0  0
   17.6166   71.4264   -6.1056 N   0  0  0  0  0  0  0  0  0  0  0  0
   18.2414   70.6881   -8.2761 N   0  0  0  0  0  0  0  0  0  0  0  0
   17.2041   70.9511   -7.3722 C   0  0  0  0  0  0  0  0  0  0  0  0
   18.9686   71.6017   -5.8316 C   0  0  0  0  0  0  0  0  0  0  0  0
   19.9455   71.3451   -6.7040 C   0  0  0  0  0  0  0  0  0  0  0  0
   19.5997   70.8451   -8.0503 C   0  0  0  0  0  0  0  0  0  0  0  0
   17.9779   70.3557   -9.1648 H   0  0  0  0  0  0  0  0  0  0  0  0
   21.2669   73.5195   -3.8349 O   0  0  0  0  0  0  0  0  0  0  0  0
   22.7839   73.1003   -3.4662 P   0  0  2  0  0  0  0  0  0  0  0  0
   23.4047   74.4602   -2.8476 O   0  0  0  0  0  0  0  0  0  0  0  0
   23.5622   72.5318   -4.6172 O   0  0  0  0  0  0  0  0  0  0  0  0
   22.6376   72.1072   -2.2023 O   0  0  0  0  0  0  0  0  0  0  0  0
   22.5745   69.7710   -2.5959 O   0  0  0  0  0  0  0  0  0  0  0  0
   20.8963   69.8502    1.1762 O   0  0  0  0  0  0  0  0  0  0  0  0
   23.5686   68.8556    0.8338 O   0  0  0  0  0  0  0  0  0  0  0  0
   20.2525   71.9273   -0.7345 O   0  0  0  0  0  0  0  0  0  0  0  0
   21.7766   70.2760    0.1325 C   0  0  1  0  0  0  0  0  0  0  0  0
   22.6740   69.0970   -0.2487 C   0  0  1  0  0  0  0  0  0  0  0  0
   20.9463   70.7295   -1.0668 C   0  0  2  0  0  0  0  0  0  0  0  0
   23.4582   69.3909   -1.5347 C   0  0  1  0  0  0  0  0  0  0  0  0
   21.8162   70.9471   -2.3062 C   0  0  1  0  0  0  0  0  0  0  0  0
   21.4172   69.5614    1.9409 H   0  0  0  0  0  0  0  0  0  0  0  0
   23.0608   68.6718    1.6397 H   0  0  0  0  0  0  0  0  0  0  0  0
   19.7052   71.7765    0.0513 H   0  0  0  0  0  0  0  0  0  0  0  0
   24.4708   68.3098   -3.4095 O   0  0  0  0  0  0  0  0  0  0  0  0
   24.2391   68.1714   -2.0197 C   0  0  0  0  0  0  0  0  0  0  0  0
   24.9672   67.5408   -3.7320 H   0  0  0  0  0  0  0  0  0  0  0  0
 25 28  1  0
 25 24  1  0
 25 26  1  1
 25 27  2  0
  1  4  1  0
  1 24  1  0
  1  2  1  1
  1  3  2  0
  6 11  1  0
  6 12  1  0
 29 36  1  0
 29 37  1  0
  9  7  1  6
  7 13  1  0
 10  8  1  6
  8 14  1  0
 37 28  1  1
  4  5  1  0
 33 30  1  1
 30 38  1  0
 34 31  1  1
 31 39  1  0
 35 32  1  1
 32 40  1  0
 41 42  1  0
 41 43  1  0
 15 19  2  0
 16 22  2  0
 12 17  1  6
 17 19  1  0
 17 20  1  0
 18 19  1  0
 18 22  1  0
 18 23  1  0
  9 10  1  0
  9 11  1  0
 10 12  1  0
 11  5  1  1
 33 34  1  0
 33 35  1  0
 34 36  1  0
 35 37  1  0
 36 42  1  6
 20 21  2  0
 21 22  1  0
M  CHG  2   2  -1  26  -1
M  END
>  <COMPND>  (15) 
    8629 

>  <AUTHOR>  (15) 
    GENERATED BY OPEN BABEL 3.1.1

>  <MASTER>  (15) 
        0    0    0    0    0    0    0    0   58    0   58    0

>  <minimizedAffinity>  (15) 
-7.53282

>  <CNNscore>  (15) 
0.2741948962

>  <CNNaffinity>  (15) 
4.0947947502

>  <CNN_VS>  (15) 
1.1227718592

>  <CNNaffinity_variance>  (15) 
0.4644951224

$$$$
16
     RDKit          3D

 43 45  0  0  0  0  0  0  0  0999 V2000
   22.3940   71.0965   -2.6508 P   0  0  2  0  0  0  0  0  0  0  0  0
   21.5713   72.3079   -1.9629 O   0  0  0  0  0  0  0  0  0  0  0  0
   23.4517   71.5222   -3.6261 O   0  0  0  0  0  0  0  0  0  0  0  0
   21.2394   70.1304   -3.2437 O   0  0  0  0  0  0  0  0  0  0  0  0
   19.9448   70.6696   -3.4464 C   0  0  0  0  0  0  0  0  0  0  0  0
   18.1044   70.4129   -4.9698 O   0  0  0  0  0  0  0  0  0  0  0  0
   20.0456   71.1256   -7.1411 O   0  0  0  0  0  0  0  0  0  0  0  0
   18.6962   73.4644   -6.7590 O   0  0  0  0  0  0  0  0  0  0  0  0
   19.9635   71.6214   -5.8058 C   0  0  1  0  0  0  0  0  0  0  0  0
   18.7916   72.5707   -5.6686 C   0  0  2  0  0  0  0  0  0  0  0  0
   19.5462   70.4680   -4.9020 C   0  0  1  0  0  0  0  0  0  0  0  0
   17.6159   71.6114   -5.5943 C   0  0  2  0  0  0  0  0  0  0  0  0
   20.3110   71.8443   -7.7369 H   0  0  0  0  0  0  0  0  0  0  0  0
   19.4668   74.0535   -6.7628 H   0  0  0  0  0  0  0  0  0  0  0  0
   15.7546   73.5199   -6.5276 O   0  0  0  0  0  0  0  0  0  0  0  0
   13.4933   73.5481   -2.5117 O   0  0  0  0  0  0  0  0  0  0  0  0
   16.5304   72.1347   -4.8139 N   0  0  0  0  0  0  0  0  0  0  0  0
   14.6301   73.5322   -4.5273 N   0  0  0  0  0  0  0  0  0  0  0  0
   15.6527   73.0906   -5.3765 C   0  0  0  0  0  0  0  0  0  0  0  0
   16.3444   71.6999   -3.5062 C   0  0  0  0  0  0  0  0  0  0  0  0
   15.3650   72.1319   -2.7090 C   0  0  0  0  0  0  0  0  0  0  0  0
   14.4046   73.1312   -3.2200 C   0  0  0  0  0  0  0  0  0  0  0  0
   14.0067   74.1986   -4.8976 H   0  0  0  0  0  0  0  0  0  0  0  0
   22.9465   70.2646   -1.3797 O   0  0  0  0  0  0  0  0  0  0  0  0
   22.2336   69.8547    0.0119 P   0  0  2  0  0  0  0  0  0  0  0  0
   22.9515   68.4574    0.3991 O   0  0  0  0  0  0  0  0  0  0  0  0
   20.7359   69.7817   -0.0621 O   0  0  0  0  0  0  0  0  0  0  0  0
   22.7992   70.9156    1.0887 O   0  0  0  0  0  0  0  0  0  0  0  0
   22.6158   71.0716    3.4464 O   0  0  0  0  0  0  0  0  0  0  0  0
   22.1542   75.0604    2.4832 O   0  0  0  0  0  0  0  0  0  0  0  0
   24.5967   74.1698    3.7035 O   0  0  0  0  0  0  0  0  0  0  0  0
   20.9679   73.0228    0.8038 O   0  0  0  0  0  0  0  0  0  0  0  0
   22.6794   73.7378    2.3404 C   0  0  1  0  0  0  0  0  0  0  0  0
   23.4176   73.3731    3.6298 C   0  0  1  0  0  0  0  0  0  0  0  0
   21.5268   72.7676    2.0879 C   0  0  2  0  0  0  0  0  0  0  0  0
   23.7778   71.8816    3.6591 C   0  0  1  0  0  0  0  0  0  0  0  0
   21.9826   71.3108    2.1879 C   0  0  1  0  0  0  0  0  0  0  0  0
   22.8810   75.6814    2.6433 H   0  0  0  0  0  0  0  0  0  0  0  0
   24.3554   75.1092    3.6837 H   0  0  0  0  0  0  0  0  0  0  0  0
   20.6830   73.9481    0.7533 H   0  0  0  0  0  0  0  0  0  0  0  0
   25.6239   72.1084    5.1590 O   0  0  0  0  0  0  0  0  0  0  0  0
   24.3735   71.4633    5.0016 C   0  0  0  0  0  0  0  0  0  0  0  0
   26.0146   71.8518    6.0093 H   0  0  0  0  0  0  0  0  0  0  0  0
 25 28  1  0
 25 24  1  0
 25 26  1  1
 25 27  2  0
  1  4  1  0
  1 24  1  0
  1  2  1  1
  1  3  2  0
  6 11  1  0
  6 12  1  0
 29 36  1  0
 29 37  1  0
  9  7  1  6
  7 13  1  0
 10  8  1  6
  8 14  1  0
 37 28  1  6
  4  5  1  0
 33 30  1  1
 30 38  1  0
 34 31  1  6
 31 39  1  0
 35 32  1  6
 32 40  1  0
 41 42  1  0
 41 43  1  0
 15 19  2  0
 16 22  2  0
 12 17  1  1
 17 19  1  0
 17 20  1  0
 18 19  1  0
 18 22  1  0
 18 23  1  0
  9 10  1  0
  9 11  1  0
 10 12  1  0
 11  5  1  1
 33 34  1  0
 33 35  1  0
 34 36  1  0
 35 37  1  0
 36 42  1  1
 20 21  2  0
 21 22  1  0
M  CHG  2   2  -1  26  -1
M  END
>  <COMPND>  (16) 
    8629 

>  <AUTHOR>  (16) 
    GENERATED BY OPEN BABEL 3.1.1

>  <MASTER>  (16) 
        0    0    0    0    0    0    0    0   58    0   58    0

>  <minimizedAffinity>  (16) 
-7.11342

>  <CNNscore>  (16) 
0.2535915971

>  <CNNaffinity>  (16) 
3.9397118092

>  <CNN_VS>  (16) 
0.9990777969

>  <CNNaffinity_variance>  (16) 
0.0303137060

$$$$
17
     RDKit          3D

 43 45  0  0  0  0  0  0  0  0999 V2000
   22.3114   72.7632   -3.3544 P   0  0  2  0  0  0  0  0  0  0  0  0
   22.3723   74.3455   -3.6859 O   0  0  0  0  0  0  0  0  0  0  0  0
   23.3589   71.9322   -4.0353 O   0  0  0  0  0  0  0  0  0  0  0  0
   20.7774   72.3585   -3.6722 O   0  0  0  0  0  0  0  0  0  0  0  0
   20.3669   71.0235   -3.4332 C   0  0  0  0  0  0  0  0  0  0  0  0
   18.2456   72.1034   -3.1049 O   0  0  0  0  0  0  0  0  0  0  0  0
   17.4392   69.6441   -1.5908 O   0  0  0  0  0  0  0  0  0  0  0  0
   16.2559   69.2626   -4.0180 O   0  0  0  0  0  0  0  0  0  0  0  0
   18.2674   69.7610   -2.7465 C   0  0  1  0  0  0  0  0  0  0  0  0
   17.4246   70.0554   -3.9699 C   0  0  2  0  0  0  0  0  0  0  0  0
   19.0864   71.0385   -2.6096 C   0  0  1  0  0  0  0  0  0  0  0  0
   17.1215   71.5338   -3.7953 C   0  0  2  0  0  0  0  0  0  0  0  0
   16.9067   68.8352   -1.6553 H   0  0  0  0  0  0  0  0  0  0  0  0
   16.5013   68.3310   -4.1298 H   0  0  0  0  0  0  0  0  0  0  0  0
   15.0318   73.3472   -4.3637 O   0  0  0  0  0  0  0  0  0  0  0  0
   16.5761   74.0688   -8.6457 O   0  0  0  0  0  0  0  0  0  0  0  0
   16.9536   72.2104   -5.0505 N   0  0  0  0  0  0  0  0  0  0  0  0
   15.8026   73.7051   -6.4953 N   0  0  0  0  0  0  0  0  0  0  0  0
   15.8698   73.1005   -5.2336 C   0  0  0  0  0  0  0  0  0  0  0  0
   17.8578   71.9888   -6.0836 C   0  0  0  0  0  0  0  0  0  0  0  0
   17.7789   72.5723   -7.2813 C   0  0  0  0  0  0  0  0  0  0  0  0
   16.6761   73.5163   -7.5545 C   0  0  0  0  0  0  0  0  0  0  0  0
   15.0556   74.3289   -6.6459 H   0  0  0  0  0  0  0  0  0  0  0  0
   22.3693   72.7276   -1.7394 O   0  0  0  0  0  0  0  0  0  0  0  0
   21.9070   73.8151   -0.6364 P   0  0  2  0  0  0  0  0  0  0  0  0
   20.2948   73.8182   -0.7715 O   0  0  0  0  0  0  0  0  0  0  0  0
   22.5446   75.1646   -0.7978 O   0  0  0  0  0  0  0  0  0  0  0  0
   22.1956   73.1045    0.7838 O   0  0  0  0  0  0  0  0  0  0  0  0
   21.8528   70.7948    0.3784 O   0  0  0  0  0  0  0  0  0  0  0  0
   22.9182   70.6143    4.3638 O   0  0  0  0  0  0  0  0  0  0  0  0
   24.7621   69.7008    2.3603 O   0  0  0  0  0  0  0  0  0  0  0  0
   21.2587   72.7858    3.4097 O   0  0  0  0  0  0  0  0  0  0  0  0
   22.9560   71.1202    3.0266 C   0  0  1  0  0  0  0  0  0  0  0  0
   23.3911   69.9859    2.0968 C   0  0  1  0  0  0  0  0  0  0  0  0
   21.5658   71.6253    2.6446 C   0  0  2  0  0  0  0  0  0  0  0  0
   23.1992   70.3723    0.6240 C   0  0  1  0  0  0  0  0  0  0  0  0
   21.4684   71.9347    1.1497 C   0  0  1  0  0  0  0  0  0  0  0  0
   23.7980   70.2924    4.6127 H   0  0  0  0  0  0  0  0  0  0  0  0
   24.8696   69.4586    3.2936 H   0  0  0  0  0  0  0  0  0  0  0  0
   21.3236   72.5768    4.3542 H   0  0  0  0  0  0  0  0  0  0  0  0
   22.8100   68.0565    0.1830 O   0  0  0  0  0  0  0  0  0  0  0  0
   23.4776   69.2011   -0.3155 C   0  0  0  0  0  0  0  0  0  0  0  0
   22.9779   67.3032   -0.4052 H   0  0  0  0  0  0  0  0  0  0  0  0
 25 28  1  0
 25 24  1  0
 25 26  1  6
 25 27  2  0
  1  4  1  0
  1 24  1  0
  1  2  1  6
  1  3  2  0
  6 11  1  0
  6 12  1  0
 29 36  1  0
 29 37  1  0
  9  7  1  1
  7 13  1  0
 10  8  1  1
  8 14  1  0
 37 28  1  1
  4  5  1  0
 33 30  1  1
 30 38  1  0
 34 31  1  6
 31 39  1  0
 35 32  1  1
 32 40  1  0
 41 42  1  0
 41 43  1  0
 15 19  2  0
 16 22  2  0
 12 17  1  6
 17 19  1  0
 17 20  1  0
 18 19  1  0
 18 22  1  0
 18 23  1  0
  9 10  1  0
  9 11  1  0
 10 12  1  0
 11  5  1  6
 33 34  1  0
 33 35  1  0
 34 36  1  0
 35 37  1  0
 36 42  1  6
 20 21  2  0
 21 22  1  0
M  CHG  2   2  -1  26  -1
M  END
>  <COMPND>  (17) 
    8629 

>  <AUTHOR>  (17) 
    GENERATED BY OPEN BABEL 3.1.1

>  <MASTER>  (17) 
        0    0    0    0    0    0    0    0   58    0   58    0

>  <minimizedAffinity>  (17) 
-7.00764

>  <CNNscore>  (17) 
0.2395356596

>  <CNNaffinity>  (17) 
3.8400886059

>  <CNN_VS>  (17) 
0.9198381305

>  <CNNaffinity_variance>  (17) 
0.4167510867

$$$$
18
     RDKit          3D

 43 45  0  0  0  0  0  0  0  0999 V2000
   17.7553   70.4821   -1.8579 P   0  0  2  0  0  0  0  0  0  0  0  0
   16.6811   70.9991   -0.7642 O   0  0  0  0  0  0  0  0  0  0  0  0
   17.7961   68.9949   -2.0522 O   0  0  0  0  0  0  0  0  0  0  0  0
   19.1446   71.1683   -1.3923 O   0  0  0  0  0  0  0  0  0  0  0  0
   19.7129   70.7729   -0.1560 C   0  0  0  0  0  0  0  0  0  0  0  0
   20.1681   71.5005    2.0884 O   0  0  0  0  0  0  0  0  0  0  0  0
   19.4809   74.2587    1.1340 O   0  0  0  0  0  0  0  0  0  0  0  0
   22.2076   74.2969    1.1483 O   0  0  0  0  0  0  0  0  0  0  0  0
   20.1522   73.2062    0.4434 C   0  0  1  0  0  0  0  0  0  0  0  0
   21.5651   73.0516    0.9662 C   0  0  2  0  0  0  0  0  0  0  0  0
   19.5124   71.8881    0.8611 C   0  0  1  0  0  0  0  0  0  0  0  0
   21.3379   72.3140    2.2748 C   0  0  2  0  0  0  0  0  0  0  0  0
   19.8719   75.1108    0.8830 H   0  0  0  0  0  0  0  0  0  0  0  0
   22.3295   74.7270    0.2875 H   0  0  0  0  0  0  0  0  0  0  0  0
   22.6291   72.3347    4.7868 O   0  0  0  0  0  0  0  0  0  0  0  0
   25.5694   69.0241    3.5077 O   0  0  0  0  0  0  0  0  0  0  0  0
   22.4434   71.4677    2.6256 N   0  0  0  0  0  0  0  0  0  0  0  0
   24.0920   70.6861    4.1479 N   0  0  0  0  0  0  0  0  0  0  0  0
   23.0207   71.5576    3.9136 C   0  0  0  0  0  0  0  0  0  0  0  0
   22.9437   70.5610    1.6975 C   0  0  0  0  0  0  0  0  0  0  0  0
   23.9668   69.7378    1.9361 C   0  0  0  0  0  0  0  0  0  0  0  0
   24.6263   69.7683    3.2576 C   0  0  0  0  0  0  0  0  0  0  0  0
   24.5102   70.7312    5.0384 H   0  0  0  0  0  0  0  0  0  0  0  0
   17.3603   71.3229   -3.1808 O   0  0  0  0  0  0  0  0  0  0  0  0
   17.9613   71.2857   -4.6810 P   0  0  2  0  0  0  0  0  0  0  0  0
   17.0994   70.1187   -5.3972 O   0  0  0  0  0  0  0  0  0  0  0  0
   19.4478   71.0847   -4.7435 O   0  0  0  0  0  0  0  0  0  0  0  0
   17.4419   72.6531   -5.3631 O   0  0  0  0  0  0  0  0  0  0  0  0
   15.3337   73.6917   -5.6691 O   0  0  0  0  0  0  0  0  0  0  0  0
   16.8850   74.2181   -9.4596 O   0  0  0  0  0  0  0  0  0  0  0  0
   16.6538   76.4732   -7.6963 O   0  0  0  0  0  0  0  0  0  0  0  0
   17.3896   71.7568   -8.0219 O   0  0  0  0  0  0  0  0  0  0  0  0
   16.9339   74.1219   -8.0335 C   0  0  1  0  0  0  0  0  0  0  0  0
   16.0359   75.2135   -7.4481 C   0  0  1  0  0  0  0  0  0  0  0  0
   16.4446   72.7383   -7.6094 C   0  0  2  0  0  0  0  0  0  0  0  0
   15.8256   75.0090   -5.9417 C   0  0  1  0  0  0  0  0  0  0  0  0
   16.2209   72.6570   -6.0983 C   0  0  1  0  0  0  0  0  0  0  0  0
   17.1949   75.0941   -9.7354 H   0  0  0  0  0  0  0  0  0  0  0  0
   16.7814   76.5896   -8.6510 H   0  0  0  0  0  0  0  0  0  0  0  0
   17.5222   71.8184   -8.9803 H   0  0  0  0  0  0  0  0  0  0  0  0
   13.9942   76.4655   -6.4249 O   0  0  0  0  0  0  0  0  0  0  0  0
   14.8083   75.9927   -5.3676 C   0  0  0  0  0  0  0  0  0  0  0  0
   13.3416   77.0923   -6.0743 H   0  0  0  0  0  0  0  0  0  0  0  0
 25 28  1  0
 25 24  1  0
 25 26  1  6
 25 27  2  0
  1  4  1  0
  1 24  1  0
  1  2  1  1
  1  3  2  0
  6 11  1  0
  6 12  1  0
 29 36  1  0
 29 37  1  0
  9  7  1  1
  7 13  1  0
 10  8  1  1
  8 14  1  0
 37 28  1  1
  4  5  1  0
 33 30  1  6
 30 38  1  0
 34 31  1  1
 31 39  1  0
 35 32  1  1
 32 40  1  0
 41 42  1  0
 41 43  1  0
 15 19  2  0
 16 22  2  0
 12 17  1  6
 17 19  1  0
 17 20  1  0
 18 19  1  0
 18 22  1  0
 18 23  1  0
  9 10  1  0
  9 11  1  0
 10 12  1  0
 11  5  1  6
 33 34  1  0
 33 35  1  0
 34 36  1  0
 35 37  1  0
 36 42  1  6
 20 21  2  0
 21 22  1  0
M  CHG  2   2  -1  26  -1
M  END
>  <COMPND>  (18) 
    8629 

>  <AUTHOR>  (18) 
    GENERATED BY OPEN BABEL 3.1.1

>  <MASTER>  (18) 
        0    0    0    0    0    0    0    0   58    0   58    0

>  <minimizedAffinity>  (18) 
-6.78578

>  <CNNscore>  (18) 
0.2379284352

>  <CNNaffinity>  (18) 
3.7507309914

>  <CNN_VS>  (18) 
0.8924055696

>  <CNNaffinity_variance>  (18) 
0.0438237563

$$$$
19
     RDKit          3D

 43 45  0  0  0  0  0  0  0  0999 V2000
   17.3877   72.4188   -0.1285 P   0  0  2  0  0  0  0  0  0  0  0  0
   17.1343   73.7727   -0.9771 O   0  0  0  0  0  0  0  0  0  0  0  0
   16.5185   72.2588    1.0841 O   0  0  0  0  0  0  0  0  0  0  0  0
   18.9823   72.4251    0.1458 O   0  0  0  0  0  0  0  0  0  0  0  0
   19.5120   73.3953    1.0323 C   0  0  0  0  0  0  0  0  0  0  0  0
   20.4701   71.4127    1.9940 O   0  0  0  0  0  0  0  0  0  0  0  0
   20.9700   73.0683    4.4435 O   0  0  0  0  0  0  0  0  0  0  0  0
   23.4214   73.0177    3.2498 O   0  0  0  0  0  0  0  0  0  0  0  0
   21.0351   73.4473    3.0696 C   0  0  1  0  0  0  0  0  0  0  0  0
   22.2821   72.8781    2.4256 C   0  0  2  0  0  0  0  0  0  0  0  0
   19.9283   72.7097    2.3264 C   0  0  1  0  0  0  0  0  0  0  0  0
   21.8907   71.4260    2.2103 C   0  0  2  0  0  0  0  0  0  0  0  0
   21.6673   73.5271    4.9386 H   0  0  0  0  0  0  0  0  0  0  0  0
   23.6300   73.9589    3.3565 H   0  0  0  0  0  0  0  0  0  0  0  0
   23.6392   69.2106    2.3244 O   0  0  0  0  0  0  0  0  0  0  0  0
   24.3315   69.2900   -2.2314 O   0  0  0  0  0  0  0  0  0  0  0  0
   22.5416   70.8467    1.0692 N   0  0  0  0  0  0  0  0  0  0  0  0
   23.9824   69.2518    0.0558 N   0  0  0  0  0  0  0  0  0  0  0  0
   23.4015   69.7361    1.2349 C   0  0  0  0  0  0  0  0  0  0  0  0
   22.3244   71.3793   -0.1969 C   0  0  0  0  0  0  0  0  0  0  0  0
   22.8869   70.9067   -1.3111 C   0  0  0  0  0  0  0  0  0  0  0  0
   23.7987   69.7477   -1.2252 C   0  0  0  0  0  0  0  0  0  0  0  0
   24.5855   68.4787    0.1469 H   0  0  0  0  0  0  0  0  0  0  0  0
   17.2146   71.2564   -1.2384 O   0  0  0  0  0  0  0  0  0  0  0  0
   18.3125   70.3761   -2.0337 P   0  0  2  0  0  0  0  0  0  0  0  0
   17.4745   69.0743   -2.5036 O   0  0  0  0  0  0  0  0  0  0  0  0
   19.5458   70.0640   -1.2365 O   0  0  0  0  0  0  0  0  0  0  0  0
   18.5864   71.1979   -3.3955 O   0  0  0  0  0  0  0  0  0  0  0  0
   18.0343   70.2851   -5.5117 O   0  0  0  0  0  0  0  0  0  0  0  0
   20.9192   72.9928   -6.6935 O   0  0  0  0  0  0  0  0  0  0  0  0
   18.1572   73.5167   -7.2809 O   0  0  0  0  0  0  0  0  0  0  0  0
   21.2483   71.5177   -4.2246 O   0  0  0  0  0  0  0  0  0  0  0  0
   19.8312   72.5113   -5.8998 C   0  0  1  0  0  0  0  0  0  0  0  0
   18.6393   72.2560   -6.8243 C   0  0  1  0  0  0  0  0  0  0  0  0
   20.2558   71.2210   -5.2011 C   0  0  2  0  0  0  0  0  0  0  0  0
   17.5267   71.4907   -6.0953 C   0  0  1  0  0  0  0  0  0  0  0  0
   19.0661   70.5135   -4.5499 C   0  0  1  0  0  0  0  0  0  0  0  0
   20.6563   73.8123   -7.1394 H   0  0  0  0  0  0  0  0  0  0  0  0
   18.8695   73.9900   -7.7390 H   0  0  0  0  0  0  0  0  0  0  0  0
   21.9961   71.9651   -4.6494 H   0  0  0  0  0  0  0  0  0  0  0  0
   15.9533   72.2422   -7.7289 O   0  0  0  0  0  0  0  0  0  0  0  0
   16.3963   71.0876   -7.0397 C   0  0  0  0  0  0  0  0  0  0  0  0
   15.2340   72.0007   -8.3339 H   0  0  0  0  0  0  0  0  0  0  0  0
 25 28  1  0
 25 24  1  0
 25 26  1  6
 25 27  2  0
  1  4  1  0
  1 24  1  0
  1  2  1  6
  1  3  2  0
  6 11  1  0
  6 12  1  0
 29 36  1  0
 29 37  1  0
  9  7  1  1
  7 13  1  0
 10  8  1  1
  8 14  1  0
 37 28  1  1
  4  5  1  0
 33 30  1  6
 30 38  1  0
 34 31  1  1
 31 39  1  0
 35 32  1  1
 32 40  1  0
 41 42  1  0
 41 43  1  0
 15 19  2  0
 16 22  2  0
 12 17  1  6
 17 19  1  0
 17 20  1  0
 18 19  1  0
 18 22  1  0
 18 23  1  0
  9 10  1  0
  9 11  1  0
 10 12  1  0
 11  5  1  6
 33 34  1  0
 33 35  1  0
 34 36  1  0
 35 37  1  0
 36 42  1  6
 20 21  2  0
 21 22  1  0
M  CHG  2   2  -1  26  -1
M  END
>  <COMPND>  (19) 
    8629 

>  <AUTHOR>  (19) 
    GENERATED BY OPEN BABEL 3.1.1

>  <MASTER>  (19) 
        0    0    0    0    0    0    0    0   58    0   58    0

>  <minimizedAffinity>  (19) 
-7.42143

>  <CNNscore>  (19) 
0.2317610979

>  <CNNaffinity>  (19) 
3.8275551796

>  <CNN_VS>  (19) 
0.8870784044

>  <CNNaffinity_variance>  (19) 
0.3768149316

$$$$
20
     RDKit          3D

 43 45  0  0  0  0  0  0  0  0999 V2000
   22.5872   73.1071   -3.5563 P   0  0  2  0  0  0  0  0  0  0  0  0
   23.7550   72.2438   -4.2692 O   0  0  0  0  0  0  0  0  0  0  0  0
   23.0081   74.4629   -3.0702 O   0  0  0  0  0  0  0  0  0  0  0  0
   21.9990   72.1076   -2.4280 O   0  0  0  0  0  0  0  0  0  0  0  0
   22.3682   72.3213   -1.0767 C   0  0  0  0  0  0  0  0  0  0  0  0
   21.7001   70.0210   -0.8866 O   0  0  0  0  0  0  0  0  0  0  0  0
   21.3902   70.5484    2.0488 O   0  0  0  0  0  0  0  0  0  0  0  0
   23.7976   69.2733    1.9249 O   0  0  0  0  0  0  0  0  0  0  0  0
   22.3570   71.0661    1.1363 C   0  0  1  0  0  0  0  0  0  0  0  0
   23.3758   70.0007    0.7892 C   0  0  2  0  0  0  0  0  0  0  0  0
   21.6649   71.2924   -0.2021 C   0  0  1  0  0  0  0  0  0  0  0  0
   22.6091   69.1428   -0.2029 C   0  0  2  0  0  0  0  0  0  0  0  0
   21.8088   70.3961    2.9111 H   0  0  0  0  0  0  0  0  0  0  0  0
   24.2803   69.8625    2.5255 H   0  0  0  0  0  0  0  0  0  0  0  0
   22.9568   66.3520   -0.4646 O   0  0  0  0  0  0  0  0  0  0  0  0
   25.9394   66.8649   -3.9405 O   0  0  0  0  0  0  0  0  0  0  0  0
   23.4701   68.5196   -1.1681 N   0  0  0  0  0  0  0  0  0  0  0  0
   24.4415   66.6096   -2.1952 N   0  0  0  0  0  0  0  0  0  0  0  0
   23.5740   67.1099   -1.2157 C   0  0  0  0  0  0  0  0  0  0  0  0
   24.1999   69.3042   -2.0545 C   0  0  0  0  0  0  0  0  0  0  0  0
   25.0238   68.8117   -2.9818 C   0  0  0  0  0  0  0  0  0  0  0  0
   25.1894   67.3485   -3.0982 C   0  0  0  0  0  0  0  0  0  0  0  0
   24.5301   65.6302   -2.2468 H   0  0  0  0  0  0  0  0  0  0  0  0
   21.4167   73.1256   -4.6710 O   0  0  0  0  0  0  0  0  0  0  0  0
   19.9914   73.8874   -4.7011 P   0  0  2  0  0  0  0  0  0  0  0  0
   20.2485   75.1155   -5.7225 O   0  0  0  0  0  0  0  0  0  0  0  0
   19.4863   74.3016   -3.3494 O   0  0  0  0  0  0  0  0  0  0  0  0
   19.0109   72.8880   -5.5041 O   0  0  0  0  0  0  0  0  0  0  0  0
   19.3090   71.0095   -4.0902 O   0  0  0  0  0  0  0  0  0  0  0  0
   15.9531   69.7612   -6.1469 O   0  0  0  0  0  0  0  0  0  0  0  0
   15.7143   70.5706   -3.4017 O   0  0  0  0  0  0  0  0  0  0  0  0
   18.0405   71.2101   -7.5335 O   0  0  0  0  0  0  0  0  0  0  0  0
   16.8179   70.7115   -5.5190 C   0  0  1  0  0  0  0  0  0  0  0  0
   16.9623   70.3279   -4.0450 C   0  0  1  0  0  0  0  0  0  0  0  0
   18.1767   70.6870   -6.2165 C   0  0  2  0  0  0  0  0  0  0  0  0
   18.0780   71.1363   -3.3689 C   0  0  1  0  0  0  0  0  0  0  0  0
   19.2264   71.4807   -5.4366 C   0  0  1  0  0  0  0  0  0  0  0  0
   15.0884   69.7721   -5.7090 H   0  0  0  0  0  0  0  0  0  0  0  0
   15.0184   70.0547   -3.8384 H   0  0  0  0  0  0  0  0  0  0  0  0
   17.3735   70.6990   -8.0169 H   0  0  0  0  0  0  0  0  0  0  0  0
   17.9322   69.3104   -1.8347 O   0  0  0  0  0  0  0  0  0  0  0  0
   18.3455   70.6601   -1.9428 C   0  0  0  0  0  0  0  0  0  0  0  0
   18.0968   68.9938   -0.9323 H   0  0  0  0  0  0  0  0  0  0  0  0
 25 28  1  0
 25 24  1  0
 25 26  1  6
 25 27  2  0
  1  4  1  0
  1 24  1  0
  1  2  1  6
  1  3  2  0
  6 11  1  0
  6 12  1  0
 29 36  1  0
 29 37  1  0
  9  7  1  1
  7 13  1  0
 10  8  1  1
  8 14  1  0
 37 28  1  1
  4  5  1  0
 33 30  1  6
 30 38  1  0
 34 31  1  1
 31 39  1  0
 35 32  1  6
 32 40  1  0
 41 42  1  0
 41 43  1  0
 15 19  2  0
 16 22  2  0
 12 17  1  6
 17 19  1  0
 17 20  1  0
 18 19  1  0
 18 22  1  0
 18 23  1  0
  9 10  1  0
  9 11  1  0
 10 12  1  0
 11  5  1  6
 33 34  1  0
 33 35  1  0
 34 36  1  0
 35 37  1  0
 36 42  1  1
 20 21  2  0
 21 22  1  0
M  CHG  2   2  -1  26  -1
M  END
>  <COMPND>  (20) 
    8629 

>  <AUTHOR>  (20) 
    GENERATED BY OPEN BABEL 3.1.1

>  <MASTER>  (20) 
        0    0    0    0    0    0    0    0   58    0   58    0

>  <minimizedAffinity>  (20) 
-8.30212

>  <CNNscore>  (20) 
0.2245662659

>  <CNNaffinity>  (20) 
3.8554294109

>  <CNN_VS>  (20) 
0.8657993674

>  <CNNaffinity_variance>  (20) 
1.2312111855

$$$$
21
     RDKit          3D

 43 45  0  0  0  0  0  0  0  0999 V2000
   20.8761   73.6067   -0.7580 P   0  0  2  0  0  0  0  0  0  0  0  0
   19.9346   74.1906    0.4211 O   0  0  0  0  0  0  0  0  0  0  0  0
   22.1995   74.2968   -0.9127 O   0  0  0  0  0  0  0  0  0  0  0  0
   19.9191   73.6217   -2.0625 O   0  0  0  0  0  0  0  0  0  0  0  0
   19.7865   72.4300   -2.8175 C   0  0  0  0  0  0  0  0  0  0  0  0
   17.7192   72.0282   -3.9746 O   0  0  0  0  0  0  0  0  0  0  0  0
   17.0155   70.2079   -1.6982 O   0  0  0  0  0  0  0  0  0  0  0  0
   17.8095   68.4591   -3.6341 O   0  0  0  0  0  0  0  0  0  0  0  0
   18.2840   70.4410   -2.3081 C   0  0  1  0  0  0  0  0  0  0  0  0
   18.3488   69.7649   -3.6617 C   0  0  2  0  0  0  0  0  0  0  0  0
   18.3597   71.9153   -2.6849 C   0  0  1  0  0  0  0  0  0  0  0  0
   17.5376   70.7142   -4.5271 C   0  0  2  0  0  0  0  0  0  0  0  0
   16.9439   69.2728   -1.4485 H   0  0  0  0  0  0  0  0  0  0  0  0
   18.3606   67.8934   -3.0709 H   0  0  0  0  0  0  0  0  0  0  0  0
   15.9137   70.0012   -6.7254 O   0  0  0  0  0  0  0  0  0  0  0  0
   19.3252   70.7670   -9.7282 O   0  0  0  0  0  0  0  0  0  0  0  0
   17.9757   70.7187   -5.8944 N   0  0  0  0  0  0  0  0  0  0  0  0
   17.6136   70.3833   -8.2188 N   0  0  0  0  0  0  0  0  0  0  0  0
   17.0816   70.3424   -6.9237 C   0  0  0  0  0  0  0  0  0  0  0  0
   19.2787   71.0935   -6.2034 C   0  0  0  0  0  0  0  0  0  0  0  0
   19.7710   71.1259   -7.4435 C   0  0  0  0  0  0  0  0  0  0  0  0
   18.9021   70.7475   -8.5765 C   0  0  0  0  0  0  0  0  0  0  0  0
   17.0091   70.1249   -8.9520 H   0  0  0  0  0  0  0  0  0  0  0  0
   20.9756   72.0339   -0.3984 O   0  0  0  0  0  0  0  0  0  0  0  0
   20.3632   71.1859    0.8340 P   0  0  2  0  0  0  0  0  0  0  0  0
   20.4749   69.6550    0.3228 O   0  0  0  0  0  0  0  0  0  0  0  0
   18.9797   71.6035    1.2410 O   0  0  0  0  0  0  0  0  0  0  0  0
   21.4694   71.3071    2.0029 O   0  0  0  0  0  0  0  0  0  0  0  0
   23.1758   72.9213    2.3178 O   0  0  0  0  0  0  0  0  0  0  0  0
   25.1694   69.5770    3.6932 O   0  0  0  0  0  0  0  0  0  0  0  0
   24.2827   71.5682    5.5632 O   0  0  0  0  0  0  0  0  0  0  0  0
   23.4090   69.3692    1.4047 O   0  0  0  0  0  0  0  0  0  0  0  0
   24.0353   70.4215    3.4788 C   0  0  1  0  0  0  0  0  0  0  0  0
   24.3059   71.7682    4.1526 C   0  0  1  0  0  0  0  0  0  0  0  0
   23.8259   70.6043    1.9767 C   0  0  2  0  0  0  0  0  0  0  0  0
   23.2586   72.8126    3.7436 C   0  0  1  0  0  0  0  0  0  0  0  0
   22.8006   71.6997    1.6785 C   0  0  1  0  0  0  0  0  0  0  0  0
   25.3076   69.4565    4.6449 H   0  0  0  0  0  0  0  0  0  0  0  0
   24.9482   70.9062    5.8081 H   0  0  0  0  0  0  0  0  0  0  0  0
   24.0665   68.6842    1.6002 H   0  0  0  0  0  0  0  0  0  0  0  0
   24.9962   74.3963    4.1702 O   0  0  0  0  0  0  0  0  0  0  0  0
   23.5979   74.2024    4.2780 C   0  0  0  0  0  0  0  0  0  0  0  0
   25.2267   75.2769    4.5063 H   0  0  0  0  0  0  0  0  0  0  0  0
 25 28  1  0
 25 24  1  0
 25 26  1  6
 25 27  2  0
  1  4  1  0
  1 24  1  0
  1  2  1  1
  1  3  2  0
  6 11  1  0
  6 12  1  0
 29 36  1  0
 29 37  1  0
  9  7  1  6
  7 13  1  0
 10  8  1  1
  8 14  1  0
 37 28  1  1
  4  5  1  0
 33 30  1  6
 30 38  1  0
 34 31  1  1
 31 39  1  0
 35 32  1  1
 32 40  1  0
 41 42  1  0
 41 43  1  0
 15 19  2  0
 16 22  2  0
 12 17  1  6
 17 19  1  0
 17 20  1  0
 18 19  1  0
 18 22  1  0
 18 23  1  0
  9 10  1  0
  9 11  1  0
 10 12  1  0
 11  5  1  6
 33 34  1  0
 33 35  1  0
 34 36  1  0
 35 37  1  0
 36 42  1  1
 20 21  2  0
 21 22  1  0
M  CHG  2   2  -1  26  -1
M  END
>  <COMPND>  (21) 
    8629 

>  <AUTHOR>  (21) 
    GENERATED BY OPEN BABEL 3.1.1

>  <MASTER>  (21) 
        0    0    0    0    0    0    0    0   58    0   58    0

>  <minimizedAffinity>  (21) 
-7.83531

>  <CNNscore>  (21) 
0.8095359802

>  <CNNaffinity>  (21) 
4.6250257492

>  <CNN_VS>  (21) 
3.7441246510

>  <CNNaffinity_variance>  (21) 
0.0417051651

$$$$
22
     RDKit          3D

 43 45  0  0  0  0  0  0  0  0999 V2000
   22.5123   70.7190   -2.9991 P   0  0  2  0  0  0  0  0  0  0  0  0
   23.5494   71.7024   -3.7572 O   0  0  0  0  0  0  0  0  0  0  0  0
   22.9276   69.2781   -2.9475 O   0  0  0  0  0  0  0  0  0  0  0  0
   21.0957   71.0165   -3.7221 O   0  0  0  0  0  0  0  0  0  0  0  0
   19.9021   70.7446   -3.0085 C   0  0  0  0  0  0  0  0  0  0  0  0
   19.1287   72.5159   -4.4362 O   0  0  0  0  0  0  0  0  0  0  0  0
   16.7960   72.7511   -2.5669 O   0  0  0  0  0  0  0  0  0  0  0  0
   15.7458   71.3448   -4.6540 O   0  0  0  0  0  0  0  0  0  0  0  0
   17.5005   71.5842   -2.9882 C   0  0  1  0  0  0  0  0  0  0  0  0
   17.1343   71.2357   -4.4158 C   0  0  2  0  0  0  0  0  0  0  0  0
   18.9746   71.9471   -3.1174 C   0  0  1  0  0  0  0  0  0  0  0  0
   17.9444   72.2498   -5.2054 C   0  0  2  0  0  0  0  0  0  0  0  0
   15.8521   72.5439   -2.4770 H   0  0  0  0  0  0  0  0  0  0  0  0
   15.2743   70.6790   -4.1293 H   0  0  0  0  0  0  0  0  0  0  0  0
   16.2076   72.0680   -7.4253 O   0  0  0  0  0  0  0  0  0  0  0  0
   19.5286   70.3413  -10.1143 O   0  0  0  0  0  0  0  0  0  0  0  0
   18.3289   71.7568   -6.4979 N   0  0  0  0  0  0  0  0  0  0  0  0
   17.8626   71.2085   -8.7625 N   0  0  0  0  0  0  0  0  0  0  0  0
   17.3798   71.7058   -7.5453 C   0  0  0  0  0  0  0  0  0  0  0  0
   19.6344   71.3306   -6.7168 C   0  0  0  0  0  0  0  0  0  0  0  0
   20.0787   70.8578   -7.8831 C   0  0  0  0  0  0  0  0  0  0  0  0
   19.1506   70.7716   -9.0290 C   0  0  0  0  0  0  0  0  0  0  0  0
   17.2191   71.1635   -9.5065 H   0  0  0  0  0  0  0  0  0  0  0  0
   22.3367   71.4206   -1.5535 O   0  0  0  0  0  0  0  0  0  0  0  0
   22.2310   70.7852   -0.0709 P   0  0  2  0  0  0  0  0  0  0  0  0
   23.7087   70.1751    0.1776 O   0  0  0  0  0  0  0  0  0  0  0  0
   21.1158   69.7940    0.0957 O   0  0  0  0  0  0  0  0  0  0  0  0
   22.1453   72.0603    0.9149 O   0  0  0  0  0  0  0  0  0  0  0  0
   22.2270   71.0195    3.0425 O   0  0  0  0  0  0  0  0  0  0  0  0
   22.3861   74.9699    4.2340 O   0  0  0  0  0  0  0  0  0  0  0  0
   24.7410   73.3365    4.4209 O   0  0  0  0  0  0  0  0  0  0  0  0
   20.6972   74.1985    2.0132 O   0  0  0  0  0  0  0  0  0  0  0  0
   22.6519   73.8554    3.3780 C   0  0  1  0  0  0  0  0  0  0  0  0
   23.4380   72.8140    4.1768 C   0  0  1  0  0  0  0  0  0  0  0  0
   21.3265   73.2721    2.8920 C   0  0  2  0  0  0  0  0  0  0  0  0
   23.5294   71.4849    3.4151 C   0  0  1  0  0  0  0  0  0  0  0  0
   21.5247   71.9269    2.1909 C   0  0  1  0  0  0  0  0  0  0  0  0
   23.2237   75.3453    4.5457 H   0  0  0  0  0  0  0  0  0  0  0  0
   24.6691   74.1759    4.9020 H   0  0  0  0  0  0  0  0  0  0  0  0
   20.5771   75.0457    2.4688 H   0  0  0  0  0  0  0  0  0  0  0  0
   25.2374   69.8173    3.5195 O   0  0  0  0  0  0  0  0  0  0  0  0
   24.1716   70.3854    4.2582 C   0  0  0  0  0  0  0  0  0  0  0  0
   25.6558   69.1161    4.0439 H   0  0  0  0  0  0  0  0  0  0  0  0
 25 28  1  0
 25 24  1  0
 25 26  1  1
 25 27  2  0
  1  4  1  0
  1 24  1  0
  1  2  1  6
  1  3  2  0
  6 11  1  0
  6 12  1  0
 29 36  1  0
 29 37  1  0
  9  7  1  6
  7 13  1  0
 10  8  1  1
  8 14  1  0
 37 28  1  6
  4  5  1  0
 33 30  1  1
 30 38  1  0
 34 31  1  6
 31 39  1  0
 35 32  1  6
 32 40  1  0
 41 42  1  0
 41 43  1  0
 15 19  2  0
 16 22  2  0
 12 17  1  6
 17 19  1  0
 17 20  1  0
 18 19  1  0
 18 22  1  0
 18 23  1  0
  9 10  1  0
  9 11  1  0
 10 12  1  0
 11  5  1  6
 33 34  1  0
 33 35  1  0
 34 36  1  0
 35 37  1  0
 36 42  1  1
 20 21  2  0
 21 22  1  0
M  CHG  2   2  -1  26  -1
M  END
>  <COMPND>  (22) 
    8629 

>  <AUTHOR>  (22) 
    GENERATED BY OPEN BABEL 3.1.1

>  <MASTER>  (22) 
        0    0    0    0    0    0    0    0   58    0   58    0

>  <minimizedAffinity>  (22) 
-7.38152

>  <CNNscore>  (22) 
0.7537805438

>  <CNNaffinity>  (22) 
4.7536506653

>  <CNN_VS>  (22) 
3.5832092762

>  <CNNaffinity_variance>  (22) 
0.1466496289

$$$$
23
     RDKit          3D

 43 45  0  0  0  0  0  0  0  0999 V2000
   19.4118   71.1780   -0.7844 P   0  0  2  0  0  0  0  0  0  0  0  0
   20.9303   71.6105   -1.1375 O   0  0  0  0  0  0  0  0  0  0  0  0
   18.9813   69.8568   -1.3504 O   0  0  0  0  0  0  0  0  0  0  0  0
   18.5290   72.4568   -1.2352 O   0  0  0  0  0  0  0  0  0  0  0  0
   18.4485   72.7704   -2.6147 C   0  0  0  0  0  0  0  0  0  0  0  0
   16.9631   72.7941   -4.5033 O   0  0  0  0  0  0  0  0  0  0  0  0
   14.9674   71.4509   -2.7133 O   0  0  0  0  0  0  0  0  0  0  0  0
   15.9353   69.3724   -4.1897 O   0  0  0  0  0  0  0  0  0  0  0  0
   16.3841   71.2909   -2.7652 C   0  0  1  0  0  0  0  0  0  0  0  0
   16.7783   70.4884   -3.9876 C   0  0  2  0  0  0  0  0  0  0  0  0
   16.9993   72.6519   -3.0663 C   0  0  1  0  0  0  0  0  0  0  0  0
   16.6567   71.5211   -5.0952 C   0  0  2  0  0  0  0  0  0  0  0  0
   14.5523   70.5947   -2.5219 H   0  0  0  0  0  0  0  0  0  0  0  0
   16.0490   68.7446   -3.4592 H   0  0  0  0  0  0  0  0  0  0  0  0
   15.9425   70.3224   -7.5510 O   0  0  0  0  0  0  0  0  0  0  0  0
   20.2488   70.6315   -9.1640 O   0  0  0  0  0  0  0  0  0  0  0  0
   17.5711   71.2766   -6.1747 N   0  0  0  0  0  0  0  0  0  0  0  0
   18.0872   70.4774   -8.3522 N   0  0  0  0  0  0  0  0  0  0  0  0
   17.1112   70.6681   -7.3658 C   0  0  0  0  0  0  0  0  0  0  0  0
   18.9075   71.6394   -6.0465 C   0  0  0  0  0  0  0  0  0  0  0  0
   19.8259   71.4496   -6.9961 C   0  0  0  0  0  0  0  0  0  0  0  0
   19.4278   70.8197   -8.2715 C   0  0  0  0  0  0  0  0  0  0  0  0
   17.7899   70.0548   -9.1905 H   0  0  0  0  0  0  0  0  0  0  0  0
   19.3759   71.2623    0.8294 O   0  0  0  0  0  0  0  0  0  0  0  0
   20.1003   72.2797    1.8557 P   0  0  2  0  0  0  0  0  0  0  0  0
   19.0698   72.3467    3.1011 O   0  0  0  0  0  0  0  0  0  0  0  0
   20.4403   73.6155    1.2607 O   0  0  0  0  0  0  0  0  0  0  0  0
   21.3687   71.4564    2.4199 O   0  0  0  0  0  0  0  0  0  0  0  0
   23.1905   72.9688    2.5201 O   0  0  0  0  0  0  0  0  0  0  0  0
   25.1215   69.5283    3.7385 O   0  0  0  0  0  0  0  0  0  0  0  0
   24.5592   71.5928    5.6541 O   0  0  0  0  0  0  0  0  0  0  0  0
   23.1158   69.3978    1.6552 O   0  0  0  0  0  0  0  0  0  0  0  0
   24.0222   70.4367    3.6302 C   0  0  1  0  0  0  0  0  0  0  0  0
   24.4421   71.7731    4.2455 C   0  0  1  0  0  0  0  0  0  0  0  0
   23.6635   70.6127    2.1559 C   0  0  2  0  0  0  0  0  0  0  0  0
   23.4198   72.8734    3.9308 C   0  0  1  0  0  0  0  0  0  0  0  0
   22.6778   71.7640    1.9479 C   0  0  1  0  0  0  0  0  0  0  0  0
   25.3540   69.4117    4.6722 H   0  0  0  0  0  0  0  0  0  0  0  0
   25.2073   70.8950    5.8392 H   0  0  0  0  0  0  0  0  0  0  0  0
   23.7494   68.6770    1.7925 H   0  0  0  0  0  0  0  0  0  0  0  0
   22.7656   75.0024    4.7961 O   0  0  0  0  0  0  0  0  0  0  0  0
   23.8953   74.2469    4.3993 C   0  0  0  0  0  0  0  0  0  0  0  0
   23.0531   75.8790    5.0970 H   0  0  0  0  0  0  0  0  0  0  0  0
 25 28  1  0
 25 24  1  0
 25 26  1  1
 25 27  2  0
  1  4  1  0
  1 24  1  0
  1  2  1  6
  1  3  2  0
  6 11  1  0
  6 12  1  0
 29 36  1  0
 29 37  1  0
  9  7  1  6
  7 13  1  0
 10  8  1  6
  8 14  1  0
 37 28  1  1
  4  5  1  0
 33 30  1  6
 30 38  1  0
 34 31  1  1
 31 39  1  0
 35 32  1  1
 32 40  1  0
 41 42  1  0
 41 43  1  0
 15 19  2  0
 16 22  2  0
 12 17  1  6
 17 19  1  0
 17 20  1  0
 18 19  1  0
 18 22  1  0
 18 23  1  0
  9 10  1  0
  9 11  1  0
 10 12  1  0
 11  5  1  6
 33 34  1  0
 33 35  1  0
 34 36  1  0
 35 37  1  0
 36 42  1  6
 20 21  2  0
 21 22  1  0
M  CHG  2   2  -1  26  -1
M  END
>  <COMPND>  (23) 
    8629 

>  <AUTHOR>  (23) 
    GENERATED BY OPEN BABEL 3.1.1

>  <MASTER>  (23) 
        0    0    0    0    0    0    0    0   58    0   58    0

>  <minimizedAffinity>  (23) 
-7.40068

>  <CNNscore>  (23) 
0.7300405502

>  <CNNaffinity>  (23) 
4.3517389297

>  <CNN_VS>  (23) 
3.1769459248

>  <CNNaffinity_variance>  (23) 
0.0661932901

$$$$
24
     RDKit          3D

 43 45  0  0  0  0  0  0  0  0999 V2000
   21.9749   71.1611   -1.8755 P   0  0  2  0  0  0  0  0  0  0  0  0
   22.8726   72.3776   -2.4514 O   0  0  0  0  0  0  0  0  0  0  0  0
   21.9533   69.9289   -2.7315 O   0  0  0  0  0  0  0  0  0  0  0  0
   20.5357   71.8425   -1.5885 O   0  0  0  0  0  0  0  0  0  0  0  0
   19.7938   72.3437   -2.6867 C   0  0  0  0  0  0  0  0  0  0  0  0
   17.7248   72.0205   -3.8650 O   0  0  0  0  0  0  0  0  0  0  0  0
   16.9648   70.1599   -1.6399 O   0  0  0  0  0  0  0  0  0  0  0  0
   17.7292   68.4427   -3.6155 O   0  0  0  0  0  0  0  0  0  0  0  0
   18.2420   70.3784   -2.2366 C   0  0  1  0  0  0  0  0  0  0  0  0
   18.2991   69.7357   -3.6068 C   0  0  2  0  0  0  0  0  0  0  0  0
   18.3546   71.8596   -2.5751 C   0  0  1  0  0  0  0  0  0  0  0  0
   17.5157   70.7256   -4.4520 C   0  0  2  0  0  0  0  0  0  0  0  0
   16.8697   69.2207   -1.4146 H   0  0  0  0  0  0  0  0  0  0  0  0
   18.2634   67.8500   -3.0640 H   0  0  0  0  0  0  0  0  0  0  0  0
   15.9510   69.9176   -6.6603 O   0  0  0  0  0  0  0  0  0  0  0  0
   19.3324   70.8784   -9.6410 O   0  0  0  0  0  0  0  0  0  0  0  0
   17.9620   70.7545   -5.8163 N   0  0  0  0  0  0  0  0  0  0  0  0
   17.6359   70.3968   -8.1427 N   0  0  0  0  0  0  0  0  0  0  0  0
   17.0984   70.3260   -6.8512 C   0  0  0  0  0  0  0  0  0  0  0  0
   19.2431   71.2044   -6.1169 C   0  0  0  0  0  0  0  0  0  0  0  0
   19.7411   71.2644   -7.3537 C   0  0  0  0  0  0  0  0  0  0  0  0
   18.9034   70.8352   -8.4921 C   0  0  0  0  0  0  0  0  0  0  0  0
   17.0524   70.1031   -8.8796 H   0  0  0  0  0  0  0  0  0  0  0  0
   22.5741   70.9385   -0.3908 O   0  0  0  0  0  0  0  0  0  0  0  0
   22.1026   69.9632    0.8090 P   0  0  2  0  0  0  0  0  0  0  0  0
   23.3314   68.9194    0.9434 O   0  0  0  0  0  0  0  0  0  0  0  0
   20.7644   69.3192    0.5887 O   0  0  0  0  0  0  0  0  0  0  0  0
   22.1954   70.8753    2.1373 O   0  0  0  0  0  0  0  0  0  0  0  0
   21.4195   73.0844    1.7707 O   0  0  0  0  0  0  0  0  0  0  0  0
   23.1228   73.5933    5.4977 O   0  0  0  0  0  0  0  0  0  0  0  0
   20.2629   73.5818    5.2354 O   0  0  0  0  0  0  0  0  0  0  0  0
   24.4039   71.8816    3.5462 O   0  0  0  0  0  0  0  0  0  0  0  0
   22.4203   72.8868    4.4717 C   0  0  1  0  0  0  0  0  0  0  0  0
   21.1544   73.6742    4.1277 C   0  0  1  0  0  0  0  0  0  0  0  0
   23.3232   72.7584    3.2462 C   0  0  2  0  0  0  0  0  0  0  0  0
   20.4885   73.1257    2.8586 C   0  0  1  0  0  0  0  0  0  0  0  0
   22.5515   72.2509    2.0268 C   0  0  1  0  0  0  0  0  0  0  0  0
   22.5552   73.6778    6.2789 H   0  0  0  0  0  0  0  0  0  0  0  0
   20.6957   73.9310    6.0304 H   0  0  0  0  0  0  0  0  0  0  0  0
   24.8846   72.2140    4.3197 H   0  0  0  0  0  0  0  0  0  0  0  0
   19.4393   75.2668    3.0123 O   0  0  0  0  0  0  0  0  0  0  0  0
   19.3145   73.9924    2.4084 C   0  0  0  0  0  0  0  0  0  0  0  0
   18.6989   75.8294    2.7345 H   0  0  0  0  0  0  0  0  0  0  0  0
 25 28  1  0
 25 24  1  0
 25 26  1  1
 25 27  2  0
  1  4  1  0
  1 24  1  0
  1  2  1  6
  1  3  2  0
  6 11  1  0
  6 12  1  0
 29 36  1  0
 29 37  1  0
  9  7  1  6
  7 13  1  0
 10  8  1  1
  8 14  1  0
 37 28  1  1
  4  5  1  0
 33 30  1  1
 30 38  1  0
 34 31  1  1
 31 39  1  0
 35 32  1  1
 32 40  1  0
 41 42  1  0
 41 43  1  0
 15 19  2  0
 16 22  2  0
 12 17  1  6
 17 19  1  0
 17 20  1  0
 18 19  1  0
 18 22  1  0
 18 23  1  0
  9 10  1  0
  9 11  1  0
 10 12  1  0
 11  5  1  6
 33 34  1  0
 33 35  1  0
 34 36  1  0
 35 37  1  0
 36 42  1  6
 20 21  2  0
 21 22  1  0
M  CHG  2   2  -1  26  -1
M  END
>  <COMPND>  (24) 
    8629 

>  <AUTHOR>  (24) 
    GENERATED BY OPEN BABEL 3.1.1

>  <MASTER>  (24) 
        0    0    0    0    0    0    0    0   58    0   58    0

>  <minimizedAffinity>  (24) 
-8.18274

>  <CNNscore>  (24) 
0.6772143245

>  <CNNaffinity>  (24) 
4.6310601234

>  <CNN_VS>  (24) 
3.1362202168

>  <CNNaffinity_variance>  (24) 
0.0118739251

$$$$
25
     RDKit          3D

 43 45  0  0  0  0  0  0  0  0999 V2000
   22.8820   69.6411   -2.2816 P   0  0  2  0  0  0  0  0  0  0  0  0
   23.8509   70.5199   -3.2336 O   0  0  0  0  0  0  0  0  0  0  0  0
   23.2346   68.1856   -2.1893 O   0  0  0  0  0  0  0  0  0  0  0  0
   21.3958   69.9706   -2.8298 O   0  0  0  0  0  0  0  0  0  0  0  0
   21.1572   71.2382   -3.4164 C   0  0  0  0  0  0  0  0  0  0  0  0
   19.1658   72.1186   -4.4328 O   0  0  0  0  0  0  0  0  0  0  0  0
   17.6865   70.9626   -2.0948 O   0  0  0  0  0  0  0  0  0  0  0  0
   17.2235   69.1270   -4.0577 O   0  0  0  0  0  0  0  0  0  0  0  0
   18.8221   70.4475   -2.7880 C   0  0  1  0  0  0  0  0  0  0  0  0
   18.4086   69.8927   -4.1352 C   0  0  2  0  0  0  0  0  0  0  0  0
   19.7029   71.6254   -3.1859 C   0  0  1  0  0  0  0  0  0  0  0  0
   18.2343   71.1584   -4.9572 C   0  0  2  0  0  0  0  0  0  0  0  0
   17.1092   70.2287   -1.8303 H   0  0  0  0  0  0  0  0  0  0  0  0
   17.3856   68.3330   -3.5249 H   0  0  0  0  0  0  0  0  0  0  0  0
   16.3044   70.4056   -6.8773 O   0  0  0  0  0  0  0  0  0  0  0  0
   19.4222   70.3851  -10.2714 O   0  0  0  0  0  0  0  0  0  0  0  0
   18.5141   70.9498   -6.3499 N   0  0  0  0  0  0  0  0  0  0  0  0
   17.8583   70.3962   -8.5658 N   0  0  0  0  0  0  0  0  0  0  0  0
   17.4736   70.5723   -7.2305 C   0  0  0  0  0  0  0  0  0  0  0  0
   19.8082   71.1199   -6.8298 C   0  0  0  0  0  0  0  0  0  0  0  0
   20.1589   70.9468   -8.1059 C   0  0  0  0  0  0  0  0  0  0  0  0
   19.1314   70.5520   -9.0910 C   0  0  0  0  0  0  0  0  0  0  0  0
   17.1502   70.1327   -9.1974 H   0  0  0  0  0  0  0  0  0  0  0  0
   22.9352   70.4366   -0.8754 O   0  0  0  0  0  0  0  0  0  0  0  0
   22.4234   70.0196    0.6001 P   0  0  2  0  0  0  0  0  0  0  0  0
   23.6267   69.0960    1.1629 O   0  0  0  0  0  0  0  0  0  0  0  0
   21.0750   69.3599    0.6202 O   0  0  0  0  0  0  0  0  0  0  0  0
   22.5155   71.3799    1.4640 O   0  0  0  0  0  0  0  0  0  0  0  0
   22.8134   71.9111    3.7543 O   0  0  0  0  0  0  0  0  0  0  0  0
   19.7250   74.5059    2.8715 O   0  0  0  0  0  0  0  0  0  0  0  0
   22.3716   75.5408    3.2870 O   0  0  0  0  0  0  0  0  0  0  0  0
   19.7606   71.8550    1.7091 O   0  0  0  0  0  0  0  0  0  0  0  0
   20.9198   73.7651    2.6087 C   0  0  1  0  0  0  0  0  0  0  0  0
   21.9883   74.2072    3.6106 C   0  0  1  0  0  0  0  0  0  0  0  0
   20.6258   72.2737    2.7592 C   0  0  2  0  0  0  0  0  0  0  0  0
   23.2071   73.2756    3.5677 C   0  0  1  0  0  0  0  0  0  0  0  0
   21.9093   71.4415    2.7524 C   0  0  1  0  0  0  0  0  0  0  0  0
   19.9047   75.4537    2.7772 H   0  0  0  0  0  0  0  0  0  0  0  0
   21.5929   76.1187    3.3172 H   0  0  0  0  0  0  0  0  0  0  0  0
   18.9518   72.3892    1.7244 H   0  0  0  0  0  0  0  0  0  0  0  0
   25.0332   74.6705    4.2223 O   0  0  0  0  0  0  0  0  0  0  0  0
   24.2161   73.6030    4.6662 C   0  0  0  0  0  0  0  0  0  0  0  0
   25.6801   74.8900    4.9115 H   0  0  0  0  0  0  0  0  0  0  0  0
 25 28  1  0
 25 24  1  0
 25 26  1  1
 25 27  2  0
  1  4  1  0
  1 24  1  0
  1  2  1  6
  1  3  2  0
  6 11  1  0
  6 12  1  0
 29 36  1  0
 29 37  1  0
  9  7  1  6
  7 13  1  0
 10  8  1  1
  8 14  1  0
 37 28  1  6
  4  5  1  0
 33 30  1  1
 30 38  1  0
 34 31  1  6
 31 39  1  0
 35 32  1  6
 32 40  1  0
 41 42  1  0
 41 43  1  0
 15 19  2  0
 16 22  2  0
 12 17  1  6
 17 19  1  0
 17 20  1  0
 18 19  1  0
 18 22  1  0
 18 23  1  0
  9 10  1  0
  9 11  1  0
 10 12  1  0
 11  5  1  6
 33 34  1  0
 33 35  1  0
 34 36  1  0
 35 37  1  0
 36 42  1  1
 20 21  2  0
 21 22  1  0
M  CHG  2   2  -1  26  -1
M  END
>  <COMPND>  (25) 
    8629 

>  <AUTHOR>  (25) 
    GENERATED BY OPEN BABEL 3.1.1

>  <MASTER>  (25) 
        0    0    0    0    0    0    0    0   58    0   58    0

>  <minimizedAffinity>  (25) 
-8.24786

>  <CNNscore>  (25) 
0.6351422668

>  <CNNaffinity>  (25) 
4.6654424667

>  <CNN_VS>  (25) 
2.9632196426

>  <CNNaffinity_variance>  (25) 
0.0647415444

$$$$
26
     RDKit          3D

 43 45  0  0  0  0  0  0  0  0999 V2000
   22.5789   71.4115   -3.1605 P   0  0  2  0  0  0  0  0  0  0  0  0
   22.4208   72.1279   -1.7186 O   0  0  0  0  0  0  0  0  0  0  0  0
   23.7570   71.8687   -3.9695 O   0  0  0  0  0  0  0  0  0  0  0  0
   21.1307   71.6104   -3.8540 O   0  0  0  0  0  0  0  0  0  0  0  0
   20.4653   72.8502   -3.6865 C   0  0  0  0  0  0  0  0  0  0  0  0
   18.3460   72.6301   -4.7973 O   0  0  0  0  0  0  0  0  0  0  0  0
   17.3902   71.2713   -2.3011 O   0  0  0  0  0  0  0  0  0  0  0  0
   17.8710   69.1719   -3.9739 O   0  0  0  0  0  0  0  0  0  0  0  0
   18.6718   71.2141   -2.9253 C   0  0  1  0  0  0  0  0  0  0  0  0
   18.6109   70.3590   -4.1738 C   0  0  2  0  0  0  0  0  0  0  0  0
   18.9766   72.5925   -3.4983 C   0  0  1  0  0  0  0  0  0  0  0  0
   17.9504   71.2993   -5.1677 C   0  0  2  0  0  0  0  0  0  0  0  0
   17.1737   70.4022   -1.9273 H   0  0  0  0  0  0  0  0  0  0  0  0
   18.3319   68.6073   -3.3340 H   0  0  0  0  0  0  0  0  0  0  0  0
   16.2179   70.4896   -7.2463 O   0  0  0  0  0  0  0  0  0  0  0  0
   19.6571   70.3638  -10.3118 O   0  0  0  0  0  0  0  0  0  0  0  0
   18.3663   71.0482   -6.5187 N   0  0  0  0  0  0  0  0  0  0  0  0
   17.9317   70.4278   -8.7710 N   0  0  0  0  0  0  0  0  0  0  0  0
   17.4170   70.6448   -7.4865 C   0  0  0  0  0  0  0  0  0  0  0  0
   19.7022   71.2028   -6.8727 C   0  0  0  0  0  0  0  0  0  0  0  0
   20.1772   70.9907   -8.1018 C   0  0  0  0  0  0  0  0  0  0  0  0
   19.2511   70.5668   -9.1717 C   0  0  0  0  0  0  0  0  0  0  0  0
   17.2888   70.1457   -9.4616 H   0  0  0  0  0  0  0  0  0  0  0  0
   22.5895   69.8391   -2.7859 O   0  0  0  0  0  0  0  0  0  0  0  0
   23.5748   68.9812   -1.8340 P   0  0  2  0  0  0  0  0  0  0  0  0
   25.0478   69.3666   -2.3812 O   0  0  0  0  0  0  0  0  0  0  0  0
   23.2861   67.5080   -1.8178 O   0  0  0  0  0  0  0  0  0  0  0  0
   23.4755   69.6982   -0.3914 O   0  0  0  0  0  0  0  0  0  0  0  0
   23.3820   69.0493    1.8861 O   0  0  0  0  0  0  0  0  0  0  0  0
   20.1911   71.6691    1.8149 O   0  0  0  0  0  0  0  0  0  0  0  0
   22.6232   72.4326    3.1377 O   0  0  0  0  0  0  0  0  0  0  0  0
   20.6790   69.9262   -0.4442 O   0  0  0  0  0  0  0  0  0  0  0  0
   21.4841   71.1804    1.4480 C   0  0  1  0  0  0  0  0  0  0  0  0
   22.3435   71.1021    2.7113 C   0  0  1  0  0  0  0  0  0  0  0  0
   21.3339   69.7991    0.8133 C   0  0  2  0  0  0  0  0  0  0  0  0
   23.6490   70.3401    2.4468 C   0  0  1  0  0  0  0  0  0  0  0  0
   22.6873   69.1076    0.6388 C   0  0  1  0  0  0  0  0  0  0  0  0
   20.2792   72.5462    2.2181 H   0  0  0  0  0  0  0  0  0  0  0  0
   21.7906   72.9030    3.3008 H   0  0  0  0  0  0  0  0  0  0  0  0
   19.8235   70.3651   -0.3202 H   0  0  0  0  0  0  0  0  0  0  0  0
   23.5437   70.0354    4.8143 O   0  0  0  0  0  0  0  0  0  0  0  0
   24.4484   70.1131    3.7281 C   0  0  0  0  0  0  0  0  0  0  0  0
   24.0384   69.8907    5.6366 H   0  0  0  0  0  0  0  0  0  0  0  0
 25 28  1  0
 25 24  1  0
 25 26  1  6
 25 27  2  0
  1  4  1  0
  1 24  1  0
  1  2  1  1
  1  3  2  0
  6 11  1  0
  6 12  1  0
 29 36  1  0
 29 37  1  0
  9  7  1  6
  7 13  1  0
 10  8  1  1
  8 14  1  0
 37 28  1  6
  4  5  1  0
 33 30  1  1
 30 38  1  0
 34 31  1  6
 31 39  1  0
 35 32  1  6
 32 40  1  0
 41 42  1  0
 41 43  1  0
 15 19  2  0
 16 22  2  0
 12 17  1  6
 17 19  1  0
 17 20  1  0
 18 19  1  0
 18 22  1  0
 18 23  1  0
  9 10  1  0
  9 11  1  0
 10 12  1  0
 11  5  1  6
 33 34  1  0
 33 35  1  0
 34 36  1  0
 35 37  1  0
 36 42  1  1
 20 21  2  0
 21 22  1  0
M  CHG  2   2  -1  26  -1
M  END
>  <COMPND>  (26) 
    8629 

>  <AUTHOR>  (26) 
    GENERATED BY OPEN BABEL 3.1.1

>  <MASTER>  (26) 
        0    0    0    0    0    0    0    0   58    0   58    0

>  <minimizedAffinity>  (26) 
-9.00112

>  <CNNscore>  (26) 
0.6198889613

>  <CNNaffinity>  (26) 
4.4421777725

>  <CNN_VS>  (26) 
2.7536568642

>  <CNNaffinity_variance>  (26) 
0.0627296641

$$$$
27
     RDKit          3D

 43 45  0  0  0  0  0  0  0  0999 V2000
   22.4362   70.9878   -2.5536 P   0  0  2  0  0  0  0  0  0  0  0  0
   21.9012   72.3383   -1.8415 O   0  0  0  0  0  0  0  0  0  0  0  0
   23.5428   71.1905   -3.5465 O   0  0  0  0  0  0  0  0  0  0  0  0
   21.0928   70.2945   -3.1305 O   0  0  0  0  0  0  0  0  0  0  0  0
   20.0478   71.1300   -3.5972 C   0  0  0  0  0  0  0  0  0  0  0  0
   17.8434   71.9349   -3.0810 O   0  0  0  0  0  0  0  0  0  0  0  0
   17.4367   69.3387   -1.6371 O   0  0  0  0  0  0  0  0  0  0  0  0
   16.1390   68.9155   -3.9980 O   0  0  0  0  0  0  0  0  0  0  0  0
   18.1628   69.5995   -2.8371 C   0  0  1  0  0  0  0  0  0  0  0  0
   17.2080   69.8396   -3.9879 C   0  0  2  0  0  0  0  0  0  0  0  0
   18.8351   70.9592   -2.6926 C   0  0  1  0  0  0  0  0  0  0  0  0
   16.7477   71.2631   -3.7236 C   0  0  2  0  0  0  0  0  0  0  0  0
   16.9988   68.4752   -1.7056 H   0  0  0  0  0  0  0  0  0  0  0  0
   16.4828   68.0250   -4.1698 H   0  0  0  0  0  0  0  0  0  0  0  0
   15.0690   73.5316   -3.8411 O   0  0  0  0  0  0  0  0  0  0  0  0
   15.5393   73.8700   -8.4134 O   0  0  0  0  0  0  0  0  0  0  0  0
   16.4148   71.9642   -4.9316 N   0  0  0  0  0  0  0  0  0  0  0  0
   15.3047   73.6984   -6.1176 N   0  0  0  0  0  0  0  0  0  0  0  0
   15.5621   73.0915   -4.8817 C   0  0  0  0  0  0  0  0  0  0  0  0
   16.9322   71.5329   -6.1482 C   0  0  0  0  0  0  0  0  0  0  0  0
   16.6760   72.1219   -7.3181 C   0  0  0  0  0  0  0  0  0  0  0  0
   15.7941   73.3063   -7.3535 C   0  0  0  0  0  0  0  0  0  0  0  0
   14.7129   74.4854   -6.1074 H   0  0  0  0  0  0  0  0  0  0  0  0
   22.8222   70.0439   -1.2994 O   0  0  0  0  0  0  0  0  0  0  0  0
   22.1477   69.8915    0.1617 P   0  0  2  0  0  0  0  0  0  0  0  0
   23.0498   68.7502    0.8696 O   0  0  0  0  0  0  0  0  0  0  0  0
   20.6775   69.5891    0.1322 O   0  0  0  0  0  0  0  0  0  0  0  0
   22.5349   71.2546    0.9345 O   0  0  0  0  0  0  0  0  0  0  0  0
   22.3349   71.3335    3.2946 O   0  0  0  0  0  0  0  0  0  0  0  0
   22.3025   75.3842    2.4940 O   0  0  0  0  0  0  0  0  0  0  0  0
   24.6220   74.1958    3.7005 O   0  0  0  0  0  0  0  0  0  0  0  0
   20.9358   73.5506    0.7193 O   0  0  0  0  0  0  0  0  0  0  0  0
   22.6900   74.0211    2.3014 C   0  0  1  0  0  0  0  0  0  0  0  0
   23.3680   73.5298    3.5819 C   0  0  1  0  0  0  0  0  0  0  0  0
   21.4469   73.1871    1.9972 C   0  0  2  0  0  0  0  0  0  0  0  0
   23.5714   72.0090    3.5525 C   0  0  1  0  0  0  0  0  0  0  0  0
   21.7480   71.6879    2.0409 C   0  0  1  0  0  0  0  0  0  0  0  0
   23.0874   75.9193    2.6870 H   0  0  0  0  0  0  0  0  0  0  0  0
   24.4796   75.1553    3.7174 H   0  0  0  0  0  0  0  0  0  0  0  0
   20.7490   74.5018    0.7046 H   0  0  0  0  0  0  0  0  0  0  0  0
   25.5031   71.6724    4.9179 O   0  0  0  0  0  0  0  0  0  0  0  0
   24.1014   71.4771    4.8823 C   0  0  0  0  0  0  0  0  0  0  0  0
   25.8542   71.3388    5.7588 H   0  0  0  0  0  0  0  0  0  0  0  0
 25 28  1  0
 25 24  1  0
 25 26  1  1
 25 27  2  0
  1  4  1  0
  1 24  1  0
  1  2  1  1
  1  3  2  0
  6 11  1  0
  6 12  1  0
 29 36  1  0
 29 37  1  0
  9  7  1  1
  7 13  1  0
 10  8  1  1
  8 14  1  0
 37 28  1  6
  4  5  1  0
 33 30  1  1
 30 38  1  0
 34 31  1  6
 31 39  1  0
 35 32  1  6
 32 40  1  0
 41 42  1  0
 41 43  1  0
 15 19  2  0
 16 22  2  0
 12 17  1  6
 17 19  1  0
 17 20  1  0
 18 19  1  0
 18 22  1  0
 18 23  1  0
  9 10  1  0
  9 11  1  0
 10 12  1  0
 11  5  1  6
 33 34  1  0
 33 35  1  0
 34 36  1  0
 35 37  1  0
 36 42  1  1
 20 21  2  0
 21 22  1  0
M  CHG  2   2  -1  26  -1
M  END
>  <COMPND>  (27) 
    8629 

>  <AUTHOR>  (27) 
    GENERATED BY OPEN BABEL 3.1.1

>  <MASTER>  (27) 
        0    0    0    0    0    0    0    0   58    0   58    0

>  <minimizedAffinity>  (27) 
-7.66054

>  <CNNscore>  (27) 
0.4621455967

>  <CNNaffinity>  (27) 
4.3091578484

>  <CNN_VS>  (27) 
1.9914582968

>  <CNNaffinity_variance>  (27) 
0.0286269393

$$$$
28
     RDKit          3D

 43 45  0  0  0  0  0  0  0  0999 V2000
   19.5282   73.8323   -0.6289 P   0  0  2  0  0  0  0  0  0  0  0  0
   18.3835   74.5611    0.2520 O   0  0  0  0  0  0  0  0  0  0  0  0
   20.7481   74.6641   -0.8960 O   0  0  0  0  0  0  0  0  0  0  0  0
   18.7354   73.3072   -1.9380 O   0  0  0  0  0  0  0  0  0  0  0  0
   17.7761   74.1620   -2.5355 C   0  0  0  0  0  0  0  0  0  0  0  0
   18.5269   73.1858   -4.5988 O   0  0  0  0  0  0  0  0  0  0  0  0
   17.6687   75.7449   -5.9047 O   0  0  0  0  0  0  0  0  0  0  0  0
   15.6063   74.0589   -6.4883 O   0  0  0  0  0  0  0  0  0  0  0  0
   17.0712   75.0430   -4.8159 C   0  0  1  0  0  0  0  0  0  0  0  0
   16.3553   73.8061   -5.3171 C   0  0  2  0  0  0  0  0  0  0  0  0
   18.1902   74.4435   -3.9734 C   0  0  1  0  0  0  0  0  0  0  0  0
   17.5105   72.8490   -5.5571 C   0  0  2  0  0  0  0  0  0  0  0  0
   16.9735   76.1369   -6.4570 H   0  0  0  0  0  0  0  0  0  0  0  0
   14.8836   74.6727   -6.2839 H   0  0  0  0  0  0  0  0  0  0  0  0
   16.0630   71.3252   -7.4440 O   0  0  0  0  0  0  0  0  0  0  0  0
   16.1127   67.5927   -4.7409 O   0  0  0  0  0  0  0  0  0  0  0  0
   17.1320   71.4764   -5.3724 N   0  0  0  0  0  0  0  0  0  0  0  0
   16.0891   69.4679   -6.0966 N   0  0  0  0  0  0  0  0  0  0  0  0
   16.4050   70.8025   -6.3813 C   0  0  0  0  0  0  0  0  0  0  0  0
   17.4816   70.8127   -4.2015 C   0  0  0  0  0  0  0  0  0  0  0  0
   17.1716   69.5401   -3.9449 C   0  0  0  0  0  0  0  0  0  0  0  0
   16.4130   68.7644   -4.9473 C   0  0  0  0  0  0  0  0  0  0  0  0
   15.5826   68.9784   -6.7849 H   0  0  0  0  0  0  0  0  0  0  0  0
   19.8097   72.4707    0.1957 O   0  0  0  0  0  0  0  0  0  0  0  0
   20.4503   71.0613   -0.2691 P   0  0  2  0  0  0  0  0  0  0  0  0
   21.4471   71.4852   -1.4709 O   0  0  0  0  0  0  0  0  0  0  0  0
   19.4372   70.0185   -0.6435 O   0  0  0  0  0  0  0  0  0  0  0  0
   21.4293   70.6383    0.9423 O   0  0  0  0  0  0  0  0  0  0  0  0
   22.7423   72.2879    2.0246 O   0  0  0  0  0  0  0  0  0  0  0  0
   24.9152   68.9322    3.0583 O   0  0  0  0  0  0  0  0  0  0  0  0
   23.3372   70.2690    5.0510 O   0  0  0  0  0  0  0  0  0  0  0  0
   23.7415   69.1362    0.4201 O   0  0  0  0  0  0  0  0  0  0  0  0
   23.7306   69.6786    2.7668 C   0  0  1  0  0  0  0  0  0  0  0  0
   23.6278   70.8270    3.7726 C   0  0  1  0  0  0  0  0  0  0  0  0
   23.8195   70.2191    1.3409 C   0  0  2  0  0  0  0  0  0  0  0  0
   22.5356   71.8248    3.3642 C   0  0  1  0  0  0  0  0  0  0  0  0
   22.7166   71.2396    1.0539 C   0  0  1  0  0  0  0  0  0  0  0  0
   24.8650   68.5858    3.9622 H   0  0  0  0  0  0  0  0  0  0  0  0
   24.0341   69.6404    5.2968 H   0  0  0  0  0  0  0  0  0  0  0  0
   24.4450   68.4974    0.6121 H   0  0  0  0  0  0  0  0  0  0  0  0
   21.3328   73.0392    5.0338 O   0  0  0  0  0  0  0  0  0  0  0  0
   22.5216   73.0577    4.2652 C   0  0  0  0  0  0  0  0  0  0  0  0
   21.3103   73.8180    5.6123 H   0  0  0  0  0  0  0  0  0  0  0  0
 25 28  1  0
 25 24  1  0
 25 26  1  6
 25 27  2  0
  1  4  1  0
  1 24  1  0
  1  2  1  1
  1  3  2  0
  6 11  1  0
  6 12  1  0
 29 36  1  0
 29 37  1  0
  9  7  1  6
  7 13  1  0
 10  8  1  6
  8 14  1  0
 37 28  1  1
  4  5  1  0
 33 30  1  1
 30 38  1  0
 34 31  1  1
 31 39  1  0
 35 32  1  6
 32 40  1  0
 41 42  1  0
 41 43  1  0
 15 19  2  0
 16 22  2  0
 12 17  1  1
 17 19  1  0
 17 20  1  0
 18 19  1  0
 18 22  1  0
 18 23  1  0
  9 10  1  0
  9 11  1  0
 10 12  1  0
 11  5  1  1
 33 34  1  0
 33 35  1  0
 34 36  1  0
 35 37  1  0
 36 42  1  1
 20 21  2  0
 21 22  1  0
M  CHG  2   2  -1  26  -1
M  END
>  <COMPND>  (28) 
    8629 

>  <AUTHOR>  (28) 
    GENERATED BY OPEN BABEL 3.1.1

>  <MASTER>  (28) 
        0    0    0    0    0    0    0    0   58    0   58    0

>  <minimizedAffinity>  (28) 
-7.26216

>  <CNNscore>  (28) 
0.4529531300

>  <CNNaffinity>  (28) 
4.1311006546

>  <CNN_VS>  (28) 
1.8711949587

>  <CNNaffinity_variance>  (28) 
0.1415765136

$$$$
29
     RDKit          3D

 43 45  0  0  0  0  0  0  0  0999 V2000
   20.5491   71.4194   -0.4129 P   0  0  2  0  0  0  0  0  0  0  0  0
   20.1828   70.2478    0.6411 O   0  0  0  0  0  0  0  0  0  0  0  0
   21.5699   71.0452   -1.4469 O   0  0  0  0  0  0  0  0  0  0  0  0
   20.9295   72.6812    0.5257 O   0  0  0  0  0  0  0  0  0  0  0  0
   21.2766   72.4378    1.8777 C   0  0  0  0  0  0  0  0  0  0  0  0
   23.4136   73.2381    2.6303 O   0  0  0  0  0  0  0  0  0  0  0  0
   24.3558   70.4030    2.3747 O   0  0  0  0  0  0  0  0  0  0  0  0
   23.9285   70.6479    5.0569 O   0  0  0  0  0  0  0  0  0  0  0  0
   23.0836   70.8970    2.7907 C   0  0  1  0  0  0  0  0  0  0  0  0
   23.1739   71.4697    4.1897 C   0  0  2  0  0  0  0  0  0  0  0  0
   22.7663   72.1343    1.9603 C   0  0  1  0  0  0  0  0  0  0  0  0
   23.8337   72.8148    3.9376 C   0  0  2  0  0  0  0  0  0  0  0  0
   24.5800   69.6123    2.8909 H   0  0  0  0  0  0  0  0  0  0  0  0
   23.4673   69.8044    5.1858 H   0  0  0  0  0  0  0  0  0  0  0  0
   25.6162   74.5925    5.2183 O   0  0  0  0  0  0  0  0  0  0  0  0
   22.2102   76.5776    7.6056 O   0  0  0  0  0  0  0  0  0  0  0  0
   23.4398   73.8067    4.8980 N   0  0  0  0  0  0  0  0  0  0  0  0
   23.9188   75.5796    6.4058 N   0  0  0  0  0  0  0  0  0  0  0  0
   24.4136   74.6490    5.4833 C   0  0  0  0  0  0  0  0  0  0  0  0
   22.1008   73.9370    5.2502 C   0  0  0  0  0  0  0  0  0  0  0  0
   21.6454   74.8287    6.1326 C   0  0  0  0  0  0  0  0  0  0  0  0
   22.5977   75.7469    6.7899 C   0  0  0  0  0  0  0  0  0  0  0  0
   24.5791   76.1769    6.8267 H   0  0  0  0  0  0  0  0  0  0  0  0
   19.1059   71.8339   -1.0115 O   0  0  0  0  0  0  0  0  0  0  0  0
   18.0418   70.9953   -1.8934 P   0  0  2  0  0  0  0  0  0  0  0  0
   16.6122   71.5058   -1.3339 O   0  0  0  0  0  0  0  0  0  0  0  0
   18.2332   69.5073   -1.8374 O   0  0  0  0  0  0  0  0  0  0  0  0
   18.1497   71.6283   -3.3742 O   0  0  0  0  0  0  0  0  0  0  0  0
   18.5294   70.4537   -5.3972 O   0  0  0  0  0  0  0  0  0  0  0  0
   20.3856   74.0182   -6.3456 O   0  0  0  0  0  0  0  0  0  0  0  0
   17.8711   73.3600   -7.5672 O   0  0  0  0  0  0  0  0  0  0  0  0
   20.6135   72.9389   -3.6693 O   0  0  0  0  0  0  0  0  0  0  0  0
   19.3961   73.1872   -5.7327 C   0  0  1  0  0  0  0  0  0  0  0  0
   18.6595   72.4250   -6.8360 C   0  0  1  0  0  0  0  0  0  0  0  0
   20.0836   72.2157   -4.7751 C   0  0  2  0  0  0  0  0  0  0  0  0
   17.7706   71.3209   -6.2481 C   0  0  1  0  0  0  0  0  0  0  0  0
   19.1237   71.1292   -4.2871 C   0  0  1  0  0  0  0  0  0  0  0  0
   19.9556   74.6377   -6.9545 H   0  0  0  0  0  0  0  0  0  0  0  0
   18.4443   74.0521   -7.9327 H   0  0  0  0  0  0  0  0  0  0  0  0
   21.2198   73.6234   -3.9914 H   0  0  0  0  0  0  0  0  0  0  0  0
   17.9324   70.5654   -8.5091 O   0  0  0  0  0  0  0  0  0  0  0  0
   17.1494   70.4470   -7.3356 C   0  0  0  0  0  0  0  0  0  0  0  0
   17.5491   70.0144   -9.2098 H   0  0  0  0  0  0  0  0  0  0  0  0
 25 28  1  0
 25 24  1  0
 25 26  1  1
 25 27  2  0
  1  4  1  0
  1 24  1  0
  1  2  1  1
  1  3  2  0
  6 11  1  0
  6 12  1  0
 29 36  1  0
 29 37  1  0
  9  7  1  6
  7 13  1  0
 10  8  1  1
  8 14  1  0
 37 28  1  6
  4  5  1  0
 33 30  1  6
 30 38  1  0
 34 31  1  1
 31 39  1  0
 35 32  1  1
 32 40  1  0
 41 42  1  0
 41 43  1  0
 15 19  2  0
 16 22  2  0
 12 17  1  1
 17 19  1  0
 17 20  1  0
 18 19  1  0
 18 22  1  0
 18 23  1  0
  9 10  1  0
  9 11  1  0
 10 12  1  0
 11  5  1  1
 33 34  1  0
 33 35  1  0
 34 36  1  0
 35 37  1  0
 36 42  1  6
 20 21  2  0
 21 22  1  0
M  CHG  2   2  -1  26  -1
M  END
>  <COMPND>  (29) 
    8629 

>  <AUTHOR>  (29) 
    GENERATED BY OPEN BABEL 3.1.1

>  <MASTER>  (29) 
        0    0    0    0    0    0    0    0   58    0   58    0

>  <minimizedAffinity>  (29) 
-6.91272

>  <CNNscore>  (29) 
0.4431549907

>  <CNNaffinity>  (29) 
3.9078617096

>  <CNN_VS>  (29) 
1.7317883968

>  <CNNaffinity_variance>  (29) 
0.1016065627

$$$$
30
     RDKit          3D

 43 45  0  0  0  0  0  0  0  0999 V2000
   22.7622   72.8912   -3.2740 P   0  0  2  0  0  0  0  0  0  0  0  0
   23.5889   71.5942   -3.7759 O   0  0  0  0  0  0  0  0  0  0  0  0
   23.5543   74.1642   -3.2157 O   0  0  0  0  0  0  0  0  0  0  0  0
   22.0981   72.4123   -1.8785 O   0  0  0  0  0  0  0  0  0  0  0  0
   22.9548   72.1040   -0.7927 C   0  0  0  0  0  0  0  0  0  0  0  0
   23.1300   70.7524    1.1862 O   0  0  0  0  0  0  0  0  0  0  0  0
   20.3919   69.7357    0.5079 O   0  0  0  0  0  0  0  0  0  0  0  0
   19.8786   71.5674    2.4618 O   0  0  0  0  0  0  0  0  0  0  0  0
   20.9369   71.0430    0.3367 C   0  0  1  0  0  0  0  0  0  0  0  0
   21.0360   71.7504    1.6721 C   0  0  2  0  0  0  0  0  0  0  0  0
   22.4021   70.8932   -0.0534 C   0  0  1  0  0  0  0  0  0  0  0  0
   22.2678   71.1025    2.2812 C   0  0  2  0  0  0  0  0  0  0  0  0
   19.4565   69.8056    0.7570 H   0  0  0  0  0  0  0  0  0  0  0  0
   19.1227   71.9974    2.0324 H   0  0  0  0  0  0  0  0  0  0  0  0
   23.4263   70.3197    4.7354 O   0  0  0  0  0  0  0  0  0  0  0  0
   24.9452   74.5865    5.5892 O   0  0  0  0  0  0  0  0  0  0  0  0
   22.9723   71.9882    3.1647 N   0  0  0  0  0  0  0  0  0  0  0  0
   24.1818   72.4448    5.1585 N   0  0  0  0  0  0  0  0  0  0  0  0
   23.5154   71.4949    4.3739 C   0  0  0  0  0  0  0  0  0  0  0  0
   23.1193   73.3297    2.8288 C   0  0  0  0  0  0  0  0  0  0  0  0
   23.7565   74.2230    3.5886 C   0  0  0  0  0  0  0  0  0  0  0  0
   24.3531   73.7892    4.8684 C   0  0  0  0  0  0  0  0  0  0  0  0
   24.5680   72.1241    6.0057 H   0  0  0  0  0  0  0  0  0  0  0  0
   21.4996   72.9301   -4.2827 O   0  0  0  0  0  0  0  0  0  0  0  0
   21.3514   73.5333   -5.7750 P   0  0  2  0  0  0  0  0  0  0  0  0
   22.6219   72.9066   -6.5565 O   0  0  0  0  0  0  0  0  0  0  0  0
   21.2693   75.0314   -5.8279 O   0  0  0  0  0  0  0  0  0  0  0  0
   20.0727   72.7710   -6.3986 O   0  0  0  0  0  0  0  0  0  0  0  0
   18.9895   70.8165   -5.6091 O   0  0  0  0  0  0  0  0  0  0  0  0
   18.4768   70.2608   -9.6685 O   0  0  0  0  0  0  0  0  0  0  0  0
   16.2260   70.9936   -8.0423 O   0  0  0  0  0  0  0  0  0  0  0  0
   20.9549   71.3702   -8.6646 O   0  0  0  0  0  0  0  0  0  0  0  0
   18.5809   71.0185   -8.4601 C   0  0  1  0  0  0  0  0  0  0  0  0
   17.4739   70.5591   -7.5091 C   0  0  1  0  0  0  0  0  0  0  0  0
   19.9561   70.7811   -7.8389 C   0  0  2  0  0  0  0  0  0  0  0  0
   17.6812   71.1310   -6.1002 C   0  0  1  0  0  0  0  0  0  0  0  0
   20.0402   71.3463   -6.4199 C   0  0  1  0  0  0  0  0  0  0  0  0
   17.6061   70.4075  -10.0683 H   0  0  0  0  0  0  0  0  0  0  0  0
   16.1076   70.6260   -8.9322 H   0  0  0  0  0  0  0  0  0  0  0  0
   20.8914   71.0040   -9.5600 H   0  0  0  0  0  0  0  0  0  0  0  0
   16.0102   69.4699   -5.7037 O   0  0  0  0  0  0  0  0  0  0  0  0
   16.6797   70.5606   -5.0984 C   0  0  0  0  0  0  0  0  0  0  0  0
   15.3697   69.0966   -5.0774 H   0  0  0  0  0  0  0  0  0  0  0  0
 25 28  1  0
 25 24  1  0
 25 26  1  6
 25 27  2  0
  1  4  1  0
  1 24  1  0
  1  2  1  6
  1  3  2  0
  6 11  1  0
  6 12  1  0
 29 36  1  0
 29 37  1  0
  9  7  1  1
  7 13  1  0
 10  8  1  1
  8 14  1  0
 37 28  1  6
  4  5  1  0
 33 30  1  6
 30 38  1  0
 34 31  1  6
 31 39  1  0
 35 32  1  6
 32 40  1  0
 41 42  1  0
 41 43  1  0
 15 19  2  0
 16 22  2  0
 12 17  1  1
 17 19  1  0
 17 20  1  0
 18 19  1  0
 18 22  1  0
 18 23  1  0
  9 10  1  0
  9 11  1  0
 10 12  1  0
 11  5  1  1
 33 34  1  0
 33 35  1  0
 34 36  1  0
 35 37  1  0
 36 42  1  1
 20 21  2  0
 21 22  1  0
M  CHG  2   2  -1  26  -1
M  END
>  <COMPND>  (30) 
    8629 

>  <AUTHOR>  (30) 
    GENERATED BY OPEN BABEL 3.1.1

>  <MASTER>  (30) 
        0    0    0    0    0    0    0    0   58    0   58    0

>  <minimizedAffinity>  (30) 
-8.85169

>  <CNNscore>  (30) 
0.3363171816

>  <CNNaffinity>  (30) 
3.7418518066

>  <CNN_VS>  (30) 
1.2584490776

>  <CNNaffinity_variance>  (30) 
0.3100789487

$$$$
31
     RDKit          3D

 43 45  0  0  0  0  0  0  0  0999 V2000
   18.9849   72.1155   -0.6955 P   0  0  2  0  0  0  0  0  0  0  0  0
   19.7321   73.4765   -1.1501 O   0  0  0  0  0  0  0  0  0  0  0  0
   18.4204   72.1364    0.6946 O   0  0  0  0  0  0  0  0  0  0  0  0
   20.0734   70.9563   -0.9945 O   0  0  0  0  0  0  0  0  0  0  0  0
   20.7511   70.3664    0.1011 C   0  0  0  0  0  0  0  0  0  0  0  0
   22.6145   71.7942    0.6138 O   0  0  0  0  0  0  0  0  0  0  0  0
   24.3577   69.4583   -0.0903 O   0  0  0  0  0  0  0  0  0  0  0  0
   24.3534   69.3964    2.6360 O   0  0  0  0  0  0  0  0  0  0  0  0
   23.0885   69.4730    0.5610 C   0  0  1  0  0  0  0  0  0  0  0  0
   23.2345   69.9642    1.9861 C   0  0  2  0  0  0  0  0  0  0  0  0
   22.2492   70.5762   -0.0713 C   0  0  1  0  0  0  0  0  0  0  0  0
   23.3716   71.4645    1.7897 C   0  0  2  0  0  0  0  0  0  0  0  0
   24.9114   68.7613    0.2964 H   0  0  0  0  0  0  0  0  0  0  0  0
   24.2183   68.4413    2.7375 H   0  0  0  0  0  0  0  0  0  0  0  0
   24.8258   72.0340    4.1432 O   0  0  0  0  0  0  0  0  0  0  0  0
   21.2880   74.3389    5.9904 O   0  0  0  0  0  0  0  0  0  0  0  0
   22.8551   72.2118    2.9016 N   0  0  0  0  0  0  0  0  0  0  0  0
   23.0632   73.1814    5.0610 N   0  0  0  0  0  0  0  0  0  0  0  0
   23.6672   72.4413    4.0366 C   0  0  0  0  0  0  0  0  0  0  0  0
   21.5570   72.7088    2.8594 C   0  0  0  0  0  0  0  0  0  0  0  0
   20.9953   73.4116    3.8452 C   0  0  0  0  0  0  0  0  0  0  0  0
   21.7762   73.6955    5.0665 C   0  0  0  0  0  0  0  0  0  0  0  0
   23.6099   73.3533    5.8618 H   0  0  0  0  0  0  0  0  0  0  0  0
   17.8892   71.8950   -1.8633 O   0  0  0  0  0  0  0  0  0  0  0  0
   17.2884   70.5425   -2.5136 P   0  0  2  0  0  0  0  0  0  0  0  0
   15.6917   70.8031   -2.5028 O   0  0  0  0  0  0  0  0  0  0  0  0
   17.7149   69.2827   -1.8172 O   0  0  0  0  0  0  0  0  0  0  0  0
   17.7034   70.6189   -4.0714 O   0  0  0  0  0  0  0  0  0  0  0  0
   17.8773   72.7563   -5.0803 O   0  0  0  0  0  0  0  0  0  0  0  0
   17.5277   70.4461   -8.4850 O   0  0  0  0  0  0  0  0  0  0  0  0
   20.0626   71.6232   -7.8242 O   0  0  0  0  0  0  0  0  0  0  0  0
   15.9843   69.7853   -6.1268 O   0  0  0  0  0  0  0  0  0  0  0  0
   17.9433   70.7436   -7.1492 C   0  0  1  0  0  0  0  0  0  0  0  0
   18.8384   71.9837   -7.1905 C   0  0  1  0  0  0  0  0  0  0  0  0
   16.7083   71.0004   -6.2877 C   0  0  2  0  0  0  0  0  0  0  0  0
   19.1059   72.5210   -5.7781 C   0  0  1  0  0  0  0  0  0  0  0  0
   17.0827   71.5792   -4.9221 C   0  0  1  0  0  0  0  0  0  0  0  0
   18.3072   70.2816   -9.0371 H   0  0  0  0  0  0  0  0  0  0  0  0
   19.8797   71.2850   -8.7149 H   0  0  0  0  0  0  0  0  0  0  0  0
   15.7530   69.4291   -6.9983 H   0  0  0  0  0  0  0  0  0  0  0  0
   19.1285   74.7700   -6.5846 O   0  0  0  0  0  0  0  0  0  0  0  0
   19.8647   73.8461   -5.8044 C   0  0  0  0  0  0  0  0  0  0  0  0
   19.5994   75.6182   -6.6100 H   0  0  0  0  0  0  0  0  0  0  0  0
 25 28  1  0
 25 24  1  0
 25 26  1  6
 25 27  2  0
  1  4  1  0
  1 24  1  0
  1  2  1  6
  1  3  2  0
  6 11  1  0
  6 12  1  0
 29 36  1  0
 29 37  1  0
  9  7  1  6
  7 13  1  0
 10  8  1  6
  8 14  1  0
 37 28  1  1
  4  5  1  0
 33 30  1  6
 30 38  1  0
 34 31  1  1
 31 39  1  0
 35 32  1  1
 32 40  1  0
 41 42  1  0
 41 43  1  0
 15 19  2  0
 16 22  2  0
 12 17  1  1
 17 19  1  0
 17 20  1  0
 18 19  1  0
 18 22  1  0
 18 23  1  0
  9 10  1  0
  9 11  1  0
 10 12  1  0
 11  5  1  1
 33 34  1  0
 33 35  1  0
 34 36  1  0
 35 37  1  0
 36 42  1  6
 20 21  2  0
 21 22  1  0
M  CHG  2   2  -1  26  -1
M  END
>  <COMPND>  (31) 
    8629 

>  <AUTHOR>  (31) 
    GENERATED BY OPEN BABEL 3.1.1

>  <MASTER>  (31) 
        0    0    0    0    0    0    0    0   58    0   58    0

>  <minimizedAffinity>  (31) 
-7.31741

>  <CNNscore>  (31) 
0.3357433081

>  <CNNaffinity>  (31) 
3.7427906990

>  <CNN_VS>  (31) 
1.2566169500

>  <CNNaffinity_variance>  (31) 
0.4884974062

$$$$
32
     RDKit          3D

 43 45  0  0  0  0  0  0  0  0999 V2000
   22.1397   70.8479   -2.8953 P   0  0  2  0  0  0  0  0  0  0  0  0
   23.7104   70.5610   -3.1561 O   0  0  0  0  0  0  0  0  0  0  0  0
   21.2054   69.8166   -3.4565 O   0  0  0  0  0  0  0  0  0  0  0  0
   21.9258   72.3580   -3.4354 O   0  0  0  0  0  0  0  0  0  0  0  0
   20.6021   72.8368   -3.5977 C   0  0  0  0  0  0  0  0  0  0  0  0
   19.9117   72.0775   -5.7704 O   0  0  0  0  0  0  0  0  0  0  0  0
   19.5879   74.9743   -6.4737 O   0  0  0  0  0  0  0  0  0  0  0  0
   17.0221   74.1911   -5.9836 O   0  0  0  0  0  0  0  0  0  0  0  0
   19.3324   74.3123   -5.2360 C   0  0  1  0  0  0  0  0  0  0  0  0
   18.0624   73.4928   -5.3303 C   0  0  2  0  0  0  0  0  0  0  0  0
   20.3936   73.2346   -5.0525 C   0  0  1  0  0  0  0  0  0  0  0  0
   18.5298   72.2760   -6.1108 C   0  0  2  0  0  0  0  0  0  0  0  0
   18.9229   75.6674   -6.6127 H   0  0  0  0  0  0  0  0  0  0  0  0
   16.7598   74.9560   -5.4480 H   0  0  0  0  0  0  0  0  0  0  0  0
   16.1920   71.4183   -7.4438 O   0  0  0  0  0  0  0  0  0  0  0  0
   15.7804   67.7180   -4.7274 O   0  0  0  0  0  0  0  0  0  0  0  0
   17.7916   71.0919   -5.7729 N   0  0  0  0  0  0  0  0  0  0  0  0
   15.9891   69.5764   -6.0903 N   0  0  0  0  0  0  0  0  0  0  0  0
   16.6301   70.7510   -6.5045 C   0  0  0  0  0  0  0  0  0  0  0  0
   18.2210   70.2824   -4.7268 C   0  0  0  0  0  0  0  0  0  0  0  0
   17.5977   69.1663   -4.3435 C   0  0  0  0  0  0  0  0  0  0  0  0
   16.3762   68.7392   -5.0559 C   0  0  0  0  0  0  0  0  0  0  0  0
   15.1774   69.3193   -6.5851 H   0  0  0  0  0  0  0  0  0  0  0  0
   22.0637   71.0220   -1.2900 O   0  0  0  0  0  0  0  0  0  0  0  0
   21.2315   70.2035   -0.1718 P   0  0  2  0  0  0  0  0  0  0  0  0
   22.0664   68.8258   -0.0224 O   0  0  0  0  0  0  0  0  0  0  0  0
   19.7790   70.0148   -0.5013 O   0  0  0  0  0  0  0  0  0  0  0  0
   21.5070   70.9985    1.2056 O   0  0  0  0  0  0  0  0  0  0  0  0
   22.6956   72.9956    1.6695 O   0  0  0  0  0  0  0  0  0  0  0  0
   23.8208   70.7774    4.9656 O   0  0  0  0  0  0  0  0  0  0  0  0
   21.9709   72.9511    5.2836 O   0  0  0  0  0  0  0  0  0  0  0  0
   23.5651   69.4968    2.3822 O   0  0  0  0  0  0  0  0  0  0  0  0
   22.9332   71.2243    3.9371 C   0  0  1  0  0  0  0  0  0  0  0  0
   22.7321   72.7323    4.0991 C   0  0  1  0  0  0  0  0  0  0  0  0
   23.5476   70.9071    2.5750 C   0  0  2  0  0  0  0  0  0  0  0  0
   22.0110   73.3289    2.8828 C   0  0  1  0  0  0  0  0  0  0  0  0
   22.7835   71.5883    1.4382 C   0  0  1  0  0  0  0  0  0  0  0  0
   23.4363   70.9754    5.8331 H   0  0  0  0  0  0  0  0  0  0  0  0
   22.4369   72.5693    6.0440 H   0  0  0  0  0  0  0  0  0  0  0  0
   24.0520   69.0774    3.1080 H   0  0  0  0  0  0  0  0  0  0  0  0
   22.5483   75.3834    1.7877 O   0  0  0  0  0  0  0  0  0  0  0  0
   21.9400   74.8528    2.9507 C   0  0  0  0  0  0  0  0  0  0  0  0
   22.5102   76.3526    1.8170 H   0  0  0  0  0  0  0  0  0  0  0  0
 25 28  1  0
 25 24  1  0
 25 26  1  1
 25 27  2  0
  1  4  1  0
  1 24  1  0
  1  2  1  1
  1  3  2  0
  6 11  1  0
  6 12  1  0
 29 36  1  0
 29 37  1  0
  9  7  1  6
  7 13  1  0
 10  8  1  6
  8 14  1  0
 37 28  1  1
  4  5  1  0
 33 30  1  1
 30 38  1  0
 34 31  1  1
 31 39  1  0
 35 32  1  6
 32 40  1  0
 41 42  1  0
 41 43  1  0
 15 19  2  0
 16 22  2  0
 12 17  1  1
 17 19  1  0
 17 20  1  0
 18 19  1  0
 18 22  1  0
 18 23  1  0
  9 10  1  0
  9 11  1  0
 10 12  1  0
 11  5  1  1
 33 34  1  0
 33 35  1  0
 34 36  1  0
 35 37  1  0
 36 42  1  1
 20 21  2  0
 21 22  1  0
M  CHG  2   2  -1  26  -1
M  END
>  <COMPND>  (32) 
    8629 

>  <AUTHOR>  (32) 
    GENERATED BY OPEN BABEL 3.1.1

>  <MASTER>  (32) 
        0    0    0    0    0    0    0    0   58    0   58    0

>  <minimizedAffinity>  (32) 
-7.76104

>  <CNNscore>  (32) 
0.3269008100

>  <CNNaffinity>  (32) 
4.0613503456

>  <CNN_VS>  (32) 
1.3276587725

>  <CNNaffinity_variance>  (32) 
0.1179395765

$$$$
33
     RDKit          3D

 43 45  0  0  0  0  0  0  0  0999 V2000
   22.3621   70.7661   -2.5395 P   0  0  2  0  0  0  0  0  0  0  0  0
   23.8175   70.3666   -3.1224 O   0  0  0  0  0  0  0  0  0  0  0  0
   21.2592   69.8060   -2.8762 O   0  0  0  0  0  0  0  0  0  0  0  0
   22.1465   72.2885   -3.0430 O   0  0  0  0  0  0  0  0  0  0  0  0
   20.8455   72.6946   -3.4305 C   0  0  0  0  0  0  0  0  0  0  0  0
   20.3400   71.7720   -5.5909 O   0  0  0  0  0  0  0  0  0  0  0  0
   20.3403   74.5989   -6.5908 O   0  0  0  0  0  0  0  0  0  0  0  0
   17.6794   74.0576   -6.3394 O   0  0  0  0  0  0  0  0  0  0  0  0
   19.8941   74.0855   -5.3367 C   0  0  1  0  0  0  0  0  0  0  0  0
   18.5783   73.3550   -5.5057 C   0  0  2  0  0  0  0  0  0  0  0  0
   20.8343   72.9576   -4.9302 C   0  0  1  0  0  0  0  0  0  0  0  0
   19.0261   72.0350   -6.1099 C   0  0  2  0  0  0  0  0  0  0  0  0
   19.7554   75.3209   -6.8710 H   0  0  0  0  0  0  0  0  0  0  0  0
   17.4241   74.8896   -5.9113 H   0  0  0  0  0  0  0  0  0  0  0  0
   16.7166   71.2979   -7.5592 O   0  0  0  0  0  0  0  0  0  0  0  0
   15.7714   67.8475   -4.6537 O   0  0  0  0  0  0  0  0  0  0  0  0
   18.1583   70.9477   -5.7548 N   0  0  0  0  0  0  0  0  0  0  0  0
   16.2479   69.5803   -6.1114 N   0  0  0  0  0  0  0  0  0  0  0  0
   17.0236   70.6614   -6.5492 C   0  0  0  0  0  0  0  0  0  0  0  0
   18.4360   70.1783   -4.6302 C   0  0  0  0  0  0  0  0  0  0  0  0
   17.6855   69.1515   -4.2255 C   0  0  0  0  0  0  0  0  0  0  0  0
   16.4818   68.7862   -5.0000 C   0  0  0  0  0  0  0  0  0  0  0  0
   15.4521   69.3626   -6.6491 H   0  0  0  0  0  0  0  0  0  0  0  0
   22.6404   70.9428   -0.9570 O   0  0  0  0  0  0  0  0  0  0  0  0
   22.4905   69.9012    0.2700 P   0  0  2  0  0  0  0  0  0  0  0  0
   23.5703   68.7503   -0.0862 O   0  0  0  0  0  0  0  0  0  0  0  0
   21.0927   69.3952    0.4803 O   0  0  0  0  0  0  0  0  0  0  0  0
   23.1208   70.6725    1.5400 O   0  0  0  0  0  0  0  0  0  0  0  0
   22.9196   71.0052    3.8778 O   0  0  0  0  0  0  0  0  0  0  0  0
   22.1395   74.8517    2.5944 O   0  0  0  0  0  0  0  0  0  0  0  0
   24.6431   74.2638    3.8730 O   0  0  0  0  0  0  0  0  0  0  0  0
   21.1259   72.5947    1.0917 O   0  0  0  0  0  0  0  0  0  0  0  0
   22.7702   73.5686    2.5577 C   0  0  1  0  0  0  0  0  0  0  0  0
   23.5324   73.3712    3.8695 C   0  0  1  0  0  0  0  0  0  0  0  0
   21.7004   72.4912    2.3901 C   0  0  2  0  0  0  0  0  0  0  0  0
   24.0118   71.9211    4.0188 C   0  0  1  0  0  0  0  0  0  0  0  0
   22.2722   71.0890    2.6067 C   0  0  1  0  0  0  0  0  0  0  0  0
   22.8134   75.5404    2.7001 H   0  0  0  0  0  0  0  0  0  0  0  0
   24.3267   75.1759    3.7775 H   0  0  0  0  0  0  0  0  0  0  0  0
   20.7672   73.4867    0.9671 H   0  0  0  0  0  0  0  0  0  0  0  0
   25.9190   72.2613    5.4174 O   0  0  0  0  0  0  0  0  0  0  0  0
   24.6361   71.6633    5.3885 C   0  0  0  0  0  0  0  0  0  0  0  0
   26.3282   72.1056    6.2834 H   0  0  0  0  0  0  0  0  0  0  0  0
 25 28  1  0
 25 24  1  0
 25 26  1  6
 25 27  2  0
  1  4  1  0
  1 24  1  0
  1  2  1  6
  1  3  2  0
  6 11  1  0
  6 12  1  0
 29 36  1  0
 29 37  1  0
  9  7  1  6
  7 13  1  0
 10  8  1  6
  8 14  1  0
 37 28  1  6
  4  5  1  0
 33 30  1  1
 30 38  1  0
 34 31  1  6
 31 39  1  0
 35 32  1  6
 32 40  1  0
 41 42  1  0
 41 43  1  0
 15 19  2  0
 16 22  2  0
 12 17  1  1
 17 19  1  0
 17 20  1  0
 18 19  1  0
 18 22  1  0
 18 23  1  0
  9 10  1  0
  9 11  1  0
 10 12  1  0
 11  5  1  1
 33 34  1  0
 33 35  1  0
 34 36  1  0
 35 37  1  0
 36 42  1  1
 20 21  2  0
 21 22  1  0
M  CHG  2   2  -1  26  -1
M  END
>  <COMPND>  (33) 
    8629 

>  <AUTHOR>  (33) 
    GENERATED BY OPEN BABEL 3.1.1

>  <MASTER>  (33) 
        0    0    0    0    0    0    0    0   58    0   58    0

>  <minimizedAffinity>  (33) 
-7.95007

>  <CNNscore>  (33) 
0.3258945048

>  <CNNaffinity>  (33) 
4.0179681778

>  <CNN_VS>  (33) 
1.3094336987

>  <CNNaffinity_variance>  (33) 
0.1047550812

$$$$
34
     RDKit          3D

 43 45  0  0  0  0  0  0  0  0999 V2000
   20.3000   74.5995   -3.4956 P   0  0  2  0  0  0  0  0  0  0  0  0
   20.4110   74.5893   -1.8816 O   0  0  0  0  0  0  0  0  0  0  0  0
   20.5575   75.9298   -4.1402 O   0  0  0  0  0  0  0  0  0  0  0  0
   18.8496   73.9454   -3.7894 O   0  0  0  0  0  0  0  0  0  0  0  0
   18.1536   73.3347   -2.7168 C   0  0  0  0  0  0  0  0  0  0  0  0
   16.7397   72.9376   -4.6187 O   0  0  0  0  0  0  0  0  0  0  0  0
   14.8563   71.6037   -2.7045 O   0  0  0  0  0  0  0  0  0  0  0  0
   16.1099   69.4854   -3.8784 O   0  0  0  0  0  0  0  0  0  0  0  0
   16.2829   71.6102   -2.7095 C   0  0  1  0  0  0  0  0  0  0  0  0
   16.8091   70.7114   -3.8089 C   0  0  2  0  0  0  0  0  0  0  0  0
   16.7442   72.9857   -3.1750 C   0  0  1  0  0  0  0  0  0  0  0  0
   16.6046   71.5718   -5.0442 C   0  0  2  0  0  0  0  0  0  0  0  0
   14.5381   70.7353   -2.4102 H   0  0  0  0  0  0  0  0  0  0  0  0
   16.2718   68.9744   -3.0700 H   0  0  0  0  0  0  0  0  0  0  0  0
   15.9713   70.9275   -7.7204 O   0  0  0  0  0  0  0  0  0  0  0  0
   20.4176   70.5599   -8.8765 O   0  0  0  0  0  0  0  0  0  0  0  0
   17.5770   71.3033   -6.0658 N   0  0  0  0  0  0  0  0  0  0  0  0
   18.1857   70.7452   -8.2939 N   0  0  0  0  0  0  0  0  0  0  0  0
   17.1540   70.9884   -7.3782 C   0  0  0  0  0  0  0  0  0  0  0  0
   18.9331   71.3540   -5.7621 C   0  0  0  0  0  0  0  0  0  0  0  0
   19.9045   71.1181   -6.6465 C   0  0  0  0  0  0  0  0  0  0  0  0
   19.5477   70.7821   -8.0400 C   0  0  0  0  0  0  0  0  0  0  0  0
   17.9149   70.5234   -9.2144 H   0  0  0  0  0  0  0  0  0  0  0  0
   21.3229   73.4285   -3.9377 O   0  0  0  0  0  0  0  0  0  0  0  0
   22.8238   73.0876   -3.4434 P   0  0  2  0  0  0  0  0  0  0  0  0
   23.3353   74.4887   -2.8169 O   0  0  0  0  0  0  0  0  0  0  0  0
   23.7126   72.5277   -4.5160 O   0  0  0  0  0  0  0  0  0  0  0  0
   22.6237   72.1194   -2.1677 O   0  0  0  0  0  0  0  0  0  0  0  0
   22.5685   69.7857   -2.5765 O   0  0  0  0  0  0  0  0  0  0  0  0
   20.8716   69.8364    1.1876 O   0  0  0  0  0  0  0  0  0  0  0  0
   23.5481   68.8507    0.8520 O   0  0  0  0  0  0  0  0  0  0  0  0
   20.2319   71.9241   -0.7129 O   0  0  0  0  0  0  0  0  0  0  0  0
   21.7559   70.2711    0.1511 C   0  0  1  0  0  0  0  0  0  0  0  0
   22.6582   69.0968   -0.2332 C   0  0  1  0  0  0  0  0  0  0  0  0
   20.9304   70.7302   -1.0494 C   0  0  2  0  0  0  0  0  0  0  0  0
   23.4480   69.4009   -1.5134 C   0  0  1  0  0  0  0  0  0  0  0  0
   21.8059   70.9579   -2.2830 C   0  0  1  0  0  0  0  0  0  0  0  0
   21.3894   69.5440    1.9530 H   0  0  0  0  0  0  0  0  0  0  0  0
   23.0368   68.6605    1.6543 H   0  0  0  0  0  0  0  0  0  0  0  0
   19.6812   71.7668    0.0693 H   0  0  0  0  0  0  0  0  0  0  0  0
   24.4138   68.3012   -3.4020 O   0  0  0  0  0  0  0  0  0  0  0  0
   24.2343   68.1865   -2.0024 C   0  0  0  0  0  0  0  0  0  0  0  0
   24.9131   67.5353   -3.7272 H   0  0  0  0  0  0  0  0  0  0  0  0
 25 28  1  0
 25 24  1  0
 25 26  1  1
 25 27  2  0
  1  4  1  0
  1 24  1  0
  1  2  1  1
  1  3  2  0
  6 11  1  0
  6 12  1  0
 29 36  1  0
 29 37  1  0
  9  7  1  6
  7 13  1  0
 10  8  1  6
  8 14  1  0
 37 28  1  1
  4  5  1  0
 33 30  1  1
 30 38  1  0
 34 31  1  1
 31 39  1  0
 35 32  1  1
 32 40  1  0
 41 42  1  0
 41 43  1  0
 15 19  2  0
 16 22  2  0
 12 17  1  6
 17 19  1  0
 17 20  1  0
 18 19  1  0
 18 22  1  0
 18 23  1  0
  9 10  1  0
  9 11  1  0
 10 12  1  0
 11  5  1  1
 33 34  1  0
 33 35  1  0
 34 36  1  0
 35 37  1  0
 36 42  1  6
 20 21  2  0
 21 22  1  0
M  CHG  2   2  -1  26  -1
M  END
>  <COMPND>  (34) 
    8629 

>  <AUTHOR>  (34) 
    GENERATED BY OPEN BABEL 3.1.1

>  <MASTER>  (34) 
        0    0    0    0    0    0    0    0   58    0   58    0

>  <minimizedAffinity>  (34) 
-7.62617

>  <CNNscore>  (34) 
0.3077366054

>  <CNNaffinity>  (34) 
4.1505284309

>  <CNN_VS>  (34) 
1.2772694826

>  <CNNaffinity_variance>  (34) 
0.4440902770

$$$$
35
     RDKit          3D

 43 45  0  0  0  0  0  0  0  0999 V2000
   22.5902   73.1013   -3.2847 P   0  0  2  0  0  0  0  0  0  0  0  0
   23.4156   71.7734   -3.7005 O   0  0  0  0  0  0  0  0  0  0  0  0
   23.4029   74.3614   -3.2293 O   0  0  0  0  0  0  0  0  0  0  0  0
   21.8483   72.6826   -1.9091 O   0  0  0  0  0  0  0  0  0  0  0  0
   22.6450   72.3447   -0.7871 C   0  0  0  0  0  0  0  0  0  0  0  0
   21.8483   70.0805   -0.6745 O   0  0  0  0  0  0  0  0  0  0  0  0
   21.6240   70.5045    2.2854 O   0  0  0  0  0  0  0  0  0  0  0  0
   23.9507   69.1000    2.0607 O   0  0  0  0  0  0  0  0  0  0  0  0
   22.6020   71.0029    1.3741 C   0  0  1  0  0  0  0  0  0  0  0  0
   23.5508   69.8960    0.9638 C   0  0  2  0  0  0  0  0  0  0  0  0
   21.8996   71.3229    0.0605 C   0  0  1  0  0  0  0  0  0  0  0  0
   22.7174   69.1246   -0.0454 C   0  0  2  0  0  0  0  0  0  0  0  0
   22.0490   70.2934    3.1320 H   0  0  0  0  0  0  0  0  0  0  0  0
   24.4778   69.6355    2.6740 H   0  0  0  0  0  0  0  0  0  0  0  0
   22.9087   66.3311   -0.4159 O   0  0  0  0  0  0  0  0  0  0  0  0
   25.8397   66.8147   -3.9396 O   0  0  0  0  0  0  0  0  0  0  0  0
   23.5228   68.4932   -1.0523 N   0  0  0  0  0  0  0  0  0  0  0  0
   24.3678   66.5742   -2.1702 N   0  0  0  0  0  0  0  0  0  0  0  0
   23.5497   67.0827   -1.1533 C   0  0  0  0  0  0  0  0  0  0  0  0
   24.2747   69.2706   -1.9265 C   0  0  0  0  0  0  0  0  0  0  0  0
   25.0508   68.7702   -2.8900 C   0  0  0  0  0  0  0  0  0  0  0  0
   25.1349   67.3056   -3.0631 C   0  0  0  0  0  0  0  0  0  0  0  0
   24.4025   65.5941   -2.2593 H   0  0  0  0  0  0  0  0  0  0  0  0
   21.3804   73.1276   -4.3565 O   0  0  0  0  0  0  0  0  0  0  0  0
   21.3356   73.6218   -5.8949 P   0  0  2  0  0  0  0  0  0  0  0  0
   22.6439   72.9274   -6.5459 O   0  0  0  0  0  0  0  0  0  0  0  0
   21.2787   75.1129   -6.0608 O   0  0  0  0  0  0  0  0  0  0  0  0
   20.0882   72.8286   -6.5427 O   0  0  0  0  0  0  0  0  0  0  0  0
   18.9994   70.9210   -5.6528 O   0  0  0  0  0  0  0  0  0  0  0  0
   18.4846   70.1568   -9.6779 O   0  0  0  0  0  0  0  0  0  0  0  0
   16.2361   70.9796   -8.0920 O   0  0  0  0  0  0  0  0  0  0  0  0
   20.9660   71.3096   -8.7328 O   0  0  0  0  0  0  0  0  0  0  0  0
   18.5911   70.9759   -8.5104 C   0  0  1  0  0  0  0  0  0  0  0  0
   17.4828   70.5697   -7.5370 C   0  0  1  0  0  0  0  0  0  0  0  0
   19.9656   70.7670   -7.8777 C   0  0  2  0  0  0  0  0  0  0  0  0
   17.6920   71.2133   -6.1596 C   0  0  1  0  0  0  0  0  0  0  0  0
   20.0515   71.4049   -6.4899 C   0  0  1  0  0  0  0  0  0  0  0  0
   17.6143   70.2851  -10.0848 H   0  0  0  0  0  0  0  0  0  0  0  0
   16.1166   70.5666   -8.9617 H   0  0  0  0  0  0  0  0  0  0  0  0
   20.9014   70.8975   -9.6080 H   0  0  0  0  0  0  0  0  0  0  0  0
   16.0501   69.5513   -5.6586 O   0  0  0  0  0  0  0  0  0  0  0  0
   16.6889   70.6987   -5.1296 C   0  0  0  0  0  0  0  0  0  0  0  0
   15.4090   69.2126   -5.0137 H   0  0  0  0  0  0  0  0  0  0  0  0
 25 28  1  0
 25 24  1  0
 25 26  1  6
 25 27  2  0
  1  4  1  0
  1 24  1  0
  1  2  1  6
  1  3  2  0
  6 11  1  0
  6 12  1  0
 29 36  1  0
 29 37  1  0
  9  7  1  1
  7 13  1  0
 10  8  1  1
  8 14  1  0
 37 28  1  6
  4  5  1  0
 33 30  1  6
 30 38  1  0
 34 31  1  6
 31 39  1  0
 35 32  1  6
 32 40  1  0
 41 42  1  0
 41 43  1  0
 15 19  2  0
 16 22  2  0
 12 17  1  6
 17 19  1  0
 17 20  1  0
 18 19  1  0
 18 22  1  0
 18 23  1  0
  9 10  1  0
  9 11  1  0
 10 12  1  0
 11  5  1  6
 33 34  1  0
 33 35  1  0
 34 36  1  0
 35 37  1  0
 36 42  1  1
 20 21  2  0
 21 22  1  0
M  CHG  2   2  -1  26  -1
M  END
>  <COMPND>  (35) 
    8629 

>  <AUTHOR>  (35) 
    GENERATED BY OPEN BABEL 3.1.1

>  <MASTER>  (35) 
        0    0    0    0    0    0    0    0   58    0   58    0

>  <minimizedAffinity>  (35) 
-8.99542

>  <CNNscore>  (35) 
0.2719985843

>  <CNNaffinity>  (35) 
4.1398429871

>  <CNN_VS>  (35) 
1.1260313988

>  <CNNaffinity_variance>  (35) 
0.5951161385

$$$$
36
     RDKit          3D

 43 45  0  0  0  0  0  0  0  0999 V2000
   21.9077   74.8362   -3.1418 P   0  0  2  0  0  0  0  0  0  0  0  0
   22.7285   75.5961   -4.3107 O   0  0  0  0  0  0  0  0  0  0  0  0
   21.2077   75.7392   -2.1692 O   0  0  0  0  0  0  0  0  0  0  0  0
   22.9931   73.8211   -2.5020 O   0  0  0  0  0  0  0  0  0  0  0  0
   22.8352   73.4265   -1.1502 C   0  0  0  0  0  0  0  0  0  0  0  0
   22.9286   71.2329   -0.1741 O   0  0  0  0  0  0  0  0  0  0  0  0
   20.0918   70.9088   -1.0899 O   0  0  0  0  0  0  0  0  0  0  0  0
   19.7991   71.4823    1.5600 O   0  0  0  0  0  0  0  0  0  0  0  0
   20.7533   72.0727   -0.5969 C   0  0  1  0  0  0  0  0  0  0  0  0
   20.9498   71.9709    0.9013 C   0  0  2  0  0  0  0  0  0  0  0  0
   22.1884   72.0488   -1.1082 C   0  0  1  0  0  0  0  0  0  0  0  0
   22.1291   71.0182    1.0005 C   0  0  2  0  0  0  0  0  0  0  0  0
   19.1733   70.9021   -0.7766 H   0  0  0  0  0  0  0  0  0  0  0  0
   19.0772   72.1236    1.4684 H   0  0  0  0  0  0  0  0  0  0  0  0
   23.8010   69.0939    2.2169 O   0  0  0  0  0  0  0  0  0  0  0  0
   25.1716   72.0674    5.4604 O   0  0  0  0  0  0  0  0  0  0  0  0
   22.9343   71.2626    2.1637 N   0  0  0  0  0  0  0  0  0  0  0  0
   24.4822   70.5761    3.8308 N   0  0  0  0  0  0  0  0  0  0  0  0
   23.7382   70.2279    2.6963 C   0  0  0  0  0  0  0  0  0  0  0  0
   22.9220   72.5169    2.7640 C   0  0  0  0  0  0  0  0  0  0  0  0
   23.6364   72.8325    3.8463 C   0  0  0  0  0  0  0  0  0  0  0  0
   24.5027   71.8083    4.4648 C   0  0  0  0  0  0  0  0  0  0  0  0
   25.0493   69.8711    4.2195 H   0  0  0  0  0  0  0  0  0  0  0  0
   20.9294   73.8491   -3.9673 O   0  0  0  0  0  0  0  0  0  0  0  0
   21.2574   72.6280   -4.9744 P   0  0  2  0  0  0  0  0  0  0  0  0
   21.3886   71.3553   -3.9842 O   0  0  0  0  0  0  0  0  0  0  0  0
   22.4552   72.8574   -5.8501 O   0  0  0  0  0  0  0  0  0  0  0  0
   19.8796   72.3795   -5.7774 O   0  0  0  0  0  0  0  0  0  0  0  0
   17.9385   73.6690   -6.2087 O   0  0  0  0  0  0  0  0  0  0  0  0
   16.1436   70.0792   -5.2382 O   0  0  0  0  0  0  0  0  0  0  0  0
   16.1587   70.9639   -7.9704 O   0  0  0  0  0  0  0  0  0  0  0  0
   18.4958   70.9540   -3.7955 O   0  0  0  0  0  0  0  0  0  0  0  0
   17.1562   70.9205   -5.7969 C   0  0  1  0  0  0  0  0  0  0  0  0
   16.5111   71.7988   -6.8708 C   0  0  1  0  0  0  0  0  0  0  0  0
   17.7575   71.7818   -4.6878 C   0  0  2  0  0  0  0  0  0  0  0  0
   17.4681   72.9082   -7.3275 C   0  0  1  0  0  0  0  0  0  0  0  0
   18.6545   72.8847   -5.2527 C   0  0  1  0  0  0  0  0  0  0  0  0
   15.7580   69.5293   -5.9371 H   0  0  0  0  0  0  0  0  0  0  0  0
   15.5547   70.2674   -7.6685 H   0  0  0  0  0  0  0  0  0  0  0  0
   17.9168   70.2601   -3.4445 H   0  0  0  0  0  0  0  0  0  0  0  0
   15.4325   73.5185   -8.4197 O   0  0  0  0  0  0  0  0  0  0  0  0
   16.7916   73.8900   -8.2817 C   0  0  0  0  0  0  0  0  0  0  0  0
   14.9892   74.1349   -9.0241 H   0  0  0  0  0  0  0  0  0  0  0  0
 25 28  1  0
 25 24  1  0
 25 26  1  1
 25 27  2  0
  1  4  1  0
  1 24  1  0
  1  2  1  6
  1  3  2  0
  6 11  1  0
  6 12  1  0
 29 36  1  0
 29 37  1  0
  9  7  1  6
  7 13  1  0
 10  8  1  1
  8 14  1  0
 37 28  1  6
  4  5  1  0
 33 30  1  1
 30 38  1  0
 34 31  1  6
 31 39  1  0
 35 32  1  1
 32 40  1  0
 41 42  1  0
 41 43  1  0
 15 19  2  0
 16 22  2  0
 12 17  1  1
 17 19  1  0
 17 20  1  0
 18 19  1  0
 18 22  1  0
 18 23  1  0
  9 10  1  0
  9 11  1  0
 10 12  1  0
 11  5  1  1
 33 34  1  0
 33 35  1  0
 34 36  1  0
 35 37  1  0
 36 42  1  6
 20 21  2  0
 21 22  1  0
M  CHG  2   2  -1  26  -1
M  END
>  <COMPND>  (36) 
    8629 

>  <AUTHOR>  (36) 
    GENERATED BY OPEN BABEL 3.1.1

>  <MASTER>  (36) 
        0    0    0    0    0    0    0    0   58    0   58    0

>  <minimizedAffinity>  (36) 
-6.88015

>  <CNNscore>  (36) 
0.2684797347

>  <CNNaffinity>  (36) 
3.7325775623

>  <CNN_VS>  (36) 
1.0021214485

>  <CNNaffinity_variance>  (36) 
0.2039023340

$$$$
37
     RDKit          3D

 43 45  0  0  0  0  0  0  0  0999 V2000
   19.7758   71.3623   -0.6965 P   0  0  2  0  0  0  0  0  0  0  0  0
   18.8535   72.5101   -0.0263 O   0  0  0  0  0  0  0  0  0  0  0  0
   19.1433   70.0036   -0.7700 O   0  0  0  0  0  0  0  0  0  0  0  0
   21.1639   71.4473    0.1306 O   0  0  0  0  0  0  0  0  0  0  0  0
   21.6721   70.2641    0.7219 C   0  0  0  0  0  0  0  0  0  0  0  0
   23.2780   71.9160    1.4045 O   0  0  0  0  0  0  0  0  0  0  0  0
   24.8958   69.6297    2.4751 O   0  0  0  0  0  0  0  0  0  0  0  0
   23.7208   70.6305    4.7233 O   0  0  0  0  0  0  0  0  0  0  0  0
   23.4795   69.7995    2.4512 C   0  0  1  0  0  0  0  0  0  0  0  0
   23.0540   70.8149    3.4912 C   0  0  2  0  0  0  0  0  0  0  0  0
   23.1132   70.5037    1.1507 C   0  0  1  0  0  0  0  0  0  0  0  0
   23.4204   72.1271    2.8188 C   0  0  2  0  0  0  0  0  0  0  0  0
   25.1537   69.1816    3.2965 H   0  0  0  0  0  0  0  0  0  0  0  0
   23.4547   69.7824    5.1114 H   0  0  0  0  0  0  0  0  0  0  0  0
   24.3263   74.6954    3.5678 O   0  0  0  0  0  0  0  0  0  0  0  0
   20.0333   76.1868    4.3339 O   0  0  0  0  0  0  0  0  0  0  0  0
   22.5611   73.2058    3.2181 N   0  0  0  0  0  0  0  0  0  0  0  0
   22.1880   75.4360    3.9485 N   0  0  0  0  0  0  0  0  0  0  0  0
   23.1170   74.4561    3.5760 C   0  0  0  0  0  0  0  0  0  0  0  0
   21.1836   73.0184    3.2517 C   0  0  0  0  0  0  0  0  0  0  0  0
   20.3113   73.9626    3.6105 C   0  0  0  0  0  0  0  0  0  0  0  0
   20.8099   75.2977    3.9990 C   0  0  0  0  0  0  0  0  0  0  0  0
   22.5523   76.3150    4.2022 H   0  0  0  0  0  0  0  0  0  0  0  0
   20.1669   72.0007   -2.1291 O   0  0  0  0  0  0  0  0  0  0  0  0
   20.8015   71.3264   -3.4541 P   0  0  2  0  0  0  0  0  0  0  0  0
   21.5345   70.0024   -2.8820 O   0  0  0  0  0  0  0  0  0  0  0  0
   21.6973   72.2392   -4.2404 O   0  0  0  0  0  0  0  0  0  0  0  0
   19.5305   70.7657   -4.2759 O   0  0  0  0  0  0  0  0  0  0  0  0
   17.8949   72.3729   -4.8747 O   0  0  0  0  0  0  0  0  0  0  0  0
   15.6996   68.9321   -5.5015 O   0  0  0  0  0  0  0  0  0  0  0  0
   16.6217   70.4560   -7.7545 O   0  0  0  0  0  0  0  0  0  0  0  0
   17.5197   69.0948   -3.2564 O   0  0  0  0  0  0  0  0  0  0  0  0
   16.8794   69.7404   -5.4868 C   0  0  1  0  0  0  0  0  0  0  0  0
   16.6529   70.9365   -6.4134 C   0  0  1  0  0  0  0  0  0  0  0  0
   17.1449   70.2101   -4.0577 C   0  0  2  0  0  0  0  0  0  0  0  0
   17.7618   71.9842   -6.2469 C   0  0  1  0  0  0  0  0  0  0  0  0
   18.2308   71.2864   -4.0094 C   0  0  1  0  0  0  0  0  0  0  0  0
   15.5257   68.6302   -6.4060 H   0  0  0  0  0  0  0  0  0  0  0  0
   15.9176   69.7949   -7.8460 H   0  0  0  0  0  0  0  0  0  0  0  0
   16.8240   68.4207   -3.2950 H   0  0  0  0  0  0  0  0  0  0  0  0
   17.7153   72.9897   -8.4138 O   0  0  0  0  0  0  0  0  0  0  0  0
   17.4732   73.2542   -7.0443 C   0  0  0  0  0  0  0  0  0  0  0  0
   17.5354   73.7892   -8.9336 H   0  0  0  0  0  0  0  0  0  0  0  0
 25 28  1  0
 25 24  1  0
 25 26  1  1
 25 27  2  0
  1  4  1  0
  1 24  1  0
  1  2  1  1
  1  3  2  0
  6 11  1  0
  6 12  1  0
 29 36  1  0
 29 37  1  0
  9  7  1  6
  7 13  1  0
 10  8  1  1
  8 14  1  0
 37 28  1  6
  4  5  1  0
 33 30  1  1
 30 38  1  0
 34 31  1  6
 31 39  1  0
 35 32  1  1
 32 40  1  0
 41 42  1  0
 41 43  1  0
 15 19  2  0
 16 22  2  0
 12 17  1  1
 17 19  1  0
 17 20  1  0
 18 19  1  0
 18 22  1  0
 18 23  1  0
  9 10  1  0
  9 11  1  0
 10 12  1  0
 11  5  1  1
 33 34  1  0
 33 35  1  0
 34 36  1  0
 35 37  1  0
 36 42  1  6
 20 21  2  0
 21 22  1  0
M  CHG  2   2  -1  26  -1
M  END
>  <COMPND>  (37) 
    8629 

>  <AUTHOR>  (37) 
    GENERATED BY OPEN BABEL 3.1.1

>  <MASTER>  (37) 
        0    0    0    0    0    0    0    0   58    0   58    0

>  <minimizedAffinity>  (37) 
-7.04834

>  <CNNscore>  (37) 
0.2483055592

>  <CNNaffinity>  (37) 
3.7897543907

>  <CNN_VS>  (37) 
0.9410170913

>  <CNNaffinity_variance>  (37) 
0.2556941509

$$$$
38
     RDKit          3D

 43 45  0  0  0  0  0  0  0  0999 V2000
   22.7504   72.9579   -3.3540 P   0  0  2  0  0  0  0  0  0  0  0  0
   23.4188   71.5212   -3.6804 O   0  0  0  0  0  0  0  0  0  0  0  0
   23.6791   74.1304   -3.4718 O   0  0  0  0  0  0  0  0  0  0  0  0
   22.0655   72.7470   -1.9033 O   0  0  0  0  0  0  0  0  0  0  0  0
   20.7186   73.1501   -1.7265 C   0  0  0  0  0  0  0  0  0  0  0  0
   18.6839   72.6510   -0.5498 O   0  0  0  0  0  0  0  0  0  0  0  0
   19.9488   70.0218    0.1416 O   0  0  0  0  0  0  0  0  0  0  0  0
   18.2837   69.3580   -1.9134 O   0  0  0  0  0  0  0  0  0  0  0  0
   20.0555   70.7865   -1.0580 C   0  0  1  0  0  0  0  0  0  0  0  0
   18.7777   70.6810   -1.8641 C   0  0  2  0  0  0  0  0  0  0  0  0
   20.0690   72.2611   -0.6749 C   0  0  1  0  0  0  0  0  0  0  0  0
   17.8524   71.6229   -1.1126 C   0  0  2  0  0  0  0  0  0  0  0  0
   19.9386   69.0764   -0.0776 H   0  0  0  0  0  0  0  0  0  0  0  0
   18.9073   68.7979   -2.4015 H   0  0  0  0  0  0  0  0  0  0  0  0
   15.1773   70.7496   -1.3555 O   0  0  0  0  0  0  0  0  0  0  0  0
   14.1930   74.0320   -4.4374 O   0  0  0  0  0  0  0  0  0  0  0  0
   16.8753   72.2312   -1.9708 N   0  0  0  0  0  0  0  0  0  0  0  0
   14.6893   72.3848   -2.8897 N   0  0  0  0  0  0  0  0  0  0  0  0
   15.5594   71.7151   -2.0199 C   0  0  0  0  0  0  0  0  0  0  0  0
   17.2254   73.3273   -2.7519 C   0  0  0  0  0  0  0  0  0  0  0  0
   16.3842   73.9537   -3.5772 C   0  0  0  0  0  0  0  0  0  0  0  0
   14.9903   73.4773   -3.6874 C   0  0  0  0  0  0  0  0  0  0  0  0
   13.7673   72.0426   -2.9407 H   0  0  0  0  0  0  0  0  0  0  0  0
   21.4799   73.0029   -4.3524 O   0  0  0  0  0  0  0  0  0  0  0  0
   21.3470   73.5187   -5.8786 P   0  0  2  0  0  0  0  0  0  0  0  0
   22.6164   72.8355   -6.6131 O   0  0  0  0  0  0  0  0  0  0  0  0
   21.2796   75.0118   -6.0199 O   0  0  0  0  0  0  0  0  0  0  0  0
   20.0651   72.7328   -6.4652 O   0  0  0  0  0  0  0  0  0  0  0  0
   19.0374   70.7495   -5.6734 O   0  0  0  0  0  0  0  0  0  0  0  0
   18.4711   70.2124   -9.7282 O   0  0  0  0  0  0  0  0  0  0  0  0
   16.2316   70.8841   -8.0605 O   0  0  0  0  0  0  0  0  0  0  0  0
   20.9406   71.3681   -8.7557 O   0  0  0  0  0  0  0  0  0  0  0  0
   18.5784   70.9634   -8.5158 C   0  0  1  0  0  0  0  0  0  0  0  0
   17.4971   70.4731   -7.5508 C   0  0  1  0  0  0  0  0  0  0  0  0
   19.9683   70.7514   -7.9186 C   0  0  2  0  0  0  0  0  0  0  0  0
   17.7149   71.0390   -6.1410 C   0  0  1  0  0  0  0  0  0  0  0  0
   20.0631   71.3079   -6.4969 C   0  0  1  0  0  0  0  0  0  0  0  0
   17.5911   70.3430  -10.1128 H   0  0  0  0  0  0  0  0  0  0  0  0
   16.1068   70.5205   -8.9512 H   0  0  0  0  0  0  0  0  0  0  0  0
   20.8705   71.0071   -9.6527 H   0  0  0  0  0  0  0  0  0  0  0  0
   16.0848   69.3408   -5.7313 O   0  0  0  0  0  0  0  0  0  0  0  0
   16.7422   70.4398   -5.1276 C   0  0  0  0  0  0  0  0  0  0  0  0
   15.4628   68.9491   -5.0977 H   0  0  0  0  0  0  0  0  0  0  0  0
 25 28  1  0
 25 24  1  0
 25 26  1  6
 25 27  2  0
  1  4  1  0
  1 24  1  0
  1  2  1  6
  1  3  2  0
  6 11  1  0
  6 12  1  0
 29 36  1  0
 29 37  1  0
  9  7  1  1
  7 13  1  0
 10  8  1  1
  8 14  1  0
 37 28  1  6
  4  5  1  0
 33 30  1  6
 30 38  1  0
 34 31  1  6
 31 39  1  0
 35 32  1  6
 32 40  1  0
 41 42  1  0
 41 43  1  0
 15 19  2  0
 16 22  2  0
 12 17  1  6
 17 19  1  0
 17 20  1  0
 18 19  1  0
 18 22  1  0
 18 23  1  0
  9 10  1  0
  9 11  1  0
 10 12  1  0
 11  5  1  6
 33 34  1  0
 33 35  1  0
 34 36  1  0
 35 37  1  0
 36 42  1  1
 20 21  2  0
 21 22  1  0
M  CHG  2   2  -1  26  -1
M  END
>  <COMPND>  (38) 
    8629 

>  <AUTHOR>  (38) 
    GENERATED BY OPEN BABEL 3.1.1

>  <MASTER>  (38) 
        0    0    0    0    0    0    0    0   58    0   58    0

>  <minimizedAffinity>  (38) 
-7.59253

>  <CNNscore>  (38) 
0.2452323139

>  <CNNaffinity>  (38) 
3.7610182762

>  <CNN_VS>  (38) 
0.9223232269

>  <CNNaffinity_variance>  (38) 
0.8826146126

$$$$
39
     RDKit          3D

 43 45  0  0  0  0  0  0  0  0999 V2000
   22.8131   73.2018   -3.1485 P   0  0  2  0  0  0  0  0  0  0  0  0
   23.7039   72.1642   -4.0130 O   0  0  0  0  0  0  0  0  0  0  0  0
   23.5378   74.4353   -2.6961 O   0  0  0  0  0  0  0  0  0  0  0  0
   22.1825   72.2863   -1.9729 O   0  0  0  0  0  0  0  0  0  0  0  0
   23.0060   71.9342   -0.8748 C   0  0  0  0  0  0  0  0  0  0  0  0
   23.0865   70.5781    1.1071 O   0  0  0  0  0  0  0  0  0  0  0  0
   20.2858   69.7498    0.4281 O   0  0  0  0  0  0  0  0  0  0  0  0
   19.8975   71.6166    2.3777 O   0  0  0  0  0  0  0  0  0  0  0  0
   20.9192   71.0163    0.2547 C   0  0  1  0  0  0  0  0  0  0  0  0
   21.0654   71.7181    1.5888 C   0  0  2  0  0  0  0  0  0  0  0  0
   22.3710   70.7657   -0.1336 C   0  0  1  0  0  0  0  0  0  0  0  0
   22.2494   70.9887    2.2005 C   0  0  2  0  0  0  0  0  0  0  0  0
   19.3572   69.8842    0.6762 H   0  0  0  0  0  0  0  0  0  0  0  0
   19.1731   72.0964    1.9466 H   0  0  0  0  0  0  0  0  0  0  0  0
   23.7791   70.0384    4.3765 O   0  0  0  0  0  0  0  0  0  0  0  0
   25.1340   74.2929    5.5187 O   0  0  0  0  0  0  0  0  0  0  0  0
   23.0121   71.8260    3.0828 N   0  0  0  0  0  0  0  0  0  0  0  0
   24.4527   72.1576    4.9433 N   0  0  0  0  0  0  0  0  0  0  0  0
   23.7451   71.2489    4.1460 C   0  0  0  0  0  0  0  0  0  0  0  0
   23.0285   73.2030    2.8896 C   0  0  0  0  0  0  0  0  0  0  0  0
   23.7073   74.0559    3.6596 C   0  0  0  0  0  0  0  0  0  0  0  0
   24.4992   73.5344    4.7923 C   0  0  0  0  0  0  0  0  0  0  0  0
   24.9703   71.7784    5.6903 H   0  0  0  0  0  0  0  0  0  0  0  0
   21.5449   73.4815   -4.1110 O   0  0  0  0  0  0  0  0  0  0  0  0
   20.1550   74.2599   -3.8362 P   0  0  2  0  0  0  0  0  0  0  0  0
   20.2226   75.5120   -4.8585 O   0  0  0  0  0  0  0  0  0  0  0  0
   19.9377   74.6432   -2.4011 O   0  0  0  0  0  0  0  0  0  0  0  0
   19.0174   73.2935   -4.4500 O   0  0  0  0  0  0  0  0  0  0  0  0
   18.8435   71.5105   -2.8984 O   0  0  0  0  0  0  0  0  0  0  0  0
   15.9572   70.3180   -5.5999 O   0  0  0  0  0  0  0  0  0  0  0  0
   15.1637   71.3418   -3.0367 O   0  0  0  0  0  0  0  0  0  0  0  0
   18.4086   71.5314   -6.5475 O   0  0  0  0  0  0  0  0  0  0  0  0
   16.7265   71.2584   -4.8454 C   0  0  1  0  0  0  0  0  0  0  0  0
   16.5031   70.9772   -3.3582 C   0  0  1  0  0  0  0  0  0  0  0  0
   18.2023   71.1001   -5.2067 C   0  0  2  0  0  0  0  0  0  0  0  0
   17.4941   71.7646   -2.4905 C   0  0  1  0  0  0  0  0  0  0  0  0
   19.1046   71.8847   -4.2526 C   0  0  1  0  0  0  0  0  0  0  0  0
   15.0191   70.4136   -5.3755 H   0  0  0  0  0  0  0  0  0  0  0  0
   14.5480   70.8379   -3.5918 H   0  0  0  0  0  0  0  0  0  0  0  0
   17.8320   71.0270   -7.1416 H   0  0  0  0  0  0  0  0  0  0  0  0
   16.4823   70.3042   -0.8928 O   0  0  0  0  0  0  0  0  0  0  0  0
   17.3941   71.3802   -1.0159 C   0  0  0  0  0  0  0  0  0  0  0  0
   16.4088   70.0487    0.0405 H   0  0  0  0  0  0  0  0  0  0  0  0
 25 28  1  0
 25 24  1  0
 25 26  1  6
 25 27  2  0
  1  4  1  0
  1 24  1  0
  1  2  1  6
  1  3  2  0
  6 11  1  0
  6 12  1  0
 29 36  1  0
 29 37  1  0
  9  7  1  1
  7 13  1  0
 10  8  1  1
  8 14  1  0
 37 28  1  1
  4  5  1  0
 33 30  1  6
 30 38  1  0
 34 31  1  1
 31 39  1  0
 35 32  1  6
 32 40  1  0
 41 42  1  0
 41 43  1  0
 15 19  2  0
 16 22  2  0
 12 17  1  1
 17 19  1  0
 17 20  1  0
 18 19  1  0
 18 22  1  0
 18 23  1  0
  9 10  1  0
  9 11  1  0
 10 12  1  0
 11  5  1  1
 33 34  1  0
 33 35  1  0
 34 36  1  0
 35 37  1  0
 36 42  1  1
 20 21  2  0
 21 22  1  0
M  CHG  2   2  -1  26  -1
M  END
>  <COMPND>  (39) 
    8629 

>  <AUTHOR>  (39) 
    GENERATED BY OPEN BABEL 3.1.1

>  <MASTER>  (39) 
        0    0    0    0    0    0    0    0   58    0   58    0

>  <minimizedAffinity>  (39) 
-7.06092

>  <CNNscore>  (39) 
0.2380802333

>  <CNNaffinity>  (39) 
3.7692203522

>  <CNN_VS>  (39) 
0.8973768353

>  <CNNaffinity_variance>  (39) 
0.2516250312

$$$$
40
     RDKit          3D

 43 45  0  0  0  0  0  0  0  0999 V2000
   22.6746   73.0851   -3.4753 P   0  0  2  0  0  0  0  0  0  0  0  0
   23.7678   72.2536   -4.3302 O   0  0  0  0  0  0  0  0  0  0  0  0
   23.1532   74.4062   -2.9489 O   0  0  0  0  0  0  0  0  0  0  0  0
   22.1663   72.0274   -2.3614 O   0  0  0  0  0  0  0  0  0  0  0  0
   22.3540   72.3440   -0.9931 C   0  0  0  0  0  0  0  0  0  0  0  0
   21.6799   70.0423   -0.8462 O   0  0  0  0  0  0  0  0  0  0  0  0
   21.3485   70.5216    2.0951 O   0  0  0  0  0  0  0  0  0  0  0  0
   23.7542   69.2437    1.9685 O   0  0  0  0  0  0  0  0  0  0  0  0
   22.3233   71.0523    1.1987 C   0  0  1  0  0  0  0  0  0  0  0  0
   23.3426   69.9906    0.8418 C   0  0  2  0  0  0  0  0  0  0  0  0
   21.6420   71.3023   -0.1410 C   0  0  1  0  0  0  0  0  0  0  0  0
   22.5819   69.1510   -0.1703 C   0  0  2  0  0  0  0  0  0  0  0  0
   21.7602   70.3541    2.9579 H   0  0  0  0  0  0  0  0  0  0  0  0
   24.2335   69.8217    2.5824 H   0  0  0  0  0  0  0  0  0  0  0  0
   22.9474   66.3649   -0.4568 O   0  0  0  0  0  0  0  0  0  0  0  0
   25.9351   66.9282   -3.9205 O   0  0  0  0  0  0  0  0  0  0  0  0
   23.4491   68.5420   -1.1391 N   0  0  0  0  0  0  0  0  0  0  0  0
   24.4346   66.6476   -2.1814 N   0  0  0  0  0  0  0  0  0  0  0  0
   23.5618   67.1334   -1.1994 C   0  0  0  0  0  0  0  0  0  0  0  0
   24.1761   69.3393   -2.0164 C   0  0  0  0  0  0  0  0  0  0  0  0
   25.0052   68.8605   -2.9462 C   0  0  0  0  0  0  0  0  0  0  0  0
   25.1801   67.3994   -3.0757 C   0  0  0  0  0  0  0  0  0  0  0  0
   24.5295   65.6693   -2.2417 H   0  0  0  0  0  0  0  0  0  0  0  0
   21.4174   73.1796   -4.4870 O   0  0  0  0  0  0  0  0  0  0  0  0
   19.9599   73.8556   -4.3089 P   0  0  2  0  0  0  0  0  0  0  0  0
   20.0971   75.2512   -5.1157 O   0  0  0  0  0  0  0  0  0  0  0  0
   19.5219   74.0064   -2.8808 O   0  0  0  0  0  0  0  0  0  0  0  0
   18.9775   72.9539   -5.2182 O   0  0  0  0  0  0  0  0  0  0  0  0
   19.2773   70.9275   -4.0264 O   0  0  0  0  0  0  0  0  0  0  0  0
   15.9161   69.9213   -6.2037 O   0  0  0  0  0  0  0  0  0  0  0  0
   15.6838   70.4152   -3.3841 O   0  0  0  0  0  0  0  0  0  0  0  0
   18.0016   71.5168   -7.4221 O   0  0  0  0  0  0  0  0  0  0  0  0
   16.7830   70.7942   -5.4743 C   0  0  1  0  0  0  0  0  0  0  0  0
   16.9303   70.2463   -4.0534 C   0  0  1  0  0  0  0  0  0  0  0  0
   18.1402   70.8481   -6.1731 C   0  0  2  0  0  0  0  0  0  0  0  0
   18.0479   70.9725   -3.2927 C   0  0  1  0  0  0  0  0  0  0  0  0
   19.1922   71.5480   -5.3108 C   0  0  1  0  0  0  0  0  0  0  0  0
   15.0524   69.8831   -5.7655 H   0  0  0  0  0  0  0  0  0  0  0  0
   14.9865   69.9523   -3.8748 H   0  0  0  0  0  0  0  0  0  0  0  0
   17.3332   71.0639   -7.9588 H   0  0  0  0  0  0  0  0  0  0  0  0
   17.7280   69.0513   -1.9087 O   0  0  0  0  0  0  0  0  0  0  0  0
   18.3181   70.3380   -1.9302 C   0  0  0  0  0  0  0  0  0  0  0  0
   17.8922   68.6353   -1.0474 H   0  0  0  0  0  0  0  0  0  0  0  0
 25 28  1  0
 25 24  1  0
 25 26  1  6
 25 27  2  0
  1  4  1  0
  1 24  1  0
  1  2  1  6
  1  3  2  0
  6 11  1  0
  6 12  1  0
 29 36  1  0
 29 37  1  0
  9  7  1  1
  7 13  1  0
 10  8  1  1
  8 14  1  0
 37 28  1  1
  4  5  1  0
 33 30  1  6
 30 38  1  0
 34 31  1  1
 31 39  1  0
 35 32  1  6
 32 40  1  0
 41 42  1  0
 41 43  1  0
 15 19  2  0
 16 22  2  0
 12 17  1  6
 17 19  1  0
 17 20  1  0
 18 19  1  0
 18 22  1  0
 18 23  1  0
  9 10  1  0
  9 11  1  0
 10 12  1  0
 11  5  1  6
 33 34  1  0
 33 35  1  0
 34 36  1  0
 35 37  1  0
 36 42  1  1
 20 21  2  0
 21 22  1  0
M  CHG  2   2  -1  26  -1
M  END
>  <COMPND>  (40) 
    8629 

>  <AUTHOR>  (40) 
    GENERATED BY OPEN BABEL 3.1.1

>  <MASTER>  (40) 
        0    0    0    0    0    0    0    0   58    0   58    0

>  <minimizedAffinity>  (40) 
-8.25712

>  <CNNscore>  (40) 
0.2319177687

>  <CNNaffinity>  (40) 
3.8778693676

>  <CNN_VS>  (40) 
0.8993468285

>  <CNNaffinity_variance>  (40) 
1.1799954176

$$$$
41
     RDKit          3D

 43 45  0  0  0  0  0  0  0  0999 V2000
   22.0599   71.8493   -1.4032 P   0  0  2  0  0  0  0  0  0  0  0  0
   22.9865   73.1484   -1.6701 O   0  0  0  0  0  0  0  0  0  0  0  0
   22.8079   70.5571   -1.2546 O   0  0  0  0  0  0  0  0  0  0  0  0
   20.9703   71.8971   -2.5983 O   0  0  0  0  0  0  0  0  0  0  0  0
   20.1513   70.7608   -2.8124 C   0  0  0  0  0  0  0  0  0  0  0  0
   18.3735   71.8211   -4.0325 O   0  0  0  0  0  0  0  0  0  0  0  0
   16.5078   70.5143   -2.0827 O   0  0  0  0  0  0  0  0  0  0  0  0
   16.3114   68.8963   -4.2691 O   0  0  0  0  0  0  0  0  0  0  0  0
   17.7242   70.0179   -2.6389 C   0  0  1  0  0  0  0  0  0  0  0  0
   17.5152   69.6127   -4.0831 C   0  0  2  0  0  0  0  0  0  0  0  0
   18.6905   71.1881   -2.7735 C   0  0  1  0  0  0  0  0  0  0  0  0
   17.5105   70.9574   -4.7901 C   0  0  2  0  0  0  0  0  0  0  0  0
   15.8749   69.7847   -1.9869 H   0  0  0  0  0  0  0  0  0  0  0  0
   16.3637   68.0487   -3.8004 H   0  0  0  0  0  0  0  0  0  0  0  0
   15.9472   70.1917   -7.0145 O   0  0  0  0  0  0  0  0  0  0  0  0
   19.5053   70.6568   -9.9067 O   0  0  0  0  0  0  0  0  0  0  0  0
   18.0027   70.8702   -6.1360 N   0  0  0  0  0  0  0  0  0  0  0  0
   17.7201   70.4241   -8.4528 N   0  0  0  0  0  0  0  0  0  0  0  0
   17.1354   70.4747   -7.1809 C   0  0  0  0  0  0  0  0  0  0  0  0
   19.3317   71.1754   -6.4090 C   0  0  0  0  0  0  0  0  0  0  0  0
   19.8741   71.1209   -7.6272 C   0  0  0  0  0  0  0  0  0  0  0  0
   19.0360   70.7167   -8.7744 C   0  0  0  0  0  0  0  0  0  0  0  0
   17.1350   70.1507   -9.1963 H   0  0  0  0  0  0  0  0  0  0  0  0
   21.1959   72.2794   -0.1064 O   0  0  0  0  0  0  0  0  0  0  0  0
   20.5178   71.3894    1.0602 P   0  0  2  0  0  0  0  0  0  0  0  0
   20.3877   69.9261    0.3824 O   0  0  0  0  0  0  0  0  0  0  0  0
   19.2262   71.9453    1.5862 O   0  0  0  0  0  0  0  0  0  0  0  0
   21.6760   71.2222    2.1718 O   0  0  0  0  0  0  0  0  0  0  0  0
   23.4039   72.8102    2.5025 O   0  0  0  0  0  0  0  0  0  0  0  0
   25.3356   69.4347    3.8899 O   0  0  0  0  0  0  0  0  0  0  0  0
   24.4638   71.4369    5.7551 O   0  0  0  0  0  0  0  0  0  0  0  0
   23.5909   69.2560    1.5869 O   0  0  0  0  0  0  0  0  0  0  0  0
   24.2161   70.2964    3.6673 C   0  0  1  0  0  0  0  0  0  0  0  0
   24.5015   71.6381    4.3450 C   0  0  1  0  0  0  0  0  0  0  0  0
   24.0218   70.4840    2.1639 C   0  0  2  0  0  0  0  0  0  0  0  0
   23.4734   72.6987    3.9289 C   0  0  1  0  0  0  0  0  0  0  0  0
   23.0155   71.5950    1.8588 C   0  0  1  0  0  0  0  0  0  0  0  0
   25.4642   69.3110    4.8426 H   0  0  0  0  0  0  0  0  0  0  0  0
   25.1173   70.7646    6.0046 H   0  0  0  0  0  0  0  0  0  0  0  0
   24.2365   68.5609    1.7869 H   0  0  0  0  0  0  0  0  0  0  0  0
   25.2050   74.0947    4.8016 O   0  0  0  0  0  0  0  0  0  0  0  0
   23.8292   74.0826    4.4677 C   0  0  0  0  0  0  0  0  0  0  0  0
   25.4458   74.9695    5.1457 H   0  0  0  0  0  0  0  0  0  0  0  0
 25 28  1  0
 25 24  1  0
 25 26  1  6
 25 27  2  0
  1  4  1  0
  1 24  1  0
  1  2  1  6
  1  3  2  0
  6 11  1  0
  6 12  1  0
 29 36  1  0
 29 37  1  0
  9  7  1  6
  7 13  1  0
 10  8  1  1
  8 14  1  0
 37 28  1  1
  4  5  1  0
 33 30  1  6
 30 38  1  0
 34 31  1  1
 31 39  1  0
 35 32  1  1
 32 40  1  0
 41 42  1  0
 41 43  1  0
 15 19  2  0
 16 22  2  0
 12 17  1  6
 17 19  1  0
 17 20  1  0
 18 19  1  0
 18 22  1  0
 18 23  1  0
  9 10  1  0
  9 11  1  0
 10 12  1  0
 11  5  1  6
 33 34  1  0
 33 35  1  0
 34 36  1  0
 35 37  1  0
 36 42  1  1
 20 21  2  0
 21 22  1  0
M  CHG  2   2  -1  26  -1
M  END
>  <COMPND>  (41) 
    8629 

>  <AUTHOR>  (41) 
    GENERATED BY OPEN BABEL 3.1.1

>  <MASTER>  (41) 
        0    0    0    0    0    0    0    0   58    0   58    0

>  <minimizedAffinity>  (41) 
-8.17076

>  <CNNscore>  (41) 
0.8200343251

>  <CNNaffinity>  (41) 
4.7777547836

>  <CNN_VS>  (41) 
3.9179229736

>  <CNNaffinity_variance>  (41) 
0.0984180495

$$$$
42
     RDKit          3D

 43 45  0  0  0  0  0  0  0  0999 V2000
   22.3454   71.8769   -1.8625 P   0  0  2  0  0  0  0  0  0  0  0  0
   22.7338   73.0288   -0.7950 O   0  0  0  0  0  0  0  0  0  0  0  0
   22.9693   72.0328   -3.2182 O   0  0  0  0  0  0  0  0  0  0  0  0
   20.7279   71.8490   -1.8325 O   0  0  0  0  0  0  0  0  0  0  0  0
   20.0488   71.0174   -2.7572 C   0  0  0  0  0  0  0  0  0  0  0  0
   18.2505   71.9564   -4.0451 O   0  0  0  0  0  0  0  0  0  0  0  0
   16.4060   70.6382   -2.0828 O   0  0  0  0  0  0  0  0  0  0  0  0
   16.3206   68.9382   -4.2133 O   0  0  0  0  0  0  0  0  0  0  0  0
   17.6528   70.1761   -2.5997 C   0  0  1  0  0  0  0  0  0  0  0  0
   17.4888   69.7122   -4.0320 C   0  0  2  0  0  0  0  0  0  0  0  0
   18.5705   71.3819   -2.7590 C   0  0  1  0  0  0  0  0  0  0  0  0
   17.4398   71.0301   -4.7863 C   0  0  2  0  0  0  0  0  0  0  0  0
   15.8032   69.8856   -1.9721 H   0  0  0  0  0  0  0  0  0  0  0  0
   16.4002   68.1105   -3.7140 H   0  0  0  0  0  0  0  0  0  0  0  0
   15.9281   70.2081   -7.0262 O   0  0  0  0  0  0  0  0  0  0  0  0
   19.5435   70.6342   -9.8526 O   0  0  0  0  0  0  0  0  0  0  0  0
   17.9607   70.9177   -6.1195 N   0  0  0  0  0  0  0  0  0  0  0  0
   17.7295   70.4211   -8.4318 N   0  0  0  0  0  0  0  0  0  0  0  0
   17.1179   70.4949   -7.1738 C   0  0  0  0  0  0  0  0  0  0  0  0
   19.2934   71.2253   -6.3711 C   0  0  0  0  0  0  0  0  0  0  0  0
   19.8616   71.1485   -7.5762 C   0  0  0  0  0  0  0  0  0  0  0  0
   19.0501   70.7150   -8.7319 C   0  0  0  0  0  0  0  0  0  0  0  0
   17.1617   70.1285   -9.1813 H   0  0  0  0  0  0  0  0  0  0  0  0
   22.7467   70.5150   -1.0898 O   0  0  0  0  0  0  0  0  0  0  0  0
   22.2344   69.9012    0.3151 P   0  0  2  0  0  0  0  0  0  0  0  0
   23.0461   68.5063    0.4286 O   0  0  0  0  0  0  0  0  0  0  0  0
   20.7432   69.7601    0.4178 O   0  0  0  0  0  0  0  0  0  0  0  0
   22.8955   70.8503    1.4408 O   0  0  0  0  0  0  0  0  0  0  0  0
   22.9272   71.0590    3.8013 O   0  0  0  0  0  0  0  0  0  0  0  0
   21.9206   74.9389    2.8094 O   0  0  0  0  0  0  0  0  0  0  0  0
   24.5566   74.3656    3.7947 O   0  0  0  0  0  0  0  0  0  0  0  0
   20.8162   72.7296    1.2997 O   0  0  0  0  0  0  0  0  0  0  0  0
   22.5770   73.6794    2.6410 C   0  0  1  0  0  0  0  0  0  0  0  0
   23.4749   73.4403    3.8565 C   0  0  1  0  0  0  0  0  0  0  0  0
   21.5237   72.5791    2.5258 C   0  0  2  0  0  0  0  0  0  0  0  0
   24.0043   72.0001    3.8793 C   0  0  1  0  0  0  0  0  0  0  0  0
   22.1507   71.1862    2.6086 C   0  0  1  0  0  0  0  0  0  0  0  0
   22.5838   75.6420    2.8827 H   0  0  0  0  0  0  0  0  0  0  0  0
   24.2087   75.2711    3.7803 H   0  0  0  0  0  0  0  0  0  0  0  0
   20.4238   73.6152    1.2596 H   0  0  0  0  0  0  0  0  0  0  0  0
   25.5725   72.8157    5.4870 O   0  0  0  0  0  0  0  0  0  0  0  0
   24.7725   71.6934    5.1630 C   0  0  0  0  0  0  0  0  0  0  0  0
   26.0670   72.6350    6.3021 H   0  0  0  0  0  0  0  0  0  0  0  0
 25 28  1  0
 25 24  1  0
 25 26  1  1
 25 27  2  0
  1  4  1  0
  1 24  1  0
  1  2  1  1
  1  3  2  0
  6 11  1  0
  6 12  1  0
 29 36  1  0
 29 37  1  0
  9  7  1  6
  7 13  1  0
 10  8  1  1
  8 14  1  0
 37 28  1  6
  4  5  1  0
 33 30  1  1
 30 38  1  0
 34 31  1  6
 31 39  1  0
 35 32  1  6
 32 40  1  0
 41 42  1  0
 41 43  1  0
 15 19  2  0
 16 22  2  0
 12 17  1  6
 17 19  1  0
 17 20  1  0
 18 19  1  0
 18 22  1  0
 18 23  1  0
  9 10  1  0
  9 11  1  0
 10 12  1  0
 11  5  1  6
 33 34  1  0
 33 35  1  0
 34 36  1  0
 35 37  1  0
 36 42  1  1
 20 21  2  0
 21 22  1  0
M  CHG  2   2  -1  26  -1
M  END
>  <COMPND>  (42) 
    8629 

>  <AUTHOR>  (42) 
    GENERATED BY OPEN BABEL 3.1.1

>  <MASTER>  (42) 
        0    0    0    0    0    0    0    0   58    0   58    0

>  <minimizedAffinity>  (42) 
-8.31804

>  <CNNscore>  (42) 
0.7899643183

>  <CNNaffinity>  (42) 
4.7895736694

>  <CNN_VS>  (42) 
3.7835922241

>  <CNNaffinity_variance>  (42) 
0.0550218895

$$$$
43
     RDKit          3D

 43 45  0  0  0  0  0  0  0  0999 V2000
   21.8763   73.0384   -2.3222 P   0  0  2  0  0  0  0  0  0  0  0  0
   22.0560   74.4406   -3.1090 O   0  0  0  0  0  0  0  0  0  0  0  0
   23.1507   72.2909   -2.0601 O   0  0  0  0  0  0  0  0  0  0  0  0
   20.7629   72.2466   -3.1890 O   0  0  0  0  0  0  0  0  0  0  0  0
   20.1764   71.0822   -2.6340 C   0  0  0  0  0  0  0  0  0  0  0  0
   18.2291   71.8343   -3.8240 O   0  0  0  0  0  0  0  0  0  0  0  0
   16.6337   70.2618   -1.8309 O   0  0  0  0  0  0  0  0  0  0  0  0
   16.6581   68.6153   -4.0047 O   0  0  0  0  0  0  0  0  0  0  0  0
   17.9032   69.9619   -2.4086 C   0  0  1  0  0  0  0  0  0  0  0  0
   17.7348   69.5166   -3.8463 C   0  0  2  0  0  0  0  0  0  0  0  0
   18.6669   71.2706   -2.5683 C   0  0  1  0  0  0  0  0  0  0  0  0
   17.5015   70.8374   -4.5599 C   0  0  2  0  0  0  0  0  0  0  0  0
   16.1277   69.4412   -1.7188 H   0  0  0  0  0  0  0  0  0  0  0  0
   16.8542   67.7909   -3.5328 H   0  0  0  0  0  0  0  0  0  0  0  0
   15.9502   70.0452   -6.7834 O   0  0  0  0  0  0  0  0  0  0  0  0
   19.4270   70.8058   -9.7117 O   0  0  0  0  0  0  0  0  0  0  0  0
   17.9760   70.8191   -5.9148 N   0  0  0  0  0  0  0  0  0  0  0  0
   17.6826   70.4247   -8.2397 N   0  0  0  0  0  0  0  0  0  0  0  0
   17.1167   70.4033   -6.9585 C   0  0  0  0  0  0  0  0  0  0  0  0
   19.2800   71.2108   -6.1978 C   0  0  0  0  0  0  0  0  0  0  0  0
   19.8048   71.2243   -7.4248 C   0  0  0  0  0  0  0  0  0  0  0  0
   18.9735   70.8045   -8.5714 C   0  0  0  0  0  0  0  0  0  0  0  0
   17.1027   70.1388   -8.9824 H   0  0  0  0  0  0  0  0  0  0  0  0
   21.0634   73.4690   -0.9931 O   0  0  0  0  0  0  0  0  0  0  0  0
   21.5552   74.2009    0.3617 P   0  0  2  0  0  0  0  0  0  0  0  0
   20.1789   74.4290    1.1809 O   0  0  0  0  0  0  0  0  0  0  0  0
   22.3528   75.4517    0.1306 O   0  0  0  0  0  0  0  0  0  0  0  0
   22.3349   73.0532    1.1861 O   0  0  0  0  0  0  0  0  0  0  0  0
   22.0477   70.7535    0.6908 O   0  0  0  0  0  0  0  0  0  0  0  0
   23.2786   70.4334    4.6193 O   0  0  0  0  0  0  0  0  0  0  0  0
   25.0673   69.6695    2.5062 O   0  0  0  0  0  0  0  0  0  0  0  0
   21.5154   72.5892    3.8296 O   0  0  0  0  0  0  0  0  0  0  0  0
   23.2465   70.9985    3.3058 C   0  0  1  0  0  0  0  0  0  0  0  0
   23.6786   69.9208    2.3095 C   0  0  1  0  0  0  0  0  0  0  0  0
   21.8271   71.4740    3.0016 C   0  0  2  0  0  0  0  0  0  0  0  0
   23.4154   70.3649    0.8643 C   0  0  1  0  0  0  0  0  0  0  0  0
   21.6597   71.8452    1.5271 C   0  0  1  0  0  0  0  0  0  0  0  0
   24.1773   70.1300    4.8189 H   0  0  0  0  0  0  0  0  0  0  0  0
   25.2200   69.3903    3.4227 H   0  0  0  0  0  0  0  0  0  0  0  0
   21.6249   72.3412    4.7604 H   0  0  0  0  0  0  0  0  0  0  0  0
   22.6873   68.2581    0.0041 O   0  0  0  0  0  0  0  0  0  0  0  0
   23.6917   69.2457   -0.1373 C   0  0  0  0  0  0  0  0  0  0  0  0
   22.8501   67.5395   -0.6275 H   0  0  0  0  0  0  0  0  0  0  0  0
 25 28  1  0
 25 24  1  0
 25 26  1  1
 25 27  2  0
  1  4  1  0
  1 24  1  0
  1  2  1  6
  1  3  2  0
  6 11  1  0
  6 12  1  0
 29 36  1  0
 29 37  1  0
  9  7  1  6
  7 13  1  0
 10  8  1  1
  8 14  1  0
 37 28  1  6
  4  5  1  0
 33 30  1  1
 30 38  1  0
 34 31  1  6
 31 39  1  0
 35 32  1  1
 32 40  1  0
 41 42  1  0
 41 43  1  0
 15 19  2  0
 16 22  2  0
 12 17  1  6
 17 19  1  0
 17 20  1  0
 18 19  1  0
 18 22  1  0
 18 23  1  0
  9 10  1  0
  9 11  1  0
 10 12  1  0
 11  5  1  6
 33 34  1  0
 33 35  1  0
 34 36  1  0
 35 37  1  0
 36 42  1  6
 20 21  2  0
 21 22  1  0
M  CHG  2   2  -1  26  -1
M  END
>  <COMPND>  (43) 
    8629 

>  <AUTHOR>  (43) 
    GENERATED BY OPEN BABEL 3.1.1

>  <MASTER>  (43) 
        0    0    0    0    0    0    0    0   58    0   58    0

>  <minimizedAffinity>  (43) 
-7.70601

>  <CNNscore>  (43) 
0.7540671825

>  <CNNaffinity>  (43) 
4.5769338608

>  <CNN_VS>  (43) 
3.4513156414

>  <CNNaffinity_variance>  (43) 
0.1619661599

$$$$
44
     RDKit          3D

 43 45  0  0  0  0  0  0  0  0999 V2000
   22.9426   69.4944   -2.2421 P   0  0  2  0  0  0  0  0  0  0  0  0
   23.9220   70.3052   -3.2425 O   0  0  0  0  0  0  0  0  0  0  0  0
   23.2472   68.0316   -2.1046 O   0  0  0  0  0  0  0  0  0  0  0  0
   21.4580   69.8559   -2.7743 O   0  0  0  0  0  0  0  0  0  0  0  0
   21.2887   71.0171   -3.5686 C   0  0  0  0  0  0  0  0  0  0  0  0
   19.4156   72.1069   -4.6067 O   0  0  0  0  0  0  0  0  0  0  0  0
   17.7985   71.1374   -2.2753 O   0  0  0  0  0  0  0  0  0  0  0  0
   17.1497   69.3522   -4.2320 O   0  0  0  0  0  0  0  0  0  0  0  0
   18.8751   70.4949   -2.9559 C   0  0  1  0  0  0  0  0  0  0  0  0
   18.4132   69.9809   -4.3035 C   0  0  2  0  0  0  0  0  0  0  0  0
   19.8846   71.5649   -3.3527 C   0  0  1  0  0  0  0  0  0  0  0  0
   18.3872   71.2528   -5.1339 C   0  0  2  0  0  0  0  0  0  0  0  0
   17.1410   70.4740   -2.0116 H   0  0  0  0  0  0  0  0  0  0  0  0
   17.2183   68.5485   -3.6934 H   0  0  0  0  0  0  0  0  0  0  0  0
   16.4268   70.5076   -7.0258 O   0  0  0  0  0  0  0  0  0  0  0  0
   19.5225   70.3286  -10.4354 O   0  0  0  0  0  0  0  0  0  0  0  0
   18.6531   71.0055   -6.5230 N   0  0  0  0  0  0  0  0  0  0  0  0
   17.9698   70.4193   -8.7220 N   0  0  0  0  0  0  0  0  0  0  0  0
   17.5978   70.6356   -7.3890 C   0  0  0  0  0  0  0  0  0  0  0  0
   19.9482   71.1308   -7.0137 C   0  0  0  0  0  0  0  0  0  0  0  0
   20.2866   70.9197   -8.2873 C   0  0  0  0  0  0  0  0  0  0  0  0
   19.2432   70.5298   -9.2576 C   0  0  0  0  0  0  0  0  0  0  0  0
   17.2512   70.1603   -9.3436 H   0  0  0  0  0  0  0  0  0  0  0  0
   23.0504   70.3363   -0.8664 O   0  0  0  0  0  0  0  0  0  0  0  0
   22.3445   70.1161    0.5710 P   0  0  2  0  0  0  0  0  0  0  0  0
   23.4652   69.3107    1.4153 O   0  0  0  0  0  0  0  0  0  0  0  0
   21.0100   69.4316    0.5028 O   0  0  0  0  0  0  0  0  0  0  0  0
   22.3092   71.5853    1.2381 O   0  0  0  0  0  0  0  0  0  0  0  0
   22.5489   71.2822    3.5763 O   0  0  0  0  0  0  0  0  0  0  0  0
   22.0901   75.3850    3.4864 O   0  0  0  0  0  0  0  0  0  0  0  0
   24.6701   74.2589    4.0553 O   0  0  0  0  0  0  0  0  0  0  0  0
   20.5446   73.7195    1.6927 O   0  0  0  0  0  0  0  0  0  0  0  0
   22.5271   74.1119    3.0031 C   0  0  1  0  0  0  0  0  0  0  0  0
   23.4646   73.4992    4.0455 C   0  0  1  0  0  0  0  0  0  0  0  0
   21.3092   73.2165    2.7831 C   0  0  2  0  0  0  0  0  0  0  0  0
   23.7626   72.0281    3.7259 C   0  0  1  0  0  0  0  0  0  0  0  0
   21.7151   71.7651    2.5211 C   0  0  1  0  0  0  0  0  0  0  0  0
   22.8586   75.9585    3.6277 H   0  0  0  0  0  0  0  0  0  0  0  0
   24.4679   75.1859    4.2578 H   0  0  0  0  0  0  0  0  0  0  0  0
   20.2936   74.6388    1.8708 H   0  0  0  0  0  0  0  0  0  0  0  0
   25.4949   70.4649    4.2404 O   0  0  0  0  0  0  0  0  0  0  0  0
   24.5669   71.3535    4.8350 C   0  0  0  0  0  0  0  0  0  0  0  0
   26.0141   70.0285    4.9344 H   0  0  0  0  0  0  0  0  0  0  0  0
 25 28  1  0
 25 24  1  0
 25 26  1  1
 25 27  2  0
  1  4  1  0
  1 24  1  0
  1  2  1  6
  1  3  2  0
  6 11  1  0
  6 12  1  0
 29 36  1  0
 29 37  1  0
  9  7  1  6
  7 13  1  0
 10  8  1  1
  8 14  1  0
 37 28  1  6
  4  5  1  0
 33 30  1  1
 30 38  1  0
 34 31  1  6
 31 39  1  0
 35 32  1  6
 32 40  1  0
 41 42  1  0
 41 43  1  0
 15 19  2  0
 16 22  2  0
 12 17  1  6
 17 19  1  0
 17 20  1  0
 18 19  1  0
 18 22  1  0
 18 23  1  0
  9 10  1  0
  9 11  1  0
 10 12  1  0
 11  5  1  6
 33 34  1  0
 33 35  1  0
 34 36  1  0
 35 37  1  0
 36 42  1  1
 20 21  2  0
 21 22  1  0
M  CHG  2   2  -1  26  -1
M  END
>  <COMPND>  (44) 
    8629 

>  <AUTHOR>  (44) 
    GENERATED BY OPEN BABEL 3.1.1

>  <MASTER>  (44) 
        0    0    0    0    0    0    0    0   58    0   58    0

>  <minimizedAffinity>  (44) 
-8.53504

>  <CNNscore>  (44) 
0.6623740196

>  <CNNaffinity>  (44) 
4.6001219749

>  <CNN_VS>  (44) 
3.0470013618

>  <CNNaffinity_variance>  (44) 
0.0227844156

$$$$
45
     RDKit          3D

 43 45  0  0  0  0  0  0  0  0999 V2000
   22.0396   71.0648   -1.7855 P   0  0  2  0  0  0  0  0  0  0  0  0
   22.8205   72.3785   -2.3164 O   0  0  0  0  0  0  0  0  0  0  0  0
   22.1389   69.8640   -2.6797 O   0  0  0  0  0  0  0  0  0  0  0  0
   20.5410   71.5975   -1.4882 O   0  0  0  0  0  0  0  0  0  0  0  0
   19.8021   72.1677   -2.5543 C   0  0  0  0  0  0  0  0  0  0  0  0
   17.7257   71.9156   -3.7370 O   0  0  0  0  0  0  0  0  0  0  0  0
   16.9254   70.0265   -1.5503 O   0  0  0  0  0  0  0  0  0  0  0  0
   17.6501   68.3341   -3.5621 O   0  0  0  0  0  0  0  0  0  0  0  0
   18.2069   70.2287   -2.1437 C   0  0  1  0  0  0  0  0  0  0  0  0
   18.2488   69.6136   -3.5270 C   0  0  2  0  0  0  0  0  0  0  0  0
   18.3525   71.7138   -2.4514 C   0  0  1  0  0  0  0  0  0  0  0  0
   17.4873   70.6382   -4.3506 C   0  0  2  0  0  0  0  0  0  0  0  0
   16.8094   69.0851   -1.3446 H   0  0  0  0  0  0  0  0  0  0  0  0
   18.1711   67.7183   -3.0236 H   0  0  0  0  0  0  0  0  0  0  0  0
   15.9072   69.9018   -6.5730 O   0  0  0  0  0  0  0  0  0  0  0  0
   19.3041   70.8589   -9.5372 O   0  0  0  0  0  0  0  0  0  0  0  0
   17.9335   70.6856   -5.7145 N   0  0  0  0  0  0  0  0  0  0  0  0
   17.5998   70.3791   -8.0471 N   0  0  0  0  0  0  0  0  0  0  0  0
   17.0617   70.2930   -6.7568 C   0  0  0  0  0  0  0  0  0  0  0  0
   19.2224   71.1179   -6.0074 C   0  0  0  0  0  0  0  0  0  0  0  0
   19.7208   71.1930   -7.2432 C   0  0  0  0  0  0  0  0  0  0  0  0
   18.8749   70.8012   -8.3890 C   0  0  0  0  0  0  0  0  0  0  0  0
   17.0108   70.1104   -8.7891 H   0  0  0  0  0  0  0  0  0  0  0  0
   22.6505   70.8528   -0.3040 O   0  0  0  0  0  0  0  0  0  0  0  0
   22.1462   69.9408    0.9316 P   0  0  2  0  0  0  0  0  0  0  0  0
   23.4947   69.1858    1.4101 O   0  0  0  0  0  0  0  0  0  0  0  0
   21.0084   69.0214    0.5937 O   0  0  0  0  0  0  0  0  0  0  0  0
   21.8274   70.9935    2.1128 O   0  0  0  0  0  0  0  0  0  0  0  0
   21.3471   73.3101    1.9749 O   0  0  0  0  0  0  0  0  0  0  0  0
   23.4770   73.2873    5.5124 O   0  0  0  0  0  0  0  0  0  0  0  0
   20.6340   73.6899    5.5716 O   0  0  0  0  0  0  0  0  0  0  0  0
   24.2905   71.5733    3.3261 O   0  0  0  0  0  0  0  0  0  0  0  0
   22.5786   72.7665    4.5291 C   0  0  1  0  0  0  0  0  0  0  0  0
   21.4120   73.7450    4.3791 C   0  0  1  0  0  0  0  0  0  0  0  0
   23.3237   72.6111    3.2047 C   0  0  2  0  0  0  0  0  0  0  0  0
   20.5478   73.3940    3.1605 C   0  0  1  0  0  0  0  0  0  0  0  0
   22.3663   72.3113    2.0498 C   0  0  1  0  0  0  0  0  0  0  0  0
   23.0102   73.3879    6.3559 H   0  0  0  0  0  0  0  0  0  0  0  0
   21.1916   73.9131    6.3335 H   0  0  0  0  0  0  0  0  0  0  0  0
   24.8906   71.7750    4.0603 H   0  0  0  0  0  0  0  0  0  0  0  0
   18.4084   74.2367    3.8100 O   0  0  0  0  0  0  0  0  0  0  0  0
   19.4723   74.4464    2.8999 C   0  0  0  0  0  0  0  0  0  0  0  0
   17.7166   74.8996    3.6560 H   0  0  0  0  0  0  0  0  0  0  0  0
 25 28  1  0
 25 24  1  0
 25 26  1  1
 25 27  2  0
  1  4  1  0
  1 24  1  0
  1  2  1  6
  1  3  2  0
  6 11  1  0
  6 12  1  0
 29 36  1  0
 29 37  1  0
  9  7  1  6
  7 13  1  0
 10  8  1  1
  8 14  1  0
 37 28  1  1
  4  5  1  0
 33 30  1  1
 30 38  1  0
 34 31  1  1
 31 39  1  0
 35 32  1  1
 32 40  1  0
 41 42  1  0
 41 43  1  0
 15 19  2  0
 16 22  2  0
 12 17  1  6
 17 19  1  0
 17 20  1  0
 18 19  1  0
 18 22  1  0
 18 23  1  0
  9 10  1  0
  9 11  1  0
 10 12  1  0
 11  5  1  6
 33 34  1  0
 33 35  1  0
 34 36  1  0
 35 37  1  0
 36 42  1  6
 20 21  2  0
 21 22  1  0
M  CHG  2   2  -1  26  -1
M  END
>  <COMPND>  (45) 
    8629 

>  <AUTHOR>  (45) 
    GENERATED BY OPEN BABEL 3.1.1

>  <MASTER>  (45) 
        0    0    0    0    0    0    0    0   58    0   58    0

>  <minimizedAffinity>  (45) 
-8.14867

>  <CNNscore>  (45) 
0.6614537239

>  <CNNaffinity>  (45) 
4.6583242416

>  <CNN_VS>  (45) 
3.0812659264

>  <CNNaffinity_variance>  (45) 
0.0160828419

$$$$
46
     RDKit          3D

 43 45  0  0  0  0  0  0  0  0999 V2000
   22.9204   69.6345   -2.0812 P   0  0  2  0  0  0  0  0  0  0  0  0
   23.7827   70.6472   -3.0023 O   0  0  0  0  0  0  0  0  0  0  0  0
   23.2707   68.1837   -2.2352 O   0  0  0  0  0  0  0  0  0  0  0  0
   21.3845   70.0250   -2.4075 O   0  0  0  0  0  0  0  0  0  0  0  0
   21.1343   71.1082   -3.2861 C   0  0  0  0  0  0  0  0  0  0  0  0
   19.2264   72.1533   -4.3066 O   0  0  0  0  0  0  0  0  0  0  0  0
   17.6469   71.1134   -1.9797 O   0  0  0  0  0  0  0  0  0  0  0  0
   17.0432   69.3299   -3.9523 O   0  0  0  0  0  0  0  0  0  0  0  0
   18.7393   70.5096   -2.6705 C   0  0  1  0  0  0  0  0  0  0  0  0
   18.2876   69.9959   -4.0217 C   0  0  2  0  0  0  0  0  0  0  0  0
   19.7157   71.6126   -3.0598 C   0  0  1  0  0  0  0  0  0  0  0  0
   18.2214   71.2749   -4.8390 C   0  0  2  0  0  0  0  0  0  0  0  0
   17.0101   70.4284   -1.7206 H   0  0  0  0  0  0  0  0  0  0  0  0
   17.1372   68.5231   -3.4222 H   0  0  0  0  0  0  0  0  0  0  0  0
   16.2683   70.5341   -6.7401 O   0  0  0  0  0  0  0  0  0  0  0  0
   19.3639   70.4358  -10.1531 O   0  0  0  0  0  0  0  0  0  0  0  0
   18.4892   71.0495   -6.2314 N   0  0  0  0  0  0  0  0  0  0  0  0
   17.8112   70.4859   -8.4380 N   0  0  0  0  0  0  0  0  0  0  0  0
   17.4376   70.6799   -7.1020 C   0  0  0  0  0  0  0  0  0  0  0  0
   19.7826   71.1958   -6.7209 C   0  0  0  0  0  0  0  0  0  0  0  0
   20.1226   71.0059   -7.9974 C   0  0  0  0  0  0  0  0  0  0  0  0
   19.0831   70.6178   -8.9725 C   0  0  0  0  0  0  0  0  0  0  0  0
   17.0952   70.2275   -9.0628 H   0  0  0  0  0  0  0  0  0  0  0  0
   23.1368   70.2244   -0.5918 O   0  0  0  0  0  0  0  0  0  0  0  0
   22.3363   69.9496    0.7854 P   0  0  2  0  0  0  0  0  0  0  0  0
   23.4987   69.4601    1.7987 O   0  0  0  0  0  0  0  0  0  0  0  0
   21.1891   68.9908    0.6495 O   0  0  0  0  0  0  0  0  0  0  0  0
   21.9229   71.4162    1.3173 O   0  0  0  0  0  0  0  0  0  0  0  0
   19.7740   72.4012    1.4857 O   0  0  0  0  0  0  0  0  0  0  0  0
   21.9633   75.7594    0.4956 O   0  0  0  0  0  0  0  0  0  0  0  0
   20.9676   75.4542    3.1720 O   0  0  0  0  0  0  0  0  0  0  0  0
   22.5894   73.2138   -0.7321 O   0  0  0  0  0  0  0  0  0  0  0  0
   21.7294   74.4934    1.1184 C   0  0  1  0  0  0  0  0  0  0  0  0
   20.5478   74.6424    2.0788 C   0  0  1  0  0  0  0  0  0  0  0  0
   21.4187   73.4566    0.0405 C   0  0  2  0  0  0  0  0  0  0  0  0
   20.0674   73.2747    2.5824 C   0  0  1  0  0  0  0  0  0  0  0  0
   20.9023   72.1500    0.6456 C   0  0  1  0  0  0  0  0  0  0  0  0
   22.1617   76.4221    1.1745 H   0  0  0  0  0  0  0  0  0  0  0  0
   21.2690   76.3146    2.8404 H   0  0  0  0  0  0  0  0  0  0  0  0
   22.9063   74.0485   -1.1099 H   0  0  0  0  0  0  0  0  0  0  0  0
   18.1278   72.1381    3.3917 O   0  0  0  0  0  0  0  0  0  0  0  0
   18.7928   73.3877    3.4160 C   0  0  0  0  0  0  0  0  0  0  0  0
   17.3148   72.1949    3.9185 H   0  0  0  0  0  0  0  0  0  0  0  0
 25 28  1  0
 25 24  1  0
 25 26  1  1
 25 27  2  0
  1  4  1  0
  1 24  1  0
  1  2  1  6
  1  3  2  0
  6 11  1  0
  6 12  1  0
 29 36  1  0
 29 37  1  0
  9  7  1  6
  7 13  1  0
 10  8  1  1
  8 14  1  0
 37 28  1  1
  4  5  1  0
 33 30  1  6
 30 38  1  0
 34 31  1  1
 31 39  1  0
 35 32  1  1
 32 40  1  0
 41 42  1  0
 41 43  1  0
 15 19  2  0
 16 22  2  0
 12 17  1  6
 17 19  1  0
 17 20  1  0
 18 19  1  0
 18 22  1  0
 18 23  1  0
  9 10  1  0
  9 11  1  0
 10 12  1  0
 11  5  1  6
 33 34  1  0
 33 35  1  0
 34 36  1  0
 35 37  1  0
 36 42  1  6
 20 21  2  0
 21 22  1  0
M  CHG  2   2  -1  26  -1
M  END
>  <COMPND>  (46) 
    8629 

>  <AUTHOR>  (46) 
    GENERATED BY OPEN BABEL 3.1.1

>  <MASTER>  (46) 
        0    0    0    0    0    0    0    0   58    0   58    0

>  <minimizedAffinity>  (46) 
-7.61768

>  <CNNscore>  (46) 
0.6425004601

>  <CNNaffinity>  (46) 
4.7016296387

>  <CNN_VS>  (46) 
3.0207991600

>  <CNNaffinity_variance>  (46) 
0.1416192949

$$$$
47
     RDKit          3D

 43 45  0  0  0  0  0  0  0  0999 V2000
   22.3452   72.9520   -2.6962 P   0  0  2  0  0  0  0  0  0  0  0  0
   22.6448   73.3163   -1.1486 O   0  0  0  0  0  0  0  0  0  0  0  0
   22.5700   74.0742   -3.6664 O   0  0  0  0  0  0  0  0  0  0  0  0
   20.8490   72.3368   -2.6678 O   0  0  0  0  0  0  0  0  0  0  0  0
   19.8153   73.0422   -3.3324 C   0  0  0  0  0  0  0  0  0  0  0  0
   17.8074   72.2156   -4.3615 O   0  0  0  0  0  0  0  0  0  0  0  0
   17.4681   70.5263   -1.9075 O   0  0  0  0  0  0  0  0  0  0  0  0
   18.4774   68.7519   -3.7157 O   0  0  0  0  0  0  0  0  0  0  0  0
   18.6654   70.8980   -2.5885 C   0  0  1  0  0  0  0  0  0  0  0  0
   18.7996   70.1180   -3.8797 C   0  0  2  0  0  0  0  0  0  0  0  0
   18.4935   72.3246   -3.0951 C   0  0  1  0  0  0  0  0  0  0  0  0
   17.8230   70.8439   -4.7894 C   0  0  2  0  0  0  0  0  0  0  0  0
   17.5541   69.6188   -1.5745 H   0  0  0  0  0  0  0  0  0  0  0  0
   19.1273   68.3344   -3.1292 H   0  0  0  0  0  0  0  0  0  0  0  0
   16.1019   70.1321   -6.9128 O   0  0  0  0  0  0  0  0  0  0  0  0
   19.4416   70.6707  -10.0429 O   0  0  0  0  0  0  0  0  0  0  0  0
   18.2164   70.7902   -6.1691 N   0  0  0  0  0  0  0  0  0  0  0  0
   17.7661   70.4011   -8.4696 N   0  0  0  0  0  0  0  0  0  0  0  0
   17.2752   70.4200   -7.1579 C   0  0  0  0  0  0  0  0  0  0  0  0
   19.5224   71.1030   -6.5301 C   0  0  0  0  0  0  0  0  0  0  0  0
   19.9751   71.0789   -7.7854 C   0  0  0  0  0  0  0  0  0  0  0  0
   19.0556   70.7024   -8.8785 C   0  0  0  0  0  0  0  0  0  0  0  0
   17.1285   70.1456   -9.1752 H   0  0  0  0  0  0  0  0  0  0  0  0
   23.2688   71.6495   -2.9483 O   0  0  0  0  0  0  0  0  0  0  0  0
   23.1693   70.1475   -2.3593 P   0  0  2  0  0  0  0  0  0  0  0  0
   24.5763   69.4819   -2.8008 O   0  0  0  0  0  0  0  0  0  0  0  0
   21.9560   69.3881   -2.8121 O   0  0  0  0  0  0  0  0  0  0  0  0
   23.2876   70.3273   -0.7598 O   0  0  0  0  0  0  0  0  0  0  0  0
   23.4300   69.0119    1.2065 O   0  0  0  0  0  0  0  0  0  0  0  0
   20.2113   71.3863    2.2328 O   0  0  0  0  0  0  0  0  0  0  0  0
   22.7520   71.8163    3.5010 O   0  0  0  0  0  0  0  0  0  0  0  0
   20.4967   70.4377   -0.4872 O   0  0  0  0  0  0  0  0  0  0  0  0
   21.4682   71.0898    1.6181 C   0  0  1  0  0  0  0  0  0  0  0  0
   22.4499   70.6681    2.7132 C   0  0  1  0  0  0  0  0  0  0  0  0
   21.2751   69.9623    0.6058 C   0  0  2  0  0  0  0  0  0  0  0  0
   23.7333   70.0809    2.1105 C   0  0  1  0  0  0  0  0  0  0  0  0
   22.6140   69.4169    0.1056 C   0  0  1  0  0  0  0  0  0  0  0  0
   20.3268   72.1018    2.8764 H   0  0  0  0  0  0  0  0  0  0  0  0
   21.9331   72.1777    3.8753 H   0  0  0  0  0  0  0  0  0  0  0  0
   19.6517   70.7800   -0.1575 H   0  0  0  0  0  0  0  0  0  0  0  0
   23.9899   69.5622    4.4287 O   0  0  0  0  0  0  0  0  0  0  0  0
   24.6591   69.5096    3.1822 C   0  0  0  0  0  0  0  0  0  0  0  0
   24.5671   69.2015    5.1204 H   0  0  0  0  0  0  0  0  0  0  0  0
 25 28  1  0
 25 24  1  0
 25 26  1  6
 25 27  2  0
  1  4  1  0
  1 24  1  0
  1  2  1  1
  1  3  2  0
  6 11  1  0
  6 12  1  0
 29 36  1  0
 29 37  1  0
  9  7  1  6
  7 13  1  0
 10  8  1  1
  8 14  1  0
 37 28  1  1
  4  5  1  0
 33 30  1  1
 30 38  1  0
 34 31  1  6
 31 39  1  0
 35 32  1  6
 32 40  1  0
 41 42  1  0
 41 43  1  0
 15 19  2  0
 16 22  2  0
 12 17  1  6
 17 19  1  0
 17 20  1  0
 18 19  1  0
 18 22  1  0
 18 23  1  0
  9 10  1  0
  9 11  1  0
 10 12  1  0
 11  5  1  6
 33 34  1  0
 33 35  1  0
 34 36  1  0
 35 37  1  0
 36 42  1  1
 20 21  2  0
 21 22  1  0
M  CHG  2   2  -1  26  -1
M  END
>  <COMPND>  (47) 
    8629 

>  <AUTHOR>  (47) 
    GENERATED BY OPEN BABEL 3.1.1

>  <MASTER>  (47) 
        0    0    0    0    0    0    0    0   58    0   58    0

>  <minimizedAffinity>  (47) 
-8.41648

>  <CNNscore>  (47) 
0.5404710770

>  <CNNaffinity>  (47) 
4.3657789230

>  <CNN_VS>  (47) 
2.3595771790

>  <CNNaffinity_variance>  (47) 
0.0488593504

$$$$
48
     RDKit          3D

 43 45  0  0  0  0  0  0  0  0999 V2000
   20.7505   71.0537   -0.8620 P   0  0  2  0  0  0  0  0  0  0  0  0
   20.0043   70.3273    0.3761 O   0  0  0  0  0  0  0  0  0  0  0  0
   22.1963   70.6901   -1.0322 O   0  0  0  0  0  0  0  0  0  0  0  0
   20.4436   72.6256   -0.6323 O   0  0  0  0  0  0  0  0  0  0  0  0
   21.4971   73.4620   -0.1869 C   0  0  0  0  0  0  0  0  0  0  0  0
   21.1614   73.0720    2.1602 O   0  0  0  0  0  0  0  0  0  0  0  0
   21.3473   76.0464    2.4903 O   0  0  0  0  0  0  0  0  0  0  0  0
   23.8252   75.2070    3.2596 O   0  0  0  0  0  0  0  0  0  0  0  0
   22.0549   75.1923    1.5931 C   0  0  1  0  0  0  0  0  0  0  0  0
   23.1121   74.4058    2.3396 C   0  0  2  0  0  0  0  0  0  0  0  0
   21.1012   74.0935    1.1408 C   0  0  1  0  0  0  0  0  0  0  0  0
   22.2826   73.3307    3.0209 C   0  0  2  0  0  0  0  0  0  0  0  0
   21.9359   76.7564    2.7925 H   0  0  0  0  0  0  0  0  0  0  0  0
   24.3370   75.8753    2.7777 H   0  0  0  0  0  0  0  0  0  0  0  0
   23.9022   72.7754    5.2673 O   0  0  0  0  0  0  0  0  0  0  0  0
   25.0510   68.6189    3.6411 O   0  0  0  0  0  0  0  0  0  0  0  0
   23.0160   72.1110    3.2105 N   0  0  0  0  0  0  0  0  0  0  0  0
   24.4728   70.7062    4.4558 N   0  0  0  0  0  0  0  0  0  0  0  0
   23.8006   71.9323    4.3737 C   0  0  0  0  0  0  0  0  0  0  0  0
   22.9528   71.1078    2.2496 C   0  0  0  0  0  0  0  0  0  0  0  0
   23.6009   69.9447    2.3423 C   0  0  0  0  0  0  0  0  0  0  0  0
   24.4426   69.6784    3.5266 C   0  0  0  0  0  0  0  0  0  0  0  0
   25.0258   70.5595    5.2573 H   0  0  0  0  0  0  0  0  0  0  0  0
   19.8101   70.6804   -2.1227 O   0  0  0  0  0  0  0  0  0  0  0  0
   20.0881   70.7548   -3.7133 P   0  0  2  0  0  0  0  0  0  0  0  0
   19.6540   69.2861   -4.2350 O   0  0  0  0  0  0  0  0  0  0  0  0
   21.4903   71.1509   -4.0750 O   0  0  0  0  0  0  0  0  0  0  0  0
   18.9460   71.7433   -4.2819 O   0  0  0  0  0  0  0  0  0  0  0  0
   19.6177   72.1293   -6.5216 O   0  0  0  0  0  0  0  0  0  0  0  0
   16.0841   74.2659   -6.5149 O   0  0  0  0  0  0  0  0  0  0  0  0
   16.2281   71.7679   -7.9247 O   0  0  0  0  0  0  0  0  0  0  0  0
   17.7977   74.3020   -4.1822 O   0  0  0  0  0  0  0  0  0  0  0  0
   16.9604   73.1958   -6.1511 C   0  0  1  0  0  0  0  0  0  0  0  0
   17.3712   72.4575   -7.4266 C   0  0  1  0  0  0  0  0  0  0  0  0
   18.1862   73.7724   -5.4452 C   0  0  2  0  0  0  0  0  0  0  0  0
   18.5132   71.4699   -7.1517 C   0  0  1  0  0  0  0  0  0  0  0  0
   19.2813   72.7197   -5.2646 C   0  0  1  0  0  0  0  0  0  0  0  0
   15.3035   73.9065   -6.9632 H   0  0  0  0  0  0  0  0  0  0  0  0
   15.5142   72.4027   -8.0937 H   0  0  0  0  0  0  0  0  0  0  0  0
   17.1044   74.9674   -4.3101 H   0  0  0  0  0  0  0  0  0  0  0  0
   20.3781   71.2719   -8.6322 O   0  0  0  0  0  0  0  0  0  0  0  0
   19.0447   70.8382   -8.4364 C   0  0  0  0  0  0  0  0  0  0  0  0
   20.7295   70.8774   -9.4462 H   0  0  0  0  0  0  0  0  0  0  0  0
 25 28  1  0
 25 24  1  0
 25 26  1  6
 25 27  2  0
  1  4  1  0
  1 24  1  0
  1  2  1  1
  1  3  2  0
  6 11  1  0
  6 12  1  0
 29 36  1  0
 29 37  1  0
  9  7  1  1
  7 13  1  0
 10  8  1  1
  8 14  1  0
 37 28  1  1
  4  5  1  0
 33 30  1  6
 30 38  1  0
 34 31  1  1
 31 39  1  0
 35 32  1  1
 32 40  1  0
 41 42  1  0
 41 43  1  0
 15 19  2  0
 16 22  2  0
 12 17  1  6
 17 19  1  0
 17 20  1  0
 18 19  1  0
 18 22  1  0
 18 23  1  0
  9 10  1  0
  9 11  1  0
 10 12  1  0
 11  5  1  6
 33 34  1  0
 33 35  1  0
 34 36  1  0
 35 37  1  0
 36 42  1  6
 20 21  2  0
 21 22  1  0
M  CHG  2   2  -1  26  -1
M  END
>  <COMPND>  (48) 
    8629 

>  <AUTHOR>  (48) 
    GENERATED BY OPEN BABEL 3.1.1

>  <MASTER>  (48) 
        0    0    0    0    0    0    0    0   58    0   58    0

>  <minimizedAffinity>  (48) 
-6.81420

>  <CNNscore>  (48) 
0.5098103285

>  <CNNaffinity>  (48) 
4.0091028214

>  <CNN_VS>  (48) 
2.0438821316

>  <CNNaffinity_variance>  (48) 
0.0503046587

$$$$
49
     RDKit          3D

 43 45  0  0  0  0  0  0  0  0999 V2000
   21.4387   71.5790   -2.2307 P   0  0  2  0  0  0  0  0  0  0  0  0
   22.5830   72.6668   -2.5841 O   0  0  0  0  0  0  0  0  0  0  0  0
   21.8964   70.1501   -2.2458 O   0  0  0  0  0  0  0  0  0  0  0  0
   20.2319   71.9410   -3.2459 O   0  0  0  0  0  0  0  0  0  0  0  0
   19.9638   73.3055   -3.5182 C   0  0  0  0  0  0  0  0  0  0  0  0
   19.6797   72.2456   -5.6559 O   0  0  0  0  0  0  0  0  0  0  0  0
   19.2367   75.0006   -6.7534 O   0  0  0  0  0  0  0  0  0  0  0  0
   16.6973   74.0291   -6.5429 O   0  0  0  0  0  0  0  0  0  0  0  0
   18.8475   74.4584   -5.4925 C   0  0  1  0  0  0  0  0  0  0  0  0
   17.6771   73.5129   -5.6653 C   0  0  2  0  0  0  0  0  0  0  0  0
   19.9508   73.5168   -5.0260 C   0  0  1  0  0  0  0  0  0  0  0  0
   18.3554   72.2687   -6.2130 C   0  0  2  0  0  0  0  0  0  0  0  0
   18.5476   75.6055   -7.0716 H   0  0  0  0  0  0  0  0  0  0  0  0
   16.2950   74.8194   -6.1499 H   0  0  0  0  0  0  0  0  0  0  0  0
   16.1306   71.2046   -7.5900 O   0  0  0  0  0  0  0  0  0  0  0  0
   15.8107   67.6368   -4.6900 O   0  0  0  0  0  0  0  0  0  0  0  0
   17.6713   71.0628   -5.8398 N   0  0  0  0  0  0  0  0  0  0  0  0
   15.9732   69.4289   -6.1450 N   0  0  0  0  0  0  0  0  0  0  0  0
   16.5642   70.6154   -6.5978 C   0  0  0  0  0  0  0  0  0  0  0  0
   18.0997   70.3372   -4.7335 C   0  0  0  0  0  0  0  0  0  0  0  0
   17.5244   69.2083   -4.3141 C   0  0  0  0  0  0  0  0  0  0  0  0
   16.3615   68.6724   -5.0506 C   0  0  0  0  0  0  0  0  0  0  0  0
   15.1999   69.0983   -6.6573 H   0  0  0  0  0  0  0  0  0  0  0  0
   20.8788   72.0911   -0.8034 O   0  0  0  0  0  0  0  0  0  0  0  0
   20.1152   71.3015    0.3825 P   0  0  2  0  0  0  0  0  0  0  0  0
   19.4563   70.0352   -0.3791 O   0  0  0  0  0  0  0  0  0  0  0  0
   19.1351   72.1414    1.1494 O   0  0  0  0  0  0  0  0  0  0  0  0
   21.2981   70.6676    1.2790 O   0  0  0  0  0  0  0  0  0  0  0  0
   22.9226   72.3098    1.8090 O   0  0  0  0  0  0  0  0  0  0  0  0
   24.8829   68.9620    3.2233 O   0  0  0  0  0  0  0  0  0  0  0  0
   23.7772   70.8496    5.0841 O   0  0  0  0  0  0  0  0  0  0  0  0
   23.3382   68.8063    0.7801 O   0  0  0  0  0  0  0  0  0  0  0  0
   23.7482   69.7858    2.9420 C   0  0  1  0  0  0  0  0  0  0  0  0
   23.9192   71.1093    3.6903 C   0  0  1  0  0  0  0  0  0  0  0  0
   23.6671   70.0264    1.4357 C   0  0  2  0  0  0  0  0  0  0  0  0
   22.8822   72.1433    3.2311 C   0  0  1  0  0  0  0  0  0  0  0  0
   22.6408   71.1070    1.0908 C   0  0  1  0  0  0  0  0  0  0  0  0
   24.9399   68.8050    4.1781 H   0  0  0  0  0  0  0  0  0  0  0  0
   24.4374   70.1949    5.3611 H   0  0  0  0  0  0  0  0  0  0  0  0
   23.9954   68.1305    1.0063 H   0  0  0  0  0  0  0  0  0  0  0  0
   24.5203   73.6540    4.0933 O   0  0  0  0  0  0  0  0  0  0  0  0
   23.1326   73.5174    3.8485 C   0  0  0  0  0  0  0  0  0  0  0  0
   24.6947   74.5241    4.4860 H   0  0  0  0  0  0  0  0  0  0  0  0
 25 28  1  0
 25 24  1  0
 25 26  1  6
 25 27  2  0
  1  4  1  0
  1 24  1  0
  1  2  1  6
  1  3  2  0
  6 11  1  0
  6 12  1  0
 29 36  1  0
 29 37  1  0
  9  7  1  6
  7 13  1  0
 10  8  1  6
  8 14  1  0
 37 28  1  1
  4  5  1  0
 33 30  1  6
 30 38  1  0
 34 31  1  1
 31 39  1  0
 35 32  1  6
 32 40  1  0
 41 42  1  0
 41 43  1  0
 15 19  2  0
 16 22  2  0
 12 17  1  1
 17 19  1  0
 17 20  1  0
 18 19  1  0
 18 22  1  0
 18 23  1  0
  9 10  1  0
  9 11  1  0
 10 12  1  0
 11  5  1  1
 33 34  1  0
 33 35  1  0
 34 36  1  0
 35 37  1  0
 36 42  1  1
 20 21  2  0
 21 22  1  0
M  CHG  2   2  -1  26  -1
M  END
>  <COMPND>  (49) 
    8629 

>  <AUTHOR>  (49) 
    GENERATED BY OPEN BABEL 3.1.1

>  <MASTER>  (49) 
        0    0    0    0    0    0    0    0   58    0   58    0

>  <minimizedAffinity>  (49) 
-8.05547

>  <CNNscore>  (49) 
0.4597562253

>  <CNNaffinity>  (49) 
4.1392126083

>  <CNN_VS>  (49) 
1.9030287266

>  <CNNaffinity_variance>  (49) 
0.2117398679

$$$$
50
     RDKit          3D

 43 45  0  0  0  0  0  0  0  0999 V2000
   20.6565   70.8497   -0.6344 P   0  0  2  0  0  0  0  0  0  0  0  0
   20.4773   69.7318    0.5212 O   0  0  0  0  0  0  0  0  0  0  0  0
   21.4010   70.3882   -1.8527 O   0  0  0  0  0  0  0  0  0  0  0  0
   21.2987   72.1141    0.1445 O   0  0  0  0  0  0  0  0  0  0  0  0
   21.5029   72.0140    1.5431 C   0  0  0  0  0  0  0  0  0  0  0  0
   23.4914   72.9293    2.5339 O   0  0  0  0  0  0  0  0  0  0  0  0
   24.5898   70.1405    2.4535 O   0  0  0  0  0  0  0  0  0  0  0  0
   23.8254   70.4034    5.0580 O   0  0  0  0  0  0  0  0  0  0  0  0
   23.2545   70.5774    2.7011 C   0  0  1  0  0  0  0  0  0  0  0  0
   23.1453   71.1744    4.0886 C   0  0  2  0  0  0  0  0  0  0  0  0
   22.9838   71.7853    1.8129 C   0  0  1  0  0  0  0  0  0  0  0  0
   23.7672   72.5463    3.8912 C   0  0  2  0  0  0  0  0  0  0  0  0
   24.7858   69.3694    3.0094 H   0  0  0  0  0  0  0  0  0  0  0  0
   23.3921   69.5402    5.1471 H   0  0  0  0  0  0  0  0  0  0  0  0
   25.2909   74.4504    5.3162 O   0  0  0  0  0  0  0  0  0  0  0  0
   21.5309   76.2772    7.2570 O   0  0  0  0  0  0  0  0  0  0  0  0
   23.2122   73.5317    4.7757 N   0  0  0  0  0  0  0  0  0  0  0  0
   23.4174   75.3586    6.2813 N   0  0  0  0  0  0  0  0  0  0  0  0
   24.0648   74.4411    5.4440 C   0  0  0  0  0  0  0  0  0  0  0  0
   21.8368   73.5897    4.9730 C   0  0  0  0  0  0  0  0  0  0  0  0
   21.2353   74.4699    5.7759 C   0  0  0  0  0  0  0  0  0  0  0  0
   22.0541   75.4551    6.5112 C   0  0  0  0  0  0  0  0  0  0  0  0
   23.9913   76.0017    6.7575 H   0  0  0  0  0  0  0  0  0  0  0  0
   19.1384   71.3289   -0.9152 O   0  0  0  0  0  0  0  0  0  0  0  0
   18.0279   70.7826   -1.9551 P   0  0  2  0  0  0  0  0  0  0  0  0
   16.6839   71.5637   -1.5070 O   0  0  0  0  0  0  0  0  0  0  0  0
   17.8948   69.2875   -1.9841 O   0  0  0  0  0  0  0  0  0  0  0  0
   18.4322   71.4457   -3.3700 O   0  0  0  0  0  0  0  0  0  0  0  0
   18.0996   70.1398   -5.3195 O   0  0  0  0  0  0  0  0  0  0  0  0
   20.7172   72.9460   -6.8439 O   0  0  0  0  0  0  0  0  0  0  0  0
   17.9485   73.0302   -7.6024 O   0  0  0  0  0  0  0  0  0  0  0  0
   21.0807   71.9444   -4.1524 O   0  0  0  0  0  0  0  0  0  0  0  0
   19.6505   72.4730   -6.0170 C   0  0  1  0  0  0  0  0  0  0  0  0
   18.5456   71.9284   -6.9244 C   0  0  1  0  0  0  0  0  0  0  0  0
   20.1812   71.3748   -5.0974 C   0  0  2  0  0  0  0  0  0  0  0  0
   17.4901   71.1638   -6.1142 C   0  0  1  0  0  0  0  0  0  0  0  0
   19.0466   70.6448   -4.3762 C   0  0  1  0  0  0  0  0  0  0  0  0
   20.3870   73.6440   -7.4299 H   0  0  0  0  0  0  0  0  0  0  0  0
   18.6257   73.5047   -8.1097 H   0  0  0  0  0  0  0  0  0  0  0  0
   21.7943   72.4033   -4.6214 H   0  0  0  0  0  0  0  0  0  0  0  0
   15.7216   69.5615   -6.2320 O   0  0  0  0  0  0  0  0  0  0  0  0
   16.4641   70.4787   -7.0142 C   0  0  0  0  0  0  0  0  0  0  0  0
   15.0644   69.1181   -6.7917 H   0  0  0  0  0  0  0  0  0  0  0  0
 25 28  1  0
 25 24  1  0
 25 26  1  1
 25 27  2  0
  1  4  1  0
  1 24  1  0
  1  2  1  1
  1  3  2  0
  6 11  1  0
  6 12  1  0
 29 36  1  0
 29 37  1  0
  9  7  1  6
  7 13  1  0
 10  8  1  1
  8 14  1  0
 37 28  1  1
  4  5  1  0
 33 30  1  6
 30 38  1  0
 34 31  1  1
 31 39  1  0
 35 32  1  1
 32 40  1  0
 41 42  1  0
 41 43  1  0
 15 19  2  0
 16 22  2  0
 12 17  1  1
 17 19  1  0
 17 20  1  0
 18 19  1  0
 18 22  1  0
 18 23  1  0
  9 10  1  0
  9 11  1  0
 10 12  1  0
 11  5  1  1
 33 34  1  0
 33 35  1  0
 34 36  1  0
 35 37  1  0
 36 42  1  6
 20 21  2  0
 21 22  1  0
M  CHG  2   2  -1  26  -1
M  END
>  <COMPND>  (50) 
    8629 

>  <AUTHOR>  (50) 
    GENERATED BY OPEN BABEL 3.1.1

>  <MASTER>  (50) 
        0    0    0    0    0    0    0    0   58    0   58    0

>  <minimizedAffinity>  (50) 
-7.84981

>  <CNNscore>  (50) 
0.4568782449

>  <CNNaffinity>  (50) 
3.9759020805

>  <CNN_VS>  (50) 
1.8165031672

>  <CNNaffinity_variance>  (50) 
0.1939849257

$$$$
51
     RDKit          3D

 43 45  0  0  0  0  0  0  0  0999 V2000
   18.7702   72.1575    0.1129 P   0  0  2  0  0  0  0  0  0  0  0  0
   19.0922   73.6721   -0.3559 O   0  0  0  0  0  0  0  0  0  0  0  0
   18.6056   71.9736    1.5929 O   0  0  0  0  0  0  0  0  0  0  0  0
   19.9406   71.2799   -0.5783 O   0  0  0  0  0  0  0  0  0  0  0  0
   20.6636   70.3642    0.2258 C   0  0  0  0  0  0  0  0  0  0  0  0
   22.5584   71.7826    0.6401 O   0  0  0  0  0  0  0  0  0  0  0  0
   24.2512   69.4272   -0.1198 O   0  0  0  0  0  0  0  0  0  0  0  0
   24.3700   69.3903    2.6044 O   0  0  0  0  0  0  0  0  0  0  0  0
   23.0130   69.4574    0.5881 C   0  0  1  0  0  0  0  0  0  0  0  0
   23.2268   69.9606    2.0004 C   0  0  2  0  0  0  0  0  0  0  0  0
   22.1538   70.5611   -0.0161 C   0  0  1  0  0  0  0  0  0  0  0  0
   23.3656   71.4579    1.7838 C   0  0  2  0  0  0  0  0  0  0  0  0
   24.8169   68.7296    0.2481 H   0  0  0  0  0  0  0  0  0  0  0  0
   24.2327   68.4372    2.7210 H   0  0  0  0  0  0  0  0  0  0  0  0
   24.8779   71.9164    4.1248 O   0  0  0  0  0  0  0  0  0  0  0  0
   21.4975   74.3928    6.0436 O   0  0  0  0  0  0  0  0  0  0  0  0
   22.9054   72.2193    2.9106 N   0  0  0  0  0  0  0  0  0  0  0  0
   23.1936   73.1492    5.0782 N   0  0  0  0  0  0  0  0  0  0  0  0
   23.7428   72.3891    4.0377 C   0  0  0  0  0  0  0  0  0  0  0  0
   21.6367   72.7886    2.8908 C   0  0  0  0  0  0  0  0  0  0  0  0
   21.1273   73.5096    3.8917 C   0  0  0  0  0  0  0  0  0  0  0  0
   21.9376   73.7345    5.1062 C   0  0  0  0  0  0  0  0  0  0  0  0
   23.7588   73.2805    5.8739 H   0  0  0  0  0  0  0  0  0  0  0  0
   17.4654   71.7759   -0.7616 O   0  0  0  0  0  0  0  0  0  0  0  0
   17.2724   70.7314   -1.9801 P   0  0  2  0  0  0  0  0  0  0  0  0
   15.6837   70.7987   -2.2784 O   0  0  0  0  0  0  0  0  0  0  0  0
   17.7912   69.3516   -1.6958 O   0  0  0  0  0  0  0  0  0  0  0  0
   17.9566   71.4547   -3.2504 O   0  0  0  0  0  0  0  0  0  0  0  0
   17.9296   70.3553   -5.3497 O   0  0  0  0  0  0  0  0  0  0  0  0
   21.0326   72.9942   -6.0268 O   0  0  0  0  0  0  0  0  0  0  0  0
   18.4997   73.4245   -7.3104 O   0  0  0  0  0  0  0  0  0  0  0  0
   20.7421   71.7418   -3.4332 O   0  0  0  0  0  0  0  0  0  0  0  0
   19.7813   72.5666   -5.4821 C   0  0  1  0  0  0  0  0  0  0  0  0
   18.8482   72.2150   -6.6425 C   0  0  1  0  0  0  0  0  0  0  0  0
   20.0150   71.3475   -4.5918 C   0  0  2  0  0  0  0  0  0  0  0  0
   17.5869   71.4986   -6.1416 C   0  0  1  0  0  0  0  0  0  0  0  0
   18.6981   70.6808   -4.1899 C   0  0  1  0  0  0  0  0  0  0  0  0
   20.8913   73.7683   -6.5928 H   0  0  0  0  0  0  0  0  0  0  0  0
   19.3050   73.8672   -7.6212 H   0  0  0  0  0  0  0  0  0  0  0  0
   21.5737   72.1621   -3.7011 H   0  0  0  0  0  0  0  0  0  0  0  0
   16.0204   72.1026   -7.8417 O   0  0  0  0  0  0  0  0  0  0  0  0
   16.7174   70.9990   -7.2934 C   0  0  0  0  0  0  0  0  0  0  0  0
   15.4631   71.7997   -8.5761 H   0  0  0  0  0  0  0  0  0  0  0  0
 25 28  1  0
 25 24  1  0
 25 26  1  6
 25 27  2  0
  1  4  1  0
  1 24  1  0
  1  2  1  1
  1  3  2  0
  6 11  1  0
  6 12  1  0
 29 36  1  0
 29 37  1  0
  9  7  1  6
  7 13  1  0
 10  8  1  6
  8 14  1  0
 37 28  1  1
  4  5  1  0
 33 30  1  6
 30 38  1  0
 34 31  1  1
 31 39  1  0
 35 32  1  1
 32 40  1  0
 41 42  1  0
 41 43  1  0
 15 19  2  0
 16 22  2  0
 12 17  1  1
 17 19  1  0
 17 20  1  0
 18 19  1  0
 18 22  1  0
 18 23  1  0
  9 10  1  0
  9 11  1  0
 10 12  1  0
 11  5  1  1
 33 34  1  0
 33 35  1  0
 34 36  1  0
 35 37  1  0
 36 42  1  6
 20 21  2  0
 21 22  1  0
M  CHG  2   2  -1  26  -1
M  END
>  <COMPND>  (51) 
    8629 

>  <AUTHOR>  (51) 
    GENERATED BY OPEN BABEL 3.1.1

>  <MASTER>  (51) 
        0    0    0    0    0    0    0    0   58    0   58    0

>  <minimizedAffinity>  (51) 
-7.07425

>  <CNNscore>  (51) 
0.3881406784

>  <CNNaffinity>  (51) 
3.8146071434

>  <CNN_VS>  (51) 
1.4806041718

>  <CNNaffinity_variance>  (51) 
0.5450599790

$$$$
52
     RDKit          3D

 43 45  0  0  0  0  0  0  0  0999 V2000
   21.1612   70.5402    0.1025 P   0  0  2  0  0  0  0  0  0  0  0  0
   21.0770   69.0739    0.7810 O   0  0  0  0  0  0  0  0  0  0  0  0
   22.5109   71.1925    0.1682 O   0  0  0  0  0  0  0  0  0  0  0  0
   19.9505   71.3593    0.7963 O   0  0  0  0  0  0  0  0  0  0  0  0
   19.9414   72.7722    0.6892 C   0  0  0  0  0  0  0  0  0  0  0  0
   19.7848   72.8083    3.0867 O   0  0  0  0  0  0  0  0  0  0  0  0
   18.2361   75.3550    2.7603 O   0  0  0  0  0  0  0  0  0  0  0  0
   20.7167   76.2523    3.4515 O   0  0  0  0  0  0  0  0  0  0  0  0
   19.3415   74.8677    2.0014 C   0  0  1  0  0  0  0  0  0  0  0  0
   20.6247   75.0050    2.7939 C   0  0  2  0  0  0  0  0  0  0  0  0
   19.2001   73.3552    1.8845 C   0  0  1  0  0  0  0  0  0  0  0  0
   20.5229   73.8393    3.7629 C   0  0  2  0  0  0  0  0  0  0  0  0
   18.3043   76.3191    2.8482 H   0  0  0  0  0  0  0  0  0  0  0  0
   20.7794   76.9614    2.7928 H   0  0  0  0  0  0  0  0  0  0  0  0
   22.0983   74.8559    5.8753 O   0  0  0  0  0  0  0  0  0  0  0  0
   25.4441   71.7816    5.1033 O   0  0  0  0  0  0  0  0  0  0  0  0
   21.8096   73.3233    4.1361 N   0  0  0  0  0  0  0  0  0  0  0  0
   23.7629   73.3242    5.4893 N   0  0  0  0  0  0  0  0  0  0  0  0
   22.5194   73.9062    5.2116 C   0  0  0  0  0  0  0  0  0  0  0  0
   22.3550   72.2507    3.4388 C   0  0  0  0  0  0  0  0  0  0  0  0
   23.5426   71.7082    3.7153 C   0  0  0  0  0  0  0  0  0  0  0  0
   24.3483   72.2584    4.8244 C   0  0  0  0  0  0  0  0  0  0  0  0
   24.2755   73.7141    6.2343 H   0  0  0  0  0  0  0  0  0  0  0  0
   20.6121   70.2797   -1.3954 O   0  0  0  0  0  0  0  0  0  0  0  0
   20.8310   71.1091   -2.7654 P   0  0  2  0  0  0  0  0  0  0  0  0
   22.1181   70.3908   -3.4324 O   0  0  0  0  0  0  0  0  0  0  0  0
   20.9800   72.5903   -2.5710 O   0  0  0  0  0  0  0  0  0  0  0  0
   19.5915   70.6793   -3.7056 O   0  0  0  0  0  0  0  0  0  0  0  0
   17.7626   72.0485   -4.3356 O   0  0  0  0  0  0  0  0  0  0  0  0
   15.8692   68.3789   -4.3323 O   0  0  0  0  0  0  0  0  0  0  0  0
   16.4470   69.6740   -6.8296 O   0  0  0  0  0  0  0  0  0  0  0  0
   17.8454   68.9859   -2.3061 O   0  0  0  0  0  0  0  0  0  0  0  0
   16.9615   69.2813   -4.5271 C   0  0  1  0  0  0  0  0  0  0  0  0
   16.5428   70.3241   -5.5653 C   0  0  1  0  0  0  0  0  0  0  0  0
   17.2980   69.9522   -3.1966 C   0  0  2  0  0  0  0  0  0  0  0  0
   17.5541   71.4764   -5.6321 C   0  0  1  0  0  0  0  0  0  0  0  0
   18.2739   71.1156   -3.3817 C   0  0  1  0  0  0  0  0  0  0  0  0
   15.6508   67.9492   -5.1732 H   0  0  0  0  0  0  0  0  0  0  0  0
   15.8056   68.9483   -6.7737 H   0  0  0  0  0  0  0  0  0  0  0  0
   17.2181   68.2548   -2.1971 H   0  0  0  0  0  0  0  0  0  0  0  0
   16.7788   72.0559   -7.8166 O   0  0  0  0  0  0  0  0  0  0  0  0
   17.0774   72.6035   -6.5457 C   0  0  0  0  0  0  0  0  0  0  0  0
   16.4738   72.7618   -8.4085 H   0  0  0  0  0  0  0  0  0  0  0  0
 25 28  1  0
 25 24  1  0
 25 26  1  6
 25 27  2  0
  1  4  1  0
  1 24  1  0
  1  2  1  1
  1  3  2  0
  6 11  1  0
  6 12  1  0
 29 36  1  0
 29 37  1  0
  9  7  1  1
  7 13  1  0
 10  8  1  1
  8 14  1  0
 37 28  1  6
  4  5  1  0
 33 30  1  1
 30 38  1  0
 34 31  1  6
 31 39  1  0
 35 32  1  1
 32 40  1  0
 41 42  1  0
 41 43  1  0
 15 19  2  0
 16 22  2  0
 12 17  1  6
 17 19  1  0
 17 20  1  0
 18 19  1  0
 18 22  1  0
 18 23  1  0
  9 10  1  0
  9 11  1  0
 10 12  1  0
 11  5  1  6
 33 34  1  0
 33 35  1  0
 34 36  1  0
 35 37  1  0
 36 42  1  6
 20 21  2  0
 21 22  1  0
M  CHG  2   2  -1  26  -1
M  END
>  <COMPND>  (52) 
    8629 

>  <AUTHOR>  (52) 
    GENERATED BY OPEN BABEL 3.1.1

>  <MASTER>  (52) 
        0    0    0    0    0    0    0    0   58    0   58    0

>  <minimizedAffinity>  (52) 
-7.39084

>  <CNNscore>  (52) 
0.3844151497

>  <CNNaffinity>  (52) 
4.0737061501

>  <CNN_VS>  (52) 
1.5659943819

>  <CNNaffinity_variance>  (52) 
0.1559129357

$$$$
53
     RDKit          3D

 43 45  0  0  0  0  0  0  0  0999 V2000
   22.3878   71.2217   -3.1922 P   0  0  2  0  0  0  0  0  0  0  0  0
   21.0818   70.2689   -3.1302 O   0  0  0  0  0  0  0  0  0  0  0  0
   23.6952   70.4972   -3.3231 O   0  0  0  0  0  0  0  0  0  0  0  0
   22.2380   72.1714   -1.8908 O   0  0  0  0  0  0  0  0  0  0  0  0
   23.0564   71.9086   -0.7643 C   0  0  0  0  0  0  0  0  0  0  0  0
   23.2014   70.6066    1.2501 O   0  0  0  0  0  0  0  0  0  0  0  0
   20.4326   69.6507    0.6091 O   0  0  0  0  0  0  0  0  0  0  0  0
   19.9800   71.5485    2.5143 O   0  0  0  0  0  0  0  0  0  0  0  0
   21.0139   70.9367    0.4005 C   0  0  1  0  0  0  0  0  0  0  0  0
   21.1388   71.6769    1.7159 C   0  0  2  0  0  0  0  0  0  0  0  0
   22.4726   70.7345    0.0096 C   0  0  1  0  0  0  0  0  0  0  0  0
   22.3542   71.0107    2.3381 C   0  0  2  0  0  0  0  0  0  0  0  0
   19.5007   69.7540    0.8595 H   0  0  0  0  0  0  0  0  0  0  0  0
   19.2348   71.9881    2.0759 H   0  0  0  0  0  0  0  0  0  0  0  0
   23.7210   70.2078    4.6759 O   0  0  0  0  0  0  0  0  0  0  0  0
   25.1323   74.5077    5.5478 O   0  0  0  0  0  0  0  0  0  0  0  0
   23.0874   71.8995    3.1947 N   0  0  0  0  0  0  0  0  0  0  0  0
   24.4228   72.3495    5.1081 N   0  0  0  0  0  0  0  0  0  0  0  0
   23.7374   71.3953    4.3453 C   0  0  0  0  0  0  0  0  0  0  0  0
   23.1569   73.2547    2.8906 C   0  0  0  0  0  0  0  0  0  0  0  0
   23.8135   74.1518    3.6291 C   0  0  0  0  0  0  0  0  0  0  0  0
   24.5198   73.7073    4.8479 C   0  0  0  0  0  0  0  0  0  0  0  0
   24.8829   72.0213    5.9145 H   0  0  0  0  0  0  0  0  0  0  0  0
   22.0489   72.2240   -4.4143 O   0  0  0  0  0  0  0  0  0  0  0  0
   20.7540   73.1480   -4.7014 P   0  0  2  0  0  0  0  0  0  0  0  0
   21.3991   74.5753   -5.1065 O   0  0  0  0  0  0  0  0  0  0  0  0
   19.7778   73.2104   -3.5625 O   0  0  0  0  0  0  0  0  0  0  0  0
   20.1391   72.5731   -6.0786 O   0  0  0  0  0  0  0  0  0  0  0  0
   18.9662   70.5806   -5.5582 O   0  0  0  0  0  0  0  0  0  0  0  0
   18.5112   70.5613   -9.6623 O   0  0  0  0  0  0  0  0  0  0  0  0
   16.2593   71.1749   -7.9889 O   0  0  0  0  0  0  0  0  0  0  0  0
   21.0104   71.4337   -8.4906 O   0  0  0  0  0  0  0  0  0  0  0  0
   18.6210   71.1561   -8.3663 C   0  0  1  0  0  0  0  0  0  0  0  0
   17.4789   70.6263   -7.4971 C   0  0  1  0  0  0  0  0  0  0  0  0
   19.9737   70.7866   -7.7605 C   0  0  2  0  0  0  0  0  0  0  0  0
   17.6808   71.0074   -6.0243 C   0  0  1  0  0  0  0  0  0  0  0  0
   20.0520   71.1649   -6.2803 C   0  0  1  0  0  0  0  0  0  0  0  0
   17.6547   70.7925  -10.0527 H   0  0  0  0  0  0  0  0  0  0  0  0
   16.1441   70.9272   -8.9198 H   0  0  0  0  0  0  0  0  0  0  0  0
   20.9502   71.1859   -9.4259 H   0  0  0  0  0  0  0  0  0  0  0  0
   15.9508   69.3675   -5.8603 O   0  0  0  0  0  0  0  0  0  0  0  0
   16.6387   70.3569   -5.1172 C   0  0  0  0  0  0  0  0  0  0  0  0
   15.2845   68.9447   -5.2955 H   0  0  0  0  0  0  0  0  0  0  0  0
 25 28  1  0
 25 24  1  0
 25 26  1  6
 25 27  2  0
  1  4  1  0
  1 24  1  0
  1  2  1  1
  1  3  2  0
  6 11  1  0
  6 12  1  0
 29 36  1  0
 29 37  1  0
  9  7  1  1
  7 13  1  0
 10  8  1  1
  8 14  1  0
 37 28  1  6
  4  5  1  0
 33 30  1  6
 30 38  1  0
 34 31  1  6
 31 39  1  0
 35 32  1  6
 32 40  1  0
 41 42  1  0
 41 43  1  0
 15 19  2  0
 16 22  2  0
 12 17  1  1
 17 19  1  0
 17 20  1  0
 18 19  1  0
 18 22  1  0
 18 23  1  0
  9 10  1  0
  9 11  1  0
 10 12  1  0
 11  5  1  1
 33 34  1  0
 33 35  1  0
 34 36  1  0
 35 37  1  0
 36 42  1  1
 20 21  2  0
 21 22  1  0
M  CHG  2   2  -1  26  -1
M  END
>  <COMPND>  (53) 
    8629 

>  <AUTHOR>  (53) 
    GENERATED BY OPEN BABEL 3.1.1

>  <MASTER>  (53) 
        0    0    0    0    0    0    0    0   58    0   58    0

>  <minimizedAffinity>  (53) 
-8.88060

>  <CNNscore>  (53) 
0.3616267443

>  <CNNaffinity>  (53) 
3.8743965626

>  <CNN_VS>  (53) 
1.4010853767

>  <CNNaffinity_variance>  (53) 
0.2001503408

$$$$
54
     RDKit          3D

 43 45  0  0  0  0  0  0  0  0999 V2000
   22.6547   72.2222   -3.5411 P   0  0  2  0  0  0  0  0  0  0  0  0
   23.5200   70.8634   -3.3917 O   0  0  0  0  0  0  0  0  0  0  0  0
   23.2396   73.4242   -2.8595 O   0  0  0  0  0  0  0  0  0  0  0  0
   21.1713   71.7931   -3.0583 O   0  0  0  0  0  0  0  0  0  0  0  0
   21.0429   70.7235   -2.1377 C   0  0  0  0  0  0  0  0  0  0  0  0
   20.2389   70.4286    0.1073 O   0  0  0  0  0  0  0  0  0  0  0  0
   18.4380   72.7650   -0.4301 O   0  0  0  0  0  0  0  0  0  0  0  0
   20.4551   73.8903    1.0196 O   0  0  0  0  0  0  0  0  0  0  0  0
   19.7724   72.5326   -0.8782 C   0  0  1  0  0  0  0  0  0  0  0  0
   20.7519   72.7374    0.2585 C   0  0  2  0  0  0  0  0  0  0  0  0
   19.9198   71.0426   -1.1605 C   0  0  1  0  0  0  0  0  0  0  0  0
   20.5853   71.4533    1.0532 C   0  0  2  0  0  0  0  0  0  0  0  0
   18.3197   73.7101   -0.2438 H   0  0  0  0  0  0  0  0  0  0  0  0
   20.5758   74.6805    0.4703 H   0  0  0  0  0  0  0  0  0  0  0  0
   21.4491   72.5548    3.5065 O   0  0  0  0  0  0  0  0  0  0  0  0
   25.2233   69.9106    3.5749 O   0  0  0  0  0  0  0  0  0  0  0  0
   21.7898   71.0709    1.7348 N   0  0  0  0  0  0  0  0  0  0  0  0
   23.3276   71.2372    3.5386 N   0  0  0  0  0  0  0  0  0  0  0  0
   22.1330   71.6862    2.9612 C   0  0  0  0  0  0  0  0  0  0  0  0
   22.6161   70.0956    1.1872 C   0  0  0  0  0  0  0  0  0  0  0  0
   23.7526   69.6795    1.7497 C   0  0  0  0  0  0  0  0  0  0  0  0
   24.1835   70.2718    3.0326 C   0  0  0  0  0  0  0  0  0  0  0  0
   23.5871   71.6520    4.3933 H   0  0  0  0  0  0  0  0  0  0  0  0
   22.4867   72.3719   -5.1418 O   0  0  0  0  0  0  0  0  0  0  0  0
   21.7178   73.4830   -6.0292 P   0  0  2  0  0  0  0  0  0  0  0  0
   22.5724   73.5175   -7.4025 O   0  0  0  0  0  0  0  0  0  0  0  0
   21.5743   74.8170   -5.3555 O   0  0  0  0  0  0  0  0  0  0  0  0
   20.3204   72.7854   -6.4360 O   0  0  0  0  0  0  0  0  0  0  0  0
   19.1763   70.8881   -5.5947 O   0  0  0  0  0  0  0  0  0  0  0  0
   18.4717   70.3489   -9.6275 O   0  0  0  0  0  0  0  0  0  0  0  0
   16.3276   71.1946   -7.9141 O   0  0  0  0  0  0  0  0  0  0  0  0
   21.0399   71.3380   -8.7301 O   0  0  0  0  0  0  0  0  0  0  0  0
   18.6619   71.1034   -8.4275 C   0  0  1  0  0  0  0  0  0  0  0  0
   17.5736   70.7008   -7.4304 C   0  0  1  0  0  0  0  0  0  0  0  0
   20.0481   70.8003   -7.8619 C   0  0  2  0  0  0  0  0  0  0  0  0
   17.8660   71.2651   -6.0335 C   0  0  1  0  0  0  0  0  0  0  0  0
   20.2175   71.3640   -6.4499 C   0  0  1  0  0  0  0  0  0  0  0  0
   17.5935   70.5371   -9.9921 H   0  0  0  0  0  0  0  0  0  0  0  0
   16.1552   70.8312   -8.7970 H   0  0  0  0  0  0  0  0  0  0  0  0
   20.9220   70.9733   -9.6205 H   0  0  0  0  0  0  0  0  0  0  0  0
   15.7501   71.6002   -4.9754 O   0  0  0  0  0  0  0  0  0  0  0  0
   16.8795   70.7467   -4.9893 C   0  0  0  0  0  0  0  0  0  0  0  0
   15.1135   71.2823   -4.3155 H   0  0  0  0  0  0  0  0  0  0  0  0
 25 28  1  0
 25 24  1  0
 25 26  1  6
 25 27  2  0
  1  4  1  0
  1 24  1  0
  1  2  1  6
  1  3  2  0
  6 11  1  0
  6 12  1  0
 29 36  1  0
 29 37  1  0
  9  7  1  1
  7 13  1  0
 10  8  1  1
  8 14  1  0
 37 28  1  6
  4  5  1  0
 33 30  1  6
 30 38  1  0
 34 31  1  6
 31 39  1  0
 35 32  1  6
 32 40  1  0
 41 42  1  0
 41 43  1  0
 15 19  2  0
 16 22  2  0
 12 17  1  6
 17 19  1  0
 17 20  1  0
 18 19  1  0
 18 22  1  0
 18 23  1  0
  9 10  1  0
  9 11  1  0
 10 12  1  0
 11  5  1  6
 33 34  1  0
 33 35  1  0
 34 36  1  0
 35 37  1  0
 36 42  1  1
 20 21  2  0
 21 22  1  0
M  CHG  2   2  -1  26  -1
M  END
>  <COMPND>  (54) 
    8629 

>  <AUTHOR>  (54) 
    GENERATED BY OPEN BABEL 3.1.1

>  <MASTER>  (54) 
        0    0    0    0    0    0    0    0   58    0   58    0

>  <minimizedAffinity>  (54) 
-7.66881

>  <CNNscore>  (54) 
0.3013553023

>  <CNNaffinity>  (54) 
3.8486754894

>  <CNN_VS>  (54) 
1.1598187685

>  <CNNaffinity_variance>  (54) 
0.2392578125

$$$$
55
     RDKit          3D

 43 45  0  0  0  0  0  0  0  0999 V2000
   18.5545   71.2526   -1.6805 P   0  0  2  0  0  0  0  0  0  0  0  0
   17.2609   72.1929   -1.9249 O   0  0  0  0  0  0  0  0  0  0  0  0
   18.4851   69.8993   -2.3248 O   0  0  0  0  0  0  0  0  0  0  0  0
   18.7397   71.2570   -0.0732 O   0  0  0  0  0  0  0  0  0  0  0  0
   18.9963   72.4909    0.5745 C   0  0  0  0  0  0  0  0  0  0  0  0
   20.4468   71.0299    1.8136 O   0  0  0  0  0  0  0  0  0  0  0  0
   20.6690   73.2530    3.8133 O   0  0  0  0  0  0  0  0  0  0  0  0
   22.9956   73.4816    2.4094 O   0  0  0  0  0  0  0  0  0  0  0  0
   20.5695   73.3247    2.3919 C   0  0  1  0  0  0  0  0  0  0  0  0
   21.8799   72.9164    1.7518 C   0  0  2  0  0  0  0  0  0  0  0  0
   19.6313   72.2163    1.9308 C   0  0  1  0  0  0  0  0  0  0  0  0
   21.8331   71.4030    1.8758 C   0  0  2  0  0  0  0  0  0  0  0  0
   21.2629   73.9517    4.1313 H   0  0  0  0  0  0  0  0  0  0  0  0
   22.9806   74.4454    2.3016 H   0  0  0  0  0  0  0  0  0  0  0  0
   23.6869   69.3060    2.2555 O   0  0  0  0  0  0  0  0  0  0  0  0
   24.4913   68.9524   -2.2688 O   0  0  0  0  0  0  0  0  0  0  0  0
   22.5413   70.7443    0.8147 N   0  0  0  0  0  0  0  0  0  0  0  0
   24.0858   69.1315    0.0024 N   0  0  0  0  0  0  0  0  0  0  0  0
   23.4513   69.7034    1.1126 C   0  0  0  0  0  0  0  0  0  0  0  0
   22.3303   71.1317   -0.5042 C   0  0  0  0  0  0  0  0  0  0  0  0
   22.9443   70.5771   -1.5514 C   0  0  0  0  0  0  0  0  0  0  0  0
   23.9105   69.4826   -1.3268 C   0  0  0  0  0  0  0  0  0  0  0  0
   24.7243   68.4046    0.1857 H   0  0  0  0  0  0  0  0  0  0  0  0
   19.7780   72.1781   -2.1898 O   0  0  0  0  0  0  0  0  0  0  0  0
   19.9991   72.9760   -3.5781 P   0  0  2  0  0  0  0  0  0  0  0  0
   21.4576   72.4739   -4.0664 O   0  0  0  0  0  0  0  0  0  0  0  0
   19.8651   74.4666   -3.4594 O   0  0  0  0  0  0  0  0  0  0  0  0
   18.9654   72.2917   -4.6116 O   0  0  0  0  0  0  0  0  0  0  0  0
   18.4723   70.0622   -5.2463 O   0  0  0  0  0  0  0  0  0  0  0  0
   18.5131   71.8183   -8.9833 O   0  0  0  0  0  0  0  0  0  0  0  0
   16.0127   71.0137   -7.8219 O   0  0  0  0  0  0  0  0  0  0  0  0
   20.4310   72.6444   -6.9786 O   0  0  0  0  0  0  0  0  0  0  0  0
   18.2725   71.7574   -7.5748 C   0  0  1  0  0  0  0  0  0  0  0  0
   17.2821   70.6227   -7.3061 C   0  0  1  0  0  0  0  0  0  0  0  0
   19.5940   71.4997   -6.8533 C   0  0  2  0  0  0  0  0  0  0  0  0
   17.1790   70.3212   -5.8049 C   0  0  1  0  0  0  0  0  0  0  0  0
   19.3753   71.1618   -5.3775 C   0  0  1  0  0  0  0  0  0  0  0  0
   17.6780   71.9822   -9.4472 H   0  0  0  0  0  0  0  0  0  0  0  0
   16.0917   71.2016   -8.7704 H   0  0  0  0  0  0  0  0  0  0  0  0
   20.5620   72.8478   -7.9174 H   0  0  0  0  0  0  0  0  0  0  0  0
   16.1680   68.9555   -4.1251 O   0  0  0  0  0  0  0  0  0  0  0  0
   16.3182   69.0910   -5.5263 C   0  0  0  0  0  0  0  0  0  0  0  0
   15.6220   68.1766   -3.9329 H   0  0  0  0  0  0  0  0  0  0  0  0
 25 28  1  0
 25 24  1  0
 25 26  1  6
 25 27  2  0
  1  4  1  0
  1 24  1  0
  1  2  1  1
  1  3  2  0
  6 11  1  0
  6 12  1  0
 29 36  1  0
 29 37  1  0
  9  7  1  1
  7 13  1  0
 10  8  1  1
  8 14  1  0
 37 28  1  1
  4  5  1  0
 33 30  1  6
 30 38  1  0
 34 31  1  1
 31 39  1  0
 35 32  1  1
 32 40  1  0
 41 42  1  0
 41 43  1  0
 15 19  2  0
 16 22  2  0
 12 17  1  6
 17 19  1  0
 17 20  1  0
 18 19  1  0
 18 22  1  0
 18 23  1  0
  9 10  1  0
  9 11  1  0
 10 12  1  0
 11  5  1  6
 33 34  1  0
 33 35  1  0
 34 36  1  0
 35 37  1  0
 36 42  1  6
 20 21  2  0
 21 22  1  0
M  CHG  2   2  -1  26  -1
M  END
>  <COMPND>  (55) 
    8629 

>  <AUTHOR>  (55) 
    GENERATED BY OPEN BABEL 3.1.1

>  <MASTER>  (55) 
        0    0    0    0    0    0    0    0   58    0   58    0

>  <minimizedAffinity>  (55) 
-7.47107

>  <CNNscore>  (55) 
0.2958603501

>  <CNNaffinity>  (55) 
4.0226626396

>  <CNN_VS>  (55) 
1.1901463270

>  <CNNaffinity_variance>  (55) 
0.2783419490

$$$$
56
     RDKit          3D

 43 45  0  0  0  0  0  0  0  0999 V2000
   22.3768   70.9722   -2.5843 P   0  0  2  0  0  0  0  0  0  0  0  0
   21.6327   72.2293   -1.8891 O   0  0  0  0  0  0  0  0  0  0  0  0
   23.4530   71.3356   -3.5646 O   0  0  0  0  0  0  0  0  0  0  0  0
   21.1627   70.0792   -3.1729 O   0  0  0  0  0  0  0  0  0  0  0  0
   19.9246   70.7142   -3.4411 C   0  0  0  0  0  0  0  0  0  0  0  0
   18.2133   70.6093   -5.1246 O   0  0  0  0  0  0  0  0  0  0  0  0
   20.3266   71.4887   -7.0615 O   0  0  0  0  0  0  0  0  0  0  0  0
   18.9574   73.7987   -6.5865 O   0  0  0  0  0  0  0  0  0  0  0  0
   20.1377   71.8673   -5.6990 C   0  0  1  0  0  0  0  0  0  0  0  0
   18.9613   72.8128   -5.5742 C   0  0  2  0  0  0  0  0  0  0  0  0
   19.6450   70.6440   -4.9361 C   0  0  1  0  0  0  0  0  0  0  0  0
   17.7807   71.8623   -5.6793 C   0  0  2  0  0  0  0  0  0  0  0  0
   20.6416   72.2538   -7.5688 H   0  0  0  0  0  0  0  0  0  0  0  0
   19.7274   74.3782   -6.4766 H   0  0  0  0  0  0  0  0  0  0  0  0
   15.9139   73.7426   -6.6578 O   0  0  0  0  0  0  0  0  0  0  0  0
   13.4317   73.5710   -2.7783 O   0  0  0  0  0  0  0  0  0  0  0  0
   16.6368   72.3267   -4.9462 N   0  0  0  0  0  0  0  0  0  0  0  0
   14.6793   73.6555   -4.7254 N   0  0  0  0  0  0  0  0  0  0  0  0
   15.7616   73.2731   -5.5282 C   0  0  0  0  0  0  0  0  0  0  0  0
   16.3921   71.8440   -3.6652 C   0  0  0  0  0  0  0  0  0  0  0  0
   15.3562   72.2198   -2.9122 C   0  0  0  0  0  0  0  0  0  0  0  0
   14.3941   73.2054   -3.4461 C   0  0  0  0  0  0  0  0  0  0  0  0
   14.0565   74.3142   -5.1099 H   0  0  0  0  0  0  0  0  0  0  0  0
   22.8849   70.1050   -1.3183 O   0  0  0  0  0  0  0  0  0  0  0  0
   22.2356   69.8824    0.1452 P   0  0  2  0  0  0  0  0  0  0  0  0
   23.1479   68.7073    0.7810 O   0  0  0  0  0  0  0  0  0  0  0  0
   20.7646   69.5828    0.1266 O   0  0  0  0  0  0  0  0  0  0  0  0
   22.6382   71.2060    0.9764 O   0  0  0  0  0  0  0  0  0  0  0  0
   22.4589   71.2462    3.3392 O   0  0  0  0  0  0  0  0  0  0  0  0
   22.3202   75.3060    2.5978 O   0  0  0  0  0  0  0  0  0  0  0  0
   24.6794   74.1577    3.7654 O   0  0  0  0  0  0  0  0  0  0  0  0
   20.9817   73.4650    0.8093 O   0  0  0  0  0  0  0  0  0  0  0  0
   22.7389   73.9556    2.3819 C   0  0  1  0  0  0  0  0  0  0  0  0
   23.4410   73.4628    3.6488 C   0  0  1  0  0  0  0  0  0  0  0  0
   21.5136   73.0958    2.0771 C   0  0  2  0  0  0  0  0  0  0  0  0
   23.6810   71.9480    3.5955 C   0  0  1  0  0  0  0  0  0  0  0  0
   21.8516   71.6040    2.0963 C   0  0  1  0  0  0  0  0  0  0  0  0
   23.0936   75.8573    2.7913 H   0  0  0  0  0  0  0  0  0  0  0  0
   24.5138   75.1130    3.7976 H   0  0  0  0  0  0  0  0  0  0  0  0
   20.7715   74.4114    0.8102 H   0  0  0  0  0  0  0  0  0  0  0  0
   25.5446   71.9216    5.0905 O   0  0  0  0  0  0  0  0  0  0  0  0
   24.2365   71.4103    4.9125 C   0  0  0  0  0  0  0  0  0  0  0  0
   25.9107   71.5879    5.9250 H   0  0  0  0  0  0  0  0  0  0  0  0
 25 28  1  0
 25 24  1  0
 25 26  1  1
 25 27  2  0
  1  4  1  0
  1 24  1  0
  1  2  1  1
  1  3  2  0
  6 11  1  0
  6 12  1  0
 29 36  1  0
 29 37  1  0
  9  7  1  6
  7 13  1  0
 10  8  1  6
  8 14  1  0
 37 28  1  6
  4  5  1  0
 33 30  1  1
 30 38  1  0
 34 31  1  6
 31 39  1  0
 35 32  1  6
 32 40  1  0
 41 42  1  0
 41 43  1  0
 15 19  2  0
 16 22  2  0
 12 17  1  1
 17 19  1  0
 17 20  1  0
 18 19  1  0
 18 22  1  0
 18 23  1  0
  9 10  1  0
  9 11  1  0
 10 12  1  0
 11  5  1  1
 33 34  1  0
 33 35  1  0
 34 36  1  0
 35 37  1  0
 36 42  1  1
 20 21  2  0
 21 22  1  0
M  CHG  2   2  -1  26  -1
M  END
>  <COMPND>  (56) 
    8629 

>  <AUTHOR>  (56) 
    GENERATED BY OPEN BABEL 3.1.1

>  <MASTER>  (56) 
        0    0    0    0    0    0    0    0   58    0   58    0

>  <minimizedAffinity>  (56) 
-7.08121

>  <CNNscore>  (56) 
0.2817007303

>  <CNNaffinity>  (56) 
3.9658615589

>  <CNN_VS>  (56) 
1.1171860695

>  <CNNaffinity_variance>  (56) 
0.0245491881

$$$$
57
     RDKit          3D

 43 45  0  0  0  0  0  0  0  0999 V2000
   22.6440   73.1665   -3.3823 P   0  0  2  0  0  0  0  0  0  0  0  0
   23.3788   71.7784   -3.7707 O   0  0  0  0  0  0  0  0  0  0  0  0
   23.5252   74.3805   -3.4140 O   0  0  0  0  0  0  0  0  0  0  0  0
   21.9376   72.8479   -1.9620 O   0  0  0  0  0  0  0  0  0  0  0  0
   22.7374   72.3415   -0.9076 C   0  0  0  0  0  0  0  0  0  0  0  0
   21.8889   70.0941   -0.8523 O   0  0  0  0  0  0  0  0  0  0  0  0
   21.5054   70.5107    2.0922 O   0  0  0  0  0  0  0  0  0  0  0  0
   23.8115   69.0586    1.9927 O   0  0  0  0  0  0  0  0  0  0  0  0
   22.5438   70.9921    1.2406 C   0  0  1  0  0  0  0  0  0  0  0  0
   23.4913   69.8673    0.8791 C   0  0  2  0  0  0  0  0  0  0  0  0
   21.9240   71.3321   -0.1091 C   0  0  1  0  0  0  0  0  0  0  0  0
   22.7008   69.1177   -0.1799 C   0  0  2  0  0  0  0  0  0  0  0  0
   21.8771   70.2872    2.9605 H   0  0  0  0  0  0  0  0  0  0  0  0
   24.3139   69.5805    2.6377 H   0  0  0  0  0  0  0  0  0  0  0  0
   22.9524   66.3189   -0.4656 O   0  0  0  0  0  0  0  0  0  0  0  0
   25.9861   66.7588   -3.9071 O   0  0  0  0  0  0  0  0  0  0  0  0
   23.5490   68.4736   -1.1427 N   0  0  0  0  0  0  0  0  0  0  0  0
   24.4626   66.5402   -2.1791 N   0  0  0  0  0  0  0  0  0  0  0  0
   23.6035   67.0615   -1.2032 C   0  0  0  0  0  0  0  0  0  0  0  0
   24.3150   69.2402   -2.0142 C   0  0  0  0  0  0  0  0  0  0  0  0
   25.1302   68.7277   -2.9383 C   0  0  0  0  0  0  0  0  0  0  0  0
   25.2452   67.2607   -3.0674 C   0  0  0  0  0  0  0  0  0  0  0  0
   24.5171   65.5588   -2.2394 H   0  0  0  0  0  0  0  0  0  0  0  0
   21.3945   73.2153   -4.4067 O   0  0  0  0  0  0  0  0  0  0  0  0
   21.3059   73.6831   -5.9515 P   0  0  2  0  0  0  0  0  0  0  0  0
   22.6124   73.0028   -6.6207 O   0  0  0  0  0  0  0  0  0  0  0  0
   21.2166   75.1698   -6.1401 O   0  0  0  0  0  0  0  0  0  0  0  0
   20.0598   72.8558   -6.5580 O   0  0  0  0  0  0  0  0  0  0  0  0
   19.0227   70.9311   -5.6434 O   0  0  0  0  0  0  0  0  0  0  0  0
   18.4989   70.1183   -9.6579 O   0  0  0  0  0  0  0  0  0  0  0  0
   16.2423   70.9020   -8.0636 O   0  0  0  0  0  0  0  0  0  0  0  0
   20.9586   71.3381   -8.7405 O   0  0  0  0  0  0  0  0  0  0  0  0
   18.5937   70.9503   -8.4985 C   0  0  1  0  0  0  0  0  0  0  0  0
   17.5021   70.5269   -7.5137 C   0  0  1  0  0  0  0  0  0  0  0  0
   19.9771   70.7798   -7.8736 C   0  0  2  0  0  0  0  0  0  0  0  0
   17.7053   71.1878   -6.1437 C   0  0  1  0  0  0  0  0  0  0  0  0
   20.0572   71.4321   -6.4922 C   0  0  1  0  0  0  0  0  0  0  0  0
   17.6230   70.2222  -10.0597 H   0  0  0  0  0  0  0  0  0  0  0  0
   16.1267   70.4784   -8.9287 H   0  0  0  0  0  0  0  0  0  0  0  0
   20.8978   70.9167   -9.6115 H   0  0  0  0  0  0  0  0  0  0  0  0
   15.9673   69.6132   -5.6865 O   0  0  0  0  0  0  0  0  0  0  0  0
   16.7217   70.6590   -5.1021 C   0  0  0  0  0  0  0  0  0  0  0  0
   15.3372   69.2667   -5.0349 H   0  0  0  0  0  0  0  0  0  0  0  0
 25 28  1  0
 25 24  1  0
 25 26  1  6
 25 27  2  0
  1  4  1  0
  1 24  1  0
  1  2  1  6
  1  3  2  0
  6 11  1  0
  6 12  1  0
 29 36  1  0
 29 37  1  0
  9  7  1  1
  7 13  1  0
 10  8  1  1
  8 14  1  0
 37 28  1  6
  4  5  1  0
 33 30  1  6
 30 38  1  0
 34 31  1  6
 31 39  1  0
 35 32  1  6
 32 40  1  0
 41 42  1  0
 41 43  1  0
 15 19  2  0
 16 22  2  0
 12 17  1  6
 17 19  1  0
 17 20  1  0
 18 19  1  0
 18 22  1  0
 18 23  1  0
  9 10  1  0
  9 11  1  0
 10 12  1  0
 11  5  1  6
 33 34  1  0
 33 35  1  0
 34 36  1  0
 35 37  1  0
 36 42  1  1
 20 21  2  0
 21 22  1  0
M  CHG  2   2  -1  26  -1
M  END
>  <COMPND>  (57) 
    8629 

>  <AUTHOR>  (57) 
    GENERATED BY OPEN BABEL 3.1.1

>  <MASTER>  (57) 
        0    0    0    0    0    0    0    0   58    0   58    0

>  <minimizedAffinity>  (57) 
-9.04075

>  <CNNscore>  (57) 
0.2814292014

>  <CNNaffinity>  (57) 
4.1506752968

>  <CNN_VS>  (57) 
1.1681212187

>  <CNNaffinity_variance>  (57) 
0.6023463011

$$$$
58
     RDKit          3D

 43 45  0  0  0  0  0  0  0  0999 V2000
   19.3515   74.9131   -1.3532 P   0  0  2  0  0  0  0  0  0  0  0  0
   19.5706   76.5098   -1.4945 O   0  0  0  0  0  0  0  0  0  0  0  0
   19.2440   74.4104    0.0564 O   0  0  0  0  0  0  0  0  0  0  0  0
   20.5486   74.2771   -2.2366 O   0  0  0  0  0  0  0  0  0  0  0  0
   21.6945   73.7824   -1.5659 C   0  0  0  0  0  0  0  0  0  0  0  0
   22.8811   71.7574   -1.0509 O   0  0  0  0  0  0  0  0  0  0  0  0
   20.7750   70.3390   -2.6456 O   0  0  0  0  0  0  0  0  0  0  0  0
   19.9816   69.8849   -0.0764 O   0  0  0  0  0  0  0  0  0  0  0  0
   20.6478   71.4744   -1.7913 C   0  0  1  0  0  0  0  0  0  0  0  0
   20.7332   71.0522   -0.3394 C   0  0  2  0  0  0  0  0  0  0  0  0
   21.9027   72.3238   -1.9499 C   0  0  1  0  0  0  0  0  0  0  0  0
   22.2267   70.8385   -0.1608 C   0  0  2  0  0  0  0  0  0  0  0  0
   19.9850   69.7814   -2.5619 H   0  0  0  0  0  0  0  0  0  0  0  0
   19.0384   70.0720   -0.2036 H   0  0  0  0  0  0  0  0  0  0  0  0
   23.5572   68.9648    1.4816 O   0  0  0  0  0  0  0  0  0  0  0  0
   23.8439   71.9564    4.9758 O   0  0  0  0  0  0  0  0  0  0  0  0
   22.6608   71.1012    1.1823 N   0  0  0  0  0  0  0  0  0  0  0  0
   23.6990   70.4560    3.2200 N   0  0  0  0  0  0  0  0  0  0  0  0
   23.3193   70.0914    1.9220 C   0  0  0  0  0  0  0  0  0  0  0  0
   22.4328   72.3488    1.7527 C   0  0  0  0  0  0  0  0  0  0  0  0
   22.8001   72.6802    2.9923 C   0  0  0  0  0  0  0  0  0  0  0  0
   23.4937   71.6823    3.8321 C   0  0  0  0  0  0  0  0  0  0  0  0
   24.1590   69.7684    3.7542 H   0  0  0  0  0  0  0  0  0  0  0  0
   18.0443   74.6435   -2.2651 O   0  0  0  0  0  0  0  0  0  0  0  0
   16.9475   73.4568   -2.2237 P   0  0  2  0  0  0  0  0  0  0  0  0
   15.5997   74.2138   -1.7462 O   0  0  0  0  0  0  0  0  0  0  0  0
   17.3379   72.2877   -1.3667 O   0  0  0  0  0  0  0  0  0  0  0  0
   16.6825   73.0913   -3.7733 O   0  0  0  0  0  0  0  0  0  0  0  0
   18.1695   71.2754   -4.1017 O   0  0  0  0  0  0  0  0  0  0  0  0
   16.2566   71.2317   -7.7609 O   0  0  0  0  0  0  0  0  0  0  0  0
   15.6983   69.1670   -5.8443 O   0  0  0  0  0  0  0  0  0  0  0  0
   16.8886   73.7556   -6.4920 O   0  0  0  0  0  0  0  0  0  0  0  0
   16.3577   71.4108   -6.3456 C   0  0  1  0  0  0  0  0  0  0  0  0
   16.7854   70.0802   -5.7232 C   0  0  1  0  0  0  0  0  0  0  0  0
   17.3901   72.4979   -6.0525 C   0  0  2  0  0  0  0  0  0  0  0  0
   17.1727   70.2573   -4.2488 C   0  0  1  0  0  0  0  0  0  0  0  0
   17.7407   72.5574   -4.5647 C   0  0  1  0  0  0  0  0  0  0  0  0
   15.6023   70.5431   -7.9538 H   0  0  0  0  0  0  0  0  0  0  0  0
   15.4634   69.0644   -6.7800 H   0  0  0  0  0  0  0  0  0  0  0  0
   16.6707   73.7049   -7.4353 H   0  0  0  0  0  0  0  0  0  0  0  0
   17.9438   69.1749   -2.2632 O   0  0  0  0  0  0  0  0  0  0  0  0
   17.7516   68.9765   -3.6517 C   0  0  0  0  0  0  0  0  0  0  0  0
   18.3116   68.3677   -1.8697 H   0  0  0  0  0  0  0  0  0  0  0  0
 25 28  1  0
 25 24  1  0
 25 26  1  1
 25 27  2  0
  1  4  1  0
  1 24  1  0
  1  2  1  1
  1  3  2  0
  6 11  1  0
  6 12  1  0
 29 36  1  0
 29 37  1  0
  9  7  1  6
  7 13  1  0
 10  8  1  6
  8 14  1  0
 37 28  1  1
  4  5  1  0
 33 30  1  6
 30 38  1  0
 34 31  1  1
 31 39  1  0
 35 32  1  1
 32 40  1  0
 41 42  1  0
 41 43  1  0
 15 19  2  0
 16 22  2  0
 12 17  1  1
 17 19  1  0
 17 20  1  0
 18 19  1  0
 18 22  1  0
 18 23  1  0
  9 10  1  0
  9 11  1  0
 10 12  1  0
 11  5  1  1
 33 34  1  0
 33 35  1  0
 34 36  1  0
 35 37  1  0
 36 42  1  6
 20 21  2  0
 21 22  1  0
M  CHG  2   2  -1  26  -1
M  END
>  <COMPND>  (58) 
    8629 

>  <AUTHOR>  (58) 
    GENERATED BY OPEN BABEL 3.1.1

>  <MASTER>  (58) 
        0    0    0    0    0    0    0    0   58    0   58    0

>  <minimizedAffinity>  (58) 
-7.00287

>  <CNNscore>  (58) 
0.2694833875

>  <CNNaffinity>  (58) 
3.9085929394

>  <CNN_VS>  (58) 
1.0533008575

>  <CNNaffinity_variance>  (58) 
0.2594358027

$$$$
59
     RDKit          3D

 43 45  0  0  0  0  0  0  0  0999 V2000
   18.8152   72.3792   -0.5746 P   0  0  2  0  0  0  0  0  0  0  0  0
   19.1698   73.9076   -0.9691 O   0  0  0  0  0  0  0  0  0  0  0  0
   18.4518   72.1643    0.8652 O   0  0  0  0  0  0  0  0  0  0  0  0
   20.0862   71.5345   -1.1121 O   0  0  0  0  0  0  0  0  0  0  0  0
   20.6429   70.5408   -0.2693 C   0  0  0  0  0  0  0  0  0  0  0  0
   22.6055   71.7588    0.3929 O   0  0  0  0  0  0  0  0  0  0  0  0
   24.1503   69.2899   -0.3206 O   0  0  0  0  0  0  0  0  0  0  0  0
   23.9957   69.1296    2.3973 O   0  0  0  0  0  0  0  0  0  0  0  0
   22.8557   69.4056    0.2676 C   0  0  1  0  0  0  0  0  0  0  0  0
   22.9727   69.8280    1.7173 C   0  0  2  0  0  0  0  0  0  0  0  0
   22.1613   70.6083   -0.3591 C   0  0  1  0  0  0  0  0  0  0  0  0
   23.2639   71.3137    1.5901 C   0  0  2  0  0  0  0  0  0  0  0  0
   24.6129   68.5282    0.0637 H   0  0  0  0  0  0  0  0  0  0  0  0
   23.7640   68.1894    2.4525 H   0  0  0  0  0  0  0  0  0  0  0  0
   24.5847   71.5535    4.0752 O   0  0  0  0  0  0  0  0  0  0  0  0
   21.2504   74.2296    5.7963 O   0  0  0  0  0  0  0  0  0  0  0  0
   22.7638   72.0673    2.7051 N   0  0  0  0  0  0  0  0  0  0  0  0
   22.9235   72.8860    4.9301 N   0  0  0  0  0  0  0  0  0  0  0  0
   23.5041   72.1229    3.9090 C   0  0  0  0  0  0  0  0  0  0  0  0
   21.5521   72.7413    2.5983 C   0  0  0  0  0  0  0  0  0  0  0  0
   21.0116   73.4637    3.5818 C   0  0  0  0  0  0  0  0  0  0  0  0
   21.7213   73.5731    4.8727 C   0  0  0  0  0  0  0  0  0  0  0  0
   23.4213   72.9387    5.7782 H   0  0  0  0  0  0  0  0  0  0  0  0
   17.6508   71.9929   -1.6272 O   0  0  0  0  0  0  0  0  0  0  0  0
   17.3395   70.6109   -2.4058 P   0  0  2  0  0  0  0  0  0  0  0  0
   15.7616   70.7237   -2.7453 O   0  0  0  0  0  0  0  0  0  0  0  0
   17.7221   69.3755   -1.6436 O   0  0  0  0  0  0  0  0  0  0  0  0
   18.0760   70.7713   -3.8330 O   0  0  0  0  0  0  0  0  0  0  0  0
   19.1415   72.6353   -4.8364 O   0  0  0  0  0  0  0  0  0  0  0  0
   17.3579   71.0118   -8.1881 O   0  0  0  0  0  0  0  0  0  0  0  0
   20.2017   70.7964   -7.8503 O   0  0  0  0  0  0  0  0  0  0  0  0
   15.9547   70.9988   -5.6562 O   0  0  0  0  0  0  0  0  0  0  0  0
   18.0083   70.9823   -6.9147 C   0  0  1  0  0  0  0  0  0  0  0  0
   19.3777   71.6490   -7.0602 C   0  0  1  0  0  0  0  0  0  0  0  0
   17.1500   71.7330   -5.8983 C   0  0  2  0  0  0  0  0  0  0  0  0
   20.0224   71.8949   -5.6894 C   0  0  1  0  0  0  0  0  0  0  0  0
   17.9027   71.9680   -4.5874 C   0  0  1  0  0  0  0  0  0  0  0  0
   17.8974   70.5364   -8.8379 H   0  0  0  0  0  0  0  0  0  0  0  0
   19.7830   70.6487   -8.7129 H   0  0  0  0  0  0  0  0  0  0  0  0
   15.4873   70.8569   -6.4936 H   0  0  0  0  0  0  0  0  0  0  0  0
   21.4748   73.1086   -7.1477 O   0  0  0  0  0  0  0  0  0  0  0  0
   21.3154   72.6998   -5.8017 C   0  0  0  0  0  0  0  0  0  0  0  0
   22.2936   73.6222   -7.2342 H   0  0  0  0  0  0  0  0  0  0  0  0
 25 28  1  0
 25 24  1  0
 25 26  1  6
 25 27  2  0
  1  4  1  0
  1 24  1  0
  1  2  1  1
  1  3  2  0
  6 11  1  0
  6 12  1  0
 29 36  1  0
 29 37  1  0
  9  7  1  6
  7 13  1  0
 10  8  1  6
  8 14  1  0
 37 28  1  6
  4  5  1  0
 33 30  1  6
 30 38  1  0
 34 31  1  6
 31 39  1  0
 35 32  1  1
 32 40  1  0
 41 42  1  0
 41 43  1  0
 15 19  2  0
 16 22  2  0
 12 17  1  1
 17 19  1  0
 17 20  1  0
 18 19  1  0
 18 22  1  0
 18 23  1  0
  9 10  1  0
  9 11  1  0
 10 12  1  0
 11  5  1  1
 33 34  1  0
 33 35  1  0
 34 36  1  0
 35 37  1  0
 36 42  1  6
 20 21  2  0
 21 22  1  0
M  CHG  2   2  -1  26  -1
M  END
>  <COMPND>  (59) 
    8629 

>  <AUTHOR>  (59) 
    GENERATED BY OPEN BABEL 3.1.1

>  <MASTER>  (59) 
        0    0    0    0    0    0    0    0   58    0   58    0

>  <minimizedAffinity>  (59) 
-7.13295

>  <CNNscore>  (59) 
0.2536396980

>  <CNNaffinity>  (59) 
3.7168984413

>  <CNN_VS>  (59) 
0.9427530169

>  <CNNaffinity_variance>  (59) 
0.4555791914

$$$$
60
     RDKit          3D

 43 45  0  0  0  0  0  0  0  0999 V2000
   23.1882   72.7074   -3.6078 P   0  0  2  0  0  0  0  0  0  0  0  0
   23.5751   71.1428   -3.7482 O   0  0  0  0  0  0  0  0  0  0  0  0
   24.2720   73.6663   -4.0045 O   0  0  0  0  0  0  0  0  0  0  0  0
   22.6548   72.8406   -2.0861 O   0  0  0  0  0  0  0  0  0  0  0  0
   21.3692   73.3946   -1.8663 C   0  0  0  0  0  0  0  0  0  0  0  0
   21.0405   71.1166   -1.1761 O   0  0  0  0  0  0  0  0  0  0  0  0
   18.1125   71.7582   -1.1018 O   0  0  0  0  0  0  0  0  0  0  0  0
   18.8153   71.8831    1.5302 O   0  0  0  0  0  0  0  0  0  0  0  0
   19.2257   72.5831   -0.7618 C   0  0  1  0  0  0  0  0  0  0  0  0
   19.8128   72.1527    0.5663 C   0  0  2  0  0  0  0  0  0  0  0  0
   20.3589   72.2638   -1.7289 C   0  0  1  0  0  0  0  0  0  0  0  0
   20.5992   70.9127    0.1761 C   0  0  2  0  0  0  0  0  0  0  0  0
   17.3759   71.9445   -0.4978 H   0  0  0  0  0  0  0  0  0  0  0  0
   18.3433   72.7027    1.7452 H   0  0  0  0  0  0  0  0  0  0  0  0
   22.2472   68.6205    0.0871 O   0  0  0  0  0  0  0  0  0  0  0  0
   24.9710   70.2239    3.4414 O   0  0  0  0  0  0  0  0  0  0  0  0
   21.7460   70.7051    1.0146 N   0  0  0  0  0  0  0  0  0  0  0  0
   23.6022   69.4208    1.7572 N   0  0  0  0  0  0  0  0  0  0  0  0
   22.5059   69.5186    0.8909 C   0  0  0  0  0  0  0  0  0  0  0  0
   22.1071   71.6720    1.9467 C   0  0  0  0  0  0  0  0  0  0  0  0
   23.1548   71.5629    2.7663 C   0  0  0  0  0  0  0  0  0  0  0  0
   24.0010   70.3539    2.7012 C   0  0  0  0  0  0  0  0  0  0  0  0
   24.1460   68.6026    1.6893 H   0  0  0  0  0  0  0  0  0  0  0  0
   21.8324   72.8263   -4.4798 O   0  0  0  0  0  0  0  0  0  0  0  0
   21.5504   73.5137   -5.9154 P   0  0  2  0  0  0  0  0  0  0  0  0
   22.7317   72.9214   -6.8488 O   0  0  0  0  0  0  0  0  0  0  0  0
   21.4841   75.0130   -5.8773 O   0  0  0  0  0  0  0  0  0  0  0  0
   20.2077   72.7983   -6.4542 O   0  0  0  0  0  0  0  0  0  0  0  0
   19.0510   70.9168   -5.5946 O   0  0  0  0  0  0  0  0  0  0  0  0
   18.4339   70.2844   -9.6282 O   0  0  0  0  0  0  0  0  0  0  0  0
   16.2516   71.1619   -7.9804 O   0  0  0  0  0  0  0  0  0  0  0  0
   20.9798   71.3017   -8.6990 O   0  0  0  0  0  0  0  0  0  0  0  0
   18.5965   71.0664   -8.4419 C   0  0  1  0  0  0  0  0  0  0  0  0
   17.4883   70.6831   -7.4592 C   0  0  1  0  0  0  0  0  0  0  0  0
   19.9712   70.7806   -7.8402 C   0  0  2  0  0  0  0  0  0  0  0  0
   17.7493   71.2797   -6.0696 C   0  0  1  0  0  0  0  0  0  0  0  0
   20.1089   71.3765   -6.4380 C   0  0  1  0  0  0  0  0  0  0  0  0
   17.5632   70.4616  -10.0155 H   0  0  0  0  0  0  0  0  0  0  0  0
   16.0990   70.7781   -8.8582 H   0  0  0  0  0  0  0  0  0  0  0  0
   20.8819   70.9166   -9.5833 H   0  0  0  0  0  0  0  0  0  0  0  0
   17.2751   71.0097   -3.7434 O   0  0  0  0  0  0  0  0  0  0  0  0
   16.7423   70.7819   -5.0351 C   0  0  0  0  0  0  0  0  0  0  0  0
   16.6447   70.6980   -3.0747 H   0  0  0  0  0  0  0  0  0  0  0  0
 25 28  1  0
 25 24  1  0
 25 26  1  6
 25 27  2  0
  1  4  1  0
  1 24  1  0
  1  2  1  1
  1  3  2  0
  6 11  1  0
  6 12  1  0
 29 36  1  0
 29 37  1  0
  9  7  1  6
  7 13  1  0
 10  8  1  1
  8 14  1  0
 37 28  1  6
  4  5  1  0
 33 30  1  6
 30 38  1  0
 34 31  1  6
 31 39  1  0
 35 32  1  6
 32 40  1  0
 41 42  1  0
 41 43  1  0
 15 19  2  0
 16 22  2  0
 12 17  1  1
 17 19  1  0
 17 20  1  0
 18 19  1  0
 18 22  1  0
 18 23  1  0
  9 10  1  0
  9 11  1  0
 10 12  1  0
 11  5  1  1
 33 34  1  0
 33 35  1  0
 34 36  1  0
 35 37  1  0
 36 42  1  1
 20 21  2  0
 21 22  1  0
M  CHG  2   2  -1  26  -1
M  END
>  <COMPND>  (60) 
    8629 

>  <AUTHOR>  (60) 
    GENERATED BY OPEN BABEL 3.1.1

>  <MASTER>  (60) 
        0    0    0    0    0    0    0    0   58    0   58    0

>  <minimizedAffinity>  (60) 
-8.12912

>  <CNNscore>  (60) 
0.2513558269

>  <CNNaffinity>  (60) 
3.8811974525

>  <CNN_VS>  (60) 
0.9755616188

>  <CNNaffinity_variance>  (60) 
0.3217519224

$$$$
61
     RDKit          3D

 43 45  0  0  0  0  0  0  0  0999 V2000
   21.3542   70.4415   -0.4567 P   0  0  2  0  0  0  0  0  0  0  0  0
   22.9290   70.6304   -0.7758 O   0  0  0  0  0  0  0  0  0  0  0  0
   21.0342   69.3684    0.5421 O   0  0  0  0  0  0  0  0  0  0  0  0
   20.6803   70.2656   -1.9171 O   0  0  0  0  0  0  0  0  0  0  0  0
   20.2225   71.4231   -2.5943 C   0  0  0  0  0  0  0  0  0  0  0  0
   18.1943   71.9725   -3.7597 O   0  0  0  0  0  0  0  0  0  0  0  0
   16.7798   70.3306   -1.6875 O   0  0  0  0  0  0  0  0  0  0  0  0
   16.8994   68.6284   -3.8147 O   0  0  0  0  0  0  0  0  0  0  0  0
   18.0581   70.1220   -2.2856 C   0  0  1  0  0  0  0  0  0  0  0  0
   17.8986   69.6217   -3.7061 C   0  0  2  0  0  0  0  0  0  0  0  0
   18.7042   71.4852   -2.4992 C   0  0  1  0  0  0  0  0  0  0  0  0
   17.5392   70.8963   -4.4506 C   0  0  2  0  0  0  0  0  0  0  0  0
   16.3478   69.4739   -1.5411 H   0  0  0  0  0  0  0  0  0  0  0  0
   17.1746   67.8378   -3.3248 H   0  0  0  0  0  0  0  0  0  0  0  0
   16.0195   69.9011   -6.6135 O   0  0  0  0  0  0  0  0  0  0  0  0
   19.3538   70.8754   -9.6425 O   0  0  0  0  0  0  0  0  0  0  0  0
   17.9855   70.8780   -5.8151 N   0  0  0  0  0  0  0  0  0  0  0  0
   17.6809   70.3872   -8.1200 N   0  0  0  0  0  0  0  0  0  0  0  0
   17.1456   70.3555   -6.8260 C   0  0  0  0  0  0  0  0  0  0  0  0
   19.2433   71.3747   -6.1395 C   0  0  0  0  0  0  0  0  0  0  0  0
   19.7395   71.3966   -7.3782 C   0  0  0  0  0  0  0  0  0  0  0  0
   18.9257   70.8693   -8.4925 C   0  0  0  0  0  0  0  0  0  0  0  0
   17.1137   70.0280   -8.8405 H   0  0  0  0  0  0  0  0  0  0  0  0
   20.8912   71.9272   -0.0194 O   0  0  0  0  0  0  0  0  0  0  0  0
   21.7539   73.2536    0.3116 P   0  0  2  0  0  0  0  0  0  0  0  0
   20.6445   74.2859    0.8781 O   0  0  0  0  0  0  0  0  0  0  0  0
   22.5498   73.7756   -0.8493 O   0  0  0  0  0  0  0  0  0  0  0  0
   22.6367   72.8550    1.6026 O   0  0  0  0  0  0  0  0  0  0  0  0
   22.5581   70.8995    2.9391 O   0  0  0  0  0  0  0  0  0  0  0  0
   23.4313   73.6698    5.8741 O   0  0  0  0  0  0  0  0  0  0  0  0
   25.4605   71.8289    5.0131 O   0  0  0  0  0  0  0  0  0  0  0  0
   21.6051   74.3581    3.7361 O   0  0  0  0  0  0  0  0  0  0  0  0
   23.4843   73.0992    4.5637 C   0  0  1  0  0  0  0  0  0  0  0  0
   24.0826   71.6955    4.6758 C   0  0  1  0  0  0  0  0  0  0  0  0
   22.0705   73.0367    3.9889 C   0  0  2  0  0  0  0  0  0  0  0  0
   23.9270   70.9204    3.3605 C   0  0  1  0  0  0  0  0  0  0  0  0
   22.0179   72.2020    2.7080 C   0  0  1  0  0  0  0  0  0  0  0  0
   24.3259   73.7127    6.2445 H   0  0  0  0  0  0  0  0  0  0  0  0
   25.5449   72.3205    5.8452 H   0  0  0  0  0  0  0  0  0  0  0  0
   21.6430   74.8762    4.5546 H   0  0  0  0  0  0  0  0  0  0  0  0
   25.7862   69.4203    3.4092 O   0  0  0  0  0  0  0  0  0  0  0  0
   24.3739   69.4665    3.4971 C   0  0  0  0  0  0  0  0  0  0  0  0
   26.0850   68.5010    3.4948 H   0  0  0  0  0  0  0  0  0  0  0  0
 25 28  1  0
 25 24  1  0
 25 26  1  1
 25 27  2  0
  1  4  1  0
  1 24  1  0
  1  2  1  6
  1  3  2  0
  6 11  1  0
  6 12  1  0
 29 36  1  0
 29 37  1  0
  9  7  1  6
  7 13  1  0
 10  8  1  1
  8 14  1  0
 37 28  1  6
  4  5  1  0
 33 30  1  1
 30 38  1  0
 34 31  1  6
 31 39  1  0
 35 32  1  6
 32 40  1  0
 41 42  1  0
 41 43  1  0
 15 19  2  0
 16 22  2  0
 12 17  1  6
 17 19  1  0
 17 20  1  0
 18 19  1  0
 18 22  1  0
 18 23  1  0
  9 10  1  0
  9 11  1  0
 10 12  1  0
 11  5  1  6
 33 34  1  0
 33 35  1  0
 34 36  1  0
 35 37  1  0
 36 42  1  1
 20 21  2  0
 21 22  1  0
M  CHG  2   2  -1  26  -1
M  END
>  <COMPND>  (61) 
    8629 

>  <AUTHOR>  (61) 
    GENERATED BY OPEN BABEL 3.1.1

>  <MASTER>  (61) 
        0    0    0    0    0    0    0    0   58    0   58    0

>  <minimizedAffinity>  (61) 
-8.19458

>  <CNNscore>  (61) 
0.8572208285

>  <CNNaffinity>  (61) 
4.8103513718

>  <CNN_VS>  (61) 
4.1235332489

>  <CNNaffinity_variance>  (61) 
0.0850695968

$$$$
62
     RDKit          3D

 43 45  0  0  0  0  0  0  0  0999 V2000
   22.0638   71.1873   -2.1907 P   0  0  2  0  0  0  0  0  0  0  0  0
   22.8638   72.5634   -1.9012 O   0  0  0  0  0  0  0  0  0  0  0  0
   22.2022   70.6555   -3.5869 O   0  0  0  0  0  0  0  0  0  0  0  0
   20.5533   71.5071   -1.7071 O   0  0  0  0  0  0  0  0  0  0  0  0
   19.7142   72.2612   -2.5646 C   0  0  0  0  0  0  0  0  0  0  0  0
   17.6483   71.8971   -3.7364 O   0  0  0  0  0  0  0  0  0  0  0  0
   16.9533   69.9842   -1.5344 O   0  0  0  0  0  0  0  0  0  0  0  0
   17.7541   68.3176   -3.5389 O   0  0  0  0  0  0  0  0  0  0  0  0
   18.2205   70.2469   -2.1348 C   0  0  1  0  0  0  0  0  0  0  0  0
   18.2877   69.6259   -3.5144 C   0  0  2  0  0  0  0  0  0  0  0  0
   18.2897   71.7355   -2.4523 C   0  0  1  0  0  0  0  0  0  0  0  0
   17.4721   70.6055   -4.3410 C   0  0  2  0  0  0  0  0  0  0  0  0
   16.8858   69.0395   -1.3223 H   0  0  0  0  0  0  0  0  0  0  0  0
   18.3077   67.7323   -2.9989 H   0  0  0  0  0  0  0  0  0  0  0  0
   15.8799   69.8858   -6.5602 O   0  0  0  0  0  0  0  0  0  0  0  0
   19.2559   70.8785   -9.5364 O   0  0  0  0  0  0  0  0  0  0  0  0
   17.9096   70.6665   -5.7071 N   0  0  0  0  0  0  0  0  0  0  0  0
   17.5621   70.3809   -8.0403 N   0  0  0  0  0  0  0  0  0  0  0  0
   17.0323   70.2815   -6.7475 C   0  0  0  0  0  0  0  0  0  0  0  0
   19.1956   71.1046   -6.0039 C   0  0  0  0  0  0  0  0  0  0  0  0
   19.6861   71.1923   -7.2421 C   0  0  0  0  0  0  0  0  0  0  0  0
   18.8340   70.8091   -8.3862 C   0  0  0  0  0  0  0  0  0  0  0  0
   16.9691   70.1176   -8.7811 H   0  0  0  0  0  0  0  0  0  0  0  0
   22.6130   70.1979   -1.0364 O   0  0  0  0  0  0  0  0  0  0  0  0
   22.1210   69.9664    0.4859 P   0  0  2  0  0  0  0  0  0  0  0  0
   23.3485   69.1501    1.1525 O   0  0  0  0  0  0  0  0  0  0  0  0
   20.7879   69.2864    0.6050 O   0  0  0  0  0  0  0  0  0  0  0  0
   22.1885   71.4295    1.1640 O   0  0  0  0  0  0  0  0  0  0  0  0
   22.5255   71.1722    3.4957 O   0  0  0  0  0  0  0  0  0  0  0  0
   22.0395   75.2701    3.3475 O   0  0  0  0  0  0  0  0  0  0  0  0
   24.6471   74.1680    3.8311 O   0  0  0  0  0  0  0  0  0  0  0  0
   20.4317   73.5631    1.6503 O   0  0  0  0  0  0  0  0  0  0  0  0
   22.4638   73.9902    2.8707 C   0  0  1  0  0  0  0  0  0  0  0  0
   23.4467   73.4023    3.8851 C   0  0  1  0  0  0  0  0  0  0  0  0
   21.2431   73.0848    2.7177 C   0  0  2  0  0  0  0  0  0  0  0  0
   23.7399   71.9269    3.5813 C   0  0  1  0  0  0  0  0  0  0  0  0
   21.6464   71.6307    2.4666 C   0  0  1  0  0  0  0  0  0  0  0  0
   22.8098   75.8500    3.4464 H   0  0  0  0  0  0  0  0  0  0  0  0
   24.4480   75.0977    4.0243 H   0  0  0  0  0  0  0  0  0  0  0  0
   20.1828   74.4843    1.8212 H   0  0  0  0  0  0  0  0  0  0  0  0
   24.6958   72.1779    5.7566 O   0  0  0  0  0  0  0  0  0  0  0  0
   24.5928   71.2776    4.6690 C   0  0  0  0  0  0  0  0  0  0  0  0
   25.2358   71.7779    6.4567 H   0  0  0  0  0  0  0  0  0  0  0  0
 25 28  1  0
 25 24  1  0
 25 26  1  1
 25 27  2  0
  1  4  1  0
  1 24  1  0
  1  2  1  6
  1  3  2  0
  6 11  1  0
  6 12  1  0
 29 36  1  0
 29 37  1  0
  9  7  1  6
  7 13  1  0
 10  8  1  1
  8 14  1  0
 37 28  1  6
  4  5  1  0
 33 30  1  1
 30 38  1  0
 34 31  1  6
 31 39  1  0
 35 32  1  6
 32 40  1  0
 41 42  1  0
 41 43  1  0
 15 19  2  0
 16 22  2  0
 12 17  1  6
 17 19  1  0
 17 20  1  0
 18 19  1  0
 18 22  1  0
 18 23  1  0
  9 10  1  0
  9 11  1  0
 10 12  1  0
 11  5  1  6
 33 34  1  0
 33 35  1  0
 34 36  1  0
 35 37  1  0
 36 42  1  1
 20 21  2  0
 21 22  1  0
M  CHG  2   2  -1  26  -1
M  END
>  <COMPND>  (62) 
    8629 

>  <AUTHOR>  (62) 
    GENERATED BY OPEN BABEL 3.1.1

>  <MASTER>  (62) 
        0    0    0    0    0    0    0    0   58    0   58    0

>  <minimizedAffinity>  (62) 
-8.34127

>  <CNNscore>  (62) 
0.7876467109

>  <CNNaffinity>  (62) 
4.7026019096

>  <CNN_VS>  (62) 
3.7039890289

>  <CNNaffinity_variance>  (62) 
0.0195583291

$$$$
63
     RDKit          3D

 43 45  0  0  0  0  0  0  0  0999 V2000
   21.8917   71.0912   -2.0637 P   0  0  2  0  0  0  0  0  0  0  0  0
   22.7969   72.2314   -2.7694 O   0  0  0  0  0  0  0  0  0  0  0  0
   22.5699   69.7650   -1.8833 O   0  0  0  0  0  0  0  0  0  0  0  0
   20.5346   71.0723   -2.9446 O   0  0  0  0  0  0  0  0  0  0  0  0
   19.7684   72.2611   -3.0316 C   0  0  0  0  0  0  0  0  0  0  0  0
   17.7331   72.0825   -4.2962 O   0  0  0  0  0  0  0  0  0  0  0  0
   16.7202   70.3515   -2.0672 O   0  0  0  0  0  0  0  0  0  0  0  0
   17.4214   68.5248   -3.9667 O   0  0  0  0  0  0  0  0  0  0  0  0
   18.0364   70.4459   -2.6094 C   0  0  1  0  0  0  0  0  0  0  0  0
   18.0985   69.7650   -3.9607 C   0  0  2  0  0  0  0  0  0  0  0  0
   18.2897   71.9030   -2.9755 C   0  0  1  0  0  0  0  0  0  0  0  0
   17.4402   70.7949   -4.8630 C   0  0  2  0  0  0  0  0  0  0  0  0
   16.5356   69.4298   -1.8255 H   0  0  0  0  0  0  0  0  0  0  0  0
   17.8783   67.9039   -3.3781 H   0  0  0  0  0  0  0  0  0  0  0  0
   15.8835   70.1724   -7.1362 O   0  0  0  0  0  0  0  0  0  0  0  0
   19.4907   70.6525   -9.9645 O   0  0  0  0  0  0  0  0  0  0  0  0
   17.9469   70.7503   -6.2057 N   0  0  0  0  0  0  0  0  0  0  0  0
   17.6808   70.4121   -8.5426 N   0  0  0  0  0  0  0  0  0  0  0  0
   17.0817   70.4262   -7.2766 C   0  0  0  0  0  0  0  0  0  0  0  0
   19.2877   71.0265   -6.4499 C   0  0  0  0  0  0  0  0  0  0  0  0
   19.8439   71.0076   -7.6630 C   0  0  0  0  0  0  0  0  0  0  0  0
   19.0089   70.6782   -8.8362 C   0  0  0  0  0  0  0  0  0  0  0  0
   17.0975   70.1885   -9.3038 H   0  0  0  0  0  0  0  0  0  0  0  0
   21.4223   71.7993   -0.6885 O   0  0  0  0  0  0  0  0  0  0  0  0
   20.5620   71.2328    0.5573 P   0  0  2  0  0  0  0  0  0  0  0  0
   20.3961   69.6615    0.2096 O   0  0  0  0  0  0  0  0  0  0  0  0
   19.2669   71.9557    0.7902 O   0  0  0  0  0  0  0  0  0  0  0  0
   21.5819   71.2681    1.8077 O   0  0  0  0  0  0  0  0  0  0  0  0
   23.4687   72.6051    2.3264 O   0  0  0  0  0  0  0  0  0  0  0  0
   24.9056   68.9327    3.5510 O   0  0  0  0  0  0  0  0  0  0  0  0
   24.1852   70.9002    5.5152 O   0  0  0  0  0  0  0  0  0  0  0  0
   23.2742   69.1231    1.1673 O   0  0  0  0  0  0  0  0  0  0  0  0
   23.9110   69.9390    3.3422 C   0  0  1  0  0  0  0  0  0  0  0  0
   24.3201   71.1876    4.1262 C   0  0  1  0  0  0  0  0  0  0  0  0
   23.8191   70.2478    1.8491 C   0  0  2  0  0  0  0  0  0  0  0  0
   23.4501   72.3922    3.7427 C   0  0  1  0  0  0  0  0  0  0  0  0
   22.9710   71.4923    1.5808 C   0  0  1  0  0  0  0  0  0  0  0  0
   24.9687   68.7317    4.4971 H   0  0  0  0  0  0  0  0  0  0  0  0
   24.7391   70.1374    5.7441 H   0  0  0  0  0  0  0  0  0  0  0  0
   23.8202   68.3419    1.3449 H   0  0  0  0  0  0  0  0  0  0  0  0
   25.0931   73.3883    5.1630 O   0  0  0  0  0  0  0  0  0  0  0  0
   23.9413   73.6830    4.3944 C   0  0  0  0  0  0  0  0  0  0  0  0
   25.4170   74.2007    5.5835 H   0  0  0  0  0  0  0  0  0  0  0  0
 25 28  1  0
 25 24  1  0
 25 26  1  6
 25 27  2  0
  1  4  1  0
  1 24  1  0
  1  2  1  6
  1  3  2  0
  6 11  1  0
  6 12  1  0
 29 36  1  0
 29 37  1  0
  9  7  1  6
  7 13  1  0
 10  8  1  1
  8 14  1  0
 37 28  1  1
  4  5  1  0
 33 30  1  6
 30 38  1  0
 34 31  1  1
 31 39  1  0
 35 32  1  6
 32 40  1  0
 41 42  1  0
 41 43  1  0
 15 19  2  0
 16 22  2  0
 12 17  1  6
 17 19  1  0
 17 20  1  0
 18 19  1  0
 18 22  1  0
 18 23  1  0
  9 10  1  0
  9 11  1  0
 10 12  1  0
 11  5  1  6
 33 34  1  0
 33 35  1  0
 34 36  1  0
 35 37  1  0
 36 42  1  1
 20 21  2  0
 21 22  1  0
M  CHG  2   2  -1  26  -1
M  END
>  <COMPND>  (63) 
    8629 

>  <AUTHOR>  (63) 
    GENERATED BY OPEN BABEL 3.1.1

>  <MASTER>  (63) 
        0    0    0    0    0    0    0    0   58    0   58    0

>  <minimizedAffinity>  (63) 
-8.20521

>  <CNNscore>  (63) 
0.7793169022

>  <CNNaffinity>  (63) 
4.7058367729

>  <CNN_VS>  (63) 
3.6673381329

>  <CNNaffinity_variance>  (63) 
0.0514617860

$$$$
64
     RDKit          3D

 43 45  0  0  0  0  0  0  0  0999 V2000
   22.4876   71.0851   -1.7740 P   0  0  2  0  0  0  0  0  0  0  0  0
   23.0147   72.5517   -2.2084 O   0  0  0  0  0  0  0  0  0  0  0  0
   23.0534   69.9466   -2.5709 O   0  0  0  0  0  0  0  0  0  0  0  0
   20.8762   71.2282   -1.7995 O   0  0  0  0  0  0  0  0  0  0  0  0
   20.1644   70.6632   -2.8866 C   0  0  0  0  0  0  0  0  0  0  0  0
   18.4305   71.7992   -4.1019 O   0  0  0  0  0  0  0  0  0  0  0  0
   16.5156   70.5732   -2.1472 O   0  0  0  0  0  0  0  0  0  0  0  0
   16.2441   68.9656   -4.3332 O   0  0  0  0  0  0  0  0  0  0  0  0
   17.7080   70.0252   -2.7067 C   0  0  1  0  0  0  0  0  0  0  0  0
   17.4779   69.6296   -4.1504 C   0  0  2  0  0  0  0  0  0  0  0  0
   18.7233   71.1529   -2.8438 C   0  0  1  0  0  0  0  0  0  0  0  0
   17.5291   70.9734   -4.8572 C   0  0  2  0  0  0  0  0  0  0  0  0
   15.8522   69.8715   -2.0498 H   0  0  0  0  0  0  0  0  0  0  0  0
   16.2611   68.1165   -3.8648 H   0  0  0  0  0  0  0  0  0  0  0  0
   15.9367   70.2394   -7.0716 O   0  0  0  0  0  0  0  0  0  0  0  0
   19.4952   70.5903   -9.9795 O   0  0  0  0  0  0  0  0  0  0  0  0
   18.0136   70.8654   -6.2045 N   0  0  0  0  0  0  0  0  0  0  0  0
   17.7098   70.4149   -8.5177 N   0  0  0  0  0  0  0  0  0  0  0  0
   17.1317   70.4885   -7.2440 C   0  0  0  0  0  0  0  0  0  0  0  0
   19.3494   71.1323   -6.4840 C   0  0  0  0  0  0  0  0  0  0  0  0
   19.8855   71.0563   -7.7039 C   0  0  0  0  0  0  0  0  0  0  0  0
   19.0321   70.6692   -8.8458 C   0  0  0  0  0  0  0  0  0  0  0  0
   17.1146   70.1538   -9.2575 H   0  0  0  0  0  0  0  0  0  0  0  0
   22.8227   71.0320   -0.1935 O   0  0  0  0  0  0  0  0  0  0  0  0
   22.2767   70.0578    0.9752 P   0  0  2  0  0  0  0  0  0  0  0  0
   23.5731   69.1656    1.3504 O   0  0  0  0  0  0  0  0  0  0  0  0
   21.0644   69.2586    0.5938 O   0  0  0  0  0  0  0  0  0  0  0  0
   22.0658   71.0263    2.2490 O   0  0  0  0  0  0  0  0  0  0  0  0
   21.4250   73.2966    2.0217 O   0  0  0  0  0  0  0  0  0  0  0  0
   23.3052   73.5060    5.6921 O   0  0  0  0  0  0  0  0  0  0  0  0
   20.4427   73.6927    5.5525 O   0  0  0  0  0  0  0  0  0  0  0  0
   24.3907   71.8155    3.6080 O   0  0  0  0  0  0  0  0  0  0  0  0
   22.5169   72.8990    4.6646 C   0  0  1  0  0  0  0  0  0  0  0  0
   21.2937   73.7829    4.4133 C   0  0  1  0  0  0  0  0  0  0  0  0
   23.3598   72.7743    3.3968 C   0  0  2  0  0  0  0  0  0  0  0  0
   20.5428   73.3431    3.1492 C   0  0  1  0  0  0  0  0  0  0  0  0
   22.5082   72.3798    2.1889 C   0  0  1  0  0  0  0  0  0  0  0  0
   22.7759   73.5877    6.5000 H   0  0  0  0  0  0  0  0  0  0  0  0
   20.9290   73.9727    6.3439 H   0  0  0  0  0  0  0  0  0  0  0  0
   24.9229   72.0768    4.3751 H   0  0  0  0  0  0  0  0  0  0  0  0
   19.6685   75.5509    3.4141 O   0  0  0  0  0  0  0  0  0  0  0  0
   19.4123   74.3055    2.7917 C   0  0  0  0  0  0  0  0  0  0  0  0
   18.9572   76.1736    3.1951 H   0  0  0  0  0  0  0  0  0  0  0  0
 25 28  1  0
 25 24  1  0
 25 26  1  1
 25 27  2  0
  1  4  1  0
  1 24  1  0
  1  2  1  6
  1  3  2  0
  6 11  1  0
  6 12  1  0
 29 36  1  0
 29 37  1  0
  9  7  1  6
  7 13  1  0
 10  8  1  1
  8 14  1  0
 37 28  1  1
  4  5  1  0
 33 30  1  1
 30 38  1  0
 34 31  1  1
 31 39  1  0
 35 32  1  1
 32 40  1  0
 41 42  1  0
 41 43  1  0
 15 19  2  0
 16 22  2  0
 12 17  1  6
 17 19  1  0
 17 20  1  0
 18 19  1  0
 18 22  1  0
 18 23  1  0
  9 10  1  0
  9 11  1  0
 10 12  1  0
 11  5  1  6
 33 34  1  0
 33 35  1  0
 34 36  1  0
 35 37  1  0
 36 42  1  6
 20 21  2  0
 21 22  1  0
M  CHG  2   2  -1  26  -1
M  END
>  <COMPND>  (64) 
    8629 

>  <AUTHOR>  (64) 
    GENERATED BY OPEN BABEL 3.1.1

>  <MASTER>  (64) 
        0    0    0    0    0    0    0    0   58    0   58    0

>  <minimizedAffinity>  (64) 
-8.09622

>  <CNNscore>  (64) 
0.7665665746

>  <CNNaffinity>  (64) 
4.7367086411

>  <CNN_VS>  (64) 
3.6310024261

>  <CNNaffinity_variance>  (64) 
0.0481969938

$$$$
65
     RDKit          3D

 43 45  0  0  0  0  0  0  0  0999 V2000
   20.9988   71.2219   -1.7379 P   0  0  2  0  0  0  0  0  0  0  0  0
   21.8622   69.8661   -1.9222 O   0  0  0  0  0  0  0  0  0  0  0  0
   19.6378   71.0297   -1.1362 O   0  0  0  0  0  0  0  0  0  0  0  0
   21.0286   71.9037   -3.2050 O   0  0  0  0  0  0  0  0  0  0  0  0
   20.3370   73.1255   -3.3968 C   0  0  0  0  0  0  0  0  0  0  0  0
   19.9039   72.2002   -5.5717 O   0  0  0  0  0  0  0  0  0  0  0  0
   19.5243   75.0282   -6.4933 O   0  0  0  0  0  0  0  0  0  0  0  0
   16.9595   74.1473   -6.2060 O   0  0  0  0  0  0  0  0  0  0  0  0
   19.1749   74.4313   -5.2455 C   0  0  1  0  0  0  0  0  0  0  0  0
   17.9585   73.5441   -5.4093 C   0  0  2  0  0  0  0  0  0  0  0  0
   20.2590   73.4221   -4.8882 C   0  0  1  0  0  0  0  0  0  0  0  0
   18.5559   72.3070   -6.0581 C   0  0  2  0  0  0  0  0  0  0  0  0
   18.8467   75.6768   -6.7422 H   0  0  0  0  0  0  0  0  0  0  0  0
   16.6108   74.9293   -5.7504 H   0  0  0  0  0  0  0  0  0  0  0  0
   16.3324   71.3135   -7.4887 O   0  0  0  0  0  0  0  0  0  0  0  0
   15.8898   67.7055   -4.6554 O   0  0  0  0  0  0  0  0  0  0  0  0
   17.8407   71.1099   -5.7165 N   0  0  0  0  0  0  0  0  0  0  0  0
   16.1139   69.5177   -6.0769 N   0  0  0  0  0  0  0  0  0  0  0  0
   16.7371   70.6988   -6.4998 C   0  0  0  0  0  0  0  0  0  0  0  0
   18.2354   70.3570   -4.6160 C   0  0  0  0  0  0  0  0  0  0  0  0
   17.6297   69.2337   -4.2252 C   0  0  0  0  0  0  0  0  0  0  0  0
   16.4681   68.7350   -4.9894 C   0  0  0  0  0  0  0  0  0  0  0  0
   15.3425   69.2122   -6.6071 H   0  0  0  0  0  0  0  0  0  0  0  0
   21.9873   72.1681   -0.8774 O   0  0  0  0  0  0  0  0  0  0  0  0
   21.6779   73.2465    0.2863 P   0  0  2  0  0  0  0  0  0  0  0  0
   20.1608   72.8945    0.7245 O   0  0  0  0  0  0  0  0  0  0  0  0
   21.8876   74.6746   -0.1266 O   0  0  0  0  0  0  0  0  0  0  0  0
   22.5835   72.7714    1.5349 O   0  0  0  0  0  0  0  0  0  0  0  0
   22.5342   70.8202    2.8792 O   0  0  0  0  0  0  0  0  0  0  0  0
   23.3513   73.6169    5.8052 O   0  0  0  0  0  0  0  0  0  0  0  0
   25.4141   71.8072    4.9578 O   0  0  0  0  0  0  0  0  0  0  0  0
   21.5201   74.2653    3.6591 O   0  0  0  0  0  0  0  0  0  0  0  0
   23.4180   73.0419    4.4974 C   0  0  1  0  0  0  0  0  0  0  0  0
   24.0396   71.6491    4.6170 C   0  0  1  0  0  0  0  0  0  0  0  0
   22.0071   72.9531    3.9187 C   0  0  2  0  0  0  0  0  0  0  0  0
   23.9012   70.8661    3.3044 C   0  0  1  0  0  0  0  0  0  0  0  0
   21.9726   72.1124    2.6411 C   0  0  1  0  0  0  0  0  0  0  0  0
   24.2440   73.6765    6.1782 H   0  0  0  0  0  0  0  0  0  0  0  0
   25.4876   72.3036    5.7881 H   0  0  0  0  0  0  0  0  0  0  0  0
   21.5468   74.7874    4.4756 H   0  0  0  0  0  0  0  0  0  0  0  0
   25.7877   69.4045    3.4219 O   0  0  0  0  0  0  0  0  0  0  0  0
   24.3723   69.4206    3.4483 C   0  0  0  0  0  0  0  0  0  0  0  0
   26.1019   68.4909    3.5128 H   0  0  0  0  0  0  0  0  0  0  0  0
 25 28  1  0
 25 24  1  0
 25 26  1  1
 25 27  2  0
  1  4  1  0
  1 24  1  0
  1  2  1  6
  1  3  2  0
  6 11  1  0
  6 12  1  0
 29 36  1  0
 29 37  1  0
  9  7  1  6
  7 13  1  0
 10  8  1  6
  8 14  1  0
 37 28  1  6
  4  5  1  0
 33 30  1  1
 30 38  1  0
 34 31  1  6
 31 39  1  0
 35 32  1  6
 32 40  1  0
 41 42  1  0
 41 43  1  0
 15 19  2  0
 16 22  2  0
 12 17  1  1
 17 19  1  0
 17 20  1  0
 18 19  1  0
 18 22  1  0
 18 23  1  0
  9 10  1  0
  9 11  1  0
 10 12  1  0
 11  5  1  1
 33 34  1  0
 33 35  1  0
 34 36  1  0
 35 37  1  0
 36 42  1  1
 20 21  2  0
 21 22  1  0
M  CHG  2   2  -1  26  -1
M  END
>  <COMPND>  (65) 
    8629 

>  <AUTHOR>  (65) 
    GENERATED BY OPEN BABEL 3.1.1

>  <MASTER>  (65) 
        0    0    0    0    0    0    0    0   58    0   58    0

>  <minimizedAffinity>  (65) 
-7.11100

>  <CNNscore>  (65) 
0.6931579113

>  <CNNaffinity>  (65) 
4.2986450195

>  <CNN_VS>  (65) 
2.9796397686

>  <CNNaffinity_variance>  (65) 
0.0614364073

$$$$
66
     RDKit          3D

 43 45  0  0  0  0  0  0  0  0999 V2000
   22.5837   71.4333   -2.8556 P   0  0  2  0  0  0  0  0  0  0  0  0
   22.9947   72.1097   -1.4446 O   0  0  0  0  0  0  0  0  0  0  0  0
   23.4290   71.8441   -4.0253 O   0  0  0  0  0  0  0  0  0  0  0  0
   21.0014   71.7436   -2.9889 O   0  0  0  0  0  0  0  0  0  0  0  0
   20.0989   70.6517   -3.0234 C   0  0  0  0  0  0  0  0  0  0  0  0
   18.4358   71.8356   -4.2908 O   0  0  0  0  0  0  0  0  0  0  0  0
   16.4301   70.6799   -2.3850 O   0  0  0  0  0  0  0  0  0  0  0  0
   16.1684   69.0709   -4.5712 O   0  0  0  0  0  0  0  0  0  0  0  0
   17.6196   70.0920   -2.9090 C   0  0  1  0  0  0  0  0  0  0  0  0
   17.4171   69.6968   -4.3569 C   0  0  2  0  0  0  0  0  0  0  0  0
   18.6734   71.1866   -3.0225 C   0  0  1  0  0  0  0  0  0  0  0  0
   17.5300   71.0348   -5.0675 C   0  0  2  0  0  0  0  0  0  0  0  0
   15.7424   69.9999   -2.3032 H   0  0  0  0  0  0  0  0  0  0  0  0
   16.1458   68.2240   -4.0991 H   0  0  0  0  0  0  0  0  0  0  0  0
   15.9454   70.5506   -7.3550 O   0  0  0  0  0  0  0  0  0  0  0  0
   19.6251   70.5543  -10.1301 O   0  0  0  0  0  0  0  0  0  0  0  0
   18.0478   70.9052   -6.4004 N   0  0  0  0  0  0  0  0  0  0  0  0
   17.7789   70.5530   -8.7349 N   0  0  0  0  0  0  0  0  0  0  0  0
   17.1668   70.6616   -7.4797 C   0  0  0  0  0  0  0  0  0  0  0  0
   19.4151   71.0198   -6.6269 C   0  0  0  0  0  0  0  0  0  0  0  0
   19.9831   70.9125   -7.8298 C   0  0  0  0  0  0  0  0  0  0  0  0
   19.1330   70.6581   -9.0107 C   0  0  0  0  0  0  0  0  0  0  0  0
   17.1848   70.3830   -9.5017 H   0  0  0  0  0  0  0  0  0  0  0  0
   22.6172   69.8516   -2.5240 O   0  0  0  0  0  0  0  0  0  0  0  0
   23.6579   68.9709   -1.6555 P   0  0  2  0  0  0  0  0  0  0  0  0
   25.0946   69.3657   -2.2860 O   0  0  0  0  0  0  0  0  0  0  0  0
   23.3660   67.4982   -1.6538 O   0  0  0  0  0  0  0  0  0  0  0  0
   23.6521   69.6555   -0.1939 O   0  0  0  0  0  0  0  0  0  0  0  0
   23.4862   69.1461    2.1147 O   0  0  0  0  0  0  0  0  0  0  0  0
   20.2299   71.6601    1.7582 O   0  0  0  0  0  0  0  0  0  0  0  0
   22.5859   72.5760    3.1215 O   0  0  0  0  0  0  0  0  0  0  0  0
   20.8547   69.7963   -0.3668 O   0  0  0  0  0  0  0  0  0  0  0  0
   21.5494   71.1884    1.4719 C   0  0  1  0  0  0  0  0  0  0  0  0
   22.3598   71.2140    2.7693 C   0  0  1  0  0  0  0  0  0  0  0  0
   21.4625   69.7667    0.9201 C   0  0  2  0  0  0  0  0  0  0  0  0
   23.6953   70.4764    2.6029 C   0  0  1  0  0  0  0  0  0  0  0  0
   22.8401   69.1065    0.8407 C   0  0  1  0  0  0  0  0  0  0  0  0
   20.2780   72.5626    2.1085 H   0  0  0  0  0  0  0  0  0  0  0  0
   21.7348   73.0305    3.2230 H   0  0  0  0  0  0  0  0  0  0  0  0
   19.9832   70.2163   -0.3031 H   0  0  0  0  0  0  0  0  0  0  0  0
   23.5088   70.1267    4.9591 O   0  0  0  0  0  0  0  0  0  0  0  0
   24.4491   70.3530    3.9252 C   0  0  0  0  0  0  0  0  0  0  0  0
   23.9744   70.0458    5.8067 H   0  0  0  0  0  0  0  0  0  0  0  0
 25 28  1  0
 25 24  1  0
 25 26  1  6
 25 27  2  0
  1  4  1  0
  1 24  1  0
  1  2  1  1
  1  3  2  0
  6 11  1  0
  6 12  1  0
 29 36  1  0
 29 37  1  0
  9  7  1  6
  7 13  1  0
 10  8  1  1
  8 14  1  0
 37 28  1  6
  4  5  1  0
 33 30  1  1
 30 38  1  0
 34 31  1  6
 31 39  1  0
 35 32  1  6
 32 40  1  0
 41 42  1  0
 41 43  1  0
 15 19  2  0
 16 22  2  0
 12 17  1  6
 17 19  1  0
 17 20  1  0
 18 19  1  0
 18 22  1  0
 18 23  1  0
  9 10  1  0
  9 11  1  0
 10 12  1  0
 11  5  1  6
 33 34  1  0
 33 35  1  0
 34 36  1  0
 35 37  1  0
 36 42  1  1
 20 21  2  0
 21 22  1  0
M  CHG  2   2  -1  26  -1
M  END
>  <COMPND>  (66) 
    8629 

>  <AUTHOR>  (66) 
    GENERATED BY OPEN BABEL 3.1.1

>  <MASTER>  (66) 
        0    0    0    0    0    0    0    0   58    0   58    0

>  <minimizedAffinity>  (66) 
-9.13938

>  <CNNscore>  (66) 
0.6592040658

>  <CNNaffinity>  (66) 
4.6300973892

>  <CNN_VS>  (66) 
3.0521790981

>  <CNNaffinity_variance>  (66) 
0.0632538646

$$$$
67
     RDKit          3D

 43 45  0  0  0  0  0  0  0  0999 V2000
   20.4997   74.3671   -1.1743 P   0  0  2  0  0  0  0  0  0  0  0  0
   19.9324   75.8727   -1.0050 O   0  0  0  0  0  0  0  0  0  0  0  0
   21.5586   74.2032   -2.2247 O   0  0  0  0  0  0  0  0  0  0  0  0
   19.1678   73.4702   -1.3734 O   0  0  0  0  0  0  0  0  0  0  0  0
   18.8698   72.9806   -2.6693 C   0  0  0  0  0  0  0  0  0  0  0  0
   17.0657   72.0418   -3.9489 O   0  0  0  0  0  0  0  0  0  0  0  0
   16.5673   70.2603   -1.5891 O   0  0  0  0  0  0  0  0  0  0  0  0
   17.9140   68.6180   -3.2997 O   0  0  0  0  0  0  0  0  0  0  0  0
   17.8051   70.7377   -2.1136 C   0  0  1  0  0  0  0  0  0  0  0  0
   18.1494   70.0081   -3.3953 C   0  0  2  0  0  0  0  0  0  0  0  0
   17.5873   72.1625   -2.6074 C   0  0  1  0  0  0  0  0  0  0  0  0
   17.2352   70.6881   -4.4003 C   0  0  2  0  0  0  0  0  0  0  0  0
   16.6816   69.3519   -1.2672 H   0  0  0  0  0  0  0  0  0  0  0  0
   18.5198   68.2314   -2.6483 H   0  0  0  0  0  0  0  0  0  0  0  0
   15.8280   69.9395   -6.7321 O   0  0  0  0  0  0  0  0  0  0  0  0
   19.4717   70.7874   -9.4239 O   0  0  0  0  0  0  0  0  0  0  0  0
   17.7916   70.7040   -5.7237 N   0  0  0  0  0  0  0  0  0  0  0  0
   17.6434   70.3625   -8.0706 N   0  0  0  0  0  0  0  0  0  0  0  0
   17.0006   70.3080   -6.8273 C   0  0  0  0  0  0  0  0  0  0  0  0
   19.1077   71.1094   -5.9172 C   0  0  0  0  0  0  0  0  0  0  0  0
   19.7063   71.1545   -7.1092 C   0  0  0  0  0  0  0  0  0  0  0  0
   18.9495   70.7570   -8.3139 C   0  0  0  0  0  0  0  0  0  0  0  0
   17.1119   70.0908   -8.8538 H   0  0  0  0  0  0  0  0  0  0  0  0
   20.9734   73.9865    0.3236 O   0  0  0  0  0  0  0  0  0  0  0  0
   22.1790   74.5616    1.2340 P   0  0  2  0  0  0  0  0  0  0  0  0
   21.4072   75.3610    2.4099 O   0  0  0  0  0  0  0  0  0  0  0  0
   23.1809   75.3862    0.4789 O   0  0  0  0  0  0  0  0  0  0  0  0
   22.7967   73.2608    1.9629 O   0  0  0  0  0  0  0  0  0  0  0  0
   22.1377   71.0955    1.2602 O   0  0  0  0  0  0  0  0  0  0  0  0
   23.5016   70.1735    5.0471 O   0  0  0  0  0  0  0  0  0  0  0  0
   25.0442   69.3904    2.7547 O   0  0  0  0  0  0  0  0  0  0  0  0
   22.0501   72.6370    4.5951 O   0  0  0  0  0  0  0  0  0  0  0  0
   23.4899   70.8766    3.8017 C   0  0  1  0  0  0  0  0  0  0  0  0
   23.7020   69.8621    2.6763 C   0  0  1  0  0  0  0  0  0  0  0  0
   22.1461   71.5849    3.6410 C   0  0  2  0  0  0  0  0  0  0  0  0
   23.4372   70.4945    1.3033 C   0  0  1  0  0  0  0  0  0  0  0  0
   21.9633   72.1348    2.2252 C   0  0  1  0  0  0  0  0  0  0  0  0
   24.3523   69.7219    5.1556 H   0  0  0  0  0  0  0  0  0  0  0  0
   25.1985   68.9940    3.6266 H   0  0  0  0  0  0  0  0  0  0  0  0
   22.1672   72.2759    5.4872 H   0  0  0  0  0  0  0  0  0  0  0  0
   22.4863   69.7801   -0.7690 O   0  0  0  0  0  0  0  0  0  0  0  0
   23.4889   69.4626    0.1788 C   0  0  0  0  0  0  0  0  0  0  0  0
   22.5075   69.1318   -1.4908 H   0  0  0  0  0  0  0  0  0  0  0  0
 25 28  1  0
 25 24  1  0
 25 26  1  1
 25 27  2  0
  1  4  1  0
  1 24  1  0
  1  2  1  1
  1  3  2  0
  6 11  1  0
  6 12  1  0
 29 36  1  0
 29 37  1  0
  9  7  1  6
  7 13  1  0
 10  8  1  1
  8 14  1  0
 37 28  1  6
  4  5  1  0
 33 30  1  1
 30 38  1  0
 34 31  1  6
 31 39  1  0
 35 32  1  1
 32 40  1  0
 41 42  1  0
 41 43  1  0
 15 19  2  0
 16 22  2  0
 12 17  1  6
 17 19  1  0
 17 20  1  0
 18 19  1  0
 18 22  1  0
 18 23  1  0
  9 10  1  0
  9 11  1  0
 10 12  1  0
 11  5  1  6
 33 34  1  0
 33 35  1  0
 34 36  1  0
 35 37  1  0
 36 42  1  6
 20 21  2  0
 21 22  1  0
M  CHG  2   2  -1  26  -1
M  END
>  <COMPND>  (67) 
    8629 

>  <AUTHOR>  (67) 
    GENERATED BY OPEN BABEL 3.1.1

>  <MASTER>  (67) 
        0    0    0    0    0    0    0    0   58    0   58    0

>  <minimizedAffinity>  (67) 
-7.07870

>  <CNNscore>  (67) 
0.6182611585

>  <CNNaffinity>  (67) 
4.3799009323

>  <CNN_VS>  (67) 
2.7079226971

>  <CNNaffinity_variance>  (67) 
0.1019044667

$$$$
68
     RDKit          3D

 43 45  0  0  0  0  0  0  0  0999 V2000
   19.6216   70.6668   -1.6901 P   0  0  2  0  0  0  0  0  0  0  0  0
   20.3763   70.2885   -3.0702 O   0  0  0  0  0  0  0  0  0  0  0  0
   18.3386   69.9279   -1.4462 O   0  0  0  0  0  0  0  0  0  0  0  0
   19.5049   72.2798   -1.7407 O   0  0  0  0  0  0  0  0  0  0  0  0
   19.7895   72.9403   -2.9616 C   0  0  0  0  0  0  0  0  0  0  0  0
   18.5834   73.8365   -4.8367 O   0  0  0  0  0  0  0  0  0  0  0  0
   16.2308   74.0375   -2.9885 O   0  0  0  0  0  0  0  0  0  0  0  0
   15.6794   71.7758   -4.4088 O   0  0  0  0  0  0  0  0  0  0  0  0
   17.2486   73.0396   -3.0481 C   0  0  1  0  0  0  0  0  0  0  0  0
   17.0349   72.1415   -4.2486 C   0  0  2  0  0  0  0  0  0  0  0  0
   18.5619   73.7291   -3.3964 C   0  0  1  0  0  0  0  0  0  0  0  0
   17.5445   73.0098   -5.3864 C   0  0  2  0  0  0  0  0  0  0  0  0
   15.3826   73.6211   -2.7671 H   0  0  0  0  0  0  0  0  0  0  0  0
   15.4025   71.2246   -3.6603 H   0  0  0  0  0  0  0  0  0  0  0  0
   16.0157   71.9275   -7.5005 O   0  0  0  0  0  0  0  0  0  0  0  0
   19.7347   70.0514   -9.4729 O   0  0  0  0  0  0  0  0  0  0  0  0
   18.0876   72.2347   -6.4660 N   0  0  0  0  0  0  0  0  0  0  0  0
   17.8688   70.9944   -8.4810 N   0  0  0  0  0  0  0  0  0  0  0  0
   17.2334   71.7365   -7.4772 C   0  0  0  0  0  0  0  0  0  0  0  0
   19.4531   71.9759   -6.5149 C   0  0  0  0  0  0  0  0  0  0  0  0
   20.0432   71.2654   -7.4783 C   0  0  0  0  0  0  0  0  0  0  0  0
   19.2218   70.7089   -8.5727 C   0  0  0  0  0  0  0  0  0  0  0  0
   17.2935   70.6369   -9.1959 H   0  0  0  0  0  0  0  0  0  0  0  0
   20.7629   70.4200   -0.5722 O   0  0  0  0  0  0  0  0  0  0  0  0
   22.3744   70.3765   -0.6920 P   0  0  2  0  0  0  0  0  0  0  0  0
   22.6800   71.3557   -1.9432 O   0  0  0  0  0  0  0  0  0  0  0  0
   22.9438   68.9946   -0.8337 O   0  0  0  0  0  0  0  0  0  0  0  0
   22.9021   71.1882    0.5993 O   0  0  0  0  0  0  0  0  0  0  0  0
   22.6332   70.9218    2.9388 O   0  0  0  0  0  0  0  0  0  0  0  0
   22.1308   75.0121    2.6786 O   0  0  0  0  0  0  0  0  0  0  0  0
   24.5454   73.9494    3.8138 O   0  0  0  0  0  0  0  0  0  0  0  0
   21.0426   73.2899    0.6220 O   0  0  0  0  0  0  0  0  0  0  0  0
   22.6854   73.7423    2.3243 C   0  0  1  0  0  0  0  0  0  0  0  0
   23.3848   73.1640    3.5561 C   0  0  1  0  0  0  0  0  0  0  0  0
   21.5608   72.8181    1.8611 C   0  0  2  0  0  0  0  0  0  0  0  0
   23.7717   71.6955    3.3350 C   0  0  1  0  0  0  0  0  0  0  0  0
   22.0402   71.3724    1.7193 C   0  0  1  0  0  0  0  0  0  0  0  0
   22.8398   75.6038    2.9731 H   0  0  0  0  0  0  0  0  0  0  0  0
   24.2873   74.8745    3.9511 H   0  0  0  0  0  0  0  0  0  0  0  0
   20.7423   74.2059    0.7250 H   0  0  0  0  0  0  0  0  0  0  0  0
   23.4539   70.0125    5.0010 O   0  0  0  0  0  0  0  0  0  0  0  0
   24.3277   71.0533    4.6041 C   0  0  0  0  0  0  0  0  0  0  0  0
   23.7954   69.5944    5.8074 H   0  0  0  0  0  0  0  0  0  0  0  0
 25 28  1  0
 25 24  1  0
 25 26  1  6
 25 27  2  0
  1  4  1  0
  1 24  1  0
  1  2  1  6
  1  3  2  0
  6 11  1  0
  6 12  1  0
 29 36  1  0
 29 37  1  0
  9  7  1  6
  7 13  1  0
 10  8  1  6
  8 14  1  0
 37 28  1  6
  4  5  1  0
 33 30  1  1
 30 38  1  0
 34 31  1  6
 31 39  1  0
 35 32  1  6
 32 40  1  0
 41 42  1  0
 41 43  1  0
 15 19  2  0
 16 22  2  0
 12 17  1  6
 17 19  1  0
 17 20  1  0
 18 19  1  0
 18 22  1  0
 18 23  1  0
  9 10  1  0
  9 11  1  0
 10 12  1  0
 11  5  1  6
 33 34  1  0
 33 35  1  0
 34 36  1  0
 35 37  1  0
 36 42  1  1
 20 21  2  0
 21 22  1  0
M  CHG  2   2  -1  26  -1
M  END
>  <COMPND>  (68) 
    8629 

>  <AUTHOR>  (68) 
    GENERATED BY OPEN BABEL 3.1.1

>  <MASTER>  (68) 
        0    0    0    0    0    0    0    0   58    0   58    0

>  <minimizedAffinity>  (68) 
-7.09552

>  <CNNscore>  (68) 
0.6106909513

>  <CNNaffinity>  (68) 
4.3491201401

>  <CNN_VS>  (68) 
2.6559684277

>  <CNNaffinity_variance>  (68) 
0.0384582095

$$$$
69
     RDKit          3D

 43 45  0  0  0  0  0  0  0  0999 V2000
   20.8594   70.7642   -0.5039 P   0  0  2  0  0  0  0  0  0  0  0  0
   21.8934   69.5218   -0.5723 O   0  0  0  0  0  0  0  0  0  0  0  0
   21.3112   72.0046   -1.2171 O   0  0  0  0  0  0  0  0  0  0  0  0
   20.5586   70.9326    1.0769 O   0  0  0  0  0  0  0  0  0  0  0  0
   21.1069   72.0500    1.7542 C   0  0  0  0  0  0  0  0  0  0  0  0
   23.1592   73.0420    2.5143 O   0  0  0  0  0  0  0  0  0  0  0  0
   24.3503   70.2995    2.2882 O   0  0  0  0  0  0  0  0  0  0  0  0
   23.8833   70.5259    4.9654 O   0  0  0  0  0  0  0  0  0  0  0  0
   23.0364   70.6821    2.6917 C   0  0  1  0  0  0  0  0  0  0  0  0
   23.0654   71.2712    4.0866 C   0  0  2  0  0  0  0  0  0  0  0  0
   22.6170   71.8802    1.8491 C   0  0  1  0  0  0  0  0  0  0  0  0
   23.6055   72.6674    3.8278 C   0  0  2  0  0  0  0  0  0  0  0  0
   24.6397   69.5357    2.8123 H   0  0  0  0  0  0  0  0  0  0  0  0
   23.4976   69.6459    5.0982 H   0  0  0  0  0  0  0  0  0  0  0  0
   25.2473   74.4431    5.2869 O   0  0  0  0  0  0  0  0  0  0  0  0
   21.6267   76.3078    7.4446 O   0  0  0  0  0  0  0  0  0  0  0  0
   23.1183   73.6278    4.7773 N   0  0  0  0  0  0  0  0  0  0  0  0
   23.4432   75.3703    6.3600 N   0  0  0  0  0  0  0  0  0  0  0  0
   24.0268   74.4720    5.4575 C   0  0  0  0  0  0  0  0  0  0  0  0
   21.7536   73.7258    5.0258 C   0  0  0  0  0  0  0  0  0  0  0  0
   21.2132   74.5869    5.8905 C   0  0  0  0  0  0  0  0  0  0  0  0
   22.0931   75.5048    6.6424 C   0  0  0  0  0  0  0  0  0  0  0  0
   24.0568   75.9682    6.8456 H   0  0  0  0  0  0  0  0  0  0  0  0
   19.4862   70.1256   -1.0691 O   0  0  0  0  0  0  0  0  0  0  0  0
   18.1720   70.8235   -1.7006 P   0  0  2  0  0  0  0  0  0  0  0  0
   17.9751   72.1418   -0.7837 O   0  0  0  0  0  0  0  0  0  0  0  0
   16.9692   69.9273   -1.7631 O   0  0  0  0  0  0  0  0  0  0  0  0
   18.6584   71.3910   -3.1312 O   0  0  0  0  0  0  0  0  0  0  0  0
   18.1047   70.0199   -4.9832 O   0  0  0  0  0  0  0  0  0  0  0  0
   20.8570   72.5042   -6.8009 O   0  0  0  0  0  0  0  0  0  0  0  0
   18.0660   72.7902   -7.4147 O   0  0  0  0  0  0  0  0  0  0  0  0
   21.2898   71.6154   -4.0802 O   0  0  0  0  0  0  0  0  0  0  0  0
   19.8038   72.1695   -5.8930 C   0  0  1  0  0  0  0  0  0  0  0  0
   18.6064   71.6771   -6.7081 C   0  0  1  0  0  0  0  0  0  0  0  0
   20.2924   71.0783   -4.9423 C   0  0  2  0  0  0  0  0  0  0  0  0
   17.5388   71.0507   -5.8010 C   0  0  1  0  0  0  0  0  0  0  0  0
   19.1439   70.4885   -4.1217 C   0  0  1  0  0  0  0  0  0  0  0  0
   20.5535   73.1970   -7.4071 H   0  0  0  0  0  0  0  0  0  0  0  0
   18.7504   73.1769   -7.9834 H   0  0  0  0  0  0  0  0  0  0  0  0
   22.0112   71.9853   -4.6117 H   0  0  0  0  0  0  0  0  0  0  0  0
   15.8684   69.3429   -5.8501 O   0  0  0  0  0  0  0  0  0  0  0  0
   16.4084   70.4120   -6.6050 C   0  0  0  0  0  0  0  0  0  0  0  0
   15.1476   68.9271   -6.3494 H   0  0  0  0  0  0  0  0  0  0  0  0
 25 28  1  0
 25 24  1  0
 25 26  1  1
 25 27  2  0
  1  4  1  0
  1 24  1  0
  1  2  1  1
  1  3  2  0
  6 11  1  0
  6 12  1  0
 29 36  1  0
 29 37  1  0
  9  7  1  6
  7 13  1  0
 10  8  1  1
  8 14  1  0
 37 28  1  1
  4  5  1  0
 33 30  1  6
 30 38  1  0
 34 31  1  1
 31 39  1  0
 35 32  1  1
 32 40  1  0
 41 42  1  0
 41 43  1  0
 15 19  2  0
 16 22  2  0
 12 17  1  1
 17 19  1  0
 17 20  1  0
 18 19  1  0
 18 22  1  0
 18 23  1  0
  9 10  1  0
  9 11  1  0
 10 12  1  0
 11  5  1  1
 33 34  1  0
 33 35  1  0
 34 36  1  0
 35 37  1  0
 36 42  1  6
 20 21  2  0
 21 22  1  0
M  CHG  2   2  -1  26  -1
M  END
>  <COMPND>  (69) 
    8629 

>  <AUTHOR>  (69) 
    GENERATED BY OPEN BABEL 3.1.1

>  <MASTER>  (69) 
        0    0    0    0    0    0    0    0   58    0   58    0

>  <minimizedAffinity>  (69) 
-7.61843

>  <CNNscore>  (69) 
0.4604158700

>  <CNNaffinity>  (69) 
3.9648468494

>  <CNN_VS>  (69) 
1.8254784346

>  <CNNaffinity_variance>  (69) 
0.2030654252

$$$$
70
     RDKit          3D

 43 45  0  0  0  0  0  0  0  0999 V2000
   21.2280   71.9580   -2.3994 P   0  0  2  0  0  0  0  0  0  0  0  0
   22.2374   73.1922   -2.6744 O   0  0  0  0  0  0  0  0  0  0  0  0
   21.8014   70.5980   -2.6698 O   0  0  0  0  0  0  0  0  0  0  0  0
   19.9039   72.3432   -3.2457 O   0  0  0  0  0  0  0  0  0  0  0  0
   19.6849   73.7036   -3.5765 C   0  0  0  0  0  0  0  0  0  0  0  0
   19.5522   72.5496   -5.6799 O   0  0  0  0  0  0  0  0  0  0  0  0
   18.9901   75.2295   -6.9018 O   0  0  0  0  0  0  0  0  0  0  0  0
   16.5070   74.1124   -6.7509 O   0  0  0  0  0  0  0  0  0  0  0  0
   18.5830   74.7116   -5.6363 C   0  0  1  0  0  0  0  0  0  0  0  0
   17.4793   73.6903   -5.8165 C   0  0  2  0  0  0  0  0  0  0  0  0
   19.7207   73.8576   -5.0908 C   0  0  1  0  0  0  0  0  0  0  0  0
   18.2526   72.4706   -6.2881 C   0  0  2  0  0  0  0  0  0  0  0  0
   18.2796   75.7787   -7.2699 H   0  0  0  0  0  0  0  0  0  0  0  0
   16.0424   74.8905   -6.4052 H   0  0  0  0  0  0  0  0  0  0  0  0
   16.0680   71.2886   -7.6327 O   0  0  0  0  0  0  0  0  0  0  0  0
   15.9343   67.7475   -4.6858 O   0  0  0  0  0  0  0  0  0  0  0  0
   17.6274   71.2397   -5.8941 N   0  0  0  0  0  0  0  0  0  0  0  0
   16.0033   69.5263   -6.1644 N   0  0  0  0  0  0  0  0  0  0  0  0
   16.5359   70.7326   -6.6370 C   0  0  0  0  0  0  0  0  0  0  0  0
   18.0972   70.5486   -4.7825 C   0  0  0  0  0  0  0  0  0  0  0  0
   17.5774   69.4001   -4.3441 C   0  0  0  0  0  0  0  0  0  0  0  0
   16.4344   68.8024   -5.0640 C   0  0  0  0  0  0  0  0  0  0  0  0
   15.2419   69.1542   -6.6660 H   0  0  0  0  0  0  0  0  0  0  0  0
   20.7651   72.2010   -0.8699 O   0  0  0  0  0  0  0  0  0  0  0  0
   20.1146   71.1945    0.2150 P   0  0  2  0  0  0  0  0  0  0  0  0
   19.4228   70.0561   -0.7031 O   0  0  0  0  0  0  0  0  0  0  0  0
   19.1822   71.8570    1.1874 O   0  0  0  0  0  0  0  0  0  0  0  0
   21.3780   70.4565    0.8964 O   0  0  0  0  0  0  0  0  0  0  0  0
   22.6441   72.2376    1.8136 O   0  0  0  0  0  0  0  0  0  0  0  0
   24.9569   69.0614    3.0838 O   0  0  0  0  0  0  0  0  0  0  0  0
   23.3598   70.5026    4.9864 O   0  0  0  0  0  0  0  0  0  0  0  0
   23.7369   69.0007    0.4594 O   0  0  0  0  0  0  0  0  0  0  0  0
   23.7409   69.7373    2.7526 C   0  0  1  0  0  0  0  0  0  0  0  0
   23.6100   70.9615    3.6609 C   0  0  1  0  0  0  0  0  0  0  0  0
   23.7880   70.1591    1.2852 C   0  0  2  0  0  0  0  0  0  0  0  0
   22.4751   71.8813    3.1907 C   0  0  1  0  0  0  0  0  0  0  0  0
   22.6433   71.1113    0.9342 C   0  0  1  0  0  0  0  0  0  0  0  0
   24.9333   68.7904    4.0141 H   0  0  0  0  0  0  0  0  0  0  0  0
   24.0834   69.9225    5.2710 H   0  0  0  0  0  0  0  0  0  0  0  0
   24.4668   68.4061    0.6912 H   0  0  0  0  0  0  0  0  0  0  0  0
   21.6408   72.9758    5.1439 O   0  0  0  0  0  0  0  0  0  0  0  0
   22.4282   73.1842    3.9859 C   0  0  0  0  0  0  0  0  0  0  0  0
   21.6023   73.7967    5.6600 H   0  0  0  0  0  0  0  0  0  0  0  0
 25 28  1  0
 25 24  1  0
 25 26  1  6
 25 27  2  0
  1  4  1  0
  1 24  1  0
  1  2  1  6
  1  3  2  0
  6 11  1  0
  6 12  1  0
 29 36  1  0
 29 37  1  0
  9  7  1  6
  7 13  1  0
 10  8  1  6
  8 14  1  0
 37 28  1  1
  4  5  1  0
 33 30  1  1
 30 38  1  0
 34 31  1  1
 31 39  1  0
 35 32  1  6
 32 40  1  0
 41 42  1  0
 41 43  1  0
 15 19  2  0
 16 22  2  0
 12 17  1  1
 17 19  1  0
 17 20  1  0
 18 19  1  0
 18 22  1  0
 18 23  1  0
  9 10  1  0
  9 11  1  0
 10 12  1  0
 11  5  1  1
 33 34  1  0
 33 35  1  0
 34 36  1  0
 35 37  1  0
 36 42  1  1
 20 21  2  0
 21 22  1  0
M  CHG  2   2  -1  26  -1
M  END
>  <COMPND>  (70) 
    8629 

>  <AUTHOR>  (70) 
    GENERATED BY OPEN BABEL 3.1.1

>  <MASTER>  (70) 
        0    0    0    0    0    0    0    0   58    0   58    0

>  <minimizedAffinity>  (70) 
-8.02836

>  <CNNscore>  (70) 
0.3976835310

>  <CNNaffinity>  (70) 
4.0767068863

>  <CNN_VS>  (70) 
1.6212391853

>  <CNNaffinity_variance>  (70) 
0.2783044279

$$$$
71
     RDKit          3D

 43 45  0  0  0  0  0  0  0  0999 V2000
   17.3299   72.9340   -0.5905 P   0  0  2  0  0  0  0  0  0  0  0  0
   17.0170   73.5187   -2.0662 O   0  0  0  0  0  0  0  0  0  0  0  0
   16.3287   73.3051    0.4636 O   0  0  0  0  0  0  0  0  0  0  0  0
   18.8543   73.3953   -0.3052 O   0  0  0  0  0  0  0  0  0  0  0  0
   19.6915   72.5347    0.4473 C   0  0  0  0  0  0  0  0  0  0  0  0
   22.0670   72.3294    0.1500 O   0  0  0  0  0  0  0  0  0  0  0  0
   21.4441   70.1553   -1.8188 O   0  0  0  0  0  0  0  0  0  0  0  0
   22.1498   68.7534    0.4113 O   0  0  0  0  0  0  0  0  0  0  0  0
   20.7790   70.4875   -0.6012 C   0  0  1  0  0  0  0  0  0  0  0  0
   21.6070   70.0461    0.5876 C   0  0  2  0  0  0  0  0  0  0  0  0
   20.7966   72.0040   -0.4555 C   0  0  1  0  0  0  0  0  0  0  0  0
   22.6745   71.1254    0.6463 C   0  0  2  0  0  0  0  0  0  0  0  0
   21.4452   69.1916   -1.9339 H   0  0  0  0  0  0  0  0  0  0  0  0
   21.4315   68.1024    0.3802 H   0  0  0  0  0  0  0  0  0  0  0  0
   24.3127   69.3369    2.0938 O   0  0  0  0  0  0  0  0  0  0  0  0
   24.4206   72.1196    5.7661 O   0  0  0  0  0  0  0  0  0  0  0  0
   23.1458   71.3575    1.9825 N   0  0  0  0  0  0  0  0  0  0  0  0
   24.3652   70.7240    3.9211 N   0  0  0  0  0  0  0  0  0  0  0  0
   23.9628   70.3951    2.6203 C   0  0  0  0  0  0  0  0  0  0  0  0
   22.7979   72.5289    2.6464 C   0  0  0  0  0  0  0  0  0  0  0  0
   23.1888   72.8269    3.8872 C   0  0  0  0  0  0  0  0  0  0  0  0
   24.0446   71.8746    4.6240 C   0  0  0  0  0  0  0  0  0  0  0  0
   24.9347   70.0683    4.3853 H   0  0  0  0  0  0  0  0  0  0  0  0
   17.4740   71.3453   -0.8520 O   0  0  0  0  0  0  0  0  0  0  0  0
   17.4657   70.4903   -2.2238 P   0  0  2  0  0  0  0  0  0  0  0  0
   15.9603   70.6954   -2.7798 O   0  0  0  0  0  0  0  0  0  0  0  0
   17.8741   69.0552   -2.0569 O   0  0  0  0  0  0  0  0  0  0  0  0
   18.3936   71.3361   -3.2380 O   0  0  0  0  0  0  0  0  0  0  0  0
   18.1732   70.2009   -5.3066 O   0  0  0  0  0  0  0  0  0  0  0  0
   20.6487   73.2810   -6.5048 O   0  0  0  0  0  0  0  0  0  0  0  0
   17.8939   73.2782   -7.3167 O   0  0  0  0  0  0  0  0  0  0  0  0
   21.0219   72.0550   -3.9092 O   0  0  0  0  0  0  0  0  0  0  0  0
   19.5969   72.6732   -5.7500 C   0  0  1  0  0  0  0  0  0  0  0  0
   18.5423   72.1537   -6.7292 C   0  0  1  0  0  0  0  0  0  0  0  0
   20.1745   71.5259   -4.9233 C   0  0  2  0  0  0  0  0  0  0  0  0
   17.5191   71.2583   -6.0177 C   0  0  1  0  0  0  0  0  0  0  0  0
   19.0719   70.6687   -4.2990 C   0  0  1  0  0  0  0  0  0  0  0  0
   20.2887   74.0107   -7.0316 H   0  0  0  0  0  0  0  0  0  0  0  0
   18.5511   73.8357   -7.7623 H   0  0  0  0  0  0  0  0  0  0  0  0
   21.7157   72.5954   -4.3172 H   0  0  0  0  0  0  0  0  0  0  0  0
   15.7098   69.7202   -6.2817 O   0  0  0  0  0  0  0  0  0  0  0  0
   16.5513   70.6029   -7.0006 C   0  0  0  0  0  0  0  0  0  0  0  0
   15.0883   69.2960   -6.8945 H   0  0  0  0  0  0  0  0  0  0  0  0
 25 28  1  0
 25 24  1  0
 25 26  1  6
 25 27  2  0
  1  4  1  0
  1 24  1  0
  1  2  1  6
  1  3  2  0
  6 11  1  0
  6 12  1  0
 29 36  1  0
 29 37  1  0
  9  7  1  6
  7 13  1  0
 10  8  1  6
  8 14  1  0
 37 28  1  1
  4  5  1  0
 33 30  1  6
 30 38  1  0
 34 31  1  1
 31 39  1  0
 35 32  1  1
 32 40  1  0
 41 42  1  0
 41 43  1  0
 15 19  2  0
 16 22  2  0
 12 17  1  1
 17 19  1  0
 17 20  1  0
 18 19  1  0
 18 22  1  0
 18 23  1  0
  9 10  1  0
  9 11  1  0
 10 12  1  0
 11  5  1  1
 33 34  1  0
 33 35  1  0
 34 36  1  0
 35 37  1  0
 36 42  1  6
 20 21  2  0
 21 22  1  0
M  CHG  2   2  -1  26  -1
M  END
>  <COMPND>  (71) 
    8629 

>  <AUTHOR>  (71) 
    GENERATED BY OPEN BABEL 3.1.1

>  <MASTER>  (71) 
        0    0    0    0    0    0    0    0   58    0   58    0

>  <minimizedAffinity>  (71) 
-7.49125

>  <CNNscore>  (71) 
0.3934567273

>  <CNNaffinity>  (71) 
3.9641361237

>  <CNN_VS>  (71) 
1.5597159863

>  <CNNaffinity_variance>  (71) 
0.3766444325

$$$$
72
     RDKit          3D

 43 45  0  0  0  0  0  0  0  0999 V2000
   17.2418   72.4408    0.0446 P   0  0  2  0  0  0  0  0  0  0  0  0
   17.3278   74.0563    0.0628 O   0  0  0  0  0  0  0  0  0  0  0  0
   15.9941   71.8658    0.6479 O   0  0  0  0  0  0  0  0  0  0  0  0
   18.6325   71.9701    0.7245 O   0  0  0  0  0  0  0  0  0  0  0  0
   19.7670   72.8088    0.5934 C   0  0  0  0  0  0  0  0  0  0  0  0
   22.0905   72.3368    0.2031 O   0  0  0  0  0  0  0  0  0  0  0  0
   21.1480   70.2195   -1.6994 O   0  0  0  0  0  0  0  0  0  0  0  0
   21.7887   68.7775    0.5248 O   0  0  0  0  0  0  0  0  0  0  0  0
   20.5761   70.6397   -0.4618 C   0  0  1  0  0  0  0  0  0  0  0  0
   21.4001   70.1248    0.6999 C   0  0  2  0  0  0  0  0  0  0  0  0
   20.7674   72.1466   -0.3441 C   0  0  1  0  0  0  0  0  0  0  0  0
   22.5819   71.0795    0.6957 C   0  0  2  0  0  0  0  0  0  0  0  0
   21.0377   69.2602   -1.7971 H   0  0  0  0  0  0  0  0  0  0  0  0
   21.0022   68.2101    0.5348 H   0  0  0  0  0  0  0  0  0  0  0  0
   24.1682   69.1823    2.0603 O   0  0  0  0  0  0  0  0  0  0  0  0
   24.6385   71.9391    5.7237 O   0  0  0  0  0  0  0  0  0  0  0  0
   23.1324   71.2755    2.0071 N   0  0  0  0  0  0  0  0  0  0  0  0
   24.4012   70.5566    3.8832 N   0  0  0  0  0  0  0  0  0  0  0  0
   23.9147   70.2594    2.6037 C   0  0  0  0  0  0  0  0  0  0  0  0
   22.8950   72.4648    2.6877 C   0  0  0  0  0  0  0  0  0  0  0  0
   23.3651   72.7321    3.9078 C   0  0  0  0  0  0  0  0  0  0  0  0
   24.1917   71.7232    4.6013 C   0  0  0  0  0  0  0  0  0  0  0  0
   24.9485   69.8633    4.3186 H   0  0  0  0  0  0  0  0  0  0  0  0
   17.4610   72.0827   -1.5164 O   0  0  0  0  0  0  0  0  0  0  0  0
   17.2342   70.7054   -2.3315 P   0  0  2  0  0  0  0  0  0  0  0  0
   15.6368   70.6842   -2.5872 O   0  0  0  0  0  0  0  0  0  0  0  0
   17.7665   69.4850   -1.6378 O   0  0  0  0  0  0  0  0  0  0  0  0
   17.8763   70.9812   -3.7864 O   0  0  0  0  0  0  0  0  0  0  0  0
   18.2374   73.0535   -4.8782 O   0  0  0  0  0  0  0  0  0  0  0  0
   17.3656   70.7168   -8.1692 O   0  0  0  0  0  0  0  0  0  0  0  0
   20.0661   71.5864   -7.7229 O   0  0  0  0  0  0  0  0  0  0  0  0
   15.9256   70.3146   -5.6905 O   0  0  0  0  0  0  0  0  0  0  0  0
   17.9089   70.9950   -6.8758 C   0  0  1  0  0  0  0  0  0  0  0  0
   18.9436   72.1127   -7.0206 C   0  0  1  0  0  0  0  0  0  0  0  0
   16.7793   71.4256   -5.9420 C   0  0  2  0  0  0  0  0  0  0  0  0
   19.3750   72.6492   -5.6490 C   0  0  1  0  0  0  0  0  0  0  0  0
   17.3183   71.9888   -4.6258 C   0  0  1  0  0  0  0  0  0  0  0  0
   18.0776   70.4423   -8.7669 H   0  0  0  0  0  0  0  0  0  0  0  0
   19.7800   71.2505   -8.5869 H   0  0  0  0  0  0  0  0  0  0  0  0
   15.5908   69.9673   -6.5314 H   0  0  0  0  0  0  0  0  0  0  0  0
   19.6111   74.8595   -6.5253 O   0  0  0  0  0  0  0  0  0  0  0  0
   20.2862   73.8684   -5.7726 C   0  0  0  0  0  0  0  0  0  0  0  0
   20.1790   75.6416   -6.6118 H   0  0  0  0  0  0  0  0  0  0  0  0
 25 28  1  0
 25 24  1  0
 25 26  1  6
 25 27  2  0
  1  4  1  0
  1 24  1  0
  1  2  1  6
  1  3  2  0
  6 11  1  0
  6 12  1  0
 29 36  1  0
 29 37  1  0
  9  7  1  6
  7 13  1  0
 10  8  1  6
  8 14  1  0
 37 28  1  6
  4  5  1  0
 33 30  1  6
 30 38  1  0
 34 31  1  1
 31 39  1  0
 35 32  1  1
 32 40  1  0
 41 42  1  0
 41 43  1  0
 15 19  2  0
 16 22  2  0
 12 17  1  1
 17 19  1  0
 17 20  1  0
 18 19  1  0
 18 22  1  0
 18 23  1  0
  9 10  1  0
  9 11  1  0
 10 12  1  0
 11  5  1  1
 33 34  1  0
 33 35  1  0
 34 36  1  0
 35 37  1  0
 36 42  1  6
 20 21  2  0
 21 22  1  0
M  CHG  2   2  -1  26  -1
M  END
>  <COMPND>  (72) 
    8629 

>  <AUTHOR>  (72) 
    GENERATED BY OPEN BABEL 3.1.1

>  <MASTER>  (72) 
        0    0    0    0    0    0    0    0   58    0   58    0

>  <minimizedAffinity>  (72) 
-7.68302

>  <CNNscore>  (72) 
0.3663232327

>  <CNNaffinity>  (72) 
4.0016164780

>  <CNN_VS>  (72) 
1.4658850431

>  <CNNaffinity_variance>  (72) 
0.2833552361

$$$$
73
     RDKit          3D

 43 45  0  0  0  0  0  0  0  0999 V2000
   21.6450   71.0523   -2.3070 P   0  0  2  0  0  0  0  0  0  0  0  0
   20.5516   71.8054   -1.3826 O   0  0  0  0  0  0  0  0  0  0  0  0
   22.5423   71.9607   -3.0950 O   0  0  0  0  0  0  0  0  0  0  0  0
   20.7661   70.0070   -3.1747 O   0  0  0  0  0  0  0  0  0  0  0  0
   19.7782   70.5193   -4.0518 C   0  0  0  0  0  0  0  0  0  0  0  0
   17.5644   71.2248   -3.4394 O   0  0  0  0  0  0  0  0  0  0  0  0
   16.7431   68.3706   -3.8516 O   0  0  0  0  0  0  0  0  0  0  0  0
   15.9011   69.5695   -6.1516 O   0  0  0  0  0  0  0  0  0  0  0  0
   17.6996   69.1471   -4.5710 C   0  0  1  0  0  0  0  0  0  0  0  0
   16.9984   70.1433   -5.4708 C   0  0  2  0  0  0  0  0  0  0  0  0
   18.4068   70.0595   -3.5766 C   0  0  1  0  0  0  0  0  0  0  0  0
   16.5765   71.2176   -4.4829 C   0  0  2  0  0  0  0  0  0  0  0  0
   16.2789   67.7797   -4.4658 H   0  0  0  0  0  0  0  0  0  0  0  0
   16.2210   68.8924   -6.7680 H   0  0  0  0  0  0  0  0  0  0  0  0
   14.5768   73.1382   -3.9440 O   0  0  0  0  0  0  0  0  0  0  0  0
   16.4654   76.1854   -6.8404 O   0  0  0  0  0  0  0  0  0  0  0  0
   16.5215   72.5213   -5.0819 N   0  0  0  0  0  0  0  0  0  0  0  0
   15.5189   74.6540   -5.3865 N   0  0  0  0  0  0  0  0  0  0  0  0
   15.4746   73.4102   -4.7438 C   0  0  0  0  0  0  0  0  0  0  0  0
   17.4985   72.9070   -5.9931 C   0  0  0  0  0  0  0  0  0  0  0  0
   17.5258   74.0963   -6.5982 C   0  0  0  0  0  0  0  0  0  0  0  0
   16.4681   75.0835   -6.3004 C   0  0  0  0  0  0  0  0  0  0  0  0
   14.7994   75.2895   -5.1668 H   0  0  0  0  0  0  0  0  0  0  0  0
   22.4132   70.0953   -1.2548 O   0  0  0  0  0  0  0  0  0  0  0  0
   22.1548   69.8236    0.3176 P   0  0  2  0  0  0  0  0  0  0  0  0
   23.3806   68.8527    0.7327 O   0  0  0  0  0  0  0  0  0  0  0  0
   20.7942   69.2720    0.6314 O   0  0  0  0  0  0  0  0  0  0  0  0
   22.4880   71.2304    1.0353 O   0  0  0  0  0  0  0  0  0  0  0  0
   22.4009   71.2556    3.4035 O   0  0  0  0  0  0  0  0  0  0  0  0
   22.2767   75.3218    2.6954 O   0  0  0  0  0  0  0  0  0  0  0  0
   24.6671   74.1407    3.7628 O   0  0  0  0  0  0  0  0  0  0  0  0
   20.8503   73.5076    0.9480 O   0  0  0  0  0  0  0  0  0  0  0  0
   22.6723   73.9687    2.4543 C   0  0  1  0  0  0  0  0  0  0  0  0
   23.4177   73.4596    3.6896 C   0  0  1  0  0  0  0  0  0  0  0  0
   21.4271   73.1239    2.1916 C   0  0  2  0  0  0  0  0  0  0  0  0
   23.6394   71.9428    3.6168 C   0  0  1  0  0  0  0  0  0  0  0  0
   21.7496   71.6285    2.1875 C   0  0  1  0  0  0  0  0  0  0  0  0
   23.0628   75.8637    2.8625 H   0  0  0  0  0  0  0  0  0  0  0  0
   24.5130   75.0975    3.8078 H   0  0  0  0  0  0  0  0  0  0  0  0
   20.6505   74.4561    0.9633 H   0  0  0  0  0  0  0  0  0  0  0  0
   25.5790   71.8380    5.0082 O   0  0  0  0  0  0  0  0  0  0  0  0
   24.2398   71.3900    4.9076 C   0  0  0  0  0  0  0  0  0  0  0  0
   25.9738   71.4940    5.8253 H   0  0  0  0  0  0  0  0  0  0  0  0
 25 28  1  0
 25 24  1  0
 25 26  1  1
 25 27  2  0
  1  4  1  0
  1 24  1  0
  1  2  1  1
  1  3  2  0
  6 11  1  0
  6 12  1  0
 29 36  1  0
 29 37  1  0
  9  7  1  1
  7 13  1  0
 10  8  1  1
  8 14  1  0
 37 28  1  6
  4  5  1  0
 33 30  1  1
 30 38  1  0
 34 31  1  6
 31 39  1  0
 35 32  1  6
 32 40  1  0
 41 42  1  0
 41 43  1  0
 15 19  2  0
 16 22  2  0
 12 17  1  6
 17 19  1  0
 17 20  1  0
 18 19  1  0
 18 22  1  0
 18 23  1  0
  9 10  1  0
  9 11  1  0
 10 12  1  0
 11  5  1  6
 33 34  1  0
 33 35  1  0
 34 36  1  0
 35 37  1  0
 36 42  1  1
 20 21  2  0
 21 22  1  0
M  CHG  2   2  -1  26  -1
M  END
>  <COMPND>  (73) 
    8629 

>  <AUTHOR>  (73) 
    GENERATED BY OPEN BABEL 3.1.1

>  <MASTER>  (73) 
        0    0    0    0    0    0    0    0   58    0   58    0

>  <minimizedAffinity>  (73) 
-7.20919

>  <CNNscore>  (73) 
0.3557176888

>  <CNNaffinity>  (73) 
4.1060161591

>  <CNN_VS>  (73) 
1.4605826139

>  <CNNaffinity_variance>  (73) 
0.0179758184

$$$$
74
     RDKit          3D

 43 45  0  0  0  0  0  0  0  0999 V2000
   20.3340   74.6448   -3.5114 P   0  0  2  0  0  0  0  0  0  0  0  0
   20.4551   74.6661   -1.8982 O   0  0  0  0  0  0  0  0  0  0  0  0
   20.6471   75.9471   -4.1877 O   0  0  0  0  0  0  0  0  0  0  0  0
   18.8535   74.0507   -3.7819 O   0  0  0  0  0  0  0  0  0  0  0  0
   18.1835   73.3952   -2.7193 C   0  0  0  0  0  0  0  0  0  0  0  0
   16.7644   72.9745   -4.6122 O   0  0  0  0  0  0  0  0  0  0  0  0
   14.8954   71.6471   -2.6794 O   0  0  0  0  0  0  0  0  0  0  0  0
   16.1556   69.5255   -3.8400 O   0  0  0  0  0  0  0  0  0  0  0  0
   16.3219   71.6611   -2.6900 C   0  0  1  0  0  0  0  0  0  0  0  0
   16.8486   70.7556   -3.7838 C   0  0  2  0  0  0  0  0  0  0  0  0
   16.7742   73.0349   -3.1691 C   0  0  1  0  0  0  0  0  0  0  0  0
   16.6348   71.6044   -5.0256 C   0  0  2  0  0  0  0  0  0  0  0  0
   14.5830   70.7797   -2.3764 H   0  0  0  0  0  0  0  0  0  0  0  0
   16.3233   69.0223   -3.0279 H   0  0  0  0  0  0  0  0  0  0  0  0
   15.9947   70.9413   -7.6955 O   0  0  0  0  0  0  0  0  0  0  0  0
   20.4382   70.5792   -8.8638 O   0  0  0  0  0  0  0  0  0  0  0  0
   17.6047   71.3322   -6.0486 N   0  0  0  0  0  0  0  0  0  0  0  0
   18.2077   70.7617   -8.2751 N   0  0  0  0  0  0  0  0  0  0  0  0
   17.1783   71.0078   -7.3576 C   0  0  0  0  0  0  0  0  0  0  0  0
   18.9616   71.3887   -5.7497 C   0  0  0  0  0  0  0  0  0  0  0  0
   19.9308   71.1501   -6.6358 C   0  0  0  0  0  0  0  0  0  0  0  0
   19.5704   70.8042   -8.0259 C   0  0  0  0  0  0  0  0  0  0  0  0
   17.9345   70.5334   -9.1932 H   0  0  0  0  0  0  0  0  0  0  0  0
   21.2999   73.4189   -3.9322 O   0  0  0  0  0  0  0  0  0  0  0  0
   22.8000   73.0404   -3.4639 P   0  0  2  0  0  0  0  0  0  0  0  0
   23.4093   74.4611   -2.9866 O   0  0  0  0  0  0  0  0  0  0  0  0
   23.6135   72.3386   -4.5126 O   0  0  0  0  0  0  0  0  0  0  0  0
   22.6025   72.2023   -2.0987 O   0  0  0  0  0  0  0  0  0  0  0  0
   22.3170   69.8635   -2.3541 O   0  0  0  0  0  0  0  0  0  0  0  0
   21.0056   70.2670    1.5406 O   0  0  0  0  0  0  0  0  0  0  0  0
   23.5470   69.0345    1.0207 O   0  0  0  0  0  0  0  0  0  0  0  0
   20.3563   72.2961   -0.4192 O   0  0  0  0  0  0  0  0  0  0  0  0
   21.8171   70.5658    0.4014 C   0  0  1  0  0  0  0  0  0  0  0  0
   22.5785   69.2980    0.0093 C   0  0  1  0  0  0  0  0  0  0  0  0
   20.9186   71.0292   -0.7437 C   0  0  2  0  0  0  0  0  0  0  0  0
   23.2617   69.4619   -1.3551 C   0  0  1  0  0  0  0  0  0  0  0  0
   21.6851   71.1121   -2.0650 C   0  0  1  0  0  0  0  0  0  0  0  0
   21.5701   69.9726    2.2715 H   0  0  0  0  0  0  0  0  0  0  0  0
   23.1026   68.9336    1.8771 H   0  0  0  0  0  0  0  0  0  0  0  0
   19.8735   72.2303    0.4190 H   0  0  0  0  0  0  0  0  0  0  0  0
   23.3996   67.0970   -1.0429 O   0  0  0  0  0  0  0  0  0  0  0  0
   23.8946   68.1586   -1.8380 C   0  0  0  0  0  0  0  0  0  0  0  0
   23.7936   66.2611   -1.3390 H   0  0  0  0  0  0  0  0  0  0  0  0
 25 28  1  0
 25 24  1  0
 25 26  1  1
 25 27  2  0
  1  4  1  0
  1 24  1  0
  1  2  1  1
  1  3  2  0
  6 11  1  0
  6 12  1  0
 29 36  1  0
 29 37  1  0
  9  7  1  6
  7 13  1  0
 10  8  1  6
  8 14  1  0
 37 28  1  1
  4  5  1  0
 33 30  1  1
 30 38  1  0
 34 31  1  1
 31 39  1  0
 35 32  1  1
 32 40  1  0
 41 42  1  0
 41 43  1  0
 15 19  2  0
 16 22  2  0
 12 17  1  6
 17 19  1  0
 17 20  1  0
 18 19  1  0
 18 22  1  0
 18 23  1  0
  9 10  1  0
  9 11  1  0
 10 12  1  0
 11  5  1  1
 33 34  1  0
 33 35  1  0
 34 36  1  0
 35 37  1  0
 36 42  1  6
 20 21  2  0
 21 22  1  0
M  CHG  2   2  -1  26  -1
M  END
>  <COMPND>  (74) 
    8629 

>  <AUTHOR>  (74) 
    GENERATED BY OPEN BABEL 3.1.1

>  <MASTER>  (74) 
        0    0    0    0    0    0    0    0   58    0   58    0

>  <minimizedAffinity>  (74) 
-7.55572

>  <CNNscore>  (74) 
0.3405456543

>  <CNNaffinity>  (74) 
4.1661510468

>  <CNN_VS>  (74) 
1.4187645912

>  <CNNaffinity_variance>  (74) 
0.3837420344

$$$$
75
     RDKit          3D

 43 45  0  0  0  0  0  0  0  0999 V2000
   22.7497   72.8470   -3.2775 P   0  0  2  0  0  0  0  0  0  0  0  0
   23.4386   71.4999   -3.8504 O   0  0  0  0  0  0  0  0  0  0  0  0
   23.6584   74.0383   -3.1962 O   0  0  0  0  0  0  0  0  0  0  0  0
   22.0802   72.3774   -1.8814 O   0  0  0  0  0  0  0  0  0  0  0  0
   22.9319   72.0916   -0.7856 C   0  0  0  0  0  0  0  0  0  0  0  0
   23.1152   70.7623    1.2077 O   0  0  0  0  0  0  0  0  0  0  0  0
   20.3719   69.7428    0.5553 O   0  0  0  0  0  0  0  0  0  0  0  0
   19.8720   71.5976    2.4910 O   0  0  0  0  0  0  0  0  0  0  0  0
   20.9182   71.0471    0.3664 C   0  0  1  0  0  0  0  0  0  0  0  0
   21.0256   71.7695    1.6932 C   0  0  2  0  0  0  0  0  0  0  0  0
   22.3810   70.8903   -0.0296 C   0  0  1  0  0  0  0  0  0  0  0  0
   22.2594   71.1263    2.3031 C   0  0  2  0  0  0  0  0  0  0  0  0
   19.4379   69.8173    0.8086 H   0  0  0  0  0  0  0  0  0  0  0  0
   19.1146   72.0240    2.0606 H   0  0  0  0  0  0  0  0  0  0  0  0
   23.6082   70.3307    4.6538 O   0  0  0  0  0  0  0  0  0  0  0  0
   24.9509   74.6449    5.5627 O   0  0  0  0  0  0  0  0  0  0  0  0
   22.9701   72.0208    3.1728 N   0  0  0  0  0  0  0  0  0  0  0  0
   24.2758   72.4794    5.1044 N   0  0  0  0  0  0  0  0  0  0  0  0
   23.6127   71.5198    4.3288 C   0  0  0  0  0  0  0  0  0  0  0  0
   23.0251   73.3782    2.8758 C   0  0  0  0  0  0  0  0  0  0  0  0
   23.6605   74.2805    3.6263 C   0  0  0  0  0  0  0  0  0  0  0  0
   24.3578   73.8396    4.8517 C   0  0  0  0  0  0  0  0  0  0  0  0
   24.7305   72.1536    5.9149 H   0  0  0  0  0  0  0  0  0  0  0  0
   21.4706   73.0415   -4.2465 O   0  0  0  0  0  0  0  0  0  0  0  0
   21.3606   73.5956   -5.7611 P   0  0  2  0  0  0  0  0  0  0  0  0
   22.6436   72.9345   -6.4921 O   0  0  0  0  0  0  0  0  0  0  0  0
   21.2912   75.0917   -5.8654 O   0  0  0  0  0  0  0  0  0  0  0  0
   20.0906   72.8218   -6.3880 O   0  0  0  0  0  0  0  0  0  0  0  0
   19.0102   70.8765   -5.5724 O   0  0  0  0  0  0  0  0  0  0  0  0
   18.5047   70.2621   -9.6243 O   0  0  0  0  0  0  0  0  0  0  0  0
   16.2500   71.0133   -8.0119 O   0  0  0  0  0  0  0  0  0  0  0  0
   20.9791   71.3907   -8.6326 O   0  0  0  0  0  0  0  0  0  0  0  0
   18.6055   71.0371   -8.4265 C   0  0  1  0  0  0  0  0  0  0  0  0
   17.4980   70.5890   -7.4708 C   0  0  1  0  0  0  0  0  0  0  0  0
   19.9802   70.8113   -7.8000 C   0  0  2  0  0  0  0  0  0  0  0  0
   17.7020   71.1813   -6.0699 C   0  0  1  0  0  0  0  0  0  0  0  0
   20.0610   71.3968   -6.3891 C   0  0  1  0  0  0  0  0  0  0  0  0
   17.6343   70.4013  -10.0273 H   0  0  0  0  0  0  0  0  0  0  0  0
   16.1337   70.6328   -8.8967 H   0  0  0  0  0  0  0  0  0  0  0  0
   20.9177   71.0117   -9.5227 H   0  0  0  0  0  0  0  0  0  0  0  0
   16.0820   69.4818   -5.6268 O   0  0  0  0  0  0  0  0  0  0  0  0
   16.7001   70.6232   -5.0615 C   0  0  0  0  0  0  0  0  0  0  0  0
   15.4419   69.1157   -4.9959 H   0  0  0  0  0  0  0  0  0  0  0  0
 25 28  1  0
 25 24  1  0
 25 26  1  6
 25 27  2  0
  1  4  1  0
  1 24  1  0
  1  2  1  6
  1  3  2  0
  6 11  1  0
  6 12  1  0
 29 36  1  0
 29 37  1  0
  9  7  1  1
  7 13  1  0
 10  8  1  1
  8 14  1  0
 37 28  1  6
  4  5  1  0
 33 30  1  6
 30 38  1  0
 34 31  1  6
 31 39  1  0
 35 32  1  6
 32 40  1  0
 41 42  1  0
 41 43  1  0
 15 19  2  0
 16 22  2  0
 12 17  1  1
 17 19  1  0
 17 20  1  0
 18 19  1  0
 18 22  1  0
 18 23  1  0
  9 10  1  0
  9 11  1  0
 10 12  1  0
 11  5  1  1
 33 34  1  0
 33 35  1  0
 34 36  1  0
 35 37  1  0
 36 42  1  1
 20 21  2  0
 21 22  1  0
M  CHG  2   2  -1  26  -1
M  END
>  <COMPND>  (75) 
    8629 

>  <AUTHOR>  (75) 
    GENERATED BY OPEN BABEL 3.1.1

>  <MASTER>  (75) 
        0    0    0    0    0    0    0    0   58    0   58    0

>  <minimizedAffinity>  (75) 
-8.78613

>  <CNNscore>  (75) 
0.3320271969

>  <CNNaffinity>  (75) 
3.7451698780

>  <CNN_VS>  (75) 
1.2434982061

>  <CNNaffinity_variance>  (75) 
0.2994268537

$$$$
76
     RDKit          3D

 43 45  0  0  0  0  0  0  0  0999 V2000
   23.7423   70.9619    3.9364 P   0  0  2  0  0  0  0  0  0  0  0  0
   24.5372   70.3360    2.6739 O   0  0  0  0  0  0  0  0  0  0  0  0
   23.4420   69.9913    5.0406 O   0  0  0  0  0  0  0  0  0  0  0  0
   22.4583   71.6844    3.2675 O   0  0  0  0  0  0  0  0  0  0  0  0
   21.8761   71.0981    2.1163 C   0  0  0  0  0  0  0  0  0  0  0  0
   22.8392   71.8442    0.0452 O   0  0  0  0  0  0  0  0  0  0  0  0
   20.3058   73.3969   -0.3572 O   0  0  0  0  0  0  0  0  0  0  0  0
   19.9249   71.2153   -1.9484 O   0  0  0  0  0  0  0  0  0  0  0  0
   20.4928   72.1140    0.2382 C   0  0  1  0  0  0  0  0  0  0  0  0
   20.7742   71.0756   -0.8277 C   0  0  2  0  0  0  0  0  0  0  0  0
   21.8062   72.1417    1.0099 C   0  0  1  0  0  0  0  0  0  0  0  0
   22.2307   71.3519   -1.1599 C   0  0  2  0  0  0  0  0  0  0  0  0
   19.4729   73.4037   -0.8553 H   0  0  0  0  0  0  0  0  0  0  0  0
   19.0099   71.0294   -1.6860 H   0  0  0  0  0  0  0  0  0  0  0  0
   23.5624   71.0930   -3.6374 O   0  0  0  0  0  0  0  0  0  0  0  0
   24.8734   66.7774   -2.6896 O   0  0  0  0  0  0  0  0  0  0  0  0
   22.9286   70.1719   -1.5863 N   0  0  0  0  0  0  0  0  0  0  0  0
   24.2142   68.9445   -3.1633 N   0  0  0  0  0  0  0  0  0  0  0  0
   23.5634   70.1445   -2.8499 C   0  0  0  0  0  0  0  0  0  0  0  0
   22.9790   69.0582   -0.7550 C   0  0  0  0  0  0  0  0  0  0  0  0
   23.6027   67.9209   -1.0692 C   0  0  0  0  0  0  0  0  0  0  0  0
   24.2911   67.8097   -2.3714 C   0  0  0  0  0  0  0  0  0  0  0  0
   24.6632   68.9022   -4.0388 H   0  0  0  0  0  0  0  0  0  0  0  0
   24.6749   72.2084    4.3715 O   0  0  0  0  0  0  0  0  0  0  0  0
   24.2932   73.7125    4.8242 P   0  0  2  0  0  0  0  0  0  0  0  0
   25.6658   74.2617    5.4814 O   0  0  0  0  0  0  0  0  0  0  0  0
   23.0967   73.7986    5.7268 O   0  0  0  0  0  0  0  0  0  0  0  0
   24.1477   74.5310    3.4407 O   0  0  0  0  0  0  0  0  0  0  0  0
   24.2842   76.8149    4.0582 O   0  0  0  0  0  0  0  0  0  0  0  0
   23.8173   77.2609   -0.0202 O   0  0  0  0  0  0  0  0  0  0  0  0
   26.3729   77.7861    1.1802 O   0  0  0  0  0  0  0  0  0  0  0  0
   22.3581   75.1914    1.3825 O   0  0  0  0  0  0  0  0  0  0  0  0
   24.2793   76.6296    1.1770 C   0  0  1  0  0  0  0  0  0  0  0  0
   25.1714   77.6201    1.9279 C   0  0  1  0  0  0  0  0  0  0  0  0
   23.0750   76.2365    2.0307 C   0  0  2  0  0  0  0  0  0  0  0  0
   25.4878   77.1179    3.3431 C   0  0  1  0  0  0  0  0  0  0  0  0
   23.4967   75.7988    3.4345 C   0  0  1  0  0  0  0  0  0  0  0  0
   24.5770   77.5126   -0.5670 H   0  0  0  0  0  0  0  0  0  0  0  0
   26.1591   78.1031    0.2885 H   0  0  0  0  0  0  0  0  0  0  0  0
   22.0966   75.4810    0.4950 H   0  0  0  0  0  0  0  0  0  0  0  0
   26.0243   79.4335    3.5858 O   0  0  0  0  0  0  0  0  0  0  0  0
   26.2441   78.1601    4.1640 C   0  0  0  0  0  0  0  0  0  0  0  0
   26.4995   80.1069    4.0981 H   0  0  0  0  0  0  0  0  0  0  0  0
 25 28  1  0
 25 24  1  0
 25 26  1  1
 25 27  2  0
  1  4  1  0
  1 24  1  0
  1  2  1  6
  1  3  2  0
  6 11  1  0
  6 12  1  0
 29 36  1  0
 29 37  1  0
  9  7  1  6
  7 13  1  0
 10  8  1  6
  8 14  1  0
 37 28  1  6
  4  5  1  0
 33 30  1  6
 30 38  1  0
 34 31  1  6
 31 39  1  0
 35 32  1  6
 32 40  1  0
 41 42  1  0
 41 43  1  0
 15 19  2  0
 16 22  2  0
 12 17  1  1
 17 19  1  0
 17 20  1  0
 18 19  1  0
 18 22  1  0
 18 23  1  0
  9 10  1  0
  9 11  1  0
 10 12  1  0
 11  5  1  1
 33 34  1  0
 33 35  1  0
 34 36  1  0
 35 37  1  0
 36 42  1  1
 20 21  2  0
 21 22  1  0
M  CHG  2   2  -1  26  -1
M  END
>  <COMPND>  (76) 
    8629 

>  <AUTHOR>  (76) 
    GENERATED BY OPEN BABEL 3.1.1

>  <MASTER>  (76) 
        0    0    0    0    0    0    0    0   58    0   58    0

>  <minimizedAffinity>  (76) 
-6.61496

>  <CNNscore>  (76) 
0.2877002954

>  <CNNaffinity>  (76) 
3.9665584564

>  <CNN_VS>  (76) 
1.1411800385

>  <CNNaffinity_variance>  (76) 
0.1331701279

$$$$
77
     RDKit          3D

 43 45  0  0  0  0  0  0  0  0999 V2000
   23.1349   72.5929   -3.4233 P   0  0  2  0  0  0  0  0  0  0  0  0
   23.6617   71.0685   -3.5501 O   0  0  0  0  0  0  0  0  0  0  0  0
   24.1460   73.6442   -3.7753 O   0  0  0  0  0  0  0  0  0  0  0  0
   22.5318   72.6720   -1.9240 O   0  0  0  0  0  0  0  0  0  0  0  0
   21.2878   73.3218   -1.7291 C   0  0  0  0  0  0  0  0  0  0  0  0
   20.8597   71.0895   -0.9499 O   0  0  0  0  0  0  0  0  0  0  0  0
   18.0042   71.9480   -0.6340 O   0  0  0  0  0  0  0  0  0  0  0  0
   18.9493   72.0757    1.9208 O   0  0  0  0  0  0  0  0  0  0  0  0
   19.2001   72.6949   -0.4169 C   0  0  1  0  0  0  0  0  0  0  0  0
   19.8724   72.2502    0.8652 C   0  0  2  0  0  0  0  0  0  0  0  0
   20.2153   72.2722   -1.4715 C   0  0  1  0  0  0  0  0  0  0  0  0
   20.5289   70.9474    0.4413 C   0  0  2  0  0  0  0  0  0  0  0  0
   17.3406   72.2010    0.0275 H   0  0  0  0  0  0  0  0  0  0  0  0
   18.5589   72.9324    2.1541 H   0  0  0  0  0  0  0  0  0  0  0  0
   22.1657   68.6804    0.0419 O   0  0  0  0  0  0  0  0  0  0  0  0
   25.1082   69.9973    3.3356 O   0  0  0  0  0  0  0  0  0  0  0  0
   21.7289   70.6730    1.1802 N   0  0  0  0  0  0  0  0  0  0  0  0
   23.6296   69.3381    1.6821 N   0  0  0  0  0  0  0  0  0  0  0  0
   22.4780   69.5058    0.9025 C   0  0  0  0  0  0  0  0  0  0  0  0
   22.1521   71.5562    2.1675 C   0  0  0  0  0  0  0  0  0  0  0  0
   23.2519   71.3811    2.9029 C   0  0  0  0  0  0  0  0  0  0  0  0
   24.0910   70.1868    2.6758 C   0  0  0  0  0  0  0  0  0  0  0  0
   24.1671   68.5318    1.5065 H   0  0  0  0  0  0  0  0  0  0  0  0
   21.8095   72.5975   -4.3488 O   0  0  0  0  0  0  0  0  0  0  0  0
   21.4579   73.4199   -5.6953 P   0  0  2  0  0  0  0  0  0  0  0  0
   22.6367   72.9846   -6.7144 O   0  0  0  0  0  0  0  0  0  0  0  0
   21.3285   74.9021   -5.4950 O   0  0  0  0  0  0  0  0  0  0  0  0
   20.1324   72.7051   -6.2760 O   0  0  0  0  0  0  0  0  0  0  0  0
   19.0212   70.7291   -5.5853 O   0  0  0  0  0  0  0  0  0  0  0  0
   18.4977   70.3881   -9.6671 O   0  0  0  0  0  0  0  0  0  0  0  0
   16.2590   71.0701   -8.0025 O   0  0  0  0  0  0  0  0  0  0  0  0
   20.9925   71.4087   -8.6115 O   0  0  0  0  0  0  0  0  0  0  0  0
   18.6137   71.0818   -8.4218 C   0  0  1  0  0  0  0  0  0  0  0  0
   17.5007   70.5909   -7.4939 C   0  0  1  0  0  0  0  0  0  0  0  0
   19.9857   70.7930   -7.8154 C   0  0  2  0  0  0  0  0  0  0  0  0
   17.7174   71.0873   -6.0580 C   0  0  1  0  0  0  0  0  0  0  0  0
   20.0790   71.2840   -6.3696 C   0  0  1  0  0  0  0  0  0  0  0  0
   17.6289   70.5677  -10.0576 H   0  0  0  0  0  0  0  0  0  0  0  0
   16.1346   70.7499   -8.9098 H   0  0  0  0  0  0  0  0  0  0  0  0
   20.9230   71.0894   -9.5243 H   0  0  0  0  0  0  0  0  0  0  0  0
   15.9591   69.4951   -5.7708 O   0  0  0  0  0  0  0  0  0  0  0  0
   16.7082   70.4814   -5.0850 C   0  0  0  0  0  0  0  0  0  0  0  0
   15.3129   69.1006   -5.1638 H   0  0  0  0  0  0  0  0  0  0  0  0
 25 28  1  0
 25 24  1  0
 25 26  1  6
 25 27  2  0
  1  4  1  0
  1 24  1  0
  1  2  1  1
  1  3  2  0
  6 11  1  0
  6 12  1  0
 29 36  1  0
 29 37  1  0
  9  7  1  6
  7 13  1  0
 10  8  1  1
  8 14  1  0
 37 28  1  6
  4  5  1  0
 33 30  1  6
 30 38  1  0
 34 31  1  6
 31 39  1  0
 35 32  1  6
 32 40  1  0
 41 42  1  0
 41 43  1  0
 15 19  2  0
 16 22  2  0
 12 17  1  1
 17 19  1  0
 17 20  1  0
 18 19  1  0
 18 22  1  0
 18 23  1  0
  9 10  1  0
  9 11  1  0
 10 12  1  0
 11  5  1  1
 33 34  1  0
 33 35  1  0
 34 36  1  0
 35 37  1  0
 36 42  1  1
 20 21  2  0
 21 22  1  0
M  CHG  2   2  -1  26  -1
M  END
>  <COMPND>  (77) 
    8629 

>  <AUTHOR>  (77) 
    GENERATED BY OPEN BABEL 3.1.1

>  <MASTER>  (77) 
        0    0    0    0    0    0    0    0   58    0   58    0

>  <minimizedAffinity>  (77) 
-8.53942

>  <CNNscore>  (77) 
0.2865462005

>  <CNNaffinity>  (77) 
3.8482422829

>  <CNN_VS>  (77) 
1.1026991606

>  <CNNaffinity_variance>  (77) 
0.4661916792

$$$$
78
     RDKit          3D

 43 45  0  0  0  0  0  0  0  0999 V2000
   22.7073   72.9741   -3.4260 P   0  0  2  0  0  0  0  0  0  0  0  0
   23.8753   72.2618   -4.2897 O   0  0  0  0  0  0  0  0  0  0  0  0
   23.0315   74.3564   -2.9405 O   0  0  0  0  0  0  0  0  0  0  0  0
   22.3576   71.8898   -2.2772 O   0  0  0  0  0  0  0  0  0  0  0  0
   22.4562   72.2866   -0.9205 C   0  0  0  0  0  0  0  0  0  0  0  0
   21.7510   69.9955   -0.7560 O   0  0  0  0  0  0  0  0  0  0  0  0
   21.5053   70.4784    2.1932 O   0  0  0  0  0  0  0  0  0  0  0  0
   23.8869   69.1637    2.0025 O   0  0  0  0  0  0  0  0  0  0  0  0
   22.4639   70.9945    1.2712 C   0  0  1  0  0  0  0  0  0  0  0  0
   23.4570   69.9175    0.8872 C   0  0  2  0  0  0  0  0  0  0  0  0
   21.7512   71.2555   -0.0499 C   0  0  1  0  0  0  0  0  0  0  0  0
   22.6568   69.0901   -0.1043 C   0  0  2  0  0  0  0  0  0  0  0  0
   21.9372   70.3042    3.0447 H   0  0  0  0  0  0  0  0  0  0  0  0
   24.3911   69.7341    2.6035 H   0  0  0  0  0  0  0  0  0  0  0  0
   22.9283   66.2984   -0.4369 O   0  0  0  0  0  0  0  0  0  0  0  0
   25.8769   66.8181   -3.9408 O   0  0  0  0  0  0  0  0  0  0  0  0
   23.4885   68.4684   -1.0959 N   0  0  0  0  0  0  0  0  0  0  0  0
   24.3961   66.5594   -2.1814 N   0  0  0  0  0  0  0  0  0  0  0  0
   23.5551   67.0580   -1.1784 C   0  0  0  0  0  0  0  0  0  0  0  0
   24.2266   69.2552   -1.9735 C   0  0  0  0  0  0  0  0  0  0  0  0
   25.0250   68.7642   -2.9236 C   0  0  0  0  0  0  0  0  0  0  0  0
   25.1510   67.3004   -3.0769 C   0  0  0  0  0  0  0  0  0  0  0  0
   24.4586   65.5796   -2.2575 H   0  0  0  0  0  0  0  0  0  0  0  0
   21.4261   72.8892   -4.4079 O   0  0  0  0  0  0  0  0  0  0  0  0
   20.8974   73.9002   -5.5531 P   0  0  2  0  0  0  0  0  0  0  0  0
   22.2117   74.1501   -6.4629 O   0  0  0  0  0  0  0  0  0  0  0  0
   20.2640   75.1537   -5.0227 O   0  0  0  0  0  0  0  0  0  0  0  0
   19.9274   72.9998   -6.4768 O   0  0  0  0  0  0  0  0  0  0  0  0
   18.9376   71.0577   -5.5467 O   0  0  0  0  0  0  0  0  0  0  0  0
   18.5582   70.1369   -9.5540 O   0  0  0  0  0  0  0  0  0  0  0  0
   16.2297   70.8693   -8.0408 O   0  0  0  0  0  0  0  0  0  0  0  0
   20.9436   71.4694   -8.5982 O   0  0  0  0  0  0  0  0  0  0  0  0
   18.5891   70.9974   -8.4121 C   0  0  1  0  0  0  0  0  0  0  0  0
   17.4866   70.5547   -7.4481 C   0  0  1  0  0  0  0  0  0  0  0  0
   19.9597   70.8935   -7.7458 C   0  0  2  0  0  0  0  0  0  0  0  0
   17.6262   71.2530   -6.0887 C   0  0  1  0  0  0  0  0  0  0  0  0
   19.9763   71.5788   -6.3782 C   0  0  1  0  0  0  0  0  0  0  0  0
   17.6907   70.1985   -9.9820 H   0  0  0  0  0  0  0  0  0  0  0  0
   16.1545   70.4226   -8.8987 H   0  0  0  0  0  0  0  0  0  0  0  0
   20.9233   71.0267   -9.4605 H   0  0  0  0  0  0  0  0  0  0  0  0
   15.9675   69.5963   -5.6272 O   0  0  0  0  0  0  0  0  0  0  0  0
   16.6340   70.7103   -5.0624 C   0  0  0  0  0  0  0  0  0  0  0  0
   15.3330   69.2402   -4.9850 H   0  0  0  0  0  0  0  0  0  0  0  0
 25 28  1  0
 25 24  1  0
 25 26  1  6
 25 27  2  0
  1  4  1  0
  1 24  1  0
  1  2  1  6
  1  3  2  0
  6 11  1  0
  6 12  1  0
 29 36  1  0
 29 37  1  0
  9  7  1  1
  7 13  1  0
 10  8  1  1
  8 14  1  0
 37 28  1  6
  4  5  1  0
 33 30  1  6
 30 38  1  0
 34 31  1  6
 31 39  1  0
 35 32  1  6
 32 40  1  0
 41 42  1  0
 41 43  1  0
 15 19  2  0
 16 22  2  0
 12 17  1  6
 17 19  1  0
 17 20  1  0
 18 19  1  0
 18 22  1  0
 18 23  1  0
  9 10  1  0
  9 11  1  0
 10 12  1  0
 11  5  1  6
 33 34  1  0
 33 35  1  0
 34 36  1  0
 35 37  1  0
 36 42  1  1
 20 21  2  0
 21 22  1  0
M  CHG  2   2  -1  26  -1
M  END
>  <COMPND>  (78) 
    8629 

>  <AUTHOR>  (78) 
    GENERATED BY OPEN BABEL 3.1.1

>  <MASTER>  (78) 
        0    0    0    0    0    0    0    0   58    0   58    0

>  <minimizedAffinity>  (78) 
-8.84051

>  <CNNscore>  (78) 
0.2839512229

>  <CNNaffinity>  (78) 
4.1311655045

>  <CNN_VS>  (78) 
1.1730494499

>  <CNNaffinity_variance>  (78) 
0.6375948787

$$$$
79
     RDKit          3D

 43 45  0  0  0  0  0  0  0  0999 V2000
   18.1186   70.3445   -3.0181 P   0  0  2  0  0  0  0  0  0  0  0  0
   17.7294   69.1976   -1.9455 O   0  0  0  0  0  0  0  0  0  0  0  0
   17.3799   71.6405   -2.8563 O   0  0  0  0  0  0  0  0  0  0  0  0
   17.9460   69.6116   -4.4502 O   0  0  0  0  0  0  0  0  0  0  0  0
   16.8126   69.9281   -5.2395 C   0  0  0  0  0  0  0  0  0  0  0  0
   16.2816   71.2660   -7.1636 O   0  0  0  0  0  0  0  0  0  0  0  0
   19.1870   71.0603   -7.8756 O   0  0  0  0  0  0  0  0  0  0  0  0
   19.0196   73.5496   -6.7748 O   0  0  0  0  0  0  0  0  0  0  0  0
   18.5786   71.1658   -6.5895 C   0  0  1  0  0  0  0  0  0  0  0  0
   18.0829   72.5778   -6.3566 C   0  0  2  0  0  0  0  0  0  0  0  0
   17.2779   70.3729   -6.6193 C   0  0  1  0  0  0  0  0  0  0  0  0
   16.8065   72.6035   -7.1802 C   0  0  2  0  0  0  0  0  0  0  0  0
   20.0199   71.5586   -7.8810 H   0  0  0  0  0  0  0  0  0  0  0  0
   19.8136   73.4931   -6.2206 H   0  0  0  0  0  0  0  0  0  0  0  0
   15.0197   74.1429   -8.7344 O   0  0  0  0  0  0  0  0  0  0  0  0
   13.0753   75.9997   -4.9910 O   0  0  0  0  0  0  0  0  0  0  0  0
   15.8226   73.4974   -6.6378 N   0  0  0  0  0  0  0  0  0  0  0  0
   14.0528   75.0661   -6.8692 N   0  0  0  0  0  0  0  0  0  0  0  0
   14.9748   74.2249   -7.5052 C   0  0  0  0  0  0  0  0  0  0  0  0
   15.7055   73.6455   -5.2600 C   0  0  0  0  0  0  0  0  0  0  0  0
   14.8220   74.4528   -4.6694 C   0  0  0  0  0  0  0  0  0  0  0  0
   13.8988   75.2484   -5.5040 C   0  0  0  0  0  0  0  0  0  0  0  0
   13.4520   75.5831   -7.4535 H   0  0  0  0  0  0  0  0  0  0  0  0
   19.7231   70.4604   -2.8603 O   0  0  0  0  0  0  0  0  0  0  0  0
   20.6305   71.1129   -1.6925 P   0  0  2  0  0  0  0  0  0  0  0  0
   21.8733   70.0843   -1.5698 O   0  0  0  0  0  0  0  0  0  0  0  0
   19.8967   71.3538   -0.4051 O   0  0  0  0  0  0  0  0  0  0  0  0
   21.2635   72.4392   -2.3598 O   0  0  0  0  0  0  0  0  0  0  0  0
   20.6252   73.6781   -4.2767 O   0  0  0  0  0  0  0  0  0  0  0  0
   24.7285   73.9423   -4.6564 O   0  0  0  0  0  0  0  0  0  0  0  0
   23.2267   76.2557   -3.8558 O   0  0  0  0  0  0  0  0  0  0  0  0
   23.5199   71.4819   -3.7262 O   0  0  0  0  0  0  0  0  0  0  0  0
   23.4867   73.8799   -3.9496 C   0  0  1  0  0  0  0  0  0  0  0  0
   22.6300   75.0724   -4.3792 C   0  0  1  0  0  0  0  0  0  0  0  0
   22.7860   72.5651   -4.2869 C   0  0  2  0  0  0  0  0  0  0  0  0
   21.1889   74.9309   -3.8710 C   0  0  1  0  0  0  0  0  0  0  0  0
   21.3433   72.5475   -3.7787 C   0  0  1  0  0  0  0  0  0  0  0  0
   25.1788   74.7745   -4.4462 H   0  0  0  0  0  0  0  0  0  0  0  0
   24.1364   76.3329   -4.1839 H   0  0  0  0  0  0  0  0  0  0  0  0
   24.4313   71.5040   -4.0559 H   0  0  0  0  0  0  0  0  0  0  0  0
   18.9743   75.4978   -4.5660 O   0  0  0  0  0  0  0  0  0  0  0  0
   20.2788   76.0279   -4.4191 C   0  0  0  0  0  0  0  0  0  0  0  0
   18.3840   76.1851   -4.9138 H   0  0  0  0  0  0  0  0  0  0  0  0
 25 28  1  0
 25 24  1  0
 25 26  1  1
 25 27  2  0
  1  4  1  0
  1 24  1  0
  1  2  1  1
  1  3  2  0
  6 11  1  0
  6 12  1  0
 29 36  1  0
 29 37  1  0
  9  7  1  6
  7 13  1  0
 10  8  1  6
  8 14  1  0
 37 28  1  1
  4  5  1  0
 33 30  1  6
 30 38  1  0
 34 31  1  1
 31 39  1  0
 35 32  1  1
 32 40  1  0
 41 42  1  0
 41 43  1  0
 15 19  2  0
 16 22  2  0
 12 17  1  1
 17 19  1  0
 17 20  1  0
 18 19  1  0
 18 22  1  0
 18 23  1  0
  9 10  1  0
  9 11  1  0
 10 12  1  0
 11  5  1  1
 33 34  1  0
 33 35  1  0
 34 36  1  0
 35 37  1  0
 36 42  1  6
 20 21  2  0
 21 22  1  0
M  CHG  2   2  -1  26  -1
M  END
>  <COMPND>  (79) 
    8629 

>  <AUTHOR>  (79) 
    GENERATED BY OPEN BABEL 3.1.1

>  <MASTER>  (79) 
        0    0    0    0    0    0    0    0   58    0   58    0

>  <minimizedAffinity>  (79) 
-6.20955

>  <CNNscore>  (79) 
0.2765688300

>  <CNNaffinity>  (79) 
3.8509070873

>  <CNN_VS>  (79) 
1.0650408268

>  <CNNaffinity_variance>  (79) 
0.2447790653

$$$$
80
     RDKit          3D

 43 45  0  0  0  0  0  0  0  0999 V2000
   23.0635   72.5717   -3.8650 P   0  0  2  0  0  0  0  0  0  0  0  0
   23.4780   71.0533   -3.4908 O   0  0  0  0  0  0  0  0  0  0  0  0
   24.1680   73.4057   -4.4446 O   0  0  0  0  0  0  0  0  0  0  0  0
   22.3950   73.1382   -2.5048 O   0  0  0  0  0  0  0  0  0  0  0  0
   22.1673   72.2356   -1.4365 C   0  0  0  0  0  0  0  0  0  0  0  0
   21.1251   72.0078    0.7165 O   0  0  0  0  0  0  0  0  0  0  0  0
   20.7337   74.9795    0.6335 O   0  0  0  0  0  0  0  0  0  0  0  0
   22.9055   74.7112    2.2607 O   0  0  0  0  0  0  0  0  0  0  0  0
   21.8233   74.1990    0.1447 C   0  0  1  0  0  0  0  0  0  0  0  0
   22.6744   73.7051    1.2959 C   0  0  2  0  0  0  0  0  0  0  0  0
   21.2566   72.8991   -0.4125 C   0  0  1  0  0  0  0  0  0  0  0  0
   21.8381   72.5577    1.8364 C   0  0  2  0  0  0  0  0  0  0  0  0
   21.0709   75.8150    0.9941 H   0  0  0  0  0  0  0  0  0  0  0  0
   23.4414   75.4183    1.8688 H   0  0  0  0  0  0  0  0  0  0  0  0
   22.4468   72.3940    4.5897 O   0  0  0  0  0  0  0  0  0  0  0  0
   24.9315   68.5574    3.9994 O   0  0  0  0  0  0  0  0  0  0  0  0
   22.6417   71.5263    2.4296 N   0  0  0  0  0  0  0  0  0  0  0  0
   23.6833   70.4837    4.2936 N   0  0  0  0  0  0  0  0  0  0  0  0
   22.8882   71.5362    3.8223 C   0  0  0  0  0  0  0  0  0  0  0  0
   23.1755   70.5193    1.6328 C   0  0  0  0  0  0  0  0  0  0  0  0
   23.9329   69.5235    2.0975 C   0  0  0  0  0  0  0  0  0  0  0  0
   24.2380   69.4604    3.5415 C   0  0  0  0  0  0  0  0  0  0  0  0
   23.8687   70.4703    5.2607 H   0  0  0  0  0  0  0  0  0  0  0  0
   21.7896   72.3710   -4.8397 O   0  0  0  0  0  0  0  0  0  0  0  0
   21.3272   73.1777   -6.1619 P   0  0  2  0  0  0  0  0  0  0  0  0
   22.2459   72.5355   -7.3286 O   0  0  0  0  0  0  0  0  0  0  0  0
   21.4338   74.6703   -6.0409 O   0  0  0  0  0  0  0  0  0  0  0  0
   19.8384   72.6363   -6.4709 O   0  0  0  0  0  0  0  0  0  0  0  0
   19.4755   70.4849   -5.5455 O   0  0  0  0  0  0  0  0  0  0  0  0
   16.0611   70.7980   -7.8464 O   0  0  0  0  0  0  0  0  0  0  0  0
   15.8676   70.9959   -4.9878 O   0  0  0  0  0  0  0  0  0  0  0  0
   18.5741   71.8321   -8.8437 O   0  0  0  0  0  0  0  0  0  0  0  0
   17.1161   71.2777   -7.0085 C   0  0  1  0  0  0  0  0  0  0  0  0
   17.0352   70.5442   -5.6682 C   0  0  1  0  0  0  0  0  0  0  0  0
   18.4565   71.0074   -7.6894 C   0  0  2  0  0  0  0  0  0  0  0  0
   18.2849   70.8064   -4.8169 C   0  0  1  0  0  0  0  0  0  0  0  0
   19.6314   71.2523   -6.7408 C   0  0  1  0  0  0  0  0  0  0  0  0
   15.2071   70.9670   -7.4201 H   0  0  0  0  0  0  0  0  0  0  0  0
   15.0858   70.8249   -5.5363 H   0  0  0  0  0  0  0  0  0  0  0  0
   17.8247   71.6675   -9.4363 H   0  0  0  0  0  0  0  0  0  0  0  0
   17.1837   69.0887   -3.5737 O   0  0  0  0  0  0  0  0  0  0  0  0
   18.2982   69.9612   -3.5451 C   0  0  0  0  0  0  0  0  0  0  0  0
   17.1794   68.5442   -2.7705 H   0  0  0  0  0  0  0  0  0  0  0  0
 25 28  1  0
 25 24  1  0
 25 26  1  6
 25 27  2  0
  1  4  1  0
  1 24  1  0
  1  2  1  1
  1  3  2  0
  6 11  1  0
  6 12  1  0
 29 36  1  0
 29 37  1  0
  9  7  1  1
  7 13  1  0
 10  8  1  1
  8 14  1  0
 37 28  1  1
  4  5  1  0
 33 30  1  6
 30 38  1  0
 34 31  1  1
 31 39  1  0
 35 32  1  6
 32 40  1  0
 41 42  1  0
 41 43  1  0
 15 19  2  0
 16 22  2  0
 12 17  1  6
 17 19  1  0
 17 20  1  0
 18 19  1  0
 18 22  1  0
 18 23  1  0
  9 10  1  0
  9 11  1  0
 10 12  1  0
 11  5  1  6
 33 34  1  0
 33 35  1  0
 34 36  1  0
 35 37  1  0
 36 42  1  1
 20 21  2  0
 21 22  1  0
M  CHG  2   2  -1  26  -1
M  END
>  <COMPND>  (80) 
    8629 

>  <AUTHOR>  (80) 
    GENERATED BY OPEN BABEL 3.1.1

>  <MASTER>  (80) 
        0    0    0    0    0    0    0    0   58    0   58    0

>  <minimizedAffinity>  (80) 
-7.63261

>  <CNNscore>  (80) 
0.2701416612

>  <CNNaffinity>  (80) 
3.7522442341

>  <CNN_VS>  (80) 
1.0136375427

>  <CNNaffinity_variance>  (80) 
0.2448206842

$$$$
81
     RDKit          3D

 43 45  0  0  0  0  0  0  0  0999 V2000
   20.3365   70.7083   -0.0172 P   0  0  2  0  0  0  0  0  0  0  0  0
   20.8613   69.3153    0.6165 O   0  0  0  0  0  0  0  0  0  0  0  0
   19.2742   71.4067    0.7797 O   0  0  0  0  0  0  0  0  0  0  0  0
   19.9335   70.3172   -1.5346 O   0  0  0  0  0  0  0  0  0  0  0  0
   19.7291   71.3615   -2.4704 C   0  0  0  0  0  0  0  0  0  0  0  0
   17.9765   72.1423   -3.9169 O   0  0  0  0  0  0  0  0  0  0  0  0
   16.0754   70.7860   -2.0361 O   0  0  0  0  0  0  0  0  0  0  0  0
   16.2421   69.0083   -4.0972 O   0  0  0  0  0  0  0  0  0  0  0  0
   17.3809   70.3823   -2.4460 C   0  0  1  0  0  0  0  0  0  0  0  0
   17.3473   69.8580   -3.8664 C   0  0  2  0  0  0  0  0  0  0  0  0
   18.2361   71.6351   -2.5896 C   0  0  1  0  0  0  0  0  0  0  0  0
   17.2762   71.1423   -4.6748 C   0  0  2  0  0  0  0  0  0  0  0  0
   15.5110   70.0027   -1.9374 H   0  0  0  0  0  0  0  0  0  0  0  0
   16.3337   68.2055   -3.5607 H   0  0  0  0  0  0  0  0  0  0  0  0
   15.9953   70.1018   -6.9671 O   0  0  0  0  0  0  0  0  0  0  0  0
   19.7569   70.6953   -9.5632 O   0  0  0  0  0  0  0  0  0  0  0  0
   17.8971   71.0138   -5.9630 N   0  0  0  0  0  0  0  0  0  0  0  0
   17.8692   70.3983   -8.2579 N   0  0  0  0  0  0  0  0  0  0  0  0
   17.1665   70.4777   -7.0488 C   0  0  0  0  0  0  0  0  0  0  0  0
   19.2161   71.4174   -6.1398 C   0  0  0  0  0  0  0  0  0  0  0  0
   19.8723   71.3339   -7.2990 C   0  0  0  0  0  0  0  0  0  0  0  0
   19.1808   70.7851   -8.4834 C   0  0  0  0  0  0  0  0  0  0  0  0
   17.3805   70.0276   -9.0283 H   0  0  0  0  0  0  0  0  0  0  0  0
   21.6993   71.5560   -0.2102 O   0  0  0  0  0  0  0  0  0  0  0  0
   22.0558   73.0900    0.1540 P   0  0  2  0  0  0  0  0  0  0  0  0
   20.6059   73.7522    0.4312 O   0  0  0  0  0  0  0  0  0  0  0  0
   22.8702   73.7971   -0.8903 O   0  0  0  0  0  0  0  0  0  0  0  0
   22.7534   73.0132    1.6075 O   0  0  0  0  0  0  0  0  0  0  0  0
   22.5529   71.0840    2.9694 O   0  0  0  0  0  0  0  0  0  0  0  0
   23.3632   73.8788    5.8992 O   0  0  0  0  0  0  0  0  0  0  0  0
   25.3771   71.9663    5.1681 O   0  0  0  0  0  0  0  0  0  0  0  0
   21.6638   74.5816    3.6636 O   0  0  0  0  0  0  0  0  0  0  0  0
   23.4631   73.2843    4.6023 C   0  0  1  0  0  0  0  0  0  0  0  0
   24.0138   71.8663    4.7658 C   0  0  1  0  0  0  0  0  0  0  0  0
   22.0775   73.2521    3.9599 C   0  0  2  0  0  0  0  0  0  0  0  0
   23.8997   71.0733    3.4569 C   0  0  1  0  0  0  0  0  0  0  0  0
   22.0628   72.3972    2.6914 C   0  0  1  0  0  0  0  0  0  0  0  0
   24.2397   73.9027    6.3124 H   0  0  0  0  0  0  0  0  0  0  0  0
   25.4353   72.4696    5.9954 H   0  0  0  0  0  0  0  0  0  0  0  0
   21.6771   75.1126    4.4747 H   0  0  0  0  0  0  0  0  0  0  0  0
   25.5162   69.3870    2.9546 O   0  0  0  0  0  0  0  0  0  0  0  0
   24.2968   69.6099    3.6384 C   0  0  0  0  0  0  0  0  0  0  0  0
   25.7814   68.4597    3.0616 H   0  0  0  0  0  0  0  0  0  0  0  0
 25 28  1  0
 25 24  1  0
 25 26  1  1
 25 27  2  0
  1  4  1  0
  1 24  1  0
  1  2  1  1
  1  3  2  0
  6 11  1  0
  6 12  1  0
 29 36  1  0
 29 37  1  0
  9  7  1  6
  7 13  1  0
 10  8  1  1
  8 14  1  0
 37 28  1  6
  4  5  1  0
 33 30  1  1
 30 38  1  0
 34 31  1  6
 31 39  1  0
 35 32  1  6
 32 40  1  0
 41 42  1  0
 41 43  1  0
 15 19  2  0
 16 22  2  0
 12 17  1  6
 17 19  1  0
 17 20  1  0
 18 19  1  0
 18 22  1  0
 18 23  1  0
  9 10  1  0
  9 11  1  0
 10 12  1  0
 11  5  1  6
 33 34  1  0
 33 35  1  0
 34 36  1  0
 35 37  1  0
 36 42  1  1
 20 21  2  0
 21 22  1  0
M  CHG  2   2  -1  26  -1
M  END
>  <COMPND>  (81) 
    8629 

>  <AUTHOR>  (81) 
    GENERATED BY OPEN BABEL 3.1.1

>  <MASTER>  (81) 
        0    0    0    0    0    0    0    0   58    0   58    0

>  <minimizedAffinity>  (81) 
-8.17376

>  <CNNscore>  (81) 
0.9130114913

>  <CNNaffinity>  (81) 
4.7988071442

>  <CNN_VS>  (81) 
4.3813662529

>  <CNNaffinity_variance>  (81) 
0.1482546031

$$$$
82
     RDKit          3D

 43 45  0  0  0  0  0  0  0  0999 V2000
   22.6142   71.5709   -2.7226 P   0  0  2  0  0  0  0  0  0  0  0  0
   23.0825   70.0302   -2.5660 O   0  0  0  0  0  0  0  0  0  0  0  0
   22.7226   72.3962   -1.4742 O   0  0  0  0  0  0  0  0  0  0  0  0
   21.1343   71.4633   -3.3676 O   0  0  0  0  0  0  0  0  0  0  0  0
   20.2516   70.4713   -2.8730 C   0  0  0  0  0  0  0  0  0  0  0  0
   18.5838   71.7378   -4.0512 O   0  0  0  0  0  0  0  0  0  0  0  0
   16.6087   70.5895   -2.1093 O   0  0  0  0  0  0  0  0  0  0  0  0
   16.2258   69.0495   -4.3270 O   0  0  0  0  0  0  0  0  0  0  0  0
   17.7618   69.9816   -2.6889 C   0  0  1  0  0  0  0  0  0  0  0  0
   17.4993   69.6324   -4.1390 C   0  0  2  0  0  0  0  0  0  0  0  0
   18.8438   71.0475   -2.8093 C   0  0  1  0  0  0  0  0  0  0  0  0
   17.6289   70.9855   -4.8174 C   0  0  2  0  0  0  0  0  0  0  0  0
   15.9039   69.9280   -2.0220 H   0  0  0  0  0  0  0  0  0  0  0  0
   16.1933   68.1910   -3.8770 H   0  0  0  0  0  0  0  0  0  0  0  0
   16.0169   70.2271   -7.0093 O   0  0  0  0  0  0  0  0  0  0  0  0
   19.5356   70.6028   -9.9621 O   0  0  0  0  0  0  0  0  0  0  0  0
   18.0978   70.8773   -6.1701 N   0  0  0  0  0  0  0  0  0  0  0  0
   17.7702   70.4150   -8.4778 N   0  0  0  0  0  0  0  0  0  0  0  0
   17.2070   70.4876   -7.1973 C   0  0  0  0  0  0  0  0  0  0  0  0
   19.4273   71.1565   -6.4671 C   0  0  0  0  0  0  0  0  0  0  0  0
   19.9491   71.0813   -7.6932 C   0  0  0  0  0  0  0  0  0  0  0  0
   19.0857   70.6813   -8.8231 C   0  0  0  0  0  0  0  0  0  0  0  0
   17.1685   70.1451   -9.2092 H   0  0  0  0  0  0  0  0  0  0  0  0
   23.5117   72.0997   -3.9586 O   0  0  0  0  0  0  0  0  0  0  0  0
   23.5991   73.5525   -4.6619 P   0  0  2  0  0  0  0  0  0  0  0  0
   23.0723   73.2694   -6.1651 O   0  0  0  0  0  0  0  0  0  0  0  0
   24.9566   74.1898   -4.5912 O   0  0  0  0  0  0  0  0  0  0  0  0
   22.4200   74.4120   -3.9718 O   0  0  0  0  0  0  0  0  0  0  0  0
   21.5827   76.6274   -4.0564 O   0  0  0  0  0  0  0  0  0  0  0  0
   21.9036   76.1992    0.0381 O   0  0  0  0  0  0  0  0  0  0  0  0
   19.3065   76.2044   -1.1878 O   0  0  0  0  0  0  0  0  0  0  0  0
   23.9255   75.0647   -1.6953 O   0  0  0  0  0  0  0  0  0  0  0  0
   21.6549   75.7654   -1.3018 C   0  0  1  0  0  0  0  0  0  0  0  0
   20.4979   76.5919   -1.8666 C   0  0  1  0  0  0  0  0  0  0  0  0
   22.9186   75.9697   -2.1353 C   0  0  2  0  0  0  0  0  0  0  0  0
   20.3470   76.3735   -3.3780 C   0  0  1  0  0  0  0  0  0  0  0  0
   22.6478   75.7763   -3.6284 C   0  0  1  0  0  0  0  0  0  0  0  0
   21.1052   76.0717    0.5727 H   0  0  0  0  0  0  0  0  0  0  0  0
   19.4151   76.3469   -0.2344 H   0  0  0  0  0  0  0  0  0  0  0  0
   24.0879   75.1973   -0.7487 H   0  0  0  0  0  0  0  0  0  0  0  0
   18.8939   78.2322   -3.0002 O   0  0  0  0  0  0  0  0  0  0  0  0
   19.3029   77.3054   -3.9892 C   0  0  0  0  0  0  0  0  0  0  0  0
   18.2296   78.8320   -3.3751 H   0  0  0  0  0  0  0  0  0  0  0  0
 25 28  1  0
 25 24  1  0
 25 26  1  6
 25 27  2  0
  1  4  1  0
  1 24  1  0
  1  2  1  1
  1  3  2  0
  6 11  1  0
  6 12  1  0
 29 36  1  0
 29 37  1  0
  9  7  1  6
  7 13  1  0
 10  8  1  1
  8 14  1  0
 37 28  1  1
  4  5  1  0
 33 30  1  1
 30 38  1  0
 34 31  1  1
 31 39  1  0
 35 32  1  1
 32 40  1  0
 41 42  1  0
 41 43  1  0
 15 19  2  0
 16 22  2  0
 12 17  1  6
 17 19  1  0
 17 20  1  0
 18 19  1  0
 18 22  1  0
 18 23  1  0
  9 10  1  0
  9 11  1  0
 10 12  1  0
 11  5  1  6
 33 34  1  0
 33 35  1  0
 34 36  1  0
 35 37  1  0
 36 42  1  6
 20 21  2  0
 21 22  1  0
M  CHG  2   2  -1  26  -1
M  END
>  <COMPND>  (82) 
    8629 

>  <AUTHOR>  (82) 
    GENERATED BY OPEN BABEL 3.1.1

>  <MASTER>  (82) 
        0    0    0    0    0    0    0    0   58    0   58    0

>  <minimizedAffinity>  (82) 
-6.14517

>  <CNNscore>  (82) 
0.8719218373

>  <CNNaffinity>  (82) 
4.6134233475

>  <CNN_VS>  (82) 
4.0225443840

>  <CNNaffinity_variance>  (82) 
0.0609835982

$$$$
83
     RDKit          3D

 43 45  0  0  0  0  0  0  0  0999 V2000
   20.5720   70.7694   -0.5382 P   0  0  2  0  0  0  0  0  0  0  0  0
   21.3160   72.1270   -1.0084 O   0  0  0  0  0  0  0  0  0  0  0  0
   21.4752   69.5875   -0.3411 O   0  0  0  0  0  0  0  0  0  0  0  0
   19.3905   70.5770   -1.6268 O   0  0  0  0  0  0  0  0  0  0  0  0
   19.2093   71.5791   -2.6121 C   0  0  0  0  0  0  0  0  0  0  0  0
   17.5482   72.2058   -4.2313 O   0  0  0  0  0  0  0  0  0  0  0  0
   15.5705   70.7993   -2.4702 O   0  0  0  0  0  0  0  0  0  0  0  0
   16.0181   68.9689   -4.4414 O   0  0  0  0  0  0  0  0  0  0  0  0
   16.9278   70.4618   -2.7517 C   0  0  1  0  0  0  0  0  0  0  0  0
   17.0486   69.8906   -4.1491 C   0  0  2  0  0  0  0  0  0  0  0  0
   17.7192   71.7584   -2.8686 C   0  0  1  0  0  0  0  0  0  0  0  0
   16.9752   71.1414   -5.0082 C   0  0  2  0  0  0  0  0  0  0  0  0
   15.0453   69.9870   -2.3907 H   0  0  0  0  0  0  0  0  0  0  0  0
   16.1081   68.1909   -3.8693 H   0  0  0  0  0  0  0  0  0  0  0  0
   15.8628   70.2729   -7.4549 O   0  0  0  0  0  0  0  0  0  0  0  0
   19.9003   70.6694   -9.6418 O   0  0  0  0  0  0  0  0  0  0  0  0
   17.7127   71.0088   -6.2329 N   0  0  0  0  0  0  0  0  0  0  0  0
   17.8740   70.4712   -8.5419 N   0  0  0  0  0  0  0  0  0  0  0  0
   17.0598   70.5634   -7.4058 C   0  0  0  0  0  0  0  0  0  0  0  0
   19.0680   71.3191   -6.2627 C   0  0  0  0  0  0  0  0  0  0  0  0
   19.8306   71.2246   -7.3539 C   0  0  0  0  0  0  0  0  0  0  0  0
   19.2257   70.7669   -8.6214 C   0  0  0  0  0  0  0  0  0  0  0  0
   17.4409   70.1626   -9.3707 H   0  0  0  0  0  0  0  0  0  0  0  0
   19.7724   71.2337    0.7877 O   0  0  0  0  0  0  0  0  0  0  0  0
   20.1094   72.3695    1.8874 P   0  0  2  0  0  0  0  0  0  0  0  0
   18.8799   72.2506    2.9322 O   0  0  0  0  0  0  0  0  0  0  0  0
   20.3038   73.7431    1.3135 O   0  0  0  0  0  0  0  0  0  0  0  0
   21.3849   71.7939    2.6916 O   0  0  0  0  0  0  0  0  0  0  0  0
   23.2878   73.2046    2.7644 O   0  0  0  0  0  0  0  0  0  0  0  0
   25.0516   69.6569    3.9279 O   0  0  0  0  0  0  0  0  0  0  0  0
   24.6386   71.7371    5.8645 O   0  0  0  0  0  0  0  0  0  0  0  0
   23.0028   69.6483    1.8830 O   0  0  0  0  0  0  0  0  0  0  0  0
   24.0015   70.6243    3.8454 C   0  0  1  0  0  0  0  0  0  0  0  0
   24.5050   71.9322    4.4594 C   0  0  1  0  0  0  0  0  0  0  0  0
   23.6250   70.8286    2.3792 C   0  0  2  0  0  0  0  0  0  0  0  0
   23.5381   73.0883    4.1700 C   0  0  1  0  0  0  0  0  0  0  0  0
   22.6997   72.0329    2.1961 C   0  0  1  0  0  0  0  0  0  0  0  0
   25.2950   69.5222    4.8564 H   0  0  0  0  0  0  0  0  0  0  0  0
   25.2513   71.0041    6.0336 H   0  0  0  0  0  0  0  0  0  0  0  0
   23.5987   68.8933    2.0043 H   0  0  0  0  0  0  0  0  0  0  0  0
   24.8446   74.9989    3.5771 O   0  0  0  0  0  0  0  0  0  0  0  0
   24.0964   74.4310    4.6363 C   0  0  0  0  0  0  0  0  0  0  0  0
   25.2058   75.8542    3.8594 H   0  0  0  0  0  0  0  0  0  0  0  0
 25 28  1  0
 25 24  1  0
 25 26  1  1
 25 27  2  0
  1  4  1  0
  1 24  1  0
  1  2  1  6
  1  3  2  0
  6 11  1  0
  6 12  1  0
 29 36  1  0
 29 37  1  0
  9  7  1  6
  7 13  1  0
 10  8  1  6
  8 14  1  0
 37 28  1  1
  4  5  1  0
 33 30  1  6
 30 38  1  0
 34 31  1  1
 31 39  1  0
 35 32  1  1
 32 40  1  0
 41 42  1  0
 41 43  1  0
 15 19  2  0
 16 22  2  0
 12 17  1  6
 17 19  1  0
 17 20  1  0
 18 19  1  0
 18 22  1  0
 18 23  1  0
  9 10  1  0
  9 11  1  0
 10 12  1  0
 11  5  1  6
 33 34  1  0
 33 35  1  0
 34 36  1  0
 35 37  1  0
 36 42  1  6
 20 21  2  0
 21 22  1  0
M  CHG  2   2  -1  26  -1
M  END
>  <COMPND>  (83) 
    8629 

>  <AUTHOR>  (83) 
    GENERATED BY OPEN BABEL 3.1.1

>  <MASTER>  (83) 
        0    0    0    0    0    0    0    0   58    0   58    0

>  <minimizedAffinity>  (83) 
-7.82396

>  <CNNscore>  (83) 
0.7379506826

>  <CNNaffinity>  (83) 
4.4863681793

>  <CNN_VS>  (83) 
3.3107185364

>  <CNNaffinity_variance>  (83) 
0.0518512353

$$$$
84
     RDKit          3D

 43 45  0  0  0  0  0  0  0  0999 V2000
   22.9891   69.5715   -2.1980 P   0  0  2  0  0  0  0  0  0  0  0  0
   24.0030   70.3710   -3.1728 O   0  0  0  0  0  0  0  0  0  0  0  0
   23.3063   68.1171   -2.0091 O   0  0  0  0  0  0  0  0  0  0  0  0
   21.5262   69.8982   -2.8069 O   0  0  0  0  0  0  0  0  0  0  0  0
   21.3548   71.0918   -3.5512 C   0  0  0  0  0  0  0  0  0  0  0  0
   19.4555   72.1569   -4.5670 O   0  0  0  0  0  0  0  0  0  0  0  0
   17.8808   71.1744   -2.2121 O   0  0  0  0  0  0  0  0  0  0  0  0
   17.2272   69.3769   -4.1558 O   0  0  0  0  0  0  0  0  0  0  0  0
   18.9559   70.5429   -2.9054 C   0  0  1  0  0  0  0  0  0  0  0  0
   18.4822   70.0201   -4.2455 C   0  0  2  0  0  0  0  0  0  0  0  0
   19.9473   71.6237   -3.3180 C   0  0  1  0  0  0  0  0  0  0  0  0
   18.4303   71.2896   -5.0785 C   0  0  2  0  0  0  0  0  0  0  0  0
   17.2347   70.5040   -1.9382 H   0  0  0  0  0  0  0  0  0  0  0  0
   17.3124   68.5753   -3.6163 H   0  0  0  0  0  0  0  0  0  0  0  0
   16.4485   70.5463   -6.9488 O   0  0  0  0  0  0  0  0  0  0  0  0
   19.5065   70.3640  -10.3921 O   0  0  0  0  0  0  0  0  0  0  0  0
   18.6807   71.0419   -6.4704 N   0  0  0  0  0  0  0  0  0  0  0  0
   17.9727   70.4563   -8.6618 N   0  0  0  0  0  0  0  0  0  0  0  0
   17.6156   70.6731   -7.3248 C   0  0  0  0  0  0  0  0  0  0  0  0
   19.9705   71.1658   -6.9753 C   0  0  0  0  0  0  0  0  0  0  0  0
   20.2947   70.9544   -8.2525 C   0  0  0  0  0  0  0  0  0  0  0  0
   19.2404   70.5655   -9.2113 C   0  0  0  0  0  0  0  0  0  0  0  0
   17.2472   70.1980   -9.2755 H   0  0  0  0  0  0  0  0  0  0  0  0
   23.0220   70.4490   -0.8408 O   0  0  0  0  0  0  0  0  0  0  0  0
   22.4095   70.1580    0.6265 P   0  0  2  0  0  0  0  0  0  0  0  0
   23.3323   68.9504    1.1810 O   0  0  0  0  0  0  0  0  0  0  0  0
   20.9371   69.8648    0.6316 O   0  0  0  0  0  0  0  0  0  0  0  0
   22.8396   71.4384    1.5100 O   0  0  0  0  0  0  0  0  0  0  0  0
   22.8043   71.4185    3.8796 O   0  0  0  0  0  0  0  0  0  0  0  0
   22.3915   75.4782    3.2476 O   0  0  0  0  0  0  0  0  0  0  0  0
   24.8792   74.4438    4.2423 O   0  0  0  0  0  0  0  0  0  0  0  0
   21.0512   73.6010    1.4986 O   0  0  0  0  0  0  0  0  0  0  0  0
   22.8715   74.1591    2.9738 C   0  0  1  0  0  0  0  0  0  0  0  0
   23.6770   73.6812    4.1836 C   0  0  1  0  0  0  0  0  0  0  0  0
   21.6802   73.2366    2.7225 C   0  0  2  0  0  0  0  0  0  0  0  0
   23.9984   72.1843    4.0788 C   0  0  1  0  0  0  0  0  0  0  0  0
   22.1023   71.7667    2.6847 C   0  0  1  0  0  0  0  0  0  0  0  0
   23.1430   76.0691    3.4076 H   0  0  0  0  0  0  0  0  0  0  0  0
   24.6622   75.3871    4.3078 H   0  0  0  0  0  0  0  0  0  0  0  0
   20.7885   74.5334    1.5353 H   0  0  0  0  0  0  0  0  0  0  0  0
   25.9598   72.2124    5.4429 O   0  0  0  0  0  0  0  0  0  0  0  0
   24.6633   71.6520    5.3463 C   0  0  0  0  0  0  0  0  0  0  0  0
   26.3950   71.8827    6.2452 H   0  0  0  0  0  0  0  0  0  0  0  0
 25 28  1  0
 25 24  1  0
 25 26  1  1
 25 27  2  0
  1  4  1  0
  1 24  1  0
  1  2  1  6
  1  3  2  0
  6 11  1  0
  6 12  1  0
 29 36  1  0
 29 37  1  0
  9  7  1  6
  7 13  1  0
 10  8  1  1
  8 14  1  0
 37 28  1  6
  4  5  1  0
 33 30  1  1
 30 38  1  0
 34 31  1  6
 31 39  1  0
 35 32  1  6
 32 40  1  0
 41 42  1  0
 41 43  1  0
 15 19  2  0
 16 22  2  0
 12 17  1  6
 17 19  1  0
 17 20  1  0
 18 19  1  0
 18 22  1  0
 18 23  1  0
  9 10  1  0
  9 11  1  0
 10 12  1  0
 11  5  1  6
 33 34  1  0
 33 35  1  0
 34 36  1  0
 35 37  1  0
 36 42  1  1
 20 21  2  0
 21 22  1  0
M  CHG  2   2  -1  26  -1
M  END
>  <COMPND>  (84) 
    8629 

>  <AUTHOR>  (84) 
    GENERATED BY OPEN BABEL 3.1.1

>  <MASTER>  (84) 
        0    0    0    0    0    0    0    0   58    0   58    0

>  <minimizedAffinity>  (84) 
-8.40749

>  <CNNscore>  (84) 
0.6603203416

>  <CNNaffinity>  (84) 
4.5922670364

>  <CNN_VS>  (84) 
3.0323672295

>  <CNNaffinity_variance>  (84) 
0.0301887244

$$$$
85
     RDKit          3D

 43 45  0  0  0  0  0  0  0  0999 V2000
   21.9759   71.1605   -1.8308 P   0  0  2  0  0  0  0  0  0  0  0  0
   22.8306   72.4124   -2.3963 O   0  0  0  0  0  0  0  0  0  0  0  0
   21.9760   69.9444   -2.7098 O   0  0  0  0  0  0  0  0  0  0  0  0
   20.5227   71.7955   -1.5101 O   0  0  0  0  0  0  0  0  0  0  0  0
   19.7604   72.3166   -2.5849 C   0  0  0  0  0  0  0  0  0  0  0  0
   17.6884   71.9729   -3.7521 O   0  0  0  0  0  0  0  0  0  0  0  0
   16.9673   70.0892   -1.5335 O   0  0  0  0  0  0  0  0  0  0  0  0
   17.7419   68.3941   -3.5243 O   0  0  0  0  0  0  0  0  0  0  0  0
   18.2377   70.3282   -2.1369 C   0  0  1  0  0  0  0  0  0  0  0  0
   18.2947   69.6945   -3.5113 C   0  0  2  0  0  0  0  0  0  0  0  0
   18.3285   71.8128   -2.4672 C   0  0  1  0  0  0  0  0  0  0  0  0
   17.4928   70.6790   -4.3456 C   0  0  2  0  0  0  0  0  0  0  0  0
   16.8862   69.1474   -1.3133 H   0  0  0  0  0  0  0  0  0  0  0  0
   18.2874   67.8053   -2.9797 H   0  0  0  0  0  0  0  0  0  0  0  0
   15.9211   69.8734   -6.5498 O   0  0  0  0  0  0  0  0  0  0  0  0
   19.2746   70.8863   -9.5448 O   0  0  0  0  0  0  0  0  0  0  0  0
   17.9301   70.7219   -5.7124 N   0  0  0  0  0  0  0  0  0  0  0  0
   17.5921   70.3786   -8.0393 N   0  0  0  0  0  0  0  0  0  0  0  0
   17.0636   70.2935   -6.7449 C   0  0  0  0  0  0  0  0  0  0  0  0
   19.2052   71.1854   -6.0179 C   0  0  0  0  0  0  0  0  0  0  0  0
   19.6946   71.2591   -7.2573 C   0  0  0  0  0  0  0  0  0  0  0  0
   18.8533   70.8308   -8.3935 C   0  0  0  0  0  0  0  0  0  0  0  0
   17.0065   70.0852   -8.7747 H   0  0  0  0  0  0  0  0  0  0  0  0
   22.6032   70.9271   -0.3595 O   0  0  0  0  0  0  0  0  0  0  0  0
   22.1590   69.9378    0.8392 P   0  0  2  0  0  0  0  0  0  0  0  0
   23.4328   68.9532    0.9991 O   0  0  0  0  0  0  0  0  0  0  0  0
   20.8558   69.2309    0.6027 O   0  0  0  0  0  0  0  0  0  0  0  0
   22.1886   70.8608    2.1629 O   0  0  0  0  0  0  0  0  0  0  0  0
   21.4714   73.0908    1.8029 O   0  0  0  0  0  0  0  0  0  0  0  0
   23.1573   73.5360    5.5460 O   0  0  0  0  0  0  0  0  0  0  0  0
   20.3002   73.5980    5.2612 O   0  0  0  0  0  0  0  0  0  0  0  0
   24.4104   71.8033    3.5948 O   0  0  0  0  0  0  0  0  0  0  0  0
   22.4455   72.8531    4.5104 C   0  0  1  0  0  0  0  0  0  0  0  0
   21.2026   73.6740    4.1611 C   0  0  1  0  0  0  0  0  0  0  0  0
   23.3546   72.7087    3.2914 C   0  0  2  0  0  0  0  0  0  0  0  0
   20.5332   73.1495    2.8836 C   0  0  1  0  0  0  0  0  0  0  0  0
   22.5801   72.2276    2.0630 C   0  0  1  0  0  0  0  0  0  0  0  0
   22.5858   73.6305    6.3231 H   0  0  0  0  0  0  0  0  0  0  0  0
   20.7353   73.9318    6.0615 H   0  0  0  0  0  0  0  0  0  0  0  0
   24.8932   72.1192    4.3739 H   0  0  0  0  0  0  0  0  0  0  0  0
   19.5627   75.3295    3.0041 O   0  0  0  0  0  0  0  0  0  0  0  0
   19.3850   74.0480    2.4293 C   0  0  0  0  0  0  0  0  0  0  0  0
   18.8393   75.9122    2.7233 H   0  0  0  0  0  0  0  0  0  0  0  0
 25 28  1  0
 25 24  1  0
 25 26  1  1
 25 27  2  0
  1  4  1  0
  1 24  1  0
  1  2  1  6
  1  3  2  0
  6 11  1  0
  6 12  1  0
 29 36  1  0
 29 37  1  0
  9  7  1  6
  7 13  1  0
 10  8  1  1
  8 14  1  0
 37 28  1  1
  4  5  1  0
 33 30  1  1
 30 38  1  0
 34 31  1  1
 31 39  1  0
 35 32  1  1
 32 40  1  0
 41 42  1  0
 41 43  1  0
 15 19  2  0
 16 22  2  0
 12 17  1  6
 17 19  1  0
 17 20  1  0
 18 19  1  0
 18 22  1  0
 18 23  1  0
  9 10  1  0
  9 11  1  0
 10 12  1  0
 11  5  1  6
 33 34  1  0
 33 35  1  0
 34 36  1  0
 35 37  1  0
 36 42  1  6
 20 21  2  0
 21 22  1  0
M  CHG  2   2  -1  26  -1
M  END
>  <COMPND>  (85) 
    8629 

>  <AUTHOR>  (85) 
    GENERATED BY OPEN BABEL 3.1.1

>  <MASTER>  (85) 
        0    0    0    0    0    0    0    0   58    0   58    0

>  <minimizedAffinity>  (85) 
-8.23184

>  <CNNscore>  (85) 
0.6528334618

>  <CNNaffinity>  (85) 
4.6209144592

>  <CNN_VS>  (85) 
3.0166876316

>  <CNNaffinity_variance>  (85) 
0.0092950501

$$$$
86
     RDKit          3D

 43 45  0  0  0  0  0  0  0  0999 V2000
   19.2423   71.6057   -0.4593 P   0  0  2  0  0  0  0  0  0  0  0  0
   18.2182   72.0433    0.7143 O   0  0  0  0  0  0  0  0  0  0  0  0
   19.1012   70.1870   -0.9271 O   0  0  0  0  0  0  0  0  0  0  0  0
   20.6963   72.0125    0.1224 O   0  0  0  0  0  0  0  0  0  0  0  0
   21.1520   73.3410   -0.0651 C   0  0  0  0  0  0  0  0  0  0  0  0
   21.1523   73.1663    2.3314 O   0  0  0  0  0  0  0  0  0  0  0  0
   21.5793   76.1341    2.3607 O   0  0  0  0  0  0  0  0  0  0  0  0
   24.0855   75.1684    2.8330 O   0  0  0  0  0  0  0  0  0  0  0  0
   22.0853   75.1588    1.4508 C   0  0  1  0  0  0  0  0  0  0  0  0
   23.1903   74.3543    2.1031 C   0  0  2  0  0  0  0  0  0  0  0  0
   21.0045   74.1050    1.2436 C   0  0  1  0  0  0  0  0  0  0  0  0
   22.4058   73.4047    2.9924 C   0  0  2  0  0  0  0  0  0  0  0  0
   22.2520   76.8180    2.5084 H   0  0  0  0  0  0  0  0  0  0  0  0
   24.5604   75.7543    2.2232 H   0  0  0  0  0  0  0  0  0  0  0  0
   23.9334   72.7431    5.2742 O   0  0  0  0  0  0  0  0  0  0  0  0
   24.9434   68.5647    3.6122 O   0  0  0  0  0  0  0  0  0  0  0  0
   23.0786   72.1507    3.1824 N   0  0  0  0  0  0  0  0  0  0  0  0
   24.4349   70.6630    4.4449 N   0  0  0  0  0  0  0  0  0  0  0  0
   23.8204   71.9192    4.3642 C   0  0  0  0  0  0  0  0  0  0  0  0
   22.9988   71.1661    2.2036 C   0  0  0  0  0  0  0  0  0  0  0  0
   23.5917   69.9739    2.2952 C   0  0  0  0  0  0  0  0  0  0  0  0
   24.3861   69.6520    3.4982 C   0  0  0  0  0  0  0  0  0  0  0  0
   24.9575   70.4795    5.2592 H   0  0  0  0  0  0  0  0  0  0  0  0
   18.9834   72.7197   -1.6017 O   0  0  0  0  0  0  0  0  0  0  0  0
   17.6348   73.1417   -2.3866 P   0  0  2  0  0  0  0  0  0  0  0  0
   17.6519   74.7577   -2.3114 O   0  0  0  0  0  0  0  0  0  0  0  0
   16.3848   72.5098   -1.8460 O   0  0  0  0  0  0  0  0  0  0  0  0
   17.9400   72.8024   -3.9347 O   0  0  0  0  0  0  0  0  0  0  0  0
   17.8734   70.6877   -5.0026 O   0  0  0  0  0  0  0  0  0  0  0  0
   20.9245   72.4275   -7.1739 O   0  0  0  0  0  0  0  0  0  0  0  0
   18.3545   72.0431   -8.3967 O   0  0  0  0  0  0  0  0  0  0  0  0
   20.7161   72.9170   -4.3285 O   0  0  0  0  0  0  0  0  0  0  0  0
   19.6930   72.4017   -6.4472 C   0  0  1  0  0  0  0  0  0  0  0  0
   18.7351   71.4455   -7.1605 C   0  0  1  0  0  0  0  0  0  0  0  0
   19.9647   71.9261   -5.0213 C   0  0  2  0  0  0  0  0  0  0  0  0
   17.4961   71.1594   -6.3014 C   0  0  1  0  0  0  0  0  0  0  0  0
   18.6670   71.6232   -4.2700 C   0  0  1  0  0  0  0  0  0  0  0  0
   20.7590   72.7291   -8.0801 H   0  0  0  0  0  0  0  0  0  0  0  0
   19.1460   72.2191   -8.9295 H   0  0  0  0  0  0  0  0  0  0  0  0
   21.5352   73.0996   -4.8139 H   0  0  0  0  0  0  0  0  0  0  0  0
   15.7668   69.5572   -5.9124 O   0  0  0  0  0  0  0  0  0  0  0  0
   16.6039   70.0874   -6.9235 C   0  0  0  0  0  0  0  0  0  0  0  0
   15.1931   68.8738   -6.2938 H   0  0  0  0  0  0  0  0  0  0  0  0
 25 28  1  0
 25 24  1  0
 25 26  1  6
 25 27  2  0
  1  4  1  0
  1 24  1  0
  1  2  1  1
  1  3  2  0
  6 11  1  0
  6 12  1  0
 29 36  1  0
 29 37  1  0
  9  7  1  1
  7 13  1  0
 10  8  1  1
  8 14  1  0
 37 28  1  6
  4  5  1  0
 33 30  1  6
 30 38  1  0
 34 31  1  6
 31 39  1  0
 35 32  1  1
 32 40  1  0
 41 42  1  0
 41 43  1  0
 15 19  2  0
 16 22  2  0
 12 17  1  6
 17 19  1  0
 17 20  1  0
 18 19  1  0
 18 22  1  0
 18 23  1  0
  9 10  1  0
  9 11  1  0
 10 12  1  0
 11  5  1  6
 33 34  1  0
 33 35  1  0
 34 36  1  0
 35 37  1  0
 36 42  1  6
 20 21  2  0
 21 22  1  0
M  CHG  2   2  -1  26  -1
M  END
>  <COMPND>  (86) 
    8629 

>  <AUTHOR>  (86) 
    GENERATED BY OPEN BABEL 3.1.1

>  <MASTER>  (86) 
        0    0    0    0    0    0    0    0   58    0   58    0

>  <minimizedAffinity>  (86) 
-6.78479

>  <CNNscore>  (86) 
0.5784774423

>  <CNNaffinity>  (86) 
3.9901194572

>  <CNN_VS>  (86) 
2.3081941605

>  <CNNaffinity_variance>  (86) 
0.1344659030

$$$$
87
     RDKit          3D

 43 45  0  0  0  0  0  0  0  0999 V2000
   21.9610   71.7791   -3.1633 P   0  0  2  0  0  0  0  0  0  0  0  0
   23.3322   70.9320   -3.3035 O   0  0  0  0  0  0  0  0  0  0  0  0
   21.7186   72.7780   -4.2563 O   0  0  0  0  0  0  0  0  0  0  0  0
   22.0282   72.3815   -1.6631 O   0  0  0  0  0  0  0  0  0  0  0  0
   23.0071   71.8731   -0.7736 C   0  0  0  0  0  0  0  0  0  0  0  0
   23.1408   70.5872    1.2517 O   0  0  0  0  0  0  0  0  0  0  0  0
   20.3544   69.6694    0.6317 O   0  0  0  0  0  0  0  0  0  0  0  0
   19.9405   71.5912    2.5217 O   0  0  0  0  0  0  0  0  0  0  0  0
   20.9549   70.9442    0.4090 C   0  0  1  0  0  0  0  0  0  0  0  0
   21.0975   71.6940    1.7170 C   0  0  2  0  0  0  0  0  0  0  0  0
   22.4084   70.7155    0.0134 C   0  0  1  0  0  0  0  0  0  0  0  0
   22.3051   71.0143    2.3398 C   0  0  2  0  0  0  0  0  0  0  0  0
   19.4253   69.7897    0.8853 H   0  0  0  0  0  0  0  0  0  0  0  0
   19.2003   72.0386    2.0827 H   0  0  0  0  0  0  0  0  0  0  0  0
   23.6612   70.2128    4.6843 O   0  0  0  0  0  0  0  0  0  0  0  0
   25.1532   74.4955    5.5052 O   0  0  0  0  0  0  0  0  0  0  0  0
   23.0561   71.8991    3.1851 N   0  0  0  0  0  0  0  0  0  0  0  0
   24.4031   72.3459    5.0910 N   0  0  0  0  0  0  0  0  0  0  0  0
   23.6989   71.3960    4.3402 C   0  0  0  0  0  0  0  0  0  0  0  0
   23.1500   73.2493    2.8656 C   0  0  0  0  0  0  0  0  0  0  0  0
   23.8244   74.1423    3.5927 C   0  0  0  0  0  0  0  0  0  0  0  0
   24.5247   73.6986    4.8154 C   0  0  0  0  0  0  0  0  0  0  0  0
   24.8586   72.0183    5.9004 H   0  0  0  0  0  0  0  0  0  0  0  0
   20.8331   70.6275   -3.0421 O   0  0  0  0  0  0  0  0  0  0  0  0
   19.2265   70.7266   -2.8939 P   0  0  2  0  0  0  0  0  0  0  0  0
   18.9875   72.2694   -2.4695 O   0  0  0  0  0  0  0  0  0  0  0  0
   18.6330   69.7246   -1.9464 O   0  0  0  0  0  0  0  0  0  0  0  0
   18.6699   70.6287   -4.4057 O   0  0  0  0  0  0  0  0  0  0  0  0
   19.5339   72.0979   -6.0525 O   0  0  0  0  0  0  0  0  0  0  0  0
   15.9961   71.0413   -7.9015 O   0  0  0  0  0  0  0  0  0  0  0  0
   18.4828   70.0129   -8.9050 O   0  0  0  0  0  0  0  0  0  0  0  0
   16.0619   71.4505   -5.0366 O   0  0  0  0  0  0  0  0  0  0  0  0
   17.1560   70.8321   -7.0913 C   0  0  1  0  0  0  0  0  0  0  0  0
   18.3949   71.0724   -7.9563 C   0  0  1  0  0  0  0  0  0  0  0  0
   17.1249   71.8054   -5.9144 C   0  0  2  0  0  0  0  0  0  0  0  0
   19.6665   71.1290   -7.0991 C   0  0  1  0  0  0  0  0  0  0  0  0
   18.4546   71.8198   -5.1582 C   0  0  1  0  0  0  0  0  0  0  0  0
   16.0095   70.4261   -8.6504 H   0  0  0  0  0  0  0  0  0  0  0  0
   17.6735   69.9878   -9.4394 H   0  0  0  0  0  0  0  0  0  0  0  0
   15.2257   71.4453   -5.5271 H   0  0  0  0  0  0  0  0  0  0  0  0
   21.5455   72.5955   -7.2647 O   0  0  0  0  0  0  0  0  0  0  0  0
   20.8923   71.5238   -7.9197 C   0  0  0  0  0  0  0  0  0  0  0  0
   22.3279   72.8573   -7.7756 H   0  0  0  0  0  0  0  0  0  0  0  0
 25 28  1  0
 25 24  1  0
 25 26  1  1
 25 27  2  0
  1  4  1  0
  1 24  1  0
  1  2  1  6
  1  3  2  0
  6 11  1  0
  6 12  1  0
 29 36  1  0
 29 37  1  0
  9  7  1  1
  7 13  1  0
 10  8  1  1
  8 14  1  0
 37 28  1  6
  4  5  1  0
 33 30  1  6
 30 38  1  0
 34 31  1  6
 31 39  1  0
 35 32  1  1
 32 40  1  0
 41 42  1  0
 41 43  1  0
 15 19  2  0
 16 22  2  0
 12 17  1  1
 17 19  1  0
 17 20  1  0
 18 19  1  0
 18 22  1  0
 18 23  1  0
  9 10  1  0
  9 11  1  0
 10 12  1  0
 11  5  1  1
 33 34  1  0
 33 35  1  0
 34 36  1  0
 35 37  1  0
 36 42  1  6
 20 21  2  0
 21 22  1  0
M  CHG  2   2  -1  26  -1
M  END
>  <COMPND>  (87) 
    8629 

>  <AUTHOR>  (87) 
    GENERATED BY OPEN BABEL 3.1.1

>  <MASTER>  (87) 
        0    0    0    0    0    0    0    0   58    0   58    0

>  <minimizedAffinity>  (87) 
-7.89829

>  <CNNscore>  (87) 
0.4520410597

>  <CNNaffinity>  (87) 
4.0263409615

>  <CNN_VS>  (87) 
1.8200714588

>  <CNNaffinity_variance>  (87) 
0.1477870196

$$$$
88
     RDKit          3D

 43 45  0  0  0  0  0  0  0  0999 V2000
   22.4523   71.1201   -3.1717 P   0  0  2  0  0  0  0  0  0  0  0  0
   21.1493   70.1656   -3.0797 O   0  0  0  0  0  0  0  0  0  0  0  0
   23.7505   70.4008   -3.3927 O   0  0  0  0  0  0  0  0  0  0  0  0
   22.3683   72.0223   -1.8312 O   0  0  0  0  0  0  0  0  0  0  0  0
   23.1851   71.6714   -0.7278 C   0  0  0  0  0  0  0  0  0  0  0  0
   23.1603   70.4601    1.3473 O   0  0  0  0  0  0  0  0  0  0  0  0
   20.3683   69.6429    0.6210 O   0  0  0  0  0  0  0  0  0  0  0  0
   19.9513   71.6528    2.4163 O   0  0  0  0  0  0  0  0  0  0  0  0
   21.0370   70.8803    0.3826 C   0  0  1  0  0  0  0  0  0  0  0  0
   21.1498   71.6732    1.6680 C   0  0  2  0  0  0  0  0  0  0  0  0
   22.4960   70.5726    0.0696 C   0  0  1  0  0  0  0  0  0  0  0  0
   22.2929   70.9655    2.3754 C   0  0  2  0  0  0  0  0  0  0  0  0
   19.4345   69.8138    0.8227 H   0  0  0  0  0  0  0  0  0  0  0  0
   19.2549   72.1151    1.9244 H   0  0  0  0  0  0  0  0  0  0  0  0
   23.7103   70.1447    4.6766 O   0  0  0  0  0  0  0  0  0  0  0  0
   25.1288   74.4401    5.5590 O   0  0  0  0  0  0  0  0  0  0  0  0
   23.0416   71.8483    3.2248 N   0  0  0  0  0  0  0  0  0  0  0  0
   24.4156   72.2841    5.1140 N   0  0  0  0  0  0  0  0  0  0  0  0
   23.7168   71.3352    4.3568 C   0  0  0  0  0  0  0  0  0  0  0  0
   23.1014   73.2065    2.9320 C   0  0  0  0  0  0  0  0  0  0  0  0
   23.7711   74.0984    3.6649 C   0  0  0  0  0  0  0  0  0  0  0  0
   24.5038   73.6445    4.8645 C   0  0  0  0  0  0  0  0  0  0  0  0
   24.8933   71.9496    5.9075 H   0  0  0  0  0  0  0  0  0  0  0  0
   22.0554   72.1656   -4.3388 O   0  0  0  0  0  0  0  0  0  0  0  0
   20.7199   73.0480   -4.5644 P   0  0  2  0  0  0  0  0  0  0  0  0
   21.3002   74.5223   -4.8920 O   0  0  0  0  0  0  0  0  0  0  0  0
   19.7524   73.0042   -3.4173 O   0  0  0  0  0  0  0  0  0  0  0  0
   20.1176   72.5259   -5.9678 O   0  0  0  0  0  0  0  0  0  0  0  0
   18.9263   70.5233   -5.5351 O   0  0  0  0  0  0  0  0  0  0  0  0
   18.5302   70.6522   -9.6434 O   0  0  0  0  0  0  0  0  0  0  0  0
   16.2579   71.2195   -7.9813 O   0  0  0  0  0  0  0  0  0  0  0  0
   21.0171   71.4674   -8.4062 O   0  0  0  0  0  0  0  0  0  0  0  0
   18.6247   71.2000   -8.3257 C   0  0  1  0  0  0  0  0  0  0  0  0
   17.4673   70.6466   -7.4921 C   0  0  1  0  0  0  0  0  0  0  0  0
   19.9665   70.8011   -7.7142 C   0  0  2  0  0  0  0  0  0  0  0  0
   17.6501   70.9741   -6.0040 C   0  0  1  0  0  0  0  0  0  0  0  0
   20.0256   71.1263   -6.2206 C   0  0  1  0  0  0  0  0  0  0  0  0
   17.6807   70.9022  -10.0374 H   0  0  0  0  0  0  0  0  0  0  0  0
   16.1547   71.0057   -8.9220 H   0  0  0  0  0  0  0  0  0  0  0  0
   20.9689   71.2533   -9.3505 H   0  0  0  0  0  0  0  0  0  0  0  0
   15.9279   69.3203   -5.9150 O   0  0  0  0  0  0  0  0  0  0  0  0
   16.5915   70.2981   -5.1354 C   0  0  0  0  0  0  0  0  0  0  0  0
   15.2515   68.8815   -5.3749 H   0  0  0  0  0  0  0  0  0  0  0  0
 25 28  1  0
 25 24  1  0
 25 26  1  6
 25 27  2  0
  1  4  1  0
  1 24  1  0
  1  2  1  1
  1  3  2  0
  6 11  1  0
  6 12  1  0
 29 36  1  0
 29 37  1  0
  9  7  1  1
  7 13  1  0
 10  8  1  1
  8 14  1  0
 37 28  1  6
  4  5  1  0
 33 30  1  6
 30 38  1  0
 34 31  1  6
 31 39  1  0
 35 32  1  6
 32 40  1  0
 41 42  1  0
 41 43  1  0
 15 19  2  0
 16 22  2  0
 12 17  1  1
 17 19  1  0
 17 20  1  0
 18 19  1  0
 18 22  1  0
 18 23  1  0
  9 10  1  0
  9 11  1  0
 10 12  1  0
 11  5  1  6
 33 34  1  0
 33 35  1  0
 34 36  1  0
 35 37  1  0
 36 42  1  1
 20 21  2  0
 21 22  1  0
M  CHG  2   2  -1  26  -1
M  END
>  <COMPND>  (88) 
    8629 

>  <AUTHOR>  (88) 
    GENERATED BY OPEN BABEL 3.1.1

>  <MASTER>  (88) 
        0    0    0    0    0    0    0    0   58    0   58    0

>  <minimizedAffinity>  (88) 
-8.79581

>  <CNNscore>  (88) 
0.3606357872

>  <CNNaffinity>  (88) 
3.8939774036

>  <CNN_VS>  (88) 
1.4043076038

>  <CNNaffinity_variance>  (88) 
0.1912827194

$$$$
89
     RDKit          3D

 43 45  0  0  0  0  0  0  0  0999 V2000
   20.9224   73.2771   -2.5076 P   0  0  2  0  0  0  0  0  0  0  0  0
   21.7028   72.0529   -3.2217 O   0  0  0  0  0  0  0  0  0  0  0  0
   21.0015   74.5882   -3.2329 O   0  0  0  0  0  0  0  0  0  0  0  0
   21.4976   73.2749   -0.9953 O   0  0  0  0  0  0  0  0  0  0  0  0
   22.6502   72.5010   -0.7115 C   0  0  0  0  0  0  0  0  0  0  0  0
   23.0654   71.0544    1.1617 O   0  0  0  0  0  0  0  0  0  0  0  0
   20.3343   69.9250    0.6557 O   0  0  0  0  0  0  0  0  0  0  0  0
   19.8997   71.6147    2.7516 O   0  0  0  0  0  0  0  0  0  0  0  0
   20.7948   71.2681    0.5178 C   0  0  1  0  0  0  0  0  0  0  0  0
   20.9733   71.9054    1.8800 C   0  0  2  0  0  0  0  0  0  0  0  0
   22.2263   71.2223   -0.0020 C   0  0  1  0  0  0  0  0  0  0  0  0
   22.2848   71.2949    2.3440 C   0  0  2  0  0  0  0  0  0  0  0  0
   19.4217   69.9286    0.9861 H   0  0  0  0  0  0  0  0  0  0  0  0
   19.0884   72.0247    2.4134 H   0  0  0  0  0  0  0  0  0  0  0  0
   23.5662   70.4684    4.7216 O   0  0  0  0  0  0  0  0  0  0  0  0
   25.0644   74.7346    5.6138 O   0  0  0  0  0  0  0  0  0  0  0  0
   23.0173   72.1686    3.2166 N   0  0  0  0  0  0  0  0  0  0  0  0
   24.3113   72.5933    5.1638 N   0  0  0  0  0  0  0  0  0  0  0  0
   23.6224   71.6534    4.3866 C   0  0  0  0  0  0  0  0  0  0  0  0
   23.1301   73.5201    2.9088 C   0  0  0  0  0  0  0  0  0  0  0  0
   23.7895   74.4035    3.6612 C   0  0  0  0  0  0  0  0  0  0  0  0
   24.4506   73.9469    4.9007 C   0  0  0  0  0  0  0  0  0  0  0  0
   24.7406   72.2573    5.9839 H   0  0  0  0  0  0  0  0  0  0  0  0
   19.4243   72.6972   -2.3273 O   0  0  0  0  0  0  0  0  0  0  0  0
   17.9861   73.3428   -2.6845 P   0  0  2  0  0  0  0  0  0  0  0  0
   18.1791   74.9061   -2.3153 O   0  0  0  0  0  0  0  0  0  0  0  0
   16.8270   72.6824   -1.9957 O   0  0  0  0  0  0  0  0  0  0  0  0
   17.9128   73.3106   -4.2965 O   0  0  0  0  0  0  0  0  0  0  0  0
   18.4646   71.0912   -4.9178 O   0  0  0  0  0  0  0  0  0  0  0  0
   17.9006   72.7074   -8.6755 O   0  0  0  0  0  0  0  0  0  0  0  0
   15.9500   70.8912   -7.6058 O   0  0  0  0  0  0  0  0  0  0  0  0
   19.1808   74.2757   -6.6064 O   0  0  0  0  0  0  0  0  0  0  0  0
   17.6496   72.5418   -7.2773 C   0  0  1  0  0  0  0  0  0  0  0  0
   17.2396   71.0882   -7.0327 C   0  0  1  0  0  0  0  0  0  0  0  0
   18.9193   72.8806   -6.4986 C   0  0  2  0  0  0  0  0  0  0  0  0
   17.2127   70.7652   -5.5327 C   0  0  1  0  0  0  0  0  0  0  0  0
   18.8054   72.4745   -5.0282 C   0  0  1  0  0  0  0  0  0  0  0  0
   17.0982   72.4943   -9.1757 H   0  0  0  0  0  0  0  0  0  0  0  0
   15.9806   71.0991   -8.5529 H   0  0  0  0  0  0  0  0  0  0  0  0
   19.2510   74.5201   -7.5420 H   0  0  0  0  0  0  0  0  0  0  0  0
   15.6372   68.9741   -5.6703 O   0  0  0  0  0  0  0  0  0  0  0  0
   16.9603   69.2819   -5.2715 C   0  0  0  0  0  0  0  0  0  0  0  0
   15.4625   68.0331   -5.5101 H   0  0  0  0  0  0  0  0  0  0  0  0
 25 28  1  0
 25 24  1  0
 25 26  1  1
 25 27  2  0
  1  4  1  0
  1 24  1  0
  1  2  1  6
  1  3  2  0
  6 11  1  0
  6 12  1  0
 29 36  1  0
 29 37  1  0
  9  7  1  1
  7 13  1  0
 10  8  1  1
  8 14  1  0
 37 28  1  6
  4  5  1  0
 33 30  1  6
 30 38  1  0
 34 31  1  1
 31 39  1  0
 35 32  1  1
 32 40  1  0
 41 42  1  0
 41 43  1  0
 15 19  2  0
 16 22  2  0
 12 17  1  1
 17 19  1  0
 17 20  1  0
 18 19  1  0
 18 22  1  0
 18 23  1  0
  9 10  1  0
  9 11  1  0
 10 12  1  0
 11  5  1  1
 33 34  1  0
 33 35  1  0
 34 36  1  0
 35 37  1  0
 36 42  1  6
 20 21  2  0
 21 22  1  0
M  CHG  2   2  -1  26  -1
M  END
>  <COMPND>  (89) 
    8629 

>  <AUTHOR>  (89) 
    GENERATED BY OPEN BABEL 3.1.1

>  <MASTER>  (89) 
        0    0    0    0    0    0    0    0   58    0   58    0

>  <minimizedAffinity>  (89) 
-7.16128

>  <CNNscore>  (89) 
0.3605726957

>  <CNNaffinity>  (89) 
3.8494732380

>  <CNN_VS>  (89) 
1.3880149126

>  <CNNaffinity_variance>  (89) 
0.1066594496

$$$$
90
     RDKit          3D

 43 45  0  0  0  0  0  0  0  0999 V2000
   18.6551   70.9891   -1.3599 P   0  0  2  0  0  0  0  0  0  0  0  0
   17.8599   69.5845   -1.4702 O   0  0  0  0  0  0  0  0  0  0  0  0
   19.7550   71.1752   -2.3634 O   0  0  0  0  0  0  0  0  0  0  0  0
   19.1016   71.0618    0.1935 O   0  0  0  0  0  0  0  0  0  0  0  0
   19.0007   72.3035    0.8687 C   0  0  0  0  0  0  0  0  0  0  0  0
   20.7623   71.1389    2.0150 O   0  0  0  0  0  0  0  0  0  0  0  0
   21.0247   73.5944    3.7157 O   0  0  0  0  0  0  0  0  0  0  0  0
   23.0893   73.8673    1.9552 O   0  0  0  0  0  0  0  0  0  0  0  0
   20.7167   73.4876    2.3268 C   0  0  1  0  0  0  0  0  0  0  0  0
   21.9592   73.1282    1.5389 C   0  0  2  0  0  0  0  0  0  0  0  0
   19.8482   72.2510    2.1325 C   0  0  1  0  0  0  0  0  0  0  0  0
   22.0947   71.6423    1.8247 C   0  0  2  0  0  0  0  0  0  0  0  0
   21.5786   74.3773    3.8647 H   0  0  0  0  0  0  0  0  0  0  0  0
   22.9547   74.8061    1.7518 H   0  0  0  0  0  0  0  0  0  0  0  0
   23.5814   69.2592    2.1230 O   0  0  0  0  0  0  0  0  0  0  0  0
   24.4182   68.9987   -2.4018 O   0  0  0  0  0  0  0  0  0  0  0  0
   22.7119   70.9303    0.7414 N   0  0  0  0  0  0  0  0  0  0  0  0
   23.9967   69.1314   -0.1303 N   0  0  0  0  0  0  0  0  0  0  0  0
   23.4373   69.7437    0.9986 C   0  0  0  0  0  0  0  0  0  0  0  0
   22.5944   71.4093   -0.5589 C   0  0  0  0  0  0  0  0  0  0  0  0
   23.1349   70.8143   -1.6243 C   0  0  0  0  0  0  0  0  0  0  0  0
   23.9089   69.5694   -1.4422 C   0  0  0  0  0  0  0  0  0  0  0  0
   24.5069   68.3035    0.0247 H   0  0  0  0  0  0  0  0  0  0  0  0
   17.4705   72.0854   -1.4491 O   0  0  0  0  0  0  0  0  0  0  0  0
   16.1405   72.1388   -2.3663 P   0  0  2  0  0  0  0  0  0  0  0  0
   15.1362   73.0741   -1.5094 O   0  0  0  0  0  0  0  0  0  0  0  0
   15.5817   70.7908   -2.7191 O   0  0  0  0  0  0  0  0  0  0  0  0
   16.5563   73.0438   -3.6363 O   0  0  0  0  0  0  0  0  0  0  0  0
   17.5435   71.4753   -5.1135 O   0  0  0  0  0  0  0  0  0  0  0  0
   17.7345   74.8398   -7.4998 O   0  0  0  0  0  0  0  0  0  0  0  0
   15.8420   72.7696   -8.1166 O   0  0  0  0  0  0  0  0  0  0  0  0
   18.2243   75.0575   -4.6551 O   0  0  0  0  0  0  0  0  0  0  0  0
   17.1628   73.9668   -6.5219 C   0  0  1  0  0  0  0  0  0  0  0  0
   16.9055   72.6106   -7.1817 C   0  0  1  0  0  0  0  0  0  0  0  0
   18.1360   73.8203   -5.3537 C   0  0  2  0  0  0  0  0  0  0  0  0
   16.5441   71.5460   -6.1371 C   0  0  1  0  0  0  0  0  0  0  0  0
   17.7099   72.7024   -4.4003 C   0  0  1  0  0  0  0  0  0  0  0  0
   17.1213   74.9375   -8.2441 H   0  0  0  0  0  0  0  0  0  0  0  0
   16.0827   73.4448   -8.7702 H   0  0  0  0  0  0  0  0  0  0  0  0
   18.4951   75.7569   -5.2694 H   0  0  0  0  0  0  0  0  0  0  0  0
   15.8934   69.2739   -5.7864 O   0  0  0  0  0  0  0  0  0  0  0  0
   16.4376   70.1529   -6.7536 C   0  0  0  0  0  0  0  0  0  0  0  0
   15.8196   68.3834   -6.1648 H   0  0  0  0  0  0  0  0  0  0  0  0
 25 28  1  0
 25 24  1  0
 25 26  1  1
 25 27  2  0
  1  4  1  0
  1 24  1  0
  1  2  1  6
  1  3  2  0
  6 11  1  0
  6 12  1  0
 29 36  1  0
 29 37  1  0
  9  7  1  1
  7 13  1  0
 10  8  1  1
  8 14  1  0
 37 28  1  6
  4  5  1  0
 33 30  1  6
 30 38  1  0
 34 31  1  6
 31 39  1  0
 35 32  1  1
 32 40  1  0
 41 42  1  0
 41 43  1  0
 15 19  2  0
 16 22  2  0
 12 17  1  6
 17 19  1  0
 17 20  1  0
 18 19  1  0
 18 22  1  0
 18 23  1  0
  9 10  1  0
  9 11  1  0
 10 12  1  0
 11  5  1  6
 33 34  1  0
 33 35  1  0
 34 36  1  0
 35 37  1  0
 36 42  1  6
 20 21  2  0
 21 22  1  0
M  CHG  2   2  -1  26  -1
M  END
>  <COMPND>  (90) 
    8629 

>  <AUTHOR>  (90) 
    GENERATED BY OPEN BABEL 3.1.1

>  <MASTER>  (90) 
        0    0    0    0    0    0    0    0   58    0   58    0

>  <minimizedAffinity>  (90) 
-7.14689

>  <CNNscore>  (90) 
0.3445901573

>  <CNNaffinity>  (90) 
3.9420673847

>  <CNN_VS>  (90) 
1.3583976030

>  <CNNaffinity_variance>  (90) 
0.3241226077

$$$$
91
     RDKit          3D

 43 45  0  0  0  0  0  0  0  0999 V2000
   22.4925   72.9291   -2.6317 P   0  0  2  0  0  0  0  0  0  0  0  0
   23.6235   72.9649   -3.7880 O   0  0  0  0  0  0  0  0  0  0  0  0
   22.5160   74.0938   -1.6859 O   0  0  0  0  0  0  0  0  0  0  0  0
   22.6749   71.4708   -1.9550 O   0  0  0  0  0  0  0  0  0  0  0  0
   23.3359   71.3834   -0.7047 C   0  0  0  0  0  0  0  0  0  0  0  0
   23.2923   70.2988    1.4390 O   0  0  0  0  0  0  0  0  0  0  0  0
   20.5311   69.3841    0.7112 O   0  0  0  0  0  0  0  0  0  0  0  0
   20.0409   71.4896    2.3734 O   0  0  0  0  0  0  0  0  0  0  0  0
   21.1812   70.6180    0.4109 C   0  0  1  0  0  0  0  0  0  0  0  0
   21.2535   71.4888    1.6479 C   0  0  2  0  0  0  0  0  0  0  0  0
   22.6516   70.3210    0.1446 C   0  0  1  0  0  0  0  0  0  0  0  0
   22.3953   70.8478    2.4182 C   0  0  2  0  0  0  0  0  0  0  0  0
   19.5904   69.5483    0.8846 H   0  0  0  0  0  0  0  0  0  0  0  0
   19.3459   71.9076    1.8415 H   0  0  0  0  0  0  0  0  0  0  0  0
   23.7580   70.2000    4.8060 O   0  0  0  0  0  0  0  0  0  0  0  0
   25.1030   74.5627    5.4376 O   0  0  0  0  0  0  0  0  0  0  0  0
   23.1104   71.7947    3.2265 N   0  0  0  0  0  0  0  0  0  0  0  0
   24.4268   72.3728    5.1184 N   0  0  0  0  0  0  0  0  0  0  0  0
   23.7599   71.3667    4.4078 C   0  0  0  0  0  0  0  0  0  0  0  0
   23.1628   73.1311    2.8455 C   0  0  0  0  0  0  0  0  0  0  0  0
   23.8019   74.0784    3.5349 C   0  0  0  0  0  0  0  0  0  0  0  0
   24.5064   73.7147    4.7813 C   0  0  0  0  0  0  0  0  0  0  0  0
   24.8862   72.0981    5.9450 H   0  0  0  0  0  0  0  0  0  0  0  0
   21.1198   72.7714   -3.4706 O   0  0  0  0  0  0  0  0  0  0  0  0
   19.5786   72.9914   -3.0356 P   0  0  2  0  0  0  0  0  0  0  0  0
   19.2690   74.5040   -3.5189 O   0  0  0  0  0  0  0  0  0  0  0  0
   19.3078   72.7385   -1.5807 O   0  0  0  0  0  0  0  0  0  0  0  0
   18.7321   72.0594   -4.0454 O   0  0  0  0  0  0  0  0  0  0  0  0
   16.9597   73.0845   -5.2388 O   0  0  0  0  0  0  0  0  0  0  0  0
   15.8801   69.1284   -5.7234 O   0  0  0  0  0  0  0  0  0  0  0  0
   16.9383   70.5931   -7.9557 O   0  0  0  0  0  0  0  0  0  0  0  0
   16.9930   70.0235   -3.2055 O   0  0  0  0  0  0  0  0  0  0  0  0
   16.7899   70.2247   -5.5970 C   0  0  1  0  0  0  0  0  0  0  0  0
   16.5198   71.2061   -6.7393 C   0  0  1  0  0  0  0  0  0  0  0  0
   16.5721   70.9007   -4.2446 C   0  0  2  0  0  0  0  0  0  0  0  0
   17.2681   72.5282   -6.5222 C   0  0  1  0  0  0  0  0  0  0  0  0
   17.3212   72.2312   -4.1511 C   0  0  1  0  0  0  0  0  0  0  0  0
   16.0134   68.6946   -6.5798 H   0  0  0  0  0  0  0  0  0  0  0  0
   16.4587   69.7591   -8.0805 H   0  0  0  0  0  0  0  0  0  0  0  0
   16.5113   69.1850   -3.2754 H   0  0  0  0  0  0  0  0  0  0  0  0
   15.6834   73.1771   -8.1886 O   0  0  0  0  0  0  0  0  0  0  0  0
   16.8901   73.5773   -7.5656 C   0  0  0  0  0  0  0  0  0  0  0  0
   15.4304   73.8356   -8.8550 H   0  0  0  0  0  0  0  0  0  0  0  0
 25 28  1  0
 25 24  1  0
 25 26  1  6
 25 27  2  0
  1  4  1  0
  1 24  1  0
  1  2  1  6
  1  3  2  0
  6 11  1  0
  6 12  1  0
 29 36  1  0
 29 37  1  0
  9  7  1  1
  7 13  1  0
 10  8  1  1
  8 14  1  0
 37 28  1  6
  4  5  1  0
 33 30  1  6
 30 38  1  0
 34 31  1  6
 31 39  1  0
 35 32  1  1
 32 40  1  0
 41 42  1  0
 41 43  1  0
 15 19  2  0
 16 22  2  0
 12 17  1  6
 17 19  1  0
 17 20  1  0
 18 19  1  0
 18 22  1  0
 18 23  1  0
  9 10  1  0
  9 11  1  0
 10 12  1  0
 11  5  1  6
 33 34  1  0
 33 35  1  0
 34 36  1  0
 35 37  1  0
 36 42  1  6
 20 21  2  0
 21 22  1  0
M  CHG  2   2  -1  26  -1
M  END
>  <COMPND>  (91) 
    8629 

>  <AUTHOR>  (91) 
    GENERATED BY OPEN BABEL 3.1.1

>  <MASTER>  (91) 
        0    0    0    0    0    0    0    0   58    0   58    0

>  <minimizedAffinity>  (91) 
-7.46431

>  <CNNscore>  (91) 
0.3377130628

>  <CNNaffinity>  (91) 
3.8876106739

>  <CNN_VS>  (91) 
1.3128969669

>  <CNNaffinity_variance>  (91) 
0.1732242256

$$$$
92
     RDKit          3D

 43 45  0  0  0  0  0  0  0  0999 V2000
   20.9159   72.5057   -2.2874 P   0  0  2  0  0  0  0  0  0  0  0  0
   20.5459   74.0634   -2.0547 O   0  0  0  0  0  0  0  0  0  0  0  0
   21.9465   72.2506   -3.3477 O   0  0  0  0  0  0  0  0  0  0  0  0
   19.4804   71.7956   -2.5175 O   0  0  0  0  0  0  0  0  0  0  0  0
   18.8206   71.9904   -3.7563 C   0  0  0  0  0  0  0  0  0  0  0  0
   16.5657   72.5724   -4.3483 O   0  0  0  0  0  0  0  0  0  0  0  0
   15.8295   69.7836   -3.5289 O   0  0  0  0  0  0  0  0  0  0  0  0
   15.9190   69.6000   -6.2482 O   0  0  0  0  0  0  0  0  0  0  0  0
   17.0116   70.2513   -4.1762 C   0  0  1  0  0  0  0  0  0  0  0  0
   16.7218   70.5821   -5.6254 C   0  0  2  0  0  0  0  0  0  0  0  0
   17.3522   71.6199   -3.5996 C   0  0  1  0  0  0  0  0  0  0  0  0
   16.0185   71.9236   -5.5078 C   0  0  2  0  0  0  0  0  0  0  0  0
   15.5924   68.9106   -3.8804 H   0  0  0  0  0  0  0  0  0  0  0  0
   16.4104   68.7654   -6.2994 H   0  0  0  0  0  0  0  0  0  0  0  0
   18.2178   71.6814   -7.2635 O   0  0  0  0  0  0  0  0  0  0  0  0
   16.7510   75.1825   -9.8773 O   0  0  0  0  0  0  0  0  0  0  0  0
   16.2361   72.7585   -6.6555 N   0  0  0  0  0  0  0  0  0  0  0  0
   17.4856   73.4247   -8.5637 N   0  0  0  0  0  0  0  0  0  0  0  0
   17.3728   72.5545   -7.4719 C   0  0  0  0  0  0  0  0  0  0  0  0
   15.3277   73.7659   -6.9617 C   0  0  0  0  0  0  0  0  0  0  0  0
   15.4503   74.5882   -8.0058 C   0  0  0  0  0  0  0  0  0  0  0  0
   16.6100   74.4420   -8.9090 C   0  0  0  0  0  0  0  0  0  0  0  0
   18.2699   73.3016   -9.1463 H   0  0  0  0  0  0  0  0  0  0  0  0
   21.3350   72.0068   -0.8080 O   0  0  0  0  0  0  0  0  0  0  0  0
   20.4573   71.3459    0.3777 P   0  0  2  0  0  0  0  0  0  0  0  0
   20.0721   69.8899   -0.2132 O   0  0  0  0  0  0  0  0  0  0  0  0
   19.2790   72.1724    0.8050 O   0  0  0  0  0  0  0  0  0  0  0  0
   21.5215   71.0407    1.5522 O   0  0  0  0  0  0  0  0  0  0  0  0
   23.3557   72.4757    1.9914 O   0  0  0  0  0  0  0  0  0  0  0  0
   24.8776   68.9654    3.5444 O   0  0  0  0  0  0  0  0  0  0  0  0
   24.0574   71.0650    5.3240 O   0  0  0  0  0  0  0  0  0  0  0  0
   23.2909   68.9051    1.1240 O   0  0  0  0  0  0  0  0  0  0  0  0
   23.8575   69.9186    3.2343 C   0  0  1  0  0  0  0  0  0  0  0  0
   24.2122   71.2403    3.9184 C   0  0  1  0  0  0  0  0  0  0  0  0
   23.7872   70.0993    1.7191 C   0  0  2  0  0  0  0  0  0  0  0  0
   23.3142   72.3805    3.4200 C   0  0  1  0  0  0  0  0  0  0  0  0
   22.9075   71.2896    1.3325 C   0  0  1  0  0  0  0  0  0  0  0  0
   24.9272   68.8456    4.5050 H   0  0  0  0  0  0  0  0  0  0  0  0
   24.6294   70.3419    5.6258 H   0  0  0  0  0  0  0  0  0  0  0  0
   23.8565   68.1592    1.3761 H   0  0  0  0  0  0  0  0  0  0  0  0
   24.9997   73.5750    4.6205 O   0  0  0  0  0  0  0  0  0  0  0  0
   23.7524   73.7360    3.9703 C   0  0  0  0  0  0  0  0  0  0  0  0
   25.2912   74.4298    4.9756 H   0  0  0  0  0  0  0  0  0  0  0  0
 25 28  1  0
 25 24  1  0
 25 26  1  6
 25 27  2  0
  1  4  1  0
  1 24  1  0
  1  2  1  1
  1  3  2  0
  6 11  1  0
  6 12  1  0
 29 36  1  0
 29 37  1  0
  9  7  1  1
  7 13  1  0
 10  8  1  1
  8 14  1  0
 37 28  1  1
  4  5  1  0
 33 30  1  6
 30 38  1  0
 34 31  1  1
 31 39  1  0
 35 32  1  6
 32 40  1  0
 41 42  1  0
 41 43  1  0
 15 19  2  0
 16 22  2  0
 12 17  1  6
 17 19  1  0
 17 20  1  0
 18 19  1  0
 18 22  1  0
 18 23  1  0
  9 10  1  0
  9 11  1  0
 10 12  1  0
 11  5  1  6
 33 34  1  0
 33 35  1  0
 34 36  1  0
 35 37  1  0
 36 42  1  1
 20 21  2  0
 21 22  1  0
M  CHG  2   2  -1  26  -1
M  END
>  <COMPND>  (92) 
    8629 

>  <AUTHOR>  (92) 
    GENERATED BY OPEN BABEL 3.1.1

>  <MASTER>  (92) 
        0    0    0    0    0    0    0    0   58    0   58    0

>  <minimizedAffinity>  (92) 
-7.63946

>  <CNNscore>  (92) 
0.3344656825

>  <CNNaffinity>  (92) 
3.7582612038

>  <CNN_VS>  (92) 
1.2570093870

>  <CNNaffinity_variance>  (92) 
0.2681828439

$$$$
93
     RDKit          3D

 43 45  0  0  0  0  0  0  0  0999 V2000
   19.4343   71.5026   -0.7605 P   0  0  2  0  0  0  0  0  0  0  0  0
   18.3049   72.3861   -0.0114 O   0  0  0  0  0  0  0  0  0  0  0  0
   19.1588   70.0283   -0.8058 O   0  0  0  0  0  0  0  0  0  0  0  0
   20.8130   71.9376   -0.0339 O   0  0  0  0  0  0  0  0  0  0  0  0
   21.2165   73.2940   -0.1062 C   0  0  0  0  0  0  0  0  0  0  0  0
   21.0684   72.9867    2.2723 O   0  0  0  0  0  0  0  0  0  0  0  0
   21.2575   75.9719    2.4814 O   0  0  0  0  0  0  0  0  0  0  0  0
   23.7942   75.1720    3.0831 O   0  0  0  0  0  0  0  0  0  0  0  0
   21.8991   75.0894    1.5622 C   0  0  1  0  0  0  0  0  0  0  0  0
   23.0173   74.3351    2.2508 C   0  0  2  0  0  0  0  0  0  0  0  0
   20.9211   73.9708    1.2253 C   0  0  1  0  0  0  0  0  0  0  0  0
   22.2516   73.2812    3.0327 C   0  0  2  0  0  0  0  0  0  0  0  0
   21.8628   76.6950    2.7112 H   0  0  0  0  0  0  0  0  0  0  0  0
   24.2617   75.8250    2.5393 H   0  0  0  0  0  0  0  0  0  0  0  0
   23.9784   72.7789    5.2107 O   0  0  0  0  0  0  0  0  0  0  0  0
   25.0981   68.6093    3.5976 O   0  0  0  0  0  0  0  0  0  0  0  0
   23.0065   72.0726    3.2072 N   0  0  0  0  0  0  0  0  0  0  0  0
   24.5344   70.7031    4.4058 N   0  0  0  0  0  0  0  0  0  0  0  0
   23.8454   71.9206    4.3358 C   0  0  0  0  0  0  0  0  0  0  0  0
   22.9107   71.0536    2.2658 C   0  0  0  0  0  0  0  0  0  0  0  0
   23.5753   69.8990    2.3465 C   0  0  0  0  0  0  0  0  0  0  0  0
   24.4733   69.6604    3.4949 C   0  0  0  0  0  0  0  0  0  0  0  0
   25.1251   70.5750    5.1832 H   0  0  0  0  0  0  0  0  0  0  0  0
   19.5480   72.2105   -2.2092 O   0  0  0  0  0  0  0  0  0  0  0  0
   20.4085   71.8153   -3.5193 P   0  0  2  0  0  0  0  0  0  0  0  0
   20.7376   70.2482   -3.2882 O   0  0  0  0  0  0  0  0  0  0  0  0
   21.6182   72.6756   -3.7437 O   0  0  0  0  0  0  0  0  0  0  0  0
   19.3411   71.8334   -4.7298 O   0  0  0  0  0  0  0  0  0  0  0  0
   17.4416   73.0844   -5.3956 O   0  0  0  0  0  0  0  0  0  0  0  0
   15.8666   69.2797   -5.7031 O   0  0  0  0  0  0  0  0  0  0  0  0
   16.4724   70.7606   -8.0881 O   0  0  0  0  0  0  0  0  0  0  0  0
   17.6681   69.9256   -3.5312 O   0  0  0  0  0  0  0  0  0  0  0  0
   16.8883   70.2773   -5.7828 C   0  0  1  0  0  0  0  0  0  0  0  0
   16.4421   71.3415   -6.7873 C   0  0  1  0  0  0  0  0  0  0  0  0
   17.0920   70.8947   -4.4005 C   0  0  2  0  0  0  0  0  0  0  0  0
   17.3550   72.5738   -6.7311 C   0  0  1  0  0  0  0  0  0  0  0  0
   17.9754   72.1420   -4.4636 C   0  0  1  0  0  0  0  0  0  0  0  0
   15.7326   68.8834   -6.5774 H   0  0  0  0  0  0  0  0  0  0  0  0
   15.8923   69.9833   -8.1099 H   0  0  0  0  0  0  0  0  0  0  0  0
   17.0994   69.1411   -3.4996 H   0  0  0  0  0  0  0  0  0  0  0  0
   17.3188   73.5143   -8.9272 O   0  0  0  0  0  0  0  0  0  0  0  0
   16.8371   73.7099   -7.6104 C   0  0  0  0  0  0  0  0  0  0  0  0
   16.9968   74.2299   -9.4982 H   0  0  0  0  0  0  0  0  0  0  0  0
 25 28  1  0
 25 24  1  0
 25 26  1  1
 25 27  2  0
  1  4  1  0
  1 24  1  0
  1  2  1  1
  1  3  2  0
  6 11  1  0
  6 12  1  0
 29 36  1  0
 29 37  1  0
  9  7  1  1
  7 13  1  0
 10  8  1  1
  8 14  1  0
 37 28  1  6
  4  5  1  0
 33 30  1  1
 30 38  1  0
 34 31  1  6
 31 39  1  0
 35 32  1  1
 32 40  1  0
 41 42  1  0
 41 43  1  0
 15 19  2  0
 16 22  2  0
 12 17  1  6
 17 19  1  0
 17 20  1  0
 18 19  1  0
 18 22  1  0
 18 23  1  0
  9 10  1  0
  9 11  1  0
 10 12  1  0
 11  5  1  6
 33 34  1  0
 33 35  1  0
 34 36  1  0
 35 37  1  0
 36 42  1  6
 20 21  2  0
 21 22  1  0
M  CHG  2   2  -1  26  -1
M  END
>  <COMPND>  (93) 
    8629 

>  <AUTHOR>  (93) 
    GENERATED BY OPEN BABEL 3.1.1

>  <MASTER>  (93) 
        0    0    0    0    0    0    0    0   58    0   58    0

>  <minimizedAffinity>  (93) 
-7.08026

>  <CNNscore>  (93) 
0.3119253218

>  <CNNaffinity>  (93) 
3.8774478436

>  <CNN_VS>  (93) 
1.2094742060

>  <CNNaffinity_variance>  (93) 
0.1058437452

$$$$
94
     RDKit          3D

 43 45  0  0  0  0  0  0  0  0999 V2000
   20.7448   75.1058   -2.4898 P   0  0  2  0  0  0  0  0  0  0  0  0
   21.1296   76.4831   -3.2465 O   0  0  0  0  0  0  0  0  0  0  0  0
   20.0814   75.2799   -1.1553 O   0  0  0  0  0  0  0  0  0  0  0  0
   22.1284   74.2670   -2.4826 O   0  0  0  0  0  0  0  0  0  0  0  0
   22.4075   73.4328   -1.3717 C   0  0  0  0  0  0  0  0  0  0  0  0
   23.0883   71.1800   -0.8869 O   0  0  0  0  0  0  0  0  0  0  0  0
   20.8201   70.3147   -2.6469 O   0  0  0  0  0  0  0  0  0  0  0  0
   19.7963   69.9664   -0.1434 O   0  0  0  0  0  0  0  0  0  0  0  0
   20.8951   71.4224   -1.7509 C   0  0  1  0  0  0  0  0  0  0  0  0
   20.8000   70.9459   -0.3165 C   0  0  2  0  0  0  0  0  0  0  0  0
   22.3128   71.9773   -1.8084 C   0  0  1  0  0  0  0  0  0  0  0  0
   22.1970   70.4011   -0.0723 C   0  0  2  0  0  0  0  0  0  0  0  0
   19.9235   69.9436   -2.6277 H   0  0  0  0  0  0  0  0  0  0  0  0
   18.9264   70.3617   -0.3098 H   0  0  0  0  0  0  0  0  0  0  0  0
   20.9215   72.0578    1.8268 O   0  0  0  0  0  0  0  0  0  0  0  0
   23.8235   70.7724    5.1685 O   0  0  0  0  0  0  0  0  0  0  0  0
   22.5982   70.5184    1.3013 N   0  0  0  0  0  0  0  0  0  0  0  0
   22.3674   71.4163    3.4892 N   0  0  0  0  0  0  0  0  0  0  0  0
   21.8910   71.3794    2.1725 C   0  0  0  0  0  0  0  0  0  0  0  0
   23.6815   69.7844    1.7719 C   0  0  0  0  0  0  0  0  0  0  0  0
   24.1240   69.8318    3.0302 C   0  0  0  0  0  0  0  0  0  0  0  0
   23.4406   70.7068    4.0045 C   0  0  0  0  0  0  0  0  0  0  0  0
   21.8905   72.0095    4.1140 H   0  0  0  0  0  0  0  0  0  0  0  0
   19.8522   74.3248   -3.5881 O   0  0  0  0  0  0  0  0  0  0  0  0
   18.3372   74.5719   -4.0949 P   0  0  2  0  0  0  0  0  0  0  0  0
   18.5387   75.3004   -5.5253 O   0  0  0  0  0  0  0  0  0  0  0  0
   17.4811   75.3353   -3.1263 O   0  0  0  0  0  0  0  0  0  0  0  0
   17.7839   73.1006   -4.4610 O   0  0  0  0  0  0  0  0  0  0  0  0
   18.7411   70.9344   -4.5493 O   0  0  0  0  0  0  0  0  0  0  0  0
   16.5725   70.8411   -8.0620 O   0  0  0  0  0  0  0  0  0  0  0  0
   15.6854   69.3002   -5.8067 O   0  0  0  0  0  0  0  0  0  0  0  0
   17.9159   73.2761   -7.2587 O   0  0  0  0  0  0  0  0  0  0  0  0
   16.8350   71.1969   -6.7019 C   0  0  1  0  0  0  0  0  0  0  0  0
   16.9710   69.9092   -5.8870 C   0  0  1  0  0  0  0  0  0  0  0  0
   18.1257   72.0117   -6.6393 C   0  0  2  0  0  0  0  0  0  0  0  0
   17.5143   70.1981   -4.4811 C   0  0  1  0  0  0  0  0  0  0  0  0
   18.6055   72.1998   -5.1991 C   0  0  1  0  0  0  0  0  0  0  0  0
   15.7540   70.3240   -8.1088 H   0  0  0  0  0  0  0  0  0  0  0  0
   15.3535   69.1235   -6.7010 H   0  0  0  0  0  0  0  0  0  0  0  0
   17.6127   73.1434   -8.1699 H   0  0  0  0  0  0  0  0  0  0  0  0
   17.9396   69.2391   -2.3344 O   0  0  0  0  0  0  0  0  0  0  0  0
   17.8065   68.9151   -3.7061 C   0  0  0  0  0  0  0  0  0  0  0  0
   18.1255   68.4320   -1.8287 H   0  0  0  0  0  0  0  0  0  0  0  0
 25 28  1  0
 25 24  1  0
 25 26  1  6
 25 27  2  0
  1  4  1  0
  1 24  1  0
  1  2  1  6
  1  3  2  0
  6 11  1  0
  6 12  1  0
 29 36  1  0
 29 37  1  0
  9  7  1  6
  7 13  1  0
 10  8  1  6
  8 14  1  0
 37 28  1  1
  4  5  1  0
 33 30  1  6
 30 38  1  0
 34 31  1  1
 31 39  1  0
 35 32  1  1
 32 40  1  0
 41 42  1  0
 41 43  1  0
 15 19  2  0
 16 22  2  0
 12 17  1  1
 17 19  1  0
 17 20  1  0
 18 19  1  0
 18 22  1  0
 18 23  1  0
  9 10  1  0
  9 11  1  0
 10 12  1  0
 11  5  1  1
 33 34  1  0
 33 35  1  0
 34 36  1  0
 35 37  1  0
 36 42  1  6
 20 21  2  0
 21 22  1  0
M  CHG  2   2  -1  26  -1
M  END
>  <COMPND>  (94) 
    8629 

>  <AUTHOR>  (94) 
    GENERATED BY OPEN BABEL 3.1.1

>  <MASTER>  (94) 
        0    0    0    0    0    0    0    0   58    0   58    0

>  <minimizedAffinity>  (94) 
-7.25039

>  <CNNscore>  (94) 
0.2944014966

>  <CNNaffinity>  (94) 
3.6831576824

>  <CNN_VS>  (94) 
1.0843271017

>  <CNNaffinity_variance>  (94) 
0.6261482835

$$$$
95
     RDKit          3D

 43 45  0  0  0  0  0  0  0  0999 V2000
   22.6326   71.9491   -3.3799 P   0  0  2  0  0  0  0  0  0  0  0  0
   23.6974   70.7344   -3.4694 O   0  0  0  0  0  0  0  0  0  0  0  0
   23.0984   73.1442   -2.6014 O   0  0  0  0  0  0  0  0  0  0  0  0
   21.2811   71.2419   -2.8401 O   0  0  0  0  0  0  0  0  0  0  0  0
   21.3400   70.5055   -1.6310 C   0  0  0  0  0  0  0  0  0  0  0  0
   20.3922   70.4429    0.5762 O   0  0  0  0  0  0  0  0  0  0  0  0
   18.4399   72.4954   -0.4070 O   0  0  0  0  0  0  0  0  0  0  0  0
   20.2304   74.0013    0.9941 O   0  0  0  0  0  0  0  0  0  0  0  0
   19.8205   72.3361   -0.7294 C   0  0  1  0  0  0  0  0  0  0  0  0
   20.6863   72.7898    0.4273 C   0  0  2  0  0  0  0  0  0  0  0  0
   20.1202   70.8433   -0.7847 C   0  0  1  0  0  0  0  0  0  0  0  0
   20.5720   71.6165    1.3856 C   0  0  2  0  0  0  0  0  0  0  0  0
   18.2245   73.4408   -0.3663 H   0  0  0  0  0  0  0  0  0  0  0  0
   20.3236   74.7168    0.3461 H   0  0  0  0  0  0  0  0  0  0  0  0
   21.1491   73.1343    3.6967 O   0  0  0  0  0  0  0  0  0  0  0  0
   25.1162   70.8961    4.3991 O   0  0  0  0  0  0  0  0  0  0  0  0
   21.7485   71.4511    2.1918 N   0  0  0  0  0  0  0  0  0  0  0  0
   23.1238   72.0185    4.0446 N   0  0  0  0  0  0  0  0  0  0  0  0
   21.9435   72.2652    3.3319 C   0  0  0  0  0  0  0  0  0  0  0  0
   22.6936   70.4901    1.8497 C   0  0  0  0  0  0  0  0  0  0  0  0
   23.8145   70.2682    2.5392 C   0  0  0  0  0  0  0  0  0  0  0  0
   24.0943   71.0759    3.7439 C   0  0  0  0  0  0  0  0  0  0  0  0
   23.2812   72.5739    4.8425 H   0  0  0  0  0  0  0  0  0  0  0  0
   22.2913   72.2482   -4.9314 O   0  0  0  0  0  0  0  0  0  0  0  0
   21.4425   73.4385   -5.6212 P   0  0  2  0  0  0  0  0  0  0  0  0
   22.2985   73.7824   -6.9503 O   0  0  0  0  0  0  0  0  0  0  0  0
   21.1923   74.6158   -4.7239 O   0  0  0  0  0  0  0  0  0  0  0  0
   20.1057   72.7210   -6.1717 O   0  0  0  0  0  0  0  0  0  0  0  0
   18.9831   70.7369   -5.5237 O   0  0  0  0  0  0  0  0  0  0  0  0
   18.5601   70.4267   -9.6195 O   0  0  0  0  0  0  0  0  0  0  0  0
   16.2797   71.0902   -8.0048 O   0  0  0  0  0  0  0  0  0  0  0  0
   21.0258   71.4449   -8.4955 O   0  0  0  0  0  0  0  0  0  0  0  0
   18.6439   71.1108   -8.3664 C   0  0  1  0  0  0  0  0  0  0  0  0
   17.5099   70.6100   -7.4698 C   0  0  1  0  0  0  0  0  0  0  0  0
   20.0015   70.8206   -7.7290 C   0  0  2  0  0  0  0  0  0  0  0  0
   17.6902   71.0957   -6.0252 C   0  0  1  0  0  0  0  0  0  0  0  0
   20.0582   71.3005   -6.2776 C   0  0  1  0  0  0  0  0  0  0  0  0
   17.7007   70.6072  -10.0297 H   0  0  0  0  0  0  0  0  0  0  0  0
   16.1784   70.7769   -8.9173 H   0  0  0  0  0  0  0  0  0  0  0  0
   20.9794   71.1326   -9.4121 H   0  0  0  0  0  0  0  0  0  0  0  0
   16.0144   69.4141   -5.7549 O   0  0  0  0  0  0  0  0  0  0  0  0
   16.6592   70.4798   -5.0819 C   0  0  0  0  0  0  0  0  0  0  0  0
   15.3556   69.0124   -5.1664 H   0  0  0  0  0  0  0  0  0  0  0  0
 25 28  1  0
 25 24  1  0
 25 26  1  6
 25 27  2  0
  1  4  1  0
  1 24  1  0
  1  2  1  6
  1  3  2  0
  6 11  1  0
  6 12  1  0
 29 36  1  0
 29 37  1  0
  9  7  1  1
  7 13  1  0
 10  8  1  1
  8 14  1  0
 37 28  1  6
  4  5  1  0
 33 30  1  6
 30 38  1  0
 34 31  1  6
 31 39  1  0
 35 32  1  6
 32 40  1  0
 41 42  1  0
 41 43  1  0
 15 19  2  0
 16 22  2  0
 12 17  1  6
 17 19  1  0
 17 20  1  0
 18 19  1  0
 18 22  1  0
 18 23  1  0
  9 10  1  0
  9 11  1  0
 10 12  1  0
 11  5  1  6
 33 34  1  0
 33 35  1  0
 34 36  1  0
 35 37  1  0
 36 42  1  1
 20 21  2  0
 21 22  1  0
M  CHG  2   2  -1  26  -1
M  END
>  <COMPND>  (95) 
    8629 

>  <AUTHOR>  (95) 
    GENERATED BY OPEN BABEL 3.1.1

>  <MASTER>  (95) 
        0    0    0    0    0    0    0    0   58    0   58    0

>  <minimizedAffinity>  (95) 
-7.75199

>  <CNNscore>  (95) 
0.2897315323

>  <CNNaffinity>  (95) 
3.7832427025

>  <CNN_VS>  (95) 
1.0961246490

>  <CNNaffinity_variance>  (95) 
0.2895354629

$$$$
96
     RDKit          3D

 43 45  0  0  0  0  0  0  0  0999 V2000
   17.9005   70.8663   -1.3371 P   0  0  2  0  0  0  0  0  0  0  0  0
   16.4559   70.4291   -0.7546 O   0  0  0  0  0  0  0  0  0  0  0  0
   19.0452   69.9935   -0.9136 O   0  0  0  0  0  0  0  0  0  0  0  0
   18.0236   72.4294   -0.9375 O   0  0  0  0  0  0  0  0  0  0  0  0
   19.1516   72.8493   -0.1898 C   0  0  0  0  0  0  0  0  0  0  0  0
   19.3668   72.0621    2.0702 O   0  0  0  0  0  0  0  0  0  0  0  0
   18.3383   74.7515    2.9068 O   0  0  0  0  0  0  0  0  0  0  0  0
   21.0247   74.9907    3.3101 O   0  0  0  0  0  0  0  0  0  0  0  0
   19.1947   74.4120    1.8175 C   0  0  1  0  0  0  0  0  0  0  0  0
   20.5830   74.0803    2.3238 C   0  0  2  0  0  0  0  0  0  0  0  0
   18.7323   73.0730    1.2567 C   0  0  1  0  0  0  0  0  0  0  0  0
   20.3922   72.6751    2.8688 C   0  0  2  0  0  0  0  0  0  0  0  0
   18.6139   75.6035    3.2812 H   0  0  0  0  0  0  0  0  0  0  0  0
   21.1310   75.8699    2.9144 H   0  0  0  0  0  0  0  0  0  0  0  0
   22.4616   72.6875    4.7911 O   0  0  0  0  0  0  0  0  0  0  0  0
   24.9340   69.6064    2.4172 O   0  0  0  0  0  0  0  0  0  0  0  0
   21.5879   71.8855    2.7784 N   0  0  0  0  0  0  0  0  0  0  0  0
   23.6909   71.1532    3.6076 N   0  0  0  0  0  0  0  0  0  0  0  0
   22.5659   71.9659    3.7971 C   0  0  0  0  0  0  0  0  0  0  0  0
   21.7814   71.0431    1.6891 C   0  0  0  0  0  0  0  0  0  0  0  0
   22.8605   70.2755    1.5226 C   0  0  0  0  0  0  0  0  0  0  0  0
   23.9297   70.3004    2.5416 C   0  0  0  0  0  0  0  0  0  0  0  0
   24.3857   71.1929    4.3044 H   0  0  0  0  0  0  0  0  0  0  0  0
   17.6485   70.9181   -2.9329 O   0  0  0  0  0  0  0  0  0  0  0  0
   17.8768   69.8026   -4.0804 P   0  0  2  0  0  0  0  0  0  0  0  0
   16.4913   68.9673   -4.0668 O   0  0  0  0  0  0  0  0  0  0  0  0
   19.1072   68.9643   -3.8875 O   0  0  0  0  0  0  0  0  0  0  0  0
   17.8410   70.6290   -5.4663 O   0  0  0  0  0  0  0  0  0  0  0  0
   15.9450   72.0213   -5.1773 O   0  0  0  0  0  0  0  0  0  0  0  0
   17.2838   73.4740   -8.8034 O   0  0  0  0  0  0  0  0  0  0  0  0
   17.6048   75.0638   -6.4333 O   0  0  0  0  0  0  0  0  0  0  0  0
   17.4280   70.6378   -8.2420 O   0  0  0  0  0  0  0  0  0  0  0  0
   17.4189   72.9258   -7.4894 C   0  0  1  0  0  0  0  0  0  0  0  0
   16.7842   73.9006   -6.4955 C   0  0  1  0  0  0  0  0  0  0  0  0
   16.7142   71.5714   -7.4386 C   0  0  2  0  0  0  0  0  0  0  0  0
   16.6510   73.2655   -5.1048 C   0  0  1  0  0  0  0  0  0  0  0  0
   16.5911   71.0521   -6.0050 C   0  0  1  0  0  0  0  0  0  0  0  0
   17.7295   74.3338   -8.8425 H   0  0  0  0  0  0  0  0  0  0  0  0
   17.6811   75.4548   -7.3178 H   0  0  0  0  0  0  0  0  0  0  0  0
   17.4988   70.9780   -9.1471 H   0  0  0  0  0  0  0  0  0  0  0  0
   16.3523   73.9203   -2.8265 O   0  0  0  0  0  0  0  0  0  0  0  0
   15.8786   74.1611   -4.1387 C   0  0  0  0  0  0  0  0  0  0  0  0
   15.8699   74.4837   -2.2007 H   0  0  0  0  0  0  0  0  0  0  0  0
 25 28  1  0
 25 24  1  0
 25 26  1  6
 25 27  2  0
  1  4  1  0
  1 24  1  0
  1  2  1  1
  1  3  2  0
  6 11  1  0
  6 12  1  0
 29 36  1  0
 29 37  1  0
  9  7  1  1
  7 13  1  0
 10  8  1  1
  8 14  1  0
 37 28  1  1
  4  5  1  0
 33 30  1  6
 30 38  1  0
 34 31  1  1
 31 39  1  0
 35 32  1  6
 32 40  1  0
 41 42  1  0
 41 43  1  0
 15 19  2  0
 16 22  2  0
 12 17  1  6
 17 19  1  0
 17 20  1  0
 18 19  1  0
 18 22  1  0
 18 23  1  0
  9 10  1  0
  9 11  1  0
 10 12  1  0
 11  5  1  6
 33 34  1  0
 33 35  1  0
 34 36  1  0
 35 37  1  0
 36 42  1  1
 20 21  2  0
 21 22  1  0
M  CHG  2   2  -1  26  -1
M  END
>  <COMPND>  (96) 
    8629 

>  <AUTHOR>  (96) 
    GENERATED BY OPEN BABEL 3.1.1

>  <MASTER>  (96) 
        0    0    0    0    0    0    0    0   58    0   58    0

>  <minimizedAffinity>  (96) 
-6.97363

>  <CNNscore>  (96) 
0.2832765877

>  <CNNaffinity>  (96) 
3.9066519737

>  <CNN_VS>  (96) 
1.1066629887

>  <CNNaffinity_variance>  (96) 
0.0919900686

$$$$
97
     RDKit          3D

 43 45  0  0  0  0  0  0  0  0999 V2000
   20.3478   75.4222   -0.0222 P   0  0  2  0  0  0  0  0  0  0  0  0
   19.9116   76.9500    0.2824 O   0  0  0  0  0  0  0  0  0  0  0  0
   21.7076   75.2617   -0.6360 O   0  0  0  0  0  0  0  0  0  0  0  0
   19.1133   74.8305   -0.8847 O   0  0  0  0  0  0  0  0  0  0  0  0
   18.1800   73.9840   -0.2364 C   0  0  0  0  0  0  0  0  0  0  0  0
   18.1043   73.0597   -2.4531 O   0  0  0  0  0  0  0  0  0  0  0  0
   15.5609   71.7175   -1.6044 O   0  0  0  0  0  0  0  0  0  0  0  0
   17.3885   69.7026   -1.4137 O   0  0  0  0  0  0  0  0  0  0  0  0
   16.7410   71.9762   -0.8458 C   0  0  1  0  0  0  0  0  0  0  0  0
   17.8490   71.0294   -1.2576 C   0  0  2  0  0  0  0  0  0  0  0  0
   17.2955   73.3253   -1.2861 C   0  0  1  0  0  0  0  0  0  0  0  0
   18.3180   71.6432   -2.5657 C   0  0  2  0  0  0  0  0  0  0  0  0
   15.1883   70.8610   -1.3405 H   0  0  0  0  0  0  0  0  0  0  0  0
   17.1015   69.3566   -0.5543 H   0  0  0  0  0  0  0  0  0  0  0  0
   19.3279   69.3548   -3.8777 O   0  0  0  0  0  0  0  0  0  0  0  0
   23.6797   70.8167   -3.4708 O   0  0  0  0  0  0  0  0  0  0  0  0
   19.7107   71.4003   -2.8164 N   0  0  0  0  0  0  0  0  0  0  0  0
   21.4939   70.0847   -3.6742 N   0  0  0  0  0  0  0  0  0  0  0  0
   20.1129   70.2190   -3.4821 C   0  0  0  0  0  0  0  0  0  0  0  0
   20.6612   72.3279   -2.4040 C   0  0  0  0  0  0  0  0  0  0  0  0
   21.9744   72.1843   -2.5936 C   0  0  0  0  0  0  0  0  0  0  0  0
   22.4780   70.9780   -3.2815 C   0  0  0  0  0  0  0  0  0  0  0  0
   21.7975   69.2693   -4.1355 H   0  0  0  0  0  0  0  0  0  0  0  0
   20.1679   74.6998    1.4126 O   0  0  0  0  0  0  0  0  0  0  0  0
   21.1397   74.6458    2.7032 P   0  0  2  0  0  0  0  0  0  0  0  0
   20.1428   74.2087    3.9002 O   0  0  0  0  0  0  0  0  0  0  0  0
   21.8942   75.9182    2.9591 O   0  0  0  0  0  0  0  0  0  0  0  0
   22.0734   73.3524    2.4576 O   0  0  0  0  0  0  0  0  0  0  0  0
   21.3845   71.1272    2.0209 O   0  0  0  0  0  0  0  0  0  0  0  0
   24.8455   70.3441    4.1326 O   0  0  0  0  0  0  0  0  0  0  0  0
   24.7813   69.8913    1.2973 O   0  0  0  0  0  0  0  0  0  0  0  0
   23.1366   72.5421    4.9250 O   0  0  0  0  0  0  0  0  0  0  0  0
   24.0059   71.0686    3.2296 C   0  0  1  0  0  0  0  0  0  0  0  0
   23.6171   70.1344    2.0820 C   0  0  1  0  0  0  0  0  0  0  0  0
   22.7632   71.5469    3.9781 C   0  0  2  0  0  0  0  0  0  0  0  0
   22.5089   70.7505    1.2174 C   0  0  1  0  0  0  0  0  0  0  0  0
   21.7039   72.0965    3.0211 C   0  0  1  0  0  0  0  0  0  0  0  0
   25.6367   70.0380    3.6637 H   0  0  0  0  0  0  0  0  0  0  0  0
   25.4734   69.5029    1.8552 H   0  0  0  0  0  0  0  0  0  0  0  0
   23.8073   72.1818    5.5252 H   0  0  0  0  0  0  0  0  0  0  0  0
   21.0250   68.9340    0.7621 O   0  0  0  0  0  0  0  0  0  0  0  0
   21.9959   69.7723    0.1629 C   0  0  0  0  0  0  0  0  0  0  0  0
   20.6893   68.3063    0.1025 H   0  0  0  0  0  0  0  0  0  0  0  0
 25 28  1  0
 25 24  1  0
 25 26  1  1
 25 27  2  0
  1  4  1  0
  1 24  1  0
  1  2  1  1
  1  3  2  0
  6 11  1  0
  6 12  1  0
 29 36  1  0
 29 37  1  0
  9  7  1  6
  7 13  1  0
 10  8  1  6
  8 14  1  0
 37 28  1  6
  4  5  1  0
 33 30  1  1
 30 38  1  0
 34 31  1  6
 31 39  1  0
 35 32  1  1
 32 40  1  0
 41 42  1  0
 41 43  1  0
 15 19  2  0
 16 22  2  0
 12 17  1  1
 17 19  1  0
 17 20  1  0
 18 19  1  0
 18 22  1  0
 18 23  1  0
  9 10  1  0
  9 11  1  0
 10 12  1  0
 11  5  1  1
 33 34  1  0
 33 35  1  0
 34 36  1  0
 35 37  1  0
 36 42  1  6
 20 21  2  0
 21 22  1  0
M  CHG  2   2  -1  26  -1
M  END
>  <COMPND>  (97) 
    8629 

>  <AUTHOR>  (97) 
    GENERATED BY OPEN BABEL 3.1.1

>  <MASTER>  (97) 
        0    0    0    0    0    0    0    0   58    0   58    0

>  <minimizedAffinity>  (97) 
-6.37692

>  <CNNscore>  (97) 
0.2814968228

>  <CNNaffinity>  (97) 
3.6138412952

>  <CNN_VS>  (97) 
1.0172848701

>  <CNNaffinity_variance>  (97) 
0.9597141147

$$$$
98
     RDKit          3D

 43 45  0  0  0  0  0  0  0  0999 V2000
   23.3835   69.6241   -2.3732 P   0  0  2  0  0  0  0  0  0  0  0  0
   23.4525   68.1358   -1.7425 O   0  0  0  0  0  0  0  0  0  0  0  0
   24.3802   69.8984   -3.4607 O   0  0  0  0  0  0  0  0  0  0  0  0
   23.4657   70.5969   -1.0830 O   0  0  0  0  0  0  0  0  0  0  0  0
   23.6812   70.0142    0.1905 C   0  0  0  0  0  0  0  0  0  0  0  0
   22.5388   70.1124    2.3022 O   0  0  0  0  0  0  0  0  0  0  0  0
   20.0050   70.3043    0.7103 O   0  0  0  0  0  0  0  0  0  0  0  0
   20.4440   72.8940    1.4436 O   0  0  0  0  0  0  0  0  0  0  0  0
   21.2912   70.8536    0.4287 C   0  0  1  0  0  0  0  0  0  0  0  0
   21.5645   72.0408    1.3283 C   0  0  2  0  0  0  0  0  0  0  0  0
   22.3412   69.8528    0.8951 C   0  0  1  0  0  0  0  0  0  0  0  0
   21.9227   71.3655    2.6412 C   0  0  2  0  0  0  0  0  0  0  0  0
   19.3179   70.9257    0.4209 H   0  0  0  0  0  0  0  0  0  0  0  0
   20.2562   73.2995    0.5828 H   0  0  0  0  0  0  0  0  0  0  0  0
   23.3091   70.3947    4.9025 O   0  0  0  0  0  0  0  0  0  0  0  0
   25.4298   74.4329    5.5636 O   0  0  0  0  0  0  0  0  0  0  0  0
   22.8436   72.1415    3.4229 N   0  0  0  0  0  0  0  0  0  0  0  0
   24.3641   72.4062    5.2297 N   0  0  0  0  0  0  0  0  0  0  0  0
   23.4867   71.5596    4.5402 C   0  0  0  0  0  0  0  0  0  0  0  0
   23.1015   73.4641    3.0790 C   0  0  0  0  0  0  0  0  0  0  0  0
   23.9400   74.2584    3.7477 C   0  0  0  0  0  0  0  0  0  0  0  0
   24.6525   73.7276    4.9278 C   0  0  0  0  0  0  0  0  0  0  0  0
   24.8232   72.0225    6.0119 H   0  0  0  0  0  0  0  0  0  0  0  0
   21.8380   69.7544   -2.8287 O   0  0  0  0  0  0  0  0  0  0  0  0
   20.9912   71.0251   -3.3589 P   0  0  2  0  0  0  0  0  0  0  0  0
   21.8308   71.5174   -4.6513 O   0  0  0  0  0  0  0  0  0  0  0  0
   20.7661   72.0896   -2.3245 O   0  0  0  0  0  0  0  0  0  0  0  0
   19.6392   70.3891   -3.9693 O   0  0  0  0  0  0  0  0  0  0  0  0
   17.8906   71.9219   -4.4273 O   0  0  0  0  0  0  0  0  0  0  0  0
   15.7356   68.4022   -4.5652 O   0  0  0  0  0  0  0  0  0  0  0  0
   16.3021   69.8144   -7.0010 O   0  0  0  0  0  0  0  0  0  0  0  0
   17.8338   68.7346   -2.5988 O   0  0  0  0  0  0  0  0  0  0  0  0
   16.8820   69.2364   -4.7537 C   0  0  1  0  0  0  0  0  0  0  0  0
   16.4978   70.3719   -5.7044 C   0  0  1  0  0  0  0  0  0  0  0  0
   17.3219   69.7933   -3.4010 C   0  0  2  0  0  0  0  0  0  0  0  0
   17.5870   71.4520   -5.7460 C   0  0  1  0  0  0  0  0  0  0  0  0
   18.3717   70.8948   -3.5581 C   0  0  1  0  0  0  0  0  0  0  0  0
   15.4515   68.0450   -5.4203 H   0  0  0  0  0  0  0  0  0  0  0  0
   15.6122   69.1335   -6.9608 H   0  0  0  0  0  0  0  0  0  0  0  0
   17.1597   68.0439   -2.5066 H   0  0  0  0  0  0  0  0  0  0  0  0
   18.1262   72.8987   -7.5695 O   0  0  0  0  0  0  0  0  0  0  0  0
   17.1564   72.6673   -6.5644 C   0  0  0  0  0  0  0  0  0  0  0  0
   17.8651   73.6692   -8.0986 H   0  0  0  0  0  0  0  0  0  0  0  0
 25 28  1  0
 25 24  1  0
 25 26  1  6
 25 27  2  0
  1  4  1  0
  1 24  1  0
  1  2  1  1
  1  3  2  0
  6 11  1  0
  6 12  1  0
 29 36  1  0
 29 37  1  0
  9  7  1  1
  7 13  1  0
 10  8  1  1
  8 14  1  0
 37 28  1  6
  4  5  1  0
 33 30  1  1
 30 38  1  0
 34 31  1  6
 31 39  1  0
 35 32  1  1
 32 40  1  0
 41 42  1  0
 41 43  1  0
 15 19  2  0
 16 22  2  0
 12 17  1  6
 17 19  1  0
 17 20  1  0
 18 19  1  0
 18 22  1  0
 18 23  1  0
  9 10  1  0
  9 11  1  0
 10 12  1  0
 11  5  1  6
 33 34  1  0
 33 35  1  0
 34 36  1  0
 35 37  1  0
 36 42  1  6
 20 21  2  0
 21 22  1  0
M  CHG  2   2  -1  26  -1
M  END
>  <COMPND>  (98) 
    8629 

>  <AUTHOR>  (98) 
    GENERATED BY OPEN BABEL 3.1.1

>  <MASTER>  (98) 
        0    0    0    0    0    0    0    0   58    0   58    0

>  <minimizedAffinity>  (98) 
-8.41514

>  <CNNscore>  (98) 
0.2731008232

>  <CNNaffinity>  (98) 
3.8348326683

>  <CNN_VS>  (98) 
1.0472959280

>  <CNNaffinity_variance>  (98) 
0.2180765122

$$$$
99
     RDKit          3D

 43 45  0  0  0  0  0  0  0  0999 V2000
   20.6584   74.9503   -3.0735 P   0  0  2  0  0  0  0  0  0  0  0  0
   20.6695   74.5859   -1.4973 O   0  0  0  0  0  0  0  0  0  0  0  0
   20.5950   76.4168   -3.3845 O   0  0  0  0  0  0  0  0  0  0  0  0
   19.4524   74.0525   -3.6713 O   0  0  0  0  0  0  0  0  0  0  0  0
   18.3644   74.7114   -4.2957 C   0  0  0  0  0  0  0  0  0  0  0  0
   18.7340   73.1498   -6.0842 O   0  0  0  0  0  0  0  0  0  0  0  0
   17.5570   75.2308   -7.8939 O   0  0  0  0  0  0  0  0  0  0  0  0
   15.4766   73.5029   -7.5428 O   0  0  0  0  0  0  0  0  0  0  0  0
   17.2041   74.8979   -6.5523 C   0  0  1  0  0  0  0  0  0  0  0  0
   16.4455   73.5876   -6.5178 C   0  0  2  0  0  0  0  0  0  0  0  0
   18.4836   74.5446   -5.8044 C   0  0  1  0  0  0  0  0  0  0  0  0
   17.5632   72.5721   -6.6844 C   0  0  2  0  0  0  0  0  0  0  0  0
   16.7558   75.4605   -8.3913 H   0  0  0  0  0  0  0  0  0  0  0  0
   14.7874   74.1686   -7.3923 H   0  0  0  0  0  0  0  0  0  0  0  0
   15.8804   70.5697   -7.7506 O   0  0  0  0  0  0  0  0  0  0  0  0
   16.5184   67.8316   -4.0987 O   0  0  0  0  0  0  0  0  0  0  0  0
   17.2723   71.3258   -6.0336 N   0  0  0  0  0  0  0  0  0  0  0  0
   16.1996   69.2079   -5.9315 N   0  0  0  0  0  0  0  0  0  0  0  0
   16.4136   70.3887   -6.6540 C   0  0  0  0  0  0  0  0  0  0  0  0
   17.8363   71.0430   -4.7943 C   0  0  0  0  0  0  0  0  0  0  0  0
   17.6211   69.9128   -4.1177 C   0  0  0  0  0  0  0  0  0  0  0  0
   16.7361   68.8812   -4.6961 C   0  0  0  0  0  0  0  0  0  0  0  0
   15.6045   68.5405   -6.3439 H   0  0  0  0  0  0  0  0  0  0  0  0
   21.9788   74.2012   -3.6290 O   0  0  0  0  0  0  0  0  0  0  0  0
   22.2113   72.6745   -4.1065 P   0  0  2  0  0  0  0  0  0  0  0  0
   23.8092   72.6010   -4.3492 O   0  0  0  0  0  0  0  0  0  0  0  0
   21.3855   72.2681   -5.2925 O   0  0  0  0  0  0  0  0  0  0  0  0
   21.9593   71.7890   -2.7808 O   0  0  0  0  0  0  0  0  0  0  0  0
   22.5145   72.1625   -0.5073 O   0  0  0  0  0  0  0  0  0  0  0  0
   23.2752   68.1093   -0.7149 O   0  0  0  0  0  0  0  0  0  0  0  0
   20.9607   69.0467    0.7035 O   0  0  0  0  0  0  0  0  0  0  0  0
   23.9538   69.8220   -2.9478 O   0  0  0  0  0  0  0  0  0  0  0  0
   22.5876   69.3236   -1.0278 C   0  0  1  0  0  0  0  0  0  0  0  0
   22.0166   69.8994    0.2696 C   0  0  1  0  0  0  0  0  0  0  0  0
   23.5707   70.3042   -1.6644 C   0  0  2  0  0  0  0  0  0  0  0  0
   21.4978   71.3284    0.0604 C   0  0  1  0  0  0  0  0  0  0  0  0
   22.9726   71.7073   -1.7820 C   0  0  1  0  0  0  0  0  0  0  0  0
   22.6565   67.4821   -0.3108 H   0  0  0  0  0  0  0  0  0  0  0  0
   21.3014   68.1474    0.8314 H   0  0  0  0  0  0  0  0  0  0  0  0
   24.3311   68.9333   -2.8598 H   0  0  0  0  0  0  0  0  0  0  0  0
   22.2311   72.3455    2.0943 O   0  0  0  0  0  0  0  0  0  0  0  0
   21.0689   71.9791    1.3737 C   0  0  0  0  0  0  0  0  0  0  0  0
   21.9734   72.7613    2.9325 H   0  0  0  0  0  0  0  0  0  0  0  0
 25 28  1  0
 25 24  1  0
 25 26  1  6
 25 27  2  0
  1  4  1  0
  1 24  1  0
  1  2  1  1
  1  3  2  0
  6 11  1  0
  6 12  1  0
 29 36  1  0
 29 37  1  0
  9  7  1  6
  7 13  1  0
 10  8  1  6
  8 14  1  0
 37 28  1  6
  4  5  1  0
 33 30  1  1
 30 38  1  0
 34 31  1  6
 31 39  1  0
 35 32  1  6
 32 40  1  0
 41 42  1  0
 41 43  1  0
 15 19  2  0
 16 22  2  0
 12 17  1  1
 17 19  1  0
 17 20  1  0
 18 19  1  0
 18 22  1  0
 18 23  1  0
  9 10  1  0
  9 11  1  0
 10 12  1  0
 11  5  1  1
 33 34  1  0
 33 35  1  0
 34 36  1  0
 35 37  1  0
 36 42  1  1
 20 21  2  0
 21 22  1  0
M  CHG  2   2  -1  26  -1
M  END
>  <COMPND>  (99) 
    8629 

>  <AUTHOR>  (99) 
    GENERATED BY OPEN BABEL 3.1.1

>  <MASTER>  (99) 
        0    0    0    0    0    0    0    0   58    0   58    0

>  <minimizedAffinity>  (99) 
-6.83494

>  <CNNscore>  (99) 
0.2655008733

>  <CNNaffinity>  (99) 
3.8471152782

>  <CNN_VS>  (99) 
1.0214124918

>  <CNNaffinity_variance>  (99) 
0.5326457620

$$$$
100
     RDKit          3D

 43 45  0  0  0  0  0  0  0  0999 V2000
   19.9907   70.7593   -1.2922 P   0  0  2  0  0  0  0  0  0  0  0  0
   18.5522   70.0199   -1.2560 O   0  0  0  0  0  0  0  0  0  0  0  0
   19.9657   72.2129   -0.9211 O   0  0  0  0  0  0  0  0  0  0  0  0
   20.5647   70.4202   -2.7665 O   0  0  0  0  0  0  0  0  0  0  0  0
   21.2172   71.4484   -3.4910 C   0  0  0  0  0  0  0  0  0  0  0  0
   19.3933   71.0444   -5.0022 O   0  0  0  0  0  0  0  0  0  0  0  0
   21.0699   72.3937   -7.0900 O   0  0  0  0  0  0  0  0  0  0  0  0
   19.3233   74.3597   -6.3686 O   0  0  0  0  0  0  0  0  0  0  0  0
   20.9543   72.6858   -5.6984 C   0  0  1  0  0  0  0  0  0  0  0  0
   19.6320   73.3664   -5.4121 C   0  0  2  0  0  0  0  0  0  0  0  0
   20.8006   71.3659   -4.9531 C   0  0  1  0  0  0  0  0  0  0  0  0
   18.6618   72.1979   -5.4486 C   0  0  2  0  0  0  0  0  0  0  0  0
   21.1695   73.2215   -7.5868 H   0  0  0  0  0  0  0  0  0  0  0  0
   19.9685   75.0810   -6.3057 H   0  0  0  0  0  0  0  0  0  0  0  0
   16.0850   71.1431   -5.9232 O   0  0  0  0  0  0  0  0  0  0  0  0
   14.4039   73.0267   -2.0674 O   0  0  0  0  0  0  0  0  0  0  0  0
   17.5322   72.3967   -4.5850 N   0  0  0  0  0  0  0  0  0  0  0  0
   15.2501   72.0817   -4.0028 N   0  0  0  0  0  0  0  0  0  0  0  0
   16.2816   71.8245   -4.9149 C   0  0  0  0  0  0  0  0  0  0  0  0
   17.6710   73.1516   -3.4253 C   0  0  0  0  0  0  0  0  0  0  0  0
   16.6771   73.3886   -2.5667 C   0  0  0  0  0  0  0  0  0  0  0  0
   15.3381   72.8267   -2.8376 C   0  0  0  0  0  0  0  0  0  0  0  0
   14.3696   71.6934   -4.2122 H   0  0  0  0  0  0  0  0  0  0  0  0
   20.8993   69.8341   -0.3270 O   0  0  0  0  0  0  0  0  0  0  0  0
   22.4233   70.0081    0.1830 P   0  0  2  0  0  0  0  0  0  0  0  0
   23.2363   70.3263   -1.1791 O   0  0  0  0  0  0  0  0  0  0  0  0
   22.9501   68.8358    0.9591 O   0  0  0  0  0  0  0  0  0  0  0  0
   22.4257   71.4031    0.9946 O   0  0  0  0  0  0  0  0  0  0  0  0
   22.6475   70.9745    3.3149 O   0  0  0  0  0  0  0  0  0  0  0  0
   21.9824   75.0474    3.4569 O   0  0  0  0  0  0  0  0  0  0  0  0
   24.6080   74.0196    4.0029 O   0  0  0  0  0  0  0  0  0  0  0  0
   20.5489   73.4161    1.5429 O   0  0  0  0  0  0  0  0  0  0  0  0
   22.4903   73.8285    2.9076 C   0  0  1  0  0  0  0  0  0  0  0  0
   23.4429   73.2027    3.9282 C   0  0  1  0  0  0  0  0  0  0  0  0
   21.3226   72.8882    2.6149 C   0  0  2  0  0  0  0  0  0  0  0  0
   23.8196   71.7698    3.5285 C   0  0  1  0  0  0  0  0  0  0  0  0
   21.8053   71.4768    2.2756 C   0  0  1  0  0  0  0  0  0  0  0  0
   22.7188   75.6491    3.6446 H   0  0  0  0  0  0  0  0  0  0  0  0
   24.3562   74.9217    4.2557 H   0  0  0  0  0  0  0  0  0  0  0  0
   20.2491   74.3096    1.7701 H   0  0  0  0  0  0  0  0  0  0  0  0
   24.6218   71.8730    5.7767 O   0  0  0  0  0  0  0  0  0  0  0  0
   24.6414   71.0716    4.6098 C   0  0  0  0  0  0  0  0  0  0  0  0
   25.1407   71.4409    6.4737 H   0  0  0  0  0  0  0  0  0  0  0  0
 25 28  1  0
 25 24  1  0
 25 26  1  6
 25 27  2  0
  1  4  1  0
  1 24  1  0
  1  2  1  6
  1  3  2  0
  6 11  1  0
  6 12  1  0
 29 36  1  0
 29 37  1  0
  9  7  1  6
  7 13  1  0
 10  8  1  6
  8 14  1  0
 37 28  1  6
  4  5  1  0
 33 30  1  1
 30 38  1  0
 34 31  1  6
 31 39  1  0
 35 32  1  6
 32 40  1  0
 41 42  1  0
 41 43  1  0
 15 19  2  0
 16 22  2  0
 12 17  1  1
 17 19  1  0
 17 20  1  0
 18 19  1  0
 18 22  1  0
 18 23  1  0
  9 10  1  0
  9 11  1  0
 10 12  1  0
 11  5  1  1
 33 34  1  0
 33 35  1  0
 34 36  1  0
 35 37  1  0
 36 42  1  1
 20 21  2  0
 21 22  1  0
M  CHG  2   2  -1  26  -1
M  END
>  <COMPND>  (100) 
    8629 

>  <AUTHOR>  (100) 
    GENERATED BY OPEN BABEL 3.1.1

>  <MASTER>  (100) 
        0    0    0    0    0    0    0    0   58    0   58    0

>  <minimizedAffinity>  (100) 
-6.80559

>  <CNNscore>  (100) 
0.2538072765

>  <CNNaffinity>  (100) 
4.0106477737

>  <CNN_VS>  (100) 
1.0179315805

>  <CNNaffinity_variance>  (100) 
0.0364464894

$$$$
101
     RDKit          3D

 43 45  0  0  0  0  0  0  0  0999 V2000
   21.0568   70.2344   -0.4379 P   0  0  2  0  0  0  0  0  0  0  0  0
   22.3052   69.9515   -1.4273 O   0  0  0  0  0  0  0  0  0  0  0  0
   20.9735   69.3258    0.7532 O   0  0  0  0  0  0  0  0  0  0  0  0
   19.7718   70.2237   -1.4211 O   0  0  0  0  0  0  0  0  0  0  0  0
   19.6357   71.2696   -2.3673 C   0  0  0  0  0  0  0  0  0  0  0  0
   17.9596   72.1312   -3.8580 O   0  0  0  0  0  0  0  0  0  0  0  0
   15.9508   70.8370   -2.0467 O   0  0  0  0  0  0  0  0  0  0  0  0
   16.1085   69.0704   -4.1181 O   0  0  0  0  0  0  0  0  0  0  0  0
   17.2509   70.3848   -2.4215 C   0  0  1  0  0  0  0  0  0  0  0  0
   17.2391   69.8734   -3.8469 C   0  0  2  0  0  0  0  0  0  0  0  0
   18.1590   71.6035   -2.5283 C   0  0  1  0  0  0  0  0  0  0  0  0
   17.2432   71.1660   -4.6454 C   0  0  2  0  0  0  0  0  0  0  0  0
   15.3530   70.0761   -1.9719 H   0  0  0  0  0  0  0  0  0  0  0  0
   16.1520   68.2604   -3.5863 H   0  0  0  0  0  0  0  0  0  0  0  0
   16.0023   70.1582   -6.9740 O   0  0  0  0  0  0  0  0  0  0  0  0
   19.8489   70.6608   -9.4625 O   0  0  0  0  0  0  0  0  0  0  0  0
   17.8969   71.0229   -5.9157 N   0  0  0  0  0  0  0  0  0  0  0  0
   17.9186   70.4094   -8.2112 N   0  0  0  0  0  0  0  0  0  0  0  0
   17.1842   70.5053   -7.0223 C   0  0  0  0  0  0  0  0  0  0  0  0
   19.2298   71.3942   -6.0549 C   0  0  0  0  0  0  0  0  0  0  0  0
   19.9161   71.2953   -7.1952 C   0  0  0  0  0  0  0  0  0  0  0  0
   19.2451   70.7641   -8.3992 C   0  0  0  0  0  0  0  0  0  0  0  0
   17.4428   70.0512   -8.9955 H   0  0  0  0  0  0  0  0  0  0  0  0
   21.2259   71.8013   -0.0783 O   0  0  0  0  0  0  0  0  0  0  0  0
   20.5433   72.7055    1.0747 P   0  0  2  0  0  0  0  0  0  0  0  0
   19.7233   71.6250    1.9567 O   0  0  0  0  0  0  0  0  0  0  0  0
   19.7096   73.8403    0.5539 O   0  0  0  0  0  0  0  0  0  0  0  0
   21.7708   73.1564    2.0206 O   0  0  0  0  0  0  0  0  0  0  0  0
   22.4380   72.6593    4.2397 O   0  0  0  0  0  0  0  0  0  0  0  0
   23.0404   76.7442    4.2691 O   0  0  0  0  0  0  0  0  0  0  0  0
   25.3041   74.9774    4.2246 O   0  0  0  0  0  0  0  0  0  0  0  0
   20.7605   75.6309    2.8756 O   0  0  0  0  0  0  0  0  0  0  0  0
   23.0170   75.4348    3.6946 C   0  0  1  0  0  0  0  0  0  0  0  0
   23.9730   74.5445    4.4910 C   0  0  1  0  0  0  0  0  0  0  0  0
   21.5926   74.8868    3.7589 C   0  0  2  0  0  0  0  0  0  0  0  0
   23.8044   73.0682    4.1074 C   0  0  1  0  0  0  0  0  0  0  0  0
   21.5433   73.3990    3.4065 C   0  0  1  0  0  0  0  0  0  0  0  0
   23.9420   77.0981    4.2310 H   0  0  0  0  0  0  0  0  0  0  0  0
   25.3971   75.9112    4.4708 H   0  0  0  0  0  0  0  0  0  0  0  0
   20.8001   76.5710    3.1093 H   0  0  0  0  0  0  0  0  0  0  0  0
   24.5379   70.8276    4.4954 O   0  0  0  0  0  0  0  0  0  0  0  0
   24.6340   72.1471    4.9992 C   0  0  0  0  0  0  0  0  0  0  0  0
   25.0613   70.2303    5.0530 H   0  0  0  0  0  0  0  0  0  0  0  0
 25 28  1  0
 25 24  1  0
 25 26  1  1
 25 27  2  0
  1  4  1  0
  1 24  1  0
  1  2  1  6
  1  3  2  0
  6 11  1  0
  6 12  1  0
 29 36  1  0
 29 37  1  0
  9  7  1  6
  7 13  1  0
 10  8  1  1
  8 14  1  0
 37 28  1  6
  4  5  1  0
 33 30  1  1
 30 38  1  0
 34 31  1  6
 31 39  1  0
 35 32  1  6
 32 40  1  0
 41 42  1  0
 41 43  1  0
 15 19  2  0
 16 22  2  0
 12 17  1  6
 17 19  1  0
 17 20  1  0
 18 19  1  0
 18 22  1  0
 18 23  1  0
  9 10  1  0
  9 11  1  0
 10 12  1  0
 11  5  1  6
 33 34  1  0
 33 35  1  0
 34 36  1  0
 35 37  1  0
 36 42  1  1
 20 21  2  0
 21 22  1  0
M  CHG  2   2  -1  26  -1
M  END
>  <COMPND>  (101) 
    8629 

>  <AUTHOR>  (101) 
    GENERATED BY OPEN BABEL 3.1.1

>  <MASTER>  (101) 
        0    0    0    0    0    0    0    0   58    0   58    0

>  <minimizedAffinity>  (101) 
-7.41705

>  <CNNscore>  (101) 
0.7214055657

>  <CNNaffinity>  (101) 
4.5140299797

>  <CNN_VS>  (101) 
3.2564463615

>  <CNNaffinity_variance>  (101) 
0.0718643516

$$$$
102
     RDKit          3D

 43 45  0  0  0  0  0  0  0  0999 V2000
   22.5897   73.0417   -3.7117 P   0  0  2  0  0  0  0  0  0  0  0  0
   23.8015   74.0840   -3.4614 O   0  0  0  0  0  0  0  0  0  0  0  0
   22.6542   72.2953   -5.0118 O   0  0  0  0  0  0  0  0  0  0  0  0
   21.2582   73.9305   -3.4770 O   0  0  0  0  0  0  0  0  0  0  0  0
   20.3027   74.0055   -4.5207 C   0  0  0  0  0  0  0  0  0  0  0  0
   18.2498   72.9688   -5.2168 O   0  0  0  0  0  0  0  0  0  0  0  0
   18.0638   71.8939   -2.4238 O   0  0  0  0  0  0  0  0  0  0  0  0
   18.9899   69.7466   -3.8267 O   0  0  0  0  0  0  0  0  0  0  0  0
   19.2178   72.0946   -3.2383 C   0  0  1  0  0  0  0  0  0  0  0  0
   19.2885   71.0368   -4.3197 C   0  0  2  0  0  0  0  0  0  0  0  0
   19.0036   73.3659   -4.0504 C   0  0  1  0  0  0  0  0  0  0  0  0
   18.2558   71.5354   -5.3162 C   0  0  2  0  0  0  0  0  0  0  0  0
   18.1774   71.0877   -1.8955 H   0  0  0  0  0  0  0  0  0  0  0  0
   19.6755   69.4743   -3.1970 H   0  0  0  0  0  0  0  0  0  0  0  0
   16.3692   70.5995   -7.1985 O   0  0  0  0  0  0  0  0  0  0  0  0
   19.5864   70.1347  -10.4657 O   0  0  0  0  0  0  0  0  0  0  0  0
   18.5729   71.1629   -6.6661 N   0  0  0  0  0  0  0  0  0  0  0  0
   17.9727   70.3690   -8.8238 N   0  0  0  0  0  0  0  0  0  0  0  0
   17.5517   70.7044   -7.5306 C   0  0  0  0  0  0  0  0  0  0  0  0
   19.8841   71.2545   -7.1204 C   0  0  0  0  0  0  0  0  0  0  0  0
   20.2692   70.9295   -8.3563 C   0  0  0  0  0  0  0  0  0  0  0  0
   19.2638   70.4416   -9.3222 C   0  0  0  0  0  0  0  0  0  0  0  0
   17.2785   70.0467   -9.4436 H   0  0  0  0  0  0  0  0  0  0  0  0
   22.6381   72.1051   -2.3952 O   0  0  0  0  0  0  0  0  0  0  0  0
   22.9124   70.5208   -2.2290 P   0  0  2  0  0  0  0  0  0  0  0  0
   24.2607   70.2852   -3.0916 O   0  0  0  0  0  0  0  0  0  0  0  0
   21.7580   69.6506   -2.6342 O   0  0  0  0  0  0  0  0  0  0  0  0
   23.3753   70.3452   -0.6928 O   0  0  0  0  0  0  0  0  0  0  0  0
   23.4339   69.0114    1.2652 O   0  0  0  0  0  0  0  0  0  0  0  0
   20.4025   71.6070    2.3255 O   0  0  0  0  0  0  0  0  0  0  0  0
   22.9754   71.8439    3.5794 O   0  0  0  0  0  0  0  0  0  0  0  0
   20.6016   70.6564   -0.4014 O   0  0  0  0  0  0  0  0  0  0  0  0
   21.6307   71.2237    1.7011 C   0  0  1  0  0  0  0  0  0  0  0  0
   22.5859   70.7253    2.7873 C   0  0  1  0  0  0  0  0  0  0  0  0
   21.3501   70.1193    0.6838 C   0  0  2  0  0  0  0  0  0  0  0  0
   23.8195   70.0501    2.1730 C   0  0  1  0  0  0  0  0  0  0  0  0
   22.6427   69.4811    0.1719 C   0  0  1  0  0  0  0  0  0  0  0  0
   20.5736   72.3084    2.9723 H   0  0  0  0  0  0  0  0  0  0  0  0
   22.1873   72.2616    3.9610 H   0  0  0  0  0  0  0  0  0  0  0  0
   19.7857   71.0571   -0.0644 H   0  0  0  0  0  0  0  0  0  0  0  0
   23.9963   69.3779    4.4590 O   0  0  0  0  0  0  0  0  0  0  0  0
   24.7080   69.4068    3.2355 C   0  0  0  0  0  0  0  0  0  0  0  0
   24.5494   68.9707    5.1446 H   0  0  0  0  0  0  0  0  0  0  0  0
 25 28  1  0
 25 24  1  0
 25 26  1  6
 25 27  2  0
  1  4  1  0
  1 24  1  0
  1  2  1  1
  1  3  2  0
  6 11  1  0
  6 12  1  0
 29 36  1  0
 29 37  1  0
  9  7  1  1
  7 13  1  0
 10  8  1  1
  8 14  1  0
 37 28  1  1
  4  5  1  0
 33 30  1  1
 30 38  1  0
 34 31  1  6
 31 39  1  0
 35 32  1  6
 32 40  1  0
 41 42  1  0
 41 43  1  0
 15 19  2  0
 16 22  2  0
 12 17  1  6
 17 19  1  0
 17 20  1  0
 18 19  1  0
 18 22  1  0
 18 23  1  0
  9 10  1  0
  9 11  1  0
 10 12  1  0
 11  5  1  6
 33 34  1  0
 33 35  1  0
 34 36  1  0
 35 37  1  0
 36 42  1  1
 20 21  2  0
 21 22  1  0
M  CHG  2   2  -1  26  -1
M  END
>  <COMPND>  (102) 
    8629 

>  <AUTHOR>  (102) 
    GENERATED BY OPEN BABEL 3.1.1

>  <MASTER>  (102) 
        0    0    0    0    0    0    0    0   58    0   58    0

>  <minimizedAffinity>  (102) 
-8.09304

>  <CNNscore>  (102) 
0.7120265961

>  <CNNaffinity>  (102) 
4.5185890198

>  <CNN_VS>  (102) 
3.2173554897

>  <CNNaffinity_variance>  (102) 
0.0483923629

$$$$
103
     RDKit          3D

 43 45  0  0  0  0  0  0  0  0999 V2000
   22.2273   70.7753   -1.8481 P   0  0  2  0  0  0  0  0  0  0  0  0
   22.8065   72.1620   -2.4472 O   0  0  0  0  0  0  0  0  0  0  0  0
   22.6742   69.5377   -2.5692 O   0  0  0  0  0  0  0  0  0  0  0  0
   20.6283   71.0155   -1.7892 O   0  0  0  0  0  0  0  0  0  0  0  0
   20.0378   71.8740   -2.7495 C   0  0  0  0  0  0  0  0  0  0  0  0
   17.9849   72.0492   -3.9861 O   0  0  0  0  0  0  0  0  0  0  0  0
   16.7633   70.3537   -1.8358 O   0  0  0  0  0  0  0  0  0  0  0  0
   17.1848   68.5560   -3.8427 O   0  0  0  0  0  0  0  0  0  0  0  0
   18.0744   70.2952   -2.3951 C   0  0  1  0  0  0  0  0  0  0  0  0
   18.0279   69.6884   -3.7819 C   0  0  2  0  0  0  0  0  0  0  0  0
   18.5242   71.7213   -2.6868 C   0  0  1  0  0  0  0  0  0  0  0  0
   17.5103   70.8480   -4.6160 C   0  0  2  0  0  0  0  0  0  0  0  0
   16.4547   69.4544   -1.6408 H   0  0  0  0  0  0  0  0  0  0  0  0
   17.5568   67.8462   -3.2963 H   0  0  0  0  0  0  0  0  0  0  0  0
   15.9517   70.0853   -6.8446 O   0  0  0  0  0  0  0  0  0  0  0  0
   19.4660   70.7326   -9.7551 O   0  0  0  0  0  0  0  0  0  0  0  0
   17.9925   70.8085   -5.9677 N   0  0  0  0  0  0  0  0  0  0  0  0
   17.7028   70.4084   -8.2920 N   0  0  0  0  0  0  0  0  0  0  0  0
   17.1286   70.4102   -7.0144 C   0  0  0  0  0  0  0  0  0  0  0  0
   19.3085   71.1626   -6.2447 C   0  0  0  0  0  0  0  0  0  0  0  0
   19.8411   71.1544   -7.4684 C   0  0  0  0  0  0  0  0  0  0  0  0
   19.0056   70.7506   -8.6178 C   0  0  0  0  0  0  0  0  0  0  0  0
   17.1198   70.1340   -9.0368 H   0  0  0  0  0  0  0  0  0  0  0  0
   22.6621   70.8417   -0.2926 O   0  0  0  0  0  0  0  0  0  0  0  0
   22.2183   69.9395    0.9731 P   0  0  2  0  0  0  0  0  0  0  0  0
   23.6099   69.2735    1.4603 O   0  0  0  0  0  0  0  0  0  0  0  0
   21.1301   68.9499    0.6721 O   0  0  0  0  0  0  0  0  0  0  0  0
   21.8512   71.0068    2.1268 O   0  0  0  0  0  0  0  0  0  0  0  0
   21.3418   73.3151    1.9565 O   0  0  0  0  0  0  0  0  0  0  0  0
   23.4216   73.3600    5.5234 O   0  0  0  0  0  0  0  0  0  0  0  0
   20.5729   73.7244    5.5384 O   0  0  0  0  0  0  0  0  0  0  0  0
   24.2889   71.6335    3.3678 O   0  0  0  0  0  0  0  0  0  0  0  0
   22.5443   72.8162    4.5334 C   0  0  1  0  0  0  0  0  0  0  0  0
   21.3669   73.7770    4.3564 C   0  0  1  0  0  0  0  0  0  0  0  0
   23.3100   72.6566    3.2214 C   0  0  2  0  0  0  0  0  0  0  0  0
   20.5247   73.4010    3.1298 C   0  0  1  0  0  0  0  0  0  0  0  0
   22.3732   72.3312    2.0567 C   0  0  1  0  0  0  0  0  0  0  0  0
   22.9417   73.4634    6.3591 H   0  0  0  0  0  0  0  0  0  0  0  0
   21.1167   73.9634    6.3055 H   0  0  0  0  0  0  0  0  0  0  0  0
   24.8759   71.8513    4.1080 H   0  0  0  0  0  0  0  0  0  0  0  0
   19.7233   75.6046    3.5890 O   0  0  0  0  0  0  0  0  0  0  0  0
   19.4389   74.4357    2.8425 C   0  0  0  0  0  0  0  0  0  0  0  0
   19.0406   76.2722    3.4158 H   0  0  0  0  0  0  0  0  0  0  0  0
 25 28  1  0
 25 24  1  0
 25 26  1  1
 25 27  2  0
  1  4  1  0
  1 24  1  0
  1  2  1  6
  1  3  2  0
  6 11  1  0
  6 12  1  0
 29 36  1  0
 29 37  1  0
  9  7  1  6
  7 13  1  0
 10  8  1  1
  8 14  1  0
 37 28  1  1
  4  5  1  0
 33 30  1  1
 30 38  1  0
 34 31  1  1
 31 39  1  0
 35 32  1  1
 32 40  1  0
 41 42  1  0
 41 43  1  0
 15 19  2  0
 16 22  2  0
 12 17  1  6
 17 19  1  0
 17 20  1  0
 18 19  1  0
 18 22  1  0
 18 23  1  0
  9 10  1  0
  9 11  1  0
 10 12  1  0
 11  5  1  6
 33 34  1  0
 33 35  1  0
 34 36  1  0
 35 37  1  0
 36 42  1  6
 20 21  2  0
 21 22  1  0
M  CHG  2   2  -1  26  -1
M  END
>  <COMPND>  (103) 
    8629 

>  <AUTHOR>  (103) 
    GENERATED BY OPEN BABEL 3.1.1

>  <MASTER>  (103) 
        0    0    0    0    0    0    0    0   58    0   58    0

>  <minimizedAffinity>  (103) 
-8.07088

>  <CNNscore>  (103) 
0.6605572104

>  <CNNaffinity>  (103) 
4.6890244484

>  <CNN_VS>  (103) 
3.0973689556

>  <CNNaffinity_variance>  (103) 
0.0773649961

$$$$
104
     RDKit          3D

 43 45  0  0  0  0  0  0  0  0999 V2000
   21.1403   73.3844   -1.6086 P   0  0  2  0  0  0  0  0  0  0  0  0
   20.2736   73.0823   -0.2763 O   0  0  0  0  0  0  0  0  0  0  0  0
   21.6958   74.7752   -1.7014 O   0  0  0  0  0  0  0  0  0  0  0  0
   20.1630   72.9360   -2.8176 O   0  0  0  0  0  0  0  0  0  0  0  0
   19.2591   73.8909   -3.3460 C   0  0  0  0  0  0  0  0  0  0  0  0
   19.4400   72.6680   -5.4064 O   0  0  0  0  0  0  0  0  0  0  0  0
   18.9153   75.2787   -6.7846 O   0  0  0  0  0  0  0  0  0  0  0  0
   16.4848   74.0474   -6.8986 O   0  0  0  0  0  0  0  0  0  0  0  0
   18.3777   74.7807   -5.5606 C   0  0  1  0  0  0  0  0  0  0  0  0
   17.3515   73.7019   -5.8374 C   0  0  2  0  0  0  0  0  0  0  0  0
   19.4758   74.0000   -4.8491 C   0  0  1  0  0  0  0  0  0  0  0  0
   18.2308   72.5074   -6.1660 C   0  0  2  0  0  0  0  0  0  0  0  0
   18.2323   75.7813   -7.2567 H   0  0  0  0  0  0  0  0  0  0  0  0
   15.9468   74.8122   -6.6410 H   0  0  0  0  0  0  0  0  0  0  0  0
   16.1386   71.2831   -7.6157 O   0  0  0  0  0  0  0  0  0  0  0  0
   15.9516   67.7230   -4.6948 O   0  0  0  0  0  0  0  0  0  0  0  0
   17.6169   71.2601   -5.8071 N   0  0  0  0  0  0  0  0  0  0  0  0
   16.0473   69.5114   -6.1603 N   0  0  0  0  0  0  0  0  0  0  0  0
   16.5729   70.7323   -6.6020 C   0  0  0  0  0  0  0  0  0  0  0  0
   18.0508   70.5736   -4.6782 C   0  0  0  0  0  0  0  0  0  0  0  0
   17.5383   69.4110   -4.2697 C   0  0  0  0  0  0  0  0  0  0  0  0
   16.4439   68.7913   -5.0445 C   0  0  0  0  0  0  0  0  0  0  0  0
   15.3187   69.1247   -6.6982 H   0  0  0  0  0  0  0  0  0  0  0  0
   22.2555   72.2144   -1.5899 O   0  0  0  0  0  0  0  0  0  0  0  0
   22.3493   70.8511   -0.7265 P   0  0  2  0  0  0  0  0  0  0  0  0
   23.6761   70.1327   -1.3105 O   0  0  0  0  0  0  0  0  0  0  0  0
   21.1117   70.0029   -0.7793 O   0  0  0  0  0  0  0  0  0  0  0  0
   22.7664   71.3342    0.7559 O   0  0  0  0  0  0  0  0  0  0  0  0
   22.8950   69.7141    2.4808 O   0  0  0  0  0  0  0  0  0  0  0  0
   22.5725   73.1183    4.7957 O   0  0  0  0  0  0  0  0  0  0  0  0
   25.0880   71.7410    4.6421 O   0  0  0  0  0  0  0  0  0  0  0  0
   21.0533   72.8913    2.3421 O   0  0  0  0  0  0  0  0  0  0  0  0
   22.9889   72.3446    3.6672 C   0  0  1  0  0  0  0  0  0  0  0  0
   23.8603   71.1923    4.1710 C   0  0  1  0  0  0  0  0  0  0  0  0
   21.7535   71.8089    2.9460 C   0  0  2  0  0  0  0  0  0  0  0  0
   24.1244   70.1698    3.0576 C   0  0  1  0  0  0  0  0  0  0  0  0
   22.1235   70.7632    1.8926 C   0  0  1  0  0  0  0  0  0  0  0  0
   23.3523   73.4617    5.2578 H   0  0  0  0  0  0  0  0  0  0  0  0
   24.9071   72.3854    5.3444 H   0  0  0  0  0  0  0  0  0  0  0  0
   20.8245   73.5462    3.0193 H   0  0  0  0  0  0  0  0  0  0  0  0
   26.2443   69.2194    3.6159 O   0  0  0  0  0  0  0  0  0  0  0  0
   24.8579   68.9352    3.5771 C   0  0  0  0  0  0  0  0  0  0  0  0
   26.7239   68.4426    3.9450 H   0  0  0  0  0  0  0  0  0  0  0  0
 25 28  1  0
 25 24  1  0
 25 26  1  6
 25 27  2  0
  1  4  1  0
  1 24  1  0
  1  2  1  1
  1  3  2  0
  6 11  1  0
  6 12  1  0
 29 36  1  0
 29 37  1  0
  9  7  1  6
  7 13  1  0
 10  8  1  6
  8 14  1  0
 37 28  1  6
  4  5  1  0
 33 30  1  1
 30 38  1  0
 34 31  1  6
 31 39  1  0
 35 32  1  6
 32 40  1  0
 41 42  1  0
 41 43  1  0
 15 19  2  0
 16 22  2  0
 12 17  1  1
 17 19  1  0
 17 20  1  0
 18 19  1  0
 18 22  1  0
 18 23  1  0
  9 10  1  0
  9 11  1  0
 10 12  1  0
 11  5  1  1
 33 34  1  0
 33 35  1  0
 34 36  1  0
 35 37  1  0
 36 42  1  1
 20 21  2  0
 21 22  1  0
M  CHG  2   2  -1  26  -1
M  END
>  <COMPND>  (104) 
    8629 

>  <AUTHOR>  (104) 
    GENERATED BY OPEN BABEL 3.1.1

>  <MASTER>  (104) 
        0    0    0    0    0    0    0    0   58    0   58    0

>  <minimizedAffinity>  (104) 
-6.93559

>  <CNNscore>  (104) 
0.5313221216

>  <CNNaffinity>  (104) 
4.1743955612

>  <CNN_VS>  (104) 
2.2179486752

>  <CNNaffinity_variance>  (104) 
0.0942076296

$$$$
105
     RDKit          3D

 43 45  0  0  0  0  0  0  0  0999 V2000
   20.2325   71.1782   -0.5760 P   0  0  2  0  0  0  0  0  0  0  0  0
   18.7894   71.1637   -1.3072 O   0  0  0  0  0  0  0  0  0  0  0  0
   20.6947   69.8475   -0.0595 O   0  0  0  0  0  0  0  0  0  0  0  0
   20.0963   72.3521    0.5291 O   0  0  0  0  0  0  0  0  0  0  0  0
   20.7567   73.5833    0.2926 C   0  0  0  0  0  0  0  0  0  0  0  0
   21.0715   73.4342    2.6701 O   0  0  0  0  0  0  0  0  0  0  0  0
   21.6444   76.3763    2.5903 O   0  0  0  0  0  0  0  0  0  0  0  0
   24.1407   75.2885    2.7388 O   0  0  0  0  0  0  0  0  0  0  0  0
   21.9744   75.3668    1.6378 C   0  0  1  0  0  0  0  0  0  0  0  0
   23.1162   74.5138    2.1498 C   0  0  2  0  0  0  0  0  0  0  0  0
   20.8249   74.3677    1.5958 C   0  0  1  0  0  0  0  0  0  0  0  0
   22.4129   73.6150    3.1527 C   0  0  2  0  0  0  0  0  0  0  0  0
   22.3638   77.0264    2.6345 H   0  0  0  0  0  0  0  0  0  0  0  0
   24.5574   75.8429    2.0608 H   0  0  0  0  0  0  0  0  0  0  0  0
   23.9971   72.8130    5.3493 O   0  0  0  0  0  0  0  0  0  0  0  0
   24.7795   68.6628    3.5041 O   0  0  0  0  0  0  0  0  0  0  0  0
   23.0425   72.3303    3.2725 N   0  0  0  0  0  0  0  0  0  0  0  0
   24.3852   70.7471    4.4288 N   0  0  0  0  0  0  0  0  0  0  0  0
   23.8180   72.0277    4.4160 C   0  0  0  0  0  0  0  0  0  0  0  0
   22.8877   71.3859    2.2635 C   0  0  0  0  0  0  0  0  0  0  0  0
   23.4363   70.1695    2.2903 C   0  0  0  0  0  0  0  0  0  0  0  0
   24.2616   69.7739    3.4498 C   0  0  0  0  0  0  0  0  0  0  0  0
   24.9301   70.5142    5.2154 H   0  0  0  0  0  0  0  0  0  0  0  0
   21.1982   71.8393   -1.6911 O   0  0  0  0  0  0  0  0  0  0  0  0
   21.5968   71.3452   -3.1777 P   0  0  2  0  0  0  0  0  0  0  0  0
   21.5431   69.7325   -3.0595 O   0  0  0  0  0  0  0  0  0  0  0  0
   22.9056   71.8863   -3.6758 O   0  0  0  0  0  0  0  0  0  0  0  0
   20.3230   71.7296   -4.0912 O   0  0  0  0  0  0  0  0  0  0  0  0
   18.9701   70.0216   -5.0234 O   0  0  0  0  0  0  0  0  0  0  0  0
   18.0133   73.1019   -7.6015 O   0  0  0  0  0  0  0  0  0  0  0  0
   16.0863   72.2279   -5.6596 O   0  0  0  0  0  0  0  0  0  0  0  0
   20.7312   72.8067   -6.6502 O   0  0  0  0  0  0  0  0  0  0  0  0
   18.3600   72.5154   -6.3440 C   0  0  1  0  0  0  0  0  0  0  0  0
   17.2739   71.5046   -5.9706 C   0  0  1  0  0  0  0  0  0  0  0  0
   19.7163   71.8245   -6.4725 C   0  0  2  0  0  0  0  0  0  0  0  0
   17.7048   70.6451   -4.7744 C   0  0  1  0  0  0  0  0  0  0  0  0
   20.0261   70.9568   -5.2514 C   0  0  1  0  0  0  0  0  0  0  0  0
   17.1533   73.5427   -7.5266 H   0  0  0  0  0  0  0  0  0  0  0  0
   15.8253   72.7668   -6.4229 H   0  0  0  0  0  0  0  0  0  0  0  0
   20.5237   73.3492   -7.4264 H   0  0  0  0  0  0  0  0  0  0  0  0
   15.9427   69.2917   -5.6531 O   0  0  0  0  0  0  0  0  0  0  0  0
   16.7059   69.5271   -4.4842 C   0  0  0  0  0  0  0  0  0  0  0  0
   15.3028   68.5822   -5.4833 H   0  0  0  0  0  0  0  0  0  0  0  0
 25 28  1  0
 25 24  1  0
 25 26  1  1
 25 27  2  0
  1  4  1  0
  1 24  1  0
  1  2  1  6
  1  3  2  0
  6 11  1  0
  6 12  1  0
 29 36  1  0
 29 37  1  0
  9  7  1  1
  7 13  1  0
 10  8  1  1
  8 14  1  0
 37 28  1  1
  4  5  1  0
 33 30  1  6
 30 38  1  0
 34 31  1  1
 31 39  1  0
 35 32  1  1
 32 40  1  0
 41 42  1  0
 41 43  1  0
 15 19  2  0
 16 22  2  0
 12 17  1  6
 17 19  1  0
 17 20  1  0
 18 19  1  0
 18 22  1  0
 18 23  1  0
  9 10  1  0
  9 11  1  0
 10 12  1  0
 11  5  1  6
 33 34  1  0
 33 35  1  0
 34 36  1  0
 35 37  1  0
 36 42  1  6
 20 21  2  0
 21 22  1  0
M  CHG  2   2  -1  26  -1
M  END
>  <COMPND>  (105) 
    8629 

>  <AUTHOR>  (105) 
    GENERATED BY OPEN BABEL 3.1.1

>  <MASTER>  (105) 
        0    0    0    0    0    0    0    0   58    0   58    0

>  <minimizedAffinity>  (105) 
-7.12409

>  <CNNscore>  (105) 
0.4644690454

>  <CNNaffinity>  (105) 
3.9776949883

>  <CNN_VS>  (105) 
1.8475161791

>  <CNNaffinity_variance>  (105) 
0.0990130678

$$$$
106
     RDKit          3D

 43 45  0  0  0  0  0  0  0  0999 V2000
   17.3632   70.2070   -3.2485 P   0  0  2  0  0  0  0  0  0  0  0  0
   17.8804   68.9377   -2.3888 O   0  0  0  0  0  0  0  0  0  0  0  0
   15.9489   70.6253   -2.9727 O   0  0  0  0  0  0  0  0  0  0  0  0
   17.6891   69.7978   -4.7796 O   0  0  0  0  0  0  0  0  0  0  0  0
   16.6436   69.8624   -5.7338 C   0  0  0  0  0  0  0  0  0  0  0  0
   16.1784   71.4790   -7.4496 O   0  0  0  0  0  0  0  0  0  0  0  0
   19.1207   71.4369   -8.0259 O   0  0  0  0  0  0  0  0  0  0  0  0
   18.8350   73.7174   -6.5581 O   0  0  0  0  0  0  0  0  0  0  0  0
   18.4448   71.3274   -6.7742 C   0  0  1  0  0  0  0  0  0  0  0  0
   17.9027   72.6762   -6.3496 C   0  0  2  0  0  0  0  0  0  0  0  0
   17.1676   70.5277   -6.9991 C   0  0  1  0  0  0  0  0  0  0  0  0
   16.6699   72.8109   -7.2272 C   0  0  2  0  0  0  0  0  0  0  0  0
   19.9400   71.9435   -7.9074 H   0  0  0  0  0  0  0  0  0  0  0  0
   19.6008   73.5871   -5.9773 H   0  0  0  0  0  0  0  0  0  0  0  0
   14.7776   74.3650   -8.6348 O   0  0  0  0  0  0  0  0  0  0  0  0
   12.7556   75.7648   -4.7369 O   0  0  0  0  0  0  0  0  0  0  0  0
   15.6375   73.5911   -6.6054 N   0  0  0  0  0  0  0  0  0  0  0  0
   13.7722   75.0606   -6.6928 N   0  0  0  0  0  0  0  0  0  0  0  0
   14.7386   74.3370   -7.4030 C   0  0  0  0  0  0  0  0  0  0  0  0
   15.5238   73.6113   -5.2195 C   0  0  0  0  0  0  0  0  0  0  0  0
   14.5973   74.3076   -4.5576 C   0  0  0  0  0  0  0  0  0  0  0  0
   13.6193   75.1136   -5.3164 C   0  0  0  0  0  0  0  0  0  0  0  0
   13.1353   75.5880   -7.2276 H   0  0  0  0  0  0  0  0  0  0  0  0
   18.4735   71.3380   -2.9305 O   0  0  0  0  0  0  0  0  0  0  0  0
   20.0776   71.3364   -3.1295 P   0  0  2  0  0  0  0  0  0  0  0  0
   20.3602   72.7435   -3.8763 O   0  0  0  0  0  0  0  0  0  0  0  0
   20.6065   70.1331   -3.8548 O   0  0  0  0  0  0  0  0  0  0  0  0
   20.6738   71.5370   -1.6431 O   0  0  0  0  0  0  0  0  0  0  0  0
   21.5697   69.8354   -0.2579 O   0  0  0  0  0  0  0  0  0  0  0  0
   20.1013   72.3586    2.6624 O   0  0  0  0  0  0  0  0  0  0  0  0
   22.9368   72.1681    2.2477 O   0  0  0  0  0  0  0  0  0  0  0  0
   18.6119   71.9653    0.2116 O   0  0  0  0  0  0  0  0  0  0  0  0
   20.7019   72.0287    1.4071 C   0  0  1  0  0  0  0  0  0  0  0  0
   21.9959   71.2600    1.6818 C   0  0  1  0  0  0  0  0  0  0  0  0
   19.7293   71.1725    0.5981 C   0  0  2  0  0  0  0  0  0  0  0  0
   22.5574   70.6424    0.3940 C   0  0  1  0  0  0  0  0  0  0  0  0
   20.4015   70.5667   -0.6353 C   0  0  1  0  0  0  0  0  0  0  0  0
   20.7135   72.9026    3.1808 H   0  0  0  0  0  0  0  0  0  0  0  0
   22.5698   72.5514    3.0599 H   0  0  0  0  0  0  0  0  0  0  0  0
   18.1949   72.3429    1.0012 H   0  0  0  0  0  0  0  0  0  0  0  0
   23.6533   69.2408    1.9887 O   0  0  0  0  0  0  0  0  0  0  0  0
   23.7593   69.7413    0.6687 C   0  0  0  0  0  0  0  0  0  0  0  0
   24.4115   68.6652    2.1775 H   0  0  0  0  0  0  0  0  0  0  0  0
 25 28  1  0
 25 24  1  0
 25 26  1  6
 25 27  2  0
  1  4  1  0
  1 24  1  0
  1  2  1  1
  1  3  2  0
  6 11  1  0
  6 12  1  0
 29 36  1  0
 29 37  1  0
  9  7  1  6
  7 13  1  0
 10  8  1  6
  8 14  1  0
 37 28  1  6
  4  5  1  0
 33 30  1  1
 30 38  1  0
 34 31  1  6
 31 39  1  0
 35 32  1  6
 32 40  1  0
 41 42  1  0
 41 43  1  0
 15 19  2  0
 16 22  2  0
 12 17  1  1
 17 19  1  0
 17 20  1  0
 18 19  1  0
 18 22  1  0
 18 23  1  0
  9 10  1  0
  9 11  1  0
 10 12  1  0
 11  5  1  1
 33 34  1  0
 33 35  1  0
 34 36  1  0
 35 37  1  0
 36 42  1  1
 20 21  2  0
 21 22  1  0
M  CHG  2   2  -1  26  -1
M  END
>  <COMPND>  (106) 
    8629 

>  <AUTHOR>  (106) 
    GENERATED BY OPEN BABEL 3.1.1

>  <MASTER>  (106) 
        0    0    0    0    0    0    0    0   58    0   58    0

>  <minimizedAffinity>  (106) 
-6.92619

>  <CNNscore>  (106) 
0.3894924521

>  <CNNaffinity>  (106) 
3.9600875378

>  <CNN_VS>  (106) 
1.5424242020

>  <CNNaffinity_variance>  (106) 
0.1783859879

$$$$
107
     RDKit          3D

 43 45  0  0  0  0  0  0  0  0999 V2000
   20.8441   73.1966   -1.6163 P   0  0  2  0  0  0  0  0  0  0  0  0
   19.9075   73.3961   -0.3123 O   0  0  0  0  0  0  0  0  0  0  0  0
   21.8278   74.3020   -1.8652 O   0  0  0  0  0  0  0  0  0  0  0  0
   19.7909   72.9112   -2.8110 O   0  0  0  0  0  0  0  0  0  0  0  0
   19.0745   74.0052   -3.3566 C   0  0  0  0  0  0  0  0  0  0  0  0
   19.3584   72.7329   -5.3751 O   0  0  0  0  0  0  0  0  0  0  0  0
   18.8365   75.2955   -6.8418 O   0  0  0  0  0  0  0  0  0  0  0  0
   16.4367   74.0121   -7.0151 O   0  0  0  0  0  0  0  0  0  0  0  0
   18.2620   74.8187   -5.6262 C   0  0  1  0  0  0  0  0  0  0  0  0
   17.2684   73.7122   -5.9128 C   0  0  2  0  0  0  0  0  0  0  0  0
   19.3468   74.0795   -4.8527 C   0  0  1  0  0  0  0  0  0  0  0  0
   18.1828   72.5278   -6.1755 C   0  0  2  0  0  0  0  0  0  0  0  0
   18.1626   75.7715   -7.3529 H   0  0  0  0  0  0  0  0  0  0  0  0
   15.8744   74.7722   -6.7987 H   0  0  0  0  0  0  0  0  0  0  0  0
   16.1313   71.2524   -7.6393 O   0  0  0  0  0  0  0  0  0  0  0  0
   15.9442   67.7363   -4.6655 O   0  0  0  0  0  0  0  0  0  0  0  0
   17.5799   71.2780   -5.8068 N   0  0  0  0  0  0  0  0  0  0  0  0
   16.0400   69.5026   -6.1575 N   0  0  0  0  0  0  0  0  0  0  0  0
   16.5563   70.7235   -6.6101 C   0  0  0  0  0  0  0  0  0  0  0  0
   18.0044   70.6154   -4.6602 C   0  0  0  0  0  0  0  0  0  0  0  0
   17.5009   69.4524   -4.2417 C   0  0  0  0  0  0  0  0  0  0  0  0
   16.4278   68.8056   -5.0242 C   0  0  0  0  0  0  0  0  0  0  0  0
   15.3256   69.0976   -6.7010 H   0  0  0  0  0  0  0  0  0  0  0  0
   21.5115   71.7458   -1.3660 O   0  0  0  0  0  0  0  0  0  0  0  0
   21.0640   70.5224   -0.4089 P   0  0  2  0  0  0  0  0  0  0  0  0
   22.1438   69.3678   -0.7533 O   0  0  0  0  0  0  0  0  0  0  0  0
   19.6327   70.1016   -0.5767 O   0  0  0  0  0  0  0  0  0  0  0  0
   21.4481   71.0082    1.0816 O   0  0  0  0  0  0  0  0  0  0  0  0
   22.6821   72.9618    1.6079 O   0  0  0  0  0  0  0  0  0  0  0  0
   23.7437   70.6204    4.8392 O   0  0  0  0  0  0  0  0  0  0  0  0
   21.9447   72.8270    5.2172 O   0  0  0  0  0  0  0  0  0  0  0  0
   23.4662   69.4237    2.2181 O   0  0  0  0  0  0  0  0  0  0  0  0
   22.8703   71.1187    3.8222 C   0  0  1  0  0  0  0  0  0  0  0  0
   22.7044   72.6256    4.0286 C   0  0  1  0  0  0  0  0  0  0  0  0
   23.4815   70.8277    2.4528 C   0  0  2  0  0  0  0  0  0  0  0  0
   22.0016   73.2750    2.8288 C   0  0  1  0  0  0  0  0  0  0  0  0
   22.7374   71.5603    1.3350 C   0  0  1  0  0  0  0  0  0  0  0  0
   23.3612   70.8016    5.7112 H   0  0  0  0  0  0  0  0  0  0  0  0
   22.3991   72.4117    5.9670 H   0  0  0  0  0  0  0  0  0  0  0  0
   23.9407   68.9714    2.9324 H   0  0  0  0  0  0  0  0  0  0  0  0
   21.1399   75.1477    4.0368 O   0  0  0  0  0  0  0  0  0  0  0  0
   21.9664   74.7975    2.9420 C   0  0  0  0  0  0  0  0  0  0  0  0
   21.1083   76.1139    4.1212 H   0  0  0  0  0  0  0  0  0  0  0  0
 25 28  1  0
 25 24  1  0
 25 26  1  6
 25 27  2  0
  1  4  1  0
  1 24  1  0
  1  2  1  1
  1  3  2  0
  6 11  1  0
  6 12  1  0
 29 36  1  0
 29 37  1  0
  9  7  1  6
  7 13  1  0
 10  8  1  6
  8 14  1  0
 37 28  1  1
  4  5  1  0
 33 30  1  1
 30 38  1  0
 34 31  1  1
 31 39  1  0
 35 32  1  6
 32 40  1  0
 41 42  1  0
 41 43  1  0
 15 19  2  0
 16 22  2  0
 12 17  1  1
 17 19  1  0
 17 20  1  0
 18 19  1  0
 18 22  1  0
 18 23  1  0
  9 10  1  0
  9 11  1  0
 10 12  1  0
 11  5  1  1
 33 34  1  0
 33 35  1  0
 34 36  1  0
 35 37  1  0
 36 42  1  1
 20 21  2  0
 21 22  1  0
M  CHG  2   2  -1  26  -1
M  END
>  <COMPND>  (107) 
    8629 

>  <AUTHOR>  (107) 
    GENERATED BY OPEN BABEL 3.1.1

>  <MASTER>  (107) 
        0    0    0    0    0    0    0    0   58    0   58    0

>  <minimizedAffinity>  (107) 
-7.05453

>  <CNNscore>  (107) 
0.3838160038

>  <CNNaffinity>  (107) 
4.0305981636

>  <CNN_VS>  (107) 
1.5470080376

>  <CNNaffinity_variance>  (107) 
0.0869049579

$$$$
108
     RDKit          3D

 43 45  0  0  0  0  0  0  0  0999 V2000
   20.9992   70.7274   -0.9722 P   0  0  2  0  0  0  0  0  0  0  0  0
   20.4014   69.7595    0.1781 O   0  0  0  0  0  0  0  0  0  0  0  0
   21.7639   70.0262   -2.0561 O   0  0  0  0  0  0  0  0  0  0  0  0
   21.8206   71.8505   -0.1466 O   0  0  0  0  0  0  0  0  0  0  0  0
   21.5063   73.2149   -0.3649 C   0  0  0  0  0  0  0  0  0  0  0  0
   21.0979   72.8154    1.9691 O   0  0  0  0  0  0  0  0  0  0  0  0
   21.0505   75.7974    2.2792 O   0  0  0  0  0  0  0  0  0  0  0  0
   23.5473   75.1475    3.1625 O   0  0  0  0  0  0  0  0  0  0  0  0
   21.8575   74.9923    1.4213 C   0  0  1  0  0  0  0  0  0  0  0  0
   22.9359   74.2904    2.2201 C   0  0  2  0  0  0  0  0  0  0  0  0
   21.0076   73.8235    0.9386 C   0  0  1  0  0  0  0  0  0  0  0  0
   22.1584   73.1612    2.8749 C   0  0  2  0  0  0  0  0  0  0  0  0
   21.5718   76.5507    2.5999 H   0  0  0  0  0  0  0  0  0  0  0  0
   24.0293   75.8488    2.6969 H   0  0  0  0  0  0  0  0  0  0  0  0
   23.7433   72.7572    5.1776 O   0  0  0  0  0  0  0  0  0  0  0  0
   25.2335   68.6691    3.6584 O   0  0  0  0  0  0  0  0  0  0  0  0
   22.9703   72.0001    3.1073 N   0  0  0  0  0  0  0  0  0  0  0  0
   24.4839   70.7219    4.4194 N   0  0  0  0  0  0  0  0  0  0  0  0
   23.7293   71.8956    4.2962 C   0  0  0  0  0  0  0  0  0  0  0  0
   23.0080   70.9805    2.1624 C   0  0  0  0  0  0  0  0  0  0  0  0
   23.7338   69.8682    2.2944 C   0  0  0  0  0  0  0  0  0  0  0  0
   24.5553   69.6806    3.5076 C   0  0  0  0  0  0  0  0  0  0  0  0
   25.0210   70.6273    5.2394 H   0  0  0  0  0  0  0  0  0  0  0  0
   19.6945   71.5336   -1.4830 O   0  0  0  0  0  0  0  0  0  0  0  0
   18.2493   71.0079   -1.9810 P   0  0  2  0  0  0  0  0  0  0  0  0
   17.2226   71.7091   -0.9457 O   0  0  0  0  0  0  0  0  0  0  0  0
   18.1302   69.5132   -2.0546 O   0  0  0  0  0  0  0  0  0  0  0  0
   17.9985   71.7687   -3.3821 O   0  0  0  0  0  0  0  0  0  0  0  0
   16.7766   71.4386   -5.3858 O   0  0  0  0  0  0  0  0  0  0  0  0
   20.4871   72.2562   -7.0028 O   0  0  0  0  0  0  0  0  0  0  0  0
   18.3949   74.2145   -7.1925 O   0  0  0  0  0  0  0  0  0  0  0  0
   20.2812   70.6706   -4.5897 O   0  0  0  0  0  0  0  0  0  0  0  0
   19.4231   72.3788   -6.0550 C   0  0  1  0  0  0  0  0  0  0  0  0
   18.1751   72.8639   -6.7951 C   0  0  1  0  0  0  0  0  0  0  0  0
   19.1704   71.0176   -5.4095 C   0  0  2  0  0  0  0  0  0  0  0  0
   16.9293   72.7650   -5.9044 C   0  0  1  0  0  0  0  0  0  0  0  0
   17.8816   71.0139   -4.5854 C   0  0  1  0  0  0  0  0  0  0  0  0
   20.6530   73.1172   -7.4159 H   0  0  0  0  0  0  0  0  0  0  0  0
   19.1846   74.2632   -7.7540 H   0  0  0  0  0  0  0  0  0  0  0  0
   21.0908   70.6762   -5.1230 H   0  0  0  0  0  0  0  0  0  0  0  0
   15.8600   72.8028   -8.0408 O   0  0  0  0  0  0  0  0  0  0  0  0
   15.6504   73.0941   -6.6713 C   0  0  0  0  0  0  0  0  0  0  0  0
   15.0541   73.0071   -8.5413 H   0  0  0  0  0  0  0  0  0  0  0  0
 25 28  1  0
 25 24  1  0
 25 26  1  1
 25 27  2  0
  1  4  1  0
  1 24  1  0
  1  2  1  1
  1  3  2  0
  6 11  1  0
  6 12  1  0
 29 36  1  0
 29 37  1  0
  9  7  1  1
  7 13  1  0
 10  8  1  1
  8 14  1  0
 37 28  1  1
  4  5  1  0
 33 30  1  6
 30 38  1  0
 34 31  1  1
 31 39  1  0
 35 32  1  1
 32 40  1  0
 41 42  1  0
 41 43  1  0
 15 19  2  0
 16 22  2  0
 12 17  1  6
 17 19  1  0
 17 20  1  0
 18 19  1  0
 18 22  1  0
 18 23  1  0
  9 10  1  0
  9 11  1  0
 10 12  1  0
 11  5  1  6
 33 34  1  0
 33 35  1  0
 34 36  1  0
 35 37  1  0
 36 42  1  6
 20 21  2  0
 21 22  1  0
M  CHG  2   2  -1  26  -1
M  END
>  <COMPND>  (108) 
    8629 

>  <AUTHOR>  (108) 
    GENERATED BY OPEN BABEL 3.1.1

>  <MASTER>  (108) 
        0    0    0    0    0    0    0    0   58    0   58    0

>  <minimizedAffinity>  (108) 
-7.16121

>  <CNNscore>  (108) 
0.3641686440

>  <CNNaffinity>  (108) 
3.8865826130

>  <CNN_VS>  (108) 
1.4153715372

>  <CNNaffinity_variance>  (108) 
0.1079272479

$$$$
109
     RDKit          3D

 43 45  0  0  0  0  0  0  0  0999 V2000
   20.7119   71.0344   -0.8140 P   0  0  2  0  0  0  0  0  0  0  0  0
   20.3625   69.7457    0.0996 O   0  0  0  0  0  0  0  0  0  0  0  0
   21.9685   70.9143   -1.6251 O   0  0  0  0  0  0  0  0  0  0  0  0
   20.6626   72.2728    0.2261 O   0  0  0  0  0  0  0  0  0  0  0  0
   21.0060   72.0329    1.5797 C   0  0  0  0  0  0  0  0  0  0  0  0
   23.0862   72.9547    2.3521 O   0  0  0  0  0  0  0  0  0  0  0  0
   24.1900   70.1769    2.1145 O   0  0  0  0  0  0  0  0  0  0  0  0
   23.7213   70.4034    4.7914 O   0  0  0  0  0  0  0  0  0  0  0  0
   22.8876   70.5990    2.5159 C   0  0  1  0  0  0  0  0  0  0  0  0
   22.9305   71.1792    3.9141 C   0  0  2  0  0  0  0  0  0  0  0  0
   22.5095   71.8144    1.6786 C   0  0  1  0  0  0  0  0  0  0  0  0
   23.5158   72.5588    3.6649 C   0  0  2  0  0  0  0  0  0  0  0  0
   24.4531   69.4014    2.6353 H   0  0  0  0  0  0  0  0  0  0  0  0
   23.3073   69.5354    4.9180 H   0  0  0  0  0  0  0  0  0  0  0  0
   25.2019   74.3307    5.0776 O   0  0  0  0  0  0  0  0  0  0  0  0
   21.6422   76.2377    7.2987 O   0  0  0  0  0  0  0  0  0  0  0  0
   23.0563   73.5291    4.6182 N   0  0  0  0  0  0  0  0  0  0  0  0
   23.4280   75.2789    6.1823 N   0  0  0  0  0  0  0  0  0  0  0  0
   23.9854   74.3703    5.2736 C   0  0  0  0  0  0  0  0  0  0  0  0
   21.6979   73.6395    4.8947 C   0  0  0  0  0  0  0  0  0  0  0  0
   21.1826   74.5103    5.7649 C   0  0  0  0  0  0  0  0  0  0  0  0
   22.0852   75.4259    6.4922 C   0  0  0  0  0  0  0  0  0  0  0  0
   24.0563   75.8750    6.6510 H   0  0  0  0  0  0  0  0  0  0  0  0
   19.3657   71.2379   -1.6854 O   0  0  0  0  0  0  0  0  0  0  0  0
   18.7032   70.3261   -2.8442 P   0  0  2  0  0  0  0  0  0  0  0  0
   17.7833   69.2842   -2.0161 O   0  0  0  0  0  0  0  0  0  0  0  0
   19.6990   69.6787   -3.7624 O   0  0  0  0  0  0  0  0  0  0  0  0
   17.6506   71.3030   -3.5808 O   0  0  0  0  0  0  0  0  0  0  0  0
   18.8529   72.2260   -5.4026 O   0  0  0  0  0  0  0  0  0  0  0  0
   15.2081   74.0669   -6.0172 O   0  0  0  0  0  0  0  0  0  0  0  0
   16.0505   71.9646   -7.7832 O   0  0  0  0  0  0  0  0  0  0  0  0
   16.2004   73.6918   -3.3238 O   0  0  0  0  0  0  0  0  0  0  0  0
   16.0815   73.0030   -5.6288 C   0  0  1  0  0  0  0  0  0  0  0  0
   16.9160   72.5991   -6.8458 C   0  0  1  0  0  0  0  0  0  0  0  0
   16.9835   73.4865   -4.4948 C   0  0  2  0  0  0  0  0  0  0  0  0
   18.0564   71.6531   -6.4462 C   0  0  1  0  0  0  0  0  0  0  0  0
   18.1133   72.4952   -4.2100 C   0  0  1  0  0  0  0  0  0  0  0  0
   14.6323   73.7663   -6.7366 H   0  0  0  0  0  0  0  0  0  0  0  0
   15.3346   72.5723   -8.0269 H   0  0  0  0  0  0  0  0  0  0  0  0
   15.4890   74.3213   -3.5170 H   0  0  0  0  0  0  0  0  0  0  0  0
   18.3744   71.8024   -8.8096 O   0  0  0  0  0  0  0  0  0  0  0  0
   18.9949   71.3628   -7.6154 C   0  0  0  0  0  0  0  0  0  0  0  0
   18.9604   71.6244   -9.5623 H   0  0  0  0  0  0  0  0  0  0  0  0
 25 28  1  0
 25 24  1  0
 25 26  1  1
 25 27  2  0
  1  4  1  0
  1 24  1  0
  1  2  1  1
  1  3  2  0
  6 11  1  0
  6 12  1  0
 29 36  1  0
 29 37  1  0
  9  7  1  6
  7 13  1  0
 10  8  1  1
  8 14  1  0
 37 28  1  6
  4  5  1  0
 33 30  1  6
 30 38  1  0
 34 31  1  6
 31 39  1  0
 35 32  1  1
 32 40  1  0
 41 42  1  0
 41 43  1  0
 15 19  2  0
 16 22  2  0
 12 17  1  1
 17 19  1  0
 17 20  1  0
 18 19  1  0
 18 22  1  0
 18 23  1  0
  9 10  1  0
  9 11  1  0
 10 12  1  0
 11  5  1  1
 33 34  1  0
 33 35  1  0
 34 36  1  0
 35 37  1  0
 36 42  1  6
 20 21  2  0
 21 22  1  0
M  CHG  2   2  -1  26  -1
M  END
>  <COMPND>  (109) 
    8629 

>  <AUTHOR>  (109) 
    GENERATED BY OPEN BABEL 3.1.1

>  <MASTER>  (109) 
        0    0    0    0    0    0    0    0   58    0   58    0

>  <minimizedAffinity>  (109) 
-7.34708

>  <CNNscore>  (109) 
0.3595591187

>  <CNNaffinity>  (109) 
3.9043738842

>  <CNN_VS>  (109) 
1.4038531780

>  <CNNaffinity_variance>  (109) 
0.0901312083

$$$$
110
     RDKit          3D

 43 45  0  0  0  0  0  0  0  0999 V2000
   19.7825   71.3426   -0.2782 P   0  0  2  0  0  0  0  0  0  0  0  0
   20.5162   69.9172   -0.4964 O   0  0  0  0  0  0  0  0  0  0  0  0
   20.3770   72.4856   -1.0473 O   0  0  0  0  0  0  0  0  0  0  0  0
   19.7484   71.5197    1.3297 O   0  0  0  0  0  0  0  0  0  0  0  0
   20.5215   72.5544    1.9124 C   0  0  0  0  0  0  0  0  0  0  0  0
   22.7674   73.2725    2.3749 O   0  0  0  0  0  0  0  0  0  0  0  0
   23.5742   70.4214    1.9156 O   0  0  0  0  0  0  0  0  0  0  0  0
   23.5369   70.5975    4.6366 O   0  0  0  0  0  0  0  0  0  0  0  0
   22.3896   70.9376    2.5202 C   0  0  1  0  0  0  0  0  0  0  0  0
   22.6940   71.4655    3.9066 C   0  0  2  0  0  0  0  0  0  0  0  0
   21.9977   72.2075    1.7752 C   0  0  1  0  0  0  0  0  0  0  0  0
   23.3539   72.7988    3.5982 C   0  0  2  0  0  0  0  0  0  0  0  0
   23.8438   69.6097    2.3743 H   0  0  0  0  0  0  0  0  0  0  0  0
   23.0721   69.7636    4.8079 H   0  0  0  0  0  0  0  0  0  0  0  0
   25.2814   74.6699    4.4710 O   0  0  0  0  0  0  0  0  0  0  0  0
   22.3867   76.4841    7.5646 O   0  0  0  0  0  0  0  0  0  0  0  0
   23.1307   73.7720    4.6299 N   0  0  0  0  0  0  0  0  0  0  0  0
   23.8384   75.5718    6.0105 N   0  0  0  0  0  0  0  0  0  0  0  0
   24.1651   74.6651    4.9941 C   0  0  0  0  0  0  0  0  0  0  0  0
   21.8970   73.8342    5.2686 C   0  0  0  0  0  0  0  0  0  0  0  0
   21.6018   74.7039    6.2370 C   0  0  0  0  0  0  0  0  0  0  0  0
   22.6273   75.6720    6.6767 C   0  0  0  0  0  0  0  0  0  0  0  0
   24.5438   76.2036    6.2811 H   0  0  0  0  0  0  0  0  0  0  0  0
   18.2412   71.0172   -0.6407 O   0  0  0  0  0  0  0  0  0  0  0  0
   17.5726   70.3978   -1.9757 P   0  0  2  0  0  0  0  0  0  0  0  0
   16.0293   70.8721   -1.8722 O   0  0  0  0  0  0  0  0  0  0  0  0
   17.7561   68.9152   -2.1248 O   0  0  0  0  0  0  0  0  0  0  0  0
   18.1878   71.2728   -3.1844 O   0  0  0  0  0  0  0  0  0  0  0  0
   17.8569   70.9522   -5.5092 O   0  0  0  0  0  0  0  0  0  0  0  0
   21.7067   72.4434   -5.5900 O   0  0  0  0  0  0  0  0  0  0  0  0
   19.5306   74.0863   -6.4918 O   0  0  0  0  0  0  0  0  0  0  0  0
   20.9039   70.6320   -3.4796 O   0  0  0  0  0  0  0  0  0  0  0  0
   20.3657   72.3236   -5.1075 C   0  0  1  0  0  0  0  0  0  0  0  0
   19.4118   72.6876   -6.2470 C   0  0  1  0  0  0  0  0  0  0  0  0
   20.1280   70.8871   -4.6455 C   0  0  2  0  0  0  0  0  0  0  0  0
   17.9626   72.3284   -5.8923 C   0  0  1  0  0  0  0  0  0  0  0  0
   18.6476   70.6215   -4.3658 C   0  0  1  0  0  0  0  0  0  0  0  0
   21.8644   73.3533   -5.8845 H   0  0  0  0  0  0  0  0  0  0  0  0
   20.4504   74.2999   -6.7141 H   0  0  0  0  0  0  0  0  0  0  0  0
   21.8389   70.8035   -3.6698 H   0  0  0  0  0  0  0  0  0  0  0  0
   17.7811   72.5524   -8.2642 O   0  0  0  0  0  0  0  0  0  0  0  0
   17.0164   72.5367   -7.0728 C   0  0  0  0  0  0  0  0  0  0  0  0
   17.1919   72.6839   -9.0240 H   0  0  0  0  0  0  0  0  0  0  0  0
 25 28  1  0
 25 24  1  0
 25 26  1  1
 25 27  2  0
  1  4  1  0
  1 24  1  0
  1  2  1  1
  1  3  2  0
  6 11  1  0
  6 12  1  0
 29 36  1  0
 29 37  1  0
  9  7  1  6
  7 13  1  0
 10  8  1  6
  8 14  1  0
 37 28  1  1
  4  5  1  0
 33 30  1  6
 30 38  1  0
 34 31  1  1
 31 39  1  0
 35 32  1  1
 32 40  1  0
 41 42  1  0
 41 43  1  0
 15 19  2  0
 16 22  2  0
 12 17  1  1
 17 19  1  0
 17 20  1  0
 18 19  1  0
 18 22  1  0
 18 23  1  0
  9 10  1  0
  9 11  1  0
 10 12  1  0
 11  5  1  1
 33 34  1  0
 33 35  1  0
 34 36  1  0
 35 37  1  0
 36 42  1  6
 20 21  2  0
 21 22  1  0
M  CHG  2   2  -1  26  -1
M  END
>  <COMPND>  (110) 
    8629 

>  <AUTHOR>  (110) 
    GENERATED BY OPEN BABEL 3.1.1

>  <MASTER>  (110) 
        0    0    0    0    0    0    0    0   58    0   58    0

>  <minimizedAffinity>  (110) 
-7.12996

>  <CNNscore>  (110) 
0.3492961228

>  <CNNaffinity>  (110) 
3.8991000652

>  <CNN_VS>  (110) 
1.3619405031

>  <CNNaffinity_variance>  (110) 
0.1546726376

$$$$
111
     RDKit          3D

 43 45  0  0  0  0  0  0  0  0999 V2000
   22.4710   70.9711   -3.1548 P   0  0  2  0  0  0  0  0  0  0  0  0
   21.1480   70.0488   -3.0263 O   0  0  0  0  0  0  0  0  0  0  0  0
   23.7705   70.2213   -3.1364 O   0  0  0  0  0  0  0  0  0  0  0  0
   22.2844   72.0820   -1.9933 O   0  0  0  0  0  0  0  0  0  0  0  0
   23.0028   71.9215   -0.7825 C   0  0  0  0  0  0  0  0  0  0  0  0
   23.1359   70.6264    1.2371 O   0  0  0  0  0  0  0  0  0  0  0  0
   20.3576   69.6950    0.6011 O   0  0  0  0  0  0  0  0  0  0  0  0
   19.9244   71.6050    2.4987 O   0  0  0  0  0  0  0  0  0  0  0  0
   20.9514   70.9744    0.3870 C   0  0  1  0  0  0  0  0  0  0  0  0
   21.0841   71.7187    1.6993 C   0  0  2  0  0  0  0  0  0  0  0  0
   22.4078   70.7564   -0.0036 C   0  0  1  0  0  0  0  0  0  0  0  0
   22.2931   71.0432    2.3238 C   0  0  2  0  0  0  0  0  0  0  0  0
   19.4268   69.8085    0.8514 H   0  0  0  0  0  0  0  0  0  0  0  0
   19.1834   72.0501    2.0588 H   0  0  0  0  0  0  0  0  0  0  0  0
   23.6654   70.2339    4.6561 O   0  0  0  0  0  0  0  0  0  0  0  0
   25.1062   74.5259    5.5186 O   0  0  0  0  0  0  0  0  0  0  0  0
   23.0354   71.9283    3.1765 N   0  0  0  0  0  0  0  0  0  0  0  0
   24.3818   72.3716    5.0836 N   0  0  0  0  0  0  0  0  0  0  0  0
   23.6875   71.4210    4.3245 C   0  0  0  0  0  0  0  0  0  0  0  0
   23.1116   73.2828    2.8711 C   0  0  0  0  0  0  0  0  0  0  0  0
   23.7768   74.1765    3.6059 C   0  0  0  0  0  0  0  0  0  0  0  0
   24.4858   73.7286    4.8220 C   0  0  0  0  0  0  0  0  0  0  0  0
   24.8436   72.0413    5.8882 H   0  0  0  0  0  0  0  0  0  0  0  0
   22.1982   71.8114   -4.5084 O   0  0  0  0  0  0  0  0  0  0  0  0
   21.2875   73.1189   -4.7809 P   0  0  2  0  0  0  0  0  0  0  0  0
   22.1002   73.9021   -5.9400 O   0  0  0  0  0  0  0  0  0  0  0  0
   21.0093   73.9412   -3.5560 O   0  0  0  0  0  0  0  0  0  0  0  0
   19.9692   72.5518   -5.5194 O   0  0  0  0  0  0  0  0  0  0  0  0
   18.8249   70.4807   -5.3853 O   0  0  0  0  0  0  0  0  0  0  0  0
   18.5662   71.1150   -9.4574 O   0  0  0  0  0  0  0  0  0  0  0  0
   16.2221   71.4102   -7.8246 O   0  0  0  0  0  0  0  0  0  0  0  0
   20.9834   71.8319   -8.0350 O   0  0  0  0  0  0  0  0  0  0  0  0
   18.5989   71.4950   -8.0790 C   0  0  1  0  0  0  0  0  0  0  0  0
   17.4308   70.8116   -7.3653 C   0  0  1  0  0  0  0  0  0  0  0  0
   19.9304   71.0570   -7.4718 C   0  0  2  0  0  0  0  0  0  0  0  0
   17.5525   70.9540   -5.8422 C   0  0  1  0  0  0  0  0  0  0  0  0
   19.9283   71.1932   -5.9482 C   0  0  1  0  0  0  0  0  0  0  0  0
   17.7235   71.3907   -9.8490 H   0  0  0  0  0  0  0  0  0  0  0  0
   16.1578   71.3139   -8.7878 H   0  0  0  0  0  0  0  0  0  0  0  0
   20.9741   71.7370   -8.9998 H   0  0  0  0  0  0  0  0  0  0  0  0
   15.8773   69.2602   -6.0259 O   0  0  0  0  0  0  0  0  0  0  0  0
   16.4857   70.1471   -5.1053 C   0  0  0  0  0  0  0  0  0  0  0  0
   15.1963   68.7398   -5.5708 H   0  0  0  0  0  0  0  0  0  0  0  0
 25 28  1  0
 25 24  1  0
 25 26  1  6
 25 27  2  0
  1  4  1  0
  1 24  1  0
  1  2  1  1
  1  3  2  0
  6 11  1  0
  6 12  1  0
 29 36  1  0
 29 37  1  0
  9  7  1  1
  7 13  1  0
 10  8  1  1
  8 14  1  0
 37 28  1  6
  4  5  1  0
 33 30  1  6
 30 38  1  0
 34 31  1  6
 31 39  1  0
 35 32  1  6
 32 40  1  0
 41 42  1  0
 41 43  1  0
 15 19  2  0
 16 22  2  0
 12 17  1  1
 17 19  1  0
 17 20  1  0
 18 19  1  0
 18 22  1  0
 18 23  1  0
  9 10  1  0
  9 11  1  0
 10 12  1  0
 11  5  1  1
 33 34  1  0
 33 35  1  0
 34 36  1  0
 35 37  1  0
 36 42  1  1
 20 21  2  0
 21 22  1  0
M  CHG  2   2  -1  26  -1
M  END
>  <COMPND>  (111) 
    8629 

>  <AUTHOR>  (111) 
    GENERATED BY OPEN BABEL 3.1.1

>  <MASTER>  (111) 
        0    0    0    0    0    0    0    0   58    0   58    0

>  <minimizedAffinity>  (111) 
-8.65507

>  <CNNscore>  (111) 
0.3351694047

>  <CNNaffinity>  (111) 
3.8160018921

>  <CNN_VS>  (111) 
1.2790070772

>  <CNNaffinity_variance>  (111) 
0.2378838360

$$$$
112
     RDKit          3D

 43 45  0  0  0  0  0  0  0  0999 V2000
   22.6530   73.1135   -3.5209 P   0  0  2  0  0  0  0  0  0  0  0  0
   23.7732   72.6172   -4.5774 O   0  0  0  0  0  0  0  0  0  0  0  0
   22.8318   74.5165   -3.0198 O   0  0  0  0  0  0  0  0  0  0  0  0
   22.6483   71.9581   -2.3882 O   0  0  0  0  0  0  0  0  0  0  0  0
   22.6520   72.3470   -1.0257 C   0  0  0  0  0  0  0  0  0  0  0  0
   21.8485   70.0840   -0.9430 O   0  0  0  0  0  0  0  0  0  0  0  0
   21.4300   70.5377    1.9913 O   0  0  0  0  0  0  0  0  0  0  0  0
   23.7657   69.1314    1.9345 O   0  0  0  0  0  0  0  0  0  0  0  0
   22.4661   71.0271    1.1414 C   0  0  1  0  0  0  0  0  0  0  0  0
   23.4393   69.9163    0.8057 C   0  0  2  0  0  0  0  0  0  0  0  0
   21.8519   71.3337   -0.2187 C   0  0  1  0  0  0  0  0  0  0  0  0
   22.6738   69.1346   -0.2484 C   0  0  2  0  0  0  0  0  0  0  0  0
   21.7982   70.3352    2.8661 H   0  0  0  0  0  0  0  0  0  0  0  0
   24.2515   69.6732    2.5757 H   0  0  0  0  0  0  0  0  0  0  0  0
   22.9783   66.3373   -0.4938 O   0  0  0  0  0  0  0  0  0  0  0  0
   26.0398   66.7861   -3.9094 O   0  0  0  0  0  0  0  0  0  0  0  0
   23.5435   68.4932   -1.1937 N   0  0  0  0  0  0  0  0  0  0  0  0
   24.5023   66.5630   -2.1944 N   0  0  0  0  0  0  0  0  0  0  0  0
   23.6239   67.0817   -1.2346 C   0  0  0  0  0  0  0  0  0  0  0  0
   24.3047   69.2619   -2.0674 C   0  0  0  0  0  0  0  0  0  0  0  0
   25.1387   68.7519   -2.9761 C   0  0  0  0  0  0  0  0  0  0  0  0
   25.2813   67.2856   -3.0843 C   0  0  0  0  0  0  0  0  0  0  0  0
   24.5750   65.5821   -2.2410 H   0  0  0  0  0  0  0  0  0  0  0  0
   21.2672   72.8530   -4.3113 O   0  0  0  0  0  0  0  0  0  0  0  0
   20.3694   73.8331   -5.2312 P   0  0  2  0  0  0  0  0  0  0  0  0
   21.4478   74.8933   -5.8061 O   0  0  0  0  0  0  0  0  0  0  0  0
   19.2084   74.4583   -4.5134 O   0  0  0  0  0  0  0  0  0  0  0  0
   19.9609   72.9342   -6.5080 O   0  0  0  0  0  0  0  0  0  0  0  0
   18.9238   71.0167   -5.5785 O   0  0  0  0  0  0  0  0  0  0  0  0
   18.5425   70.0959   -9.5857 O   0  0  0  0  0  0  0  0  0  0  0  0
   16.2239   70.8832   -8.0849 O   0  0  0  0  0  0  0  0  0  0  0  0
   20.9526   71.3770   -8.6215 O   0  0  0  0  0  0  0  0  0  0  0  0
   18.5873   70.9580   -8.4454 C   0  0  1  0  0  0  0  0  0  0  0  0
   17.4708   70.5419   -7.4856 C   0  0  1  0  0  0  0  0  0  0  0  0
   19.9521   70.8250   -7.7724 C   0  0  2  0  0  0  0  0  0  0  0  0
   17.6195   71.2399   -6.1270 C   0  0  1  0  0  0  0  0  0  0  0  0
   19.9776   71.5127   -6.4062 C   0  0  1  0  0  0  0  0  0  0  0  0
   17.6786   70.1759  -10.0179 H   0  0  0  0  0  0  0  0  0  0  0  0
   16.1428   70.4364   -8.9422 H   0  0  0  0  0  0  0  0  0  0  0  0
   20.9263   70.9331   -9.4829 H   0  0  0  0  0  0  0  0  0  0  0  0
   16.0801   69.4973   -5.5772 O   0  0  0  0  0  0  0  0  0  0  0  0
   16.6108   70.7217   -5.1043 C   0  0  0  0  0  0  0  0  0  0  0  0
   15.4367   69.1555   -4.9362 H   0  0  0  0  0  0  0  0  0  0  0  0
 25 28  1  0
 25 24  1  0
 25 26  1  6
 25 27  2  0
  1  4  1  0
  1 24  1  0
  1  2  1  6
  1  3  2  0
  6 11  1  0
  6 12  1  0
 29 36  1  0
 29 37  1  0
  9  7  1  1
  7 13  1  0
 10  8  1  1
  8 14  1  0
 37 28  1  6
  4  5  1  0
 33 30  1  6
 30 38  1  0
 34 31  1  6
 31 39  1  0
 35 32  1  6
 32 40  1  0
 41 42  1  0
 41 43  1  0
 15 19  2  0
 16 22  2  0
 12 17  1  6
 17 19  1  0
 17 20  1  0
 18 19  1  0
 18 22  1  0
 18 23  1  0
  9 10  1  0
  9 11  1  0
 10 12  1  0
 11  5  1  6
 33 34  1  0
 33 35  1  0
 34 36  1  0
 35 37  1  0
 36 42  1  1
 20 21  2  0
 21 22  1  0
M  CHG  2   2  -1  26  -1
M  END
>  <COMPND>  (112) 
    8629 

>  <AUTHOR>  (112) 
    GENERATED BY OPEN BABEL 3.1.1

>  <MASTER>  (112) 
        0    0    0    0    0    0    0    0   58    0   58    0

>  <minimizedAffinity>  (112) 
-8.84454

>  <CNNscore>  (112) 
0.3233867884

>  <CNNaffinity>  (112) 
4.1749305725

>  <CNN_VS>  (112) 
1.3501174450

>  <CNNaffinity_variance>  (112) 
0.6064636707

$$$$
113
     RDKit          3D

 43 45  0  0  0  0  0  0  0  0999 V2000
   21.9393   72.5233   -4.8353 P   0  0  2  0  0  0  0  0  0  0  0  0
   21.3788   72.6467   -6.3479 O   0  0  0  0  0  0  0  0  0  0  0  0
   23.4308   72.6196   -4.7022 O   0  0  0  0  0  0  0  0  0  0  0  0
   21.2715   71.1567   -4.2838 O   0  0  0  0  0  0  0  0  0  0  0  0
   20.0045   70.7718   -4.7882 C   0  0  0  0  0  0  0  0  0  0  0  0
   18.1208   71.6944   -3.6159 O   0  0  0  0  0  0  0  0  0  0  0  0
   17.7544   68.9621   -2.4364 O   0  0  0  0  0  0  0  0  0  0  0  0
   15.8668   69.0183   -4.4038 O   0  0  0  0  0  0  0  0  0  0  0  0
   18.1866   69.3291   -3.7456 C   0  0  1  0  0  0  0  0  0  0  0  0
   17.0148   69.8261   -4.5661 C   0  0  2  0  0  0  0  0  0  0  0  0
   19.0433   70.5830   -3.6225 C   0  0  1  0  0  0  0  0  0  0  0  0
   16.8224   71.2314   -4.0218 C   0  0  2  0  0  0  0  0  0  0  0  0
   17.2056   68.1634   -2.4894 H   0  0  0  0  0  0  0  0  0  0  0  0
   16.0392   68.1349   -4.7654 H   0  0  0  0  0  0  0  0  0  0  0  0
   15.1920   73.4610   -3.4315 O   0  0  0  0  0  0  0  0  0  0  0  0
   14.8470   74.6174   -7.8796 O   0  0  0  0  0  0  0  0  0  0  0  0
   16.2928   72.1324   -5.0063 N   0  0  0  0  0  0  0  0  0  0  0  0
   15.0217   74.0351   -5.6468 N   0  0  0  0  0  0  0  0  0  0  0  0
   15.4837   73.2208   -4.6049 C   0  0  0  0  0  0  0  0  0  0  0  0
   16.5773   71.9326   -6.3528 C   0  0  0  0  0  0  0  0  0  0  0  0
   16.1279   72.7175   -7.3342 C   0  0  0  0  0  0  0  0  0  0  0  0
   15.2759   73.8770   -6.9999 C   0  0  0  0  0  0  0  0  0  0  0  0
   14.4558   74.7994   -5.3910 H   0  0  0  0  0  0  0  0  0  0  0  0
   21.1182   73.6722   -4.0486 O   0  0  0  0  0  0  0  0  0  0  0  0
   21.2605   74.2342   -2.5396 P   0  0  2  0  0  0  0  0  0  0  0  0
   19.8904   75.0670   -2.3232 O   0  0  0  0  0  0  0  0  0  0  0  0
   22.5119   75.0261   -2.2934 O   0  0  0  0  0  0  0  0  0  0  0  0
   21.0979   72.9311   -1.6013 O   0  0  0  0  0  0  0  0  0  0  0  0
   22.5319   73.1322    0.2748 O   0  0  0  0  0  0  0  0  0  0  0  0
   21.1640   69.2864    0.8991 O   0  0  0  0  0  0  0  0  0  0  0  0
   20.2424   71.4122    2.5962 O   0  0  0  0  0  0  0  0  0  0  0  0
   21.7224   70.2017   -1.7897 O   0  0  0  0  0  0  0  0  0  0  0  0
   21.0691   70.6519    0.4844 C   0  0  1  0  0  0  0  0  0  0  0  0
   21.3415   71.5419    1.6987 C   0  0  1  0  0  0  0  0  0  0  0  0
   22.0974   70.9124   -0.6147 C   0  0  2  0  0  0  0  0  0  0  0  0
   21.5209   73.0079    1.2819 C   0  0  1  0  0  0  0  0  0  0  0  0
   22.2333   72.4054   -0.9187 C   0  0  1  0  0  0  0  0  0  0  0  0
   20.5133   69.1143    1.5966 H   0  0  0  0  0  0  0  0  0  0  0  0
   20.1397   70.4818    2.8512 H   0  0  0  0  0  0  0  0  0  0  0  0
   21.6400   69.2579   -1.5842 H   0  0  0  0  0  0  0  0  0  0  0  0
   20.8662   73.9854    3.3615 O   0  0  0  0  0  0  0  0  0  0  0  0
   21.9488   73.8876    2.4545 C   0  0  0  0  0  0  0  0  0  0  0  0
   21.1242   74.5422    4.1132 H   0  0  0  0  0  0  0  0  0  0  0  0
 25 28  1  0
 25 24  1  0
 25 26  1  1
 25 27  2  0
  1  4  1  0
  1 24  1  0
  1  2  1  6
  1  3  2  0
  6 11  1  0
  6 12  1  0
 29 36  1  0
 29 37  1  0
  9  7  1  1
  7 13  1  0
 10  8  1  1
  8 14  1  0
 37 28  1  1
  4  5  1  0
 33 30  1  1
 30 38  1  0
 34 31  1  1
 31 39  1  0
 35 32  1  6
 32 40  1  0
 41 42  1  0
 41 43  1  0
 15 19  2  0
 16 22  2  0
 12 17  1  6
 17 19  1  0
 17 20  1  0
 18 19  1  0
 18 22  1  0
 18 23  1  0
  9 10  1  0
  9 11  1  0
 10 12  1  0
 11  5  1  6
 33 34  1  0
 33 35  1  0
 34 36  1  0
 35 37  1  0
 36 42  1  1
 20 21  2  0
 21 22  1  0
M  CHG  2   2  -1  26  -1
M  END
>  <COMPND>  (113) 
    8629 

>  <AUTHOR>  (113) 
    GENERATED BY OPEN BABEL 3.1.1

>  <MASTER>  (113) 
        0    0    0    0    0    0    0    0   58    0   58    0

>  <minimizedAffinity>  (113) 
-6.72820

>  <CNNscore>  (113) 
0.3227321208

>  <CNNaffinity>  (113) 
3.8833243847

>  <CNN_VS>  (113) 
1.2532734871

>  <CNNaffinity_variance>  (113) 
0.4688581526

$$$$
114
     RDKit          3D

 43 45  0  0  0  0  0  0  0  0999 V2000
   17.3860   72.5908    0.3186 P   0  0  2  0  0  0  0  0  0  0  0  0
   17.3209   74.2038    0.4260 O   0  0  0  0  0  0  0  0  0  0  0  0
   16.1564   71.8738    0.7936 O   0  0  0  0  0  0  0  0  0  0  0  0
   18.7615   72.2061    1.0788 O   0  0  0  0  0  0  0  0  0  0  0  0
   19.3649   73.1763    1.9169 C   0  0  0  0  0  0  0  0  0  0  0  0
   20.7788   71.2879    2.3736 O   0  0  0  0  0  0  0  0  0  0  0  0
   21.7362   72.8206    4.7663 O   0  0  0  0  0  0  0  0  0  0  0  0
   23.7507   73.2052    2.9690 O   0  0  0  0  0  0  0  0  0  0  0  0
   21.3741   73.3012    3.4727 C   0  0  1  0  0  0  0  0  0  0  0  0
   22.4529   72.9629    2.4652 C   0  0  2  0  0  0  0  0  0  0  0  0
   20.2004   72.4674    2.9741 C   0  0  1  0  0  0  0  0  0  0  0  0
   22.1919   71.4886    2.2070 C   0  0  2  0  0  0  0  0  0  0  0  0
   22.4838   73.3382    5.1057 H   0  0  0  0  0  0  0  0  0  0  0  0
   23.8679   74.1566    3.1167 H   0  0  0  0  0  0  0  0  0  0  0  0
   23.4439   69.0384    1.5692 O   0  0  0  0  0  0  0  0  0  0  0  0
   23.5831   70.0682   -2.9210 O   0  0  0  0  0  0  0  0  0  0  0  0
   22.5661   71.0904    0.8793 N   0  0  0  0  0  0  0  0  0  0  0  0
   23.5120   69.5531   -0.6661 N   0  0  0  0  0  0  0  0  0  0  0  0
   23.1907   69.8393    0.6669 C   0  0  0  0  0  0  0  0  0  0  0  0
   22.3130   71.9362   -0.1951 C   0  0  0  0  0  0  0  0  0  0  0  0
   22.6268   71.6490   -1.4601 C   0  0  0  0  0  0  0  0  0  0  0  0
   23.2820   70.3615   -1.7680 C   0  0  0  0  0  0  0  0  0  0  0  0
   23.9483   68.6871   -0.8381 H   0  0  0  0  0  0  0  0  0  0  0  0
   17.7495   72.3446   -1.2371 O   0  0  0  0  0  0  0  0  0  0  0  0
   18.0740   70.9851   -2.0491 P   0  0  2  0  0  0  0  0  0  0  0  0
   16.6059   70.4039   -2.4015 O   0  0  0  0  0  0  0  0  0  0  0  0
   18.9597   70.0237   -1.3106 O   0  0  0  0  0  0  0  0  0  0  0  0
   18.6648   71.4861   -3.4651 O   0  0  0  0  0  0  0  0  0  0  0  0
   18.0141   70.0893   -5.2657 O   0  0  0  0  0  0  0  0  0  0  0  0
   20.8654   72.3687   -7.1958 O   0  0  0  0  0  0  0  0  0  0  0  0
   18.0846   72.7815   -7.7828 O   0  0  0  0  0  0  0  0  0  0  0  0
   21.2904   71.5428   -4.4541 O   0  0  0  0  0  0  0  0  0  0  0  0
   19.8094   72.1179   -6.2645 C   0  0  1  0  0  0  0  0  0  0  0  0
   18.5764   71.6639   -7.0483 C   0  0  1  0  0  0  0  0  0  0  0  0
   20.2541   71.0324   -5.2860 C   0  0  2  0  0  0  0  0  0  0  0  0
   17.4908   71.1226   -6.1084 C   0  0  1  0  0  0  0  0  0  0  0  0
   19.0885   70.5292   -4.4327 C   0  0  1  0  0  0  0  0  0  0  0  0
   20.5897   73.0573   -7.8197 H   0  0  0  0  0  0  0  0  0  0  0  0
   18.7799   73.1140   -8.3721 H   0  0  0  0  0  0  0  0  0  0  0  0
   22.0224   71.8578   -5.0061 H   0  0  0  0  0  0  0  0  0  0  0  0
   15.7821   69.4525   -6.1163 O   0  0  0  0  0  0  0  0  0  0  0  0
   16.3173   70.5195   -6.8774 C   0  0  0  0  0  0  0  0  0  0  0  0
   15.0341   69.0592   -6.5933 H   0  0  0  0  0  0  0  0  0  0  0  0
 25 28  1  0
 25 24  1  0
 25 26  1  6
 25 27  2  0
  1  4  1  0
  1 24  1  0
  1  2  1  6
  1  3  2  0
  6 11  1  0
  6 12  1  0
 29 36  1  0
 29 37  1  0
  9  7  1  1
  7 13  1  0
 10  8  1  1
  8 14  1  0
 37 28  1  1
  4  5  1  0
 33 30  1  6
 30 38  1  0
 34 31  1  1
 31 39  1  0
 35 32  1  1
 32 40  1  0
 41 42  1  0
 41 43  1  0
 15 19  2  0
 16 22  2  0
 12 17  1  6
 17 19  1  0
 17 20  1  0
 18 19  1  0
 18 22  1  0
 18 23  1  0
  9 10  1  0
  9 11  1  0
 10 12  1  0
 11  5  1  6
 33 34  1  0
 33 35  1  0
 34 36  1  0
 35 37  1  0
 36 42  1  6
 20 21  2  0
 21 22  1  0
M  CHG  2   2  -1  26  -1
M  END
>  <COMPND>  (114) 
    8629 

>  <AUTHOR>  (114) 
    GENERATED BY OPEN BABEL 3.1.1

>  <MASTER>  (114) 
        0    0    0    0    0    0    0    0   58    0   58    0

>  <minimizedAffinity>  (114) 
-7.43779

>  <CNNscore>  (114) 
0.2843946218

>  <CNNaffinity>  (114) 
3.8658554554

>  <CNN_VS>  (114) 
1.0994285345

>  <CNNaffinity_variance>  (114) 
0.4970036447

$$$$
115
     RDKit          3D

 43 45  0  0  0  0  0  0  0  0999 V2000
   22.3708   69.9797    0.6562 P   0  0  2  0  0  0  0  0  0  0  0  0
   21.0558   69.0411    0.7402 O   0  0  0  0  0  0  0  0  0  0  0  0
   23.6629   69.2439    0.4549 O   0  0  0  0  0  0  0  0  0  0  0  0
   22.2823   70.8925    1.9892 O   0  0  0  0  0  0  0  0  0  0  0  0
   23.4779   71.1766    2.6947 C   0  0  0  0  0  0  0  0  0  0  0  0
   23.8537   73.4832    3.2535 O   0  0  0  0  0  0  0  0  0  0  0  0
   21.5252   73.2152    5.1236 O   0  0  0  0  0  0  0  0  0  0  0  0
   20.4197   74.4799    2.9753 O   0  0  0  0  0  0  0  0  0  0  0  0
   21.7260   72.6215    3.8420 C   0  0  1  0  0  0  0  0  0  0  0  0
   21.5443   73.6545    2.7496 C   0  0  2  0  0  0  0  0  0  0  0  0
   23.2043   72.2768    3.7110 C   0  0  1  0  0  0  0  0  0  0  0  0
   22.8547   74.4201    2.8187 C   0  0  2  0  0  0  0  0  0  0  0  0
   20.5880   73.4438    5.2306 H   0  0  0  0  0  0  0  0  0  0  0  0
   19.6112   73.9470    2.9210 H   0  0  0  0  0  0  0  0  0  0  0  0
   24.5796   76.6308    2.4787 O   0  0  0  0  0  0  0  0  0  0  0  0
   24.2722   76.3972   -2.1140 O   0  0  0  0  0  0  0  0  0  0  0  0
   23.2426   74.9579    1.5453 N   0  0  0  0  0  0  0  0  0  0  0  0
   24.4253   76.5126    0.1922 N   0  0  0  0  0  0  0  0  0  0  0  0
   24.1129   76.0712    1.4843 C   0  0  0  0  0  0  0  0  0  0  0  0
   22.7616   74.3823    0.3743 C   0  0  0  0  0  0  0  0  0  0  0  0
   23.0680   74.8159   -0.8501 C   0  0  0  0  0  0  0  0  0  0  0  0
   23.9716   75.9747   -1.0018 C   0  0  0  0  0  0  0  0  0  0  0  0
   25.0297   77.2871    0.1251 H   0  0  0  0  0  0  0  0  0  0  0  0
   21.9992   71.0214   -0.5227 O   0  0  0  0  0  0  0  0  0  0  0  0
   21.9760   70.8424   -2.1291 P   0  0  2  0  0  0  0  0  0  0  0  0
   22.6259   69.3772   -2.3486 O   0  0  0  0  0  0  0  0  0  0  0  0
   22.6648   71.9444   -2.8810 O   0  0  0  0  0  0  0  0  0  0  0  0
   20.4156   70.6555   -2.4969 O   0  0  0  0  0  0  0  0  0  0  0  0
   19.3223   69.3256   -4.1255 O   0  0  0  0  0  0  0  0  0  0  0  0
   16.9959   72.7275   -4.3817 O   0  0  0  0  0  0  0  0  0  0  0  0
   15.9258   70.3680   -3.1425 O   0  0  0  0  0  0  0  0  0  0  0  0
   19.8557   72.9594   -3.9981 O   0  0  0  0  0  0  0  0  0  0  0  0
   17.7956   71.7426   -3.7215 C   0  0  1  0  0  0  0  0  0  0  0  0
   17.1276   70.3789   -3.9080 C   0  0  1  0  0  0  0  0  0  0  0  0
   19.1952   71.7439   -4.3336 C   0  0  2  0  0  0  0  0  0  0  0  0
   18.0560   69.2415   -3.4614 C   0  0  1  0  0  0  0  0  0  0  0  0
   20.0193   70.5447   -3.8614 C   0  0  1  0  0  0  0  0  0  0  0  0
   16.1061   72.7322   -3.9974 H   0  0  0  0  0  0  0  0  0  0  0  0
   15.3487   71.0912   -3.4341 H   0  0  0  0  0  0  0  0  0  0  0  0
   19.3242   73.7109   -4.3026 H   0  0  0  0  0  0  0  0  0  0  0  0
   16.2846   68.0477   -4.5318 O   0  0  0  0  0  0  0  0  0  0  0  0
   17.4733   67.8673   -3.7843 C   0  0  0  0  0  0  0  0  0  0  0  0
   15.9027   67.1813   -4.7448 H   0  0  0  0  0  0  0  0  0  0  0  0
 25 28  1  0
 25 24  1  0
 25 26  1  1
 25 27  2  0
  1  4  1  0
  1 24  1  0
  1  2  1  1
  1  3  2  0
  6 11  1  0
  6 12  1  0
 29 36  1  0
 29 37  1  0
  9  7  1  1
  7 13  1  0
 10  8  1  1
  8 14  1  0
 37 28  1  1
  4  5  1  0
 33 30  1  6
 30 38  1  0
 34 31  1  1
 31 39  1  0
 35 32  1  1
 32 40  1  0
 41 42  1  0
 41 43  1  0
 15 19  2  0
 16 22  2  0
 12 17  1  6
 17 19  1  0
 17 20  1  0
 18 19  1  0
 18 22  1  0
 18 23  1  0
  9 10  1  0
  9 11  1  0
 10 12  1  0
 11  5  1  6
 33 34  1  0
 33 35  1  0
 34 36  1  0
 35 37  1  0
 36 42  1  6
 20 21  2  0
 21 22  1  0
M  CHG  2   2  -1  26  -1
M  END
>  <COMPND>  (115) 
    8629 

>  <AUTHOR>  (115) 
    GENERATED BY OPEN BABEL 3.1.1

>  <MASTER>  (115) 
        0    0    0    0    0    0    0    0   58    0   58    0

>  <minimizedAffinity>  (115) 
-6.81796

>  <CNNscore>  (115) 
0.2740643024

>  <CNNaffinity>  (115) 
3.9070816040

>  <CNN_VS>  (115) 
1.0707916021

>  <CNNaffinity_variance>  (115) 
0.0760092884

$$$$
116
     RDKit          3D

 43 45  0  0  0  0  0  0  0  0999 V2000
   21.9245   72.7315   -4.3042 P   0  0  2  0  0  0  0  0  0  0  0  0
   22.2698   73.8760   -5.3943 O   0  0  0  0  0  0  0  0  0  0  0  0
   23.0062   71.7139   -4.0894 O   0  0  0  0  0  0  0  0  0  0  0  0
   20.4972   72.1471   -4.7932 O   0  0  0  0  0  0  0  0  0  0  0  0
   20.1826   70.7972   -4.4990 C   0  0  0  0  0  0  0  0  0  0  0  0
   18.0740   71.8952   -4.1497 O   0  0  0  0  0  0  0  0  0  0  0  0
   17.1182   69.2902   -3.0133 O   0  0  0  0  0  0  0  0  0  0  0  0
   16.0692   69.2613   -5.5303 O   0  0  0  0  0  0  0  0  0  0  0  0
   18.0152   69.5268   -4.0972 C   0  0  1  0  0  0  0  0  0  0  0  0
   17.2529   70.0027   -5.3163 C   0  0  2  0  0  0  0  0  0  0  0  0
   18.8571   70.7487   -3.7515 C   0  0  1  0  0  0  0  0  0  0  0  0
   16.9779   71.4558   -4.9685 C   0  0  2  0  0  0  0  0  0  0  0  0
   16.5700   68.5141   -3.2110 H   0  0  0  0  0  0  0  0  0  0  0  0
   16.2969   68.3441   -5.7484 H   0  0  0  0  0  0  0  0  0  0  0  0
   18.5432   71.1038   -7.2931 O   0  0  0  0  0  0  0  0  0  0  0  0
   16.5980   74.7274   -9.3732 O   0  0  0  0  0  0  0  0  0  0  0  0
   16.9008   72.2924   -6.1327 N   0  0  0  0  0  0  0  0  0  0  0  0
   17.5733   72.9082   -8.3270 N   0  0  0  0  0  0  0  0  0  0  0  0
   17.7317   72.0305   -7.2469 C   0  0  0  0  0  0  0  0  0  0  0  0
   16.0085   73.3587   -6.1619 C   0  0  0  0  0  0  0  0  0  0  0  0
   15.8705   74.1871   -7.1991 C   0  0  0  0  0  0  0  0  0  0  0  0
   16.7014   73.9828   -8.4032 C   0  0  0  0  0  0  0  0  0  0  0  0
   18.1420   72.7454   -9.1143 H   0  0  0  0  0  0  0  0  0  0  0  0
   21.5355   73.5875   -2.9893 O   0  0  0  0  0  0  0  0  0  0  0  0
   22.4577   74.2104   -1.8170 P   0  0  2  0  0  0  0  0  0  0  0  0
   21.4240   75.1346   -0.9833 O   0  0  0  0  0  0  0  0  0  0  0  0
   23.6758   74.9352   -2.3118 O   0  0  0  0  0  0  0  0  0  0  0  0
   22.7713   72.9654   -0.8389 O   0  0  0  0  0  0  0  0  0  0  0  0
   22.0895   70.7024   -1.0130 O   0  0  0  0  0  0  0  0  0  0  0  0
   21.9628   71.1156    3.0935 O   0  0  0  0  0  0  0  0  0  0  0  0
   24.0583   69.5650    1.8885 O   0  0  0  0  0  0  0  0  0  0  0  0
   21.1067   73.2981    1.3956 O   0  0  0  0  0  0  0  0  0  0  0  0
   22.4675   71.3475    1.7756 C   0  0  1  0  0  0  0  0  0  0  0  0
   22.9000   70.0043    1.1845 C   0  0  1  0  0  0  0  0  0  0  0  0
   21.3684   71.9806    0.9244 C   0  0  2  0  0  0  0  0  0  0  0  0
   23.2017   70.1303   -0.3149 C   0  0  1  0  0  0  0  0  0  0  0  0
   21.7492   72.0131   -0.5568 C   0  0  1  0  0  0  0  0  0  0  0  0
   22.6559   70.7141    3.6393 H   0  0  0  0  0  0  0  0  0  0  0  0
   23.8545   69.4900    2.8340 H   0  0  0  0  0  0  0  0  0  0  0  0
   20.8664   73.2640    2.3342 H   0  0  0  0  0  0  0  0  0  0  0  0
   22.9236   67.7638   -0.1379 O   0  0  0  0  0  0  0  0  0  0  0  0
   23.4820   68.7738   -0.9579 C   0  0  0  0  0  0  0  0  0  0  0  0
   23.0941   66.8949   -0.5349 H   0  0  0  0  0  0  0  0  0  0  0  0
 25 28  1  0
 25 24  1  0
 25 26  1  1
 25 27  2  0
  1  4  1  0
  1 24  1  0
  1  2  1  6
  1  3  2  0
  6 11  1  0
  6 12  1  0
 29 36  1  0
 29 37  1  0
  9  7  1  1
  7 13  1  0
 10  8  1  1
  8 14  1  0
 37 28  1  1
  4  5  1  0
 33 30  1  1
 30 38  1  0
 34 31  1  1
 31 39  1  0
 35 32  1  1
 32 40  1  0
 41 42  1  0
 41 43  1  0
 15 19  2  0
 16 22  2  0
 12 17  1  6
 17 19  1  0
 17 20  1  0
 18 19  1  0
 18 22  1  0
 18 23  1  0
  9 10  1  0
  9 11  1  0
 10 12  1  0
 11  5  1  6
 33 34  1  0
 33 35  1  0
 34 36  1  0
 35 37  1  0
 36 42  1  6
 20 21  2  0
 21 22  1  0
M  CHG  2   2  -1  26  -1
M  END
>  <COMPND>  (116) 
    8629 

>  <AUTHOR>  (116) 
    GENERATED BY OPEN BABEL 3.1.1

>  <MASTER>  (116) 
        0    0    0    0    0    0    0    0   58    0   58    0

>  <minimizedAffinity>  (116) 
-7.03947

>  <CNNscore>  (116) 
0.2402006835

>  <CNNaffinity>  (116) 
3.8880219460

>  <CNN_VS>  (116) 
0.9339055419

>  <CNNaffinity_variance>  (116) 
0.3183171451

$$$$
117
     RDKit          3D

 43 45  0  0  0  0  0  0  0  0999 V2000
   22.3326   72.7544   -3.5593 P   0  0  2  0  0  0  0  0  0  0  0  0
   23.7868   72.5629   -4.2420 O   0  0  0  0  0  0  0  0  0  0  0  0
   22.0311   74.1474   -3.0902 O   0  0  0  0  0  0  0  0  0  0  0  0
   22.2827   71.6040   -2.4226 O   0  0  0  0  0  0  0  0  0  0  0  0
   22.7692   71.9114   -1.1277 C   0  0  0  0  0  0  0  0  0  0  0  0
   23.2397   70.9106    1.0055 O   0  0  0  0  0  0  0  0  0  0  0  0
   20.6566   69.4256    0.6686 O   0  0  0  0  0  0  0  0  0  0  0  0
   19.9671   71.4381    2.3748 O   0  0  0  0  0  0  0  0  0  0  0  0
   20.9899   70.7563    0.2771 C   0  0  1  0  0  0  0  0  0  0  0  0
   21.0449   71.6628    1.4890 C   0  0  2  0  0  0  0  0  0  0  0  0
   22.4407   70.7591   -0.1883 C   0  0  1  0  0  0  0  0  0  0  0  0
   22.3877   71.2950    2.0970 C   0  0  2  0  0  0  0  0  0  0  0  0
   19.7343   69.3987    0.9694 H   0  0  0  0  0  0  0  0  0  0  0  0
   19.1355   71.6871    1.9421 H   0  0  0  0  0  0  0  0  0  0  0  0
   23.7793   71.0592    4.5436 O   0  0  0  0  0  0  0  0  0  0  0  0
   24.6640   75.5800    4.6867 O   0  0  0  0  0  0  0  0  0  0  0  0
   22.9921   72.3941    2.7956 N   0  0  0  0  0  0  0  0  0  0  0  0
   24.2188   73.3104    4.6128 N   0  0  0  0  0  0  0  0  0  0  0  0
   23.6671   72.1686    4.0179 C   0  0  0  0  0  0  0  0  0  0  0  0
   22.9127   73.6783    2.2681 C   0  0  0  0  0  0  0  0  0  0  0  0
   23.4431   74.7568    2.8484 C   0  0  0  0  0  0  0  0  0  0  0  0
   24.1653   74.6077    4.1283 C   0  0  0  0  0  0  0  0  0  0  0  0
   24.6934   73.1776    5.4653 H   0  0  0  0  0  0  0  0  0  0  0  0
   21.3234   72.1920   -4.6899 O   0  0  0  0  0  0  0  0  0  0  0  0
   20.7946   72.8557   -6.0657 P   0  0  2  0  0  0  0  0  0  0  0  0
   20.8148   71.6174   -7.1067 O   0  0  0  0  0  0  0  0  0  0  0  0
   21.5811   74.0537   -6.5131 O   0  0  0  0  0  0  0  0  0  0  0  0
   19.2280   73.1434   -5.8048 O   0  0  0  0  0  0  0  0  0  0  0  0
   17.4778   71.9785   -4.7110 O   0  0  0  0  0  0  0  0  0  0  0  0
   15.4585   73.1601   -8.1135 O   0  0  0  0  0  0  0  0  0  0  0  0
   14.8733   74.4294   -5.6046 O   0  0  0  0  0  0  0  0  0  0  0  0
   18.2235   72.3223   -8.2931 O   0  0  0  0  0  0  0  0  0  0  0  0
   16.4032   73.2903   -7.0478 C   0  0  1  0  0  0  0  0  0  0  0  0
   15.6414   73.2350   -5.7221 C   0  0  1  0  0  0  0  0  0  0  0  0
   17.4144   72.1487   -7.1348 C   0  0  2  0  0  0  0  0  0  0  0  0
   16.6044   73.1001   -4.5349 C   0  0  1  0  0  0  0  0  0  0  0  0
   18.2901   72.0731   -5.8828 C   0  0  1  0  0  0  0  0  0  0  0  0
   14.8139   73.8823   -8.0643 H   0  0  0  0  0  0  0  0  0  0  0  0
   14.2697   74.5027   -6.3606 H   0  0  0  0  0  0  0  0  0  0  0  0
   17.6575   72.3684   -9.0788 H   0  0  0  0  0  0  0  0  0  0  0  0
   14.5208   72.5380   -3.5095 O   0  0  0  0  0  0  0  0  0  0  0  0
   15.8620   72.8849   -3.2179 C   0  0  0  0  0  0  0  0  0  0  0  0
   14.0362   72.3977   -2.6806 H   0  0  0  0  0  0  0  0  0  0  0  0
 25 28  1  0
 25 24  1  0
 25 26  1  6
 25 27  2  0
  1  4  1  0
  1 24  1  0
  1  2  1  6
  1  3  2  0
  6 11  1  0
  6 12  1  0
 29 36  1  0
 29 37  1  0
  9  7  1  1
  7 13  1  0
 10  8  1  1
  8 14  1  0
 37 28  1  1
  4  5  1  0
 33 30  1  6
 30 38  1  0
 34 31  1  1
 31 39  1  0
 35 32  1  6
 32 40  1  0
 41 42  1  0
 41 43  1  0
 15 19  2  0
 16 22  2  0
 12 17  1  6
 17 19  1  0
 17 20  1  0
 18 19  1  0
 18 22  1  0
 18 23  1  0
  9 10  1  0
  9 11  1  0
 10 12  1  0
 11  5  1  6
 33 34  1  0
 33 35  1  0
 34 36  1  0
 35 37  1  0
 36 42  1  1
 20 21  2  0
 21 22  1  0
M  CHG  2   2  -1  26  -1
M  END
>  <COMPND>  (117) 
    8629 

>  <AUTHOR>  (117) 
    GENERATED BY OPEN BABEL 3.1.1

>  <MASTER>  (117) 
        0    0    0    0    0    0    0    0   58    0   58    0

>  <minimizedAffinity>  (117) 
-6.90909

>  <CNNscore>  (117) 
0.2388950735

>  <CNNaffinity>  (117) 
3.6863212585

>  <CNN_VS>  (117) 
0.8806439638

>  <CNNaffinity_variance>  (117) 
0.1538349837

$$$$
118
     RDKit          3D

 43 45  0  0  0  0  0  0  0  0999 V2000
   17.3445   70.1439   -3.2499 P   0  0  2  0  0  0  0  0  0  0  0  0
   17.9040   68.9143   -2.3597 O   0  0  0  0  0  0  0  0  0  0  0  0
   15.9626   70.6071   -2.8933 O   0  0  0  0  0  0  0  0  0  0  0  0
   17.5458   69.6425   -4.7750 O   0  0  0  0  0  0  0  0  0  0  0  0
   16.4673   69.7879   -5.6824 C   0  0  0  0  0  0  0  0  0  0  0  0
   16.0524   71.3932   -7.4216 O   0  0  0  0  0  0  0  0  0  0  0  0
   18.9620   71.1334   -8.0979 O   0  0  0  0  0  0  0  0  0  0  0  0
   18.8870   73.4613   -6.6795 O   0  0  0  0  0  0  0  0  0  0  0  0
   18.3260   71.0998   -6.8213 C   0  0  1  0  0  0  0  0  0  0  0  0
   17.8936   72.4925   -6.4125 C   0  0  2  0  0  0  0  0  0  0  0  0
   16.9895   70.3860   -6.9815 C   0  0  1  0  0  0  0  0  0  0  0  0
   16.6419   72.6924   -7.2502 C   0  0  2  0  0  0  0  0  0  0  0  0
   19.8179   71.5844   -8.0208 H   0  0  0  0  0  0  0  0  0  0  0  0
   19.6625   73.2914   -6.1224 H   0  0  0  0  0  0  0  0  0  0  0  0
   14.8075   74.3378   -8.6305 O   0  0  0  0  0  0  0  0  0  0  0  0
   13.0326   75.9678   -4.7019 O   0  0  0  0  0  0  0  0  0  0  0  0
   15.6887   73.5566   -6.6130 N   0  0  0  0  0  0  0  0  0  0  0  0
   13.9251   75.1479   -6.6733 N   0  0  0  0  0  0  0  0  0  0  0  0
   14.8130   74.3425   -7.3978 C   0  0  0  0  0  0  0  0  0  0  0  0
   15.6287   73.6184   -5.2251 C   0  0  0  0  0  0  0  0  0  0  0  0
   14.7770   74.3925   -4.5494 C   0  0  0  0  0  0  0  0  0  0  0  0
   13.8280   75.2449   -5.2942 C   0  0  0  0  0  0  0  0  0  0  0  0
   13.3057   75.7045   -7.1989 H   0  0  0  0  0  0  0  0  0  0  0  0
   18.4948   71.2671   -3.0819 O   0  0  0  0  0  0  0  0  0  0  0  0
   20.0758   71.2256   -3.4157 P   0  0  2  0  0  0  0  0  0  0  0  0
   20.3997   72.7451   -3.8673 O   0  0  0  0  0  0  0  0  0  0  0  0
   20.4646   70.1837   -4.4242 O   0  0  0  0  0  0  0  0  0  0  0  0
   20.7928   71.0659   -1.9786 O   0  0  0  0  0  0  0  0  0  0  0  0
   22.3341   72.1556   -0.5456 O   0  0  0  0  0  0  0  0  0  0  0  0
   24.2548   68.5215   -0.9391 O   0  0  0  0  0  0  0  0  0  0  0  0
   22.9667   69.1833    1.5410 O   0  0  0  0  0  0  0  0  0  0  0  0
   22.9067   69.6962   -3.2155 O   0  0  0  0  0  0  0  0  0  0  0  0
   23.1268   69.3946   -0.8361 C   0  0  1  0  0  0  0  0  0  0  0  0
   23.2096   70.1292    0.5035 C   0  0  1  0  0  0  0  0  0  0  0  0
   23.1565   70.3876   -1.9965 C   0  0  2  0  0  0  0  0  0  0  0  0
   22.1881   71.2723    0.5726 C   0  0  1  0  0  0  0  0  0  0  0  0
   22.1357   71.5107   -1.8051 C   0  0  1  0  0  0  0  0  0  0  0  0
   24.2416   67.8882   -0.2054 H   0  0  0  0  0  0  0  0  0  0  0  0
   23.6182   68.4666    1.4859 H   0  0  0  0  0  0  0  0  0  0  0  0
   23.5597   68.9881   -3.3252 H   0  0  0  0  0  0  0  0  0  0  0  0
   21.7196   71.4537    2.9085 O   0  0  0  0  0  0  0  0  0  0  0  0
   22.3591   72.1167    1.8334 C   0  0  0  0  0  0  0  0  0  0  0  0
   21.8205   71.9795    3.7178 H   0  0  0  0  0  0  0  0  0  0  0  0
 25 28  1  0
 25 24  1  0
 25 26  1  6
 25 27  2  0
  1  4  1  0
  1 24  1  0
  1  2  1  1
  1  3  2  0
  6 11  1  0
  6 12  1  0
 29 36  1  0
 29 37  1  0
  9  7  1  6
  7 13  1  0
 10  8  1  6
  8 14  1  0
 37 28  1  1
  4  5  1  0
 33 30  1  6
 30 38  1  0
 34 31  1  1
 31 39  1  0
 35 32  1  6
 32 40  1  0
 41 42  1  0
 41 43  1  0
 15 19  2  0
 16 22  2  0
 12 17  1  1
 17 19  1  0
 17 20  1  0
 18 19  1  0
 18 22  1  0
 18 23  1  0
  9 10  1  0
  9 11  1  0
 10 12  1  0
 11  5  1  1
 33 34  1  0
 33 35  1  0
 34 36  1  0
 35 37  1  0
 36 42  1  1
 20 21  2  0
 21 22  1  0
M  CHG  2   2  -1  26  -1
M  END
>  <COMPND>  (118) 
    8629 

>  <AUTHOR>  (118) 
    GENERATED BY OPEN BABEL 3.1.1

>  <MASTER>  (118) 
        0    0    0    0    0    0    0    0   58    0   58    0

>  <minimizedAffinity>  (118) 
-7.20967

>  <CNNscore>  (118) 
0.2365311831

>  <CNNaffinity>  (118) 
3.8392746449

>  <CNN_VS>  (118) 
0.9081081748

>  <CNNaffinity_variance>  (118) 
0.2151743919

$$$$
119
     RDKit          3D

 43 45  0  0  0  0  0  0  0  0999 V2000
   22.3392   71.5331   -3.3183 P   0  0  2  0  0  0  0  0  0  0  0  0
   22.0782   72.2836   -1.9091 O   0  0  0  0  0  0  0  0  0  0  0  0
   23.5573   71.9921   -4.0647 O   0  0  0  0  0  0  0  0  0  0  0  0
   20.9339   71.6853   -4.1056 O   0  0  0  0  0  0  0  0  0  0  0  0
   20.1518   70.5240   -4.3235 C   0  0  0  0  0  0  0  0  0  0  0  0
   18.1405   71.5630   -3.5178 O   0  0  0  0  0  0  0  0  0  0  0  0
   17.6068   68.9853   -2.0821 O   0  0  0  0  0  0  0  0  0  0  0  0
   15.9863   68.7952   -4.2672 O   0  0  0  0  0  0  0  0  0  0  0  0
   18.2053   69.1994   -3.3593 C   0  0  1  0  0  0  0  0  0  0  0  0
   17.1514   69.5874   -4.3754 C   0  0  2  0  0  0  0  0  0  0  0  0
   19.0483   70.4658   -3.2761 C   0  0  1  0  0  0  0  0  0  0  0  0
   16.9013   71.0453   -4.0290 C   0  0  2  0  0  0  0  0  0  0  0  0
   17.0635   68.1815   -2.1105 H   0  0  0  0  0  0  0  0  0  0  0  0
   16.1971   67.8769   -4.4975 H   0  0  0  0  0  0  0  0  0  0  0  0
   15.3894   73.4276   -3.8985 O   0  0  0  0  0  0  0  0  0  0  0  0
   15.4506   73.9335   -8.4791 O   0  0  0  0  0  0  0  0  0  0  0  0
   16.5083   71.8203   -5.1719 N   0  0  0  0  0  0  0  0  0  0  0  0
   15.4213   73.6777   -6.1793 N   0  0  0  0  0  0  0  0  0  0  0  0
   15.7488   73.0006   -4.9977 C   0  0  0  0  0  0  0  0  0  0  0  0
   16.8759   71.4081   -6.4482 C   0  0  0  0  0  0  0  0  0  0  0  0
   16.5545   72.0643   -7.5651 C   0  0  0  0  0  0  0  0  0  0  0  0
   15.7621   73.3074   -7.4707 C   0  0  0  0  0  0  0  0  0  0  0  0
   14.8922   74.5025   -6.0825 H   0  0  0  0  0  0  0  0  0  0  0  0
   22.3546   69.9715   -2.9010 O   0  0  0  0  0  0  0  0  0  0  0  0
   23.4053   69.1194   -2.0162 P   0  0  2  0  0  0  0  0  0  0  0  0
   24.8409   69.5614   -2.6174 O   0  0  0  0  0  0  0  0  0  0  0  0
   23.1593   67.6385   -2.0259 O   0  0  0  0  0  0  0  0  0  0  0  0
   23.3505   69.7970   -0.5523 O   0  0  0  0  0  0  0  0  0  0  0  0
   23.3685   69.0722    1.7040 O   0  0  0  0  0  0  0  0  0  0  0  0
   20.1533   71.6581    1.8673 O   0  0  0  0  0  0  0  0  0  0  0  0
   22.6368   72.4037    3.1019 O   0  0  0  0  0  0  0  0  0  0  0  0
   20.5525   69.9963   -0.4691 O   0  0  0  0  0  0  0  0  0  0  0  0
   21.4325   71.1959    1.4252 C   0  0  1  0  0  0  0  0  0  0  0  0
   22.3501   71.0851    2.6444 C   0  0  1  0  0  0  0  0  0  0  0  0
   21.2661   69.8347    0.7521 C   0  0  2  0  0  0  0  0  0  0  0  0
   23.6490   70.3465    2.2949 C   0  0  1  0  0  0  0  0  0  0  0  0
   22.6163   69.1642    0.4925 C   0  0  1  0  0  0  0  0  0  0  0  0
   20.2519   72.5222    2.2952 H   0  0  0  0  0  0  0  0  0  0  0  0
   21.8082   72.8594    3.3187 H   0  0  0  0  0  0  0  0  0  0  0  0
   19.6996   70.4215   -0.2912 H   0  0  0  0  0  0  0  0  0  0  0  0
   23.7052   70.2613    4.6820 O   0  0  0  0  0  0  0  0  0  0  0  0
   24.5089   70.0860    3.5298 C   0  0  0  0  0  0  0  0  0  0  0  0
   24.2392   70.0984    5.4758 H   0  0  0  0  0  0  0  0  0  0  0  0
 25 28  1  0
 25 24  1  0
 25 26  1  6
 25 27  2  0
  1  4  1  0
  1 24  1  0
  1  2  1  1
  1  3  2  0
  6 11  1  0
  6 12  1  0
 29 36  1  0
 29 37  1  0
  9  7  1  1
  7 13  1  0
 10  8  1  1
  8 14  1  0
 37 28  1  6
  4  5  1  0
 33 30  1  1
 30 38  1  0
 34 31  1  6
 31 39  1  0
 35 32  1  6
 32 40  1  0
 41 42  1  0
 41 43  1  0
 15 19  2  0
 16 22  2  0
 12 17  1  6
 17 19  1  0
 17 20  1  0
 18 19  1  0
 18 22  1  0
 18 23  1  0
  9 10  1  0
  9 11  1  0
 10 12  1  0
 11  5  1  6
 33 34  1  0
 33 35  1  0
 34 36  1  0
 35 37  1  0
 36 42  1  1
 20 21  2  0
 21 22  1  0
M  CHG  2   2  -1  26  -1
M  END
>  <COMPND>  (119) 
    8629 

>  <AUTHOR>  (119) 
    GENERATED BY OPEN BABEL 3.1.1

>  <MASTER>  (119) 
        0    0    0    0    0    0    0    0   58    0   58    0

>  <minimizedAffinity>  (119) 
-8.68394

>  <CNNscore>  (119) 
0.2217919976

>  <CNNaffinity>  (119) 
3.9145214558

>  <CNN_VS>  (119) 
0.8682095408

>  <CNNaffinity_variance>  (119) 
0.2862970829

$$$$
120
     RDKit          3D

 43 45  0  0  0  0  0  0  0  0999 V2000
   21.2551   74.9690   -0.2588 P   0  0  2  0  0  0  0  0  0  0  0  0
   21.0327   76.5261   -0.6375 O   0  0  0  0  0  0  0  0  0  0  0  0
   22.3442   74.2793   -1.0265 O   0  0  0  0  0  0  0  0  0  0  0  0
   19.7790   74.3209   -0.3973 O   0  0  0  0  0  0  0  0  0  0  0  0
   19.4757   73.5729   -1.5619 C   0  0  0  0  0  0  0  0  0  0  0  0
   18.1379   71.5989   -1.8578 O   0  0  0  0  0  0  0  0  0  0  0  0
   20.4930   70.0718   -0.8033 O   0  0  0  0  0  0  0  0  0  0  0  0
   20.6895   69.6829   -3.4953 O   0  0  0  0  0  0  0  0  0  0  0  0
   20.4683   71.2314   -1.6339 C   0  0  1  0  0  0  0  0  0  0  0  0
   20.0532   70.8605   -3.0424 C   0  0  2  0  0  0  0  0  0  0  0  0
   19.3077   72.1084   -1.1808 C   0  0  1  0  0  0  0  0  0  0  0  0
   18.5504   70.6931   -2.8942 C   0  0  2  0  0  0  0  0  0  0  0  0
   21.2264   69.4963   -1.0735 H   0  0  0  0  0  0  0  0  0  0  0  0
   21.6434   69.8402   -3.5734 H   0  0  0  0  0  0  0  0  0  0  0  0
   16.5108   69.0946   -4.0179 O   0  0  0  0  0  0  0  0  0  0  0  0
   15.9037   72.0160   -7.5304 O   0  0  0  0  0  0  0  0  0  0  0  0
   17.8421   71.0123   -4.1016 N   0  0  0  0  0  0  0  0  0  0  0  0
   16.2101   70.5506   -5.7658 N   0  0  0  0  0  0  0  0  0  0  0  0
   16.8359   70.1418   -4.5813 C   0  0  0  0  0  0  0  0  0  0  0  0
   18.1472   72.1776   -4.7966 C   0  0  0  0  0  0  0  0  0  0  0  0
   17.5420   72.5525   -5.9255 C   0  0  0  0  0  0  0  0  0  0  0  0
   16.4789   71.6988   -6.4939 C   0  0  0  0  0  0  0  0  0  0  0  0
   15.5060   69.9596   -6.1190 H   0  0  0  0  0  0  0  0  0  0  0  0
   21.4838   75.0130    1.3408 O   0  0  0  0  0  0  0  0  0  0  0  0
   22.8408   75.0495    2.2185 P   0  0  2  0  0  0  0  0  0  0  0  0
   22.3119   75.4091    3.7046 O   0  0  0  0  0  0  0  0  0  0  0  0
   23.8897   75.9852    1.6913 O   0  0  0  0  0  0  0  0  0  0  0  0
   23.3071   73.5073    2.3139 O   0  0  0  0  0  0  0  0  0  0  0  0
   22.4631   71.5373    1.3023 O   0  0  0  0  0  0  0  0  0  0  0  0
   23.3640   70.0265    5.0381 O   0  0  0  0  0  0  0  0  0  0  0  0
   25.0027   69.3171    2.7888 O   0  0  0  0  0  0  0  0  0  0  0  0
   22.2594   72.6903    4.7857 O   0  0  0  0  0  0  0  0  0  0  0  0
   23.5469   70.8616    3.8916 C   0  0  1  0  0  0  0  0  0  0  0  0
   23.7379   69.9622    2.6688 C   0  0  1  0  0  0  0  0  0  0  0  0
   22.3158   71.7493    3.7191 C   0  0  2  0  0  0  0  0  0  0  0  0
   23.6735   70.7743    1.3682 C   0  0  1  0  0  0  0  0  0  0  0  0
   22.3266   72.4745    2.3722 C   0  0  1  0  0  0  0  0  0  0  0  0
   24.1424   69.4607    5.1536 H   0  0  0  0  0  0  0  0  0  0  0  0
   25.0304   68.8082    3.6143 H   0  0  0  0  0  0  0  0  0  0  0  0
   22.2527   72.2188    5.6328 H   0  0  0  0  0  0  0  0  0  0  0  0
   23.1037   68.6386    0.4610 O   0  0  0  0  0  0  0  0  0  0  0  0
   23.7038   69.8780    0.1322 C   0  0  0  0  0  0  0  0  0  0  0  0
   23.1156   68.0579   -0.3164 H   0  0  0  0  0  0  0  0  0  0  0  0
 25 28  1  0
 25 24  1  0
 25 26  1  1
 25 27  2  0
  1  4  1  0
  1 24  1  0
  1  2  1  6
  1  3  2  0
  6 11  1  0
  6 12  1  0
 29 36  1  0
 29 37  1  0
  9  7  1  1
  7 13  1  0
 10  8  1  1
  8 14  1  0
 37 28  1  1
  4  5  1  0
 33 30  1  1
 30 38  1  0
 34 31  1  1
 31 39  1  0
 35 32  1  1
 32 40  1  0
 41 42  1  0
 41 43  1  0
 15 19  2  0
 16 22  2  0
 12 17  1  6
 17 19  1  0
 17 20  1  0
 18 19  1  0
 18 22  1  0
 18 23  1  0
  9 10  1  0
  9 11  1  0
 10 12  1  0
 11  5  1  6
 33 34  1  0
 33 35  1  0
 34 36  1  0
 35 37  1  0
 36 42  1  6
 20 21  2  0
 21 22  1  0
M  CHG  2   2  -1  26  -1
M  END
>  <COMPND>  (120) 
    8629 

>  <AUTHOR>  (120) 
    GENERATED BY OPEN BABEL 3.1.1

>  <MASTER>  (120) 
        0    0    0    0    0    0    0    0   58    0   58    0

>  <minimizedAffinity>  (120) 
-7.02383

>  <CNNscore>  (120) 
0.2152617574

>  <CNNaffinity>  (120) 
4.0429239273

>  <CNN_VS>  (120) 
0.8702868819

>  <CNNaffinity_variance>  (120) 
0.1948686540

$$$$
121
     RDKit          3D

 43 45  0  0  0  0  0  0  0  0999 V2000
   21.0488   70.5526   -0.5337 P   0  0  2  0  0  0  0  0  0  0  0  0
   22.2853   69.5183   -0.3973 O   0  0  0  0  0  0  0  0  0  0  0  0
   20.0330   70.4749    0.5679 O   0  0  0  0  0  0  0  0  0  0  0  0
   20.4862   70.2905   -2.0279 O   0  0  0  0  0  0  0  0  0  0  0  0
   20.1147   71.4079   -2.8161 C   0  0  0  0  0  0  0  0  0  0  0  0
   18.1710   72.0259   -4.0865 O   0  0  0  0  0  0  0  0  0  0  0  0
   16.5831   70.5187   -2.0376 O   0  0  0  0  0  0  0  0  0  0  0  0
   16.7071   68.7518   -4.1111 O   0  0  0  0  0  0  0  0  0  0  0  0
   17.8739   70.2281   -2.5714 C   0  0  1  0  0  0  0  0  0  0  0  0
   17.7510   69.6957   -3.9839 C   0  0  2  0  0  0  0  0  0  0  0  0
   18.5990   71.5499   -2.7917 C   0  0  1  0  0  0  0  0  0  0  0  0
   17.4916   70.9649   -4.7776 C   0  0  2  0  0  0  0  0  0  0  0  0
   16.1011   69.6897   -1.8882 H   0  0  0  0  0  0  0  0  0  0  0  0
   16.9190   67.9628   -3.5884 H   0  0  0  0  0  0  0  0  0  0  0  0
   15.9851   70.0837   -6.9983 O   0  0  0  0  0  0  0  0  0  0  0  0
   19.5305   70.6964   -9.8785 O   0  0  0  0  0  0  0  0  0  0  0  0
   17.9959   70.8844   -6.1194 N   0  0  0  0  0  0  0  0  0  0  0  0
   17.7516   70.3896   -8.4307 N   0  0  0  0  0  0  0  0  0  0  0  0
   17.1574   70.4276   -7.1628 C   0  0  0  0  0  0  0  0  0  0  0  0
   19.3082   71.2565   -6.3900 C   0  0  0  0  0  0  0  0  0  0  0  0
   19.8602   71.2132   -7.6044 C   0  0  0  0  0  0  0  0  0  0  0  0
   19.0519   70.7477   -8.7498 C   0  0  0  0  0  0  0  0  0  0  0  0
   17.1865   70.0743   -9.1730 H   0  0  0  0  0  0  0  0  0  0  0  0
   21.7862   71.9847   -0.6691 O   0  0  0  0  0  0  0  0  0  0  0  0
   21.7994   73.2689    0.3126 P   0  0  2  0  0  0  0  0  0  0  0  0
   20.2806   73.3280    0.8667 O   0  0  0  0  0  0  0  0  0  0  0  0
   22.2707   74.5367   -0.3390 O   0  0  0  0  0  0  0  0  0  0  0  0
   22.6790   72.8028    1.5831 O   0  0  0  0  0  0  0  0  0  0  0  0
   22.5940   70.8575    2.9341 O   0  0  0  0  0  0  0  0  0  0  0  0
   23.3799   73.6608    5.8624 O   0  0  0  0  0  0  0  0  0  0  0  0
   25.4448   71.8343    5.0573 O   0  0  0  0  0  0  0  0  0  0  0  0
   21.5896   74.3124    3.6830 O   0  0  0  0  0  0  0  0  0  0  0  0
   23.4649   73.0800    4.5582 C   0  0  1  0  0  0  0  0  0  0  0  0
   24.0753   71.6837    4.6939 C   0  0  1  0  0  0  0  0  0  0  0  0
   22.0635   72.9981    3.9560 C   0  0  2  0  0  0  0  0  0  0  0  0
   23.9539   70.8962    3.3823 C   0  0  1  0  0  0  0  0  0  0  0  0
   22.0450   72.1524    2.6814 C   0  0  1  0  0  0  0  0  0  0  0  0
   24.2665   73.7162    6.2502 H   0  0  0  0  0  0  0  0  0  0  0  0
   25.5075   72.3336    5.8867 H   0  0  0  0  0  0  0  0  0  0  0  0
   21.6059   74.8376    4.4977 H   0  0  0  0  0  0  0  0  0  0  0  0
   25.8163   69.3995    3.3585 O   0  0  0  0  0  0  0  0  0  0  0  0
   24.4131   69.4483    3.5399 C   0  0  0  0  0  0  0  0  0  0  0  0
   26.1227   68.4840    3.4563 H   0  0  0  0  0  0  0  0  0  0  0  0
 25 28  1  0
 25 24  1  0
 25 26  1  1
 25 27  2  0
  1  4  1  0
  1 24  1  0
  1  2  1  1
  1  3  2  0
  6 11  1  0
  6 12  1  0
 29 36  1  0
 29 37  1  0
  9  7  1  6
  7 13  1  0
 10  8  1  1
  8 14  1  0
 37 28  1  6
  4  5  1  0
 33 30  1  1
 30 38  1  0
 34 31  1  6
 31 39  1  0
 35 32  1  6
 32 40  1  0
 41 42  1  0
 41 43  1  0
 15 19  2  0
 16 22  2  0
 12 17  1  6
 17 19  1  0
 17 20  1  0
 18 19  1  0
 18 22  1  0
 18 23  1  0
  9 10  1  0
  9 11  1  0
 10 12  1  0
 11  5  1  6
 33 34  1  0
 33 35  1  0
 34 36  1  0
 35 37  1  0
 36 42  1  1
 20 21  2  0
 21 22  1  0
M  CHG  2   2  -1  26  -1
M  END
>  <COMPND>  (121) 
    8629 

>  <AUTHOR>  (121) 
    GENERATED BY OPEN BABEL 3.1.1

>  <MASTER>  (121) 
        0    0    0    0    0    0    0    0   58    0   58    0

>  <minimizedAffinity>  (121) 
-7.94399

>  <CNNscore>  (121) 
0.8726302981

>  <CNNaffinity>  (121) 
4.8152470589

>  <CNN_VS>  (121) 
4.2019305229

>  <CNNaffinity_variance>  (121) 
0.1259247810

$$$$
122
     RDKit          3D

 43 45  0  0  0  0  0  0  0  0999 V2000
   22.2114   72.5849   -3.8634 P   0  0  2  0  0  0  0  0  0  0  0  0
   21.7682   73.8012   -4.8337 O   0  0  0  0  0  0  0  0  0  0  0  0
   23.6432   72.1566   -3.9975 O   0  0  0  0  0  0  0  0  0  0  0  0
   21.1055   71.4385   -4.1477 O   0  0  0  0  0  0  0  0  0  0  0  0
   20.5299   70.7653   -3.0417 C   0  0  0  0  0  0  0  0  0  0  0  0
   18.6668   71.7883   -4.1625 O   0  0  0  0  0  0  0  0  0  0  0  0
   16.9411   70.4790   -2.0893 O   0  0  0  0  0  0  0  0  0  0  0  0
   16.6349   68.8341   -4.2427 O   0  0  0  0  0  0  0  0  0  0  0  0
   18.1283   69.9924   -2.7132 C   0  0  1  0  0  0  0  0  0  0  0  0
   17.8377   69.5683   -4.1377 C   0  0  2  0  0  0  0  0  0  0  0  0
   19.0683   71.1737   -2.9185 C   0  0  1  0  0  0  0  0  0  0  0  0
   17.7715   70.9048   -4.8571 C   0  0  2  0  0  0  0  0  0  0  0  0
   16.3253   69.7423   -1.9476 H   0  0  0  0  0  0  0  0  0  0  0  0
   16.7272   67.9926   -3.7693 H   0  0  0  0  0  0  0  0  0  0  0  0
   16.0650   70.1760   -6.9866 O   0  0  0  0  0  0  0  0  0  0  0  0
   19.4574   70.5687  -10.0815 O   0  0  0  0  0  0  0  0  0  0  0  0
   18.1823   70.8090   -6.2295 N   0  0  0  0  0  0  0  0  0  0  0  0
   17.7555   70.3723   -8.5259 N   0  0  0  0  0  0  0  0  0  0  0  0
   17.2473   70.4337   -7.2221 C   0  0  0  0  0  0  0  0  0  0  0  0
   19.4994   71.0860   -6.5795 C   0  0  0  0  0  0  0  0  0  0  0  0
   19.9685   71.0216   -7.8273 C   0  0  0  0  0  0  0  0  0  0  0  0
   19.0564   70.6370   -8.9237 C   0  0  0  0  0  0  0  0  0  0  0  0
   17.1223   70.1126   -9.2340 H   0  0  0  0  0  0  0  0  0  0  0  0
   21.8055   73.1250   -2.3949 O   0  0  0  0  0  0  0  0  0  0  0  0
   22.6039   74.0681   -1.3526 P   0  0  2  0  0  0  0  0  0  0  0  0
   21.5079   75.1885   -0.9515 O   0  0  0  0  0  0  0  0  0  0  0  0
   23.8912   74.6248   -1.8880 O   0  0  0  0  0  0  0  0  0  0  0  0
   22.7668   73.1638   -0.0257 O   0  0  0  0  0  0  0  0  0  0  0  0
   22.9628   70.8934    0.6252 O   0  0  0  0  0  0  0  0  0  0  0  0
   19.7246   71.9694    2.9507 O   0  0  0  0  0  0  0  0  0  0  0  0
   22.2790   71.5365    4.1900 O   0  0  0  0  0  0  0  0  0  0  0  0
   19.9795   73.0084    0.2609 O   0  0  0  0  0  0  0  0  0  0  0  0
   20.9756   72.1687    2.2867 C   0  0  1  0  0  0  0  0  0  0  0  0
   21.9820   71.1620    2.8477 C   0  0  1  0  0  0  0  0  0  0  0  0
   20.7834   71.9576    0.7861 C   0  0  2  0  0  0  0  0  0  0  0  0
   23.2642   71.1324    2.0050 C   0  0  1  0  0  0  0  0  0  0  0  0
   22.1222   71.8948    0.0486 C   0  0  1  0  0  0  0  0  0  0  0  0
   19.8396   72.1024    3.9039 H   0  0  0  0  0  0  0  0  0  0  0  0
   21.4609   71.5519    4.7113 H   0  0  0  0  0  0  0  0  0  0  0  0
   19.1349   73.0375    0.7358 H   0  0  0  0  0  0  0  0  0  0  0  0
   24.9130   70.4688    3.6018 O   0  0  0  0  0  0  0  0  0  0  0  0
   24.2167   70.0254    2.4517 C   0  0  0  0  0  0  0  0  0  0  0  0
   25.5228   69.7742    3.8976 H   0  0  0  0  0  0  0  0  0  0  0  0
 25 28  1  0
 25 24  1  0
 25 26  1  1
 25 27  2  0
  1  4  1  0
  1 24  1  0
  1  2  1  6
  1  3  2  0
  6 11  1  0
  6 12  1  0
 29 36  1  0
 29 37  1  0
  9  7  1  6
  7 13  1  0
 10  8  1  1
  8 14  1  0
 37 28  1  1
  4  5  1  0
 33 30  1  1
 30 38  1  0
 34 31  1  1
 31 39  1  0
 35 32  1  6
 32 40  1  0
 41 42  1  0
 41 43  1  0
 15 19  2  0
 16 22  2  0
 12 17  1  6
 17 19  1  0
 17 20  1  0
 18 19  1  0
 18 22  1  0
 18 23  1  0
  9 10  1  0
  9 11  1  0
 10 12  1  0
 11  5  1  6
 33 34  1  0
 33 35  1  0
 34 36  1  0
 35 37  1  0
 36 42  1  1
 20 21  2  0
 21 22  1  0
M  CHG  2   2  -1  26  -1
M  END
>  <COMPND>  (122) 
    8629 

>  <AUTHOR>  (122) 
    GENERATED BY OPEN BABEL 3.1.1

>  <MASTER>  (122) 
        0    0    0    0    0    0    0    0   58    0   58    0

>  <minimizedAffinity>  (122) 
-7.54050

>  <CNNscore>  (122) 
0.8448029160

>  <CNNaffinity>  (122) 
4.6537199020

>  <CNN_VS>  (122) 
3.9314761162

>  <CNNaffinity_variance>  (122) 
0.0416205451

$$$$
123
     RDKit          3D

 43 45  0  0  0  0  0  0  0  0999 V2000
   22.0908   71.6220   -1.5636 P   0  0  2  0  0  0  0  0  0  0  0  0
   23.0134   72.9225   -1.8371 O   0  0  0  0  0  0  0  0  0  0  0  0
   22.8456   70.3429   -1.3503 O   0  0  0  0  0  0  0  0  0  0  0  0
   21.0434   71.6225   -2.7969 O   0  0  0  0  0  0  0  0  0  0  0  0
   20.1481   70.5316   -2.9239 C   0  0  0  0  0  0  0  0  0  0  0  0
   18.4598   71.7328   -4.1408 O   0  0  0  0  0  0  0  0  0  0  0  0
   16.4884   70.5201   -2.2346 O   0  0  0  0  0  0  0  0  0  0  0  0
   16.2068   68.9599   -4.4534 O   0  0  0  0  0  0  0  0  0  0  0  0
   17.6743   69.9525   -2.7883 C   0  0  1  0  0  0  0  0  0  0  0  0
   17.4542   69.5891   -4.2420 C   0  0  2  0  0  0  0  0  0  0  0  0
   18.7192   71.0565   -2.8911 C   0  0  1  0  0  0  0  0  0  0  0  0
   17.5485   70.9439   -4.9231 C   0  0  2  0  0  0  0  0  0  0  0  0
   15.8064   69.8337   -2.1589 H   0  0  0  0  0  0  0  0  0  0  0  0
   16.1963   68.1022   -4.0006 H   0  0  0  0  0  0  0  0  0  0  0  0
   15.9770   70.2518   -7.1657 O   0  0  0  0  0  0  0  0  0  0  0  0
   19.5739   70.6067  -10.0254 O   0  0  0  0  0  0  0  0  0  0  0  0
   18.0485   70.8483   -6.2656 N   0  0  0  0  0  0  0  0  0  0  0  0
   17.7692   70.4293   -8.5878 N   0  0  0  0  0  0  0  0  0  0  0  0
   17.1761   70.4923   -7.3204 C   0  0  0  0  0  0  0  0  0  0  0  0
   19.3900   71.1065   -6.5255 C   0  0  0  0  0  0  0  0  0  0  0  0
   19.9403   71.0408   -7.7396 C   0  0  0  0  0  0  0  0  0  0  0  0
   19.0976   70.6757   -8.8966 C   0  0  0  0  0  0  0  0  0  0  0  0
   17.1808   70.1828   -9.3380 H   0  0  0  0  0  0  0  0  0  0  0  0
   21.1776   72.0811   -0.3112 O   0  0  0  0  0  0  0  0  0  0  0  0
   20.5248   71.2271    0.8960 P   0  0  2  0  0  0  0  0  0  0  0  0
   20.5879   69.7052    0.3504 O   0  0  0  0  0  0  0  0  0  0  0  0
   19.1530   71.6833    1.3009 O   0  0  0  0  0  0  0  0  0  0  0  0
   21.6238   71.2827    2.0767 O   0  0  0  0  0  0  0  0  0  0  0  0
   23.3831   72.8299    2.4341 O   0  0  0  0  0  0  0  0  0  0  0  0
   25.2415   69.3958    3.7772 O   0  0  0  0  0  0  0  0  0  0  0  0
   24.4061   71.3886    5.6691 O   0  0  0  0  0  0  0  0  0  0  0  0
   23.4995   69.2861    1.4679 O   0  0  0  0  0  0  0  0  0  0  0  0
   24.1405   70.2835    3.5645 C   0  0  1  0  0  0  0  0  0  0  0  0
   24.4516   71.6091    4.2621 C   0  0  1  0  0  0  0  0  0  0  0  0
   23.9539   70.4966    2.0635 C   0  0  2  0  0  0  0  0  0  0  0  0
   23.4466   72.6965    3.8589 C   0  0  1  0  0  0  0  0  0  0  0  0
   22.9715   71.6324    1.7721 C   0  0  1  0  0  0  0  0  0  0  0  0
   25.3650   69.2559    4.7284 H   0  0  0  0  0  0  0  0  0  0  0  0
   25.0450   70.6995    5.9104 H   0  0  0  0  0  0  0  0  0  0  0  0
   24.1301   68.5751    1.6594 H   0  0  0  0  0  0  0  0  0  0  0  0
   25.1090   73.9643    5.0155 O   0  0  0  0  0  0  0  0  0  0  0  0
   23.8293   74.0649    4.4184 C   0  0  0  0  0  0  0  0  0  0  0  0
   25.3659   74.8280    5.3758 H   0  0  0  0  0  0  0  0  0  0  0  0
 25 28  1  0
 25 24  1  0
 25 26  1  6
 25 27  2  0
  1  4  1  0
  1 24  1  0
  1  2  1  6
  1  3  2  0
  6 11  1  0
  6 12  1  0
 29 36  1  0
 29 37  1  0
  9  7  1  6
  7 13  1  0
 10  8  1  1
  8 14  1  0
 37 28  1  1
  4  5  1  0
 33 30  1  6
 30 38  1  0
 34 31  1  1
 31 39  1  0
 35 32  1  1
 32 40  1  0
 41 42  1  0
 41 43  1  0
 15 19  2  0
 16 22  2  0
 12 17  1  6
 17 19  1  0
 17 20  1  0
 18 19  1  0
 18 22  1  0
 18 23  1  0
  9 10  1  0
  9 11  1  0
 10 12  1  0
 11  5  1  6
 33 34  1  0
 33 35  1  0
 34 36  1  0
 35 37  1  0
 36 42  1  1
 20 21  2  0
 21 22  1  0
M  CHG  2   2  -1  26  -1
M  END
>  <COMPND>  (123) 
    8629 

>  <AUTHOR>  (123) 
    GENERATED BY OPEN BABEL 3.1.1

>  <MASTER>  (123) 
        0    0    0    0    0    0    0    0   58    0   58    0

>  <minimizedAffinity>  (123) 
-8.19772

>  <CNNscore>  (123) 
0.8041134477

>  <CNNaffinity>  (123) 
4.7802019119

>  <CNN_VS>  (123) 
3.8438246250

>  <CNNaffinity_variance>  (123) 
0.0805912837

$$$$
124
     RDKit          3D

 43 45  0  0  0  0  0  0  0  0999 V2000
   22.5242   71.5386   -2.1385 P   0  0  2  0  0  0  0  0  0  0  0  0
   23.0346   72.7205   -1.1586 O   0  0  0  0  0  0  0  0  0  0  0  0
   23.2036   71.4860   -3.4753 O   0  0  0  0  0  0  0  0  0  0  0  0
   20.9179   71.7298   -2.1737 O   0  0  0  0  0  0  0  0  0  0  0  0
   20.1361   70.7586   -2.8471 C   0  0  0  0  0  0  0  0  0  0  0  0
   18.3700   71.8236   -4.0802 O   0  0  0  0  0  0  0  0  0  0  0  0
   16.4869   70.5242   -2.1421 O   0  0  0  0  0  0  0  0  0  0  0  0
   16.3003   68.9051   -4.3285 O   0  0  0  0  0  0  0  0  0  0  0  0
   17.7054   70.0235   -2.6896 C   0  0  1  0  0  0  0  0  0  0  0  0
   17.5050   69.6178   -4.1348 C   0  0  2  0  0  0  0  0  0  0  0  0
   18.6764   71.1906   -2.8185 C   0  0  1  0  0  0  0  0  0  0  0  0
   17.5094   70.9619   -4.8429 C   0  0  2  0  0  0  0  0  0  0  0  0
   15.8510   69.7968   -2.0500 H   0  0  0  0  0  0  0  0  0  0  0  0
   16.3467   68.0577   -3.8588 H   0  0  0  0  0  0  0  0  0  0  0  0
   15.9682   70.1647   -7.0716 O   0  0  0  0  0  0  0  0  0  0  0  0
   19.5378   70.6526   -9.9458 O   0  0  0  0  0  0  0  0  0  0  0  0
   18.0105   70.8721   -6.1854 N   0  0  0  0  0  0  0  0  0  0  0  0
   17.7468   70.4085   -8.5010 N   0  0  0  0  0  0  0  0  0  0  0  0
   17.1540   70.4603   -7.2329 C   0  0  0  0  0  0  0  0  0  0  0  0
   19.3376   71.1908   -6.4525 C   0  0  0  0  0  0  0  0  0  0  0  0
   19.8878   71.1350   -7.6671 C   0  0  0  0  0  0  0  0  0  0  0  0
   19.0611   70.7141   -8.8167 C   0  0  0  0  0  0  0  0  0  0  0  0
   17.1693   70.1239   -9.2461 H   0  0  0  0  0  0  0  0  0  0  0  0
   22.7124   70.2111   -1.2355 O   0  0  0  0  0  0  0  0  0  0  0  0
   22.1418   69.8339    0.2291 P   0  0  2  0  0  0  0  0  0  0  0  0
   22.9856   68.5119    0.6267 O   0  0  0  0  0  0  0  0  0  0  0  0
   20.6520   69.6568    0.2822 O   0  0  0  0  0  0  0  0  0  0  0  0
   22.7131   70.9895    1.2002 O   0  0  0  0  0  0  0  0  0  0  0  0
   22.6388   71.4247    3.5286 O   0  0  0  0  0  0  0  0  0  0  0  0
   21.7667   75.2079    2.1221 O   0  0  0  0  0  0  0  0  0  0  0  0
   24.3402   74.6859    3.2853 O   0  0  0  0  0  0  0  0  0  0  0  0
   20.6853   72.8830    0.7785 O   0  0  0  0  0  0  0  0  0  0  0  0
   22.4020   73.9266    2.1072 C   0  0  1  0  0  0  0  0  0  0  0  0
   23.2363   73.7901    3.3824 C   0  0  1  0  0  0  0  0  0  0  0  0
   21.3309   72.8391    2.0465 C   0  0  2  0  0  0  0  0  0  0  0  0
   23.7318   72.3497    3.5687 C   0  0  1  0  0  0  0  0  0  0  0  0
   21.9221   71.4498    2.2927 C   0  0  1  0  0  0  0  0  0  0  0  0
   22.4413   75.9029    2.1601 H   0  0  0  0  0  0  0  0  0  0  0  0
   24.0136   75.5918    3.1674 H   0  0  0  0  0  0  0  0  0  0  0  0
   20.3151   73.7674    0.6348 H   0  0  0  0  0  0  0  0  0  0  0  0
   23.9568   73.1381    5.8130 O   0  0  0  0  0  0  0  0  0  0  0  0
   24.4319   72.1550    4.9118 C   0  0  0  0  0  0  0  0  0  0  0  0
   24.3935   73.0262    6.6723 H   0  0  0  0  0  0  0  0  0  0  0  0
 25 28  1  0
 25 24  1  0
 25 26  1  1
 25 27  2  0
  1  4  1  0
  1 24  1  0
  1  2  1  1
  1  3  2  0
  6 11  1  0
  6 12  1  0
 29 36  1  0
 29 37  1  0
  9  7  1  6
  7 13  1  0
 10  8  1  1
  8 14  1  0
 37 28  1  6
  4  5  1  0
 33 30  1  1
 30 38  1  0
 34 31  1  6
 31 39  1  0
 35 32  1  6
 32 40  1  0
 41 42  1  0
 41 43  1  0
 15 19  2  0
 16 22  2  0
 12 17  1  6
 17 19  1  0
 17 20  1  0
 18 19  1  0
 18 22  1  0
 18 23  1  0
  9 10  1  0
  9 11  1  0
 10 12  1  0
 11  5  1  6
 33 34  1  0
 33 35  1  0
 34 36  1  0
 35 37  1  0
 36 42  1  1
 20 21  2  0
 21 22  1  0
M  CHG  2   2  -1  26  -1
M  END
>  <COMPND>  (124) 
    8629 

>  <AUTHOR>  (124) 
    GENERATED BY OPEN BABEL 3.1.1

>  <MASTER>  (124) 
        0    0    0    0    0    0    0    0   58    0   58    0

>  <minimizedAffinity>  (124) 
-8.10674

>  <CNNscore>  (124) 
0.7677814364

>  <CNNaffinity>  (124) 
4.7542605400

>  <CNN_VS>  (124) 
3.6502330303

>  <CNNaffinity_variance>  (124) 
0.0660317391

$$$$
125
     RDKit          3D

 43 45  0  0  0  0  0  0  0  0999 V2000
   22.5147   71.1999   -1.8032 P   0  0  2  0  0  0  0  0  0  0  0  0
   23.3610   72.5074   -2.2409 O   0  0  0  0  0  0  0  0  0  0  0  0
   22.9902   69.9080   -2.4002 O   0  0  0  0  0  0  0  0  0  0  0  0
   20.9818   71.6023   -2.1290 O   0  0  0  0  0  0  0  0  0  0  0  0
   20.1703   70.6693   -2.8209 C   0  0  0  0  0  0  0  0  0  0  0  0
   18.4266   71.7960   -4.0310 O   0  0  0  0  0  0  0  0  0  0  0  0
   16.5209   70.5322   -2.0914 O   0  0  0  0  0  0  0  0  0  0  0  0
   16.2728   68.9401   -4.2914 O   0  0  0  0  0  0  0  0  0  0  0  0
   17.7208   70.0023   -2.6525 C   0  0  1  0  0  0  0  0  0  0  0  0
   17.4987   69.6164   -4.1000 C   0  0  2  0  0  0  0  0  0  0  0  0
   18.7237   71.1424   -2.7776 C   0  0  1  0  0  0  0  0  0  0  0  0
   17.5364   70.9666   -4.7954 C   0  0  2  0  0  0  0  0  0  0  0  0
   15.8652   69.8223   -2.0015 H   0  0  0  0  0  0  0  0  0  0  0  0
   16.2983   68.0873   -3.8301 H   0  0  0  0  0  0  0  0  0  0  0  0
   15.9631   70.2117   -7.0164 O   0  0  0  0  0  0  0  0  0  0  0  0
   19.5187   70.6498   -9.9159 O   0  0  0  0  0  0  0  0  0  0  0  0
   18.0253   70.8754   -6.1423 N   0  0  0  0  0  0  0  0  0  0  0  0
   17.7347   70.4306   -8.4584 N   0  0  0  0  0  0  0  0  0  0  0  0
   17.1530   70.4860   -7.1854 C   0  0  0  0  0  0  0  0  0  0  0  0
   19.3559   71.1708   -6.4180 C   0  0  0  0  0  0  0  0  0  0  0  0
   19.8955   71.1120   -7.6373 C   0  0  0  0  0  0  0  0  0  0  0  0
   19.0521   70.7135   -8.7827 C   0  0  0  0  0  0  0  0  0  0  0  0
   17.1462   70.1613   -9.2006 H   0  0  0  0  0  0  0  0  0  0  0  0
   22.5695   71.2552   -0.1886 O   0  0  0  0  0  0  0  0  0  0  0  0
   22.0056   70.2319    0.9284 P   0  0  2  0  0  0  0  0  0  0  0  0
   23.2442   69.2174    1.1613 O   0  0  0  0  0  0  0  0  0  0  0  0
   20.7168   69.5597    0.5525 O   0  0  0  0  0  0  0  0  0  0  0  0
   21.9338   71.1054    2.2837 O   0  0  0  0  0  0  0  0  0  0  0  0
   22.6166   73.3172    1.7754 O   0  0  0  0  0  0  0  0  0  0  0  0
   22.1591   73.6907    5.8622 O   0  0  0  0  0  0  0  0  0  0  0  0
   20.2453   74.9126    4.1037 O   0  0  0  0  0  0  0  0  0  0  0  0
   23.2651   71.2580    4.7494 O   0  0  0  0  0  0  0  0  0  0  0  0
   21.8494   73.1970    4.5562 C   0  0  1  0  0  0  0  0  0  0  0  0
   21.4955   74.3888    3.6644 C   0  0  1  0  0  0  0  0  0  0  0  0
   23.0634   72.4532    4.0028 C   0  0  2  0  0  0  0  0  0  0  0  0
   21.4118   73.9719    2.1899 C   0  0  1  0  0  0  0  0  0  0  0  0
   22.8981   72.1287    2.5170 C   0  0  1  0  0  0  0  0  0  0  0  0
   21.3922   74.1637    6.2195 H   0  0  0  0  0  0  0  0  0  0  0  0
   20.3116   75.1716    5.0362 H   0  0  0  0  0  0  0  0  0  0  0  0
   23.3687   71.4769    5.6881 H   0  0  0  0  0  0  0  0  0  0  0  0
   21.2981   76.3539    2.0417 O   0  0  0  0  0  0  0  0  0  0  0  0
   21.2159   75.1722    1.2663 C   0  0  0  0  0  0  0  0  0  0  0  0
   21.1755   77.1261    1.4669 H   0  0  0  0  0  0  0  0  0  0  0  0
 25 28  1  0
 25 24  1  0
 25 26  1  1
 25 27  2  0
  1  4  1  0
  1 24  1  0
  1  2  1  6
  1  3  2  0
  6 11  1  0
  6 12  1  0
 29 36  1  0
 29 37  1  0
  9  7  1  6
  7 13  1  0
 10  8  1  1
  8 14  1  0
 37 28  1  1
  4  5  1  0
 33 30  1  1
 30 38  1  0
 34 31  1  1
 31 39  1  0
 35 32  1  1
 32 40  1  0
 41 42  1  0
 41 43  1  0
 15 19  2  0
 16 22  2  0
 12 17  1  6
 17 19  1  0
 17 20  1  0
 18 19  1  0
 18 22  1  0
 18 23  1  0
  9 10  1  0
  9 11  1  0
 10 12  1  0
 11  5  1  6
 33 34  1  0
 33 35  1  0
 34 36  1  0
 35 37  1  0
 36 42  1  6
 20 21  2  0
 21 22  1  0
M  CHG  2   2  -1  26  -1
M  END
>  <COMPND>  (125) 
    8629 

>  <AUTHOR>  (125) 
    GENERATED BY OPEN BABEL 3.1.1

>  <MASTER>  (125) 
        0    0    0    0    0    0    0    0   58    0   58    0

>  <minimizedAffinity>  (125) 
-7.62624

>  <CNNscore>  (125) 
0.7622367144

>  <CNNaffinity>  (125) 
4.7551465034

>  <CNN_VS>  (125) 
3.6245472431

>  <CNNaffinity_variance>  (125) 
0.1099776030

$$$$
126
     RDKit          3D

 43 45  0  0  0  0  0  0  0  0999 V2000
   22.6180   72.4944   -2.8436 P   0  0  2  0  0  0  0  0  0  0  0  0
   22.9542   73.9858   -3.3729 O   0  0  0  0  0  0  0  0  0  0  0  0
   23.4259   71.4000   -3.4769 O   0  0  0  0  0  0  0  0  0  0  0  0
   21.0138   72.3734   -3.0161 O   0  0  0  0  0  0  0  0  0  0  0  0
   20.4056   71.1095   -2.8150 C   0  0  0  0  0  0  0  0  0  0  0  0
   18.4158   71.8487   -3.9411 O   0  0  0  0  0  0  0  0  0  0  0  0
   16.8952   70.2942   -1.8767 O   0  0  0  0  0  0  0  0  0  0  0  0
   16.8428   68.6269   -4.0340 O   0  0  0  0  0  0  0  0  0  0  0  0
   18.1433   69.9897   -2.4969 C   0  0  1  0  0  0  0  0  0  0  0  0
   17.9236   69.5305   -3.9232 C   0  0  2  0  0  0  0  0  0  0  0  0
   18.8993   71.2973   -2.6967 C   0  0  1  0  0  0  0  0  0  0  0  0
   17.6632   70.8441   -4.6406 C   0  0  2  0  0  0  0  0  0  0  0  0
   16.3945   69.4743   -1.7385 H   0  0  0  0  0  0  0  0  0  0  0  0
   17.0568   67.8072   -3.5617 H   0  0  0  0  0  0  0  0  0  0  0  0
   16.0371   70.0188   -6.7976 O   0  0  0  0  0  0  0  0  0  0  0  0
   19.4012   70.7649   -9.8581 O   0  0  0  0  0  0  0  0  0  0  0  0
   18.0885   70.8131   -6.0116 N   0  0  0  0  0  0  0  0  0  0  0  0
   17.7134   70.3912   -8.3198 N   0  0  0  0  0  0  0  0  0  0  0  0
   17.1944   70.3811   -7.0188 C   0  0  0  0  0  0  0  0  0  0  0  0
   19.3792   71.2085   -6.3459 C   0  0  0  0  0  0  0  0  0  0  0  0
   19.8591   71.2111   -7.5912 C   0  0  0  0  0  0  0  0  0  0  0  0
   18.9893   70.7740   -8.7022 C   0  0  0  0  0  0  0  0  0  0  0  0
   17.1087   70.0938   -9.0379 H   0  0  0  0  0  0  0  0  0  0  0  0
   22.8024   72.6267   -1.2431 O   0  0  0  0  0  0  0  0  0  0  0  0
   22.2653   73.7396   -0.2011 P   0  0  2  0  0  0  0  0  0  0  0  0
   20.6608   73.6933   -0.4030 O   0  0  0  0  0  0  0  0  0  0  0  0
   22.8737   75.0997   -0.3856 O   0  0  0  0  0  0  0  0  0  0  0  0
   22.5119   73.0886    1.2551 O   0  0  0  0  0  0  0  0  0  0  0  0
   22.0109   70.8084    0.8468 O   0  0  0  0  0  0  0  0  0  0  0  0
   23.3642   70.5006    4.7359 O   0  0  0  0  0  0  0  0  0  0  0  0
   24.9967   69.5228    2.5849 O   0  0  0  0  0  0  0  0  0  0  0  0
   21.7608   72.7758    3.9408 O   0  0  0  0  0  0  0  0  0  0  0  0
   23.3285   71.0269    3.4066 C   0  0  1  0  0  0  0  0  0  0  0  0
   23.6278   69.8869    2.4312 C   0  0  1  0  0  0  0  0  0  0  0  0
   21.9437   71.6137    3.1391 C   0  0  2  0  0  0  0  0  0  0  0  0
   23.3465   70.3088    0.9827 C   0  0  1  0  0  0  0  0  0  0  0  0
   21.7504   71.9540    1.6603 C   0  0  1  0  0  0  0  0  0  0  0  0
   24.2410   70.1269    4.9123 H   0  0  0  0  0  0  0  0  0  0  0  0
   25.1612   69.2589    3.5039 H   0  0  0  0  0  0  0  0  0  0  0  0
   21.8855   72.5471    4.8746 H   0  0  0  0  0  0  0  0  0  0  0  0
   22.8204   69.4758   -1.1940 O   0  0  0  0  0  0  0  0  0  0  0  0
   23.4870   69.1407    0.0092 C   0  0  0  0  0  0  0  0  0  0  0  0
   22.9017   68.7416   -1.8233 H   0  0  0  0  0  0  0  0  0  0  0  0
 25 28  1  0
 25 24  1  0
 25 26  1  6
 25 27  2  0
  1  4  1  0
  1 24  1  0
  1  2  1  6
  1  3  2  0
  6 11  1  0
  6 12  1  0
 29 36  1  0
 29 37  1  0
  9  7  1  6
  7 13  1  0
 10  8  1  1
  8 14  1  0
 37 28  1  6
  4  5  1  0
 33 30  1  1
 30 38  1  0
 34 31  1  6
 31 39  1  0
 35 32  1  1
 32 40  1  0
 41 42  1  0
 41 43  1  0
 15 19  2  0
 16 22  2  0
 12 17  1  6
 17 19  1  0
 17 20  1  0
 18 19  1  0
 18 22  1  0
 18 23  1  0
  9 10  1  0
  9 11  1  0
 10 12  1  0
 11  5  1  6
 33 34  1  0
 33 35  1  0
 34 36  1  0
 35 37  1  0
 36 42  1  6
 20 21  2  0
 21 22  1  0
M  CHG  2   2  -1  26  -1
M  END
>  <COMPND>  (126) 
    8629 

>  <AUTHOR>  (126) 
    GENERATED BY OPEN BABEL 3.1.1

>  <MASTER>  (126) 
        0    0    0    0    0    0    0    0   58    0   58    0

>  <minimizedAffinity>  (126) 
-7.88989

>  <CNNscore>  (126) 
0.7445850968

>  <CNNaffinity>  (126) 
4.6356015205

>  <CNN_VS>  (126) 
3.4515998363

>  <CNNaffinity_variance>  (126) 
0.0656910092

$$$$
127
     RDKit          3D

 43 45  0  0  0  0  0  0  0  0999 V2000
   22.5765   71.4811   -3.2151 P   0  0  2  0  0  0  0  0  0  0  0  0
   22.4162   72.2284   -1.7892 O   0  0  0  0  0  0  0  0  0  0  0  0
   23.7735   71.8980   -4.0182 O   0  0  0  0  0  0  0  0  0  0  0  0
   21.1411   71.6964   -3.9301 O   0  0  0  0  0  0  0  0  0  0  0  0
   20.3789   72.8402   -3.5854 C   0  0  0  0  0  0  0  0  0  0  0  0
   18.2554   72.4370   -4.6350 O   0  0  0  0  0  0  0  0  0  0  0  0
   17.5347   70.9037   -2.1611 O   0  0  0  0  0  0  0  0  0  0  0  0
   18.1696   68.9227   -3.9243 O   0  0  0  0  0  0  0  0  0  0  0  0
   18.7922   71.0014   -2.8277 C   0  0  1  0  0  0  0  0  0  0  0  0
   18.7754   70.1865   -4.1042 C   0  0  2  0  0  0  0  0  0  0  0  0
   18.9324   72.4223   -3.3592 C   0  0  1  0  0  0  0  0  0  0  0  0
   17.9863   71.0851   -5.0412 C   0  0  2  0  0  0  0  0  0  0  0  0
   17.4226   70.0048   -1.8126 H   0  0  0  0  0  0  0  0  0  0  0  0
   18.7089   68.3884   -3.3207 H   0  0  0  0  0  0  0  0  0  0  0  0
   16.2148   70.4178   -7.1375 O   0  0  0  0  0  0  0  0  0  0  0  0
   19.5985   70.4912  -10.2658 O   0  0  0  0  0  0  0  0  0  0  0  0
   18.3773   70.9238   -6.4132 N   0  0  0  0  0  0  0  0  0  0  0  0
   17.9011   70.4550   -8.6935 N   0  0  0  0  0  0  0  0  0  0  0  0
   17.4099   70.5869   -7.3884 C   0  0  0  0  0  0  0  0  0  0  0  0
   19.7071   71.0998   -6.7800 C   0  0  0  0  0  0  0  0  0  0  0  0
   20.1596   70.9692   -8.0288 C   0  0  0  0  0  0  0  0  0  0  0  0
   19.2135   70.6186   -9.1077 C   0  0  0  0  0  0  0  0  0  0  0  0
   17.2452   70.2203   -9.3896 H   0  0  0  0  0  0  0  0  0  0  0  0
   22.5497   69.9163   -2.8105 O   0  0  0  0  0  0  0  0  0  0  0  0
   23.5460   69.0419   -1.8854 P   0  0  2  0  0  0  0  0  0  0  0  0
   25.0127   69.4406   -2.4398 O   0  0  0  0  0  0  0  0  0  0  0  0
   23.2599   67.5682   -1.8950 O   0  0  0  0  0  0  0  0  0  0  0  0
   23.4600   69.7305   -0.4282 O   0  0  0  0  0  0  0  0  0  0  0  0
   23.3804   69.0229    1.8323 O   0  0  0  0  0  0  0  0  0  0  0  0
   20.2299   71.6919    1.8651 O   0  0  0  0  0  0  0  0  0  0  0  0
   22.6874   72.3829    3.1809 O   0  0  0  0  0  0  0  0  0  0  0  0
   20.6670   70.0024   -0.4445 O   0  0  0  0  0  0  0  0  0  0  0  0
   21.5112   71.1935    1.4713 C   0  0  1  0  0  0  0  0  0  0  0  0
   22.3825   71.0686    2.7227 C   0  0  1  0  0  0  0  0  0  0  0  0
   21.3330   69.8320    0.8021 C   0  0  2  0  0  0  0  0  0  0  0  0
   23.6732   70.2940    2.4240 C   0  0  1  0  0  0  0  0  0  0  0  0
   22.6736   69.1248    0.5946 C   0  0  1  0  0  0  0  0  0  0  0  0
   20.3359   72.5565    2.2903 H   0  0  0  0  0  0  0  0  0  0  0  0
   21.8638   72.8614    3.3655 H   0  0  0  0  0  0  0  0  0  0  0  0
   19.8198   70.4508   -0.2996 H   0  0  0  0  0  0  0  0  0  0  0  0
   23.5941   69.9843    4.7918 O   0  0  0  0  0  0  0  0  0  0  0  0
   24.4824   70.0210    3.6900 C   0  0  0  0  0  0  0  0  0  0  0  0
   24.0952   69.8110    5.6046 H   0  0  0  0  0  0  0  0  0  0  0  0
 25 28  1  0
 25 24  1  0
 25 26  1  6
 25 27  2  0
  1  4  1  0
  1 24  1  0
  1  2  1  1
  1  3  2  0
  6 11  1  0
  6 12  1  0
 29 36  1  0
 29 37  1  0
  9  7  1  6
  7 13  1  0
 10  8  1  1
  8 14  1  0
 37 28  1  6
  4  5  1  0
 33 30  1  1
 30 38  1  0
 34 31  1  6
 31 39  1  0
 35 32  1  6
 32 40  1  0
 41 42  1  0
 41 43  1  0
 15 19  2  0
 16 22  2  0
 12 17  1  6
 17 19  1  0
 17 20  1  0
 18 19  1  0
 18 22  1  0
 18 23  1  0
  9 10  1  0
  9 11  1  0
 10 12  1  0
 11  5  1  6
 33 34  1  0
 33 35  1  0
 34 36  1  0
 35 37  1  0
 36 42  1  1
 20 21  2  0
 21 22  1  0
M  CHG  2   2  -1  26  -1
M  END
>  <COMPND>  (127) 
    8629 

>  <AUTHOR>  (127) 
    GENERATED BY OPEN BABEL 3.1.1

>  <MASTER>  (127) 
        0    0    0    0    0    0    0    0   58    0   58    0

>  <minimizedAffinity>  (127) 
-9.08008

>  <CNNscore>  (127) 
0.6093449593

>  <CNNaffinity>  (127) 
4.4542341232

>  <CNN_VS>  (127) 
2.7141652107

>  <CNNaffinity_variance>  (127) 
0.0558312349

$$$$
128
     RDKit          3D

 43 45  0  0  0  0  0  0  0  0999 V2000
   22.3364   71.8001   -3.2176 P   0  0  2  0  0  0  0  0  0  0  0  0
   23.6075   70.8090   -3.3566 O   0  0  0  0  0  0  0  0  0  0  0  0
   22.3545   72.9866   -4.1358 O   0  0  0  0  0  0  0  0  0  0  0  0
   22.2772   72.1363   -1.6360 O   0  0  0  0  0  0  0  0  0  0  0  0
   23.2481   71.5537   -0.7841 C   0  0  0  0  0  0  0  0  0  0  0  0
   23.2635   70.3753    1.3099 O   0  0  0  0  0  0  0  0  0  0  0  0
   20.4922   69.4712    0.6075 O   0  0  0  0  0  0  0  0  0  0  0  0
   20.0270   71.4973    2.3725 O   0  0  0  0  0  0  0  0  0  0  0  0
   21.1262   70.7224    0.3470 C   0  0  1  0  0  0  0  0  0  0  0  0
   21.2219   71.5384    1.6192 C   0  0  2  0  0  0  0  0  0  0  0  0
   22.5919   70.4494    0.0332 C   0  0  1  0  0  0  0  0  0  0  0  0
   22.3863   70.8733    2.3333 C   0  0  2  0  0  0  0  0  0  0  0  0
   19.5548   69.6199    0.8102 H   0  0  0  0  0  0  0  0  0  0  0  0
   19.3165   71.9326    1.8761 H   0  0  0  0  0  0  0  0  0  0  0  0
   23.7485   70.1441    4.6978 O   0  0  0  0  0  0  0  0  0  0  0  0
   25.1421   74.4727    5.4476 O   0  0  0  0  0  0  0  0  0  0  0  0
   23.1137   71.7894    3.1657 N   0  0  0  0  0  0  0  0  0  0  0  0
   24.4415   72.3000    5.0691 N   0  0  0  0  0  0  0  0  0  0  0  0
   23.7618   71.3214    4.3325 C   0  0  0  0  0  0  0  0  0  0  0  0
   23.1794   73.1354    2.8222 C   0  0  0  0  0  0  0  0  0  0  0  0
   23.8306   74.0561    3.5361 C   0  0  0  0  0  0  0  0  0  0  0  0
   24.5346   73.6499    4.7695 C   0  0  0  0  0  0  0  0  0  0  0  0
   24.9002   71.9972    5.8862 H   0  0  0  0  0  0  0  0  0  0  0  0
   21.0774   70.8077   -3.4254 O   0  0  0  0  0  0  0  0  0  0  0  0
   19.5036   71.0108   -3.1174 P   0  0  2  0  0  0  0  0  0  0  0  0
   19.4199   72.5442   -2.6083 O   0  0  0  0  0  0  0  0  0  0  0  0
   18.9297   70.0079   -2.1589 O   0  0  0  0  0  0  0  0  0  0  0  0
   18.8014   71.0249   -4.5706 O   0  0  0  0  0  0  0  0  0  0  0  0
   19.9017   72.0614   -6.3958 O   0  0  0  0  0  0  0  0  0  0  0  0
   16.0315   72.1292   -7.8337 O   0  0  0  0  0  0  0  0  0  0  0  0
   17.9362   70.3076   -8.9746 O   0  0  0  0  0  0  0  0  0  0  0  0
   16.5375   72.6193   -5.0260 O   0  0  0  0  0  0  0  0  0  0  0  0
   17.1460   71.5908   -7.1172 C   0  0  1  0  0  0  0  0  0  0  0  0
   18.2943   71.3787   -8.1057 C   0  0  1  0  0  0  0  0  0  0  0  0
   17.5552   72.5719   -6.0202 C   0  0  2  0  0  0  0  0  0  0  0  0
   19.6038   71.0573   -7.3729 C   0  0  1  0  0  0  0  0  0  0  0  0
   18.8949   72.1875   -5.3897 C   0  0  1  0  0  0  0  0  0  0  0  0
   15.7663   71.5109   -8.5315 H   0  0  0  0  0  0  0  0  0  0  0  0
   17.1076   70.5230   -9.4308 H   0  0  0  0  0  0  0  0  0  0  0  0
   15.6946   72.8641   -5.4377 H   0  0  0  0  0  0  0  0  0  0  0  0
   21.6984   72.0307   -7.9844 O   0  0  0  0  0  0  0  0  0  0  0  0
   20.7939   70.9973   -8.3280 C   0  0  0  0  0  0  0  0  0  0  0  0
   22.4611   72.0046   -8.5838 H   0  0  0  0  0  0  0  0  0  0  0  0
 25 28  1  0
 25 24  1  0
 25 26  1  1
 25 27  2  0
  1  4  1  0
  1 24  1  0
  1  2  1  1
  1  3  2  0
  6 11  1  0
  6 12  1  0
 29 36  1  0
 29 37  1  0
  9  7  1  1
  7 13  1  0
 10  8  1  1
  8 14  1  0
 37 28  1  6
  4  5  1  0
 33 30  1  6
 30 38  1  0
 34 31  1  6
 31 39  1  0
 35 32  1  1
 32 40  1  0
 41 42  1  0
 41 43  1  0
 15 19  2  0
 16 22  2  0
 12 17  1  1
 17 19  1  0
 17 20  1  0
 18 19  1  0
 18 22  1  0
 18 23  1  0
  9 10  1  0
  9 11  1  0
 10 12  1  0
 11  5  1  6
 33 34  1  0
 33 35  1  0
 34 36  1  0
 35 37  1  0
 36 42  1  6
 20 21  2  0
 21 22  1  0
M  CHG  2   2  -1  26  -1
M  END
>  <COMPND>  (128) 
    8629 

>  <AUTHOR>  (128) 
    GENERATED BY OPEN BABEL 3.1.1

>  <MASTER>  (128) 
        0    0    0    0    0    0    0    0   58    0   58    0

>  <minimizedAffinity>  (128) 
-7.96704

>  <CNNscore>  (128) 
0.5139826536

>  <CNNaffinity>  (128) 
4.0814256668

>  <CNN_VS>  (128) 
2.0977818966

>  <CNNaffinity_variance>  (128) 
0.0680553094

$$$$
129
     RDKit          3D

 43 45  0  0  0  0  0  0  0  0999 V2000
   20.3896   74.6830   -3.4779 P   0  0  2  0  0  0  0  0  0  0  0  0
   20.4933   74.8030   -1.8678 O   0  0  0  0  0  0  0  0  0  0  0  0
   20.7884   75.9171   -4.2324 O   0  0  0  0  0  0  0  0  0  0  0  0
   18.8792   74.1615   -3.7320 O   0  0  0  0  0  0  0  0  0  0  0  0
   18.2750   73.3360   -2.7516 C   0  0  0  0  0  0  0  0  0  0  0  0
   16.8178   72.9793   -4.6286 O   0  0  0  0  0  0  0  0  0  0  0  0
   14.9540   71.6520   -2.6907 O   0  0  0  0  0  0  0  0  0  0  0  0
   16.1531   69.5287   -3.9115 O   0  0  0  0  0  0  0  0  0  0  0  0
   16.3802   71.6383   -2.7244 C   0  0  1  0  0  0  0  0  0  0  0  0
   16.8712   70.7438   -3.8435 C   0  0  2  0  0  0  0  0  0  0  0  0
   16.8518   73.0119   -3.1849 C   0  0  1  0  0  0  0  0  0  0  0  0
   16.6544   71.6202   -5.0654 C   0  0  2  0  0  0  0  0  0  0  0  0
   14.6293   70.7851   -2.3990 H   0  0  0  0  0  0  0  0  0  0  0  0
   16.3238   69.0069   -3.1119 H   0  0  0  0  0  0  0  0  0  0  0  0
   15.9672   70.6940   -7.6438 O   0  0  0  0  0  0  0  0  0  0  0  0
   20.3747   70.6116   -8.9887 O   0  0  0  0  0  0  0  0  0  0  0  0
   17.6022   71.3487   -6.1092 N   0  0  0  0  0  0  0  0  0  0  0  0
   18.1623   70.6539   -8.3114 N   0  0  0  0  0  0  0  0  0  0  0  0
   17.1533   70.8859   -7.3680 C   0  0  0  0  0  0  0  0  0  0  0  0
   18.9601   71.5421   -5.8796 C   0  0  0  0  0  0  0  0  0  0  0  0
   19.9098   71.3150   -6.7894 C   0  0  0  0  0  0  0  0  0  0  0  0
   19.5250   70.8298   -8.1305 C   0  0  0  0  0  0  0  0  0  0  0  0
   17.8732   70.3306   -9.1955 H   0  0  0  0  0  0  0  0  0  0  0  0
   21.2845   73.3768   -3.8034 O   0  0  0  0  0  0  0  0  0  0  0  0
   22.8200   73.0248   -3.4409 P   0  0  2  0  0  0  0  0  0  0  0  0
   23.4133   74.4391   -2.9259 O   0  0  0  0  0  0  0  0  0  0  0  0
   23.5916   72.4034   -4.5688 O   0  0  0  0  0  0  0  0  0  0  0  0
   22.7273   72.1135   -2.1120 O   0  0  0  0  0  0  0  0  0  0  0  0
   22.3567   69.7797   -2.2920 O   0  0  0  0  0  0  0  0  0  0  0  0
   21.0655   70.3555    1.5877 O   0  0  0  0  0  0  0  0  0  0  0  0
   23.5598   69.0153    1.1076 O   0  0  0  0  0  0  0  0  0  0  0  0
   20.4880   72.3428   -0.4362 O   0  0  0  0  0  0  0  0  0  0  0  0
   21.8859   70.5878    0.4395 C   0  0  1  0  0  0  0  0  0  0  0  0
   22.6003   69.2812    0.0883 C   0  0  1  0  0  0  0  0  0  0  0  0
   21.0035   71.0466   -0.7199 C   0  0  2  0  0  0  0  0  0  0  0  0
   23.2874   69.3762   -1.2806 C   0  0  1  0  0  0  0  0  0  0  0  0
   21.7709   71.0590   -2.0431 C   0  0  1  0  0  0  0  0  0  0  0  0
   21.6198   70.0643    2.3277 H   0  0  0  0  0  0  0  0  0  0  0  0
   23.1131   68.9582    1.9669 H   0  0  0  0  0  0  0  0  0  0  0  0
   20.0042   72.3216    0.4036 H   0  0  0  0  0  0  0  0  0  0  0  0
   23.3243   67.0168   -0.9055 O   0  0  0  0  0  0  0  0  0  0  0  0
   23.8719   68.0360   -1.7214 C   0  0  0  0  0  0  0  0  0  0  0  0
   23.6871   66.1580   -1.1748 H   0  0  0  0  0  0  0  0  0  0  0  0
 25 28  1  0
 25 24  1  0
 25 26  1  1
 25 27  2  0
  1  4  1  0
  1 24  1  0
  1  2  1  1
  1  3  2  0
  6 11  1  0
  6 12  1  0
 29 36  1  0
 29 37  1  0
  9  7  1  6
  7 13  1  0
 10  8  1  6
  8 14  1  0
 37 28  1  1
  4  5  1  0
 33 30  1  1
 30 38  1  0
 34 31  1  1
 31 39  1  0
 35 32  1  1
 32 40  1  0
 41 42  1  0
 41 43  1  0
 15 19  2  0
 16 22  2  0
 12 17  1  6
 17 19  1  0
 17 20  1  0
 18 19  1  0
 18 22  1  0
 18 23  1  0
  9 10  1  0
  9 11  1  0
 10 12  1  0
 11  5  1  6
 33 34  1  0
 33 35  1  0
 34 36  1  0
 35 37  1  0
 36 42  1  6
 20 21  2  0
 21 22  1  0
M  CHG  2   2  -1  26  -1
M  END
>  <COMPND>  (129) 
    8629 

>  <AUTHOR>  (129) 
    GENERATED BY OPEN BABEL 3.1.1

>  <MASTER>  (129) 
        0    0    0    0    0    0    0    0   58    0   58    0

>  <minimizedAffinity>  (129) 
-7.60292

>  <CNNscore>  (129) 
0.3594722152

>  <CNNaffinity>  (129) 
4.2057423592

>  <CNN_VS>  (129) 
1.5118474960

>  <CNNaffinity_variance>  (129) 
0.3398577869

$$$$
130
     RDKit          3D

 43 45  0  0  0  0  0  0  0  0999 V2000
   22.7498   72.8242   -3.2466 P   0  0  2  0  0  0  0  0  0  0  0  0
   23.5790   71.5438   -3.7855 O   0  0  0  0  0  0  0  0  0  0  0  0
   23.5404   74.0958   -3.1485 O   0  0  0  0  0  0  0  0  0  0  0  0
   22.0834   72.3030   -1.8674 O   0  0  0  0  0  0  0  0  0  0  0  0
   22.9351   72.0088   -0.7739 C   0  0  0  0  0  0  0  0  0  0  0  0
   23.1188   70.6740    1.2157 O   0  0  0  0  0  0  0  0  0  0  0  0
   20.3426   69.7190    0.6061 O   0  0  0  0  0  0  0  0  0  0  0  0
   19.9164   71.5832    2.5502 O   0  0  0  0  0  0  0  0  0  0  0  0
   20.9160   71.0104    0.4092 C   0  0  1  0  0  0  0  0  0  0  0  0
   21.0610   71.7290    1.7344 C   0  0  2  0  0  0  0  0  0  0  0  0
   22.3684   70.8200   -0.0099 C   0  0  1  0  0  0  0  0  0  0  0  0
   22.2890   71.0569    2.3246 C   0  0  2  0  0  0  0  0  0  0  0  0
   19.4147   69.8149    0.8741 H   0  0  0  0  0  0  0  0  0  0  0  0
   19.1624   72.0275    2.1320 H   0  0  0  0  0  0  0  0  0  0  0  0
   23.6734   70.2247    4.6417 O   0  0  0  0  0  0  0  0  0  0  0  0
   25.1115   74.5095    5.5437 O   0  0  0  0  0  0  0  0  0  0  0  0
   23.0339   71.9339    3.1834 N   0  0  0  0  0  0  0  0  0  0  0  0
   24.3885   72.3588    5.0888 N   0  0  0  0  0  0  0  0  0  0  0  0
   23.6920   71.4153    4.3228 C   0  0  0  0  0  0  0  0  0  0  0  0
   23.1066   73.2917    2.8922 C   0  0  0  0  0  0  0  0  0  0  0  0
   23.7738   74.1785    3.6335 C   0  0  0  0  0  0  0  0  0  0  0  0
   24.4891   73.7187    4.8414 C   0  0  0  0  0  0  0  0  0  0  0  0
   24.8544   72.0206    5.8877 H   0  0  0  0  0  0  0  0  0  0  0  0
   21.4893   72.8920   -4.2563 O   0  0  0  0  0  0  0  0  0  0  0  0
   21.3509   73.5156   -5.7412 P   0  0  2  0  0  0  0  0  0  0  0  0
   22.6346   72.9110   -6.5186 O   0  0  0  0  0  0  0  0  0  0  0  0
   21.2566   75.0136   -5.7732 O   0  0  0  0  0  0  0  0  0  0  0  0
   20.0852   72.7518   -6.3888 O   0  0  0  0  0  0  0  0  0  0  0  0
   19.0100   70.7942   -5.5962 O   0  0  0  0  0  0  0  0  0  0  0  0
   18.4773   70.2427   -9.6536 O   0  0  0  0  0  0  0  0  0  0  0  0
   16.2335   70.9690   -8.0147 O   0  0  0  0  0  0  0  0  0  0  0  0
   20.9583   71.3557   -8.6612 O   0  0  0  0  0  0  0  0  0  0  0  0
   18.5861   70.9991   -8.4447 C   0  0  1  0  0  0  0  0  0  0  0  0
   17.4850   70.5363   -7.4887 C   0  0  1  0  0  0  0  0  0  0  0  0
   19.9650   70.7635   -7.8310 C   0  0  2  0  0  0  0  0  0  0  0  0
   17.6985   71.1067   -6.0801 C   0  0  1  0  0  0  0  0  0  0  0  0
   20.0553   71.3270   -6.4117 C   0  0  1  0  0  0  0  0  0  0  0  0
   17.6042   70.3883  -10.0486 H   0  0  0  0  0  0  0  0  0  0  0  0
   16.1112   70.6023   -8.9046 H   0  0  0  0  0  0  0  0  0  0  0  0
   20.8909   70.9905   -9.5567 H   0  0  0  0  0  0  0  0  0  0  0  0
   16.0376   69.4376   -5.6747 O   0  0  0  0  0  0  0  0  0  0  0  0
   16.7033   70.5331   -5.0738 C   0  0  0  0  0  0  0  0  0  0  0  0
   15.4012   69.0622   -5.0456 H   0  0  0  0  0  0  0  0  0  0  0  0
 25 28  1  0
 25 24  1  0
 25 26  1  6
 25 27  2  0
  1  4  1  0
  1 24  1  0
  1  2  1  6
  1  3  2  0
  6 11  1  0
  6 12  1  0
 29 36  1  0
 29 37  1  0
  9  7  1  1
  7 13  1  0
 10  8  1  1
  8 14  1  0
 37 28  1  6
  4  5  1  0
 33 30  1  6
 30 38  1  0
 34 31  1  6
 31 39  1  0
 35 32  1  6
 32 40  1  0
 41 42  1  0
 41 43  1  0
 15 19  2  0
 16 22  2  0
 12 17  1  1
 17 19  1  0
 17 20  1  0
 18 19  1  0
 18 22  1  0
 18 23  1  0
  9 10  1  0
  9 11  1  0
 10 12  1  0
 11  5  1  1
 33 34  1  0
 33 35  1  0
 34 36  1  0
 35 37  1  0
 36 42  1  1
 20 21  2  0
 21 22  1  0
M  CHG  2   2  -1  26  -1
M  END
>  <COMPND>  (130) 
    8629 

>  <AUTHOR>  (130) 
    GENERATED BY OPEN BABEL 3.1.1

>  <MASTER>  (130) 
        0    0    0    0    0    0    0    0   58    0   58    0

>  <minimizedAffinity>  (130) 
-8.85202

>  <CNNscore>  (130) 
0.3432993591

>  <CNNaffinity>  (130) 
3.7605643272

>  <CNN_VS>  (130) 
1.2909992933

>  <CNNaffinity_variance>  (130) 
0.3166942596

$$$$
131
     RDKit          3D

 43 45  0  0  0  0  0  0  0  0999 V2000
   19.7758   70.7531   -1.0129 P   0  0  2  0  0  0  0  0  0  0  0  0
   20.7691   70.3249   -2.2160 O   0  0  0  0  0  0  0  0  0  0  0  0
   19.5401   72.2291   -0.8806 O   0  0  0  0  0  0  0  0  0  0  0  0
   20.4031   70.0224    0.2873 O   0  0  0  0  0  0  0  0  0  0  0  0
   20.8980   70.8281    1.3426 C   0  0  0  0  0  0  0  0  0  0  0  0
   22.7855   72.2515    1.7727 O   0  0  0  0  0  0  0  0  0  0  0  0
   24.4859   69.8325    1.2748 O   0  0  0  0  0  0  0  0  0  0  0  0
   24.4441   69.9795    3.9976 O   0  0  0  0  0  0  0  0  0  0  0  0
   23.2088   69.9236    1.9042 C   0  0  1  0  0  0  0  0  0  0  0  0
   23.3467   70.5193    3.2897 C   0  0  2  0  0  0  0  0  0  0  0  0
   22.4026   70.9926    1.1771 C   0  0  1  0  0  0  0  0  0  0  0  0
   23.5195   71.9969    2.9816 C   0  0  2  0  0  0  0  0  0  0  0  0
   25.0189   69.1557    1.7218 H   0  0  0  0  0  0  0  0  0  0  0  0
   24.2865   69.0381    4.1695 H   0  0  0  0  0  0  0  0  0  0  0  0
   25.0217   72.8830    5.2033 O   0  0  0  0  0  0  0  0  0  0  0  0
   21.4409   75.2188    6.9247 O   0  0  0  0  0  0  0  0  0  0  0  0
   23.0049   72.8379    4.0253 N   0  0  0  0  0  0  0  0  0  0  0  0
   23.2376   74.0455    6.0585 N   0  0  0  0  0  0  0  0  0  0  0  0
   23.8421   73.2252    5.0975 C   0  0  0  0  0  0  0  0  0  0  0  0
   21.6839   73.2700    3.9792 C   0  0  0  0  0  0  0  0  0  0  0  0
   21.1222   74.0510    4.9043 C   0  0  0  0  0  0  0  0  0  0  0  0
   21.9285   74.5004    6.0575 C   0  0  0  0  0  0  0  0  0  0  0  0
   23.8016   74.3276    6.8149 H   0  0  0  0  0  0  0  0  0  0  0  0
   18.4464   69.8837   -1.3123 O   0  0  0  0  0  0  0  0  0  0  0  0
   17.6263   69.6360   -2.6831 P   0  0  2  0  0  0  0  0  0  0  0  0
   16.2053   70.3561   -2.4007 O   0  0  0  0  0  0  0  0  0  0  0  0
   17.5205   68.1933   -3.0847 O   0  0  0  0  0  0  0  0  0  0  0  0
   18.3534   70.5814   -3.7706 O   0  0  0  0  0  0  0  0  0  0  0  0
   18.4678   72.8001   -4.5955 O   0  0  0  0  0  0  0  0  0  0  0  0
   17.1524   70.8925   -8.0133 O   0  0  0  0  0  0  0  0  0  0  0  0
   19.8604   71.8382   -7.8702 O   0  0  0  0  0  0  0  0  0  0  0  0
   16.1439   70.0769   -5.4255 O   0  0  0  0  0  0  0  0  0  0  0  0
   17.8877   71.0200   -6.7933 C   0  0  1  0  0  0  0  0  0  0  0  0
   18.8494   72.2015   -6.9342 C   0  0  1  0  0  0  0  0  0  0  0  0
   16.9101   71.2566   -5.6437 C   0  0  2  0  0  0  0  0  0  0  0  0
   19.4787   72.5677   -5.5833 C   0  0  1  0  0  0  0  0  0  0  0  0
   17.6357   71.6626   -4.3597 C   0  0  1  0  0  0  0  0  0  0  0  0
   17.7673   70.7416   -8.7473 H   0  0  0  0  0  0  0  0  0  0  0  0
   19.4498   71.6088   -8.7187 H   0  0  0  0  0  0  0  0  0  0  0  0
   15.6892   69.8304   -6.2455 H   0  0  0  0  0  0  0  0  0  0  0  0
   19.7677   74.6751   -6.6714 O   0  0  0  0  0  0  0  0  0  0  0  0
   20.3187   73.8401   -5.6698 C   0  0  0  0  0  0  0  0  0  0  0  0
   20.2920   75.4891   -6.7375 H   0  0  0  0  0  0  0  0  0  0  0  0
 25 28  1  0
 25 24  1  0
 25 26  1  1
 25 27  2  0
  1  4  1  0
  1 24  1  0
  1  2  1  6
  1  3  2  0
  6 11  1  0
  6 12  1  0
 29 36  1  0
 29 37  1  0
  9  7  1  6
  7 13  1  0
 10  8  1  6
  8 14  1  0
 37 28  1  6
  4  5  1  0
 33 30  1  6
 30 38  1  0
 34 31  1  6
 31 39  1  0
 35 32  1  1
 32 40  1  0
 41 42  1  0
 41 43  1  0
 15 19  2  0
 16 22  2  0
 12 17  1  1
 17 19  1  0
 17 20  1  0
 18 19  1  0
 18 22  1  0
 18 23  1  0
  9 10  1  0
  9 11  1  0
 10 12  1  0
 11  5  1  1
 33 34  1  0
 33 35  1  0
 34 36  1  0
 35 37  1  0
 36 42  1  6
 20 21  2  0
 21 22  1  0
M  CHG  2   2  -1  26  -1
M  END
>  <COMPND>  (131) 
    8629 

>  <AUTHOR>  (131) 
    GENERATED BY OPEN BABEL 3.1.1

>  <MASTER>  (131) 
        0    0    0    0    0    0    0    0   58    0   58    0

>  <minimizedAffinity>  (131) 
-7.55138

>  <CNNscore>  (131) 
0.3174567819

>  <CNNaffinity>  (131) 
3.8611252308

>  <CNN_VS>  (131) 
1.2257404327

>  <CNNaffinity_variance>  (131) 
0.2104890794

$$$$
132
     RDKit          3D

 43 45  0  0  0  0  0  0  0  0999 V2000
   21.8887   71.3757   -2.2312 P   0  0  2  0  0  0  0  0  0  0  0  0
   21.3159   70.0777   -3.0087 O   0  0  0  0  0  0  0  0  0  0  0  0
   20.8487   72.3713   -1.8085 O   0  0  0  0  0  0  0  0  0  0  0  0
   23.0427   71.9399   -3.2149 O   0  0  0  0  0  0  0  0  0  0  0  0
   23.0493   73.3223   -3.5263 C   0  0  0  0  0  0  0  0  0  0  0  0
   22.5883   72.4976   -5.7356 O   0  0  0  0  0  0  0  0  0  0  0  0
   23.6539   75.1169   -6.7329 O   0  0  0  0  0  0  0  0  0  0  0  0
   20.9550   75.4738   -6.8920 O   0  0  0  0  0  0  0  0  0  0  0  0
   22.8888   74.8417   -5.5607 C   0  0  1  0  0  0  0  0  0  0  0  0
   21.4457   74.5650   -5.9276 C   0  0  2  0  0  0  0  0  0  0  0  0
   23.3410   73.4947   -5.0107 C   0  0  1  0  0  0  0  0  0  0  0  0
   21.5213   73.1409   -6.4514 C   0  0  2  0  0  0  0  0  0  0  0  0
   23.3830   75.9727   -7.1021 H   0  0  0  0  0  0  0  0  0  0  0  0
   20.9258   76.3653   -6.5110 H   0  0  0  0  0  0  0  0  0  0  0  0
   20.4996   71.1749   -8.2032 O   0  0  0  0  0  0  0  0  0  0  0  0
   16.8451   70.4056   -5.5025 O   0  0  0  0  0  0  0  0  0  0  0  0
   20.3049   72.4108   -6.2305 N   0  0  0  0  0  0  0  0  0  0  0  0
   18.6808   70.7933   -6.8570 N   0  0  0  0  0  0  0  0  0  0  0  0
   19.8797   71.4453   -7.1725 C   0  0  0  0  0  0  0  0  0  0  0  0
   19.5477   72.6548   -5.0899 C   0  0  0  0  0  0  0  0  0  0  0  0
   18.4060   72.0254   -4.8042 C   0  0  0  0  0  0  0  0  0  0  0  0
   17.8918   71.0017   -5.7369 C   0  0  0  0  0  0  0  0  0  0  0  0
   18.3648   70.1168   -7.4990 H   0  0  0  0  0  0  0  0  0  0  0  0
   22.7331   70.7274   -1.0148 O   0  0  0  0  0  0  0  0  0  0  0  0
   22.2527   69.9033    0.2902 P   0  0  2  0  0  0  0  0  0  0  0  0
   23.0674   68.5107    0.1703 O   0  0  0  0  0  0  0  0  0  0  0  0
   20.7643   69.7423    0.4029 O   0  0  0  0  0  0  0  0  0  0  0  0
   22.9385   70.6710    1.5334 O   0  0  0  0  0  0  0  0  0  0  0  0
   22.7852   71.0939    3.8602 O   0  0  0  0  0  0  0  0  0  0  0  0
   22.1738   74.9269    2.4512 O   0  0  0  0  0  0  0  0  0  0  0  0
   24.6632   74.2629    3.7200 O   0  0  0  0  0  0  0  0  0  0  0  0
   21.0325   72.6710    1.0413 O   0  0  0  0  0  0  0  0  0  0  0  0
   22.7414   73.6142    2.4523 C   0  0  1  0  0  0  0  0  0  0  0  0
   23.5109   73.4257    3.7612 C   0  0  1  0  0  0  0  0  0  0  0  0
   21.6189   72.5849    2.3356 C   0  0  2  0  0  0  0  0  0  0  0  0
   23.9220   71.9600    3.9559 C   0  0  1  0  0  0  0  0  0  0  0  0
   22.1254   71.1649    2.5947 C   0  0  1  0  0  0  0  0  0  0  0  0
   22.8813   75.5853    2.5246 H   0  0  0  0  0  0  0  0  0  0  0  0
   24.3898   75.1854    3.5962 H   0  0  0  0  0  0  0  0  0  0  0  0
   20.7155   73.5745    0.8895 H   0  0  0  0  0  0  0  0  0  0  0  0
   25.8041   72.3786    5.3671 O   0  0  0  0  0  0  0  0  0  0  0  0
   24.5517   71.7198    5.3263 C   0  0  0  0  0  0  0  0  0  0  0  0
   26.2164   72.2347    6.2337 H   0  0  0  0  0  0  0  0  0  0  0  0
 25 28  1  0
 25 24  1  0
 25 26  1  6
 25 27  2  0
  1  4  1  0
  1 24  1  0
  1  2  1  6
  1  3  2  0
  6 11  1  0
  6 12  1  0
 29 36  1  0
 29 37  1  0
  9  7  1  6
  7 13  1  0
 10  8  1  6
  8 14  1  0
 37 28  1  6
  4  5  1  0
 33 30  1  1
 30 38  1  0
 34 31  1  6
 31 39  1  0
 35 32  1  6
 32 40  1  0
 41 42  1  0
 41 43  1  0
 15 19  2  0
 16 22  2  0
 12 17  1  1
 17 19  1  0
 17 20  1  0
 18 19  1  0
 18 22  1  0
 18 23  1  0
  9 10  1  0
  9 11  1  0
 10 12  1  0
 11  5  1  1
 33 34  1  0
 33 35  1  0
 34 36  1  0
 35 37  1  0
 36 42  1  1
 20 21  2  0
 21 22  1  0
M  CHG  2   2  -1  26  -1
M  END
>  <COMPND>  (132) 
    8629 

>  <AUTHOR>  (132) 
    GENERATED BY OPEN BABEL 3.1.1

>  <MASTER>  (132) 
        0    0    0    0    0    0    0    0   58    0   58    0

>  <minimizedAffinity>  (132) 
-7.08139

>  <CNNscore>  (132) 
0.3156841397

>  <CNNaffinity>  (132) 
4.0298447609

>  <CNN_VS>  (132) 
1.2721580267

>  <CNNaffinity_variance>  (132) 
0.0288315229

$$$$
133
     RDKit          3D

 43 45  0  0  0  0  0  0  0  0999 V2000
   21.2766   70.4858   -0.7785 P   0  0  2  0  0  0  0  0  0  0  0  0
   20.3834   69.6699    0.2957 O   0  0  0  0  0  0  0  0  0  0  0  0
   22.5427   69.8003   -1.2009 O   0  0  0  0  0  0  0  0  0  0  0  0
   21.4592   71.9449   -0.1033 O   0  0  0  0  0  0  0  0  0  0  0  0
   21.6013   72.0256    1.3042 C   0  0  0  0  0  0  0  0  0  0  0  0
   23.5587   72.8100    2.4562 O   0  0  0  0  0  0  0  0  0  0  0  0
   24.5051   69.9654    2.3961 O   0  0  0  0  0  0  0  0  0  0  0  0
   23.5664   70.2259    4.9432 O   0  0  0  0  0  0  0  0  0  0  0  0
   23.1812   70.4726    2.5553 C   0  0  1  0  0  0  0  0  0  0  0  0
   23.0030   71.0507    3.9437 C   0  0  2  0  0  0  0  0  0  0  0  0
   23.0435   71.7091    1.6758 C   0  0  1  0  0  0  0  0  0  0  0  0
   23.7123   72.3886    3.8214 C   0  0  2  0  0  0  0  0  0  0  0  0
   24.6169   69.1750    2.9481 H   0  0  0  0  0  0  0  0  0  0  0  0
   23.0809   69.3871    4.9821 H   0  0  0  0  0  0  0  0  0  0  0  0
   25.2292   74.1882    5.3829 O   0  0  0  0  0  0  0  0  0  0  0  0
   21.4424   76.1803    7.0956 O   0  0  0  0  0  0  0  0  0  0  0  0
   23.1486   73.3882    4.6842 N   0  0  0  0  0  0  0  0  0  0  0  0
   23.3424   75.1787    6.2343 N   0  0  0  0  0  0  0  0  0  0  0  0
   23.9983   74.2413    5.4262 C   0  0  0  0  0  0  0  0  0  0  0  0
   21.7676   73.5153    4.7878 C   0  0  0  0  0  0  0  0  0  0  0  0
   21.1578   74.4136    5.5640 C   0  0  0  0  0  0  0  0  0  0  0  0
   21.9732   75.3432    6.3721 C   0  0  0  0  0  0  0  0  0  0  0  0
   23.9141   75.7835    6.7607 H   0  0  0  0  0  0  0  0  0  0  0  0
   20.2322   70.7693   -1.9792 O   0  0  0  0  0  0  0  0  0  0  0  0
   18.6161   70.7989   -1.9955 P   0  0  2  0  0  0  0  0  0  0  0  0
   18.2523   71.8478   -0.8187 O   0  0  0  0  0  0  0  0  0  0  0  0
   17.9743   69.4502   -1.8432 O   0  0  0  0  0  0  0  0  0  0  0  0
   18.2354   71.5703   -3.3612 O   0  0  0  0  0  0  0  0  0  0  0  0
   16.7894   71.3432   -5.2251 O   0  0  0  0  0  0  0  0  0  0  0  0
   20.3753   71.7924   -7.2227 O   0  0  0  0  0  0  0  0  0  0  0  0
   18.4678   73.9394   -7.2330 O   0  0  0  0  0  0  0  0  0  0  0  0
   20.2694   70.2512   -4.7747 O   0  0  0  0  0  0  0  0  0  0  0  0
   19.4301   72.0226   -6.1744 C   0  0  1  0  0  0  0  0  0  0  0  0
   18.1639   72.6188   -6.7926 C   0  0  1  0  0  0  0  0  0  0  0  0
   19.1180   70.6964   -5.4836 C   0  0  2  0  0  0  0  0  0  0  0  0
   17.0121   72.6453   -5.7789 C   0  0  1  0  0  0  0  0  0  0  0  0
   17.9257   70.8213   -4.5335 C   0  0  1  0  0  0  0  0  0  0  0  0
   20.5781   72.6307   -7.6651 H   0  0  0  0  0  0  0  0  0  0  0  0
   19.1969   73.9086   -7.8722 H   0  0  0  0  0  0  0  0  0  0  0  0
   21.0170   70.1759   -5.3872 H   0  0  0  0  0  0  0  0  0  0  0  0
   15.7643   72.8298   -7.8082 O   0  0  0  0  0  0  0  0  0  0  0  0
   15.6979   73.0889   -6.4179 C   0  0  0  0  0  0  0  0  0  0  0  0
   14.9344   73.1069   -8.2281 H   0  0  0  0  0  0  0  0  0  0  0  0
 25 28  1  0
 25 24  1  0
 25 26  1  1
 25 27  2  0
  1  4  1  0
  1 24  1  0
  1  2  1  1
  1  3  2  0
  6 11  1  0
  6 12  1  0
 29 36  1  0
 29 37  1  0
  9  7  1  1
  7 13  1  0
 10  8  1  1
  8 14  1  0
 37 28  1  1
  4  5  1  0
 33 30  1  6
 30 38  1  0
 34 31  1  1
 31 39  1  0
 35 32  1  1
 32 40  1  0
 41 42  1  0
 41 43  1  0
 15 19  2  0
 16 22  2  0
 12 17  1  1
 17 19  1  0
 17 20  1  0
 18 19  1  0
 18 22  1  0
 18 23  1  0
  9 10  1  0
  9 11  1  0
 10 12  1  0
 11  5  1  1
 33 34  1  0
 33 35  1  0
 34 36  1  0
 35 37  1  0
 36 42  1  6
 20 21  2  0
 21 22  1  0
M  CHG  2   2  -1  26  -1
M  END
>  <COMPND>  (133) 
    8629 

>  <AUTHOR>  (133) 
    GENERATED BY OPEN BABEL 3.1.1

>  <MASTER>  (133) 
        0    0    0    0    0    0    0    0   58    0   58    0

>  <minimizedAffinity>  (133) 
-7.51731

>  <CNNscore>  (133) 
0.3049051464

>  <CNNaffinity>  (133) 
3.8256182671

>  <CNN_VS>  (133) 
1.1664507389

>  <CNNaffinity_variance>  (133) 
0.1245509163

$$$$
134
     RDKit          3D

 43 45  0  0  0  0  0  0  0  0999 V2000
   22.8004   73.3015   -3.5398 P   0  0  2  0  0  0  0  0  0  0  0  0
   23.9553   72.9284   -4.6096 O   0  0  0  0  0  0  0  0  0  0  0  0
   22.8980   74.6807   -2.9571 O   0  0  0  0  0  0  0  0  0  0  0  0
   22.8489   72.0839   -2.4754 O   0  0  0  0  0  0  0  0  0  0  0  0
   22.7958   72.3917   -1.0932 C   0  0  0  0  0  0  0  0  0  0  0  0
   21.9216   70.1546   -1.1655 O   0  0  0  0  0  0  0  0  0  0  0  0
   21.2873   70.5088    1.7436 O   0  0  0  0  0  0  0  0  0  0  0  0
   23.5775   69.0300    1.8104 O   0  0  0  0  0  0  0  0  0  0  0  0
   22.4011   70.9962    0.9973 C   0  0  1  0  0  0  0  0  0  0  0  0
   23.3643   69.8679    0.6928 C   0  0  2  0  0  0  0  0  0  0  0  0
   21.9051   71.3748   -0.3927 C   0  0  1  0  0  0  0  0  0  0  0  0
   22.6612   69.1528   -0.4485 C   0  0  2  0  0  0  0  0  0  0  0  0
   21.5794   70.2609    2.6353 H   0  0  0  0  0  0  0  0  0  0  0  0
   24.0273   69.5306    2.5089 H   0  0  0  0  0  0  0  0  0  0  0  0
   23.0850   66.3643   -0.5994 O   0  0  0  0  0  0  0  0  0  0  0  0
   26.2243   66.8376   -3.9405 O   0  0  0  0  0  0  0  0  0  0  0  0
   23.5832   68.5200   -1.3490 N   0  0  0  0  0  0  0  0  0  0  0  0
   24.6477   66.6022   -2.2630 N   0  0  0  0  0  0  0  0  0  0  0  0
   23.7214   67.1124   -1.3444 C   0  0  0  0  0  0  0  0  0  0  0  0
   24.3380   69.2932   -2.2244 C   0  0  0  0  0  0  0  0  0  0  0  0
   25.2180   68.7914   -3.0933 C   0  0  0  0  0  0  0  0  0  0  0  0
   25.4225   67.3296   -3.1525 C   0  0  0  0  0  0  0  0  0  0  0  0
   24.7611   65.6241   -2.2774 H   0  0  0  0  0  0  0  0  0  0  0  0
   21.4379   73.0127   -4.3603 O   0  0  0  0  0  0  0  0  0  0  0  0
   20.5421   73.9735   -5.3023 P   0  0  2  0  0  0  0  0  0  0  0  0
   21.6198   75.0291   -5.8871 O   0  0  0  0  0  0  0  0  0  0  0  0
   19.3734   74.6050   -4.6029 O   0  0  0  0  0  0  0  0  0  0  0  0
   20.1466   73.0521   -6.5670 O   0  0  0  0  0  0  0  0  0  0  0  0
   19.0952   71.1949   -5.5363 O   0  0  0  0  0  0  0  0  0  0  0  0
   18.4832   70.1872   -9.4937 O   0  0  0  0  0  0  0  0  0  0  0  0
   16.2700   71.0905   -7.9019 O   0  0  0  0  0  0  0  0  0  0  0  0
   20.9793   71.4093   -8.6843 O   0  0  0  0  0  0  0  0  0  0  0  0
   18.6134   71.0756   -8.3805 C   0  0  1  0  0  0  0  0  0  0  0  0
   17.5335   70.7221   -7.3560 C   0  0  1  0  0  0  0  0  0  0  0  0
   20.0052   70.9132   -7.7725 C   0  0  2  0  0  0  0  0  0  0  0  0
   17.7731   71.4486   -6.0256 C   0  0  1  0  0  0  0  0  0  0  0  0
   20.1218   71.6338   -6.4281 C   0  0  1  0  0  0  0  0  0  0  0  0
   17.6017   70.2856   -9.8847 H   0  0  0  0  0  0  0  0  0  0  0  0
   16.1313   70.6253   -8.7419 H   0  0  0  0  0  0  0  0  0  0  0  0
   20.8953   70.9450   -9.5312 H   0  0  0  0  0  0  0  0  0  0  0  0
   15.5946   71.7190   -5.0821 O   0  0  0  0  0  0  0  0  0  0  0  0
   16.8006   70.9909   -4.9408 C   0  0  0  0  0  0  0  0  0  0  0  0
   14.9660   71.4379   -4.3983 H   0  0  0  0  0  0  0  0  0  0  0  0
 25 28  1  0
 25 24  1  0
 25 26  1  6
 25 27  2  0
  1  4  1  0
  1 24  1  0
  1  2  1  6
  1  3  2  0
  6 11  1  0
  6 12  1  0
 29 36  1  0
 29 37  1  0
  9  7  1  1
  7 13  1  0
 10  8  1  1
  8 14  1  0
 37 28  1  6
  4  5  1  0
 33 30  1  6
 30 38  1  0
 34 31  1  6
 31 39  1  0
 35 32  1  6
 32 40  1  0
 41 42  1  0
 41 43  1  0
 15 19  2  0
 16 22  2  0
 12 17  1  6
 17 19  1  0
 17 20  1  0
 18 19  1  0
 18 22  1  0
 18 23  1  0
  9 10  1  0
  9 11  1  0
 10 12  1  0
 11  5  1  6
 33 34  1  0
 33 35  1  0
 34 36  1  0
 35 37  1  0
 36 42  1  1
 20 21  2  0
 21 22  1  0
M  CHG  2   2  -1  26  -1
M  END
>  <COMPND>  (134) 
    8629 

>  <AUTHOR>  (134) 
    GENERATED BY OPEN BABEL 3.1.1

>  <MASTER>  (134) 
        0    0    0    0    0    0    0    0   58    0   58    0

>  <minimizedAffinity>  (134) 
-8.50315

>  <CNNscore>  (134) 
0.2959469557

>  <CNNaffinity>  (134) 
4.1304521561

>  <CNN_VS>  (134) 
1.2223947048

>  <CNNaffinity_variance>  (134) 
0.5829156041

$$$$
135
     RDKit          3D

 43 45  0  0  0  0  0  0  0  0999 V2000
   22.0383   71.1885   -2.6924 P   0  0  2  0  0  0  0  0  0  0  0  0
   23.2256   70.0965   -2.8159 O   0  0  0  0  0  0  0  0  0  0  0  0
   22.0032   72.2132   -3.7880 O   0  0  0  0  0  0  0  0  0  0  0  0
   22.2001   71.7701   -1.1913 O   0  0  0  0  0  0  0  0  0  0  0  0
   22.4067   73.1619   -1.0241 C   0  0  0  0  0  0  0  0  0  0  0  0
   21.2604   72.6180    1.0165 O   0  0  0  0  0  0  0  0  0  0  0  0
   20.9412   75.5740    1.4055 O   0  0  0  0  0  0  0  0  0  0  0  0
   23.0281   74.9790    3.0570 O   0  0  0  0  0  0  0  0  0  0  0  0
   22.0343   74.8510    0.8418 C   0  0  1  0  0  0  0  0  0  0  0  0
   22.8194   74.1508    1.9313 C   0  0  2  0  0  0  0  0  0  0  0  0
   21.4646   73.6769    0.0555 C   0  0  1  0  0  0  0  0  0  0  0  0
   21.9328   72.9565    2.2405 C   0  0  2  0  0  0  0  0  0  0  0  0
   21.2802   76.3291    1.9123 H   0  0  0  0  0  0  0  0  0  0  0  0
   23.5977   75.7240    2.8093 H   0  0  0  0  0  0  0  0  0  0  0  0
   22.6277   72.4655    4.9338 O   0  0  0  0  0  0  0  0  0  0  0  0
   24.8186   68.5589    3.8476 O   0  0  0  0  0  0  0  0  0  0  0  0
   22.6841   71.8185    2.6899 N   0  0  0  0  0  0  0  0  0  0  0  0
   23.7179   70.5206    4.3908 N   0  0  0  0  0  0  0  0  0  0  0  0
   22.9808   71.6661    4.0643 C   0  0  0  0  0  0  0  0  0  0  0  0
   23.1181   70.8682    1.7719 C   0  0  0  0  0  0  0  0  0  0  0  0
   23.8211   69.7820    2.0993 C   0  0  0  0  0  0  0  0  0  0  0  0
   24.1731   69.5480    3.5147 C   0  0  0  0  0  0  0  0  0  0  0  0
   23.9367   70.3937    5.3425 H   0  0  0  0  0  0  0  0  0  0  0  0
   20.7111   70.2719   -2.5859 O   0  0  0  0  0  0  0  0  0  0  0  0
   19.1459   70.6722   -2.5335 P   0  0  2  0  0  0  0  0  0  0  0  0
   19.1772   72.2415   -2.1414 O   0  0  0  0  0  0  0  0  0  0  0  0
   18.3232   69.8198   -1.6113 O   0  0  0  0  0  0  0  0  0  0  0  0
   18.6659   70.6466   -4.0743 O   0  0  0  0  0  0  0  0  0  0  0  0
   19.3086   72.5121   -5.3870 O   0  0  0  0  0  0  0  0  0  0  0  0
   16.3925   70.9429   -7.8537 O   0  0  0  0  0  0  0  0  0  0  0  0
   19.1570   70.6981   -8.5925 O   0  0  0  0  0  0  0  0  0  0  0  0
   16.0242   70.9138   -4.9826 O   0  0  0  0  0  0  0  0  0  0  0  0
   17.4670   70.8931   -6.9112 C   0  0  1  0  0  0  0  0  0  0  0  0
   18.6940   71.5491   -7.5476 C   0  0  1  0  0  0  0  0  0  0  0  0
   17.0545   71.6400   -5.6441 C   0  0  2  0  0  0  0  0  0  0  0  0
   19.8026   71.7737   -6.5105 C   0  0  1  0  0  0  0  0  0  0  0  0
   18.2412   71.8533   -4.7026 C   0  0  1  0  0  0  0  0  0  0  0  0
   16.6478   70.4700   -8.6604 H   0  0  0  0  0  0  0  0  0  0  0  0
   18.4474   70.5640   -9.2403 H   0  0  0  0  0  0  0  0  0  0  0  0
   15.2787   70.7856   -5.5890 H   0  0  0  0  0  0  0  0  0  0  0  0
   21.5675   71.8055   -8.1209 O   0  0  0  0  0  0  0  0  0  0  0  0
   20.9726   72.5680   -7.0869 C   0  0  0  0  0  0  0  0  0  0  0  0
   22.3135   72.2989   -8.4973 H   0  0  0  0  0  0  0  0  0  0  0  0
 25 28  1  0
 25 24  1  0
 25 26  1  1
 25 27  2  0
  1  4  1  0
  1 24  1  0
  1  2  1  6
  1  3  2  0
  6 11  1  0
  6 12  1  0
 29 36  1  0
 29 37  1  0
  9  7  1  1
  7 13  1  0
 10  8  1  1
  8 14  1  0
 37 28  1  6
  4  5  1  0
 33 30  1  6
 30 38  1  0
 34 31  1  6
 31 39  1  0
 35 32  1  1
 32 40  1  0
 41 42  1  0
 41 43  1  0
 15 19  2  0
 16 22  2  0
 12 17  1  6
 17 19  1  0
 17 20  1  0
 18 19  1  0
 18 22  1  0
 18 23  1  0
  9 10  1  0
  9 11  1  0
 10 12  1  0
 11  5  1  6
 33 34  1  0
 33 35  1  0
 34 36  1  0
 35 37  1  0
 36 42  1  6
 20 21  2  0
 21 22  1  0
M  CHG  2   2  -1  26  -1
M  END
>  <COMPND>  (135) 
    8629 

>  <AUTHOR>  (135) 
    GENERATED BY OPEN BABEL 3.1.1

>  <MASTER>  (135) 
        0    0    0    0    0    0    0    0   58    0   58    0

>  <minimizedAffinity>  (135) 
-7.27679

>  <CNNscore>  (135) 
0.2844626307

>  <CNNaffinity>  (135) 
3.9402909279

>  <CNN_VS>  (135) 
1.1208654642

>  <CNNaffinity_variance>  (135) 
0.0418139771

$$$$
136
     RDKit          3D

 43 45  0  0  0  0  0  0  0  0999 V2000
   22.7993   73.2722   -3.4105 P   0  0  2  0  0  0  0  0  0  0  0  0
   24.1459   73.0829   -4.2871 O   0  0  0  0  0  0  0  0  0  0  0  0
   22.6238   74.6334   -2.8043 O   0  0  0  0  0  0  0  0  0  0  0  0
   22.8394   72.0375   -2.3656 O   0  0  0  0  0  0  0  0  0  0  0  0
   22.6370   72.3093   -0.9898 C   0  0  0  0  0  0  0  0  0  0  0  0
   22.8706   70.7900    0.8571 O   0  0  0  0  0  0  0  0  0  0  0  0
   20.0501   69.9510    0.2811 O   0  0  0  0  0  0  0  0  0  0  0  0
   19.7478   71.6322    2.4069 O   0  0  0  0  0  0  0  0  0  0  0  0
   20.6452   71.2437    0.1809 C   0  0  1  0  0  0  0  0  0  0  0  0
   20.8611   71.8316    1.5598 C   0  0  2  0  0  0  0  0  0  0  0  0
   22.0743   71.0652   -0.3162 C   0  0  1  0  0  0  0  0  0  0  0  0
   22.0962   71.0831    2.0315 C   0  0  2  0  0  0  0  0  0  0  0  0
   19.1365   70.0394    0.5965 H   0  0  0  0  0  0  0  0  0  0  0  0
   18.9880   72.1284    2.0647 H   0  0  0  0  0  0  0  0  0  0  0  0
   23.6986   69.9930    4.0862 O   0  0  0  0  0  0  0  0  0  0  0  0
   25.1211   74.1626    5.4397 O   0  0  0  0  0  0  0  0  0  0  0  0
   22.8960   71.8607    2.9354 N   0  0  0  0  0  0  0  0  0  0  0  0
   24.4057   72.0700    4.7583 N   0  0  0  0  0  0  0  0  0  0  0  0
   23.6638   71.2156    3.9328 C   0  0  0  0  0  0  0  0  0  0  0  0
   22.9139   73.2470    2.8275 C   0  0  0  0  0  0  0  0  0  0  0  0
   23.6258   74.0476    3.6235 C   0  0  0  0  0  0  0  0  0  0  0  0
   24.4554   73.4534    4.6916 C   0  0  0  0  0  0  0  0  0  0  0  0
   24.9480   71.6430    5.4607 H   0  0  0  0  0  0  0  0  0  0  0  0
   21.6312   72.8388   -4.4404 O   0  0  0  0  0  0  0  0  0  0  0  0
   21.2217   73.4266   -5.8895 P   0  0  2  0  0  0  0  0  0  0  0  0
   22.2021   72.6329   -6.9025 O   0  0  0  0  0  0  0  0  0  0  0  0
   21.3041   74.9221   -5.9925 O   0  0  0  0  0  0  0  0  0  0  0  0
   19.7559   72.8161   -6.1786 O   0  0  0  0  0  0  0  0  0  0  0  0
   19.4737   70.6394   -5.2847 O   0  0  0  0  0  0  0  0  0  0  0  0
   16.0814   70.8340   -7.6311 O   0  0  0  0  0  0  0  0  0  0  0  0
   15.8396   70.9869   -4.7734 O   0  0  0  0  0  0  0  0  0  0  0  0
   18.5610   71.9884   -8.5791 O   0  0  0  0  0  0  0  0  0  0  0  0
   17.1028   71.3482   -6.7721 C   0  0  1  0  0  0  0  0  0  0  0  0
   17.0351   70.5948   -5.4422 C   0  0  1  0  0  0  0  0  0  0  0  0
   18.4630   71.1447   -7.4367 C   0  0  2  0  0  0  0  0  0  0  0  0
   18.2601   70.8998   -4.5697 C   0  0  1  0  0  0  0  0  0  0  0  0
   19.6128   71.4279   -6.4682 C   0  0  1  0  0  0  0  0  0  0  0  0
   15.2151   70.9606   -7.2152 H   0  0  0  0  0  0  0  0  0  0  0  0
   15.0737   70.7893   -5.3352 H   0  0  0  0  0  0  0  0  0  0  0  0
   17.8278   71.7992   -9.1844 H   0  0  0  0  0  0  0  0  0  0  0  0
   17.3855   70.5865   -2.3684 O   0  0  0  0  0  0  0  0  0  0  0  0
   18.2923   70.0398   -3.3082 C   0  0  0  0  0  0  0  0  0  0  0  0
   17.3952   70.0491   -1.5604 H   0  0  0  0  0  0  0  0  0  0  0  0
 25 28  1  0
 25 24  1  0
 25 26  1  6
 25 27  2  0
  1  4  1  0
  1 24  1  0
  1  2  1  6
  1  3  2  0
  6 11  1  0
  6 12  1  0
 29 36  1  0
 29 37  1  0
  9  7  1  1
  7 13  1  0
 10  8  1  1
  8 14  1  0
 37 28  1  1
  4  5  1  0
 33 30  1  6
 30 38  1  0
 34 31  1  1
 31 39  1  0
 35 32  1  6
 32 40  1  0
 41 42  1  0
 41 43  1  0
 15 19  2  0
 16 22  2  0
 12 17  1  1
 17 19  1  0
 17 20  1  0
 18 19  1  0
 18 22  1  0
 18 23  1  0
  9 10  1  0
  9 11  1  0
 10 12  1  0
 11  5  1  1
 33 34  1  0
 33 35  1  0
 34 36  1  0
 35 37  1  0
 36 42  1  1
 20 21  2  0
 21 22  1  0
M  CHG  2   2  -1  26  -1
M  END
>  <COMPND>  (136) 
    8629 

>  <AUTHOR>  (136) 
    GENERATED BY OPEN BABEL 3.1.1

>  <MASTER>  (136) 
        0    0    0    0    0    0    0    0   58    0   58    0

>  <minimizedAffinity>  (136) 
-7.80338

>  <CNNscore>  (136) 
0.2606550455

>  <CNNaffinity>  (136) 
3.7742724419

>  <CNN_VS>  (136) 
0.9837831259

>  <CNNaffinity_variance>  (136) 
0.2978388667

$$$$
137
     RDKit          3D

 43 45  0  0  0  0  0  0  0  0999 V2000
   21.1673   70.5400    0.2161 P   0  0  2  0  0  0  0  0  0  0  0  0
   21.0675   68.9982    0.6958 O   0  0  0  0  0  0  0  0  0  0  0  0
   22.5576   71.1030    0.1771 O   0  0  0  0  0  0  0  0  0  0  0  0
   20.1223   71.3146    1.1784 O   0  0  0  0  0  0  0  0  0  0  0  0
   19.2914   72.3119    0.6102 C   0  0  0  0  0  0  0  0  0  0  0  0
   19.1216   72.7107    2.9737 O   0  0  0  0  0  0  0  0  0  0  0  0
   17.1709   74.8790    2.2782 O   0  0  0  0  0  0  0  0  0  0  0  0
   19.4643   76.2742    2.7581 O   0  0  0  0  0  0  0  0  0  0  0  0
   18.3451   74.4644    1.5819 C   0  0  1  0  0  0  0  0  0  0  0  0
   19.5843   74.9388    2.3119 C   0  0  2  0  0  0  0  0  0  0  0  0
   18.4586   72.9507    1.7131 C   0  0  1  0  0  0  0  0  0  0  0  0
   19.6746   73.9454    3.4579 C   0  0  2  0  0  0  0  0  0  0  0  0
   17.0770   75.8425    2.2082 H   0  0  0  0  0  0  0  0  0  0  0  0
   19.4103   76.8674    1.9926 H   0  0  0  0  0  0  0  0  0  0  0  0
   20.5840   74.2108    6.1188 O   0  0  0  0  0  0  0  0  0  0  0  0
   24.8889   73.0443    4.9574 O   0  0  0  0  0  0  0  0  0  0  0  0
   21.0280   73.7168    3.8792 N   0  0  0  0  0  0  0  0  0  0  0  0
   22.7267   73.6296    5.5384 N   0  0  0  0  0  0  0  0  0  0  0  0
   21.3812   73.8785    5.2391 C   0  0  0  0  0  0  0  0  0  0  0  0
   21.9886   73.3364    2.9484 C   0  0  0  0  0  0  0  0  0  0  0  0
   23.2679   73.1041    3.2497 C   0  0  0  0  0  0  0  0  0  0  0  0
   23.7193   73.2507    4.6485 C   0  0  0  0  0  0  0  0  0  0  0  0
   22.9960   73.7363    6.4796 H   0  0  0  0  0  0  0  0  0  0  0  0
   20.4066   70.5268   -1.2102 O   0  0  0  0  0  0  0  0  0  0  0  0
   20.8983   70.9866   -2.6798 P   0  0  2  0  0  0  0  0  0  0  0  0
   22.0526   69.9111   -3.0382 O   0  0  0  0  0  0  0  0  0  0  0  0
   21.3400   72.4192   -2.7607 O   0  0  0  0  0  0  0  0  0  0  0  0
   19.6712   70.6088   -3.6579 O   0  0  0  0  0  0  0  0  0  0  0  0
   17.9200   72.0302   -4.3854 O   0  0  0  0  0  0  0  0  0  0  0  0
   15.8660   68.4493   -4.2876 O   0  0  0  0  0  0  0  0  0  0  0  0
   16.5583   69.6182   -6.8179 O   0  0  0  0  0  0  0  0  0  0  0  0
   17.8199   69.0496   -2.2379 O   0  0  0  0  0  0  0  0  0  0  0  0
   17.0015   69.2949   -4.4898 C   0  0  1  0  0  0  0  0  0  0  0  0
   16.6536   70.3130   -5.5776 C   0  0  1  0  0  0  0  0  0  0  0  0
   17.3366   70.0027   -3.1783 C   0  0  2  0  0  0  0  0  0  0  0  0
   17.7164   71.4167   -5.6637 C   0  0  1  0  0  0  0  0  0  0  0  0
   18.3672   71.1144   -3.3838 C   0  0  1  0  0  0  0  0  0  0  0  0
   15.6482   67.9965   -5.1165 H   0  0  0  0  0  0  0  0  0  0  0  0
   15.8842   68.9238   -6.7500 H   0  0  0  0  0  0  0  0  0  0  0  0
   17.1584   68.3514   -2.1164 H   0  0  0  0  0  0  0  0  0  0  0  0
   16.4628   71.9728   -7.6203 O   0  0  0  0  0  0  0  0  0  0  0  0
   17.3114   72.5264   -6.6315 C   0  0  0  0  0  0  0  0  0  0  0  0
   16.1969   72.6677   -8.2432 H   0  0  0  0  0  0  0  0  0  0  0  0
 25 28  1  0
 25 24  1  0
 25 26  1  6
 25 27  2  0
  1  4  1  0
  1 24  1  0
  1  2  1  1
  1  3  2  0
  6 11  1  0
  6 12  1  0
 29 36  1  0
 29 37  1  0
  9  7  1  1
  7 13  1  0
 10  8  1  1
  8 14  1  0
 37 28  1  6
  4  5  1  0
 33 30  1  1
 30 38  1  0
 34 31  1  6
 31 39  1  0
 35 32  1  1
 32 40  1  0
 41 42  1  0
 41 43  1  0
 15 19  2  0
 16 22  2  0
 12 17  1  6
 17 19  1  0
 17 20  1  0
 18 19  1  0
 18 22  1  0
 18 23  1  0
  9 10  1  0
  9 11  1  0
 10 12  1  0
 11  5  1  6
 33 34  1  0
 33 35  1  0
 34 36  1  0
 35 37  1  0
 36 42  1  6
 20 21  2  0
 21 22  1  0
M  CHG  2   2  -1  26  -1
M  END
>  <COMPND>  (137) 
    8629 

>  <AUTHOR>  (137) 
    GENERATED BY OPEN BABEL 3.1.1

>  <MASTER>  (137) 
        0    0    0    0    0    0    0    0   58    0   58    0

>  <minimizedAffinity>  (137) 
-7.33703

>  <CNNscore>  (137) 
0.2554426193

>  <CNNaffinity>  (137) 
3.9213817120

>  <CNN_VS>  (137) 
1.0016880035

>  <CNNaffinity_variance>  (137) 
0.1315706223

$$$$
138
     RDKit          3D

 43 45  0  0  0  0  0  0  0  0999 V2000
   17.2519   72.9530    0.7233 P   0  0  2  0  0  0  0  0  0  0  0  0
   16.3468   74.0787   -0.0054 O   0  0  0  0  0  0  0  0  0  0  0  0
   16.4809   71.9144    1.4837 O   0  0  0  0  0  0  0  0  0  0  0  0
   18.3167   73.8109    1.5883 O   0  0  0  0  0  0  0  0  0  0  0  0
   19.6969   73.5306    1.4320 C   0  0  0  0  0  0  0  0  0  0  0  0
   20.6050   71.4250    2.1499 O   0  0  0  0  0  0  0  0  0  0  0  0
   21.4137   72.8440    4.6646 O   0  0  0  0  0  0  0  0  0  0  0  0
   23.7475   72.7525    3.2569 O   0  0  0  0  0  0  0  0  0  0  0  0
   21.3866   73.3297    3.3234 C   0  0  1  0  0  0  0  0  0  0  0  0
   22.5362   72.7454    2.5293 C   0  0  2  0  0  0  0  0  0  0  0  0
   20.1765   72.7191    2.6276 C   0  0  1  0  0  0  0  0  0  0  0  0
   22.0366   71.3402    2.2392 C   0  0  2  0  0  0  0  0  0  0  0  0
   22.1780   73.2206    5.1293 H   0  0  0  0  0  0  0  0  0  0  0  0
   24.0237   73.6685    3.4163 H   0  0  0  0  0  0  0  0  0  0  0  0
   23.7294   69.0882    2.0372 O   0  0  0  0  0  0  0  0  0  0  0  0
   23.9493   69.4366   -2.5532 O   0  0  0  0  0  0  0  0  0  0  0  0
   22.5509   70.8203    1.0037 N   0  0  0  0  0  0  0  0  0  0  0  0
   23.8374   69.2634   -0.2483 N   0  0  0  0  0  0  0  0  0  0  0  0
   23.3942   69.6848    1.0118 C   0  0  0  0  0  0  0  0  0  0  0  0
   22.2181   71.4346   -0.1987 C   0  0  0  0  0  0  0  0  0  0  0  0
   22.6500   71.0211   -1.3918 C   0  0  0  0  0  0  0  0  0  0  0  0
   23.5354   69.8413   -1.4712 C   0  0  0  0  0  0  0  0  0  0  0  0
   24.4264   68.4744   -0.2672 H   0  0  0  0  0  0  0  0  0  0  0  0
   18.1519   72.3709   -0.4868 O   0  0  0  0  0  0  0  0  0  0  0  0
   18.1148   70.9444   -1.2462 P   0  0  2  0  0  0  0  0  0  0  0  0
   16.6162   70.4082   -0.9556 O   0  0  0  0  0  0  0  0  0  0  0  0
   19.2028   69.9973   -0.8302 O   0  0  0  0  0  0  0  0  0  0  0  0
   18.1169   71.3174   -2.8165 O   0  0  0  0  0  0  0  0  0  0  0  0
   18.3682   69.2105   -3.8720 O   0  0  0  0  0  0  0  0  0  0  0  0
   17.9719   71.5859   -7.2263 O   0  0  0  0  0  0  0  0  0  0  0  0
   15.8154   69.8541   -6.4524 O   0  0  0  0  0  0  0  0  0  0  0  0
   19.4705   72.5482   -4.9444 O   0  0  0  0  0  0  0  0  0  0  0  0
   17.7189   71.1834   -5.8775 C   0  0  1  0  0  0  0  0  0  0  0  0
   17.1267   69.7729   -5.9008 C   0  0  1  0  0  0  0  0  0  0  0  0
   19.0315   71.2026   -5.0964 C   0  0  2  0  0  0  0  0  0  0  0  0
   17.0769   69.1696   -4.4907 C   0  0  1  0  0  0  0  0  0  0  0  0
   18.8842   70.5351   -3.7278 C   0  0  1  0  0  0  0  0  0  0  0  0
   17.1423   71.5763   -7.7276 H   0  0  0  0  0  0  0  0  0  0  0  0
   15.8609   70.2372   -7.3426 H   0  0  0  0  0  0  0  0  0  0  0  0
   19.5602   72.9595   -5.8177 H   0  0  0  0  0  0  0  0  0  0  0  0
   15.2663   67.6545   -4.8586 O   0  0  0  0  0  0  0  0  0  0  0  0
   16.6374   67.7072   -4.5095 C   0  0  0  0  0  0  0  0  0  0  0  0
   14.9728   66.7297   -4.8748 H   0  0  0  0  0  0  0  0  0  0  0  0
 25 28  1  0
 25 24  1  0
 25 26  1  1
 25 27  2  0
  1  4  1  0
  1 24  1  0
  1  2  1  6
  1  3  2  0
  6 11  1  0
  6 12  1  0
 29 36  1  0
 29 37  1  0
  9  7  1  1
  7 13  1  0
 10  8  1  1
  8 14  1  0
 37 28  1  1
  4  5  1  0
 33 30  1  6
 30 38  1  0
 34 31  1  1
 31 39  1  0
 35 32  1  1
 32 40  1  0
 41 42  1  0
 41 43  1  0
 15 19  2  0
 16 22  2  0
 12 17  1  6
 17 19  1  0
 17 20  1  0
 18 19  1  0
 18 22  1  0
 18 23  1  0
  9 10  1  0
  9 11  1  0
 10 12  1  0
 11  5  1  6
 33 34  1  0
 33 35  1  0
 34 36  1  0
 35 37  1  0
 36 42  1  6
 20 21  2  0
 21 22  1  0
M  CHG  2   2  -1  26  -1
M  END
>  <COMPND>  (138) 
    8629 

>  <AUTHOR>  (138) 
    GENERATED BY OPEN BABEL 3.1.1

>  <MASTER>  (138) 
        0    0    0    0    0    0    0    0   58    0   58    0

>  <minimizedAffinity>  (138) 
-7.92437

>  <CNNscore>  (138) 
0.2552570701

>  <CNNaffinity>  (138) 
3.9359879494

>  <CNN_VS>  (138) 
1.0046887398

>  <CNNaffinity_variance>  (138) 
0.5740867853

$$$$
139
     RDKit          3D

 43 45  0  0  0  0  0  0  0  0999 V2000
   22.7177   73.1071   -3.2211 P   0  0  2  0  0  0  0  0  0  0  0  0
   23.8597   72.6171   -4.2569 O   0  0  0  0  0  0  0  0  0  0  0  0
   22.8510   74.5276   -2.7563 O   0  0  0  0  0  0  0  0  0  0  0  0
   22.7397   71.9824   -2.0581 O   0  0  0  0  0  0  0  0  0  0  0  0
   22.6703   72.4050   -0.7074 C   0  0  0  0  0  0  0  0  0  0  0  0
   21.8337   70.1527   -0.6712 O   0  0  0  0  0  0  0  0  0  0  0  0
   21.5291   70.5124    2.2900 O   0  0  0  0  0  0  0  0  0  0  0  0
   23.8381   69.0740    2.1004 O   0  0  0  0  0  0  0  0  0  0  0  0
   22.5416   71.0148    1.4196 C   0  0  1  0  0  0  0  0  0  0  0  0
   23.4839   69.9017    1.0113 C   0  0  2  0  0  0  0  0  0  0  0  0
   21.8836   71.3768    0.0939 C   0  0  1  0  0  0  0  0  0  0  0  0
   22.6681   69.1680   -0.0396 C   0  0  2  0  0  0  0  0  0  0  0  0
   21.9254   70.2747    3.1435 H   0  0  0  0  0  0  0  0  0  0  0  0
   24.3556   69.5863    2.7411 H   0  0  0  0  0  0  0  0  0  0  0  0
   22.8969   66.3769   -0.4075 O   0  0  0  0  0  0  0  0  0  0  0  0
   25.8621   66.8954   -3.8974 O   0  0  0  0  0  0  0  0  0  0  0  0
   23.4925   68.5462   -1.0371 N   0  0  0  0  0  0  0  0  0  0  0  0
   24.3730   66.6373   -2.1450 N   0  0  0  0  0  0  0  0  0  0  0  0
   23.5373   67.1361   -1.1376 C   0  0  0  0  0  0  0  0  0  0  0  0
   24.2450   69.3325   -1.9027 C   0  0  0  0  0  0  0  0  0  0  0  0
   25.0381   68.8413   -2.8572 C   0  0  0  0  0  0  0  0  0  0  0  0
   25.1416   67.3778   -3.0291 C   0  0  0  0  0  0  0  0  0  0  0  0
   24.4204   65.6577   -2.2335 H   0  0  0  0  0  0  0  0  0  0  0  0
   21.3460   72.7843   -4.0129 O   0  0  0  0  0  0  0  0  0  0  0  0
   20.2181   71.6532   -3.7649 P   0  0  2  0  0  0  0  0  0  0  0  0
   19.4641   72.1677   -2.4291 O   0  0  0  0  0  0  0  0  0  0  0  0
   20.7582   70.2555   -3.6717 O   0  0  0  0  0  0  0  0  0  0  0  0
   19.1462   71.8783   -4.9503 O   0  0  0  0  0  0  0  0  0  0  0  0
   17.1771   73.0450   -5.5653 O   0  0  0  0  0  0  0  0  0  0  0  0
   15.7179   69.1837   -5.6757 O   0  0  0  0  0  0  0  0  0  0  0  0
   16.1628   70.6022   -8.1329 O   0  0  0  0  0  0  0  0  0  0  0  0
   17.5953   69.9594   -3.6133 O   0  0  0  0  0  0  0  0  0  0  0  0
   16.7008   70.2102   -5.8356 C   0  0  1  0  0  0  0  0  0  0  0  0
   16.1732   71.2253   -6.8515 C   0  0  1  0  0  0  0  0  0  0  0  0
   16.9475   70.8798   -4.4850 C   0  0  2  0  0  0  0  0  0  0  0  0
   17.0460   72.4873   -6.8781 C   0  0  1  0  0  0  0  0  0  0  0  0
   17.7847   72.1520   -4.6298 C   0  0  1  0  0  0  0  0  0  0  0  0
   15.5570   68.7542   -6.5296 H   0  0  0  0  0  0  0  0  0  0  0  0
   15.6086   69.8065   -8.1024 H   0  0  0  0  0  0  0  0  0  0  0  0
   17.0553   69.1587   -3.5297 H   0  0  0  0  0  0  0  0  0  0  0  0
   17.4297   74.5784   -7.9685 O   0  0  0  0  0  0  0  0  0  0  0  0
   16.4502   73.5761   -7.7678 C   0  0  0  0  0  0  0  0  0  0  0  0
   17.0646   75.2779   -8.5334 H   0  0  0  0  0  0  0  0  0  0  0  0
 25 28  1  0
 25 24  1  0
 25 26  1  1
 25 27  2  0
  1  4  1  0
  1 24  1  0
  1  2  1  6
  1  3  2  0
  6 11  1  0
  6 12  1  0
 29 36  1  0
 29 37  1  0
  9  7  1  1
  7 13  1  0
 10  8  1  1
  8 14  1  0
 37 28  1  6
  4  5  1  0
 33 30  1  1
 30 38  1  0
 34 31  1  6
 31 39  1  0
 35 32  1  1
 32 40  1  0
 41 42  1  0
 41 43  1  0
 15 19  2  0
 16 22  2  0
 12 17  1  6
 17 19  1  0
 17 20  1  0
 18 19  1  0
 18 22  1  0
 18 23  1  0
  9 10  1  0
  9 11  1  0
 10 12  1  0
 11  5  1  6
 33 34  1  0
 33 35  1  0
 34 36  1  0
 35 37  1  0
 36 42  1  6
 20 21  2  0
 21 22  1  0
M  CHG  2   2  -1  26  -1
M  END
>  <COMPND>  (139) 
    8629 

>  <AUTHOR>  (139) 
    GENERATED BY OPEN BABEL 3.1.1

>  <MASTER>  (139) 
        0    0    0    0    0    0    0    0   58    0   58    0

>  <minimizedAffinity>  (139) 
-8.05169

>  <CNNscore>  (139) 
0.2532487810

>  <CNNaffinity>  (139) 
4.0465645790

>  <CNN_VS>  (139) 
1.0247875452

>  <CNNaffinity_variance>  (139) 
0.4373764396

$$$$
140
     RDKit          3D

 43 45  0  0  0  0  0  0  0  0999 V2000
   18.0732   69.2979   -3.7075 P   0  0  2  0  0  0  0  0  0  0  0  0
   19.6493   69.3429   -4.0699 O   0  0  0  0  0  0  0  0  0  0  0  0
   17.4392   67.9414   -3.8041 O   0  0  0  0  0  0  0  0  0  0  0  0
   17.4256   70.4447   -4.6474 O   0  0  0  0  0  0  0  0  0  0  0  0
   16.6072   70.0464   -5.7334 C   0  0  0  0  0  0  0  0  0  0  0  0
   16.1202   71.6113   -7.4906 O   0  0  0  0  0  0  0  0  0  0  0  0
   19.0677   71.6244   -8.0409 O   0  0  0  0  0  0  0  0  0  0  0  0
   18.7163   73.9312   -6.6296 O   0  0  0  0  0  0  0  0  0  0  0  0
   18.3834   71.5283   -6.7928 C   0  0  1  0  0  0  0  0  0  0  0  0
   17.8065   72.8737   -6.4045 C   0  0  2  0  0  0  0  0  0  0  0  0
   17.1270   70.6941   -7.0095 C   0  0  1  0  0  0  0  0  0  0  0  0
   16.5788   72.9591   -7.2954 C   0  0  2  0  0  0  0  0  0  0  0  0
   19.8740   72.1526   -7.9276 H   0  0  0  0  0  0  0  0  0  0  0  0
   19.4797   73.8323   -6.0395 H   0  0  0  0  0  0  0  0  0  0  0  0
   14.6506   74.4180   -8.7554 O   0  0  0  0  0  0  0  0  0  0  0  0
   12.5758   75.8791   -4.9081 O   0  0  0  0  0  0  0  0  0  0  0  0
   15.5231   73.7293   -6.7007 N   0  0  0  0  0  0  0  0  0  0  0  0
   13.6190   75.1441   -6.8386 N   0  0  0  0  0  0  0  0  0  0  0  0
   14.6075   74.4260   -7.5234 C   0  0  0  0  0  0  0  0  0  0  0  0
   15.4033   73.7882   -5.3165 C   0  0  0  0  0  0  0  0  0  0  0  0
   14.4557   74.4787   -4.6789 C   0  0  0  0  0  0  0  0  0  0  0  0
   13.4592   75.2345   -5.4649 C   0  0  0  0  0  0  0  0  0  0  0  0
   12.9702   75.6376   -7.3911 H   0  0  0  0  0  0  0  0  0  0  0  0
   18.0197   69.9621   -2.2348 O   0  0  0  0  0  0  0  0  0  0  0  0
   18.8756   71.1684   -1.5826 P   0  0  2  0  0  0  0  0  0  0  0  0
   18.1390   71.4217   -0.1646 O   0  0  0  0  0  0  0  0  0  0  0  0
   18.9816   72.3878   -2.4519 O   0  0  0  0  0  0  0  0  0  0  0  0
   20.2920   70.5000   -1.1925 O   0  0  0  0  0  0  0  0  0  0  0  0
   22.1642   71.0757    0.1416 O   0  0  0  0  0  0  0  0  0  0  0  0
   24.1372   69.8773   -3.2821 O   0  0  0  0  0  0  0  0  0  0  0  0
   24.2091   68.2080   -0.9462 O   0  0  0  0  0  0  0  0  0  0  0  0
   21.6592   71.3595   -3.4874 O   0  0  0  0  0  0  0  0  0  0  0  0
   23.1026   69.8441   -2.2952 C   0  0  1  0  0  0  0  0  0  0  0  0
   23.7446   69.5551   -0.9369 C   0  0  1  0  0  0  0  0  0  0  0  0
   22.3878   71.1939   -2.2758 C   0  0  2  0  0  0  0  0  0  0  0  0
   22.7424   69.7668    0.2058 C   0  0  1  0  0  0  0  0  0  0  0  0
   21.4515   71.3199   -1.0726 C   0  0  1  0  0  0  0  0  0  0  0  0
   24.5947   69.0230   -3.2999 H   0  0  0  0  0  0  0  0  0  0  0  0
   24.8408   68.0876   -1.6726 H   0  0  0  0  0  0  0  0  0  0  0  0
   22.2631   71.2779   -4.2415 H   0  0  0  0  0  0  0  0  0  0  0  0
   24.7338   70.1098    1.4809 O   0  0  0  0  0  0  0  0  0  0  0  0
   23.4026   69.6376    1.5768 C   0  0  0  0  0  0  0  0  0  0  0  0
   25.1663   70.0339    2.3463 H   0  0  0  0  0  0  0  0  0  0  0  0
 25 28  1  0
 25 24  1  0
 25 26  1  1
 25 27  2  0
  1  4  1  0
  1 24  1  0
  1  2  1  6
  1  3  2  0
  6 11  1  0
  6 12  1  0
 29 36  1  0
 29 37  1  0
  9  7  1  6
  7 13  1  0
 10  8  1  6
  8 14  1  0
 37 28  1  6
  4  5  1  0
 33 30  1  6
 30 38  1  0
 34 31  1  6
 31 39  1  0
 35 32  1  6
 32 40  1  0
 41 42  1  0
 41 43  1  0
 15 19  2  0
 16 22  2  0
 12 17  1  1
 17 19  1  0
 17 20  1  0
 18 19  1  0
 18 22  1  0
 18 23  1  0
  9 10  1  0
  9 11  1  0
 10 12  1  0
 11  5  1  1
 33 34  1  0
 33 35  1  0
 34 36  1  0
 35 37  1  0
 36 42  1  1
 20 21  2  0
 21 22  1  0
M  CHG  2   2  -1  26  -1
M  END
>  <COMPND>  (140) 
    8629 

>  <AUTHOR>  (140) 
    GENERATED BY OPEN BABEL 3.1.1

>  <MASTER>  (140) 
        0    0    0    0    0    0    0    0   58    0   58    0

>  <minimizedAffinity>  (140) 
-7.19267

>  <CNNscore>  (140) 
0.2437752038

>  <CNNaffinity>  (140) 
3.7485153675

>  <CNN_VS>  (140) 
0.9137951136

>  <CNNaffinity_variance>  (140) 
0.3245036602

$$$$
141
     RDKit          3D

 43 45  0  0  0  0  0  0  0  0999 V2000
   20.8912   72.3681   -1.7841 P   0  0  2  0  0  0  0  0  0  0  0  0
   21.0040   73.9290   -2.1946 O   0  0  0  0  0  0  0  0  0  0  0  0
   22.0046   71.4980   -2.2888 O   0  0  0  0  0  0  0  0  0  0  0  0
   19.4020   71.9487   -2.2574 O   0  0  0  0  0  0  0  0  0  0  0  0
   18.5772   72.9371   -2.8496 C   0  0  0  0  0  0  0  0  0  0  0  0
   16.8934   72.3413   -4.4569 O   0  0  0  0  0  0  0  0  0  0  0  0
   15.6684   70.6826   -2.2800 O   0  0  0  0  0  0  0  0  0  0  0  0
   16.9835   68.8210   -3.7772 O   0  0  0  0  0  0  0  0  0  0  0  0
   17.0455   70.9261   -2.5623 C   0  0  1  0  0  0  0  0  0  0  0  0
   17.4776   70.1448   -3.7856 C   0  0  2  0  0  0  0  0  0  0  0  0
   17.1788   72.3663   -3.0412 C   0  0  1  0  0  0  0  0  0  0  0  0
   16.8955   70.9790   -4.9140 C   0  0  2  0  0  0  0  0  0  0  0  0
   15.5584   69.7688   -1.9720 H   0  0  0  0  0  0  0  0  0  0  0  0
   17.3833   68.3311   -3.0417 H   0  0  0  0  0  0  0  0  0  0  0  0
   15.8404   70.3393   -7.4547 O   0  0  0  0  0  0  0  0  0  0  0  0
   19.9769   70.6730   -9.4594 O   0  0  0  0  0  0  0  0  0  0  0  0
   17.6741   70.8921   -6.1172 N   0  0  0  0  0  0  0  0  0  0  0  0
   17.9009   70.5061   -8.4509 N   0  0  0  0  0  0  0  0  0  0  0  0
   17.0474   70.5628   -7.3417 C   0  0  0  0  0  0  0  0  0  0  0  0
   19.0431   71.1325   -6.0756 C   0  0  0  0  0  0  0  0  0  0  0  0
   19.8432   71.0732   -7.1422 C   0  0  0  0  0  0  0  0  0  0  0  0
   19.2676   70.7355   -8.4600 C   0  0  0  0  0  0  0  0  0  0  0  0
   17.4865   70.2781   -9.3146 H   0  0  0  0  0  0  0  0  0  0  0  0
   20.7584   72.4244   -0.1741 O   0  0  0  0  0  0  0  0  0  0  0  0
   20.1580   71.3556    0.8795 P   0  0  2  0  0  0  0  0  0  0  0  0
   20.0338   70.0009    0.0038 O   0  0  0  0  0  0  0  0  0  0  0  0
   18.8785   71.7892    1.5343 O   0  0  0  0  0  0  0  0  0  0  0  0
   21.3704   71.0681    1.9054 O   0  0  0  0  0  0  0  0  0  0  0  0
   23.0550   72.7103    2.1913 O   0  0  0  0  0  0  0  0  0  0  0  0
   25.1055   69.4110    3.5915 O   0  0  0  0  0  0  0  0  0  0  0  0
   24.2014   71.4101    5.4446 O   0  0  0  0  0  0  0  0  0  0  0  0
   23.3342   69.1519    1.3166 O   0  0  0  0  0  0  0  0  0  0  0  0
   23.9579   70.2365    3.3748 C   0  0  1  0  0  0  0  0  0  0  0  0
   24.2131   71.5945    4.0318 C   0  0  1  0  0  0  0  0  0  0  0  0
   23.7367   70.3993    1.8722 C   0  0  2  0  0  0  0  0  0  0  0  0
   23.1481   72.6189    3.6178 C   0  0  1  0  0  0  0  0  0  0  0  0
   22.6936   71.4762    1.5682 C   0  0  1  0  0  0  0  0  0  0  0  0
   25.2513   69.3033    4.5437 H   0  0  0  0  0  0  0  0  0  0  0  0
   24.8780   70.7606    5.6928 H   0  0  0  0  0  0  0  0  0  0  0  0
   24.0029   68.4787    1.5156 H   0  0  0  0  0  0  0  0  0  0  0  0
   24.8760   74.1435    4.2496 O   0  0  0  0  0  0  0  0  0  0  0  0
   23.4704   74.0194    4.1344 C   0  0  0  0  0  0  0  0  0  0  0  0
   25.0959   75.0301    4.5772 H   0  0  0  0  0  0  0  0  0  0  0  0
 25 28  1  0
 25 24  1  0
 25 26  1  6
 25 27  2  0
  1  4  1  0
  1 24  1  0
  1  2  1  6
  1  3  2  0
  6 11  1  0
  6 12  1  0
 29 36  1  0
 29 37  1  0
  9  7  1  6
  7 13  1  0
 10  8  1  1
  8 14  1  0
 37 28  1  1
  4  5  1  0
 33 30  1  6
 30 38  1  0
 34 31  1  1
 31 39  1  0
 35 32  1  1
 32 40  1  0
 41 42  1  0
 41 43  1  0
 15 19  2  0
 16 22  2  0
 12 17  1  6
 17 19  1  0
 17 20  1  0
 18 19  1  0
 18 22  1  0
 18 23  1  0
  9 10  1  0
  9 11  1  0
 10 12  1  0
 11  5  1  6
 33 34  1  0
 33 35  1  0
 34 36  1  0
 35 37  1  0
 36 42  1  1
 20 21  2  0
 21 22  1  0
M  CHG  2   2  -1  26  -1
M  END
>  <COMPND>  (141) 
    8629 

>  <AUTHOR>  (141) 
    GENERATED BY OPEN BABEL 3.1.1

>  <MASTER>  (141) 
        0    0    0    0    0    0    0    0   58    0   58    0

>  <minimizedAffinity>  (141) 
-7.74196

>  <CNNscore>  (141) 
0.8096535802

>  <CNNaffinity>  (141) 
4.6388235092

>  <CNN_VS>  (141) 
3.7558400631

>  <CNNaffinity_variance>  (141) 
0.0765772834

$$$$
142
     RDKit          3D

 43 45  0  0  0  0  0  0  0  0999 V2000
   20.7928   74.9852   -2.7906 P   0  0  2  0  0  0  0  0  0  0  0  0
   21.0542   75.0783   -1.1968 O   0  0  0  0  0  0  0  0  0  0  0  0
   20.3774   76.2720   -3.4410 O   0  0  0  0  0  0  0  0  0  0  0  0
   19.7542   73.7539   -2.9425 O   0  0  0  0  0  0  0  0  0  0  0  0
   18.7300   73.8496   -3.9170 C   0  0  0  0  0  0  0  0  0  0  0  0
   17.1452   72.3173   -4.8733 O   0  0  0  0  0  0  0  0  0  0  0  0
   17.1099   70.9735   -2.1930 O   0  0  0  0  0  0  0  0  0  0  0  0
   18.7418   69.3471   -3.6519 O   0  0  0  0  0  0  0  0  0  0  0  0
   18.1990   71.5878   -2.8800 C   0  0  1  0  0  0  0  0  0  0  0  0
   18.6632   70.7084   -4.0223 C   0  0  2  0  0  0  0  0  0  0  0  0
   17.6607   72.8082   -3.6164 C   0  0  1  0  0  0  0  0  0  0  0  0
   17.5970   70.9679   -5.0730 C   0  0  2  0  0  0  0  0  0  0  0  0
   17.4292   70.1917   -1.7148 H   0  0  0  0  0  0  0  0  0  0  0  0
   19.4338   69.2335   -2.9818 H   0  0  0  0  0  0  0  0  0  0  0  0
   16.0374   70.2121   -7.3034 O   0  0  0  0  0  0  0  0  0  0  0  0
   19.6455   70.5034  -10.1560 O   0  0  0  0  0  0  0  0  0  0  0  0
   18.1031   70.8387   -6.4104 N   0  0  0  0  0  0  0  0  0  0  0  0
   17.8352   70.3579   -8.7220 N   0  0  0  0  0  0  0  0  0  0  0  0
   17.2364   70.4523   -7.4592 C   0  0  0  0  0  0  0  0  0  0  0  0
   19.4449   71.0943   -6.6712 C   0  0  0  0  0  0  0  0  0  0  0  0
   20.0007   70.9986   -7.8809 C   0  0  0  0  0  0  0  0  0  0  0  0
   19.1642   70.6005   -9.0314 C   0  0  0  0  0  0  0  0  0  0  0  0
   17.2508   70.0900   -9.4679 H   0  0  0  0  0  0  0  0  0  0  0  0
   22.1764   74.3646   -3.3503 O   0  0  0  0  0  0  0  0  0  0  0  0
   22.5797   72.8478   -3.7373 P   0  0  2  0  0  0  0  0  0  0  0  0
   24.1337   72.9757   -4.1689 O   0  0  0  0  0  0  0  0  0  0  0  0
   21.6972   72.2231   -4.7788 O   0  0  0  0  0  0  0  0  0  0  0  0
   22.6114   72.0614   -2.3282 O   0  0  0  0  0  0  0  0  0  0  0  0
   22.3392   69.7071   -2.3232 O   0  0  0  0  0  0  0  0  0  0  0  0
   21.3685   70.4919    1.6129 O   0  0  0  0  0  0  0  0  0  0  0  0
   23.8724   69.2284    0.9947 O   0  0  0  0  0  0  0  0  0  0  0  0
   20.5199   72.3100   -0.4737 O   0  0  0  0  0  0  0  0  0  0  0  0
   22.0724   70.6795    0.3822 C   0  0  1  0  0  0  0  0  0  0  0  0
   22.8152   69.3833    0.0521 C   0  0  1  0  0  0  0  0  0  0  0  0
   21.0703   71.0203   -0.7192 C   0  0  2  0  0  0  0  0  0  0  0  0
   23.3737   69.4134   -1.3770 C   0  0  1  0  0  0  0  0  0  0  0  0
   21.7167   70.9747   -2.1049 C   0  0  1  0  0  0  0  0  0  0  0  0
   21.9991   70.2757    2.3164 H   0  0  0  0  0  0  0  0  0  0  0  0
   23.5064   69.2115    1.8930 H   0  0  0  0  0  0  0  0  0  0  0  0
   20.1135   72.3259    0.4063 H   0  0  0  0  0  0  0  0  0  0  0  0
   23.3700   67.0518   -1.0138 O   0  0  0  0  0  0  0  0  0  0  0  0
   23.9809   68.0720   -1.7821 C   0  0  0  0  0  0  0  0  0  0  0  0
   23.7465   66.1923   -1.2611 H   0  0  0  0  0  0  0  0  0  0  0  0
 25 28  1  0
 25 24  1  0
 25 26  1  6
 25 27  2  0
  1  4  1  0
  1 24  1  0
  1  2  1  1
  1  3  2  0
  6 11  1  0
  6 12  1  0
 29 36  1  0
 29 37  1  0
  9  7  1  6
  7 13  1  0
 10  8  1  1
  8 14  1  0
 37 28  1  1
  4  5  1  0
 33 30  1  1
 30 38  1  0
 34 31  1  1
 31 39  1  0
 35 32  1  1
 32 40  1  0
 41 42  1  0
 41 43  1  0
 15 19  2  0
 16 22  2  0
 12 17  1  6
 17 19  1  0
 17 20  1  0
 18 19  1  0
 18 22  1  0
 18 23  1  0
  9 10  1  0
  9 11  1  0
 10 12  1  0
 11  5  1  6
 33 34  1  0
 33 35  1  0
 34 36  1  0
 35 37  1  0
 36 42  1  6
 20 21  2  0
 21 22  1  0
M  CHG  2   2  -1  26  -1
M  END
>  <COMPND>  (142) 
    8629 

>  <AUTHOR>  (142) 
    GENERATED BY OPEN BABEL 3.1.1

>  <MASTER>  (142) 
        0    0    0    0    0    0    0    0   58    0   58    0

>  <minimizedAffinity>  (142) 
-7.44521

>  <CNNscore>  (142) 
0.7637141347

>  <CNNaffinity>  (142) 
4.6217083931

>  <CNN_VS>  (142) 
3.5296640396

>  <CNNaffinity_variance>  (142) 
0.1181582361

$$$$
143
     RDKit          3D

 43 45  0  0  0  0  0  0  0  0999 V2000
   19.9115   70.7333   -1.8291 P   0  0  2  0  0  0  0  0  0  0  0  0
   19.9039   70.2964   -3.3869 O   0  0  0  0  0  0  0  0  0  0  0  0
   18.8970   70.0367   -0.9706 O   0  0  0  0  0  0  0  0  0  0  0  0
   19.8016   72.3468   -1.8777 O   0  0  0  0  0  0  0  0  0  0  0  0
   20.0384   73.0038   -3.1106 C   0  0  0  0  0  0  0  0  0  0  0  0
   18.7388   73.8599   -4.9415 O   0  0  0  0  0  0  0  0  0  0  0  0
   16.4913   74.1300   -2.9751 O   0  0  0  0  0  0  0  0  0  0  0  0
   15.8479   71.8360   -4.3018 O   0  0  0  0  0  0  0  0  0  0  0  0
   17.4974   73.1223   -3.0625 C   0  0  1  0  0  0  0  0  0  0  0  0
   17.2126   72.1944   -4.2250 C   0  0  2  0  0  0  0  0  0  0  0  0
   18.7947   73.7911   -3.4998 C   0  0  1  0  0  0  0  0  0  0  0  0
   17.6659   73.0277   -5.4117 C   0  0  2  0  0  0  0  0  0  0  0  0
   15.6534   73.7269   -2.6970 H   0  0  0  0  0  0  0  0  0  0  0  0
   15.6081   71.3073   -3.5248 H   0  0  0  0  0  0  0  0  0  0  0  0
   16.0147   71.8841   -7.3976 O   0  0  0  0  0  0  0  0  0  0  0  0
   19.6107   69.9438   -9.5295 O   0  0  0  0  0  0  0  0  0  0  0  0
   18.1442   72.2195   -6.4977 N   0  0  0  0  0  0  0  0  0  0  0  0
   17.8066   70.9191   -8.4576 N   0  0  0  0  0  0  0  0  0  0  0  0
   17.2316   71.6921   -7.4408 C   0  0  0  0  0  0  0  0  0  0  0  0
   19.5045   71.9573   -6.6196 C   0  0  0  0  0  0  0  0  0  0  0  0
   20.0366   71.2172   -7.5944 C   0  0  0  0  0  0  0  0  0  0  0  0
   19.1520   70.6291   -8.6208 C   0  0  0  0  0  0  0  0  0  0  0  0
   17.1900   70.5410   -9.1260 H   0  0  0  0  0  0  0  0  0  0  0  0
   21.4475   70.4867   -1.3900 O   0  0  0  0  0  0  0  0  0  0  0  0
   22.0851   69.9972    0.0124 P   0  0  2  0  0  0  0  0  0  0  0  0
   23.5369   69.4281   -0.4187 O   0  0  0  0  0  0  0  0  0  0  0  0
   21.2344   69.0164    0.7661 O   0  0  0  0  0  0  0  0  0  0  0  0
   22.4037   71.3611    0.8145 O   0  0  0  0  0  0  0  0  0  0  0  0
   22.3409   71.2334    3.1802 O   0  0  0  0  0  0  0  0  0  0  0  0
   22.1496   75.3342    2.7353 O   0  0  0  0  0  0  0  0  0  0  0  0
   24.5681   74.1242    3.7022 O   0  0  0  0  0  0  0  0  0  0  0  0
   20.7320   73.6138    0.8887 O   0  0  0  0  0  0  0  0  0  0  0  0
   22.5625   74.0056    2.4042 C   0  0  1  0  0  0  0  0  0  0  0  0
   23.3281   73.4300    3.5973 C   0  0  1  0  0  0  0  0  0  0  0  0
   21.3272   73.1603    2.0997 C   0  0  2  0  0  0  0  0  0  0  0  0
   23.5713   71.9246    3.4254 C   0  0  1  0  0  0  0  0  0  0  0  0
   21.6716   71.6733    1.9968 C   0  0  1  0  0  0  0  0  0  0  0  0
   22.9293   75.8763    2.9293 H   0  0  0  0  0  0  0  0  0  0  0  0
   24.4004   75.0736    3.8098 H   0  0  0  0  0  0  0  0  0  0  0  0
   20.5183   74.5562    0.9667 H   0  0  0  0  0  0  0  0  0  0  0  0
   23.4771   70.1200    4.9885 O   0  0  0  0  0  0  0  0  0  0  0  0
   24.1931   71.2996    4.6723 C   0  0  0  0  0  0  0  0  0  0  0  0
   23.8619   69.7112    5.7801 H   0  0  0  0  0  0  0  0  0  0  0  0
 25 28  1  0
 25 24  1  0
 25 26  1  6
 25 27  2  0
  1  4  1  0
  1 24  1  0
  1  2  1  6
  1  3  2  0
  6 11  1  0
  6 12  1  0
 29 36  1  0
 29 37  1  0
  9  7  1  6
  7 13  1  0
 10  8  1  6
  8 14  1  0
 37 28  1  6
  4  5  1  0
 33 30  1  1
 30 38  1  0
 34 31  1  6
 31 39  1  0
 35 32  1  6
 32 40  1  0
 41 42  1  0
 41 43  1  0
 15 19  2  0
 16 22  2  0
 12 17  1  6
 17 19  1  0
 17 20  1  0
 18 19  1  0
 18 22  1  0
 18 23  1  0
  9 10  1  0
  9 11  1  0
 10 12  1  0
 11  5  1  6
 33 34  1  0
 33 35  1  0
 34 36  1  0
 35 37  1  0
 36 42  1  1
 20 21  2  0
 21 22  1  0
M  CHG  2   2  -1  26  -1
M  END
>  <COMPND>  (143) 
    8629 

>  <AUTHOR>  (143) 
    GENERATED BY OPEN BABEL 3.1.1

>  <MASTER>  (143) 
        0    0    0    0    0    0    0    0   58    0   58    0

>  <minimizedAffinity>  (143) 
-7.50490

>  <CNNscore>  (143) 
0.6678125858

>  <CNNaffinity>  (143) 
4.3671665192

>  <CNN_VS>  (143) 
2.9164488316

>  <CNNaffinity_variance>  (143) 
0.0189289954

$$$$
144
     RDKit          3D

 43 45  0  0  0  0  0  0  0  0999 V2000
   21.9695   71.1216   -1.8871 P   0  0  2  0  0  0  0  0  0  0  0  0
   22.8701   72.3249   -2.4858 O   0  0  0  0  0  0  0  0  0  0  0  0
   21.8927   69.8971   -2.7509 O   0  0  0  0  0  0  0  0  0  0  0  0
   20.5554   71.8288   -1.5434 O   0  0  0  0  0  0  0  0  0  0  0  0
   19.7821   72.3482   -2.6111 C   0  0  0  0  0  0  0  0  0  0  0  0
   17.7051   71.9866   -3.7640 O   0  0  0  0  0  0  0  0  0  0  0  0
   17.0040   70.1179   -1.5263 O   0  0  0  0  0  0  0  0  0  0  0  0
   17.7746   68.4100   -3.5077 O   0  0  0  0  0  0  0  0  0  0  0  0
   18.2701   70.3573   -2.1387 C   0  0  1  0  0  0  0  0  0  0  0  0
   18.3220   69.7128   -3.5082 C   0  0  2  0  0  0  0  0  0  0  0  0
   18.3529   71.8395   -2.4814 C   0  0  1  0  0  0  0  0  0  0  0  0
   17.5115   70.6871   -4.3459 C   0  0  2  0  0  0  0  0  0  0  0  0
   16.9280   69.1777   -1.2981 H   0  0  0  0  0  0  0  0  0  0  0  0
   18.3255   67.8279   -2.9614 H   0  0  0  0  0  0  0  0  0  0  0  0
   15.9107   69.9115   -6.5399 O   0  0  0  0  0  0  0  0  0  0  0  0
   19.2648   70.8570   -9.5562 O   0  0  0  0  0  0  0  0  0  0  0  0
   17.9411   70.7209   -5.7155 N   0  0  0  0  0  0  0  0  0  0  0  0
   17.5820   70.3831   -8.0400 N   0  0  0  0  0  0  0  0  0  0  0  0
   17.0600   70.3090   -6.7423 C   0  0  0  0  0  0  0  0  0  0  0  0
   19.2231   71.1590   -6.0291 C   0  0  0  0  0  0  0  0  0  0  0  0
   19.7062   71.2225   -7.2716 C   0  0  0  0  0  0  0  0  0  0  0  0
   18.8497   70.8103   -8.4023 C   0  0  0  0  0  0  0  0  0  0  0  0
   16.9862   70.1008   -8.7716 H   0  0  0  0  0  0  0  0  0  0  0  0
   22.6169   70.8751   -0.4266 O   0  0  0  0  0  0  0  0  0  0  0  0
   22.1717   69.8964    0.7805 P   0  0  2  0  0  0  0  0  0  0  0  0
   23.3690   68.8098    0.8380 O   0  0  0  0  0  0  0  0  0  0  0  0
   20.8030   69.3016    0.6174 O   0  0  0  0  0  0  0  0  0  0  0  0
   22.3611   70.7827    2.1160 O   0  0  0  0  0  0  0  0  0  0  0  0
   21.5396   72.9552    1.6447 O   0  0  0  0  0  0  0  0  0  0  0  0
   22.9221   73.5909    5.4834 O   0  0  0  0  0  0  0  0  0  0  0  0
   20.0943   73.4701    4.9965 O   0  0  0  0  0  0  0  0  0  0  0  0
   24.4137   71.8936    3.6740 O   0  0  0  0  0  0  0  0  0  0  0  0
   22.3288   72.8414    4.4196 C   0  0  1  0  0  0  0  0  0  0  0  0
   21.0674   73.5758    3.9610 C   0  0  1  0  0  0  0  0  0  0  0  0
   23.3302   72.7249    3.2721 C   0  0  2  0  0  0  0  0  0  0  0  0
   20.5242   72.9813    2.6546 C   0  0  1  0  0  0  0  0  0  0  0  0
   22.6763   72.1683    2.0061 C   0  0  1  0  0  0  0  0  0  0  0  0
   22.2915   73.6682    6.2154 H   0  0  0  0  0  0  0  0  0  0  0  0
   20.4500   73.8486    5.8159 H   0  0  0  0  0  0  0  0  0  0  0  0
   24.8194   72.2568    4.4761 H   0  0  0  0  0  0  0  0  0  0  0  0
   19.3657   73.6792    0.6850 O   0  0  0  0  0  0  0  0  0  0  0  0
   19.3600   73.7964    2.0958 C   0  0  0  0  0  0  0  0  0  0  0  0
   18.6299   74.1927    0.3155 H   0  0  0  0  0  0  0  0  0  0  0  0
 25 28  1  0
 25 24  1  0
 25 26  1  1
 25 27  2  0
  1  4  1  0
  1 24  1  0
  1  2  1  6
  1  3  2  0
  6 11  1  0
  6 12  1  0
 29 36  1  0
 29 37  1  0
  9  7  1  6
  7 13  1  0
 10  8  1  1
  8 14  1  0
 37 28  1  1
  4  5  1  0
 33 30  1  1
 30 38  1  0
 34 31  1  1
 31 39  1  0
 35 32  1  1
 32 40  1  0
 41 42  1  0
 41 43  1  0
 15 19  2  0
 16 22  2  0
 12 17  1  6
 17 19  1  0
 17 20  1  0
 18 19  1  0
 18 22  1  0
 18 23  1  0
  9 10  1  0
  9 11  1  0
 10 12  1  0
 11  5  1  6
 33 34  1  0
 33 35  1  0
 34 36  1  0
 35 37  1  0
 36 42  1  6
 20 21  2  0
 21 22  1  0
M  CHG  2   2  -1  26  -1
M  END
>  <COMPND>  (144) 
    8629 

>  <AUTHOR>  (144) 
    GENERATED BY OPEN BABEL 3.1.1

>  <MASTER>  (144) 
        0    0    0    0    0    0    0    0   58    0   58    0

>  <minimizedAffinity>  (144) 
-8.22156

>  <CNNscore>  (144) 
0.6653023958

>  <CNNaffinity>  (144) 
4.6329140663

>  <CNN_VS>  (144) 
3.0822887421

>  <CNNaffinity_variance>  (144) 
0.0122548547

$$$$
145
     RDKit          3D

 43 45  0  0  0  0  0  0  0  0999 V2000
   22.9249   69.5612   -2.2280 P   0  0  2  0  0  0  0  0  0  0  0  0
   23.8212   70.4713   -3.2209 O   0  0  0  0  0  0  0  0  0  0  0  0
   23.2786   68.1031   -2.2124 O   0  0  0  0  0  0  0  0  0  0  0  0
   21.4023   69.9104   -2.6495 O   0  0  0  0  0  0  0  0  0  0  0  0
   21.1560   71.1109   -3.3607 C   0  0  0  0  0  0  0  0  0  0  0  0
   19.1967   72.0771   -4.3615 O   0  0  0  0  0  0  0  0  0  0  0  0
   17.6750   70.9207   -2.0511 O   0  0  0  0  0  0  0  0  0  0  0  0
   17.1571   69.1432   -4.0533 O   0  0  0  0  0  0  0  0  0  0  0  0
   18.7948   70.3837   -2.7532 C   0  0  1  0  0  0  0  0  0  0  0  0
   18.3667   69.8712   -4.1125 C   0  0  2  0  0  0  0  0  0  0  0  0
   19.7145   71.5403   -3.1245 C   0  0  1  0  0  0  0  0  0  0  0  0
   18.2357   71.1590   -4.9078 C   0  0  2  0  0  0  0  0  0  0  0  0
   17.0734   70.2006   -1.8031 H   0  0  0  0  0  0  0  0  0  0  0  0
   17.2920   68.3332   -3.5371 H   0  0  0  0  0  0  0  0  0  0  0  0
   16.3020   70.4280   -6.8325 O   0  0  0  0  0  0  0  0  0  0  0  0
   19.4096   70.4641  -10.2359 O   0  0  0  0  0  0  0  0  0  0  0  0
   18.5118   70.9709   -6.3041 N   0  0  0  0  0  0  0  0  0  0  0  0
   17.8509   70.4467   -8.5256 N   0  0  0  0  0  0  0  0  0  0  0  0
   17.4697   70.6029   -7.1868 C   0  0  0  0  0  0  0  0  0  0  0  0
   19.8040   71.1514   -6.7854 C   0  0  0  0  0  0  0  0  0  0  0  0
   20.1513   70.9973   -8.0649 C   0  0  0  0  0  0  0  0  0  0  0  0
   19.1219   70.6136   -9.0523 C   0  0  0  0  0  0  0  0  0  0  0  0
   17.1416   70.1902   -9.1587 H   0  0  0  0  0  0  0  0  0  0  0  0
   23.0880   70.3083   -0.8038 O   0  0  0  0  0  0  0  0  0  0  0  0
   22.4272   69.9995    0.6387 P   0  0  2  0  0  0  0  0  0  0  0  0
   23.5651   69.1283    1.3893 O   0  0  0  0  0  0  0  0  0  0  0  0
   21.0829   69.3346    0.5701 O   0  0  0  0  0  0  0  0  0  0  0  0
   22.4319   71.4211    1.4030 O   0  0  0  0  0  0  0  0  0  0  0  0
   22.7875   72.0492    3.6603 O   0  0  0  0  0  0  0  0  0  0  0  0
   19.6320   74.5581    2.7666 O   0  0  0  0  0  0  0  0  0  0  0  0
   22.2719   75.6498    3.0614 O   0  0  0  0  0  0  0  0  0  0  0  0
   19.6779   71.8632    1.7108 O   0  0  0  0  0  0  0  0  0  0  0  0
   20.8308   73.8258    2.4982 C   0  0  1  0  0  0  0  0  0  0  0  0
   21.9205   74.3246    3.4493 C   0  0  1  0  0  0  0  0  0  0  0  0
   20.5661   72.3374    2.7170 C   0  0  2  0  0  0  0  0  0  0  0  0
   23.1528   73.4110    3.4076 C   0  0  1  0  0  0  0  0  0  0  0  0
   21.8626   71.5255    2.7053 C   0  0  1  0  0  0  0  0  0  0  0  0
   19.7931   75.5039    2.6291 H   0  0  0  0  0  0  0  0  0  0  0  0
   21.4849   76.2163    3.0916 H   0  0  0  0  0  0  0  0  0  0  0  0
   18.8610   72.3849    1.7287 H   0  0  0  0  0  0  0  0  0  0  0  0
   24.9766   74.8564    3.9494 O   0  0  0  0  0  0  0  0  0  0  0  0
   24.1878   73.7982    4.4616 C   0  0  0  0  0  0  0  0  0  0  0  0
   25.6396   75.1136    4.6097 H   0  0  0  0  0  0  0  0  0  0  0  0
 25 28  1  0
 25 24  1  0
 25 26  1  1
 25 27  2  0
  1  4  1  0
  1 24  1  0
  1  2  1  6
  1  3  2  0
  6 11  1  0
  6 12  1  0
 29 36  1  0
 29 37  1  0
  9  7  1  1
  7 13  1  0
 10  8  1  1
  8 14  1  0
 37 28  1  6
  4  5  1  0
 33 30  1  1
 30 38  1  0
 34 31  1  6
 31 39  1  0
 35 32  1  6
 32 40  1  0
 41 42  1  0
 41 43  1  0
 15 19  2  0
 16 22  2  0
 12 17  1  6
 17 19  1  0
 17 20  1  0
 18 19  1  0
 18 22  1  0
 18 23  1  0
  9 10  1  0
  9 11  1  0
 10 12  1  0
 11  5  1  6
 33 34  1  0
 33 35  1  0
 34 36  1  0
 35 37  1  0
 36 42  1  1
 20 21  2  0
 21 22  1  0
M  CHG  2   2  -1  26  -1
M  END
>  <COMPND>  (145) 
    8629 

>  <AUTHOR>  (145) 
    GENERATED BY OPEN BABEL 3.1.1

>  <MASTER>  (145) 
        0    0    0    0    0    0    0    0   58    0   58    0

>  <minimizedAffinity>  (145) 
-8.22264

>  <CNNscore>  (145) 
0.6176621914

>  <CNNaffinity>  (145) 
4.6465120316

>  <CNN_VS>  (145) 
2.8699748516

>  <CNNaffinity_variance>  (145) 
0.0638570338

$$$$
146
     RDKit          3D

 43 45  0  0  0  0  0  0  0  0999 V2000
   22.8739   69.8406   -2.0677 P   0  0  2  0  0  0  0  0  0  0  0  0
   23.7047   70.8954   -2.9701 O   0  0  0  0  0  0  0  0  0  0  0  0
   23.3291   68.4152   -2.1785 O   0  0  0  0  0  0  0  0  0  0  0  0
   21.3308   70.1184   -2.4673 O   0  0  0  0  0  0  0  0  0  0  0  0
   21.0414   71.2011   -3.3345 C   0  0  0  0  0  0  0  0  0  0  0  0
   19.0968   72.1289   -4.3983 O   0  0  0  0  0  0  0  0  0  0  0  0
   17.5313   70.9902   -2.1084 O   0  0  0  0  0  0  0  0  0  0  0  0
   17.0834   69.1764   -4.0949 O   0  0  0  0  0  0  0  0  0  0  0  0
   18.6742   70.4557   -2.7742 C   0  0  1  0  0  0  0  0  0  0  0  0
   18.2858   69.9175   -4.1355 C   0  0  2  0  0  0  0  0  0  0  0  0
   19.5897   71.6171   -3.1407 C   0  0  1  0  0  0  0  0  0  0  0  0
   18.1600   71.1914   -4.9538 C   0  0  2  0  0  0  0  0  0  0  0  0
   16.9319   70.2670   -1.8642 H   0  0  0  0  0  0  0  0  0  0  0  0
   17.2146   68.3760   -3.5630 H   0  0  0  0  0  0  0  0  0  0  0  0
   16.2782   70.4330   -6.9188 O   0  0  0  0  0  0  0  0  0  0  0  0
   19.4741   70.4279  -10.2395 O   0  0  0  0  0  0  0  0  0  0  0  0
   18.4729   70.9853   -6.3397 N   0  0  0  0  0  0  0  0  0  0  0  0
   17.8710   70.4312   -8.5707 N   0  0  0  0  0  0  0  0  0  0  0  0
   17.4547   70.6046   -7.2446 C   0  0  0  0  0  0  0  0  0  0  0  0
   19.7771   71.1609   -6.7893 C   0  0  0  0  0  0  0  0  0  0  0  0
   20.1581   70.9904   -8.0570 C   0  0  0  0  0  0  0  0  0  0  0  0
   19.1553   70.5926   -9.0661 C   0  0  0  0  0  0  0  0  0  0  0  0
   17.1788   70.1656   -9.2188 H   0  0  0  0  0  0  0  0  0  0  0  0
   22.9831   70.4682   -0.5820 O   0  0  0  0  0  0  0  0  0  0  0  0
   22.3739   69.9677    0.8291 P   0  0  2  0  0  0  0  0  0  0  0  0
   23.5456   69.0248    1.4255 O   0  0  0  0  0  0  0  0  0  0  0  0
   21.0354   69.2969    0.7183 O   0  0  0  0  0  0  0  0  0  0  0  0
   22.3887   71.2798    1.7688 O   0  0  0  0  0  0  0  0  0  0  0  0
   20.6637   72.5467    0.7509 O   0  0  0  0  0  0  0  0  0  0  0  0
   21.3184   74.8866    4.0896 O   0  0  0  0  0  0  0  0  0  0  0  0
   18.9299   73.3016    3.9152 O   0  0  0  0  0  0  0  0  0  0  0  0
   23.5549   73.6411    2.7381 O   0  0  0  0  0  0  0  0  0  0  0  0
   21.2262   73.6642    3.3529 C   0  0  1  0  0  0  0  0  0  0  0  0
   19.8007   73.5366    2.8121 C   0  0  1  0  0  0  0  0  0  0  0  0
   22.2354   73.6949    2.2066 C   0  0  2  0  0  0  0  0  0  0  0  0
   19.6946   72.3929    1.7944 C   0  0  1  0  0  0  0  0  0  0  0  0
   22.0114   72.5424    1.2259 C   0  0  1  0  0  0  0  0  0  0  0  0
   20.6805   74.8734    4.8192 H   0  0  0  0  0  0  0  0  0  0  0  0
   19.0068   74.0307    4.5505 H   0  0  0  0  0  0  0  0  0  0  0  0
   23.6842   74.3759    3.3571 H   0  0  0  0  0  0  0  0  0  0  0  0
   17.7440   73.6379    1.1993 O   0  0  0  0  0  0  0  0  0  0  0  0
   18.3224   72.3478    1.1257 C   0  0  0  0  0  0  0  0  0  0  0  0
   16.8703   73.6245    0.7773 H   0  0  0  0  0  0  0  0  0  0  0  0
 25 28  1  0
 25 24  1  0
 25 26  1  1
 25 27  2  0
  1  4  1  0
  1 24  1  0
  1  2  1  6
  1  3  2  0
  6 11  1  0
  6 12  1  0
 29 36  1  0
 29 37  1  0
  9  7  1  6
  7 13  1  0
 10  8  1  1
  8 14  1  0
 37 28  1  1
  4  5  1  0
 33 30  1  6
 30 38  1  0
 34 31  1  1
 31 39  1  0
 35 32  1  1
 32 40  1  0
 41 42  1  0
 41 43  1  0
 15 19  2  0
 16 22  2  0
 12 17  1  6
 17 19  1  0
 17 20  1  0
 18 19  1  0
 18 22  1  0
 18 23  1  0
  9 10  1  0
  9 11  1  0
 10 12  1  0
 11  5  1  6
 33 34  1  0
 33 35  1  0
 34 36  1  0
 35 37  1  0
 36 42  1  6
 20 21  2  0
 21 22  1  0
M  CHG  2   2  -1  26  -1
M  END
>  <COMPND>  (146) 
    8629 

>  <AUTHOR>  (146) 
    GENERATED BY OPEN BABEL 3.1.1

>  <MASTER>  (146) 
        0    0    0    0    0    0    0    0   58    0   58    0

>  <minimizedAffinity>  (146) 
-7.80966

>  <CNNscore>  (146) 
0.6114898920

>  <CNNaffinity>  (146) 
4.5791535378

>  <CNN_VS>  (146) 
2.8001060486

>  <CNNaffinity_variance>  (146) 
0.0538663790

$$$$
147
     RDKit          3D

 43 45  0  0  0  0  0  0  0  0999 V2000
   20.1980   70.6168   -0.8424 P   0  0  2  0  0  0  0  0  0  0  0  0
   20.4401   69.9527    0.6129 O   0  0  0  0  0  0  0  0  0  0  0  0
   21.2840   70.3589   -1.8452 O   0  0  0  0  0  0  0  0  0  0  0  0
   19.8994   72.1728   -0.5145 O   0  0  0  0  0  0  0  0  0  0  0  0
   20.9871   73.0107   -0.1642 C   0  0  0  0  0  0  0  0  0  0  0  0
   20.9071   72.7642    2.2247 O   0  0  0  0  0  0  0  0  0  0  0  0
   20.8997   75.7602    2.3461 O   0  0  0  0  0  0  0  0  0  0  0  0
   23.4958   75.1487    2.9146 O   0  0  0  0  0  0  0  0  0  0  0  0
   21.5807   74.8957    1.4382 C   0  0  1  0  0  0  0  0  0  0  0  0
   22.7604   74.2379    2.1231 C   0  0  2  0  0  0  0  0  0  0  0  0
   20.6734   73.7051    1.1540 C   0  0  1  0  0  0  0  0  0  0  0  0
   22.0827   73.1589    2.9506 C   0  0  2  0  0  0  0  0  0  0  0  0
   21.4595   76.5283    2.5423 H   0  0  0  0  0  0  0  0  0  0  0  0
   23.9076   75.8150    2.3426 H   0  0  0  0  0  0  0  0  0  0  0  0
   23.8061   72.7901    5.1578 O   0  0  0  0  0  0  0  0  0  0  0  0
   25.2509   68.7075    3.5810 O   0  0  0  0  0  0  0  0  0  0  0  0
   22.9204   72.0087    3.1424 N   0  0  0  0  0  0  0  0  0  0  0  0
   24.5239   70.7575    4.3710 N   0  0  0  0  0  0  0  0  0  0  0  0
   23.7498   71.9217    4.2847 C   0  0  0  0  0  0  0  0  0  0  0  0
   22.9138   70.9824    2.2040 C   0  0  0  0  0  0  0  0  0  0  0  0
   23.6589   69.8794    2.3003 C   0  0  0  0  0  0  0  0  0  0  0  0
   24.5532   69.7102    3.4638 C   0  0  0  0  0  0  0  0  0  0  0  0
   25.1098   70.6752    5.1583 H   0  0  0  0  0  0  0  0  0  0  0  0
   18.7445   70.0488   -1.2639 O   0  0  0  0  0  0  0  0  0  0  0  0
   17.7502   70.4661   -2.4681 P   0  0  2  0  0  0  0  0  0  0  0  0
   16.7410   71.5191   -1.7680 O   0  0  0  0  0  0  0  0  0  0  0  0
   17.0697   69.3055   -3.1343 O   0  0  0  0  0  0  0  0  0  0  0  0
   18.6578   71.3653   -3.4543 O   0  0  0  0  0  0  0  0  0  0  0  0
   18.2872   70.4826   -5.6223 O   0  0  0  0  0  0  0  0  0  0  0  0
   20.9462   73.4928   -6.5811 O   0  0  0  0  0  0  0  0  0  0  0  0
   18.1744   73.7742   -7.2781 O   0  0  0  0  0  0  0  0  0  0  0  0
   21.3096   71.9658   -4.1488 O   0  0  0  0  0  0  0  0  0  0  0  0
   19.8767   72.8817   -5.8545 C   0  0  1  0  0  0  0  0  0  0  0  0
   18.7555   72.5488   -6.8409 C   0  0  1  0  0  0  0  0  0  0  0  0
   20.3931   71.6125   -5.1792 C   0  0  2  0  0  0  0  0  0  0  0  0
   17.6915   71.6554   -6.1892 C   0  0  1  0  0  0  0  0  0  0  0  0
   19.2501   70.7722   -4.6070 C   0  0  1  0  0  0  0  0  0  0  0  0
   20.6251   74.2995   -7.0119 H   0  0  0  0  0  0  0  0  0  0  0  0
   18.8569   74.3292   -7.6872 H   0  0  0  0  0  0  0  0  0  0  0  0
   22.0284   72.4972   -4.5239 H   0  0  0  0  0  0  0  0  0  0  0  0
   15.8996   72.3040   -7.6306 O   0  0  0  0  0  0  0  0  0  0  0  0
   16.6466   71.1821   -7.1974 C   0  0  0  0  0  0  0  0  0  0  0  0
   15.2308   72.0179   -8.2729 H   0  0  0  0  0  0  0  0  0  0  0  0
 25 28  1  0
 25 24  1  0
 25 26  1  1
 25 27  2  0
  1  4  1  0
  1 24  1  0
  1  2  1  1
  1  3  2  0
  6 11  1  0
  6 12  1  0
 29 36  1  0
 29 37  1  0
  9  7  1  1
  7 13  1  0
 10  8  1  1
  8 14  1  0
 37 28  1  1
  4  5  1  0
 33 30  1  6
 30 38  1  0
 34 31  1  1
 31 39  1  0
 35 32  1  1
 32 40  1  0
 41 42  1  0
 41 43  1  0
 15 19  2  0
 16 22  2  0
 12 17  1  6
 17 19  1  0
 17 20  1  0
 18 19  1  0
 18 22  1  0
 18 23  1  0
  9 10  1  0
  9 11  1  0
 10 12  1  0
 11  5  1  6
 33 34  1  0
 33 35  1  0
 34 36  1  0
 35 37  1  0
 36 42  1  6
 20 21  2  0
 21 22  1  0
M  CHG  2   2  -1  26  -1
M  END
>  <COMPND>  (147) 
    8629 

>  <AUTHOR>  (147) 
    GENERATED BY OPEN BABEL 3.1.1

>  <MASTER>  (147) 
        0    0    0    0    0    0    0    0   58    0   58    0

>  <minimizedAffinity>  (147) 
-7.19469

>  <CNNscore>  (147) 
0.6051952243

>  <CNNaffinity>  (147) 
4.0943446159

>  <CNN_VS>  (147) 
2.4778778553

>  <CNNaffinity_variance>  (147) 
0.1076078787

$$$$
148
     RDKit          3D

 43 45  0  0  0  0  0  0  0  0999 V2000
   22.0229   71.1833   -3.1071 P   0  0  2  0  0  0  0  0  0  0  0  0
   22.3845   71.9610   -1.7352 O   0  0  0  0  0  0  0  0  0  0  0  0
   22.7103   71.7082   -4.3332 O   0  0  0  0  0  0  0  0  0  0  0  0
   20.4055   71.1984   -3.1475 O   0  0  0  0  0  0  0  0  0  0  0  0
   19.7339   72.4173   -2.8807 C   0  0  0  0  0  0  0  0  0  0  0  0
   17.7354   72.3516   -4.2131 O   0  0  0  0  0  0  0  0  0  0  0  0
   16.5281   70.7464   -1.9868 O   0  0  0  0  0  0  0  0  0  0  0  0
   17.1638   68.8326   -3.8225 O   0  0  0  0  0  0  0  0  0  0  0  0
   17.8654   70.7368   -2.4835 C   0  0  1  0  0  0  0  0  0  0  0  0
   17.9257   70.0226   -3.8177 C   0  0  2  0  0  0  0  0  0  0  0  0
   18.2326   72.1641   -2.8700 C   0  0  1  0  0  0  0  0  0  0  0  0
   17.3725   71.0749   -4.7636 C   0  0  2  0  0  0  0  0  0  0  0  0
   16.2711   69.8455   -1.7332 H   0  0  0  0  0  0  0  0  0  0  0  0
   17.5557   68.1951   -3.2055 H   0  0  0  0  0  0  0  0  0  0  0  0
   15.9302   70.1720   -7.0181 O   0  0  0  0  0  0  0  0  0  0  0  0
   19.5771   70.6917   -9.7878 O   0  0  0  0  0  0  0  0  0  0  0  0
   17.9203   70.9646   -6.0862 N   0  0  0  0  0  0  0  0  0  0  0  0
   17.7472   70.4317   -8.3954 N   0  0  0  0  0  0  0  0  0  0  0  0
   17.1115   70.4992   -7.1491 C   0  0  0  0  0  0  0  0  0  0  0  0
   19.2454   71.3164   -6.3189 C   0  0  0  0  0  0  0  0  0  0  0  0
   19.8370   71.2451   -7.5132 C   0  0  0  0  0  0  0  0  0  0  0  0
   19.0617   70.7687   -8.6768 C   0  0  0  0  0  0  0  0  0  0  0  0
   17.2034   70.1098   -9.1507 H   0  0  0  0  0  0  0  0  0  0  0  0
   22.3631   69.6433   -2.7524 O   0  0  0  0  0  0  0  0  0  0  0  0
   23.5228   68.9977   -1.8297 P   0  0  2  0  0  0  0  0  0  0  0  0
   24.8827   69.5959   -2.4704 O   0  0  0  0  0  0  0  0  0  0  0  0
   23.4828   67.4991   -1.7501 O   0  0  0  0  0  0  0  0  0  0  0  0
   23.3780   69.7472   -0.4077 O   0  0  0  0  0  0  0  0  0  0  0  0
   23.3257   69.0841    1.8670 O   0  0  0  0  0  0  0  0  0  0  0  0
   20.1266   71.6950    1.8671 O   0  0  0  0  0  0  0  0  0  0  0  0
   22.5791   72.4574    3.1525 O   0  0  0  0  0  0  0  0  0  0  0  0
   20.5804   69.9675   -0.4109 O   0  0  0  0  0  0  0  0  0  0  0  0
   21.4145   71.2123    1.4749 C   0  0  1  0  0  0  0  0  0  0  0  0
   22.2958   71.1287    2.7227 C   0  0  1  0  0  0  0  0  0  0  0  0
   21.2573   69.8345    0.8343 C   0  0  2  0  0  0  0  0  0  0  0  0
   23.5987   70.3721    2.4311 C   0  0  1  0  0  0  0  0  0  0  0  0
   22.6093   69.1480    0.6322 C   0  0  1  0  0  0  0  0  0  0  0  0
   20.2193   72.5698    2.2741 H   0  0  0  0  0  0  0  0  0  0  0  0
   21.7481   72.9243    3.3328 H   0  0  0  0  0  0  0  0  0  0  0  0
   19.7260   70.4031   -0.2694 H   0  0  0  0  0  0  0  0  0  0  0  0
   23.5359   70.0637    4.7996 O   0  0  0  0  0  0  0  0  0  0  0  0
   24.4206   70.1396    3.6970 C   0  0  0  0  0  0  0  0  0  0  0  0
   24.0451   69.9156    5.6123 H   0  0  0  0  0  0  0  0  0  0  0  0
 25 28  1  0
 25 24  1  0
 25 26  1  6
 25 27  2  0
  1  4  1  0
  1 24  1  0
  1  2  1  1
  1  3  2  0
  6 11  1  0
  6 12  1  0
 29 36  1  0
 29 37  1  0
  9  7  1  6
  7 13  1  0
 10  8  1  1
  8 14  1  0
 37 28  1  6
  4  5  1  0
 33 30  1  1
 30 38  1  0
 34 31  1  6
 31 39  1  0
 35 32  1  6
 32 40  1  0
 41 42  1  0
 41 43  1  0
 15 19  2  0
 16 22  2  0
 12 17  1  6
 17 19  1  0
 17 20  1  0
 18 19  1  0
 18 22  1  0
 18 23  1  0
  9 10  1  0
  9 11  1  0
 10 12  1  0
 11  5  1  6
 33 34  1  0
 33 35  1  0
 34 36  1  0
 35 37  1  0
 36 42  1  1
 20 21  2  0
 21 22  1  0
M  CHG  2   2  -1  26  -1
M  END
>  <COMPND>  (148) 
    8629 

>  <AUTHOR>  (148) 
    GENERATED BY OPEN BABEL 3.1.1

>  <MASTER>  (148) 
        0    0    0    0    0    0    0    0   58    0   58    0

>  <minimizedAffinity>  (148) 
-8.69132

>  <CNNscore>  (148) 
0.5511263609

>  <CNNaffinity>  (148) 
4.4671897888

>  <CNN_VS>  (148) 
2.4619860649

>  <CNNaffinity_variance>  (148) 
0.1082446575

$$$$
149
     RDKit          3D

 43 45  0  0  0  0  0  0  0  0999 V2000
   19.8469   71.7832   -1.6930 P   0  0  2  0  0  0  0  0  0  0  0  0
   18.5526   72.3309   -0.8916 O   0  0  0  0  0  0  0  0  0  0  0  0
   19.7270   70.3783   -2.2060 O   0  0  0  0  0  0  0  0  0  0  0  0
   21.0769   72.0581   -0.6783 O   0  0  0  0  0  0  0  0  0  0  0  0
   21.5746   73.3796   -0.5615 C   0  0  0  0  0  0  0  0  0  0  0  0
   21.0365   72.9737    1.7449 O   0  0  0  0  0  0  0  0  0  0  0  0
   21.1202   75.9506    2.0941 O   0  0  0  0  0  0  0  0  0  0  0  0
   23.5374   75.1679    3.0844 O   0  0  0  0  0  0  0  0  0  0  0  0
   21.9267   75.1166    1.2639 C   0  0  1  0  0  0  0  0  0  0  0  0
   22.9303   74.3530    2.1024 C   0  0  2  0  0  0  0  0  0  0  0  0
   21.0447   73.9970    0.7255 C   0  0  1  0  0  0  0  0  0  0  0  0
   22.0684   73.2562    2.7042 C   0  0  2  0  0  0  0  0  0  0  0  0
   21.6617   76.6734    2.4494 H   0  0  0  0  0  0  0  0  0  0  0  0
   24.0747   75.8498    2.6518 H   0  0  0  0  0  0  0  0  0  0  0  0
   23.4431   72.7076    5.1100 O   0  0  0  0  0  0  0  0  0  0  0  0
   24.8839   68.6109    3.5667 O   0  0  0  0  0  0  0  0  0  0  0  0
   22.8107   72.0537    2.9583 N   0  0  0  0  0  0  0  0  0  0  0  0
   24.1592   70.6681    4.3396 N   0  0  0  0  0  0  0  0  0  0  0  0
   23.4656   71.8770    4.1994 C   0  0  0  0  0  0  0  0  0  0  0  0
   22.8835   71.0651    1.9829 C   0  0  0  0  0  0  0  0  0  0  0  0
   23.5501   69.9186    2.1318 C   0  0  0  0  0  0  0  0  0  0  0  0
   24.2620   69.6554    3.3991 C   0  0  0  0  0  0  0  0  0  0  0  0
   24.6235   70.5232    5.1959 H   0  0  0  0  0  0  0  0  0  0  0  0
   20.0647   72.9018   -2.8394 O   0  0  0  0  0  0  0  0  0  0  0  0
   20.9818   72.8929   -4.1705 P   0  0  2  0  0  0  0  0  0  0  0  0
   21.8857   71.5634   -3.9895 O   0  0  0  0  0  0  0  0  0  0  0  0
   21.7696   74.1531   -4.3834 O   0  0  0  0  0  0  0  0  0  0  0  0
   19.9610   72.5320   -5.3675 O   0  0  0  0  0  0  0  0  0  0  0  0
   18.7802   70.4772   -5.3594 O   0  0  0  0  0  0  0  0  0  0  0  0
   18.5866   71.3335   -9.3942 O   0  0  0  0  0  0  0  0  0  0  0  0
   16.2262   71.5819   -7.7771 O   0  0  0  0  0  0  0  0  0  0  0  0
   20.9963   71.9305   -7.9055 O   0  0  0  0  0  0  0  0  0  0  0  0
   18.6073   71.6384   -7.9971 C   0  0  1  0  0  0  0  0  0  0  0  0
   17.4184   70.9382   -7.3358 C   0  0  1  0  0  0  0  0  0  0  0  0
   19.9230   71.1451   -7.3979 C   0  0  2  0  0  0  0  0  0  0  0  0
   17.5222   70.9965   -5.8058 C   0  0  1  0  0  0  0  0  0  0  0  0
   19.9029   71.1993   -5.8693 C   0  0  1  0  0  0  0  0  0  0  0  0
   17.7540   71.6446   -9.7809 H   0  0  0  0  0  0  0  0  0  0  0  0
   16.1731   71.5385   -8.7449 H   0  0  0  0  0  0  0  0  0  0  0  0
   20.9983   71.8877   -8.8740 H   0  0  0  0  0  0  0  0  0  0  0  0
   15.8387   69.3260   -6.0961 O   0  0  0  0  0  0  0  0  0  0  0  0
   16.4322   70.1701   -5.1268 C   0  0  0  0  0  0  0  0  0  0  0  0
   15.1432   68.7938   -5.6781 H   0  0  0  0  0  0  0  0  0  0  0  0
 25 28  1  0
 25 24  1  0
 25 26  1  1
 25 27  2  0
  1  4  1  0
  1 24  1  0
  1  2  1  1
  1  3  2  0
  6 11  1  0
  6 12  1  0
 29 36  1  0
 29 37  1  0
  9  7  1  1
  7 13  1  0
 10  8  1  1
  8 14  1  0
 37 28  1  6
  4  5  1  0
 33 30  1  6
 30 38  1  0
 34 31  1  1
 31 39  1  0
 35 32  1  6
 32 40  1  0
 41 42  1  0
 41 43  1  0
 15 19  2  0
 16 22  2  0
 12 17  1  6
 17 19  1  0
 17 20  1  0
 18 19  1  0
 18 22  1  0
 18 23  1  0
  9 10  1  0
  9 11  1  0
 10 12  1  0
 11  5  1  6
 33 34  1  0
 33 35  1  0
 34 36  1  0
 35 37  1  0
 36 42  1  1
 20 21  2  0
 21 22  1  0
M  CHG  2   2  -1  26  -1
M  END
>  <COMPND>  (149) 
    8629 

>  <AUTHOR>  (149) 
    GENERATED BY OPEN BABEL 3.1.1

>  <MASTER>  (149) 
        0    0    0    0    0    0    0    0   58    0   58    0

>  <minimizedAffinity>  (149) 
-7.27550

>  <CNNscore>  (149) 
0.4917163253

>  <CNNaffinity>  (149) 
4.0159697533

>  <CNN_VS>  (149) 
1.9747178555

>  <CNNaffinity_variance>  (149) 
0.0684762076

$$$$
150
     RDKit          3D

 43 45  0  0  0  0  0  0  0  0999 V2000
   20.5738   71.1046   -0.9804 P   0  0  2  0  0  0  0  0  0  0  0  0
   20.0678   69.8600   -0.0791 O   0  0  0  0  0  0  0  0  0  0  0  0
   22.0575   71.1704   -1.1942 O   0  0  0  0  0  0  0  0  0  0  0  0
   19.9086   72.3959   -0.2679 O   0  0  0  0  0  0  0  0  0  0  0  0
   19.3703   72.2472    1.0344 C   0  0  0  0  0  0  0  0  0  0  0  0
   20.5867   72.8979    3.0019 O   0  0  0  0  0  0  0  0  0  0  0  0
   20.6696   75.6493    1.8129 O   0  0  0  0  0  0  0  0  0  0  0  0
   23.1586   74.6852    1.2544 O   0  0  0  0  0  0  0  0  0  0  0  0
   20.7480   74.3824    1.1618 C   0  0  1  0  0  0  0  0  0  0  0  0
   22.1056   73.7536    1.3965 C   0  0  2  0  0  0  0  0  0  0  0  0
   19.8210   73.4203    1.8941 C   0  0  1  0  0  0  0  0  0  0  0  0
   21.9713   73.2355    2.8183 C   0  0  2  0  0  0  0  0  0  0  0  0
   21.2531   76.2808    1.3626 H   0  0  0  0  0  0  0  0  0  0  0  0
   23.2031   74.9850    0.3330 H   0  0  0  0  0  0  0  0  0  0  0  0
   23.5073   72.7947    5.1474 O   0  0  0  0  0  0  0  0  0  0  0  0
   25.0031   68.7155    3.6100 O   0  0  0  0  0  0  0  0  0  0  0  0
   22.7714   72.0667    3.0532 N   0  0  0  0  0  0  0  0  0  0  0  0
   24.2507   70.7638    4.3801 N   0  0  0  0  0  0  0  0  0  0  0  0
   23.5058   71.9435    4.2557 C   0  0  0  0  0  0  0  0  0  0  0  0
   22.8219   71.0580    2.0973 C   0  0  0  0  0  0  0  0  0  0  0  0
   23.5382   69.9398    2.2306 C   0  0  0  0  0  0  0  0  0  0  0  0
   24.3341   69.7329    3.4576 C   0  0  0  0  0  0  0  0  0  0  0  0
   24.7706   70.6563    5.2095 H   0  0  0  0  0  0  0  0  0  0  0  0
   19.7052   70.9493   -2.3348 O   0  0  0  0  0  0  0  0  0  0  0  0
   18.1663   70.5115   -2.5646 P   0  0  2  0  0  0  0  0  0  0  0  0
   17.3376   71.6038   -1.7057 O   0  0  0  0  0  0  0  0  0  0  0  0
   17.8714   69.0850   -2.2014 O   0  0  0  0  0  0  0  0  0  0  0  0
   17.8604   70.8866   -4.1044 O   0  0  0  0  0  0  0  0  0  0  0  0
   19.0671   72.6701   -5.0942 O   0  0  0  0  0  0  0  0  0  0  0  0
   15.8872   72.4864   -7.7220 O   0  0  0  0  0  0  0  0  0  0  0  0
   18.4728   71.5571   -8.5578 O   0  0  0  0  0  0  0  0  0  0  0  0
   15.4454   72.0805   -4.8901 O   0  0  0  0  0  0  0  0  0  0  0  0
   16.8707   71.9586   -6.8279 C   0  0  1  0  0  0  0  0  0  0  0  0
   18.2550   72.3167   -7.3722 C   0  0  1  0  0  0  0  0  0  0  0  0
   16.6637   72.5675   -5.4423 C   0  0  2  0  0  0  0  0  0  0  0  0
   19.3502   72.0202   -6.3389 C   0  0  1  0  0  0  0  0  0  0  0  0
   17.8328   72.2535   -4.5070 C   0  0  1  0  0  0  0  0  0  0  0  0
   16.0127   72.1033   -8.6035 H   0  0  0  0  0  0  0  0  0  0  0  0
   17.7742   71.7531   -9.2018 H   0  0  0  0  0  0  0  0  0  0  0  0
   14.7132   72.2858   -5.4913 H   0  0  0  0  0  0  0  0  0  0  0  0
   21.0923   71.7930   -7.9583 O   0  0  0  0  0  0  0  0  0  0  0  0
   20.7197   72.5152   -6.7990 C   0  0  0  0  0  0  0  0  0  0  0  0
   21.9619   72.0976   -8.2627 H   0  0  0  0  0  0  0  0  0  0  0  0
 25 28  1  0
 25 24  1  0
 25 26  1  1
 25 27  2  0
  1  4  1  0
  1 24  1  0
  1  2  1  1
  1  3  2  0
  6 11  1  0
  6 12  1  0
 29 36  1  0
 29 37  1  0
  9  7  1  1
  7 13  1  0
 10  8  1  1
  8 14  1  0
 37 28  1  6
  4  5  1  0
 33 30  1  6
 30 38  1  0
 34 31  1  6
 31 39  1  0
 35 32  1  1
 32 40  1  0
 41 42  1  0
 41 43  1  0
 15 19  2  0
 16 22  2  0
 12 17  1  6
 17 19  1  0
 17 20  1  0
 18 19  1  0
 18 22  1  0
 18 23  1  0
  9 10  1  0
  9 11  1  0
 10 12  1  0
 11  5  1  6
 33 34  1  0
 33 35  1  0
 34 36  1  0
 35 37  1  0
 36 42  1  6
 20 21  2  0
 21 22  1  0
M  CHG  2   2  -1  26  -1
M  END
>  <COMPND>  (150) 
    8629 

>  <AUTHOR>  (150) 
    GENERATED BY OPEN BABEL 3.1.1

>  <MASTER>  (150) 
        0    0    0    0    0    0    0    0   58    0   58    0

>  <minimizedAffinity>  (150) 
-7.40823

>  <CNNscore>  (150) 
0.4707480967

>  <CNNaffinity>  (150) 
4.0297894478

>  <CNN_VS>  (150) 
1.8970156908

>  <CNNaffinity_variance>  (150) 
0.0392157920

$$$$
151
     RDKit          3D

 43 45  0  0  0  0  0  0  0  0999 V2000
   19.7808   70.9622   -0.4727 P   0  0  2  0  0  0  0  0  0  0  0  0
   18.1870   70.8748   -0.7369 O   0  0  0  0  0  0  0  0  0  0  0  0
   20.3819   69.7533    0.1820 O   0  0  0  0  0  0  0  0  0  0  0  0
   19.9664   72.3581    0.3240 O   0  0  0  0  0  0  0  0  0  0  0  0
   19.2899   72.5278    1.5575 C   0  0  0  0  0  0  0  0  0  0  0  0
   20.7820   73.1686    3.3286 O   0  0  0  0  0  0  0  0  0  0  0  0
   20.8623   75.8703    2.0305 O   0  0  0  0  0  0  0  0  0  0  0  0
   23.2027   74.7427    1.2013 O   0  0  0  0  0  0  0  0  0  0  0  0
   20.7872   74.5805    1.4254 C   0  0  1  0  0  0  0  0  0  0  0  0
   22.1273   73.8803    1.5119 C   0  0  2  0  0  0  0  0  0  0  0  0
   19.9104   73.6993    2.3063 C   0  0  1  0  0  0  0  0  0  0  0  0
   22.1481   73.4174    2.9587 C   0  0  2  0  0  0  0  0  0  0  0  0
   21.4170   76.4511    1.4856 H   0  0  0  0  0  0  0  0  0  0  0  0
   23.1452   75.0093    0.2706 H   0  0  0  0  0  0  0  0  0  0  0  0
   23.7040   72.8338    5.2427 O   0  0  0  0  0  0  0  0  0  0  0  0
   25.0169   68.7601    3.5329 O   0  0  0  0  0  0  0  0  0  0  0  0
   22.9065   72.2114    3.1370 N   0  0  0  0  0  0  0  0  0  0  0  0
   24.3563   70.8058    4.3896 N   0  0  0  0  0  0  0  0  0  0  0  0
   23.6552   72.0165    4.3210 C   0  0  0  0  0  0  0  0  0  0  0  0
   22.9026   71.2372    2.1446 C   0  0  0  0  0  0  0  0  0  0  0  0
   23.5776   70.0886    2.2248 C   0  0  0  0  0  0  0  0  0  0  0  0
   24.3850   69.8070    3.4293 C   0  0  0  0  0  0  0  0  0  0  0  0
   24.8853   70.6484    5.2051 H   0  0  0  0  0  0  0  0  0  0  0  0
   20.3742   71.2986   -1.9382 O   0  0  0  0  0  0  0  0  0  0  0  0
   19.9720   72.4398   -3.0100 P   0  0  2  0  0  0  0  0  0  0  0  0
   21.3403   72.6649   -3.8435 O   0  0  0  0  0  0  0  0  0  0  0  0
   19.4079   73.6887   -2.3967 O   0  0  0  0  0  0  0  0  0  0  0  0
   18.9815   71.6969   -4.0454 O   0  0  0  0  0  0  0  0  0  0  0  0
   17.2306   72.9715   -5.0079 O   0  0  0  0  0  0  0  0  0  0  0  0
   15.7692   69.1806   -5.7452 O   0  0  0  0  0  0  0  0  0  0  0  0
   16.7990   70.7508   -7.9183 O   0  0  0  0  0  0  0  0  0  0  0  0
   17.1283   69.7446   -3.2524 O   0  0  0  0  0  0  0  0  0  0  0  0
   16.7804   70.1809   -5.5954 C   0  0  1  0  0  0  0  0  0  0  0  0
   16.5218   71.2821   -6.6256 C   0  0  1  0  0  0  0  0  0  0  0  0
   16.7176   70.7456   -4.1775 C   0  0  2  0  0  0  0  0  0  0  0  0
   17.3990   72.5117   -6.3539 C   0  0  1  0  0  0  0  0  0  0  0  0
   17.5879   71.9948   -4.0280 C   0  0  1  0  0  0  0  0  0  0  0  0
   15.8040   68.8176   -6.6433 H   0  0  0  0  0  0  0  0  0  0  0  0
   16.2389   69.9746   -8.0771 H   0  0  0  0  0  0  0  0  0  0  0  0
   16.5696   68.9592   -3.3568 H   0  0  0  0  0  0  0  0  0  0  0  0
   17.4012   73.3331   -8.5977 O   0  0  0  0  0  0  0  0  0  0  0  0
   17.0460   73.6801   -7.2718 C   0  0  0  0  0  0  0  0  0  0  0  0
   17.1819   74.0673   -9.1931 H   0  0  0  0  0  0  0  0  0  0  0  0
 25 28  1  0
 25 24  1  0
 25 26  1  6
 25 27  2  0
  1  4  1  0
  1 24  1  0
  1  2  1  6
  1  3  2  0
  6 11  1  0
  6 12  1  0
 29 36  1  0
 29 37  1  0
  9  7  1  1
  7 13  1  0
 10  8  1  1
  8 14  1  0
 37 28  1  6
  4  5  1  0
 33 30  1  1
 30 38  1  0
 34 31  1  6
 31 39  1  0
 35 32  1  1
 32 40  1  0
 41 42  1  0
 41 43  1  0
 15 19  2  0
 16 22  2  0
 12 17  1  6
 17 19  1  0
 17 20  1  0
 18 19  1  0
 18 22  1  0
 18 23  1  0
  9 10  1  0
  9 11  1  0
 10 12  1  0
 11  5  1  6
 33 34  1  0
 33 35  1  0
 34 36  1  0
 35 37  1  0
 36 42  1  6
 20 21  2  0
 21 22  1  0
M  CHG  2   2  -1  26  -1
M  END
>  <COMPND>  (151) 
    8629 

>  <AUTHOR>  (151) 
    GENERATED BY OPEN BABEL 3.1.1

>  <MASTER>  (151) 
        0    0    0    0    0    0    0    0   58    0   58    0

>  <minimizedAffinity>  (151) 
-7.27965

>  <CNNscore>  (151) 
0.4589284956

>  <CNNaffinity>  (151) 
3.9992797375

>  <CNN_VS>  (151) 
1.8353834152

>  <CNNaffinity_variance>  (151) 
0.0827199370

$$$$
152
     RDKit          3D

 43 45  0  0  0  0  0  0  0  0999 V2000
   19.8522   71.4409   -0.5292 P   0  0  2  0  0  0  0  0  0  0  0  0
   20.7923   70.2903   -1.1693 O   0  0  0  0  0  0  0  0  0  0  0  0
   20.1105   72.8277   -1.0407 O   0  0  0  0  0  0  0  0  0  0  0  0
   20.0221   71.2378    1.0670 O   0  0  0  0  0  0  0  0  0  0  0  0
   20.7030   72.2362    1.8069 C   0  0  0  0  0  0  0  0  0  0  0  0
   22.8839   73.0884    2.3464 O   0  0  0  0  0  0  0  0  0  0  0  0
   23.8705   70.2836    1.9584 O   0  0  0  0  0  0  0  0  0  0  0  0
   23.7154   70.4890    4.6733 O   0  0  0  0  0  0  0  0  0  0  0  0
   22.6352   70.7374    2.5093 C   0  0  1  0  0  0  0  0  0  0  0  0
   22.8536   71.2981    3.8990 C   0  0  2  0  0  0  0  0  0  0  0  0
   22.2009   71.9738    1.7321 C   0  0  1  0  0  0  0  0  0  0  0  0
   23.4477   72.6637    3.5981 C   0  0  2  0  0  0  0  0  0  0  0  0
   24.1678   69.4943    2.4385 H   0  0  0  0  0  0  0  0  0  0  0  0
   23.2928   69.6316    4.8379 H   0  0  0  0  0  0  0  0  0  0  0  0
   25.2927   74.5101    4.6771 O   0  0  0  0  0  0  0  0  0  0  0  0
   22.1107   76.3401    7.4640 O   0  0  0  0  0  0  0  0  0  0  0  0
   23.1282   73.6343    4.6067 N   0  0  0  0  0  0  0  0  0  0  0  0
   23.7068   75.4199    6.0637 N   0  0  0  0  0  0  0  0  0  0  0  0
   24.1282   74.5147    5.0814 C   0  0  0  0  0  0  0  0  0  0  0  0
   21.8356   73.7065    5.1142 C   0  0  0  0  0  0  0  0  0  0  0  0
   21.4502   74.5746    6.0518 C   0  0  0  0  0  0  0  0  0  0  0  0
   22.4341   75.5297    6.6012 C   0  0  0  0  0  0  0  0  0  0  0  0
   24.3865   76.0429    6.4097 H   0  0  0  0  0  0  0  0  0  0  0  0
   18.3593   70.8879   -0.8090 O   0  0  0  0  0  0  0  0  0  0  0  0
   17.6708   70.3270   -2.1596 P   0  0  2  0  0  0  0  0  0  0  0  0
   16.1416   70.8408   -2.0376 O   0  0  0  0  0  0  0  0  0  0  0  0
   17.8126   68.8450   -2.3529 O   0  0  0  0  0  0  0  0  0  0  0  0
   18.3075   71.2199   -3.3439 O   0  0  0  0  0  0  0  0  0  0  0  0
   18.0728   70.2666   -5.5009 O   0  0  0  0  0  0  0  0  0  0  0  0
   20.8267   73.2155   -6.3788 O   0  0  0  0  0  0  0  0  0  0  0  0
   18.1116   73.5000   -7.2707 O   0  0  0  0  0  0  0  0  0  0  0  0
   21.0071   71.7699   -3.8774 O   0  0  0  0  0  0  0  0  0  0  0  0
   19.7034   72.6404   -5.7060 C   0  0  1  0  0  0  0  0  0  0  0  0
   18.6471   72.2848   -6.7541 C   0  0  1  0  0  0  0  0  0  0  0  0
   20.1577   71.3903   -4.9549 C   0  0  2  0  0  0  0  0  0  0  0  0
   17.5308   71.4249   -6.1461 C   0  0  1  0  0  0  0  0  0  0  0  0
   18.9687   70.5815   -4.4331 C   0  0  1  0  0  0  0  0  0  0  0  0
   20.5451   74.0100   -6.8573 H   0  0  0  0  0  0  0  0  0  0  0  0
   18.8268   74.0339   -7.6513 H   0  0  0  0  0  0  0  0  0  0  0  0
   21.7560   72.2809   -4.2208 H   0  0  0  0  0  0  0  0  0  0  0  0
   15.9877   72.0500   -7.8598 O   0  0  0  0  0  0  0  0  0  0  0  0
   16.5504   70.9275   -7.2060 C   0  0  0  0  0  0  0  0  0  0  0  0
   15.3618   71.7486   -8.5374 H   0  0  0  0  0  0  0  0  0  0  0  0
 25 28  1  0
 25 24  1  0
 25 26  1  1
 25 27  2  0
  1  4  1  0
  1 24  1  0
  1  2  1  6
  1  3  2  0
  6 11  1  0
  6 12  1  0
 29 36  1  0
 29 37  1  0
  9  7  1  6
  7 13  1  0
 10  8  1  1
  8 14  1  0
 37 28  1  1
  4  5  1  0
 33 30  1  6
 30 38  1  0
 34 31  1  1
 31 39  1  0
 35 32  1  1
 32 40  1  0
 41 42  1  0
 41 43  1  0
 15 19  2  0
 16 22  2  0
 12 17  1  1
 17 19  1  0
 17 20  1  0
 18 19  1  0
 18 22  1  0
 18 23  1  0
  9 10  1  0
  9 11  1  0
 10 12  1  0
 11  5  1  1
 33 34  1  0
 33 35  1  0
 34 36  1  0
 35 37  1  0
 36 42  1  6
 20 21  2  0
 21 22  1  0
M  CHG  2   2  -1  26  -1
M  END
>  <COMPND>  (152) 
    8629 

>  <AUTHOR>  (152) 
    GENERATED BY OPEN BABEL 3.1.1

>  <MASTER>  (152) 
        0    0    0    0    0    0    0    0   58    0   58    0

>  <minimizedAffinity>  (152) 
-7.34605

>  <CNNscore>  (152) 
0.4293054342

>  <CNNaffinity>  (152) 
3.9649505615

>  <CNN_VS>  (152) 
1.7021747828

>  <CNNaffinity_variance>  (152) 
0.1512783468

$$$$
153
     RDKit          3D

 43 45  0  0  0  0  0  0  0  0999 V2000
   19.8978   70.9290   -1.0359 P   0  0  2  0  0  0  0  0  0  0  0  0
   18.7153   69.9981   -1.6298 O   0  0  0  0  0  0  0  0  0  0  0  0
   19.4366   72.0615   -0.1663 O   0  0  0  0  0  0  0  0  0  0  0  0
   20.7540   71.3501   -2.3426 O   0  0  0  0  0  0  0  0  0  0  0  0
   21.0280   72.7236   -2.5576 C   0  0  0  0  0  0  0  0  0  0  0  0
   21.3712   71.8659   -4.7758 O   0  0  0  0  0  0  0  0  0  0  0  0
   22.7305   74.4714   -5.3710 O   0  0  0  0  0  0  0  0  0  0  0  0
   20.2621   74.8228   -6.4755 O   0  0  0  0  0  0  0  0  0  0  0  0
   21.6005   74.2126   -4.5396 C   0  0  1  0  0  0  0  0  0  0  0  0
   20.3779   73.9289   -5.3872 C   0  0  2  0  0  0  0  0  0  0  0  0
   21.8245   72.8745   -3.8464 C   0  0  1  0  0  0  0  0  0  0  0  0
   20.6273   72.4973   -5.8306 C   0  0  2  0  0  0  0  0  0  0  0  0
   22.6106   75.3213   -5.8241 H   0  0  0  0  0  0  0  0  0  0  0  0
   20.1042   75.7198   -6.1419 H   0  0  0  0  0  0  0  0  0  0  0  0
   19.9552   71.1733   -8.2333 O   0  0  0  0  0  0  0  0  0  0  0  0
   15.9218   69.7365   -6.5277 O   0  0  0  0  0  0  0  0  0  0  0  0
   19.4081   71.7691   -6.0418 N   0  0  0  0  0  0  0  0  0  0  0  0
   17.9475   70.4588   -7.3820 N   0  0  0  0  0  0  0  0  0  0  0  0
   19.1670   71.1412   -7.2860 C   0  0  0  0  0  0  0  0  0  0  0  0
   18.4668   71.6828   -5.0217 C   0  0  0  0  0  0  0  0  0  0  0  0
   17.3082   71.0293   -5.1297 C   0  0  0  0  0  0  0  0  0  0  0  0
   16.9791   70.3456   -6.3971 C   0  0  0  0  0  0  0  0  0  0  0  0
   17.7578   70.0139   -8.2399 H   0  0  0  0  0  0  0  0  0  0  0  0
   20.8629   69.8633   -0.2970 O   0  0  0  0  0  0  0  0  0  0  0  0
   22.2426   70.0689    0.5197 P   0  0  2  0  0  0  0  0  0  0  0  0
   23.1487   70.9429   -0.4965 O   0  0  0  0  0  0  0  0  0  0  0  0
   22.8831   68.7906    0.9774 O   0  0  0  0  0  0  0  0  0  0  0  0
   21.8642   71.0910    1.7102 O   0  0  0  0  0  0  0  0  0  0  0  0
   21.7675   73.4476    1.9423 O   0  0  0  0  0  0  0  0  0  0  0  0
   23.7086   72.5166    5.4659 O   0  0  0  0  0  0  0  0  0  0  0  0
   20.9669   73.3685    5.5398 O   0  0  0  0  0  0  0  0  0  0  0  0
   24.3326   71.0579    3.0447 O   0  0  0  0  0  0  0  0  0  0  0  0
   22.7825   72.3127    4.3953 C   0  0  1  0  0  0  0  0  0  0  0  0
   21.7954   73.4815    4.3860 C   0  0  1  0  0  0  0  0  0  0  0  0
   23.5506   72.2470    3.0766 C   0  0  2  0  0  0  0  0  0  0  0  0
   20.9405   73.4744    3.1115 C   0  0  1  0  0  0  0  0  0  0  0  0
   22.6093   72.2951    1.8717 C   0  0  1  0  0  0  0  0  0  0  0  0
   23.2274   72.5587    6.3062 H   0  0  0  0  0  0  0  0  0  0  0  0
   21.5190   73.3738    6.3375 H   0  0  0  0  0  0  0  0  0  0  0  0
   24.9244   71.0396    3.8123 H   0  0  0  0  0  0  0  0  0  0  0  0
   20.5035   75.6644    3.9612 O   0  0  0  0  0  0  0  0  0  0  0  0
   20.0599   74.7177    3.0066 C   0  0  0  0  0  0  0  0  0  0  0  0
   19.9523   76.4612    3.9057 H   0  0  0  0  0  0  0  0  0  0  0  0
 25 28  1  0
 25 24  1  0
 25 26  1  6
 25 27  2  0
  1  4  1  0
  1 24  1  0
  1  2  1  6
  1  3  2  0
  6 11  1  0
  6 12  1  0
 29 36  1  0
 29 37  1  0
  9  7  1  6
  7 13  1  0
 10  8  1  6
  8 14  1  0
 37 28  1  1
  4  5  1  0
 33 30  1  1
 30 38  1  0
 34 31  1  1
 31 39  1  0
 35 32  1  1
 32 40  1  0
 41 42  1  0
 41 43  1  0
 15 19  2  0
 16 22  2  0
 12 17  1  1
 17 19  1  0
 17 20  1  0
 18 19  1  0
 18 22  1  0
 18 23  1  0
  9 10  1  0
  9 11  1  0
 10 12  1  0
 11  5  1  1
 33 34  1  0
 33 35  1  0
 34 36  1  0
 35 37  1  0
 36 42  1  6
 20 21  2  0
 21 22  1  0
M  CHG  2   2  -1  26  -1
M  END
>  <COMPND>  (153) 
    8629 

>  <AUTHOR>  (153) 
    GENERATED BY OPEN BABEL 3.1.1

>  <MASTER>  (153) 
        0    0    0    0    0    0    0    0   58    0   58    0

>  <minimizedAffinity>  (153) 
-6.77620

>  <CNNscore>  (153) 
0.4161533713

>  <CNNaffinity>  (153) 
4.1891355515

>  <CNN_VS>  (153) 
1.7433228493

>  <CNNaffinity_variance>  (153) 
0.0196591914

$$$$
154
     RDKit          3D

 43 45  0  0  0  0  0  0  0  0999 V2000
   21.7134   71.8095   -2.1720 P   0  0  2  0  0  0  0  0  0  0  0  0
   22.7139   73.0581   -2.4116 O   0  0  0  0  0  0  0  0  0  0  0  0
   22.3770   70.4643   -2.1325 O   0  0  0  0  0  0  0  0  0  0  0  0
   20.5766   71.9991   -3.3076 O   0  0  0  0  0  0  0  0  0  0  0  0
   20.0628   73.2991   -3.5394 C   0  0  0  0  0  0  0  0  0  0  0  0
   19.6975   72.2880   -5.6884 O   0  0  0  0  0  0  0  0  0  0  0  0
   19.2176   75.0674   -6.7060 O   0  0  0  0  0  0  0  0  0  0  0  0
   16.6865   74.0928   -6.4228 O   0  0  0  0  0  0  0  0  0  0  0  0
   18.8751   74.4970   -5.4440 C   0  0  1  0  0  0  0  0  0  0  0  0
   17.6977   73.5564   -5.5943 C   0  0  2  0  0  0  0  0  0  0  0  0
   19.9937   73.5445   -5.0405 C   0  0  1  0  0  0  0  0  0  0  0  0
   18.3533   72.3245   -6.1950 C   0  0  2  0  0  0  0  0  0  0  0  0
   18.5180   75.6797   -6.9845 H   0  0  0  0  0  0  0  0  0  0  0  0
   16.3003   74.8742   -5.9972 H   0  0  0  0  0  0  0  0  0  0  0  0
   16.1128   71.2623   -7.5477 O   0  0  0  0  0  0  0  0  0  0  0  0
   15.8590   67.6623   -4.6811 O   0  0  0  0  0  0  0  0  0  0  0  0
   17.6820   71.1108   -5.8238 N   0  0  0  0  0  0  0  0  0  0  0  0
   15.9884   69.4705   -6.1194 N   0  0  0  0  0  0  0  0  0  0  0  0
   16.5654   70.6651   -6.5688 C   0  0  0  0  0  0  0  0  0  0  0  0
   18.1320   70.3760   -4.7323 C   0  0  0  0  0  0  0  0  0  0  0  0
   17.5698   69.2394   -4.3158 C   0  0  0  0  0  0  0  0  0  0  0  0
   16.3982   68.7047   -5.0394 C   0  0  0  0  0  0  0  0  0  0  0  0
   15.2088   69.1409   -6.6228 H   0  0  0  0  0  0  0  0  0  0  0  0
   20.9407   72.2186   -0.8124 O   0  0  0  0  0  0  0  0  0  0  0  0
   20.1253   71.3210    0.2563 P   0  0  2  0  0  0  0  0  0  0  0  0
   19.8432   69.9476   -0.5511 O   0  0  0  0  0  0  0  0  0  0  0  0
   18.8932   71.9824    0.8026 O   0  0  0  0  0  0  0  0  0  0  0  0
   21.2199   70.9200    1.3726 O   0  0  0  0  0  0  0  0  0  0  0  0
   22.9190   72.4407    2.0184 O   0  0  0  0  0  0  0  0  0  0  0  0
   24.7452   68.9045    3.1190 O   0  0  0  0  0  0  0  0  0  0  0  0
   23.7400   70.6723    5.1469 O   0  0  0  0  0  0  0  0  0  0  0  0
   23.1725   69.0229    0.6917 O   0  0  0  0  0  0  0  0  0  0  0  0
   23.6448   69.7967    2.9232 C   0  0  1  0  0  0  0  0  0  0  0  0
   23.8800   71.0434    3.7784 C   0  0  1  0  0  0  0  0  0  0  0  0
   23.5601   70.1677    1.4438 C   0  0  2  0  0  0  0  0  0  0  0  0
   22.8847   72.1557    3.4218 C   0  0  1  0  0  0  0  0  0  0  0  0
   22.5786   71.3164    1.2048 C   0  0  1  0  0  0  0  0  0  0  0  0
   24.8042   68.6647    4.0563 H   0  0  0  0  0  0  0  0  0  0  0  0
   24.3736   69.9690    5.3590 H   0  0  0  0  0  0  0  0  0  0  0  0
   23.8018   68.3030    0.8513 H   0  0  0  0  0  0  0  0  0  0  0  0
   22.7087   73.3665    5.4741 O   0  0  0  0  0  0  0  0  0  0  0  0
   23.2003   73.4605    4.1498 C   0  0  0  0  0  0  0  0  0  0  0  0
   22.9027   74.1899    5.9495 H   0  0  0  0  0  0  0  0  0  0  0  0
 25 28  1  0
 25 24  1  0
 25 26  1  6
 25 27  2  0
  1  4  1  0
  1 24  1  0
  1  2  1  6
  1  3  2  0
  6 11  1  0
  6 12  1  0
 29 36  1  0
 29 37  1  0
  9  7  1  6
  7 13  1  0
 10  8  1  6
  8 14  1  0
 37 28  1  1
  4  5  1  0
 33 30  1  6
 30 38  1  0
 34 31  1  1
 31 39  1  0
 35 32  1  6
 32 40  1  0
 41 42  1  0
 41 43  1  0
 15 19  2  0
 16 22  2  0
 12 17  1  1
 17 19  1  0
 17 20  1  0
 18 19  1  0
 18 22  1  0
 18 23  1  0
  9 10  1  0
  9 11  1  0
 10 12  1  0
 11  5  1  1
 33 34  1  0
 33 35  1  0
 34 36  1  0
 35 37  1  0
 36 42  1  1
 20 21  2  0
 21 22  1  0
M  CHG  2   2  -1  26  -1
M  END
>  <COMPND>  (154) 
    8629 

>  <AUTHOR>  (154) 
    GENERATED BY OPEN BABEL 3.1.1

>  <MASTER>  (154) 
        0    0    0    0    0    0    0    0   58    0   58    0

>  <minimizedAffinity>  (154) 
-7.80484

>  <CNNscore>  (154) 
0.3924755156

>  <CNNaffinity>  (154) 
4.0837354660

>  <CNN_VS>  (154) 
1.6027661562

>  <CNNaffinity_variance>  (154) 
0.2185150087

$$$$
155
     RDKit          3D

 43 45  0  0  0  0  0  0  0  0999 V2000
   20.8380   70.3212   -0.2251 P   0  0  2  0  0  0  0  0  0  0  0  0
   19.3759   70.3360   -0.9175 O   0  0  0  0  0  0  0  0  0  0  0  0
   21.0905   69.1652    0.6976 O   0  0  0  0  0  0  0  0  0  0  0  0
   20.9685   71.7911    0.4383 O   0  0  0  0  0  0  0  0  0  0  0  0
   21.3333   71.8866    1.8042 C   0  0  0  0  0  0  0  0  0  0  0  0
   23.3486   72.9702    2.5377 O   0  0  0  0  0  0  0  0  0  0  0  0
   24.6166   70.2543    2.4554 O   0  0  0  0  0  0  0  0  0  0  0  0
   24.1119   70.5943    5.1136 O   0  0  0  0  0  0  0  0  0  0  0  0
   23.2881   70.6189    2.8263 C   0  0  1  0  0  0  0  0  0  0  0  0
   23.2844   71.2740    4.1917 C   0  0  2  0  0  0  0  0  0  0  0  0
   22.8462   71.7635    1.9230 C   0  0  1  0  0  0  0  0  0  0  0  0
   23.7893   72.6709    3.8723 C   0  0  2  0  0  0  0  0  0  0  0  0
   24.9206   69.5246    3.0184 H   0  0  0  0  0  0  0  0  0  0  0  0
   23.7489   69.7112    5.2842 H   0  0  0  0  0  0  0  0  0  0  0  0
   25.3664   74.5465    5.2769 O   0  0  0  0  0  0  0  0  0  0  0  0
   21.6690   76.4229    7.2893 O   0  0  0  0  0  0  0  0  0  0  0  0
   23.2649   73.6613    4.7697 N   0  0  0  0  0  0  0  0  0  0  0  0
   23.5241   75.4794    6.2776 N   0  0  0  0  0  0  0  0  0  0  0  0
   24.1427   74.5553    5.4260 C   0  0  0  0  0  0  0  0  0  0  0  0
   21.8942   73.7394    4.9912 C   0  0  0  0  0  0  0  0  0  0  0  0
   21.3202   74.6256    5.8075 C   0  0  0  0  0  0  0  0  0  0  0  0
   22.1666   75.5957    6.5317 C   0  0  0  0  0  0  0  0  0  0  0  0
   24.1159   76.1120    6.7459 H   0  0  0  0  0  0  0  0  0  0  0  0
   21.8404   70.4034   -1.4905 O   0  0  0  0  0  0  0  0  0  0  0  0
   22.2000   71.6283   -2.4821 P   0  0  2  0  0  0  0  0  0  0  0  0
   23.3267   70.9978   -3.4571 O   0  0  0  0  0  0  0  0  0  0  0  0
   22.6228   72.8855   -1.7788 O   0  0  0  0  0  0  0  0  0  0  0  0
   20.8958   71.7921   -3.4187 O   0  0  0  0  0  0  0  0  0  0  0  0
   19.8541   69.8936   -4.3816 O   0  0  0  0  0  0  0  0  0  0  0  0
   18.4970   72.7876   -6.9957 O   0  0  0  0  0  0  0  0  0  0  0  0
   16.6783   71.6201   -5.1043 O   0  0  0  0  0  0  0  0  0  0  0  0
   21.2003   72.9222   -5.9692 O   0  0  0  0  0  0  0  0  0  0  0  0
   18.8967   72.2618   -5.7272 C   0  0  1  0  0  0  0  0  0  0  0  0
   17.9730   71.0926   -5.3801 C   0  0  1  0  0  0  0  0  0  0  0  0
   20.3477   71.7926   -5.8160 C   0  0  2  0  0  0  0  0  0  0  0  0
   18.5002   70.3105   -4.1696 C   0  0  1  0  0  0  0  0  0  0  0  0
   20.7561   70.9833   -4.5838 C   0  0  1  0  0  0  0  0  0  0  0  0
   17.5767   73.0878   -6.9459 H   0  0  0  0  0  0  0  0  0  0  0  0
   16.3571   72.1120   -5.8763 H   0  0  0  0  0  0  0  0  0  0  0  0
   20.9317   73.4261   -6.7527 H   0  0  0  0  0  0  0  0  0  0  0  0
   17.7085   68.7815   -2.5130 O   0  0  0  0  0  0  0  0  0  0  0  0
   17.6817   69.0492   -3.9029 C   0  0  0  0  0  0  0  0  0  0  0  0
   17.1912   67.9815   -2.3284 H   0  0  0  0  0  0  0  0  0  0  0  0
 25 28  1  0
 25 24  1  0
 25 26  1  6
 25 27  2  0
  1  4  1  0
  1 24  1  0
  1  2  1  6
  1  3  2  0
  6 11  1  0
  6 12  1  0
 29 36  1  0
 29 37  1  0
  9  7  1  6
  7 13  1  0
 10  8  1  1
  8 14  1  0
 37 28  1  1
  4  5  1  0
 33 30  1  6
 30 38  1  0
 34 31  1  1
 31 39  1  0
 35 32  1  1
 32 40  1  0
 41 42  1  0
 41 43  1  0
 15 19  2  0
 16 22  2  0
 12 17  1  1
 17 19  1  0
 17 20  1  0
 18 19  1  0
 18 22  1  0
 18 23  1  0
  9 10  1  0
  9 11  1  0
 10 12  1  0
 11  5  1  1
 33 34  1  0
 33 35  1  0
 34 36  1  0
 35 37  1  0
 36 42  1  6
 20 21  2  0
 21 22  1  0
M  CHG  2   2  -1  26  -1
M  END
>  <COMPND>  (155) 
    8629 

>  <AUTHOR>  (155) 
    GENERATED BY OPEN BABEL 3.1.1

>  <MASTER>  (155) 
        0    0    0    0    0    0    0    0   58    0   58    0

>  <minimizedAffinity>  (155) 
-7.59020

>  <CNNscore>  (155) 
0.3863724768

>  <CNNaffinity>  (155) 
4.0348610878

>  <CNN_VS>  (155) 
1.5589592457

>  <CNNaffinity_variance>  (155) 
0.1567333043

$$$$
156
     RDKit          3D

 43 45  0  0  0  0  0  0  0  0999 V2000
   22.8436   72.6650   -3.2695 P   0  0  2  0  0  0  0  0  0  0  0  0
   23.7063   71.3668   -3.7028 O   0  0  0  0  0  0  0  0  0  0  0  0
   23.6128   73.9526   -3.2293 O   0  0  0  0  0  0  0  0  0  0  0  0
   22.1445   72.2205   -1.8797 O   0  0  0  0  0  0  0  0  0  0  0  0
   22.9739   71.9322   -0.7676 C   0  0  0  0  0  0  0  0  0  0  0  0
   23.1137   70.6210    1.2411 O   0  0  0  0  0  0  0  0  0  0  0  0
   20.3224   69.7172    0.6224 O   0  0  0  0  0  0  0  0  0  0  0  0
   19.9214   71.6164    2.5379 O   0  0  0  0  0  0  0  0  0  0  0  0
   20.9249   70.9933    0.4128 C   0  0  1  0  0  0  0  0  0  0  0  0
   21.0751   71.7266    1.7293 C   0  0  2  0  0  0  0  0  0  0  0  0
   22.3760   70.7662    0.0078 C   0  0  1  0  0  0  0  0  0  0  0  0
   22.2838   71.0365    2.3382 C   0  0  2  0  0  0  0  0  0  0  0  0
   19.3947   69.8365    0.8817 H   0  0  0  0  0  0  0  0  0  0  0  0
   19.1803   72.0709    2.1078 H   0  0  0  0  0  0  0  0  0  0  0  0
   23.6164   70.2102    4.6876 O   0  0  0  0  0  0  0  0  0  0  0  0
   25.1559   74.4714    5.5323 O   0  0  0  0  0  0  0  0  0  0  0  0
   23.0407   71.9090    3.1910 N   0  0  0  0  0  0  0  0  0  0  0  0
   24.3820   72.3326    5.1062 N   0  0  0  0  0  0  0  0  0  0  0  0
   23.6705   71.3940    4.3479 C   0  0  0  0  0  0  0  0  0  0  0  0
   23.1530   73.2591    2.8768 C   0  0  0  0  0  0  0  0  0  0  0  0
   23.8341   74.1413    3.6110 C   0  0  0  0  0  0  0  0  0  0  0  0
   24.5217   73.6847    4.8361 C   0  0  0  0  0  0  0  0  0  0  0  0
   24.8287   71.9967    5.9170 H   0  0  0  0  0  0  0  0  0  0  0  0
   21.6123   72.6493   -4.3168 O   0  0  0  0  0  0  0  0  0  0  0  0
   21.3983   73.4311   -5.7153 P   0  0  2  0  0  0  0  0  0  0  0  0
   22.6685   72.9620   -6.6008 O   0  0  0  0  0  0  0  0  0  0  0  0
   21.2581   74.9191   -5.5733 O   0  0  0  0  0  0  0  0  0  0  0  0
   20.1319   72.7024   -6.4011 O   0  0  0  0  0  0  0  0  0  0  0  0
   19.0205   70.7604   -5.6200 O   0  0  0  0  0  0  0  0  0  0  0  0
   18.4417   70.2645   -9.6783 O   0  0  0  0  0  0  0  0  0  0  0  0
   16.2283   71.0221   -8.0124 O   0  0  0  0  0  0  0  0  0  0  0  0
   20.9550   71.3120   -8.6955 O   0  0  0  0  0  0  0  0  0  0  0  0
   18.5774   71.0052   -8.4624 C   0  0  1  0  0  0  0  0  0  0  0  0
   17.4744   70.5564   -7.5018 C   0  0  1  0  0  0  0  0  0  0  0  0
   19.9559   70.7329   -7.8632 C   0  0  2  0  0  0  0  0  0  0  0  0
   17.7123   71.1069   -6.0892 C   0  0  1  0  0  0  0  0  0  0  0  0
   20.0705   71.2790   -6.4388 C   0  0  1  0  0  0  0  0  0  0  0  0
   17.5687   70.4334  -10.0642 H   0  0  0  0  0  0  0  0  0  0  0  0
   16.0905   70.6678   -8.9050 H   0  0  0  0  0  0  0  0  0  0  0  0
   20.8720   70.9581   -9.5942 H   0  0  0  0  0  0  0  0  0  0  0  0
   15.9954   69.4919   -5.6980 O   0  0  0  0  0  0  0  0  0  0  0  0
   16.7131   70.5444   -5.0805 C   0  0  0  0  0  0  0  0  0  0  0  0
   15.3559   69.1241   -5.0675 H   0  0  0  0  0  0  0  0  0  0  0  0
 25 28  1  0
 25 24  1  0
 25 26  1  6
 25 27  2  0
  1  4  1  0
  1 24  1  0
  1  2  1  6
  1  3  2  0
  6 11  1  0
  6 12  1  0
 29 36  1  0
 29 37  1  0
  9  7  1  1
  7 13  1  0
 10  8  1  1
  8 14  1  0
 37 28  1  6
  4  5  1  0
 33 30  1  6
 30 38  1  0
 34 31  1  6
 31 39  1  0
 35 32  1  6
 32 40  1  0
 41 42  1  0
 41 43  1  0
 15 19  2  0
 16 22  2  0
 12 17  1  1
 17 19  1  0
 17 20  1  0
 18 19  1  0
 18 22  1  0
 18 23  1  0
  9 10  1  0
  9 11  1  0
 10 12  1  0
 11  5  1  1
 33 34  1  0
 33 35  1  0
 34 36  1  0
 35 37  1  0
 36 42  1  1
 20 21  2  0
 21 22  1  0
M  CHG  2   2  -1  26  -1
M  END
>  <COMPND>  (156) 
    8629 

>  <AUTHOR>  (156) 
    GENERATED BY OPEN BABEL 3.1.1

>  <MASTER>  (156) 
        0    0    0    0    0    0    0    0   58    0   58    0

>  <minimizedAffinity>  (156) 
-8.84553

>  <CNNscore>  (156) 
0.3420020640

>  <CNNaffinity>  (156) 
3.7749385834

>  <CNN_VS>  (156) 
1.2910368443

>  <CNNaffinity_variance>  (156) 
0.2926574349

$$$$
157
     RDKit          3D

 43 45  0  0  0  0  0  0  0  0999 V2000
   21.4326   75.0589   -3.0318 P   0  0  2  0  0  0  0  0  0  0  0  0
   22.9843   75.0616   -3.4898 O   0  0  0  0  0  0  0  0  0  0  0  0
   20.8779   76.4038   -2.6644 O   0  0  0  0  0  0  0  0  0  0  0  0
   21.3721   73.9330   -1.8714 O   0  0  0  0  0  0  0  0  0  0  0  0
   22.5697   73.2652   -1.5142 C   0  0  0  0  0  0  0  0  0  0  0  0
   23.1888   71.0232   -0.9109 O   0  0  0  0  0  0  0  0  0  0  0  0
   20.9211   70.1271   -2.6560 O   0  0  0  0  0  0  0  0  0  0  0  0
   19.8591   69.9273   -0.1523 O   0  0  0  0  0  0  0  0  0  0  0  0
   21.0127   71.2755   -1.8145 C   0  0  1  0  0  0  0  0  0  0  0  0
   20.8887   70.8727   -0.3599 C   0  0  2  0  0  0  0  0  0  0  0  0
   22.4443   71.7926   -1.8804 C   0  0  1  0  0  0  0  0  0  0  0  0
   22.2688   70.3071   -0.0708 C   0  0  2  0  0  0  0  0  0  0  0  0
   20.0155   69.7792   -2.6306 H   0  0  0  0  0  0  0  0  0  0  0  0
   19.0013   70.3348   -0.3493 H   0  0  0  0  0  0  0  0  0  0  0  0
   20.9486   72.0100    1.7554 O   0  0  0  0  0  0  0  0  0  0  0  0
   23.8443   70.9008    5.1650 O   0  0  0  0  0  0  0  0  0  0  0  0
   22.6562   70.4822    1.3005 N   0  0  0  0  0  0  0  0  0  0  0  0
   22.3914   71.4562    3.4517 N   0  0  0  0  0  0  0  0  0  0  0  0
   21.9268   71.3622    2.1336 C   0  0  0  0  0  0  0  0  0  0  0  0
   23.7482   69.7855    1.8065 C   0  0  0  0  0  0  0  0  0  0  0  0
   24.1792   69.8872    3.0655 C   0  0  0  0  0  0  0  0  0  0  0  0
   23.4724   70.7854    4.0013 C   0  0  0  0  0  0  0  0  0  0  0  0
   21.8989   72.0636    4.0503 H   0  0  0  0  0  0  0  0  0  0  0  0
   20.6883   74.3407   -4.2741 O   0  0  0  0  0  0  0  0  0  0  0  0
   21.2788   73.6645   -5.6183 P   0  0  2  0  0  0  0  0  0  0  0  0
   22.2520   72.5025   -5.0524 O   0  0  0  0  0  0  0  0  0  0  0  0
   21.9472   74.6322   -6.5514 O   0  0  0  0  0  0  0  0  0  0  0  0
   20.0280   72.8718   -6.2603 O   0  0  0  0  0  0  0  0  0  0  0  0
   18.9773   70.8836   -5.5121 O   0  0  0  0  0  0  0  0  0  0  0  0
   18.5891   70.3419   -9.5873 O   0  0  0  0  0  0  0  0  0  0  0  0
   16.2764   71.0028   -8.0181 O   0  0  0  0  0  0  0  0  0  0  0  0
   21.0084   71.5107   -8.5100 O   0  0  0  0  0  0  0  0  0  0  0  0
   18.6401   71.0939   -8.3719 C   0  0  1  0  0  0  0  0  0  0  0  0
   17.5208   70.5985   -7.4540 C   0  0  1  0  0  0  0  0  0  0  0  0
   20.0040   70.8893   -7.7152 C   0  0  2  0  0  0  0  0  0  0  0  0
   17.6746   71.1662   -6.0366 C   0  0  1  0  0  0  0  0  0  0  0  0
   20.0346   71.4469   -6.2910 C   0  0  1  0  0  0  0  0  0  0  0  0
   17.7257   70.4678  -10.0095 H   0  0  0  0  0  0  0  0  0  0  0  0
   16.1919   70.6382   -8.9131 H   0  0  0  0  0  0  0  0  0  0  0  0
   20.9789   71.1489   -9.4089 H   0  0  0  0  0  0  0  0  0  0  0  0
   15.9946   69.4975   -5.7173 O   0  0  0  0  0  0  0  0  0  0  0  0
   16.6623   70.5623   -5.0657 C   0  0  0  0  0  0  0  0  0  0  0  0
   15.3473   69.1034   -5.1111 H   0  0  0  0  0  0  0  0  0  0  0  0
 25 28  1  0
 25 24  1  0
 25 26  1  1
 25 27  2  0
  1  4  1  0
  1 24  1  0
  1  2  1  6
  1  3  2  0
  6 11  1  0
  6 12  1  0
 29 36  1  0
 29 37  1  0
  9  7  1  6
  7 13  1  0
 10  8  1  6
  8 14  1  0
 37 28  1  6
  4  5  1  0
 33 30  1  6
 30 38  1  0
 34 31  1  6
 31 39  1  0
 35 32  1  6
 32 40  1  0
 41 42  1  0
 41 43  1  0
 15 19  2  0
 16 22  2  0
 12 17  1  1
 17 19  1  0
 17 20  1  0
 18 19  1  0
 18 22  1  0
 18 23  1  0
  9 10  1  0
  9 11  1  0
 10 12  1  0
 11  5  1  1
 33 34  1  0
 33 35  1  0
 34 36  1  0
 35 37  1  0
 36 42  1  1
 20 21  2  0
 21 22  1  0
M  CHG  2   2  -1  26  -1
M  END
>  <COMPND>  (157) 
    8629 

>  <AUTHOR>  (157) 
    GENERATED BY OPEN BABEL 3.1.1

>  <MASTER>  (157) 
        0    0    0    0    0    0    0    0   58    0   58    0

>  <minimizedAffinity>  (157) 
-8.10436

>  <CNNscore>  (157) 
0.3332113028

>  <CNNaffinity>  (157) 
3.8464455605

>  <CNN_VS>  (157) 
1.2816791534

>  <CNNaffinity_variance>  (157) 
0.3876999915

$$$$
158
     RDKit          3D

 43 45  0  0  0  0  0  0  0  0999 V2000
   18.2193   73.1329   -0.8947 P   0  0  2  0  0  0  0  0  0  0  0  0
   17.2044   74.0175   -1.7919 O   0  0  0  0  0  0  0  0  0  0  0  0
   18.4752   73.6661    0.4844 O   0  0  0  0  0  0  0  0  0  0  0  0
   19.5243   72.9648   -1.8363 O   0  0  0  0  0  0  0  0  0  0  0  0
   20.7851   73.3548   -1.3203 C   0  0  0  0  0  0  0  0  0  0  0  0
   22.7274   72.2906   -0.3881 O   0  0  0  0  0  0  0  0  0  0  0  0
   21.9089   69.8588   -1.9396 O   0  0  0  0  0  0  0  0  0  0  0  0
   21.0483   69.2732    0.5809 O   0  0  0  0  0  0  0  0  0  0  0  0
   21.0924   70.8294   -1.2866 C   0  0  1  0  0  0  0  0  0  0  0  0
   21.1426   70.6346    0.2144 C   0  0  2  0  0  0  0  0  0  0  0  0
   21.7569   72.1903   -1.4533 C   0  0  1  0  0  0  0  0  0  0  0  0
   22.4897   71.2429    0.5661 C   0  0  2  0  0  0  0  0  0  0  0  0
   21.5046   68.9813   -1.8471 H   0  0  0  0  0  0  0  0  0  0  0  0
   20.1738   68.9322    0.3366 H   0  0  0  0  0  0  0  0  0  0  0  0
   23.4756   69.9063    2.8507 O   0  0  0  0  0  0  0  0  0  0  0  0
   22.5139   73.4883    5.5868 O   0  0  0  0  0  0  0  0  0  0  0  0
   22.5094   71.8028    1.8880 N   0  0  0  0  0  0  0  0  0  0  0  0
   22.9961   71.6910    4.2112 N   0  0  0  0  0  0  0  0  0  0  0  0
   23.0251   71.0478    2.9672 C   0  0  0  0  0  0  0  0  0  0  0  0
   22.0214   73.0870    2.1040 C   0  0  0  0  0  0  0  0  0  0  0  0
   21.9997   73.6855    3.2967 C   0  0  0  0  0  0  0  0  0  0  0  0
   22.5202   72.9652    4.4767 C   0  0  0  0  0  0  0  0  0  0  0  0
   23.3499   71.1841    4.9777 H   0  0  0  0  0  0  0  0  0  0  0  0
   17.5510   71.6616   -0.9339 O   0  0  0  0  0  0  0  0  0  0  0  0
   17.3210   70.6325   -2.1590 P   0  0  2  0  0  0  0  0  0  0  0  0
   15.7162   70.6514   -2.3632 O   0  0  0  0  0  0  0  0  0  0  0  0
   17.9003   69.2662   -1.9319 O   0  0  0  0  0  0  0  0  0  0  0  0
   17.9057   71.4002   -3.4527 O   0  0  0  0  0  0  0  0  0  0  0  0
   16.7819   71.2783   -5.5357 O   0  0  0  0  0  0  0  0  0  0  0  0
   20.5604   72.2604   -6.8809 O   0  0  0  0  0  0  0  0  0  0  0  0
   18.4691   74.2268   -6.9671 O   0  0  0  0  0  0  0  0  0  0  0  0
   20.2489   70.4338   -4.6569 O   0  0  0  0  0  0  0  0  0  0  0  0
   19.4521   72.2839   -5.9773 C   0  0  1  0  0  0  0  0  0  0  0  0
   18.2379   72.8423   -6.7221 C   0  0  1  0  0  0  0  0  0  0  0  0
   19.1763   70.8632   -5.4886 C   0  0  2  0  0  0  0  0  0  0  0  0
   16.9519   72.6513   -5.9068 C   0  0  1  0  0  0  0  0  0  0  0  0
   17.8500   70.7737   -4.7316 C   0  0  1  0  0  0  0  0  0  0  0  0
   20.7411   73.1595   -7.1946 H   0  0  0  0  0  0  0  0  0  0  0  0
   19.2842   74.3336   -7.4822 H   0  0  0  0  0  0  0  0  0  0  0  0
   21.0828   70.4948   -5.1477 H   0  0  0  0  0  0  0  0  0  0  0  0
   15.9578   72.8358   -8.0717 O   0  0  0  0  0  0  0  0  0  0  0  0
   15.7090   73.0573   -6.6957 C   0  0  0  0  0  0  0  0  0  0  0  0
   15.1751   73.0895   -8.5862 H   0  0  0  0  0  0  0  0  0  0  0  0
 25 28  1  0
 25 24  1  0
 25 26  1  6
 25 27  2  0
  1  4  1  0
  1 24  1  0
  1  2  1  6
  1  3  2  0
  6 11  1  0
  6 12  1  0
 29 36  1  0
 29 37  1  0
  9  7  1  6
  7 13  1  0
 10  8  1  6
  8 14  1  0
 37 28  1  1
  4  5  1  0
 33 30  1  6
 30 38  1  0
 34 31  1  1
 31 39  1  0
 35 32  1  1
 32 40  1  0
 41 42  1  0
 41 43  1  0
 15 19  2  0
 16 22  2  0
 12 17  1  1
 17 19  1  0
 17 20  1  0
 18 19  1  0
 18 22  1  0
 18 23  1  0
  9 10  1  0
  9 11  1  0
 10 12  1  0
 11  5  1  1
 33 34  1  0
 33 35  1  0
 34 36  1  0
 35 37  1  0
 36 42  1  6
 20 21  2  0
 21 22  1  0
M  CHG  2   2  -1  26  -1
M  END
>  <COMPND>  (158) 
    8629 

>  <AUTHOR>  (158) 
    GENERATED BY OPEN BABEL 3.1.1

>  <MASTER>  (158) 
        0    0    0    0    0    0    0    0   58    0   58    0

>  <minimizedAffinity>  (158) 
-7.29109

>  <CNNscore>  (158) 
0.2959064841

>  <CNNaffinity>  (158) 
3.9898743629

>  <CNN_VS>  (158) 
1.1806297302

>  <CNNaffinity_variance>  (158) 
0.1321312487

$$$$
159
     RDKit          3D

 43 45  0  0  0  0  0  0  0  0999 V2000
   19.9670   71.0536   -0.8588 P   0  0  2  0  0  0  0  0  0  0  0  0
   20.1162   72.6210   -1.2307 O   0  0  0  0  0  0  0  0  0  0  0  0
   19.0162   70.7562    0.2633 O   0  0  0  0  0  0  0  0  0  0  0  0
   21.4919   70.5601   -0.6371 O   0  0  0  0  0  0  0  0  0  0  0  0
   21.8268   69.9277    0.5859 C   0  0  0  0  0  0  0  0  0  0  0  0
   22.9073   71.8729    1.4927 O   0  0  0  0  0  0  0  0  0  0  0  0
   25.0724   70.0124    2.4100 O   0  0  0  0  0  0  0  0  0  0  0  0
   23.6323   70.4184    4.6898 O   0  0  0  0  0  0  0  0  0  0  0  0
   23.6644   69.7935    2.3404 C   0  0  1  0  0  0  0  0  0  0  0  0
   22.9603   70.5420    3.4529 C   0  0  2  0  0  0  0  0  0  0  0  0
   23.1400   70.5031    1.0982 C   0  0  1  0  0  0  0  0  0  0  0  0
   22.9637   71.9667    2.9255 C   0  0  2  0  0  0  0  0  0  0  0  0
   25.4301   69.5683    3.1953 H   0  0  0  0  0  0  0  0  0  0  0  0
   23.6026   69.4944    4.9832 H   0  0  0  0  0  0  0  0  0  0  0  0
   22.8610   73.3275    5.3985 O   0  0  0  0  0  0  0  0  0  0  0  0
   18.5824   74.8413    4.5960 O   0  0  0  0  0  0  0  0  0  0  0  0
   21.8355   72.7246    3.3880 N   0  0  0  0  0  0  0  0  0  0  0  0
   20.7307   74.0803    4.9968 N   0  0  0  0  0  0  0  0  0  0  0  0
   21.8854   73.3692    4.6460 C   0  0  0  0  0  0  0  0  0  0  0  0
   20.6958   72.8234    2.5972 C   0  0  0  0  0  0  0  0  0  0  0  0
   19.6025   73.5043    2.9469 C   0  0  0  0  0  0  0  0  0  0  0  0
   19.5728   74.2069    4.2459 C   0  0  0  0  0  0  0  0  0  0  0  0
   20.7425   74.5372    5.8691 H   0  0  0  0  0  0  0  0  0  0  0  0
   19.5694   70.3806   -2.2737 O   0  0  0  0  0  0  0  0  0  0  0  0
   18.1315   69.9675   -2.8859 P   0  0  2  0  0  0  0  0  0  0  0  0
   17.1169   71.0197   -2.1925 O   0  0  0  0  0  0  0  0  0  0  0  0
   17.7657   68.5262   -2.6790 O   0  0  0  0  0  0  0  0  0  0  0  0
   18.1992   70.4251   -4.4322 O   0  0  0  0  0  0  0  0  0  0  0  0
   19.3565   72.2578   -5.3907 O   0  0  0  0  0  0  0  0  0  0  0  0
   16.0435   72.2079   -7.8548 O   0  0  0  0  0  0  0  0  0  0  0  0
   18.5800   71.3241   -8.8712 O   0  0  0  0  0  0  0  0  0  0  0  0
   15.7491   71.6567   -5.0283 O   0  0  0  0  0  0  0  0  0  0  0  0
   17.0712   71.6353   -7.0416 C   0  0  1  0  0  0  0  0  0  0  0  0
   18.4260   72.0216   -7.6383 C   0  0  1  0  0  0  0  0  0  0  0  0
   16.9381   72.1721   -5.6177 C   0  0  2  0  0  0  0  0  0  0  0  0
   19.5729   71.6730   -6.6802 C   0  0  1  0  0  0  0  0  0  0  0  0
   18.1536   71.8109   -4.7620 C   0  0  1  0  0  0  0  0  0  0  0  0
   16.1220   71.8708   -8.7602 H   0  0  0  0  0  0  0  0  0  0  0  0
   17.8492   71.5527   -9.4669 H   0  0  0  0  0  0  0  0  0  0  0  0
   14.9870   71.8922   -5.5792 H   0  0  0  0  0  0  0  0  0  0  0  0
   21.2498   71.4967   -8.3731 O   0  0  0  0  0  0  0  0  0  0  0  0
   20.9176   72.1916   -7.1852 C   0  0  0  0  0  0  0  0  0  0  0  0
   22.1033   71.8167   -8.7061 H   0  0  0  0  0  0  0  0  0  0  0  0
 25 28  1  0
 25 24  1  0
 25 26  1  1
 25 27  2  0
  1  4  1  0
  1 24  1  0
  1  2  1  6
  1  3  2  0
  6 11  1  0
  6 12  1  0
 29 36  1  0
 29 37  1  0
  9  7  1  1
  7 13  1  0
 10  8  1  1
  8 14  1  0
 37 28  1  6
  4  5  1  0
 33 30  1  6
 30 38  1  0
 34 31  1  6
 31 39  1  0
 35 32  1  1
 32 40  1  0
 41 42  1  0
 41 43  1  0
 15 19  2  0
 16 22  2  0
 12 17  1  1
 17 19  1  0
 17 20  1  0
 18 19  1  0
 18 22  1  0
 18 23  1  0
  9 10  1  0
  9 11  1  0
 10 12  1  0
 11  5  1  1
 33 34  1  0
 33 35  1  0
 34 36  1  0
 35 37  1  0
 36 42  1  6
 20 21  2  0
 21 22  1  0
M  CHG  2   2  -1  26  -1
M  END
>  <COMPND>  (159) 
    8629 

>  <AUTHOR>  (159) 
    GENERATED BY OPEN BABEL 3.1.1

>  <MASTER>  (159) 
        0    0    0    0    0    0    0    0   58    0   58    0

>  <minimizedAffinity>  (159) 
-7.51772

>  <CNNscore>  (159) 
0.2929731905

>  <CNNaffinity>  (159) 
3.9721839428

>  <CNN_VS>  (159) 
1.1637433767

>  <CNNaffinity_variance>  (159) 
0.1046920195

$$$$
160
     RDKit          3D

 43 45  0  0  0  0  0  0  0  0999 V2000
   19.8463   70.8689   -1.2466 P   0  0  2  0  0  0  0  0  0  0  0  0
   18.3543   70.3551   -0.8894 O   0  0  0  0  0  0  0  0  0  0  0  0
   20.0519   72.3504   -1.1275 O   0  0  0  0  0  0  0  0  0  0  0  0
   20.1365   70.2343   -2.7063 O   0  0  0  0  0  0  0  0  0  0  0  0
   20.4468   71.1112   -3.7753 C   0  0  0  0  0  0  0  0  0  0  0  0
   18.3591   70.5598   -4.8295 O   0  0  0  0  0  0  0  0  0  0  0  0
   19.8442   70.7204   -7.4294 O   0  0  0  0  0  0  0  0  0  0  0  0
   18.5429   73.1152   -7.3393 O   0  0  0  0  0  0  0  0  0  0  0  0
   20.0037   71.5060   -6.2493 C   0  0  1  0  0  0  0  0  0  0  0  0
   18.8591   72.4883   -6.1130 C   0  0  2  0  0  0  0  0  0  0  0  0
   19.7866   70.5959   -5.0468 C   0  0  1  0  0  0  0  0  0  0  0  0
   17.7380   71.5974   -5.6056 C   0  0  2  0  0  0  0  0  0  0  0  0
   19.9786   71.2801   -8.2108 H   0  0  0  0  0  0  0  0  0  0  0  0
   19.2869   73.6705   -7.6200 H   0  0  0  0  0  0  0  0  0  0  0  0
   15.6136   73.1823   -6.5820 O   0  0  0  0  0  0  0  0  0  0  0  0
   14.2316   74.2780   -2.3240 O   0  0  0  0  0  0  0  0  0  0  0  0
   16.8074   72.3078   -4.7744 N   0  0  0  0  0  0  0  0  0  0  0  0
   14.9271   73.7264   -4.4611 N   0  0  0  0  0  0  0  0  0  0  0  0
   15.7771   73.0762   -5.3648 C   0  0  0  0  0  0  0  0  0  0  0  0
   16.9214   72.2382   -3.3902 C   0  0  0  0  0  0  0  0  0  0  0  0
   16.1035   72.8653   -2.5423 C   0  0  0  0  0  0  0  0  0  0  0  0
   15.0004   73.6891   -3.0776 C   0  0  0  0  0  0  0  0  0  0  0  0
   14.2021   74.2679   -4.8495 H   0  0  0  0  0  0  0  0  0  0  0  0
   20.7800   69.9796   -0.2717 O   0  0  0  0  0  0  0  0  0  0  0  0
   22.3639   70.0568    0.0419 P   0  0  2  0  0  0  0  0  0  0  0  0
   23.0122   70.3905   -1.4023 O   0  0  0  0  0  0  0  0  0  0  0  0
   22.9210   68.8290    0.7021 O   0  0  0  0  0  0  0  0  0  0  0  0
   22.5458   71.4154    0.8941 O   0  0  0  0  0  0  0  0  0  0  0  0
   22.4850   71.0832    3.2398 O   0  0  0  0  0  0  0  0  0  0  0  0
   22.1591   75.1985    3.1476 O   0  0  0  0  0  0  0  0  0  0  0  0
   24.6151   73.9898    4.0163 O   0  0  0  0  0  0  0  0  0  0  0  0
   20.8007   73.5975    1.1548 O   0  0  0  0  0  0  0  0  0  0  0  0
   22.6159   73.9174    2.7054 C   0  0  1  0  0  0  0  0  0  0  0  0
   23.3988   73.2670    3.8476 C   0  0  1  0  0  0  0  0  0  0  0  0
   21.4094   73.0614    2.3247 C   0  0  2  0  0  0  0  0  0  0  0  0
   23.6917   71.7906    3.5481 C   0  0  1  0  0  0  0  0  0  0  0  0
   21.8027   71.6009    2.0960 C   0  0  1  0  0  0  0  0  0  0  0  0
   22.9203   75.7472    3.3904 H   0  0  0  0  0  0  0  0  0  0  0  0
   24.4162   74.9205    4.2044 H   0  0  0  0  0  0  0  0  0  0  0  0
   20.5561   74.5222    1.3126 H   0  0  0  0  0  0  0  0  0  0  0  0
   25.5943   71.6733    4.9887 O   0  0  0  0  0  0  0  0  0  0  0  0
   24.3325   71.0816    4.7392 C   0  0  0  0  0  0  0  0  0  0  0  0
   26.0137   71.2323    5.7446 H   0  0  0  0  0  0  0  0  0  0  0  0
 25 28  1  0
 25 24  1  0
 25 26  1  6
 25 27  2  0
  1  4  1  0
  1 24  1  0
  1  2  1  1
  1  3  2  0
  6 11  1  0
  6 12  1  0
 29 36  1  0
 29 37  1  0
  9  7  1  6
  7 13  1  0
 10  8  1  6
  8 14  1  0
 37 28  1  6
  4  5  1  0
 33 30  1  1
 30 38  1  0
 34 31  1  6
 31 39  1  0
 35 32  1  6
 32 40  1  0
 41 42  1  0
 41 43  1  0
 15 19  2  0
 16 22  2  0
 12 17  1  1
 17 19  1  0
 17 20  1  0
 18 19  1  0
 18 22  1  0
 18 23  1  0
  9 10  1  0
  9 11  1  0
 10 12  1  0
 11  5  1  1
 33 34  1  0
 33 35  1  0
 34 36  1  0
 35 37  1  0
 36 42  1  1
 20 21  2  0
 21 22  1  0
M  CHG  2   2  -1  26  -1
M  END
>  <COMPND>  (160) 
    8629 

>  <AUTHOR>  (160) 
    GENERATED BY OPEN BABEL 3.1.1

>  <MASTER>  (160) 
        0    0    0    0    0    0    0    0   58    0   58    0

>  <minimizedAffinity>  (160) 
-6.61038

>  <CNNscore>  (160) 
0.2927004695

>  <CNNaffinity>  (160) 
3.9650688171

>  <CNN_VS>  (160) 
1.1605775356

>  <CNNaffinity_variance>  (160) 
0.0273843445

$$$$
161
     RDKit          3D

 43 45  0  0  0  0  0  0  0  0999 V2000
   20.8609   70.4395   -0.3860 P   0  0  2  0  0  0  0  0  0  0  0  0
   22.2007   70.6488   -1.2683 O   0  0  0  0  0  0  0  0  0  0  0  0
   20.9428   69.3496    0.6420 O   0  0  0  0  0  0  0  0  0  0  0  0
   19.6898   70.2770   -1.4905 O   0  0  0  0  0  0  0  0  0  0  0  0
   19.5556   71.2767   -2.4858 C   0  0  0  0  0  0  0  0  0  0  0  0
   17.9036   72.0976   -4.0255 O   0  0  0  0  0  0  0  0  0  0  0  0
   15.8730   70.7682   -2.2647 O   0  0  0  0  0  0  0  0  0  0  0  0
   16.1245   68.9977   -4.3235 O   0  0  0  0  0  0  0  0  0  0  0  0
   17.1921   70.3419   -2.6017 C   0  0  1  0  0  0  0  0  0  0  0  0
   17.2303   69.8253   -4.0248 C   0  0  2  0  0  0  0  0  0  0  0  0
   18.0772   71.5790   -2.6886 C   0  0  1  0  0  0  0  0  0  0  0  0
   17.2295   71.1147   -4.8282 C   0  0  2  0  0  0  0  0  0  0  0  0
   15.2894   69.9952   -2.2031 H   0  0  0  0  0  0  0  0  0  0  0  0
   16.1703   68.1907   -3.7874 H   0  0  0  0  0  0  0  0  0  0  0  0
   15.9678   70.5893   -7.3001 O   0  0  0  0  0  0  0  0  0  0  0  0
   19.9822   70.6199   -9.5640 O   0  0  0  0  0  0  0  0  0  0  0  0
   17.9208   70.9808   -6.0795 N   0  0  0  0  0  0  0  0  0  0  0  0
   17.9677   70.6051   -8.4253 N   0  0  0  0  0  0  0  0  0  0  0  0
   17.1935   70.7159   -7.2633 C   0  0  0  0  0  0  0  0  0  0  0  0
   19.3044   71.1123   -6.1243 C   0  0  0  0  0  0  0  0  0  0  0  0
   20.0280   71.0025   -7.2404 C   0  0  0  0  0  0  0  0  0  0  0  0
   19.3450   70.7264   -8.5207 C   0  0  0  0  0  0  0  0  0  0  0  0
   17.4825   70.4204   -9.2622 H   0  0  0  0  0  0  0  0  0  0  0  0
   20.5890   71.9143    0.2174 O   0  0  0  0  0  0  0  0  0  0  0  0
   21.5780   73.1764    0.4222 P   0  0  2  0  0  0  0  0  0  0  0  0
   20.6005   74.3215    1.0145 O   0  0  0  0  0  0  0  0  0  0  0  0
   22.3252   73.5798   -0.8159 O   0  0  0  0  0  0  0  0  0  0  0  0
   22.5190   72.7605    1.6657 O   0  0  0  0  0  0  0  0  0  0  0  0
   22.5271   70.8158    3.0203 O   0  0  0  0  0  0  0  0  0  0  0  0
   23.4207   73.6326    5.9044 O   0  0  0  0  0  0  0  0  0  0  0  0
   25.4669   71.8325    4.9984 O   0  0  0  0  0  0  0  0  0  0  0  0
   21.5157   74.2580    3.8165 O   0  0  0  0  0  0  0  0  0  0  0  0
   23.4483   73.0515    4.5979 C   0  0  1  0  0  0  0  0  0  0  0  0
   24.0831   71.6634    4.7037 C   0  0  1  0  0  0  0  0  0  0  0  0
   22.0199   72.9504    4.0662 C   0  0  2  0  0  0  0  0  0  0  0  0
   23.9070   70.8729    3.4002 C   0  0  1  0  0  0  0  0  0  0  0  0
   21.9492   72.1030    2.7946 C   0  0  1  0  0  0  0  0  0  0  0  0
   24.3247   73.7001    6.2475 H   0  0  0  0  0  0  0  0  0  0  0  0
   25.5642   72.3335    5.8235 H   0  0  0  0  0  0  0  0  0  0  0  0
   21.5656   74.7843    4.6291 H   0  0  0  0  0  0  0  0  0  0  0  0
   25.7896   69.4045    3.3083 O   0  0  0  0  0  0  0  0  0  0  0  0
   24.3925   69.4314    3.5355 C   0  0  0  0  0  0  0  0  0  0  0  0
   26.1126   68.4932    3.3915 H   0  0  0  0  0  0  0  0  0  0  0  0
 25 28  1  0
 25 24  1  0
 25 26  1  1
 25 27  2  0
  1  4  1  0
  1 24  1  0
  1  2  1  6
  1  3  2  0
  6 11  1  0
  6 12  1  0
 29 36  1  0
 29 37  1  0
  9  7  1  6
  7 13  1  0
 10  8  1  6
  8 14  1  0
 37 28  1  6
  4  5  1  0
 33 30  1  1
 30 38  1  0
 34 31  1  6
 31 39  1  0
 35 32  1  6
 32 40  1  0
 41 42  1  0
 41 43  1  0
 15 19  2  0
 16 22  2  0
 12 17  1  6
 17 19  1  0
 17 20  1  0
 18 19  1  0
 18 22  1  0
 18 23  1  0
  9 10  1  0
  9 11  1  0
 10 12  1  0
 11  5  1  6
 33 34  1  0
 33 35  1  0
 34 36  1  0
 35 37  1  0
 36 42  1  1
 20 21  2  0
 21 22  1  0
M  CHG  2   2  -1  26  -1
M  END
>  <COMPND>  (161) 
    8629 

>  <AUTHOR>  (161) 
    GENERATED BY OPEN BABEL 3.1.1

>  <MASTER>  (161) 
        0    0    0    0    0    0    0    0   58    0   58    0

>  <minimizedAffinity>  (161) 
-8.09509

>  <CNNscore>  (161) 
0.8757832050

>  <CNNaffinity>  (161) 
4.7729949951

>  <CNN_VS>  (161) 
4.1801090240

>  <CNNaffinity_variance>  (161) 
0.1233080775

$$$$
162
     RDKit          3D

 43 45  0  0  0  0  0  0  0  0999 V2000
   22.5308   71.3999   -2.9809 P   0  0  2  0  0  0  0  0  0  0  0  0
   22.7150   72.1028   -1.5354 O   0  0  0  0  0  0  0  0  0  0  0  0
   23.5033   71.8480   -4.0320 O   0  0  0  0  0  0  0  0  0  0  0  0
   20.9669   71.6283   -3.3273 O   0  0  0  0  0  0  0  0  0  0  0  0
   20.0493   70.5915   -3.0262 C   0  0  0  0  0  0  0  0  0  0  0  0
   18.4250   71.8085   -4.3124 O   0  0  0  0  0  0  0  0  0  0  0  0
   16.3772   70.7102   -2.4173 O   0  0  0  0  0  0  0  0  0  0  0  0
   16.0945   69.0973   -4.5980 O   0  0  0  0  0  0  0  0  0  0  0  0
   17.5565   70.0916   -2.9290 C   0  0  1  0  0  0  0  0  0  0  0  0
   17.3560   69.6943   -4.3766 C   0  0  2  0  0  0  0  0  0  0  0  0
   18.6369   71.1602   -3.0392 C   0  0  1  0  0  0  0  0  0  0  0  0
   17.5065   71.0258   -5.0925 C   0  0  2  0  0  0  0  0  0  0  0  0
   15.6730   70.0471   -2.3378 H   0  0  0  0  0  0  0  0  0  0  0  0
   16.0480   68.2535   -4.1221 H   0  0  0  0  0  0  0  0  0  0  0  0
   15.9574   70.3446   -7.3540 O   0  0  0  0  0  0  0  0  0  0  0  0
   19.6280   70.4825  -10.1377 O   0  0  0  0  0  0  0  0  0  0  0  0
   18.0315   70.8773   -6.4206 N   0  0  0  0  0  0  0  0  0  0  0  0
   17.7863   70.4140   -8.7383 N   0  0  0  0  0  0  0  0  0  0  0  0
   17.1686   70.5319   -7.4866 C   0  0  0  0  0  0  0  0  0  0  0  0
   19.3880   71.0740   -6.6555 C   0  0  0  0  0  0  0  0  0  0  0  0
   19.9617   70.9564   -7.8548 C   0  0  0  0  0  0  0  0  0  0  0  0
   19.1302   70.5982   -9.0220 C   0  0  0  0  0  0  0  0  0  0  0  0
   17.2048   70.1737   -9.4958 H   0  0  0  0  0  0  0  0  0  0  0  0
   22.5987   69.8235   -2.6298 O   0  0  0  0  0  0  0  0  0  0  0  0
   23.6171   68.9873   -1.6935 P   0  0  2  0  0  0  0  0  0  0  0  0
   25.0702   69.3653   -2.2961 O   0  0  0  0  0  0  0  0  0  0  0  0
   23.3336   67.5141   -1.6385 O   0  0  0  0  0  0  0  0  0  0  0  0
   23.5625   69.7329   -0.2631 O   0  0  0  0  0  0  0  0  0  0  0  0
   23.5250   69.1933    2.0443 O   0  0  0  0  0  0  0  0  0  0  0  0
   20.2168   71.6596    1.8896 O   0  0  0  0  0  0  0  0  0  0  0  0
   22.6264   72.5963    3.1402 O   0  0  0  0  0  0  0  0  0  0  0  0
   20.7581   69.8315   -0.2886 O   0  0  0  0  0  0  0  0  0  0  0  0
   21.5265   71.2123    1.5291 C   0  0  1  0  0  0  0  0  0  0  0  0
   22.4030   71.2351    2.7829 C   0  0  1  0  0  0  0  0  0  0  0  0
   21.4325   69.7961    0.9645 C   0  0  2  0  0  0  0  0  0  0  0  0
   23.7390   70.5208    2.5379 C   0  0  1  0  0  0  0  0  0  0  0  0
   22.8140   69.1587    0.8053 C   0  0  1  0  0  0  0  0  0  0  0  0
   20.2693   72.5585    2.2484 H   0  0  0  0  0  0  0  0  0  0  0  0
   21.7750   73.0360    3.2917 H   0  0  0  0  0  0  0  0  0  0  0  0
   19.8849   70.2369   -0.1744 H   0  0  0  0  0  0  0  0  0  0  0  0
   23.6860   70.4773    4.9263 O   0  0  0  0  0  0  0  0  0  0  0  0
   24.5625   70.3935    3.8177 C   0  0  0  0  0  0  0  0  0  0  0  0
   24.1963   70.3975    5.7479 H   0  0  0  0  0  0  0  0  0  0  0  0
 25 28  1  0
 25 24  1  0
 25 26  1  6
 25 27  2  0
  1  4  1  0
  1 24  1  0
  1  2  1  1
  1  3  2  0
  6 11  1  0
  6 12  1  0
 29 36  1  0
 29 37  1  0
  9  7  1  6
  7 13  1  0
 10  8  1  1
  8 14  1  0
 37 28  1  6
  4  5  1  0
 33 30  1  1
 30 38  1  0
 34 31  1  6
 31 39  1  0
 35 32  1  6
 32 40  1  0
 41 42  1  0
 41 43  1  0
 15 19  2  0
 16 22  2  0
 12 17  1  6
 17 19  1  0
 17 20  1  0
 18 19  1  0
 18 22  1  0
 18 23  1  0
  9 10  1  0
  9 11  1  0
 10 12  1  0
 11  5  1  6
 33 34  1  0
 33 35  1  0
 34 36  1  0
 35 37  1  0
 36 42  1  1
 20 21  2  0
 21 22  1  0
M  CHG  2   2  -1  26  -1
M  END
>  <COMPND>  (162) 
    8629 

>  <AUTHOR>  (162) 
    GENERATED BY OPEN BABEL 3.1.1

>  <MASTER>  (162) 
        0    0    0    0    0    0    0    0   58    0   58    0

>  <minimizedAffinity>  (162) 
-9.08725

>  <CNNscore>  (162) 
0.6817721128

>  <CNNaffinity>  (162) 
4.6001324654

>  <CNN_VS>  (162) 
3.1362419128

>  <CNNaffinity_variance>  (162) 
0.0654747635

$$$$
163
     RDKit          3D

 43 45  0  0  0  0  0  0  0  0999 V2000
   21.8435   71.1627   -1.7519 P   0  0  2  0  0  0  0  0  0  0  0  0
   22.5345   72.5110   -2.3195 O   0  0  0  0  0  0  0  0  0  0  0  0
   21.9748   69.9608   -2.6406 O   0  0  0  0  0  0  0  0  0  0  0  0
   20.3302   71.6182   -1.4051 O   0  0  0  0  0  0  0  0  0  0  0  0
   19.5792   72.2855   -2.4044 C   0  0  0  0  0  0  0  0  0  0  0  0
   17.5739   71.9431   -3.6833 O   0  0  0  0  0  0  0  0  0  0  0  0
   16.7355   70.0525   -1.5123 O   0  0  0  0  0  0  0  0  0  0  0  0
   17.6189   68.3637   -3.4628 O   0  0  0  0  0  0  0  0  0  0  0  0
   18.0366   70.2944   -2.0452 C   0  0  1  0  0  0  0  0  0  0  0  0
   18.1687   69.6646   -3.4162 C   0  0  2  0  0  0  0  0  0  0  0  0
   18.1435   71.7800   -2.3660 C   0  0  1  0  0  0  0  0  0  0  0  0
   17.4122   70.6507   -4.2901 C   0  0  2  0  0  0  0  0  0  0  0  0
   16.6435   69.1101   -1.2995 H   0  0  0  0  0  0  0  0  0  0  0  0
   18.1346   67.7739   -2.8910 H   0  0  0  0  0  0  0  0  0  0  0  0
   15.9305   69.9419   -6.5879 O   0  0  0  0  0  0  0  0  0  0  0  0
   19.4750   70.8695   -9.3838 O   0  0  0  0  0  0  0  0  0  0  0  0
   17.9230   70.6979   -5.6311 N   0  0  0  0  0  0  0  0  0  0  0  0
   17.6966   70.4045   -7.9782 N   0  0  0  0  0  0  0  0  0  0  0  0
   17.0970   70.3199   -6.7152 C   0  0  0  0  0  0  0  0  0  0  0  0
   19.2293   71.1157   -5.8608 C   0  0  0  0  0  0  0  0  0  0  0  0
   19.7866   71.1896   -7.0712 C   0  0  0  0  0  0  0  0  0  0  0  0
   18.9913   70.8125   -8.2575 C   0  0  0  0  0  0  0  0  0  0  0  0
   17.1402   70.1458   -8.7485 H   0  0  0  0  0  0  0  0  0  0  0  0
   22.5165   70.9964   -0.2917 O   0  0  0  0  0  0  0  0  0  0  0  0
   22.1735   69.9914    0.9271 P   0  0  2  0  0  0  0  0  0  0  0  0
   23.5492   69.1628    1.1231 O   0  0  0  0  0  0  0  0  0  0  0  0
   20.9623   69.1349    0.6961 O   0  0  0  0  0  0  0  0  0  0  0  0
   22.0818   70.9428    2.2276 O   0  0  0  0  0  0  0  0  0  0  0  0
   21.4250   73.2033    1.9529 O   0  0  0  0  0  0  0  0  0  0  0  0
   23.2825   73.4979    5.6290 O   0  0  0  0  0  0  0  0  0  0  0  0
   20.4196   73.6597    5.4700 O   0  0  0  0  0  0  0  0  0  0  0  0
   24.3928   71.7761    3.5840 O   0  0  0  0  0  0  0  0  0  0  0  0
   22.5048   72.8651    4.6091 C   0  0  1  0  0  0  0  0  0  0  0  0
   21.2764   73.7345    4.3339 C   0  0  1  0  0  0  0  0  0  0  0  0
   23.3559   72.7226    3.3487 C   0  0  2  0  0  0  0  0  0  0  0  0
   20.5361   73.2647    3.0745 C   0  0  1  0  0  0  0  0  0  0  0  0
   22.5142   72.2983    2.1438 C   0  0  1  0  0  0  0  0  0  0  0  0
   22.7481   73.5910    6.4323 H   0  0  0  0  0  0  0  0  0  0  0  0
   20.8992   73.9586    6.2585 H   0  0  0  0  0  0  0  0  0  0  0  0
   24.9186   72.0561    4.3489 H   0  0  0  0  0  0  0  0  0  0  0  0
   19.5960   75.4423    3.3633 O   0  0  0  0  0  0  0  0  0  0  0  0
   19.4003   74.2112    2.6921 C   0  0  0  0  0  0  0  0  0  0  0  0
   18.8806   76.0548    3.1292 H   0  0  0  0  0  0  0  0  0  0  0  0
 25 28  1  0
 25 24  1  0
 25 26  1  1
 25 27  2  0
  1  4  1  0
  1 24  1  0
  1  2  1  6
  1  3  2  0
  6 11  1  0
  6 12  1  0
 29 36  1  0
 29 37  1  0
  9  7  1  6
  7 13  1  0
 10  8  1  1
  8 14  1  0
 37 28  1  1
  4  5  1  0
 33 30  1  1
 30 38  1  0
 34 31  1  1
 31 39  1  0
 35 32  1  1
 32 40  1  0
 41 42  1  0
 41 43  1  0
 15 19  2  0
 16 22  2  0
 12 17  1  6
 17 19  1  0
 17 20  1  0
 18 19  1  0
 18 22  1  0
 18 23  1  0
  9 10  1  0
  9 11  1  0
 10 12  1  0
 11  5  1  6
 33 34  1  0
 33 35  1  0
 34 36  1  0
 35 37  1  0
 36 42  1  6
 20 21  2  0
 21 22  1  0
M  CHG  2   2  -1  26  -1
M  END
>  <COMPND>  (163) 
    8629 

>  <AUTHOR>  (163) 
    GENERATED BY OPEN BABEL 3.1.1

>  <MASTER>  (163) 
        0    0    0    0    0    0    0    0   58    0   58    0

>  <minimizedAffinity>  (163) 
-8.11754

>  <CNNscore>  (163) 
0.6457386017

>  <CNNaffinity>  (163) 
4.6388263702

>  <CNN_VS>  (163) 
2.9954693317

>  <CNNaffinity_variance>  (163) 
0.0174806006

$$$$
164
     RDKit          3D

 43 45  0  0  0  0  0  0  0  0999 V2000
   22.9900   69.4912   -2.1849 P   0  0  2  0  0  0  0  0  0  0  0  0
   23.9503   70.3284   -3.1820 O   0  0  0  0  0  0  0  0  0  0  0  0
   23.3144   68.0307   -2.0705 O   0  0  0  0  0  0  0  0  0  0  0  0
   21.4964   69.8409   -2.6995 O   0  0  0  0  0  0  0  0  0  0  0  0
   21.2971   71.0354   -3.4352 C   0  0  0  0  0  0  0  0  0  0  0  0
   19.3719   72.0968   -4.4053 O   0  0  0  0  0  0  0  0  0  0  0  0
   17.8447   71.0668   -2.0394 O   0  0  0  0  0  0  0  0  0  0  0  0
   17.1762   69.2904   -3.9975 O   0  0  0  0  0  0  0  0  0  0  0  0
   18.9141   70.4551   -2.7587 C   0  0  1  0  0  0  0  0  0  0  0  0
   18.4237   69.9466   -4.0983 C   0  0  2  0  0  0  0  0  0  0  0  0
   19.8888   71.5508   -3.1719 C   0  0  1  0  0  0  0  0  0  0  0  0
   18.3466   71.2270   -4.9124 C   0  0  2  0  0  0  0  0  0  0  0  0
   17.2093   70.3866   -1.7646 H   0  0  0  0  0  0  0  0  0  0  0  0
   17.2774   68.4823   -3.4708 H   0  0  0  0  0  0  0  0  0  0  0  0
   16.3384   70.5091   -6.7643 O   0  0  0  0  0  0  0  0  0  0  0  0
   19.3452   70.3847  -10.2549 O   0  0  0  0  0  0  0  0  0  0  0  0
   18.5767   71.0012   -6.3115 N   0  0  0  0  0  0  0  0  0  0  0  0
   17.8371   70.4480   -8.5009 N   0  0  0  0  0  0  0  0  0  0  0  0
   17.4996   70.6436   -7.1556 C   0  0  0  0  0  0  0  0  0  0  0  0
   19.8587   71.1349   -6.8334 C   0  0  0  0  0  0  0  0  0  0  0  0
   20.1642   70.9436   -8.1184 C   0  0  0  0  0  0  0  0  0  0  0  0
   19.0963   70.5677   -9.0673 C   0  0  0  0  0  0  0  0  0  0  0  0
   17.1029   70.1979   -9.1076 H   0  0  0  0  0  0  0  0  0  0  0  0
   23.0989   70.3151   -0.7985 O   0  0  0  0  0  0  0  0  0  0  0  0
   22.4092   70.0651    0.6419 P   0  0  2  0  0  0  0  0  0  0  0  0
   23.5280   69.2179    1.4470 O   0  0  0  0  0  0  0  0  0  0  0  0
   21.0628   69.4043    0.5732 O   0  0  0  0  0  0  0  0  0  0  0  0
   22.4073   71.5149    1.3511 O   0  0  0  0  0  0  0  0  0  0  0  0
   22.6658   71.2008    3.6859 O   0  0  0  0  0  0  0  0  0  0  0  0
   22.1106   75.2922    3.6280 O   0  0  0  0  0  0  0  0  0  0  0  0
   24.7191   74.2228    4.1761 O   0  0  0  0  0  0  0  0  0  0  0  0
   20.5955   73.6039    1.8298 O   0  0  0  0  0  0  0  0  0  0  0  0
   22.5749   74.0332    3.1333 C   0  0  1  0  0  0  0  0  0  0  0  0
   23.5317   73.4352    4.1667 C   0  0  1  0  0  0  0  0  0  0  0  0
   21.3771   73.1111    2.9127 C   0  0  2  0  0  0  0  0  0  0  0  0
   23.8624   71.9738    3.8350 C   0  0  1  0  0  0  0  0  0  0  0  0
   21.8156   71.6715    2.6383 C   0  0  1  0  0  0  0  0  0  0  0  0
   22.8662   75.8825    3.7698 H   0  0  0  0  0  0  0  0  0  0  0  0
   24.4963   75.1433    4.3863 H   0  0  0  0  0  0  0  0  0  0  0  0
   20.3240   74.5157    2.0158 H   0  0  0  0  0  0  0  0  0  0  0  0
   25.7289   72.1934    5.3105 O   0  0  0  0  0  0  0  0  0  0  0  0
   24.6879   71.3103    4.9352 C   0  0  0  0  0  0  0  0  0  0  0  0
   26.2624   71.7845    6.0104 H   0  0  0  0  0  0  0  0  0  0  0  0
 25 28  1  0
 25 24  1  0
 25 26  1  1
 25 27  2  0
  1  4  1  0
  1 24  1  0
  1  2  1  6
  1  3  2  0
  6 11  1  0
  6 12  1  0
 29 36  1  0
 29 37  1  0
  9  7  1  1
  7 13  1  0
 10  8  1  1
  8 14  1  0
 37 28  1  6
  4  5  1  0
 33 30  1  1
 30 38  1  0
 34 31  1  6
 31 39  1  0
 35 32  1  6
 32 40  1  0
 41 42  1  0
 41 43  1  0
 15 19  2  0
 16 22  2  0
 12 17  1  6
 17 19  1  0
 17 20  1  0
 18 19  1  0
 18 22  1  0
 18 23  1  0
  9 10  1  0
  9 11  1  0
 10 12  1  0
 11  5  1  6
 33 34  1  0
 33 35  1  0
 34 36  1  0
 35 37  1  0
 36 42  1  1
 20 21  2  0
 21 22  1  0
M  CHG  2   2  -1  26  -1
M  END
>  <COMPND>  (164) 
    8629 

>  <AUTHOR>  (164) 
    GENERATED BY OPEN BABEL 3.1.1

>  <MASTER>  (164) 
        0    0    0    0    0    0    0    0   58    0   58    0

>  <minimizedAffinity>  (164) 
-8.67739

>  <CNNscore>  (164) 
0.6410841346

>  <CNNaffinity>  (164) 
4.5801072121

>  <CNN_VS>  (164) 
2.9362339973

>  <CNNaffinity_variance>  (164) 
0.0126138031

$$$$
165
     RDKit          3D

 43 45  0  0  0  0  0  0  0  0999 V2000
   19.6208   73.5508   -0.4828 P   0  0  2  0  0  0  0  0  0  0  0  0
   18.9140   72.8267    0.7796 O   0  0  0  0  0  0  0  0  0  0  0  0
   20.5150   74.7039   -0.1330 O   0  0  0  0  0  0  0  0  0  0  0  0
   18.3888   73.8927   -1.4743 O   0  0  0  0  0  0  0  0  0  0  0  0
   18.3828   73.3166   -2.7688 C   0  0  0  0  0  0  0  0  0  0  0  0
   16.8715   72.9582   -4.6023 O   0  0  0  0  0  0  0  0  0  0  0  0
   15.0657   71.6312   -2.6101 O   0  0  0  0  0  0  0  0  0  0  0  0
   16.2297   69.5077   -3.8641 O   0  0  0  0  0  0  0  0  0  0  0  0
   16.4903   71.6181   -2.6853 C   0  0  1  0  0  0  0  0  0  0  0  0
   16.9488   70.7232   -3.8178 C   0  0  2  0  0  0  0  0  0  0  0  0
   16.9477   72.9917   -3.1602 C   0  0  1  0  0  0  0  0  0  0  0  0
   16.6961   71.5987   -5.0334 C   0  0  2  0  0  0  0  0  0  0  0  0
   14.7501   70.7643   -2.3085 H   0  0  0  0  0  0  0  0  0  0  0  0
   16.4239   68.9865   -3.0696 H   0  0  0  0  0  0  0  0  0  0  0  0
   15.9302   70.7181   -7.6056 O   0  0  0  0  0  0  0  0  0  0  0  0
   20.3008   70.5871   -9.0623 O   0  0  0  0  0  0  0  0  0  0  0  0
   17.6132   71.3271   -6.1042 N   0  0  0  0  0  0  0  0  0  0  0  0
   18.1071   70.6538   -8.3289 N   0  0  0  0  0  0  0  0  0  0  0  0
   17.1257   70.8883   -7.3573 C   0  0  0  0  0  0  0  0  0  0  0  0
   18.9792   71.4967   -5.9065 C   0  0  0  0  0  0  0  0  0  0  0  0
   19.9021   71.2675   -6.8429 C   0  0  0  0  0  0  0  0  0  0  0  0
   19.4765   70.8065   -8.1802 C   0  0  0  0  0  0  0  0  0  0  0  0
   17.7909   70.3470   -9.2096 H   0  0  0  0  0  0  0  0  0  0  0  0
   20.3634   72.3275   -1.2345 O   0  0  0  0  0  0  0  0  0  0  0  0
   20.4892   70.7632   -0.8473 P   0  0  2  0  0  0  0  0  0  0  0  0
   21.5612   70.2003   -1.9204 O   0  0  0  0  0  0  0  0  0  0  0  0
   19.1815   70.0257   -0.8331 O   0  0  0  0  0  0  0  0  0  0  0  0
   21.2781   70.7530    0.5608 O   0  0  0  0  0  0  0  0  0  0  0  0
   22.7171   72.4127    1.4501 O   0  0  0  0  0  0  0  0  0  0  0  0
   24.5622   69.0506    2.9808 O   0  0  0  0  0  0  0  0  0  0  0  0
   23.0797   70.7764    4.7334 O   0  0  0  0  0  0  0  0  0  0  0  0
   23.4535   68.9984    0.3073 O   0  0  0  0  0  0  0  0  0  0  0  0
   23.4545   69.8513    2.5598 C   0  0  1  0  0  0  0  0  0  0  0  0
   23.4396   71.1294    3.4007 C   0  0  1  0  0  0  0  0  0  0  0  0
   23.6142   70.1847    1.0777 C   0  0  2  0  0  0  0  0  0  0  0  0
   22.4485   72.1544    2.8332 C   0  0  1  0  0  0  0  0  0  0  0  0
   22.6124   71.2493    0.6271 C   0  0  1  0  0  0  0  0  0  0  0  0
   24.4666   68.8350    3.9209 H   0  0  0  0  0  0  0  0  0  0  0  0
   23.7132   70.1284    5.0798 H   0  0  0  0  0  0  0  0  0  0  0  0
   24.0934   68.3325    0.6019 H   0  0  0  0  0  0  0  0  0  0  0  0
   23.7182   74.1522    3.1581 O   0  0  0  0  0  0  0  0  0  0  0  0
   22.5314   73.4941    3.5615 C   0  0  0  0  0  0  0  0  0  0  0  0
   23.7841   75.0066    3.6135 H   0  0  0  0  0  0  0  0  0  0  0  0
 25 28  1  0
 25 24  1  0
 25 26  1  6
 25 27  2  0
  1  4  1  0
  1 24  1  0
  1  2  1  1
  1  3  2  0
  6 11  1  0
  6 12  1  0
 29 36  1  0
 29 37  1  0
  9  7  1  6
  7 13  1  0
 10  8  1  6
  8 14  1  0
 37 28  1  1
  4  5  1  0
 33 30  1  1
 30 38  1  0
 34 31  1  1
 31 39  1  0
 35 32  1  6
 32 40  1  0
 41 42  1  0
 41 43  1  0
 15 19  2  0
 16 22  2  0
 12 17  1  6
 17 19  1  0
 17 20  1  0
 18 19  1  0
 18 22  1  0
 18 23  1  0
  9 10  1  0
  9 11  1  0
 10 12  1  0
 11  5  1  6
 33 34  1  0
 33 35  1  0
 34 36  1  0
 35 37  1  0
 36 42  1  1
 20 21  2  0
 21 22  1  0
M  CHG  2   2  -1  26  -1
M  END
>  <COMPND>  (165) 
    8629 

>  <AUTHOR>  (165) 
    GENERATED BY OPEN BABEL 3.1.1

>  <MASTER>  (165) 
        0    0    0    0    0    0    0    0   58    0   58    0

>  <minimizedAffinity>  (165) 
-7.37561

>  <CNNscore>  (165) 
0.6006018519

>  <CNNaffinity>  (165) 
4.3758482933

>  <CNN_VS>  (165) 
2.6281425953

>  <CNNaffinity_variance>  (165) 
0.0667918250

$$$$
166
     RDKit          3D

 43 45  0  0  0  0  0  0  0  0999 V2000
   20.4520   71.3125   -0.7359 P   0  0  2  0  0  0  0  0  0  0  0  0
   20.0429   70.3882    0.5273 O   0  0  0  0  0  0  0  0  0  0  0  0
   20.8356   72.7218   -0.3922 O   0  0  0  0  0  0  0  0  0  0  0  0
   19.2050   71.1522   -1.7544 O   0  0  0  0  0  0  0  0  0  0  0  0
   18.8201   72.2716   -2.5333 C   0  0  0  0  0  0  0  0  0  0  0  0
   17.1721   72.4124   -4.2763 O   0  0  0  0  0  0  0  0  0  0  0  0
   15.3617   70.8941   -2.4302 O   0  0  0  0  0  0  0  0  0  0  0  0
   16.2213   68.9567   -4.1460 O   0  0  0  0  0  0  0  0  0  0  0  0
   16.7701   70.7672   -2.6188 C   0  0  1  0  0  0  0  0  0  0  0  0
   17.0642   70.0703   -3.9308 C   0  0  2  0  0  0  0  0  0  0  0  0
   17.3381   72.1595   -2.8639 C   0  0  1  0  0  0  0  0  0  0  0  0
   16.8309   71.1834   -4.9381 C   0  0  2  0  0  0  0  0  0  0  0  0
   14.9765   70.0175   -2.2716 H   0  0  0  0  0  0  0  0  0  0  0  0
   16.4079   68.2764   -3.4804 H   0  0  0  0  0  0  0  0  0  0  0  0
   15.8391   70.5797   -7.5129 O   0  0  0  0  0  0  0  0  0  0  0  0
   20.0612   70.6639   -9.3590 O   0  0  0  0  0  0  0  0  0  0  0  0
   17.6486   71.0421   -6.1097 N   0  0  0  0  0  0  0  0  0  0  0  0
   17.9422   70.6223   -8.4301 N   0  0  0  0  0  0  0  0  0  0  0  0
   17.0516   70.7367   -7.3550 C   0  0  0  0  0  0  0  0  0  0  0  0
   19.0264   71.2063   -6.0171 C   0  0  0  0  0  0  0  0  0  0  0  0
   19.8620   71.0925   -7.0516 C   0  0  0  0  0  0  0  0  0  0  0  0
   19.3190   70.7752   -8.3881 C   0  0  0  0  0  0  0  0  0  0  0  0
   17.5489   70.4096   -9.3075 H   0  0  0  0  0  0  0  0  0  0  0  0
   21.6188   70.4532   -1.4522 O   0  0  0  0  0  0  0  0  0  0  0  0
   22.2017   70.5039   -2.9591 P   0  0  2  0  0  0  0  0  0  0  0  0
   21.0383   69.7940   -3.8309 O   0  0  0  0  0  0  0  0  0  0  0  0
   23.5592   69.8820   -3.1150 O   0  0  0  0  0  0  0  0  0  0  0  0
   22.1282   72.0621   -3.3733 O   0  0  0  0  0  0  0  0  0  0  0  0
   23.5987   72.9877   -4.9850 O   0  0  0  0  0  0  0  0  0  0  0  0
   22.6348   76.4297   -2.9175 O   0  0  0  0  0  0  0  0  0  0  0  0
   21.5684   76.0120   -5.5512 O   0  0  0  0  0  0  0  0  0  0  0  0
   23.0094   73.9421   -1.4854 O   0  0  0  0  0  0  0  0  0  0  0  0
   22.3930   75.1385   -3.4829 C   0  0  1  0  0  0  0  0  0  0  0  0
   22.6184   75.2265   -4.9936 C   0  0  1  0  0  0  0  0  0  0  0  0
   23.3530   74.1304   -2.8539 C   0  0  2  0  0  0  0  0  0  0  0  0
   22.6395   73.8315   -5.6328 C   0  0  1  0  0  0  0  0  0  0  0  0
   23.3320   72.7922   -3.5948 C   0  0  1  0  0  0  0  0  0  0  0  0
   22.0281   77.0744   -3.3123 H   0  0  0  0  0  0  0  0  0  0  0  0
   21.5657   76.8900   -5.1387 H   0  0  0  0  0  0  0  0  0  0  0  0
   23.0266   74.7963   -1.0273 H   0  0  0  0  0  0  0  0  0  0  0  0
   22.5924   72.6852   -7.7287 O   0  0  0  0  0  0  0  0  0  0  0  0
   23.0191   73.8855   -7.1110 C   0  0  0  0  0  0  0  0  0  0  0  0
   22.8271   72.7055   -8.6700 H   0  0  0  0  0  0  0  0  0  0  0  0
 25 28  1  0
 25 24  1  0
 25 26  1  6
 25 27  2  0
  1  4  1  0
  1 24  1  0
  1  2  1  1
  1  3  2  0
  6 11  1  0
  6 12  1  0
 29 36  1  0
 29 37  1  0
  9  7  1  6
  7 13  1  0
 10  8  1  6
  8 14  1  0
 37 28  1  6
  4  5  1  0
 33 30  1  1
 30 38  1  0
 34 31  1  6
 31 39  1  0
 35 32  1  1
 32 40  1  0
 41 42  1  0
 41 43  1  0
 15 19  2  0
 16 22  2  0
 12 17  1  6
 17 19  1  0
 17 20  1  0
 18 19  1  0
 18 22  1  0
 18 23  1  0
  9 10  1  0
  9 11  1  0
 10 12  1  0
 11  5  1  6
 33 34  1  0
 33 35  1  0
 34 36  1  0
 35 37  1  0
 36 42  1  6
 20 21  2  0
 21 22  1  0
M  CHG  2   2  -1  26  -1
M  END
>  <COMPND>  (166) 
    8629 

>  <AUTHOR>  (166) 
    GENERATED BY OPEN BABEL 3.1.1

>  <MASTER>  (166) 
        0    0    0    0    0    0    0    0   58    0   58    0

>  <minimizedAffinity>  (166) 
-7.26923

>  <CNNscore>  (166) 
0.5810108185

>  <CNNaffinity>  (166) 
4.3009586334

>  <CNN_VS>  (166) 
2.4989035130

>  <CNNaffinity_variance>  (166) 
0.2712708116

$$$$
167
     RDKit          3D

 43 45  0  0  0  0  0  0  0  0999 V2000
   19.2646   74.5142    0.1797 P   0  0  2  0  0  0  0  0  0  0  0  0
   18.5419   73.7821    1.4283 O   0  0  0  0  0  0  0  0  0  0  0  0
   19.0227   75.9920    0.0849 O   0  0  0  0  0  0  0  0  0  0  0  0
   18.8016   73.6428   -1.1025 O   0  0  0  0  0  0  0  0  0  0  0  0
   17.6225   72.8636   -1.0004 C   0  0  0  0  0  0  0  0  0  0  0  0
   17.2584   70.6024   -1.7271 O   0  0  0  0  0  0  0  0  0  0  0  0
   19.8474   69.9458   -0.3644 O   0  0  0  0  0  0  0  0  0  0  0  0
   20.5776   70.0958   -2.9875 O   0  0  0  0  0  0  0  0  0  0  0  0
   19.4773   71.1239   -1.0788 C   0  0  1  0  0  0  0  0  0  0  0  0
   19.4599   70.8519   -2.5685 C   0  0  2  0  0  0  0  0  0  0  0  0
   18.0082   71.4059   -0.7897 C   0  0  1  0  0  0  0  0  0  0  0  0
   18.1499   70.1010   -2.7364 C   0  0  2  0  0  0  0  0  0  0  0  0
   20.7820   69.7457   -0.5331 H   0  0  0  0  0  0  0  0  0  0  0  0
   21.3862   70.6163   -2.8609 H   0  0  0  0  0  0  0  0  0  0  0  0
   16.5832   68.1916   -4.1067 O   0  0  0  0  0  0  0  0  0  0  0  0
   15.9345   71.0225   -7.6853 O   0  0  0  0  0  0  0  0  0  0  0  0
   17.5588   70.3127   -4.0275 N   0  0  0  0  0  0  0  0  0  0  0  0
   16.2613   69.6028   -5.8874 N   0  0  0  0  0  0  0  0  0  0  0  0
   16.7905   69.2888   -4.6291 C   0  0  0  0  0  0  0  0  0  0  0  0
   17.7430   71.5249   -4.6837 C   0  0  0  0  0  0  0  0  0  0  0  0
   17.2327   71.8081   -5.8839 C   0  0  0  0  0  0  0  0  0  0  0  0
   16.4174   70.7925   -6.5809 C   0  0  0  0  0  0  0  0  0  0  0  0
   15.7229   68.9045   -6.3258 H   0  0  0  0  0  0  0  0  0  0  0  0
   20.8156   74.0968    0.3618 O   0  0  0  0  0  0  0  0  0  0  0  0
   21.9317   74.5944    1.4199 P   0  0  2  0  0  0  0  0  0  0  0  0
   21.0516   75.0682    2.6921 O   0  0  0  0  0  0  0  0  0  0  0  0
   22.8620   75.6443    0.8849 O   0  0  0  0  0  0  0  0  0  0  0  0
   22.6617   73.2411    1.9104 O   0  0  0  0  0  0  0  0  0  0  0  0
   22.1181   71.0419    1.2142 O   0  0  0  0  0  0  0  0  0  0  0  0
   23.5087   70.2071    5.0116 O   0  0  0  0  0  0  0  0  0  0  0  0
   25.1009   69.4946    2.7300 O   0  0  0  0  0  0  0  0  0  0  0  0
   21.9350   72.5908    4.5418 O   0  0  0  0  0  0  0  0  0  0  0  0
   23.4672   70.9034    3.7631 C   0  0  1  0  0  0  0  0  0  0  0  0
   23.7366   69.8964    2.6432 C   0  0  1  0  0  0  0  0  0  0  0  0
   22.0896   71.5411    3.5928 C   0  0  2  0  0  0  0  0  0  0  0  0
   23.4465   70.5086    1.2661 C   0  0  1  0  0  0  0  0  0  0  0  0
   21.8858   72.0750    2.1738 C   0  0  1  0  0  0  0  0  0  0  0  0
   24.3810   69.8002    5.1261 H   0  0  0  0  0  0  0  0  0  0  0  0
   25.2709   69.1102    3.6044 H   0  0  0  0  0  0  0  0  0  0  0  0
   22.0661   72.2400    5.4360 H   0  0  0  0  0  0  0  0  0  0  0  0
   22.3804   68.6882    0.1444 O   0  0  0  0  0  0  0  0  0  0  0  0
   23.5566   69.4760    0.1465 C   0  0  0  0  0  0  0  0  0  0  0  0
   22.4362   68.0267   -0.5634 H   0  0  0  0  0  0  0  0  0  0  0  0
 25 28  1  0
 25 24  1  0
 25 26  1  1
 25 27  2  0
  1  4  1  0
  1 24  1  0
  1  2  1  1
  1  3  2  0
  6 11  1  0
  6 12  1  0
 29 36  1  0
 29 37  1  0
  9  7  1  1
  7 13  1  0
 10  8  1  1
  8 14  1  0
 37 28  1  6
  4  5  1  0
 33 30  1  1
 30 38  1  0
 34 31  1  6
 31 39  1  0
 35 32  1  1
 32 40  1  0
 41 42  1  0
 41 43  1  0
 15 19  2  0
 16 22  2  0
 12 17  1  6
 17 19  1  0
 17 20  1  0
 18 19  1  0
 18 22  1  0
 18 23  1  0
  9 10  1  0
  9 11  1  0
 10 12  1  0
 11  5  1  6
 33 34  1  0
 33 35  1  0
 34 36  1  0
 35 37  1  0
 36 42  1  6
 20 21  2  0
 21 22  1  0
M  CHG  2   2  -1  26  -1
M  END
>  <COMPND>  (167) 
    8629 

>  <AUTHOR>  (167) 
    GENERATED BY OPEN BABEL 3.1.1

>  <MASTER>  (167) 
        0    0    0    0    0    0    0    0   58    0   58    0

>  <minimizedAffinity>  (167) 
-7.34206

>  <CNNscore>  (167) 
0.4737914205

>  <CNNaffinity>  (167) 
4.1068525314

>  <CNN_VS>  (167) 
1.9457914829

>  <CNNaffinity_variance>  (167) 
0.5483288169

$$$$
168
     RDKit          3D

 43 45  0  0  0  0  0  0  0  0999 V2000
   21.3604   72.1356   -2.0129 P   0  0  2  0  0  0  0  0  0  0  0  0
   22.1018   73.5353   -2.3421 O   0  0  0  0  0  0  0  0  0  0  0  0
   22.1824   70.9071   -2.2706 O   0  0  0  0  0  0  0  0  0  0  0  0
   19.9670   72.2327   -2.8296 O   0  0  0  0  0  0  0  0  0  0  0  0
   19.6355   71.1881   -3.7278 C   0  0  0  0  0  0  0  0  0  0  0  0
   17.4399   71.1198   -2.7540 O   0  0  0  0  0  0  0  0  0  0  0  0
   17.5310   68.1586   -3.2162 O   0  0  0  0  0  0  0  0  0  0  0  0
   15.9917   69.0367   -5.2890 O   0  0  0  0  0  0  0  0  0  0  0  0
   18.0576   69.2137   -4.0192 C   0  0  1  0  0  0  0  0  0  0  0  0
   16.9382   69.9326   -4.7428 C   0  0  2  0  0  0  0  0  0  0  0  0
   18.5805   70.2979   -3.0853 C   0  0  1  0  0  0  0  0  0  0  0  0
   16.3546   70.7984   -3.6392 C   0  0  2  0  0  0  0  0  0  0  0  0
   17.1912   67.4540   -3.7907 H   0  0  0  0  0  0  0  0  0  0  0  0
   16.4110   68.5087   -5.9863 H   0  0  0  0  0  0  0  0  0  0  0  0
   14.3494   72.2875   -2.3202 O   0  0  0  0  0  0  0  0  0  0  0  0
   14.2487   75.4589   -5.6628 O   0  0  0  0  0  0  0  0  0  0  0  0
   15.7864   72.0174   -4.1420 N   0  0  0  0  0  0  0  0  0  0  0  0
   14.3010   73.8655   -3.9855 N   0  0  0  0  0  0  0  0  0  0  0  0
   14.7839   72.6870   -3.4024 C   0  0  0  0  0  0  0  0  0  0  0  0
   16.2237   72.5369   -5.3556 C   0  0  0  0  0  0  0  0  0  0  0  0
   15.7521   73.6612   -5.8986 C   0  0  0  0  0  0  0  0  0  0  0  0
   14.7027   74.4217   -5.1897 C   0  0  0  0  0  0  0  0  0  0  0  0
   13.6018   74.3488   -3.4883 H   0  0  0  0  0  0  0  0  0  0  0  0
   20.8948   72.3234   -0.4764 O   0  0  0  0  0  0  0  0  0  0  0  0
   20.1792   71.2988    0.5488 P   0  0  2  0  0  0  0  0  0  0  0  0
   20.0049   69.9533   -0.3326 O   0  0  0  0  0  0  0  0  0  0  0  0
   18.9034   71.8171    1.1466 O   0  0  0  0  0  0  0  0  0  0  0  0
   21.3234   70.9342    1.6272 O   0  0  0  0  0  0  0  0  0  0  0  0
   23.0590   72.4735    2.1121 O   0  0  0  0  0  0  0  0  0  0  0  0
   24.9116   68.9874    3.3228 O   0  0  0  0  0  0  0  0  0  0  0  0
   24.0092   70.8717    5.2933 O   0  0  0  0  0  0  0  0  0  0  0  0
   23.2320   68.9863    0.9652 O   0  0  0  0  0  0  0  0  0  0  0  0
   23.8088   69.8768    3.1275 C   0  0  1  0  0  0  0  0  0  0  0  0
   24.0898   71.1663    3.9015 C   0  0  1  0  0  0  0  0  0  0  0  0
   23.6599   70.1672    1.6352 C   0  0  2  0  0  0  0  0  0  0  0  0
   23.0862   72.2659    3.5291 C   0  0  1  0  0  0  0  0  0  0  0  0
   22.6755   71.3094    1.3774 C   0  0  1  0  0  0  0  0  0  0  0  0
   25.0113   68.7986    4.2683 H   0  0  0  0  0  0  0  0  0  0  0  0
   24.6475   70.1757    5.5152 H   0  0  0  0  0  0  0  0  0  0  0  0
   23.8635   68.2709    1.1359 H   0  0  0  0  0  0  0  0  0  0  0  0
   23.0385   73.5767    5.5262 O   0  0  0  0  0  0  0  0  0  0  0  0
   23.4420   73.6058    4.1695 C   0  0  0  0  0  0  0  0  0  0  0  0
   23.2590   74.4230    5.9466 H   0  0  0  0  0  0  0  0  0  0  0  0
 25 28  1  0
 25 24  1  0
 25 26  1  6
 25 27  2  0
  1  4  1  0
  1 24  1  0
  1  2  1  6
  1  3  2  0
  6 11  1  0
  6 12  1  0
 29 36  1  0
 29 37  1  0
  9  7  1  1
  7 13  1  0
 10  8  1  1
  8 14  1  0
 37 28  1  1
  4  5  1  0
 33 30  1  6
 30 38  1  0
 34 31  1  1
 31 39  1  0
 35 32  1  6
 32 40  1  0
 41 42  1  0
 41 43  1  0
 15 19  2  0
 16 22  2  0
 12 17  1  6
 17 19  1  0
 17 20  1  0
 18 19  1  0
 18 22  1  0
 18 23  1  0
  9 10  1  0
  9 11  1  0
 10 12  1  0
 11  5  1  6
 33 34  1  0
 33 35  1  0
 34 36  1  0
 35 37  1  0
 36 42  1  1
 20 21  2  0
 21 22  1  0
M  CHG  2   2  -1  26  -1
M  END
>  <COMPND>  (168) 
    8629 

>  <AUTHOR>  (168) 
    GENERATED BY OPEN BABEL 3.1.1

>  <MASTER>  (168) 
        0    0    0    0    0    0    0    0   58    0   58    0

>  <minimizedAffinity>  (168) 
-7.29429

>  <CNNscore>  (168) 
0.4102260768

>  <CNNaffinity>  (168) 
4.0247755051

>  <CNN_VS>  (168) 
1.6510678530

>  <CNNaffinity_variance>  (168) 
0.2485471964

$$$$
169
     RDKit          3D

 43 45  0  0  0  0  0  0  0  0999 V2000
   20.4488   74.8738   -3.4058 P   0  0  2  0  0  0  0  0  0  0  0  0
   19.5061   74.0452   -2.3850 O   0  0  0  0  0  0  0  0  0  0  0  0
   21.1020   76.0907   -2.8193 O   0  0  0  0  0  0  0  0  0  0  0  0
   19.4969   75.1361   -4.6876 O   0  0  0  0  0  0  0  0  0  0  0  0
   19.5488   74.2197   -5.7671 C   0  0  0  0  0  0  0  0  0  0  0  0
   17.8092   72.8524   -6.7041 O   0  0  0  0  0  0  0  0  0  0  0  0
   16.0763   75.2959   -6.5745 O   0  0  0  0  0  0  0  0  0  0  0  0
   15.2673   73.8770   -4.3908 O   0  0  0  0  0  0  0  0  0  0  0  0
   17.0880   74.8583   -5.6689 C   0  0  1  0  0  0  0  0  0  0  0  0
   16.5897   73.6854   -4.8506 C   0  0  2  0  0  0  0  0  0  0  0  0
   18.2066   74.2238   -6.4859 C   0  0  1  0  0  0  0  0  0  0  0  0
   16.7038   72.5391   -5.8411 C   0  0  2  0  0  0  0  0  0  0  0  0
   15.3511   75.7051   -6.0759 H   0  0  0  0  0  0  0  0  0  0  0  0
   15.2469   74.6167   -3.7637 H   0  0  0  0  0  0  0  0  0  0  0  0
   15.8749   70.0339   -6.8486 O   0  0  0  0  0  0  0  0  0  0  0  0
   17.7308   67.7802   -3.2824 O   0  0  0  0  0  0  0  0  0  0  0  0
   16.9573   71.2815   -5.1965 N   0  0  0  0  0  0  0  0  0  0  0  0
   16.7998   68.9137   -5.0722 N   0  0  0  0  0  0  0  0  0  0  0  0
   16.4971   70.0807   -5.7854 C   0  0  0  0  0  0  0  0  0  0  0  0
   17.6553   71.2473   -3.9943 C   0  0  0  0  0  0  0  0  0  0  0  0
   17.9347   70.1263   -3.3261 C   0  0  0  0  0  0  0  0  0  0  0  0
   17.4895   68.8284   -3.8731 C   0  0  0  0  0  0  0  0  0  0  0  0
   16.4889   68.0651   -5.4631 H   0  0  0  0  0  0  0  0  0  0  0  0
   21.4793   73.7499   -3.9425 O   0  0  0  0  0  0  0  0  0  0  0  0
   22.8857   73.2259   -3.3421 P   0  0  2  0  0  0  0  0  0  0  0  0
   23.5280   74.5577   -2.6854 O   0  0  0  0  0  0  0  0  0  0  0  0
   23.7679   72.5438   -4.3473 O   0  0  0  0  0  0  0  0  0  0  0  0
   22.4743   72.3070   -2.0806 O   0  0  0  0  0  0  0  0  0  0  0  0
   22.4315   70.0207   -2.7031 O   0  0  0  0  0  0  0  0  0  0  0  0
   20.8377   69.7009    1.0927 O   0  0  0  0  0  0  0  0  0  0  0  0
   23.5138   68.7843    0.5967 O   0  0  0  0  0  0  0  0  0  0  0  0
   20.1253   71.9476   -0.5879 O   0  0  0  0  0  0  0  0  0  0  0  0
   21.6889   70.2409    0.0782 C   0  0  1  0  0  0  0  0  0  0  0  0
   22.5922   69.1188   -0.4372 C   0  0  1  0  0  0  0  0  0  0  0  0
   20.8263   70.7989   -1.0522 C   0  0  2  0  0  0  0  0  0  0  0  0
   23.3436   69.5502   -1.7039 C   0  0  1  0  0  0  0  0  0  0  0  0
   21.6654   71.1510   -2.2819 C   0  0  1  0  0  0  0  0  0  0  0  0
   21.3791   69.3454    1.8137 H   0  0  0  0  0  0  0  0  0  0  0  0
   23.0265   68.5142    1.3909 H   0  0  0  0  0  0  0  0  0  0  0  0
   19.5977   71.7115    0.1904 H   0  0  0  0  0  0  0  0  0  0  0  0
   23.3652   67.2113   -2.1920 O   0  0  0  0  0  0  0  0  0  0  0  0
   24.1285   68.3963   -2.3241 C   0  0  0  0  0  0  0  0  0  0  0  0
   23.8522   66.4685   -2.5827 H   0  0  0  0  0  0  0  0  0  0  0  0
 25 28  1  0
 25 24  1  0
 25 26  1  1
 25 27  2  0
  1  4  1  0
  1 24  1  0
  1  2  1  1
  1  3  2  0
  6 11  1  0
  6 12  1  0
 29 36  1  0
 29 37  1  0
  9  7  1  6
  7 13  1  0
 10  8  1  6
  8 14  1  0
 37 28  1  1
  4  5  1  0
 33 30  1  1
 30 38  1  0
 34 31  1  1
 31 39  1  0
 35 32  1  1
 32 40  1  0
 41 42  1  0
 41 43  1  0
 15 19  2  0
 16 22  2  0
 12 17  1  1
 17 19  1  0
 17 20  1  0
 18 19  1  0
 18 22  1  0
 18 23  1  0
  9 10  1  0
  9 11  1  0
 10 12  1  0
 11  5  1  1
 33 34  1  0
 33 35  1  0
 34 36  1  0
 35 37  1  0
 36 42  1  6
 20 21  2  0
 21 22  1  0
M  CHG  2   2  -1  26  -1
M  END
>  <COMPND>  (169) 
    8629 

>  <AUTHOR>  (169) 
    GENERATED BY OPEN BABEL 3.1.1

>  <MASTER>  (169) 
        0    0    0    0    0    0    0    0   58    0   58    0

>  <minimizedAffinity>  (169) 
-6.82294

>  <CNNscore>  (169) 
0.3826249242

>  <CNNaffinity>  (169) 
3.8958976269

>  <CNN_VS>  (169) 
1.4906675816

>  <CNNaffinity_variance>  (169) 
0.8846107721

$$$$
170
     RDKit          3D

 43 45  0  0  0  0  0  0  0  0999 V2000
   21.2023   70.5113    0.1344 P   0  0  2  0  0  0  0  0  0  0  0  0
   21.1245   68.9837    0.6616 O   0  0  0  0  0  0  0  0  0  0  0  0
   22.5819   71.1004    0.1003 O   0  0  0  0  0  0  0  0  0  0  0  0
   20.1262   71.2949    1.0541 O   0  0  0  0  0  0  0  0  0  0  0  0
   19.8495   72.6535    0.7621 C   0  0  0  0  0  0  0  0  0  0  0  0
   19.7562   72.7700    3.1603 O   0  0  0  0  0  0  0  0  0  0  0  0
   18.2269   75.3224    2.7902 O   0  0  0  0  0  0  0  0  0  0  0  0
   20.7344   76.2130    3.3870 O   0  0  0  0  0  0  0  0  0  0  0  0
   19.3067   74.7978    2.0194 C   0  0  1  0  0  0  0  0  0  0  0  0
   20.6117   74.9460    2.7735 C   0  0  2  0  0  0  0  0  0  0  0  0
   19.1461   73.2840    1.9563 C   0  0  1  0  0  0  0  0  0  0  0  0
   20.5228   73.8139    3.7828 C   0  0  2  0  0  0  0  0  0  0  0  0
   18.3078   76.2881    2.8444 H   0  0  0  0  0  0  0  0  0  0  0  0
   20.7873   76.8995    2.7038 H   0  0  0  0  0  0  0  0  0  0  0  0
   22.1211   74.8187    5.8836 O   0  0  0  0  0  0  0  0  0  0  0  0
   25.4573   71.7476    5.0594 O   0  0  0  0  0  0  0  0  0  0  0  0
   21.8133   73.2955    4.1394 N   0  0  0  0  0  0  0  0  0  0  0  0
   23.7809   73.2886    5.4716 N   0  0  0  0  0  0  0  0  0  0  0  0
   22.5348   73.8724    5.2104 C   0  0  0  0  0  0  0  0  0  0  0  0
   22.3507   72.2265    3.4306 C   0  0  0  0  0  0  0  0  0  0  0  0
   23.5411   71.6822    3.6915 C   0  0  0  0  0  0  0  0  0  0  0  0
   24.3588   72.2261    4.7948 C   0  0  0  0  0  0  0  0  0  0  0  0
   24.3016   73.6743    6.2132 H   0  0  0  0  0  0  0  0  0  0  0  0
   20.4665   70.4376   -1.3030 O   0  0  0  0  0  0  0  0  0  0  0  0
   20.8411   71.1127   -2.7231 P   0  0  2  0  0  0  0  0  0  0  0  0
   22.0823   70.2155   -3.2446 O   0  0  0  0  0  0  0  0  0  0  0  0
   21.1293   72.5842   -2.6480 O   0  0  0  0  0  0  0  0  0  0  0  0
   19.6162   70.7200   -3.6979 O   0  0  0  0  0  0  0  0  0  0  0  0
   17.7930   72.0772   -4.3691 O   0  0  0  0  0  0  0  0  0  0  0  0
   15.8934   68.4117   -4.2914 O   0  0  0  0  0  0  0  0  0  0  0  0
   16.4867   69.6480   -6.8148 O   0  0  0  0  0  0  0  0  0  0  0  0
   17.8598   69.0620   -2.2691 O   0  0  0  0  0  0  0  0  0  0  0  0
   16.9882   69.3076   -4.5010 C   0  0  1  0  0  0  0  0  0  0  0  0
   16.5768   70.3268   -5.5653 C   0  0  1  0  0  0  0  0  0  0  0  0
   17.3188   70.0084   -3.1847 C   0  0  2  0  0  0  0  0  0  0  0  0
   17.5905   71.4757   -5.6532 C   0  0  1  0  0  0  0  0  0  0  0  0
   18.2977   71.1657   -3.3912 C   0  0  1  0  0  0  0  0  0  0  0  0
   15.6787   67.9630   -5.1234 H   0  0  0  0  0  0  0  0  0  0  0  0
   15.8438   68.9247   -6.7456 H   0  0  0  0  0  0  0  0  0  0  0  0
   17.2307   68.3347   -2.1467 H   0  0  0  0  0  0  0  0  0  0  0  0
   17.2995   72.1429   -7.9290 O   0  0  0  0  0  0  0  0  0  0  0  0
   17.1207   72.5822   -6.5951 C   0  0  0  0  0  0  0  0  0  0  0  0
   17.0043   72.8370   -8.5396 H   0  0  0  0  0  0  0  0  0  0  0  0
 25 28  1  0
 25 24  1  0
 25 26  1  6
 25 27  2  0
  1  4  1  0
  1 24  1  0
  1  2  1  1
  1  3  2  0
  6 11  1  0
  6 12  1  0
 29 36  1  0
 29 37  1  0
  9  7  1  1
  7 13  1  0
 10  8  1  1
  8 14  1  0
 37 28  1  6
  4  5  1  0
 33 30  1  1
 30 38  1  0
 34 31  1  6
 31 39  1  0
 35 32  1  1
 32 40  1  0
 41 42  1  0
 41 43  1  0
 15 19  2  0
 16 22  2  0
 12 17  1  6
 17 19  1  0
 17 20  1  0
 18 19  1  0
 18 22  1  0
 18 23  1  0
  9 10  1  0
  9 11  1  0
 10 12  1  0
 11  5  1  6
 33 34  1  0
 33 35  1  0
 34 36  1  0
 35 37  1  0
 36 42  1  6
 20 21  2  0
 21 22  1  0
M  CHG  2   2  -1  26  -1
M  END
>  <COMPND>  (170) 
    8629 

>  <AUTHOR>  (170) 
    GENERATED BY OPEN BABEL 3.1.1

>  <MASTER>  (170) 
        0    0    0    0    0    0    0    0   58    0   58    0

>  <minimizedAffinity>  (170) 
-7.41580

>  <CNNscore>  (170) 
0.3673682511

>  <CNNaffinity>  (170) 
4.0532197952

>  <CNN_VS>  (170) 
1.4890242815

>  <CNNaffinity_variance>  (170) 
0.1354683936

$$$$
171
     RDKit          3D

 43 45  0  0  0  0  0  0  0  0999 V2000
   20.5214   74.9624   -3.8091 P   0  0  2  0  0  0  0  0  0  0  0  0
   20.6093   75.9875   -2.5605 O   0  0  0  0  0  0  0  0  0  0  0  0
   21.1403   75.4598   -5.0823 O   0  0  0  0  0  0  0  0  0  0  0  0
   18.9502   74.5852   -3.8921 O   0  0  0  0  0  0  0  0  0  0  0  0
   18.4411   73.6091   -3.0000 C   0  0  0  0  0  0  0  0  0  0  0  0
   16.9247   73.1864   -4.8153 O   0  0  0  0  0  0  0  0  0  0  0  0
   15.0856   72.0119   -2.7588 O   0  0  0  0  0  0  0  0  0  0  0  0
   16.2018   69.7970   -3.8923 O   0  0  0  0  0  0  0  0  0  0  0  0
   16.5096   71.9619   -2.8294 C   0  0  1  0  0  0  0  0  0  0  0  0
   16.9489   70.9963   -3.9102 C   0  0  2  0  0  0  0  0  0  0  0  0
   16.9995   73.2966   -3.3771 C   0  0  1  0  0  0  0  0  0  0  0  0
   16.7183   71.8099   -5.1723 C   0  0  2  0  0  0  0  0  0  0  0  0
   14.7495   71.1703   -2.4114 H   0  0  0  0  0  0  0  0  0  0  0  0
   16.3827   69.3154   -3.0700 H   0  0  0  0  0  0  0  0  0  0  0  0
   15.9547   70.6091   -7.6122 O   0  0  0  0  0  0  0  0  0  0  0  0
   20.3037   70.5077   -9.1346 O   0  0  0  0  0  0  0  0  0  0  0  0
   17.6304   71.4593   -6.2243 N   0  0  0  0  0  0  0  0  0  0  0  0
   18.1208   70.5598   -8.3683 N   0  0  0  0  0  0  0  0  0  0  0  0
   17.1446   70.8594   -7.4095 C   0  0  0  0  0  0  0  0  0  0  0  0
   18.9900   71.7108   -6.0752 C   0  0  0  0  0  0  0  0  0  0  0  0
   19.9080   71.4179   -6.9985 C   0  0  0  0  0  0  0  0  0  0  0  0
   19.4837   70.7892   -8.2661 C   0  0  0  0  0  0  0  0  0  0  0  0
   17.8057   70.1410   -9.2020 H   0  0  0  0  0  0  0  0  0  0  0  0
   21.1882   73.6132   -3.2192 O   0  0  0  0  0  0  0  0  0  0  0  0
   22.6901   73.0287   -3.3450 P   0  0  2  0  0  0  0  0  0  0  0  0
   23.6117   74.2653   -2.8563 O   0  0  0  0  0  0  0  0  0  0  0  0
   23.0331   72.5016   -4.7083 O   0  0  0  0  0  0  0  0  0  0  0  0
   22.8056   71.9405   -2.1586 O   0  0  0  0  0  0  0  0  0  0  0  0
   22.3175   69.6213   -2.1634 O   0  0  0  0  0  0  0  0  0  0  0  0
   21.0622   70.5518    1.6588 O   0  0  0  0  0  0  0  0  0  0  0  0
   23.4851   69.0554    1.2870 O   0  0  0  0  0  0  0  0  0  0  0  0
   20.5830   72.4078   -0.5104 O   0  0  0  0  0  0  0  0  0  0  0  0
   21.8918   70.6554    0.4984 C   0  0  1  0  0  0  0  0  0  0  0  0
   22.5389   69.2918    0.2482 C   0  0  1  0  0  0  0  0  0  0  0  0
   21.0321   71.0695   -0.6944 C   0  0  2  0  0  0  0  0  0  0  0  0
   23.2280   69.2488   -1.1223 C   0  0  1  0  0  0  0  0  0  0  0  0
   21.7973   70.9437   -2.0130 C   0  0  1  0  0  0  0  0  0  0  0  0
   21.6021   70.2897    2.4199 H   0  0  0  0  0  0  0  0  0  0  0  0
   23.0372   69.0857    2.1470 H   0  0  0  0  0  0  0  0  0  0  0  0
   20.0998   72.4742    0.3275 H   0  0  0  0  0  0  0  0  0  0  0  0
   23.1109   66.9198   -0.6017 O   0  0  0  0  0  0  0  0  0  0  0  0
   23.7436   67.8514   -1.4596 C   0  0  0  0  0  0  0  0  0  0  0  0
   23.4291   66.0259   -0.8051 H   0  0  0  0  0  0  0  0  0  0  0  0
 25 28  1  0
 25 24  1  0
 25 26  1  1
 25 27  2  0
  1  4  1  0
  1 24  1  0
  1  2  1  1
  1  3  2  0
  6 11  1  0
  6 12  1  0
 29 36  1  0
 29 37  1  0
  9  7  1  6
  7 13  1  0
 10  8  1  6
  8 14  1  0
 37 28  1  1
  4  5  1  0
 33 30  1  1
 30 38  1  0
 34 31  1  1
 31 39  1  0
 35 32  1  1
 32 40  1  0
 41 42  1  0
 41 43  1  0
 15 19  2  0
 16 22  2  0
 12 17  1  6
 17 19  1  0
 17 20  1  0
 18 19  1  0
 18 22  1  0
 18 23  1  0
  9 10  1  0
  9 11  1  0
 10 12  1  0
 11  5  1  6
 33 34  1  0
 33 35  1  0
 34 36  1  0
 35 37  1  0
 36 42  1  6
 20 21  2  0
 21 22  1  0
M  CHG  2   2  -1  26  -1
M  END
>  <COMPND>  (171) 
    8629 

>  <AUTHOR>  (171) 
    GENERATED BY OPEN BABEL 3.1.1

>  <MASTER>  (171) 
        0    0    0    0    0    0    0    0   58    0   58    0

>  <minimizedAffinity>  (171) 
-7.16531

>  <CNNscore>  (171) 
0.3575786650

>  <CNNaffinity>  (171) 
4.2176513672

>  <CNN_VS>  (171) 
1.5081421137

>  <CNNaffinity_variance>  (171) 
0.2443924844

$$$$
172
     RDKit          3D

 43 45  0  0  0  0  0  0  0  0999 V2000
   19.3938   73.9803   -1.6026 P   0  0  2  0  0  0  0  0  0  0  0  0
   17.8267   74.0944   -1.9879 O   0  0  0  0  0  0  0  0  0  0  0  0
   19.8259   74.8334   -0.4463 O   0  0  0  0  0  0  0  0  0  0  0  0
   20.1588   74.2536   -3.0019 O   0  0  0  0  0  0  0  0  0  0  0  0
   20.5119   73.1428   -3.8076 C   0  0  0  0  0  0  0  0  0  0  0  0
   19.8188   72.2893   -5.9442 O   0  0  0  0  0  0  0  0  0  0  0  0
   19.3380   75.1456   -6.7195 O   0  0  0  0  0  0  0  0  0  0  0  0
   16.8242   74.2515   -6.1559 O   0  0  0  0  0  0  0  0  0  0  0  0
   19.1395   74.5072   -5.4592 C   0  0  1  0  0  0  0  0  0  0  0  0
   17.9102   73.6239   -5.5052 C   0  0  2  0  0  0  0  0  0  0  0  0
   20.2562   73.4885   -5.2682 C   0  0  1  0  0  0  0  0  0  0  0  0
   18.4225   72.4100   -6.2615 C   0  0  2  0  0  0  0  0  0  0  0  0
   18.6369   75.8011   -6.8638 H   0  0  0  0  0  0  0  0  0  0  0  0
   16.5344   75.0174   -5.6361 H   0  0  0  0  0  0  0  0  0  0  0  0
   16.0793   71.4248   -7.4930 O   0  0  0  0  0  0  0  0  0  0  0  0
   15.9313   67.7620   -4.6996 O   0  0  0  0  0  0  0  0  0  0  0  0
   17.7507   71.2010   -5.8764 N   0  0  0  0  0  0  0  0  0  0  0  0
   16.0076   69.6017   -6.1012 N   0  0  0  0  0  0  0  0  0  0  0  0
   16.5802   70.7953   -6.5589 C   0  0  0  0  0  0  0  0  0  0  0  0
   18.2531   70.4313   -4.8328 C   0  0  0  0  0  0  0  0  0  0  0  0
   17.6945   69.2961   -4.4077 C   0  0  0  0  0  0  0  0  0  0  0  0
   16.4686   68.8021   -5.0674 C   0  0  0  0  0  0  0  0  0  0  0  0
   15.1911   69.2997   -6.5615 H   0  0  0  0  0  0  0  0  0  0  0  0
   19.5989   72.3923   -1.3806 O   0  0  0  0  0  0  0  0  0  0  0  0
   19.0261   71.3968   -0.2431 P   0  0  2  0  0  0  0  0  0  0  0  0
   18.6987   70.0427   -1.0658 O   0  0  0  0  0  0  0  0  0  0  0  0
   17.8628   71.9490    0.5288 O   0  0  0  0  0  0  0  0  0  0  0  0
   20.3116   71.0249    0.6592 O   0  0  0  0  0  0  0  0  0  0  0  0
   22.2611   72.0437    1.5412 O   0  0  0  0  0  0  0  0  0  0  0  0
   24.0071   68.8357   -0.3853 O   0  0  0  0  0  0  0  0  0  0  0  0
   23.8694   68.8633    2.4832 O   0  0  0  0  0  0  0  0  0  0  0  0
   21.7604   70.1999   -1.5981 O   0  0  0  0  0  0  0  0  0  0  0  0
   22.9893   69.5135    0.3564 C   0  0  1  0  0  0  0  0  0  0  0  0
   23.5994   70.0027    1.6714 C   0  0  1  0  0  0  0  0  0  0  0  0
   22.4720   70.6913   -0.4674 C   0  0  2  0  0  0  0  0  0  0  0  0
   22.6499   70.9642    2.3987 C   0  0  1  0  0  0  0  0  0  0  0  0
   21.5763   71.6117    0.3638 C   0  0  1  0  0  0  0  0  0  0  0  0
   24.3394   68.0864    0.1320 H   0  0  0  0  0  0  0  0  0  0  0  0
   24.4696   68.2641    2.0122 H   0  0  0  0  0  0  0  0  0  0  0  0
   22.3382   69.6189   -2.1162 H   0  0  0  0  0  0  0  0  0  0  0  0
   22.2794   72.0924    4.4721 O   0  0  0  0  0  0  0  0  0  0  0  0
   23.3007   71.5866    3.6322 C   0  0  0  0  0  0  0  0  0  0  0  0
   22.6789   72.4912    5.2615 H   0  0  0  0  0  0  0  0  0  0  0  0
 25 28  1  0
 25 24  1  0
 25 26  1  6
 25 27  2  0
  1  4  1  0
  1 24  1  0
  1  2  1  6
  1  3  2  0
  6 11  1  0
  6 12  1  0
 29 36  1  0
 29 37  1  0
  9  7  1  6
  7 13  1  0
 10  8  1  6
  8 14  1  0
 37 28  1  1
  4  5  1  0
 33 30  1  6
 30 38  1  0
 34 31  1  1
 31 39  1  0
 35 32  1  6
 32 40  1  0
 41 42  1  0
 41 43  1  0
 15 19  2  0
 16 22  2  0
 12 17  1  1
 17 19  1  0
 17 20  1  0
 18 19  1  0
 18 22  1  0
 18 23  1  0
  9 10  1  0
  9 11  1  0
 10 12  1  0
 11  5  1  1
 33 34  1  0
 33 35  1  0
 34 36  1  0
 35 37  1  0
 36 42  1  1
 20 21  2  0
 21 22  1  0
M  CHG  2   2  -1  26  -1
M  END
>  <COMPND>  (172) 
    8629 

>  <AUTHOR>  (172) 
    GENERATED BY OPEN BABEL 3.1.1

>  <MASTER>  (172) 
        0    0    0    0    0    0    0    0   58    0   58    0

>  <minimizedAffinity>  (172) 
-7.46804

>  <CNNscore>  (172) 
0.3407547176

>  <CNNaffinity>  (172) 
3.8589720726

>  <CNN_VS>  (172) 
1.3149629831

>  <CNNaffinity_variance>  (172) 
0.5951728225

$$$$
173
     RDKit          3D

 43 45  0  0  0  0  0  0  0  0999 V2000
   20.3696   70.8636   -0.7090 P   0  0  2  0  0  0  0  0  0  0  0  0
   20.4204   69.6444    0.3533 O   0  0  0  0  0  0  0  0  0  0  0  0
   21.1384   70.6321   -1.9767 O   0  0  0  0  0  0  0  0  0  0  0  0
   20.8175   72.1537    0.1586 O   0  0  0  0  0  0  0  0  0  0  0  0
   21.1291   71.9719    1.5289 C   0  0  0  0  0  0  0  0  0  0  0  0
   23.1664   72.9390    2.3584 O   0  0  0  0  0  0  0  0  0  0  0  0
   24.3313   70.1824    2.1712 O   0  0  0  0  0  0  0  0  0  0  0  0
   23.7770   70.4142    4.8312 O   0  0  0  0  0  0  0  0  0  0  0  0
   23.0093   70.5807    2.5303 C   0  0  1  0  0  0  0  0  0  0  0  0
   22.9982   71.1693    3.9257 C   0  0  2  0  0  0  0  0  0  0  0  0
   22.6330   71.7839    1.6746 C   0  0  1  0  0  0  0  0  0  0  0  0
   23.5636   72.5589    3.6860 C   0  0  2  0  0  0  0  0  0  0  0  0
   24.5937   69.4151    2.7044 H   0  0  0  0  0  0  0  0  0  0  0  0
   23.3765   69.5389    4.9505 H   0  0  0  0  0  0  0  0  0  0  0  0
   25.1793   74.2642    5.2543 O   0  0  0  0  0  0  0  0  0  0  0  0
   21.5077   76.2252    7.2330 O   0  0  0  0  0  0  0  0  0  0  0  0
   23.0562   73.5250    4.6191 N   0  0  0  0  0  0  0  0  0  0  0  0
   23.3498   75.2394    6.2381 N   0  0  0  0  0  0  0  0  0  0  0  0
   23.9527   74.3316    5.3581 C   0  0  0  0  0  0  0  0  0  0  0  0
   21.6838   73.6656    4.7936 C   0  0  0  0  0  0  0  0  0  0  0  0
   21.1247   74.5351    5.6378 C   0  0  0  0  0  0  0  0  0  0  0  0
   21.9912   75.4155    6.4479 C   0  0  0  0  0  0  0  0  0  0  0  0
   23.9547   75.8116    6.7639 H   0  0  0  0  0  0  0  0  0  0  0  0
   18.7839   71.0985   -0.9173 O   0  0  0  0  0  0  0  0  0  0  0  0
   17.7642   70.5290   -2.0348 P   0  0  2  0  0  0  0  0  0  0  0  0
   16.3449   71.1768   -1.6064 O   0  0  0  0  0  0  0  0  0  0  0  0
   17.7519   69.0322   -2.1509 O   0  0  0  0  0  0  0  0  0  0  0  0
   18.1721   71.3018   -3.3917 O   0  0  0  0  0  0  0  0  0  0  0  0
   16.8883   71.1749   -5.3798 O   0  0  0  0  0  0  0  0  0  0  0  0
   20.5743   72.0387   -7.0286 O   0  0  0  0  0  0  0  0  0  0  0  0
   18.5306   74.0560   -6.9894 O   0  0  0  0  0  0  0  0  0  0  0  0
   20.3914   70.2567   -4.7546 O   0  0  0  0  0  0  0  0  0  0  0  0
   19.5399   72.1050   -6.0432 C   0  0  1  0  0  0  0  0  0  0  0  0
   18.2857   72.6820   -6.7025 C   0  0  1  0  0  0  0  0  0  0  0  0
   19.2685   70.6998   -5.5091 C   0  0  2  0  0  0  0  0  0  0  0  0
   17.0622   72.5370   -5.7876 C   0  0  1  0  0  0  0  0  0  0  0  0
   18.0027   70.6564   -4.6511 C   0  0  1  0  0  0  0  0  0  0  0  0
   20.7518   72.9277   -7.3714 H   0  0  0  0  0  0  0  0  0  0  0  0
   19.3058   74.1337   -7.5675 H   0  0  0  0  0  0  0  0  0  0  0  0
   21.1861   70.2886   -5.3089 H   0  0  0  0  0  0  0  0  0  0  0  0
   15.9046   72.7016   -7.8713 O   0  0  0  0  0  0  0  0  0  0  0  0
   15.7722   72.9617   -6.4860 C   0  0  0  0  0  0  0  0  0  0  0  0
   15.0908   72.9667   -8.3287 H   0  0  0  0  0  0  0  0  0  0  0  0
 25 28  1  0
 25 24  1  0
 25 26  1  1
 25 27  2  0
  1  4  1  0
  1 24  1  0
  1  2  1  1
  1  3  2  0
  6 11  1  0
  6 12  1  0
 29 36  1  0
 29 37  1  0
  9  7  1  6
  7 13  1  0
 10  8  1  1
  8 14  1  0
 37 28  1  1
  4  5  1  0
 33 30  1  6
 30 38  1  0
 34 31  1  1
 31 39  1  0
 35 32  1  1
 32 40  1  0
 41 42  1  0
 41 43  1  0
 15 19  2  0
 16 22  2  0
 12 17  1  1
 17 19  1  0
 17 20  1  0
 18 19  1  0
 18 22  1  0
 18 23  1  0
  9 10  1  0
  9 11  1  0
 10 12  1  0
 11  5  1  1
 33 34  1  0
 33 35  1  0
 34 36  1  0
 35 37  1  0
 36 42  1  6
 20 21  2  0
 21 22  1  0
M  CHG  2   2  -1  26  -1
M  END
>  <COMPND>  (173) 
    8629 

>  <AUTHOR>  (173) 
    GENERATED BY OPEN BABEL 3.1.1

>  <MASTER>  (173) 
        0    0    0    0    0    0    0    0   58    0   58    0

>  <minimizedAffinity>  (173) 
-7.63213

>  <CNNscore>  (173) 
0.3384211361

>  <CNNaffinity>  (173) 
3.8101603985

>  <CNN_VS>  (173) 
1.2894388437

>  <CNNaffinity_variance>  (173) 
0.2123880088

$$$$
174
     RDKit          3D

 43 45  0  0  0  0  0  0  0  0999 V2000
   23.0114   72.4606   -3.4429 P   0  0  2  0  0  0  0  0  0  0  0  0
   23.7260   71.0098   -3.4843 O   0  0  0  0  0  0  0  0  0  0  0  0
   23.9346   73.6275   -3.6366 O   0  0  0  0  0  0  0  0  0  0  0  0
   22.1806   72.4449   -2.0546 O   0  0  0  0  0  0  0  0  0  0  0  0
   22.8859   72.2160   -0.8471 C   0  0  0  0  0  0  0  0  0  0  0  0
   23.0790   70.7344    1.0348 O   0  0  0  0  0  0  0  0  0  0  0  0
   20.2825   69.8612    0.3962 O   0  0  0  0  0  0  0  0  0  0  0  0
   19.9073   71.5803    2.4796 O   0  0  0  0  0  0  0  0  0  0  0  0
   20.8701   71.1567    0.2876 C   0  0  1  0  0  0  0  0  0  0  0  0
   21.0425   71.7726    1.6604 C   0  0  2  0  0  0  0  0  0  0  0  0
   22.3141   70.9804   -0.1655 C   0  0  1  0  0  0  0  0  0  0  0  0
   22.2695   71.0436    2.1810 C   0  0  2  0  0  0  0  0  0  0  0  0
   19.3597   69.9481    0.6840 H   0  0  0  0  0  0  0  0  0  0  0  0
   19.1536   72.0636    2.1066 H   0  0  0  0  0  0  0  0  0  0  0  0
   23.7123   70.0185    4.3823 O   0  0  0  0  0  0  0  0  0  0  0  0
   25.1786   74.2124    5.6081 O   0  0  0  0  0  0  0  0  0  0  0  0
   23.0374   71.8450    3.0917 N   0  0  0  0  0  0  0  0  0  0  0  0
   24.4414   72.1076    4.9907 N   0  0  0  0  0  0  0  0  0  0  0  0
   23.7242   71.2320    4.1655 C   0  0  0  0  0  0  0  0  0  0  0  0
   23.1042   73.2228    2.9154 C   0  0  0  0  0  0  0  0  0  0  0  0
   23.7915   74.0439    3.7120 C   0  0  0  0  0  0  0  0  0  0  0  0
   24.5373   73.4837    4.8574 C   0  0  0  0  0  0  0  0  0  0  0  0
   24.9275   71.7030    5.7456 H   0  0  0  0  0  0  0  0  0  0  0  0
   21.8522   72.3269   -4.5615 O   0  0  0  0  0  0  0  0  0  0  0  0
   21.4746   73.2723   -5.8172 P   0  0  2  0  0  0  0  0  0  0  0  0
   22.6534   72.9638   -6.8815 O   0  0  0  0  0  0  0  0  0  0  0  0
   21.3188   74.7244   -5.4692 O   0  0  0  0  0  0  0  0  0  0  0  0
   20.1584   72.5932   -6.4585 O   0  0  0  0  0  0  0  0  0  0  0  0
   18.9816   70.6863   -5.6868 O   0  0  0  0  0  0  0  0  0  0  0  0
   18.3753   70.2374   -9.7465 O   0  0  0  0  0  0  0  0  0  0  0  0
   16.1942   71.0613   -8.0697 O   0  0  0  0  0  0  0  0  0  0  0  0
   20.9263   71.1898   -8.7641 O   0  0  0  0  0  0  0  0  0  0  0  0
   18.5400   70.9650   -8.5263 C   0  0  1  0  0  0  0  0  0  0  0  0
   17.4244   70.5489   -7.5656 C   0  0  1  0  0  0  0  0  0  0  0  0
   19.9096   70.6406   -7.9327 C   0  0  2  0  0  0  0  0  0  0  0  0
   17.6851   71.0815   -6.1501 C   0  0  1  0  0  0  0  0  0  0  0  0
   20.0470   71.1731   -6.5052 C   0  0  1  0  0  0  0  0  0  0  0  0
   17.5078   70.4393  -10.1289 H   0  0  0  0  0  0  0  0  0  0  0  0
   16.0417   70.7178   -8.9641 H   0  0  0  0  0  0  0  0  0  0  0  0
   20.8286   70.8448   -9.6648 H   0  0  0  0  0  0  0  0  0  0  0  0
   16.1874   69.3007   -5.6074 O   0  0  0  0  0  0  0  0  0  0  0  0
   16.6694   70.5479   -5.1422 C   0  0  0  0  0  0  0  0  0  0  0  0
   15.5402   68.9489   -4.9757 H   0  0  0  0  0  0  0  0  0  0  0  0
 25 28  1  0
 25 24  1  0
 25 26  1  6
 25 27  2  0
  1  4  1  0
  1 24  1  0
  1  2  1  1
  1  3  2  0
  6 11  1  0
  6 12  1  0
 29 36  1  0
 29 37  1  0
  9  7  1  1
  7 13  1  0
 10  8  1  1
  8 14  1  0
 37 28  1  6
  4  5  1  0
 33 30  1  6
 30 38  1  0
 34 31  1  6
 31 39  1  0
 35 32  1  6
 32 40  1  0
 41 42  1  0
 41 43  1  0
 15 19  2  0
 16 22  2  0
 12 17  1  1
 17 19  1  0
 17 20  1  0
 18 19  1  0
 18 22  1  0
 18 23  1  0
  9 10  1  0
  9 11  1  0
 10 12  1  0
 11  5  1  1
 33 34  1  0
 33 35  1  0
 34 36  1  0
 35 37  1  0
 36 42  1  1
 20 21  2  0
 21 22  1  0
M  CHG  2   2  -1  26  -1
M  END
>  <COMPND>  (174) 
    8629 

>  <AUTHOR>  (174) 
    GENERATED BY OPEN BABEL 3.1.1

>  <MASTER>  (174) 
        0    0    0    0    0    0    0    0   58    0   58    0

>  <minimizedAffinity>  (174) 
-8.82446

>  <CNNscore>  (174) 
0.3367334902

>  <CNNaffinity>  (174) 
3.7881233692

>  <CNN_VS>  (174) 
1.2755880356

>  <CNNaffinity_variance>  (174) 
0.2461242676

$$$$
175
     RDKit          3D

 43 45  0  0  0  0  0  0  0  0999 V2000
   22.1624   72.3588   -2.7027 P   0  0  2  0  0  0  0  0  0  0  0  0
   22.8476   70.9658   -2.2474 O   0  0  0  0  0  0  0  0  0  0  0  0
   22.9281   73.5938   -2.3286 O   0  0  0  0  0  0  0  0  0  0  0  0
   20.6573   72.2610   -2.1171 O   0  0  0  0  0  0  0  0  0  0  0  0
   20.3526   71.2194   -1.2060 C   0  0  0  0  0  0  0  0  0  0  0  0
   20.0763   71.1039    1.1781 O   0  0  0  0  0  0  0  0  0  0  0  0
   18.8925   73.8521    0.9860 O   0  0  0  0  0  0  0  0  0  0  0  0
   21.4292   74.3567    1.8503 O   0  0  0  0  0  0  0  0  0  0  0  0
   19.9632   73.2768    0.2391 C   0  0  1  0  0  0  0  0  0  0  0  0
   21.2099   73.1835    1.0939 C   0  0  2  0  0  0  0  0  0  0  0  0
   19.6320   71.8092   -0.0015 C   0  0  1  0  0  0  0  0  0  0  0  0
   20.9060   71.9754    1.9636 C   0  0  2  0  0  0  0  0  0  0  0  0
   19.0812   74.7896    1.1518 H   0  0  0  0  0  0  0  0  0  0  0  0
   21.6184   75.0965    1.2523 H   0  0  0  0  0  0  0  0  0  0  0  0
   22.3038   72.4009    4.3808 O   0  0  0  0  0  0  0  0  0  0  0  0
   25.4488   69.1969    3.3392 O   0  0  0  0  0  0  0  0  0  0  0  0
   22.0930   71.2661    2.3498 N   0  0  0  0  0  0  0  0  0  0  0  0
   23.8685   70.8051    3.8603 N   0  0  0  0  0  0  0  0  0  0  0  0
   22.7187   71.5561    3.5847 C   0  0  0  0  0  0  0  0  0  0  0  0
   22.6245   70.2948    1.5085 C   0  0  0  0  0  0  0  0  0  0  0  0
   23.7225   69.5883    1.7854 C   0  0  0  0  0  0  0  0  0  0  0  0
   24.4365   69.8300    3.0557 C   0  0  0  0  0  0  0  0  0  0  0  0
   24.3215   70.9903    4.7148 H   0  0  0  0  0  0  0  0  0  0  0  0
   21.9478   72.1559   -4.2919 O   0  0  0  0  0  0  0  0  0  0  0  0
   21.5468   73.2079   -5.4518 P   0  0  2  0  0  0  0  0  0  0  0  0
   22.6963   72.9853   -6.5683 O   0  0  0  0  0  0  0  0  0  0  0  0
   21.4113   74.6256   -4.9767 O   0  0  0  0  0  0  0  0  0  0  0  0
   20.2097   72.5943   -6.1155 O   0  0  0  0  0  0  0  0  0  0  0  0
   19.0018   70.6328   -5.5583 O   0  0  0  0  0  0  0  0  0  0  0  0
   18.5129   70.5666   -9.6580 O   0  0  0  0  0  0  0  0  0  0  0  0
   16.2873   71.2476   -7.9754 O   0  0  0  0  0  0  0  0  0  0  0  0
   21.0383   71.4049   -8.5184 O   0  0  0  0  0  0  0  0  0  0  0  0
   18.6451   71.1767   -8.3713 C   0  0  1  0  0  0  0  0  0  0  0  0
   17.4998   70.6816   -7.4858 C   0  0  1  0  0  0  0  0  0  0  0  0
   19.9951   70.7886   -7.7712 C   0  0  2  0  0  0  0  0  0  0  0  0
   17.7213   71.0788   -6.0201 C   0  0  1  0  0  0  0  0  0  0  0  0
   20.0930   71.1855   -6.2970 C   0  0  1  0  0  0  0  0  0  0  0  0
   17.6579   70.8094  -10.0448 H   0  0  0  0  0  0  0  0  0  0  0  0
   16.1596   70.9896   -8.9019 H   0  0  0  0  0  0  0  0  0  0  0  0
   20.9656   71.1456   -9.4497 H   0  0  0  0  0  0  0  0  0  0  0  0
   16.1418   69.3105   -5.7251 O   0  0  0  0  0  0  0  0  0  0  0  0
   16.6740   70.4616   -5.0958 C   0  0  0  0  0  0  0  0  0  0  0  0
   15.4740   68.9069   -5.1481 H   0  0  0  0  0  0  0  0  0  0  0  0
 25 28  1  0
 25 24  1  0
 25 26  1  6
 25 27  2  0
  1  4  1  0
  1 24  1  0
  1  2  1  1
  1  3  2  0
  6 11  1  0
  6 12  1  0
 29 36  1  0
 29 37  1  0
  9  7  1  1
  7 13  1  0
 10  8  1  1
  8 14  1  0
 37 28  1  6
  4  5  1  0
 33 30  1  6
 30 38  1  0
 34 31  1  6
 31 39  1  0
 35 32  1  6
 32 40  1  0
 41 42  1  0
 41 43  1  0
 15 19  2  0
 16 22  2  0
 12 17  1  6
 17 19  1  0
 17 20  1  0
 18 19  1  0
 18 22  1  0
 18 23  1  0
  9 10  1  0
  9 11  1  0
 10 12  1  0
 11  5  1  6
 33 34  1  0
 33 35  1  0
 34 36  1  0
 35 37  1  0
 36 42  1  1
 20 21  2  0
 21 22  1  0
M  CHG  2   2  -1  26  -1
M  END
>  <COMPND>  (175) 
    8629 

>  <AUTHOR>  (175) 
    GENERATED BY OPEN BABEL 3.1.1

>  <MASTER>  (175) 
        0    0    0    0    0    0    0    0   58    0   58    0

>  <minimizedAffinity>  (175) 
-7.86602

>  <CNNscore>  (175) 
0.3011325598

>  <CNNaffinity>  (175) 
3.7498741150

>  <CNN_VS>  (175) 
1.1292091608

>  <CNNaffinity_variance>  (175) 
0.3108757436

$$$$
176
     RDKit          3D

 43 45  0  0  0  0  0  0  0  0999 V2000
   22.7466   72.9852   -3.2994 P   0  0  2  0  0  0  0  0  0  0  0  0
   23.9114   72.7793   -4.4031 O   0  0  0  0  0  0  0  0  0  0  0  0
   22.5594   74.3986   -2.8317 O   0  0  0  0  0  0  0  0  0  0  0  0
   23.1066   71.9062   -2.1487 O   0  0  0  0  0  0  0  0  0  0  0  0
   22.8434   72.2447   -0.7982 C   0  0  0  0  0  0  0  0  0  0  0  0
   23.0977   70.8533    1.1442 O   0  0  0  0  0  0  0  0  0  0  0  0
   20.3530   69.8146    0.5289 O   0  0  0  0  0  0  0  0  0  0  0  0
   19.8776   71.5967    2.5376 O   0  0  0  0  0  0  0  0  0  0  0  0
   20.8756   71.1325    0.3696 C   0  0  1  0  0  0  0  0  0  0  0  0
   21.0073   71.8122    1.7166 C   0  0  2  0  0  0  0  0  0  0  0  0
   22.3296   71.0109   -0.0689 C   0  0  1  0  0  0  0  0  0  0  0  0
   22.2658   71.1680    2.2728 C   0  0  2  0  0  0  0  0  0  0  0  0
   19.4250   69.8665    0.8084 H   0  0  0  0  0  0  0  0  0  0  0  0
   19.1032   72.0256    2.1413 H   0  0  0  0  0  0  0  0  0  0  0  0
   23.5499   70.3397    4.6483 O   0  0  0  0  0  0  0  0  0  0  0  0
   24.9984   74.6161    5.5732 O   0  0  0  0  0  0  0  0  0  0  0  0
   22.9862   72.0439    3.1533 N   0  0  0  0  0  0  0  0  0  0  0  0
   24.2703   72.4697    5.1068 N   0  0  0  0  0  0  0  0  0  0  0  0
   23.5939   71.5275    4.3214 C   0  0  0  0  0  0  0  0  0  0  0  0
   23.0849   73.3986    2.8549 C   0  0  0  0  0  0  0  0  0  0  0  0
   23.7324   74.2841    3.6150 C   0  0  0  0  0  0  0  0  0  0  0  0
   24.3952   73.8264    4.8532 C   0  0  0  0  0  0  0  0  0  0  0  0
   24.7011   72.1329    5.9258 H   0  0  0  0  0  0  0  0  0  0  0  0
   21.4501   72.3357   -4.0137 O   0  0  0  0  0  0  0  0  0  0  0  0
   20.1025   71.6974   -3.3896 P   0  0  2  0  0  0  0  0  0  0  0  0
   19.6141   72.8215   -2.3335 O   0  0  0  0  0  0  0  0  0  0  0  0
   20.2861   70.3299   -2.7979 O   0  0  0  0  0  0  0  0  0  0  0  0
   19.0239   71.7682   -4.5882 O   0  0  0  0  0  0  0  0  0  0  0  0
   17.0294   72.9398   -5.1039 O   0  0  0  0  0  0  0  0  0  0  0  0
   15.7404   69.0866   -5.8404 O   0  0  0  0  0  0  0  0  0  0  0  0
   16.2092   70.8701   -8.0420 O   0  0  0  0  0  0  0  0  0  0  0  0
   17.5107   69.6159   -3.6121 O   0  0  0  0  0  0  0  0  0  0  0  0
   16.6837   70.1611   -5.8075 C   0  0  1  0  0  0  0  0  0  0  0  0
   16.1489   71.2957   -6.6835 C   0  0  1  0  0  0  0  0  0  0  0  0
   16.8549   70.6311   -4.3642 C   0  0  2  0  0  0  0  0  0  0  0  0
   16.9676   72.5790   -6.4887 C   0  0  1  0  0  0  0  0  0  0  0  0
   17.6418   71.9406   -4.2862 C   0  0  1  0  0  0  0  0  0  0  0  0
   15.6275   68.7832   -6.7540 H   0  0  0  0  0  0  0  0  0  0  0  0
   15.6887   70.0588   -8.1514 H   0  0  0  0  0  0  0  0  0  0  0  0
   17.0027   68.7922   -3.6691 H   0  0  0  0  0  0  0  0  0  0  0  0
   15.6440   73.2748   -8.3523 O   0  0  0  0  0  0  0  0  0  0  0  0
   16.3571   73.7652   -7.2319 C   0  0  0  0  0  0  0  0  0  0  0  0
   15.2497   74.0187   -8.8347 H   0  0  0  0  0  0  0  0  0  0  0  0
 25 28  1  0
 25 24  1  0
 25 26  1  1
 25 27  2  0
  1  4  1  0
  1 24  1  0
  1  2  1  6
  1  3  2  0
  6 11  1  0
  6 12  1  0
 29 36  1  0
 29 37  1  0
  9  7  1  1
  7 13  1  0
 10  8  1  1
  8 14  1  0
 37 28  1  6
  4  5  1  0
 33 30  1  1
 30 38  1  0
 34 31  1  6
 31 39  1  0
 35 32  1  1
 32 40  1  0
 41 42  1  0
 41 43  1  0
 15 19  2  0
 16 22  2  0
 12 17  1  1
 17 19  1  0
 17 20  1  0
 18 19  1  0
 18 22  1  0
 18 23  1  0
  9 10  1  0
  9 11  1  0
 10 12  1  0
 11  5  1  1
 33 34  1  0
 33 35  1  0
 34 36  1  0
 35 37  1  0
 36 42  1  6
 20 21  2  0
 21 22  1  0
M  CHG  2   2  -1  26  -1
M  END
>  <COMPND>  (176) 
    8629 

>  <AUTHOR>  (176) 
    GENERATED BY OPEN BABEL 3.1.1

>  <MASTER>  (176) 
        0    0    0    0    0    0    0    0   58    0   58    0

>  <minimizedAffinity>  (176) 
-8.07957

>  <CNNscore>  (176) 
0.2879672647

>  <CNNaffinity>  (176) 
3.8235690594

>  <CNN_VS>  (176) 
1.1010627747

>  <CNNaffinity_variance>  (176) 
0.1359504759

$$$$
177
     RDKit          3D

 43 45  0  0  0  0  0  0  0  0999 V2000
   21.9091   72.7000   -4.2417 P   0  0  2  0  0  0  0  0  0  0  0  0
   21.6719   74.1730   -4.8673 O   0  0  0  0  0  0  0  0  0  0  0  0
   23.3296   72.2178   -4.2766 O   0  0  0  0  0  0  0  0  0  0  0  0
   20.8328   71.7716   -5.0148 O   0  0  0  0  0  0  0  0  0  0  0  0
   20.3773   72.1846   -6.2914 C   0  0  0  0  0  0  0  0  0  0  0  0
   18.7176   70.4981   -5.8732 O   0  0  0  0  0  0  0  0  0  0  0  0
   18.2964   70.4421   -8.8414 O   0  0  0  0  0  0  0  0  0  0  0  0
   16.1981   71.9512   -7.9717 O   0  0  0  0  0  0  0  0  0  0  0  0
   18.5959   71.5496   -7.9934 C   0  0  1  0  0  0  0  0  0  0  0  0
   17.3742   71.9411   -7.1885 C   0  0  2  0  0  0  0  0  0  0  0  0
   19.5498   71.0654   -6.9085 C   0  0  1  0  0  0  0  0  0  0  0  0
   17.3501   70.8700   -6.1113 C   0  0  2  0  0  0  0  0  0  0  0  0
   17.6887   70.7271   -9.5425 H   0  0  0  0  0  0  0  0  0  0  0  0
   16.2619   72.6493   -8.6421 H   0  0  0  0  0  0  0  0  0  0  0  0
   16.4626   69.1935   -4.0185 O   0  0  0  0  0  0  0  0  0  0  0  0
   15.1566   72.7881   -1.4467 O   0  0  0  0  0  0  0  0  0  0  0  0
   16.7744   71.3411   -4.8833 N   0  0  0  0  0  0  0  0  0  0  0  0
   15.8132   70.9847   -2.7396 N   0  0  0  0  0  0  0  0  0  0  0  0
   16.3601   70.4160   -3.8969 C   0  0  0  0  0  0  0  0  0  0  0  0
   16.6258   72.7067   -4.6667 C   0  0  0  0  0  0  0  0  0  0  0  0
   16.1012   73.2329   -3.5580 C   0  0  0  0  0  0  0  0  0  0  0  0
   15.6433   72.3351   -2.4781 C   0  0  0  0  0  0  0  0  0  0  0  0
   15.5172   70.3594   -2.0388 H   0  0  0  0  0  0  0  0  0  0  0  0
   21.2787   72.8290   -2.7588 O   0  0  0  0  0  0  0  0  0  0  0  0
   20.4813   71.7583   -1.8474 P   0  0  2  0  0  0  0  0  0  0  0  0
   21.2908   70.3804   -2.0999 O   0  0  0  0  0  0  0  0  0  0  0  0
   19.0111   71.6753   -2.1397 O   0  0  0  0  0  0  0  0  0  0  0  0
   20.8390   72.1686   -0.3279 O   0  0  0  0  0  0  0  0  0  0  0  0
   21.3594   70.3809    1.1383 O   0  0  0  0  0  0  0  0  0  0  0  0
   20.6816   73.3474    3.9295 O   0  0  0  0  0  0  0  0  0  0  0  0
   23.3645   72.4466    3.4407 O   0  0  0  0  0  0  0  0  0  0  0  0
   19.0298   73.1921    1.5574 O   0  0  0  0  0  0  0  0  0  0  0  0
   21.1260   72.8103    2.6807 C   0  0  1  0  0  0  0  0  0  0  0  0
   22.2067   71.7654    2.9654 C   0  0  1  0  0  0  0  0  0  0  0  0
   19.9388   72.1735    1.9606 C   0  0  2  0  0  0  0  0  0  0  0  0
   22.5420   70.9575    1.7045 C   0  0  1  0  0  0  0  0  0  0  0  0
   20.3868   71.3529    0.7497 C   0  0  1  0  0  0  0  0  0  0  0  0
   21.4306   73.7537    4.3916 H   0  0  0  0  0  0  0  0  0  0  0  0
   23.1390   72.9532    4.2368 H   0  0  0  0  0  0  0  0  0  0  0  0
   18.7535   73.7042    2.3328 H   0  0  0  0  0  0  0  0  0  0  0  0
   23.3531   68.8266    0.9903 O   0  0  0  0  0  0  0  0  0  0  0  0
   23.5015   69.8070    2.0008 C   0  0  0  0  0  0  0  0  0  0  0  0
   23.9579   68.0882    1.1656 H   0  0  0  0  0  0  0  0  0  0  0  0
 25 28  1  0
 25 24  1  0
 25 26  1  6
 25 27  2  0
  1  4  1  0
  1 24  1  0
  1  2  1  6
  1  3  2  0
  6 11  1  0
  6 12  1  0
 29 36  1  0
 29 37  1  0
  9  7  1  6
  7 13  1  0
 10  8  1  6
  8 14  1  0
 37 28  1  6
  4  5  1  0
 33 30  1  1
 30 38  1  0
 34 31  1  6
 31 39  1  0
 35 32  1  6
 32 40  1  0
 41 42  1  0
 41 43  1  0
 15 19  2  0
 16 22  2  0
 12 17  1  1
 17 19  1  0
 17 20  1  0
 18 19  1  0
 18 22  1  0
 18 23  1  0
  9 10  1  0
  9 11  1  0
 10 12  1  0
 11  5  1  1
 33 34  1  0
 33 35  1  0
 34 36  1  0
 35 37  1  0
 36 42  1  1
 20 21  2  0
 21 22  1  0
M  CHG  2   2  -1  26  -1
M  END
>  <COMPND>  (177) 
    8629 

>  <AUTHOR>  (177) 
    GENERATED BY OPEN BABEL 3.1.1

>  <MASTER>  (177) 
        0    0    0    0    0    0    0    0   58    0   58    0

>  <minimizedAffinity>  (177) 
-6.90873

>  <CNNscore>  (177) 
0.2864744663

>  <CNNaffinity>  (177) 
4.0002951622

>  <CNN_VS>  (177) 
1.1459823847

>  <CNNaffinity_variance>  (177) 
0.2682741582

$$$$
178
     RDKit          3D

 43 45  0  0  0  0  0  0  0  0999 V2000
   20.2344   74.6138   -3.4969 P   0  0  2  0  0  0  0  0  0  0  0  0
   20.8610   75.7109   -2.4865 O   0  0  0  0  0  0  0  0  0  0  0  0
   18.8543   74.9268   -3.9957 O   0  0  0  0  0  0  0  0  0  0  0  0
   20.3926   73.2154   -2.6985 O   0  0  0  0  0  0  0  0  0  0  0  0
   21.0632   73.2216   -1.4503 C   0  0  0  0  0  0  0  0  0  0  0  0
   22.8567   72.1927   -0.2262 O   0  0  0  0  0  0  0  0  0  0  0  0
   22.2083   69.6903   -1.7455 O   0  0  0  0  0  0  0  0  0  0  0  0
   21.0269   69.2415    0.6710 O   0  0  0  0  0  0  0  0  0  0  0  0
   21.3289   70.6992   -1.2513 C   0  0  1  0  0  0  0  0  0  0  0  0
   21.1857   70.5816    0.2518 C   0  0  2  0  0  0  0  0  0  0  0  0
   22.0279   72.0448   -1.3999 C   0  0  1  0  0  0  0  0  0  0  0  0
   22.4855   71.1972    0.7412 C   0  0  2  0  0  0  0  0  0  0  0  0
   21.7834   68.8218   -1.6614 H   0  0  0  0  0  0  0  0  0  0  0  0
   20.1858   68.8948    0.3347 H   0  0  0  0  0  0  0  0  0  0  0  0
   23.4132   70.0894    3.1682 O   0  0  0  0  0  0  0  0  0  0  0  0
   21.8904   73.6915    5.6068 O   0  0  0  0  0  0  0  0  0  0  0  0
   22.3451   71.8243    2.0252 N   0  0  0  0  0  0  0  0  0  0  0  0
   22.6544   71.8839    4.3804 N   0  0  0  0  0  0  0  0  0  0  0  0
   22.8450   71.1833    3.1826 C   0  0  0  0  0  0  0  0  0  0  0  0
   21.7179   73.0612    2.1274 C   0  0  0  0  0  0  0  0  0  0  0  0
   21.5429   73.7156    3.2774 C   0  0  0  0  0  0  0  0  0  0  0  0
   22.0361   73.1148    4.5335 C   0  0  0  0  0  0  0  0  0  0  0  0
   22.9942   71.4565    5.1999 H   0  0  0  0  0  0  0  0  0  0  0  0
   21.3582   74.5010   -4.6534 O   0  0  0  0  0  0  0  0  0  0  0  0
   21.6363   73.3511   -5.7548 P   0  0  2  0  0  0  0  0  0  0  0  0
   22.4559   72.2312   -4.9232 O   0  0  0  0  0  0  0  0  0  0  0  0
   22.3347   73.8390   -6.9910 O   0  0  0  0  0  0  0  0  0  0  0  0
   20.1913   72.6837   -6.0224 O   0  0  0  0  0  0  0  0  0  0  0  0
   18.9815   70.7165   -5.4903 O   0  0  0  0  0  0  0  0  0  0  0  0
   18.5876   70.6420   -9.6001 O   0  0  0  0  0  0  0  0  0  0  0  0
   16.3202   71.3132   -7.9703 O   0  0  0  0  0  0  0  0  0  0  0  0
   21.0815   71.4956   -8.4038 O   0  0  0  0  0  0  0  0  0  0  0  0
   18.6868   71.2546   -8.3116 C   0  0  1  0  0  0  0  0  0  0  0  0
   17.5241   70.7545   -7.4520 C   0  0  1  0  0  0  0  0  0  0  0  0
   20.0247   70.8746   -7.6799 C   0  0  2  0  0  0  0  0  0  0  0  0
   17.7096   71.1548   -5.9822 C   0  0  1  0  0  0  0  0  0  0  0  0
   20.0864   71.2740   -6.2045 C   0  0  1  0  0  0  0  0  0  0  0  0
   17.7405   70.8796  -10.0068 H   0  0  0  0  0  0  0  0  0  0  0  0
   16.2153   71.0533   -8.8991 H   0  0  0  0  0  0  0  0  0  0  0  0
   21.0317   71.2346   -9.3361 H   0  0  0  0  0  0  0  0  0  0  0  0
   15.9539   69.5424   -5.8199 O   0  0  0  0  0  0  0  0  0  0  0  0
   16.6446   70.5332   -5.0813 C   0  0  0  0  0  0  0  0  0  0  0  0
   15.2730   69.1379   -5.2590 H   0  0  0  0  0  0  0  0  0  0  0  0
 25 28  1  0
 25 24  1  0
 25 26  1  1
 25 27  2  0
  1  4  1  0
  1 24  1  0
  1  2  1  1
  1  3  2  0
  6 11  1  0
  6 12  1  0
 29 36  1  0
 29 37  1  0
  9  7  1  1
  7 13  1  0
 10  8  1  6
  8 14  1  0
 37 28  1  6
  4  5  1  0
 33 30  1  6
 30 38  1  0
 34 31  1  6
 31 39  1  0
 35 32  1  6
 32 40  1  0
 41 42  1  0
 41 43  1  0
 15 19  2  0
 16 22  2  0
 12 17  1  1
 17 19  1  0
 17 20  1  0
 18 19  1  0
 18 22  1  0
 18 23  1  0
  9 10  1  0
  9 11  1  0
 10 12  1  0
 11  5  1  1
 33 34  1  0
 33 35  1  0
 34 36  1  0
 35 37  1  0
 36 42  1  1
 20 21  2  0
 21 22  1  0
M  CHG  2   2  -1  26  -1
M  END
>  <COMPND>  (178) 
    8629 

>  <AUTHOR>  (178) 
    GENERATED BY OPEN BABEL 3.1.1

>  <MASTER>  (178) 
        0    0    0    0    0    0    0    0   58    0   58    0

>  <minimizedAffinity>  (178) 
-7.91215

>  <CNNscore>  (178) 
0.2785274088

>  <CNNaffinity>  (178) 
3.8038680553

>  <CNN_VS>  (178) 
1.0594815016

>  <CNNaffinity_variance>  (178) 
0.2962774634

$$$$
179
     RDKit          3D

 43 45  0  0  0  0  0  0  0  0999 V2000
   22.3285   70.8899   -2.5341 P   0  0  2  0  0  0  0  0  0  0  0  0
   21.5512   72.1434   -1.8694 O   0  0  0  0  0  0  0  0  0  0  0  0
   23.3705   71.2565   -3.5496 O   0  0  0  0  0  0  0  0  0  0  0  0
   21.1376   69.9312   -3.0640 O   0  0  0  0  0  0  0  0  0  0  0  0
   20.2393   70.4419   -4.0335 C   0  0  0  0  0  0  0  0  0  0  0  0
   18.3919   71.8491   -3.4164 O   0  0  0  0  0  0  0  0  0  0  0  0
   16.7311   69.3525   -3.4211 O   0  0  0  0  0  0  0  0  0  0  0  0
   16.0961   70.4934   -5.8152 O   0  0  0  0  0  0  0  0  0  0  0  0
   17.8122   69.7186   -4.2771 C   0  0  1  0  0  0  0  0  0  0  0  0
   17.3661   70.7769   -5.2643 C   0  0  2  0  0  0  0  0  0  0  0  0
   18.8370   70.4752   -3.4412 C   0  0  1  0  0  0  0  0  0  0  0  0
   17.3640   72.0292   -4.4042 C   0  0  2  0  0  0  0  0  0  0  0  0
   16.0639   68.8677   -3.9326 H   0  0  0  0  0  0  0  0  0  0  0  0
   16.1494   69.6884   -6.3535 H   0  0  0  0  0  0  0  0  0  0  0  0
   15.4215   73.5444   -5.7859 O   0  0  0  0  0  0  0  0  0  0  0  0
   18.5711   76.5586   -7.2812 O   0  0  0  0  0  0  0  0  0  0  0  0
   17.6486   73.2148   -5.1624 N   0  0  0  0  0  0  0  0  0  0  0  0
   16.9913   75.0441   -6.5291 N   0  0  0  0  0  0  0  0  0  0  0  0
   16.6010   73.9013   -5.8196 C   0  0  0  0  0  0  0  0  0  0  0  0
   18.9542   73.6856   -5.2484 C   0  0  0  0  0  0  0  0  0  0  0  0
   19.3101   74.7764   -5.9302 C   0  0  0  0  0  0  0  0  0  0  0  0
   18.2758   75.5514   -6.6455 C   0  0  0  0  0  0  0  0  0  0  0  0
   16.2784   75.5383   -6.9953 H   0  0  0  0  0  0  0  0  0  0  0  0
   22.8942   70.0898   -1.2485 O   0  0  0  0  0  0  0  0  0  0  0  0
   22.2751   69.8840    0.2305 P   0  0  2  0  0  0  0  0  0  0  0  0
   23.2271   68.7463    0.8762 O   0  0  0  0  0  0  0  0  0  0  0  0
   20.8120   69.5480    0.2439 O   0  0  0  0  0  0  0  0  0  0  0  0
   22.6583   71.2354    1.0254 O   0  0  0  0  0  0  0  0  0  0  0  0
   22.4684   71.3027    3.3867 O   0  0  0  0  0  0  0  0  0  0  0  0
   22.3537   75.3547    2.5999 O   0  0  0  0  0  0  0  0  0  0  0  0
   24.7017   74.2075    3.7911 O   0  0  0  0  0  0  0  0  0  0  0  0
   21.0141   73.5007    0.8257 O   0  0  0  0  0  0  0  0  0  0  0  0
   22.7665   73.9999    2.4008 C   0  0  1  0  0  0  0  0  0  0  0  0
   23.4602   73.5177    3.6764 C   0  0  1  0  0  0  0  0  0  0  0  0
   21.5383   73.1430    2.0999 C   0  0  2  0  0  0  0  0  0  0  0  0
   23.6929   72.0012    3.6409 C   0  0  1  0  0  0  0  0  0  0  0  0
   21.8686   71.6498    2.1371 C   0  0  1  0  0  0  0  0  0  0  0  0
   23.1289   75.9043    2.7909 H   0  0  0  0  0  0  0  0  0  0  0  0
   24.5407   75.1640    3.8119 H   0  0  0  0  0  0  0  0  0  0  0  0
   20.8087   74.4481    0.8151 H   0  0  0  0  0  0  0  0  0  0  0  0
   25.5688   71.9379    5.1194 O   0  0  0  0  0  0  0  0  0  0  0  0
   24.2395   71.4753    4.9663 C   0  0  0  0  0  0  0  0  0  0  0  0
   25.9295   71.6111    5.9589 H   0  0  0  0  0  0  0  0  0  0  0  0
 25 28  1  0
 25 24  1  0
 25 26  1  1
 25 27  2  0
  1  4  1  0
  1 24  1  0
  1  2  1  1
  1  3  2  0
  6 11  1  0
  6 12  1  0
 29 36  1  0
 29 37  1  0
  9  7  1  1
  7 13  1  0
 10  8  1  1
  8 14  1  0
 37 28  1  6
  4  5  1  0
 33 30  1  1
 30 38  1  0
 34 31  1  6
 31 39  1  0
 35 32  1  6
 32 40  1  0
 41 42  1  0
 41 43  1  0
 15 19  2  0
 16 22  2  0
 12 17  1  6
 17 19  1  0
 17 20  1  0
 18 19  1  0
 18 22  1  0
 18 23  1  0
  9 10  1  0
  9 11  1  0
 10 12  1  0
 11  5  1  6
 33 34  1  0
 33 35  1  0
 34 36  1  0
 35 37  1  0
 36 42  1  1
 20 21  2  0
 21 22  1  0
M  CHG  2   2  -1  26  -1
M  END
>  <COMPND>  (179) 
    8629 

>  <AUTHOR>  (179) 
    GENERATED BY OPEN BABEL 3.1.1

>  <MASTER>  (179) 
        0    0    0    0    0    0    0    0   58    0   58    0

>  <minimizedAffinity>  (179) 
-7.09216

>  <CNNscore>  (179) 
0.2779879272

>  <CNNaffinity>  (179) 
4.1236357689

>  <CNN_VS>  (179) 
1.1463209391

>  <CNNaffinity_variance>  (179) 
0.0019823671

$$$$
180
     RDKit          3D

 43 45  0  0  0  0  0  0  0  0999 V2000
   16.9884   73.1101   -0.0586 P   0  0  2  0  0  0  0  0  0  0  0  0
   15.9271   74.3298   -0.0011 O   0  0  0  0  0  0  0  0  0  0  0  0
   16.7389   72.0060    0.9263 O   0  0  0  0  0  0  0  0  0  0  0  0
   18.4272   73.8415    0.0553 O   0  0  0  0  0  0  0  0  0  0  0  0
   19.4720   73.1749    0.7422 C   0  0  0  0  0  0  0  0  0  0  0  0
   21.7029   72.4999    0.1578 O   0  0  0  0  0  0  0  0  0  0  0  0
   20.4179   70.4490   -1.6123 O   0  0  0  0  0  0  0  0  0  0  0  0
   21.1308   68.9840    0.5745 O   0  0  0  0  0  0  0  0  0  0  0  0
   19.9968   70.9317   -0.3375 C   0  0  1  0  0  0  0  0  0  0  0  0
   20.8748   70.3617    0.7568 C   0  0  2  0  0  0  0  0  0  0  0  0
   20.3247   72.4179   -0.2668 C   0  0  1  0  0  0  0  0  0  0  0  0
   22.1281   71.2110    0.6296 C   0  0  2  0  0  0  0  0  0  0  0  0
   20.2185   69.5016   -1.6811 H   0  0  0  0  0  0  0  0  0  0  0  0
   20.3031   68.4865    0.6649 H   0  0  0  0  0  0  0  0  0  0  0  0
   23.6947   69.2132    1.8676 O   0  0  0  0  0  0  0  0  0  0  0  0
   24.6904   71.9498    5.4399 O   0  0  0  0  0  0  0  0  0  0  0  0
   22.8084   71.3745    1.8834 N   0  0  0  0  0  0  0  0  0  0  0  0
   24.1894   70.5775    3.6452 N   0  0  0  0  0  0  0  0  0  0  0  0
   23.5684   70.3086    2.4188 C   0  0  0  0  0  0  0  0  0  0  0  0
   22.7186   72.5815    2.5683 C   0  0  0  0  0  0  0  0  0  0  0  0
   23.3157   72.8214    3.7375 C   0  0  0  0  0  0  0  0  0  0  0  0
   24.1290   71.7601    4.3653 C   0  0  0  0  0  0  0  0  0  0  0  0
   24.7239   69.8494    4.0375 H   0  0  0  0  0  0  0  0  0  0  0  0
   16.9344   72.6540   -1.6084 O   0  0  0  0  0  0  0  0  0  0  0  0
   16.3958   71.2941   -2.2966 P   0  0  2  0  0  0  0  0  0  0  0  0
   14.9239   71.1092   -1.6509 O   0  0  0  0  0  0  0  0  0  0  0  0
   17.3038   70.1121   -2.1170 O   0  0  0  0  0  0  0  0  0  0  0  0
   16.1184   71.6968   -3.8348 O   0  0  0  0  0  0  0  0  0  0  0  0
   18.2230   72.2324   -4.7836 O   0  0  0  0  0  0  0  0  0  0  0  0
   15.8117   73.0134   -8.0434 O   0  0  0  0  0  0  0  0  0  0  0  0
   17.4907   70.6834   -8.0476 O   0  0  0  0  0  0  0  0  0  0  0  0
   14.9079   73.7017   -5.3809 O   0  0  0  0  0  0  0  0  0  0  0  0
   16.2177   72.3226   -6.8588 C   0  0  1  0  0  0  0  0  0  0  0  0
   17.6115   71.7388   -7.0979 C   0  0  1  0  0  0  0  0  0  0  0  0
   16.2400   73.3062   -5.6903 C   0  0  2  0  0  0  0  0  0  0  0  0
   18.2243   71.2151   -5.7920 C   0  0  1  0  0  0  0  0  0  0  0  0
   16.9139   72.7027   -4.4567 C   0  0  1  0  0  0  0  0  0  0  0  0
   15.7950   72.3944   -8.7891 H   0  0  0  0  0  0  0  0  0  0  0  0
   17.1021   71.0273   -8.8673 H   0  0  0  0  0  0  0  0  0  0  0  0
   14.4923   74.0824   -6.1697 H   0  0  0  0  0  0  0  0  0  0  0  0
   20.2371   70.5310   -4.7013 O   0  0  0  0  0  0  0  0  0  0  0  0
   19.6741   70.7728   -5.9776 C   0  0  0  0  0  0  0  0  0  0  0  0
   21.1597   70.2484   -4.8039 H   0  0  0  0  0  0  0  0  0  0  0  0
 25 28  1  0
 25 24  1  0
 25 26  1  1
 25 27  2  0
  1  4  1  0
  1 24  1  0
  1  2  1  6
  1  3  2  0
  6 11  1  0
  6 12  1  0
 29 36  1  0
 29 37  1  0
  9  7  1  6
  7 13  1  0
 10  8  1  6
  8 14  1  0
 37 28  1  6
  4  5  1  0
 33 30  1  6
 30 38  1  0
 34 31  1  6
 31 39  1  0
 35 32  1  1
 32 40  1  0
 41 42  1  0
 41 43  1  0
 15 19  2  0
 16 22  2  0
 12 17  1  1
 17 19  1  0
 17 20  1  0
 18 19  1  0
 18 22  1  0
 18 23  1  0
  9 10  1  0
  9 11  1  0
 10 12  1  0
 11  5  1  1
 33 34  1  0
 33 35  1  0
 34 36  1  0
 35 37  1  0
 36 42  1  6
 20 21  2  0
 21 22  1  0
M  CHG  2   2  -1  26  -1
M  END
>  <COMPND>  (180) 
    8629 

>  <AUTHOR>  (180) 
    GENERATED BY OPEN BABEL 3.1.1

>  <MASTER>  (180) 
        0    0    0    0    0    0    0    0   58    0   58    0

>  <minimizedAffinity>  (180) 
-7.33047

>  <CNNscore>  (180) 
0.2606230080

>  <CNNaffinity>  (180) 
3.9117894173

>  <CNN_VS>  (180) 
1.0195022821

>  <CNNaffinity_variance>  (180) 
0.1905776262

$$$$
181
     RDKit          3D

 43 45  0  0  0  0  0  0  0  0999 V2000
   22.6737   71.7002   -2.8718 P   0  0  2  0  0  0  0  0  0  0  0  0
   23.0586   70.1289   -2.8857 O   0  0  0  0  0  0  0  0  0  0  0  0
   22.9733   72.4148   -1.5869 O   0  0  0  0  0  0  0  0  0  0  0  0
   21.1269   71.7255   -3.3457 O   0  0  0  0  0  0  0  0  0  0  0  0
   20.2789   70.6641   -2.9429 C   0  0  0  0  0  0  0  0  0  0  0  0
   18.5464   71.8089   -4.1518 O   0  0  0  0  0  0  0  0  0  0  0  0
   16.6357   70.6161   -2.1726 O   0  0  0  0  0  0  0  0  0  0  0  0
   16.3298   68.9960   -4.3447 O   0  0  0  0  0  0  0  0  0  0  0  0
   17.8179   70.0522   -2.7380 C   0  0  1  0  0  0  0  0  0  0  0  0
   17.5718   69.6488   -4.1769 C   0  0  2  0  0  0  0  0  0  0  0  0
   18.8433   71.1685   -2.8916 C   0  0  1  0  0  0  0  0  0  0  0  0
   17.6305   70.9870   -4.8937 C   0  0  2  0  0  0  0  0  0  0  0  0
   15.9662   69.9219   -2.0646 H   0  0  0  0  0  0  0  0  0  0  0  0
   16.3423   68.1501   -3.8704 H   0  0  0  0  0  0  0  0  0  0  0  0
   16.0171   70.2331   -7.0860 O   0  0  0  0  0  0  0  0  0  0  0  0
   19.5495   70.5491  -10.0294 O   0  0  0  0  0  0  0  0  0  0  0  0
   18.1026   70.8647   -6.2441 N   0  0  0  0  0  0  0  0  0  0  0  0
   17.7772   70.3912   -8.5498 N   0  0  0  0  0  0  0  0  0  0  0  0
   17.2108   70.4786   -7.2718 C   0  0  0  0  0  0  0  0  0  0  0  0
   19.4363   71.1266   -6.5384 C   0  0  0  0  0  0  0  0  0  0  0  0
   19.9611   71.0374   -7.7623 C   0  0  0  0  0  0  0  0  0  0  0  0
   19.0968   70.6402   -8.8924 C   0  0  0  0  0  0  0  0  0  0  0  0
   17.1749   70.1236   -9.2815 H   0  0  0  0  0  0  0  0  0  0  0  0
   23.4583   72.2779   -4.1616 O   0  0  0  0  0  0  0  0  0  0  0  0
   23.3773   73.7148   -4.8977 P   0  0  2  0  0  0  0  0  0  0  0  0
   22.7595   74.6817   -3.7571 O   0  0  0  0  0  0  0  0  0  0  0  0
   22.6051   73.7040   -6.1852 O   0  0  0  0  0  0  0  0  0  0  0  0
   24.9139   74.1864   -5.0434 O   0  0  0  0  0  0  0  0  0  0  0  0
   26.4943   75.5844   -3.9642 O   0  0  0  0  0  0  0  0  0  0  0  0
   26.7402   77.1358   -7.7831 O   0  0  0  0  0  0  0  0  0  0  0  0
   28.8987   75.5426   -6.7582 O   0  0  0  0  0  0  0  0  0  0  0  0
   24.1764   76.3109   -6.7219 O   0  0  0  0  0  0  0  0  0  0  0  0
   26.5751   76.1080   -6.8024 C   0  0  1  0  0  0  0  0  0  0  0  0
   27.8431   76.0522   -5.9481 C   0  0  1  0  0  0  0  0  0  0  0  0
   25.3584   76.4336   -5.9381 C   0  0  2  0  0  0  0  0  0  0  0  0
   27.6404   75.1637   -4.7133 C   0  0  1  0  0  0  0  0  0  0  0  0
   25.2775   75.5238   -4.7109 C   0  0  1  0  0  0  0  0  0  0  0  0
   27.5109   76.9349   -8.3355 H   0  0  0  0  0  0  0  0  0  0  0  0
   29.0160   76.1123   -7.5346 H   0  0  0  0  0  0  0  0  0  0  0  0
   24.2398   76.8919   -7.4954 H   0  0  0  0  0  0  0  0  0  0  0  0
   29.7414   74.1901   -4.1243 O   0  0  0  0  0  0  0  0  0  0  0  0
   28.8372   75.2189   -3.7663 C   0  0  0  0  0  0  0  0  0  0  0  0
   30.5083   74.2133   -3.5301 H   0  0  0  0  0  0  0  0  0  0  0  0
 25 28  1  0
 25 24  1  0
 25 26  1  1
 25 27  2  0
  1  4  1  0
  1 24  1  0
  1  2  1  1
  1  3  2  0
  6 11  1  0
  6 12  1  0
 29 36  1  0
 29 37  1  0
  9  7  1  6
  7 13  1  0
 10  8  1  1
  8 14  1  0
 37 28  1  6
  4  5  1  0
 33 30  1  6
 30 38  1  0
 34 31  1  6
 31 39  1  0
 35 32  1  6
 32 40  1  0
 41 42  1  0
 41 43  1  0
 15 19  2  0
 16 22  2  0
 12 17  1  6
 17 19  1  0
 17 20  1  0
 18 19  1  0
 18 22  1  0
 18 23  1  0
  9 10  1  0
  9 11  1  0
 10 12  1  0
 11  5  1  6
 33 34  1  0
 33 35  1  0
 34 36  1  0
 35 37  1  0
 36 42  1  1
 20 21  2  0
 21 22  1  0
M  CHG  2   2  -1  26  -1
M  END
>  <COMPND>  (181) 
    8629 

>  <AUTHOR>  (181) 
    GENERATED BY OPEN BABEL 3.1.1

>  <MASTER>  (181) 
        0    0    0    0    0    0    0    0   58    0   58    0

>  <minimizedAffinity>  (181) 
-6.95147

>  <CNNscore>  (181) 
0.9312891960

>  <CNNaffinity>  (181) 
4.6559581757

>  <CNN_VS>  (181) 
4.3360433578

>  <CNNaffinity_variance>  (181) 
0.1557050049

$$$$
182
     RDKit          3D

 43 45  0  0  0  0  0  0  0  0999 V2000
   22.3838   70.5862   -1.2883 P   0  0  2  0  0  0  0  0  0  0  0  0
   23.2791   70.4492   -2.6288 O   0  0  0  0  0  0  0  0  0  0  0  0
   22.8175   69.7168   -0.1449 O   0  0  0  0  0  0  0  0  0  0  0  0
   20.8686   70.3592   -1.8083 O   0  0  0  0  0  0  0  0  0  0  0  0
   20.4076   71.1290   -2.9049 C   0  0  0  0  0  0  0  0  0  0  0  0
   18.4109   71.8554   -4.0272 O   0  0  0  0  0  0  0  0  0  0  0  0
   16.9028   70.3278   -1.9337 O   0  0  0  0  0  0  0  0  0  0  0  0
   16.8354   68.6338   -4.0697 O   0  0  0  0  0  0  0  0  0  0  0  0
   18.1468   70.0148   -2.5582 C   0  0  1  0  0  0  0  0  0  0  0  0
   17.9174   69.5380   -3.9772 C   0  0  2  0  0  0  0  0  0  0  0  0
   18.9022   71.3193   -2.7792 C   0  0  1  0  0  0  0  0  0  0  0  0
   17.6532   70.8428   -4.7092 C   0  0  2  0  0  0  0  0  0  0  0  0
   16.4026   69.5100   -1.7821 H   0  0  0  0  0  0  0  0  0  0  0  0
   17.0520   67.8199   -3.5886 H   0  0  0  0  0  0  0  0  0  0  0  0
   15.9962   70.0418   -6.8518 O   0  0  0  0  0  0  0  0  0  0  0  0
   19.3579   70.6949   -9.9362 O   0  0  0  0  0  0  0  0  0  0  0  0
   18.0695   70.7944   -6.0824 N   0  0  0  0  0  0  0  0  0  0  0  0
   17.6714   70.3678   -8.3859 N   0  0  0  0  0  0  0  0  0  0  0  0
   17.1600   70.3768   -7.0819 C   0  0  0  0  0  0  0  0  0  0  0  0
   19.3667   71.1589   -6.4265 C   0  0  0  0  0  0  0  0  0  0  0  0
   19.8392   71.1436   -7.6746 C   0  0  0  0  0  0  0  0  0  0  0  0
   18.9532   70.7198   -8.7780 C   0  0  0  0  0  0  0  0  0  0  0  0
   17.0558   70.0800   -9.0987 H   0  0  0  0  0  0  0  0  0  0  0  0
   22.4288   72.1727   -0.9817 O   0  0  0  0  0  0  0  0  0  0  0  0
   21.7902   73.0395    0.2241 P   0  0  2  0  0  0  0  0  0  0  0  0
   20.3559   72.3326    0.4700 O   0  0  0  0  0  0  0  0  0  0  0  0
   21.7153   74.5136   -0.0503 O   0  0  0  0  0  0  0  0  0  0  0  0
   22.6670   72.6441    1.5202 O   0  0  0  0  0  0  0  0  0  0  0  0
   22.6085   70.7285    2.9144 O   0  0  0  0  0  0  0  0  0  0  0  0
   23.3394   73.6090    5.7813 O   0  0  0  0  0  0  0  0  0  0  0  0
   25.4359   71.7983    5.0239 O   0  0  0  0  0  0  0  0  0  0  0  0
   21.5464   74.1827    3.5822 O   0  0  0  0  0  0  0  0  0  0  0  0
   23.4382   73.0006    4.4908 C   0  0  1  0  0  0  0  0  0  0  0  0
   24.0703   71.6176    4.6597 C   0  0  1  0  0  0  0  0  0  0  0  0
   22.0403   72.8826    3.8862 C   0  0  2  0  0  0  0  0  0  0  0  0
   23.9661   70.7991    3.3658 C   0  0  1  0  0  0  0  0  0  0  0  0
   22.0398   72.0083    2.6309 C   0  0  1  0  0  0  0  0  0  0  0  0
   24.2236   73.6873    6.1705 H   0  0  0  0  0  0  0  0  0  0  0  0
   25.4878   72.3170    5.8421 H   0  0  0  0  0  0  0  0  0  0  0  0
   21.5515   74.7262    4.3850 H   0  0  0  0  0  0  0  0  0  0  0  0
   25.8590   69.3433    3.4469 O   0  0  0  0  0  0  0  0  0  0  0  0
   24.4477   69.3626    3.5574 C   0  0  0  0  0  0  0  0  0  0  0  0
   26.1797   68.4353    3.5671 H   0  0  0  0  0  0  0  0  0  0  0  0
 25 28  1  0
 25 24  1  0
 25 26  1  1
 25 27  2  0
  1  4  1  0
  1 24  1  0
  1  2  1  6
  1  3  2  0
  6 11  1  0
  6 12  1  0
 29 36  1  0
 29 37  1  0
  9  7  1  6
  7 13  1  0
 10  8  1  1
  8 14  1  0
 37 28  1  6
  4  5  1  0
 33 30  1  1
 30 38  1  0
 34 31  1  6
 31 39  1  0
 35 32  1  6
 32 40  1  0
 41 42  1  0
 41 43  1  0
 15 19  2  0
 16 22  2  0
 12 17  1  6
 17 19  1  0
 17 20  1  0
 18 19  1  0
 18 22  1  0
 18 23  1  0
  9 10  1  0
  9 11  1  0
 10 12  1  0
 11  5  1  6
 33 34  1  0
 33 35  1  0
 34 36  1  0
 35 37  1  0
 36 42  1  1
 20 21  2  0
 21 22  1  0
M  CHG  2   2  -1  26  -1
M  END
>  <COMPND>  (182) 
    8629 

>  <AUTHOR>  (182) 
    GENERATED BY OPEN BABEL 3.1.1

>  <MASTER>  (182) 
        0    0    0    0    0    0    0    0   58    0   58    0

>  <minimizedAffinity>  (182) 
-7.91267

>  <CNNscore>  (182) 
0.8443302512

>  <CNNaffinity>  (182) 
4.8159484863

>  <CNN_VS>  (182) 
4.0662508011

>  <CNNaffinity_variance>  (182) 
0.1156207323

$$$$
183
     RDKit          3D

 43 45  0  0  0  0  0  0  0  0999 V2000
   21.9497   71.1699   -1.8655 P   0  0  2  0  0  0  0  0  0  0  0  0
   22.8939   72.3496   -2.4438 O   0  0  0  0  0  0  0  0  0  0  0  0
   22.6285   69.8433   -1.6904 O   0  0  0  0  0  0  0  0  0  0  0  0
   20.6683   71.1786   -2.8533 O   0  0  0  0  0  0  0  0  0  0  0  0
   19.8032   72.3005   -2.8287 C   0  0  0  0  0  0  0  0  0  0  0  0
   17.7260   71.9599   -3.9875 O   0  0  0  0  0  0  0  0  0  0  0  0
   16.9858   70.1246   -1.7348 O   0  0  0  0  0  0  0  0  0  0  0  0
   17.7385   68.3853   -3.6956 O   0  0  0  0  0  0  0  0  0  0  0  0
   18.2582   70.3381   -2.3436 C   0  0  1  0  0  0  0  0  0  0  0  0
   18.3062   69.6793   -3.7065 C   0  0  2  0  0  0  0  0  0  0  0  0
   18.3657   71.8154   -2.7005 C   0  0  1  0  0  0  0  0  0  0  0  0
   17.5147   70.6578   -4.5575 C   0  0  2  0  0  0  0  0  0  0  0  0
   16.8941   69.1880   -1.4977 H   0  0  0  0  0  0  0  0  0  0  0  0
   18.2778   67.8001   -3.1411 H   0  0  0  0  0  0  0  0  0  0  0  0
   15.8779   69.9917   -6.7608 O   0  0  0  0  0  0  0  0  0  0  0  0
   19.2952   70.7431   -9.7606 O   0  0  0  0  0  0  0  0  0  0  0  0
   17.9508   70.6713   -5.9253 N   0  0  0  0  0  0  0  0  0  0  0  0
   17.5807   70.3666   -8.2527 N   0  0  0  0  0  0  0  0  0  0  0  0
   17.0501   70.3188   -6.9573 C   0  0  0  0  0  0  0  0  0  0  0  0
   19.2585   71.0314   -6.2323 C   0  0  0  0  0  0  0  0  0  0  0  0
   19.7493   71.0707   -7.4727 C   0  0  0  0  0  0  0  0  0  0  0  0
   18.8736   70.7168   -8.6084 C   0  0  0  0  0  0  0  0  0  0  0  0
   16.9716   70.1247   -8.9877 H   0  0  0  0  0  0  0  0  0  0  0  0
   21.3620   71.8100   -0.5024 O   0  0  0  0  0  0  0  0  0  0  0  0
   20.5736   71.1317    0.7350 P   0  0  2  0  0  0  0  0  0  0  0  0
   20.4941   69.5716    0.3140 O   0  0  0  0  0  0  0  0  0  0  0  0
   19.2440   71.7604    1.0363 O   0  0  0  0  0  0  0  0  0  0  0  0
   21.6246   71.1704    1.9594 O   0  0  0  0  0  0  0  0  0  0  0  0
   23.4737   72.5694    2.4495 O   0  0  0  0  0  0  0  0  0  0  0  0
   25.0705   68.9386    3.5978 O   0  0  0  0  0  0  0  0  0  0  0  0
   24.3263   70.8574    5.6009 O   0  0  0  0  0  0  0  0  0  0  0  0
   23.3774   69.0952    1.2551 O   0  0  0  0  0  0  0  0  0  0  0  0
   24.0357   69.9103    3.4239 C   0  0  1  0  0  0  0  0  0  0  0  0
   24.4179   71.1644    4.2125 C   0  0  1  0  0  0  0  0  0  0  0  0
   23.8974   70.2315    1.9369 C   0  0  2  0  0  0  0  0  0  0  0  0
   23.4962   72.3407    3.8633 C   0  0  1  0  0  0  0  0  0  0  0  0
   22.9989   71.4473    1.7029 C   0  0  1  0  0  0  0  0  0  0  0  0
   25.1631   68.7298    4.5398 H   0  0  0  0  0  0  0  0  0  0  0  0
   24.9127   70.1128    5.8080 H   0  0  0  0  0  0  0  0  0  0  0  0
   23.9552   68.3325    1.4108 H   0  0  0  0  0  0  0  0  0  0  0  0
   23.3663   73.7308    5.8023 O   0  0  0  0  0  0  0  0  0  0  0  0
   23.9559   73.6414    4.5183 C   0  0  0  0  0  0  0  0  0  0  0  0
   23.6502   74.5537    6.2312 H   0  0  0  0  0  0  0  0  0  0  0  0
 25 28  1  0
 25 24  1  0
 25 26  1  6
 25 27  2  0
  1  4  1  0
  1 24  1  0
  1  2  1  6
  1  3  2  0
  6 11  1  0
  6 12  1  0
 29 36  1  0
 29 37  1  0
  9  7  1  6
  7 13  1  0
 10  8  1  1
  8 14  1  0
 37 28  1  1
  4  5  1  0
 33 30  1  6
 30 38  1  0
 34 31  1  1
 31 39  1  0
 35 32  1  6
 32 40  1  0
 41 42  1  0
 41 43  1  0
 15 19  2  0
 16 22  2  0
 12 17  1  6
 17 19  1  0
 17 20  1  0
 18 19  1  0
 18 22  1  0
 18 23  1  0
  9 10  1  0
  9 11  1  0
 10 12  1  0
 11  5  1  6
 33 34  1  0
 33 35  1  0
 34 36  1  0
 35 37  1  0
 36 42  1  1
 20 21  2  0
 21 22  1  0
M  CHG  2   2  -1  26  -1
M  END
>  <COMPND>  (183) 
    8629 

>  <AUTHOR>  (183) 
    GENERATED BY OPEN BABEL 3.1.1

>  <MASTER>  (183) 
        0    0    0    0    0    0    0    0   58    0   58    0

>  <minimizedAffinity>  (183) 
-8.23153

>  <CNNscore>  (183) 
0.7829594016

>  <CNNaffinity>  (183) 
4.6653528214

>  <CNN_VS>  (183) 
3.6527819633

>  <CNNaffinity_variance>  (183) 
0.0385058858

$$$$
184
     RDKit          3D

 43 45  0  0  0  0  0  0  0  0999 V2000
   22.9962   69.4679   -2.2227 P   0  0  2  0  0  0  0  0  0  0  0  0
   23.9226   70.3204   -3.2389 O   0  0  0  0  0  0  0  0  0  0  0  0
   23.2937   67.9980   -2.1756 O   0  0  0  0  0  0  0  0  0  0  0  0
   21.4864   69.8660   -2.6468 O   0  0  0  0  0  0  0  0  0  0  0  0
   21.3016   70.8996   -3.5983 C   0  0  0  0  0  0  0  0  0  0  0  0
   19.4981   72.1007   -4.6369 O   0  0  0  0  0  0  0  0  0  0  0  0
   17.8276   71.2395   -2.3006 O   0  0  0  0  0  0  0  0  0  0  0  0
   17.0664   69.4928   -4.2515 O   0  0  0  0  0  0  0  0  0  0  0  0
   18.8613   70.5297   -2.9809 C   0  0  1  0  0  0  0  0  0  0  0  0
   18.3663   70.0417   -4.3265 C   0  0  2  0  0  0  0  0  0  0  0  0
   19.9345   71.5340   -3.3820 C   0  0  1  0  0  0  0  0  0  0  0  0
   18.4180   71.3106   -5.1603 C   0  0  2  0  0  0  0  0  0  0  0  0
   17.1306   70.6188   -2.0343 H   0  0  0  0  0  0  0  0  0  0  0  0
   17.0858   68.6878   -3.7109 H   0  0  0  0  0  0  0  0  0  0  0  0
   16.4239   70.5955   -7.0286 O   0  0  0  0  0  0  0  0  0  0  0  0
   19.4852   70.3083  -10.4618 O   0  0  0  0  0  0  0  0  0  0  0  0
   18.6659   71.0436   -6.5491 N   0  0  0  0  0  0  0  0  0  0  0  0
   17.9498   70.4533   -8.7366 N   0  0  0  0  0  0  0  0  0  0  0  0
   17.5946   70.6913   -7.4027 C   0  0  0  0  0  0  0  0  0  0  0  0
   19.9595   71.1325   -7.0517 C   0  0  0  0  0  0  0  0  0  0  0  0
   20.2817   70.9011   -8.3260 C   0  0  0  0  0  0  0  0  0  0  0  0
   19.2210   70.5275   -9.2837 C   0  0  0  0  0  0  0  0  0  0  0  0
   17.2199   70.2059   -9.3496 H   0  0  0  0  0  0  0  0  0  0  0  0
   23.1940   70.2398   -0.8163 O   0  0  0  0  0  0  0  0  0  0  0  0
   22.4989   70.0138    0.6255 P   0  0  2  0  0  0  0  0  0  0  0  0
   23.6027   69.1552    1.4391 O   0  0  0  0  0  0  0  0  0  0  0  0
   21.1418   69.3750    0.5610 O   0  0  0  0  0  0  0  0  0  0  0  0
   22.5204   71.4696    1.3220 O   0  0  0  0  0  0  0  0  0  0  0  0
   22.6535   71.2124    3.6742 O   0  0  0  0  0  0  0  0  0  0  0  0
   22.1494   75.3064    3.4857 O   0  0  0  0  0  0  0  0  0  0  0  0
   24.7133   74.2247    4.1958 O   0  0  0  0  0  0  0  0  0  0  0  0
   20.7105   73.5885    1.6532 O   0  0  0  0  0  0  0  0  0  0  0  0
   22.6242   74.0306    3.0474 C   0  0  1  0  0  0  0  0  0  0  0  0
   23.5190   73.4493    4.1439 C   0  0  1  0  0  0  0  0  0  0  0  0
   21.4290   73.1155    2.7875 C   0  0  2  0  0  0  0  0  0  0  0  0
   23.8496   71.9767    3.8664 C   0  0  1  0  0  0  0  0  0  0  0  0
   21.8645   71.6650    2.5722 C   0  0  1  0  0  0  0  0  0  0  0  0
   22.9033   75.8924    3.6520 H   0  0  0  0  0  0  0  0  0  0  0  0
   24.4905   75.1525    4.3711 H   0  0  0  0  0  0  0  0  0  0  0  0
   20.4402   74.5076    1.8020 H   0  0  0  0  0  0  0  0  0  0  0  0
   25.7635   72.1079    5.2907 O   0  0  0  0  0  0  0  0  0  0  0  0
   24.6090   71.3330    5.0244 C   0  0  0  0  0  0  0  0  0  0  0  0
   26.2566   71.7102    6.0258 H   0  0  0  0  0  0  0  0  0  0  0  0
 25 28  1  0
 25 24  1  0
 25 26  1  1
 25 27  2  0
  1  4  1  0
  1 24  1  0
  1  2  1  6
  1  3  2  0
  6 11  1  0
  6 12  1  0
 29 36  1  0
 29 37  1  0
  9  7  1  6
  7 13  1  0
 10  8  1  1
  8 14  1  0
 37 28  1  6
  4  5  1  0
 33 30  1  1
 30 38  1  0
 34 31  1  6
 31 39  1  0
 35 32  1  6
 32 40  1  0
 41 42  1  0
 41 43  1  0
 15 19  2  0
 16 22  2  0
 12 17  1  6
 17 19  1  0
 17 20  1  0
 18 19  1  0
 18 22  1  0
 18 23  1  0
  9 10  1  0
  9 11  1  0
 10 12  1  0
 11  5  1  6
 33 34  1  0
 33 35  1  0
 34 36  1  0
 35 37  1  0
 36 42  1  1
 20 21  2  0
 21 22  1  0
M  CHG  2   2  -1  26  -1
M  END
>  <COMPND>  (184) 
    8629 

>  <AUTHOR>  (184) 
    GENERATED BY OPEN BABEL 3.1.1

>  <MASTER>  (184) 
        0    0    0    0    0    0    0    0   58    0   58    0

>  <minimizedAffinity>  (184) 
-8.67155

>  <CNNscore>  (184) 
0.6653473377

>  <CNNaffinity>  (184) 
4.6074528694

>  <CNN_VS>  (184) 
3.0655565262

>  <CNNaffinity_variance>  (184) 
0.0271020979

$$$$
185
     RDKit          3D

 43 45  0  0  0  0  0  0  0  0999 V2000
   21.9307   71.1699   -1.8354 P   0  0  2  0  0  0  0  0  0  0  0  0
   22.7382   72.4604   -2.3830 O   0  0  0  0  0  0  0  0  0  0  0  0
   21.9273   69.9862   -2.7575 O   0  0  0  0  0  0  0  0  0  0  0  0
   20.4758   71.7595   -1.4437 O   0  0  0  0  0  0  0  0  0  0  0  0
   19.6821   72.3358   -2.4663 C   0  0  0  0  0  0  0  0  0  0  0  0
   17.6355   71.9250   -3.6564 O   0  0  0  0  0  0  0  0  0  0  0  0
   16.9516   70.0182   -1.4457 O   0  0  0  0  0  0  0  0  0  0  0  0
   17.8032   68.3497   -3.4274 O   0  0  0  0  0  0  0  0  0  0  0  0
   18.2202   70.2987   -2.0350 C   0  0  1  0  0  0  0  0  0  0  0  0
   18.3131   69.6675   -3.4085 C   0  0  2  0  0  0  0  0  0  0  0  0
   18.2662   71.7855   -2.3645 C   0  0  1  0  0  0  0  0  0  0  0  0
   17.4889   70.6254   -4.2518 C   0  0  2  0  0  0  0  0  0  0  0  0
   16.8988   69.0743   -1.2262 H   0  0  0  0  0  0  0  0  0  0  0  0
   18.3615   67.7789   -2.8767 H   0  0  0  0  0  0  0  0  0  0  0  0
   15.9061   69.9351   -6.4871 O   0  0  0  0  0  0  0  0  0  0  0  0
   19.3237   70.8832   -9.4302 O   0  0  0  0  0  0  0  0  0  0  0  0
   17.9396   70.6829   -5.6138 N   0  0  0  0  0  0  0  0  0  0  0  0
   17.6091   70.4079   -7.9507 N   0  0  0  0  0  0  0  0  0  0  0  0
   17.0660   70.3136   -6.6630 C   0  0  0  0  0  0  0  0  0  0  0  0
   19.2348   71.1021   -5.8979 C   0  0  0  0  0  0  0  0  0  0  0  0
   19.7378   71.1852   -7.1313 C   0  0  0  0  0  0  0  0  0  0  0  0
   18.8904   70.8176   -8.2841 C   0  0  0  0  0  0  0  0  0  0  0  0
   17.0189   70.1554   -8.6975 H   0  0  0  0  0  0  0  0  0  0  0  0
   22.6126   70.8987   -0.3951 O   0  0  0  0  0  0  0  0  0  0  0  0
   22.1934   69.9031    0.8074 P   0  0  2  0  0  0  0  0  0  0  0  0
   23.4596   68.9021    0.9188 O   0  0  0  0  0  0  0  0  0  0  0  0
   20.8752   69.2139    0.6043 O   0  0  0  0  0  0  0  0  0  0  0  0
   22.2745   70.8128    2.1381 O   0  0  0  0  0  0  0  0  0  0  0  0
   21.5349   73.0209    1.6981 O   0  0  0  0  0  0  0  0  0  0  0  0
   23.0022   73.5657    5.5192 O   0  0  0  0  0  0  0  0  0  0  0  0
   20.1645   73.5640    5.0768 O   0  0  0  0  0  0  0  0  0  0  0  0
   24.3949   71.8256    3.6721 O   0  0  0  0  0  0  0  0  0  0  0  0
   22.3622   72.8504    4.4589 C   0  0  1  0  0  0  0  0  0  0  0  0
   21.1247   73.6394    4.0268 C   0  0  1  0  0  0  0  0  0  0  0  0
   23.3400   72.7036    3.2945 C   0  0  2  0  0  0  0  0  0  0  0  0
   20.5374   73.0791    2.7244 C   0  0  1  0  0  0  0  0  0  0  0  0
   22.6441   72.1854    2.0346 C   0  0  1  0  0  0  0  0  0  0  0  0
   22.3869   73.6619    6.2619 H   0  0  0  0  0  0  0  0  0  0  0  0
   20.5481   73.9205    5.8935 H   0  0  0  0  0  0  0  0  0  0  0  0
   24.8276   72.1648    4.4706 H   0  0  0  0  0  0  0  0  0  0  0  0
   19.2374   73.6762    0.8107 O   0  0  0  0  0  0  0  0  0  0  0  0
   19.3987   73.9457    2.1911 C   0  0  0  0  0  0  0  0  0  0  0  0
   18.5157   74.2206    0.4577 H   0  0  0  0  0  0  0  0  0  0  0  0
 25 28  1  0
 25 24  1  0
 25 26  1  1
 25 27  2  0
  1  4  1  0
  1 24  1  0
  1  2  1  6
  1  3  2  0
  6 11  1  0
  6 12  1  0
 29 36  1  0
 29 37  1  0
  9  7  1  6
  7 13  1  0
 10  8  1  1
  8 14  1  0
 37 28  1  1
  4  5  1  0
 33 30  1  1
 30 38  1  0
 34 31  1  1
 31 39  1  0
 35 32  1  1
 32 40  1  0
 41 42  1  0
 41 43  1  0
 15 19  2  0
 16 22  2  0
 12 17  1  6
 17 19  1  0
 17 20  1  0
 18 19  1  0
 18 22  1  0
 18 23  1  0
  9 10  1  0
  9 11  1  0
 10 12  1  0
 11  5  1  6
 33 34  1  0
 33 35  1  0
 34 36  1  0
 35 37  1  0
 36 42  1  6
 20 21  2  0
 21 22  1  0
M  CHG  2   2  -1  26  -1
M  END
>  <COMPND>  (185) 
    8629 

>  <AUTHOR>  (185) 
    GENERATED BY OPEN BABEL 3.1.1

>  <MASTER>  (185) 
        0    0    0    0    0    0    0    0   58    0   58    0

>  <minimizedAffinity>  (185) 
-8.18169

>  <CNNscore>  (185) 
0.6613953114

>  <CNNaffinity>  (185) 
4.6326513290

>  <CNN_VS>  (185) 
3.0640139580

>  <CNNaffinity_variance>  (185) 
0.0119300000

$$$$
186
     RDKit          3D

 43 45  0  0  0  0  0  0  0  0999 V2000
   21.7339   73.5297   -2.1000 P   0  0  2  0  0  0  0  0  0  0  0  0
   21.9647   74.9809   -2.7768 O   0  0  0  0  0  0  0  0  0  0  0  0
   22.9749   72.7028   -1.9349 O   0  0  0  0  0  0  0  0  0  0  0  0
   20.5610   72.8657   -2.9953 O   0  0  0  0  0  0  0  0  0  0  0  0
   20.1544   71.5405   -2.7016 C   0  0  0  0  0  0  0  0  0  0  0  0
   18.1012   71.9181   -3.8915 O   0  0  0  0  0  0  0  0  0  0  0  0
   16.7917   70.2227   -1.7935 O   0  0  0  0  0  0  0  0  0  0  0  0
   17.0499   68.4892   -3.8827 O   0  0  0  0  0  0  0  0  0  0  0  0
   18.0864   70.0940   -2.3788 C   0  0  1  0  0  0  0  0  0  0  0  0
   17.9744   69.5538   -3.7892 C   0  0  2  0  0  0  0  0  0  0  0  0
   18.6348   71.4953   -2.6176 C   0  0  1  0  0  0  0  0  0  0  0  0
   17.5304   70.7833   -4.5633 C   0  0  2  0  0  0  0  0  0  0  0  0
   16.4212   69.3405   -1.6314 H   0  0  0  0  0  0  0  0  0  0  0  0
   17.3772   67.7309   -3.3741 H   0  0  0  0  0  0  0  0  0  0  0  0
   15.9415   70.0267   -6.7725 O   0  0  0  0  0  0  0  0  0  0  0  0
   19.3911   70.7633   -9.7389 O   0  0  0  0  0  0  0  0  0  0  0  0
   17.9878   70.7685   -5.9241 N   0  0  0  0  0  0  0  0  0  0  0  0
   17.6604   70.3942   -8.2478 N   0  0  0  0  0  0  0  0  0  0  0  0
   17.1103   70.3710   -6.9598 C   0  0  0  0  0  0  0  0  0  0  0  0
   19.2931   71.1455   -6.2207 C   0  0  0  0  0  0  0  0  0  0  0  0
   19.8027   71.1609   -7.4541 C   0  0  0  0  0  0  0  0  0  0  0  0
   18.9518   70.7598   -8.5931 C   0  0  0  0  0  0  0  0  0  0  0  0
   17.0676   70.1209   -8.9851 H   0  0  0  0  0  0  0  0  0  0  0  0
   20.9765   73.8895   -0.7180 O   0  0  0  0  0  0  0  0  0  0  0  0
   21.5475   74.4164    0.6994 P   0  0  2  0  0  0  0  0  0  0  0  0
   20.2181   74.5361    1.6137 O   0  0  0  0  0  0  0  0  0  0  0  0
   22.3516   75.6809    0.6072 O   0  0  0  0  0  0  0  0  0  0  0  0
   22.3502   73.1564    1.3103 O   0  0  0  0  0  0  0  0  0  0  0  0
   21.9990   70.8858    0.7294 O   0  0  0  0  0  0  0  0  0  0  0  0
   23.2803   70.3804    4.6222 O   0  0  0  0  0  0  0  0  0  0  0  0
   25.0178   69.6582    2.4525 O   0  0  0  0  0  0  0  0  0  0  0  0
   21.5592   72.6076    3.9462 O   0  0  0  0  0  0  0  0  0  0  0  0
   23.2425   70.9978    3.3327 C   0  0  1  0  0  0  0  0  0  0  0  0
   23.6329   69.9505    2.2880 C   0  0  1  0  0  0  0  0  0  0  0  0
   21.8308   71.5190    3.0700 C   0  0  2  0  0  0  0  0  0  0  0  0
   23.3591   70.4579    0.8657 C   0  0  1  0  0  0  0  0  0  0  0  0
   21.6506   71.9525    1.6141 C   0  0  1  0  0  0  0  0  0  0  0  0
   24.1741   70.0477    4.7954 H   0  0  0  0  0  0  0  0  0  0  0  0
   25.1772   69.3393    3.3547 H   0  0  0  0  0  0  0  0  0  0  0  0
   21.6764   72.3203    4.8647 H   0  0  0  0  0  0  0  0  0  0  0  0
   22.7613   68.2680    0.1200 O   0  0  0  0  0  0  0  0  0  0  0  0
   23.5928   69.3730   -0.1834 C   0  0  0  0  0  0  0  0  0  0  0  0
   22.8991   67.5698   -0.5397 H   0  0  0  0  0  0  0  0  0  0  0  0
 25 28  1  0
 25 24  1  0
 25 26  1  1
 25 27  2  0
  1  4  1  0
  1 24  1  0
  1  2  1  6
  1  3  2  0
  6 11  1  0
  6 12  1  0
 29 36  1  0
 29 37  1  0
  9  7  1  6
  7 13  1  0
 10  8  1  1
  8 14  1  0
 37 28  1  6
  4  5  1  0
 33 30  1  1
 30 38  1  0
 34 31  1  6
 31 39  1  0
 35 32  1  1
 32 40  1  0
 41 42  1  0
 41 43  1  0
 15 19  2  0
 16 22  2  0
 12 17  1  6
 17 19  1  0
 17 20  1  0
 18 19  1  0
 18 22  1  0
 18 23  1  0
  9 10  1  0
  9 11  1  0
 10 12  1  0
 11  5  1  6
 33 34  1  0
 33 35  1  0
 34 36  1  0
 35 37  1  0
 36 42  1  6
 20 21  2  0
 21 22  1  0
M  CHG  2   2  -1  26  -1
M  END
>  <COMPND>  (186) 
    8629 

>  <AUTHOR>  (186) 
    GENERATED BY OPEN BABEL 3.1.1

>  <MASTER>  (186) 
        0    0    0    0    0    0    0    0   58    0   58    0

>  <minimizedAffinity>  (186) 
-7.72900

>  <CNNscore>  (186) 
0.6544504762

>  <CNNaffinity>  (186) 
4.4923920631

>  <CNN_VS>  (186) 
2.9400482178

>  <CNNaffinity_variance>  (186) 
0.1507427394

$$$$
187
     RDKit          3D

 43 45  0  0  0  0  0  0  0  0999 V2000
   20.5519   73.2775   -1.9216 P   0  0  2  0  0  0  0  0  0  0  0  0
   20.2637   74.8354   -1.5943 O   0  0  0  0  0  0  0  0  0  0  0  0
   21.7676   73.0209   -2.7628 O   0  0  0  0  0  0  0  0  0  0  0  0
   19.1511   72.7427   -2.5296 O   0  0  0  0  0  0  0  0  0  0  0  0
   18.0454   73.6283   -2.5601 C   0  0  0  0  0  0  0  0  0  0  0  0
   16.3211   72.6213   -3.8967 O   0  0  0  0  0  0  0  0  0  0  0  0
   15.6693   70.9724   -1.4786 O   0  0  0  0  0  0  0  0  0  0  0  0
   17.1138   69.2380   -3.0089 O   0  0  0  0  0  0  0  0  0  0  0  0
   16.9394   71.4197   -1.9500 C   0  0  1  0  0  0  0  0  0  0  0  0
   17.3602   70.6206   -3.1657 C   0  0  2  0  0  0  0  0  0  0  0  0
   16.7583   72.8153   -2.5338 C   0  0  1  0  0  0  0  0  0  0  0  0
   16.5131   71.2448   -4.2616 C   0  0  2  0  0  0  0  0  0  0  0  0
   15.7598   70.0830   -1.1008 H   0  0  0  0  0  0  0  0  0  0  0  0
   17.6763   68.8876   -2.3006 H   0  0  0  0  0  0  0  0  0  0  0  0
   16.1435   69.1642   -6.1358 O   0  0  0  0  0  0  0  0  0  0  0  0
   19.0139   71.1298   -9.1588 O   0  0  0  0  0  0  0  0  0  0  0  0
   17.1512   71.1877   -5.5465 N   0  0  0  0  0  0  0  0  0  0  0  0
   17.5729   70.1447   -7.6396 N   0  0  0  0  0  0  0  0  0  0  0  0
   16.8986   70.0985   -6.4127 C   0  0  0  0  0  0  0  0  0  0  0  0
   18.0163   72.2043   -5.9365 C   0  0  0  0  0  0  0  0  0  0  0  0
   18.6525   72.2329   -7.1094 C   0  0  0  0  0  0  0  0  0  0  0  0
   18.4434   71.1325   -8.0724 C   0  0  0  0  0  0  0  0  0  0  0  0
   17.4125   69.3962   -8.2591 H   0  0  0  0  0  0  0  0  0  0  0  0
   20.5937   72.5996   -0.4547 O   0  0  0  0  0  0  0  0  0  0  0  0
   20.4244   71.0603    0.0086 P   0  0  2  0  0  0  0  0  0  0  0  0
   21.1261   70.2324   -1.1913 O   0  0  0  0  0  0  0  0  0  0  0  0
   19.0070   70.6558    0.2938 O   0  0  0  0  0  0  0  0  0  0  0  0
   21.4311   70.8971    1.2596 O   0  0  0  0  0  0  0  0  0  0  0  0
   23.1558   72.4200    1.8276 O   0  0  0  0  0  0  0  0  0  0  0  0
   24.8233   68.9488    3.3180 O   0  0  0  0  0  0  0  0  0  0  0  0
   23.8060   70.9269    5.1347 O   0  0  0  0  0  0  0  0  0  0  0  0
   23.3424   68.8875    0.8315 O   0  0  0  0  0  0  0  0  0  0  0  0
   23.7607   69.8513    2.9988 C   0  0  1  0  0  0  0  0  0  0  0  0
   24.0068   71.1646    3.7442 C   0  0  1  0  0  0  0  0  0  0  0  0
   23.7410   70.0853    1.4895 C   0  0  2  0  0  0  0  0  0  0  0  0
   23.0623   72.2681    3.2488 C   0  0  1  0  0  0  0  0  0  0  0  0
   22.8073   71.2355    1.1083 C   0  0  1  0  0  0  0  0  0  0  0  0
   24.8410   68.7956    4.2750 H   0  0  0  0  0  0  0  0  0  0  0  0
   24.4080   70.2278    5.4347 H   0  0  0  0  0  0  0  0  0  0  0  0
   23.9414   68.1671    1.0807 H   0  0  0  0  0  0  0  0  0  0  0  0
   24.7212   73.5812    4.3591 O   0  0  0  0  0  0  0  0  0  0  0  0
   23.3951   73.6250    3.8653 C   0  0  0  0  0  0  0  0  0  0  0  0
   24.9469   74.4384    4.7541 H   0  0  0  0  0  0  0  0  0  0  0  0
 25 28  1  0
 25 24  1  0
 25 26  1  6
 25 27  2  0
  1  4  1  0
  1 24  1  0
  1  2  1  1
  1  3  2  0
  6 11  1  0
  6 12  1  0
 29 36  1  0
 29 37  1  0
  9  7  1  6
  7 13  1  0
 10  8  1  1
  8 14  1  0
 37 28  1  1
  4  5  1  0
 33 30  1  6
 30 38  1  0
 34 31  1  1
 31 39  1  0
 35 32  1  6
 32 40  1  0
 41 42  1  0
 41 43  1  0
 15 19  2  0
 16 22  2  0
 12 17  1  6
 17 19  1  0
 17 20  1  0
 18 19  1  0
 18 22  1  0
 18 23  1  0
  9 10  1  0
  9 11  1  0
 10 12  1  0
 11  5  1  6
 33 34  1  0
 33 35  1  0
 34 36  1  0
 35 37  1  0
 36 42  1  1
 20 21  2  0
 21 22  1  0
M  CHG  2   2  -1  26  -1
M  END
>  <COMPND>  (187) 
    8629 

>  <AUTHOR>  (187) 
    GENERATED BY OPEN BABEL 3.1.1

>  <MASTER>  (187) 
        0    0    0    0    0    0    0    0   58    0   58    0

>  <minimizedAffinity>  (187) 
-7.04735

>  <CNNscore>  (187) 
0.5565826297

>  <CNNaffinity>  (187) 
4.3829736710

>  <CNN_VS>  (187) 
2.4394869804

>  <CNNaffinity_variance>  (187) 
0.0602068305

$$$$
188
     RDKit          3D

 43 45  0  0  0  0  0  0  0  0999 V2000
   20.4746   70.4895   -0.1537 P   0  0  2  0  0  0  0  0  0  0  0  0
   18.8865   70.7860   -0.0663 O   0  0  0  0  0  0  0  0  0  0  0  0
   20.9367   69.2819    0.6077 O   0  0  0  0  0  0  0  0  0  0  0  0
   21.1559   71.8932    0.2744 O   0  0  0  0  0  0  0  0  0  0  0  0
   21.4488   72.1129    1.6433 C   0  0  0  0  0  0  0  0  0  0  0  0
   23.4613   73.0371    2.5757 O   0  0  0  0  0  0  0  0  0  0  0  0
   24.5633   70.2502    2.4792 O   0  0  0  0  0  0  0  0  0  0  0  0
   23.8688   70.5242    5.1020 O   0  0  0  0  0  0  0  0  0  0  0  0
   23.2341   70.6855    2.7605 C   0  0  1  0  0  0  0  0  0  0  0  0
   23.1610   71.2891    4.1476 C   0  0  2  0  0  0  0  0  0  0  0  0
   22.9369   71.8886    1.8741 C   0  0  1  0  0  0  0  0  0  0  0  0
   23.7744   72.6613    3.9269 C   0  0  2  0  0  0  0  0  0  0  0  0
   24.7759   69.4822    3.0332 H   0  0  0  0  0  0  0  0  0  0  0  0
   23.4399   69.6606    5.2069 H   0  0  0  0  0  0  0  0  0  0  0  0
   25.3379   74.5326    5.3523 O   0  0  0  0  0  0  0  0  0  0  0  0
   21.6211   76.4061    7.3311 O   0  0  0  0  0  0  0  0  0  0  0  0
   23.2413   73.6499    4.8213 N   0  0  0  0  0  0  0  0  0  0  0  0
   23.4859   75.4641    6.3363 N   0  0  0  0  0  0  0  0  0  0  0  0
   24.1128   74.5417    5.4888 C   0  0  0  0  0  0  0  0  0  0  0  0
   21.8685   73.7282    5.0288 C   0  0  0  0  0  0  0  0  0  0  0  0
   21.2865   74.6128    5.8413 C   0  0  0  0  0  0  0  0  0  0  0  0
   22.1260   75.5805    6.5766 C   0  0  0  0  0  0  0  0  0  0  0  0
   24.0732   76.0952    6.8122 H   0  0  0  0  0  0  0  0  0  0  0  0
   20.7452   70.4250   -1.7460 O   0  0  0  0  0  0  0  0  0  0  0  0
   20.5734   71.5456   -2.8982 P   0  0  2  0  0  0  0  0  0  0  0  0
   21.8909   71.3407   -3.8146 O   0  0  0  0  0  0  0  0  0  0  0  0
   20.3929   72.9418   -2.3767 O   0  0  0  0  0  0  0  0  0  0  0  0
   19.3548   71.0097   -3.8108 O   0  0  0  0  0  0  0  0  0  0  0  0
   17.3527   72.1652   -4.3334 O   0  0  0  0  0  0  0  0  0  0  0  0
   15.9055   68.2978   -4.3473 O   0  0  0  0  0  0  0  0  0  0  0  0
   16.2211   69.7027   -6.8323 O   0  0  0  0  0  0  0  0  0  0  0  0
   17.8805   69.0934   -2.3863 O   0  0  0  0  0  0  0  0  0  0  0  0
   16.8750   69.3270   -4.5624 C   0  0  1  0  0  0  0  0  0  0  0  0
   16.2931   70.3337   -5.5568 C   0  0  1  0  0  0  0  0  0  0  0  0
   17.1862   70.0059   -3.2299 C   0  0  2  0  0  0  0  0  0  0  0  0
   17.1583   71.5988   -5.6346 C   0  0  1  0  0  0  0  0  0  0  0  0
   18.0099   71.2802   -3.4241 C   0  0  1  0  0  0  0  0  0  0  0  0
   15.7037   67.8624   -5.1895 H   0  0  0  0  0  0  0  0  0  0  0  0
   15.6724   68.9051   -6.7692 H   0  0  0  0  0  0  0  0  0  0  0  0
   17.3486   68.2911   -2.2709 H   0  0  0  0  0  0  0  0  0  0  0  0
   16.4730   72.2189   -7.8379 O   0  0  0  0  0  0  0  0  0  0  0  0
   16.5143   72.6798   -6.5000 C   0  0  0  0  0  0  0  0  0  0  0  0
   16.0652   72.8966   -8.4002 H   0  0  0  0  0  0  0  0  0  0  0  0
 25 28  1  0
 25 24  1  0
 25 26  1  6
 25 27  2  0
  1  4  1  0
  1 24  1  0
  1  2  1  6
  1  3  2  0
  6 11  1  0
  6 12  1  0
 29 36  1  0
 29 37  1  0
  9  7  1  6
  7 13  1  0
 10  8  1  1
  8 14  1  0
 37 28  1  6
  4  5  1  0
 33 30  1  1
 30 38  1  0
 34 31  1  6
 31 39  1  0
 35 32  1  1
 32 40  1  0
 41 42  1  0
 41 43  1  0
 15 19  2  0
 16 22  2  0
 12 17  1  1
 17 19  1  0
 17 20  1  0
 18 19  1  0
 18 22  1  0
 18 23  1  0
  9 10  1  0
  9 11  1  0
 10 12  1  0
 11  5  1  1
 33 34  1  0
 33 35  1  0
 34 36  1  0
 35 37  1  0
 36 42  1  6
 20 21  2  0
 21 22  1  0
M  CHG  2   2  -1  26  -1
M  END
>  <COMPND>  (188) 
    8629 

>  <AUTHOR>  (188) 
    GENERATED BY OPEN BABEL 3.1.1

>  <MASTER>  (188) 
        0    0    0    0    0    0    0    0   58    0   58    0

>  <minimizedAffinity>  (188) 
-7.82892

>  <CNNscore>  (188) 
0.4070065022

>  <CNNaffinity>  (188) 
3.9387385845

>  <CNN_VS>  (188) 
1.6030921936

>  <CNNaffinity_variance>  (188) 
0.2087326795

$$$$
189
     RDKit          3D

 43 45  0  0  0  0  0  0  0  0999 V2000
   22.5713   71.3727   -2.2703 P   0  0  2  0  0  0  0  0  0  0  0  0
   22.7741   72.6974   -1.3640 O   0  0  0  0  0  0  0  0  0  0  0  0
   23.4020   71.3258   -3.5190 O   0  0  0  0  0  0  0  0  0  0  0  0
   20.9701   71.2926   -2.4882 O   0  0  0  0  0  0  0  0  0  0  0  0
   20.2343   72.5021   -2.5462 C   0  0  0  0  0  0  0  0  0  0  0  0
   19.9016   71.9377   -4.8580 O   0  0  0  0  0  0  0  0  0  0  0  0
   19.6635   74.8860   -5.3498 O   0  0  0  0  0  0  0  0  0  0  0  0
   17.0606   74.0730   -5.3395 O   0  0  0  0  0  0  0  0  0  0  0  0
   19.2233   74.1197   -4.2298 C   0  0  1  0  0  0  0  0  0  0  0  0
   17.9921   73.3164   -4.5936 C   0  0  2  0  0  0  0  0  0  0  0  0
   20.2531   73.0259   -3.9757 C   0  0  1  0  0  0  0  0  0  0  0  0
   18.5885   72.1705   -5.3932 C   0  0  2  0  0  0  0  0  0  0  0  0
   19.0219   75.5912   -5.5311 H   0  0  0  0  0  0  0  0  0  0  0  0
   16.7098   74.7893   -4.7876 H   0  0  0  0  0  0  0  0  0  0  0  0
   16.4773   71.4561   -7.1283 O   0  0  0  0  0  0  0  0  0  0  0  0
   15.7022   67.5191   -4.8611 O   0  0  0  0  0  0  0  0  0  0  0  0
   17.8181   70.9642   -5.2797 N   0  0  0  0  0  0  0  0  0  0  0  0
   16.0932   69.4963   -5.9981 N   0  0  0  0  0  0  0  0  0  0  0  0
   16.7786   70.7007   -6.2019 C   0  0  0  0  0  0  0  0  0  0  0  0
   18.0964   70.0574   -4.2628 C   0  0  0  0  0  0  0  0  0  0  0  0
   17.4325   68.9139   -4.0813 C   0  0  0  0  0  0  0  0  0  0  0  0
   16.3316   68.5631   -5.0016 C   0  0  0  0  0  0  0  0  0  0  0  0
   15.3646   69.2917   -6.6283 H   0  0  0  0  0  0  0  0  0  0  0  0
   22.8566   70.1714   -1.2271 O   0  0  0  0  0  0  0  0  0  0  0  0
   22.2062   69.8414    0.2155 P   0  0  2  0  0  0  0  0  0  0  0  0
   23.0088   68.5194    0.6907 O   0  0  0  0  0  0  0  0  0  0  0  0
   20.7131   69.6859    0.1964 O   0  0  0  0  0  0  0  0  0  0  0  0
   22.7441   71.0149    1.1842 O   0  0  0  0  0  0  0  0  0  0  0  0
   22.5628   71.2116    3.5390 O   0  0  0  0  0  0  0  0  0  0  0  0
   22.2428   75.1997    2.5172 O   0  0  0  0  0  0  0  0  0  0  0  0
   24.6508   74.2419    3.7551 O   0  0  0  0  0  0  0  0  0  0  0  0
   20.9883   73.1806    0.8651 O   0  0  0  0  0  0  0  0  0  0  0  0
   22.7215   73.8576    2.3946 C   0  0  1  0  0  0  0  0  0  0  0  0
   23.4446   73.4861    3.6906 C   0  0  1  0  0  0  0  0  0  0  0  0
   21.5360   72.9248    2.1540 C   0  0  2  0  0  0  0  0  0  0  0  0
   23.7522   71.9835    3.7422 C   0  0  1  0  0  0  0  0  0  0  0  0
   21.9403   71.4545    2.2759 C   0  0  1  0  0  0  0  0  0  0  0  0
   22.9907   75.7971    2.6696 H   0  0  0  0  0  0  0  0  0  0  0  0
   24.4426   75.1889    3.7211 H   0  0  0  0  0  0  0  0  0  0  0  0
   20.7360   74.1145    0.8007 H   0  0  0  0  0  0  0  0  0  0  0  0
   25.7297   71.7814    5.0681 O   0  0  0  0  0  0  0  0  0  0  0  0
   24.3309   71.5642    5.0918 C   0  0  0  0  0  0  0  0  0  0  0  0
   26.1115   71.5193    5.9208 H   0  0  0  0  0  0  0  0  0  0  0  0
 25 28  1  0
 25 24  1  0
 25 26  1  1
 25 27  2  0
  1  4  1  0
  1 24  1  0
  1  2  1  1
  1  3  2  0
  6 11  1  0
  6 12  1  0
 29 36  1  0
 29 37  1  0
  9  7  1  6
  7 13  1  0
 10  8  1  6
  8 14  1  0
 37 28  1  6
  4  5  1  0
 33 30  1  1
 30 38  1  0
 34 31  1  6
 31 39  1  0
 35 32  1  6
 32 40  1  0
 41 42  1  0
 41 43  1  0
 15 19  2  0
 16 22  2  0
 12 17  1  1
 17 19  1  0
 17 20  1  0
 18 19  1  0
 18 22  1  0
 18 23  1  0
  9 10  1  0
  9 11  1  0
 10 12  1  0
 11  5  1  1
 33 34  1  0
 33 35  1  0
 34 36  1  0
 35 37  1  0
 36 42  1  1
 20 21  2  0
 21 22  1  0
M  CHG  2   2  -1  26  -1
M  END
>  <COMPND>  (189) 
    8629 

>  <AUTHOR>  (189) 
    GENERATED BY OPEN BABEL 3.1.1

>  <MASTER>  (189) 
        0    0    0    0    0    0    0    0   58    0   58    0

>  <minimizedAffinity>  (189) 
-7.64550

>  <CNNscore>  (189) 
0.3817374408

>  <CNNaffinity>  (189) 
4.0441031456

>  <CNN_VS>  (189) 
1.5437855721

>  <CNNaffinity_variance>  (189) 
0.0848267451

$$$$
190
     RDKit          3D

 43 45  0  0  0  0  0  0  0  0999 V2000
   21.8502   74.3611   -2.7403 P   0  0  2  0  0  0  0  0  0  0  0  0
   23.1312   73.4165   -2.4503 O   0  0  0  0  0  0  0  0  0  0  0  0
   22.1737   75.7990   -3.0215 O   0  0  0  0  0  0  0  0  0  0  0  0
   20.8767   74.0942   -1.4758 O   0  0  0  0  0  0  0  0  0  0  0  0
   20.7732   72.7751   -0.9687 C   0  0  0  0  0  0  0  0  0  0  0  0
   20.1989   71.6710    1.0868 O   0  0  0  0  0  0  0  0  0  0  0  0
   18.7442   74.1897    1.8153 O   0  0  0  0  0  0  0  0  0  0  0  0
   21.0697   74.4186    3.2211 O   0  0  0  0  0  0  0  0  0  0  0  0
   19.9631   74.0290    1.0915 C   0  0  1  0  0  0  0  0  0  0  0  0
   21.0882   73.6535    2.0332 C   0  0  2  0  0  0  0  0  0  0  0  0
   19.8368   72.7775    0.2318 C   0  0  1  0  0  0  0  0  0  0  0  0
   20.8122   72.1804    2.2823 C   0  0  2  0  0  0  0  0  0  0  0  0
   18.8008   74.9831    2.3715 H   0  0  0  0  0  0  0  0  0  0  0  0
   21.2505   75.3479    3.0101 H   0  0  0  0  0  0  0  0  0  0  0  0
   22.3493   72.4111    4.6406 O   0  0  0  0  0  0  0  0  0  0  0  0
   25.3936   69.2734    3.1818 O   0  0  0  0  0  0  0  0  0  0  0  0
   22.0110   71.4354    2.5453 N   0  0  0  0  0  0  0  0  0  0  0  0
   23.8638   70.8485    3.9124 N   0  0  0  0  0  0  0  0  0  0  0  0
   22.7089   71.6264    3.7606 C   0  0  0  0  0  0  0  0  0  0  0  0
   22.4829   70.5271    1.6040 C   0  0  0  0  0  0  0  0  0  0  0  0
   23.5867   69.7939    1.7634 C   0  0  0  0  0  0  0  0  0  0  0  0
   24.3741   69.9333    3.0054 C   0  0  0  0  0  0  0  0  0  0  0  0
   24.3665   70.9650    4.7511 H   0  0  0  0  0  0  0  0  0  0  0  0
   21.0975   73.5925   -3.9468 O   0  0  0  0  0  0  0  0  0  0  0  0
   21.2879   73.6888   -5.5491 P   0  0  2  0  0  0  0  0  0  0  0  0
   22.5395   72.7039   -5.8339 O   0  0  0  0  0  0  0  0  0  0  0  0
   21.4707   75.0871   -6.0642 O   0  0  0  0  0  0  0  0  0  0  0  0
   20.0113   72.9127   -6.1596 O   0  0  0  0  0  0  0  0  0  0  0  0
   18.9275   70.9293   -5.4466 O   0  0  0  0  0  0  0  0  0  0  0  0
   18.6053   70.4249   -9.5323 O   0  0  0  0  0  0  0  0  0  0  0  0
   16.2723   71.0968   -7.9981 O   0  0  0  0  0  0  0  0  0  0  0  0
   21.0171   71.5600   -8.4032 O   0  0  0  0  0  0  0  0  0  0  0  0
   18.6427   71.1664   -8.3099 C   0  0  1  0  0  0  0  0  0  0  0  0
   17.5025   70.6750   -7.4159 C   0  0  1  0  0  0  0  0  0  0  0  0
   19.9927   70.9425   -7.6313 C   0  0  2  0  0  0  0  0  0  0  0  0
   17.6372   71.2295   -5.9913 C   0  0  1  0  0  0  0  0  0  0  0  0
   20.0040   71.4881   -6.2022 C   0  0  1  0  0  0  0  0  0  0  0  0
   17.7508   70.5632   -9.9684 H   0  0  0  0  0  0  0  0  0  0  0  0
   16.1999   70.7404   -8.8975 H   0  0  0  0  0  0  0  0  0  0  0  0
   20.9997   71.2059   -9.3056 H   0  0  0  0  0  0  0  0  0  0  0  0
   16.9410   69.2739   -4.8081 O   0  0  0  0  0  0  0  0  0  0  0  0
   16.6019   70.6282   -5.0432 C   0  0  0  0  0  0  0  0  0  0  0  0
   16.2909   68.8783   -4.2060 H   0  0  0  0  0  0  0  0  0  0  0  0
 25 28  1  0
 25 24  1  0
 25 26  1  1
 25 27  2  0
  1  4  1  0
  1 24  1  0
  1  2  1  1
  1  3  2  0
  6 11  1  0
  6 12  1  0
 29 36  1  0
 29 37  1  0
  9  7  1  1
  7 13  1  0
 10  8  1  1
  8 14  1  0
 37 28  1  6
  4  5  1  0
 33 30  1  6
 30 38  1  0
 34 31  1  6
 31 39  1  0
 35 32  1  6
 32 40  1  0
 41 42  1  0
 41 43  1  0
 15 19  2  0
 16 22  2  0
 12 17  1  6
 17 19  1  0
 17 20  1  0
 18 19  1  0
 18 22  1  0
 18 23  1  0
  9 10  1  0
  9 11  1  0
 10 12  1  0
 11  5  1  6
 33 34  1  0
 33 35  1  0
 34 36  1  0
 35 37  1  0
 36 42  1  1
 20 21  2  0
 21 22  1  0
M  CHG  2   2  -1  26  -1
M  END
>  <COMPND>  (190) 
    8629 

>  <AUTHOR>  (190) 
    GENERATED BY OPEN BABEL 3.1.1

>  <MASTER>  (190) 
        0    0    0    0    0    0    0    0   58    0   58    0

>  <minimizedAffinity>  (190) 
-7.03153

>  <CNNscore>  (190) 
0.3461301923

>  <CNNaffinity>  (190) 
3.8297855854

>  <CNN_VS>  (190) 
1.3256044388

>  <CNNaffinity_variance>  (190) 
0.2127304524

$$$$
191
     RDKit          3D

 43 45  0  0  0  0  0  0  0  0999 V2000
   22.7735   72.9106   -3.2334 P   0  0  2  0  0  0  0  0  0  0  0  0
   23.6654   71.6668   -3.7576 O   0  0  0  0  0  0  0  0  0  0  0  0
   23.4997   74.2210   -3.1511 O   0  0  0  0  0  0  0  0  0  0  0  0
   22.1342   72.3733   -1.8476 O   0  0  0  0  0  0  0  0  0  0  0  0
   23.0102   71.9256   -0.8277 C   0  0  0  0  0  0  0  0  0  0  0  0
   23.0826   70.5428    1.1361 O   0  0  0  0  0  0  0  0  0  0  0  0
   20.2729   69.7493    0.4528 O   0  0  0  0  0  0  0  0  0  0  0  0
   19.9061   71.5937    2.4277 O   0  0  0  0  0  0  0  0  0  0  0  0
   20.9175   71.0121    0.2946 C   0  0  1  0  0  0  0  0  0  0  0  0
   21.0731   71.6949    1.6374 C   0  0  2  0  0  0  0  0  0  0  0  0
   22.3661   70.7533   -0.1004 C   0  0  1  0  0  0  0  0  0  0  0  0
   22.2517   70.9467    2.2367 C   0  0  2  0  0  0  0  0  0  0  0  0
   19.3461   69.8889    0.7048 H   0  0  0  0  0  0  0  0  0  0  0  0
   19.1852   72.0858    2.0046 H   0  0  0  0  0  0  0  0  0  0  0  0
   23.7751   69.9541    4.3982 O   0  0  0  0  0  0  0  0  0  0  0  0
   25.1741   74.1804    5.5911 O   0  0  0  0  0  0  0  0  0  0  0  0
   23.0241   71.7653    3.1282 N   0  0  0  0  0  0  0  0  0  0  0  0
   24.4706   72.0593    4.9903 N   0  0  0  0  0  0  0  0  0  0  0  0
   23.7529   71.1677    4.1828 C   0  0  0  0  0  0  0  0  0  0  0  0
   23.0540   73.1444    2.9520 C   0  0  0  0  0  0  0  0  0  0  0  0
   23.7424   73.9808    3.7316 C   0  0  0  0  0  0  0  0  0  0  0  0
   24.5307   73.4374    4.8564 C   0  0  0  0  0  0  0  0  0  0  0  0
   24.9856   71.6656    5.7317 H   0  0  0  0  0  0  0  0  0  0  0  0
   21.5109   72.9034   -4.2428 O   0  0  0  0  0  0  0  0  0  0  0  0
   21.3246   73.5459   -5.7143 P   0  0  2  0  0  0  0  0  0  0  0  0
   22.5922   72.9659   -6.5356 O   0  0  0  0  0  0  0  0  0  0  0  0
   21.2139   75.0431   -5.7226 O   0  0  0  0  0  0  0  0  0  0  0  0
   20.0493   72.7774   -6.3371 O   0  0  0  0  0  0  0  0  0  0  0  0
   18.9813   70.8045   -5.5734 O   0  0  0  0  0  0  0  0  0  0  0  0
   18.4942   70.2861   -9.6410 O   0  0  0  0  0  0  0  0  0  0  0  0
   16.2283   70.9801   -8.0186 O   0  0  0  0  0  0  0  0  0  0  0  0
   20.9564   71.4090   -8.6130 O   0  0  0  0  0  0  0  0  0  0  0  0
   18.5849   71.0322   -8.4242 C   0  0  1  0  0  0  0  0  0  0  0  0
   17.4777   70.5522   -7.4837 C   0  0  1  0  0  0  0  0  0  0  0  0
   19.9593   70.8016   -7.7985 C   0  0  2  0  0  0  0  0  0  0  0  0
   17.6724   71.1114   -6.0679 C   0  0  1  0  0  0  0  0  0  0  0  0
   20.0307   71.3528   -6.3733 C   0  0  1  0  0  0  0  0  0  0  0  0
   17.6241   70.4285  -10.0435 H   0  0  0  0  0  0  0  0  0  0  0  0
   16.1180   70.6206   -8.9129 H   0  0  0  0  0  0  0  0  0  0  0  0
   20.9009   71.0515   -9.5124 H   0  0  0  0  0  0  0  0  0  0  0  0
   16.0293   69.4183   -5.6903 O   0  0  0  0  0  0  0  0  0  0  0  0
   16.6715   70.5209   -5.0771 C   0  0  0  0  0  0  0  0  0  0  0  0
   15.3896   69.0322   -5.0712 H   0  0  0  0  0  0  0  0  0  0  0  0
 25 28  1  0
 25 24  1  0
 25 26  1  6
 25 27  2  0
  1  4  1  0
  1 24  1  0
  1  2  1  6
  1  3  2  0
  6 11  1  0
  6 12  1  0
 29 36  1  0
 29 37  1  0
  9  7  1  1
  7 13  1  0
 10  8  1  1
  8 14  1  0
 37 28  1  6
  4  5  1  0
 33 30  1  6
 30 38  1  0
 34 31  1  6
 31 39  1  0
 35 32  1  6
 32 40  1  0
 41 42  1  0
 41 43  1  0
 15 19  2  0
 16 22  2  0
 12 17  1  1
 17 19  1  0
 17 20  1  0
 18 19  1  0
 18 22  1  0
 18 23  1  0
  9 10  1  0
  9 11  1  0
 10 12  1  0
 11  5  1  1
 33 34  1  0
 33 35  1  0
 34 36  1  0
 35 37  1  0
 36 42  1  1
 20 21  2  0
 21 22  1  0
M  CHG  2   2  -1  26  -1
M  END
>  <COMPND>  (191) 
    8629 

>  <AUTHOR>  (191) 
    GENERATED BY OPEN BABEL 3.1.1

>  <MASTER>  (191) 
        0    0    0    0    0    0    0    0   58    0   58    0

>  <minimizedAffinity>  (191) 
-8.81545

>  <CNNscore>  (191) 
0.3445276916

>  <CNNaffinity>  (191) 
3.7704365253

>  <CNN_VS>  (191) 
1.2990198135

>  <CNNaffinity_variance>  (191) 
0.3013392687

$$$$
192
     RDKit          3D

 43 45  0  0  0  0  0  0  0  0999 V2000
   19.7256   70.9290   -0.8206 P   0  0  2  0  0  0  0  0  0  0  0  0
   18.2238   70.3305   -0.8819 O   0  0  0  0  0  0  0  0  0  0  0  0
   19.8433   72.2814   -0.1812 O   0  0  0  0  0  0  0  0  0  0  0  0
   20.2474   70.8265   -2.3487 O   0  0  0  0  0  0  0  0  0  0  0  0
   20.0708   71.9455   -3.1999 C   0  0  0  0  0  0  0  0  0  0  0  0
   20.1224   71.4675   -5.5542 O   0  0  0  0  0  0  0  0  0  0  0  0
   22.8606   72.6893   -5.5520 O   0  0  0  0  0  0  0  0  0  0  0  0
   21.3126   74.7017   -6.5472 O   0  0  0  0  0  0  0  0  0  0  0  0
   21.7070   73.0592   -4.7985 C   0  0  1  0  0  0  0  0  0  0  0  0
   20.7017   73.7617   -5.6870 C   0  0  2  0  0  0  0  0  0  0  0  0
   20.9631   71.7838   -4.4230 C   0  0  1  0  0  0  0  0  0  0  0  0
   20.0795   72.5981   -6.4400 C   0  0  2  0  0  0  0  0  0  0  0  0
   23.3523   73.4876   -5.8030 H   0  0  0  0  0  0  0  0  0  0  0  0
   21.6934   75.4221   -6.0210 H   0  0  0  0  0  0  0  0  0  0  0  0
   18.6098   71.0435   -8.2842 O   0  0  0  0  0  0  0  0  0  0  0  0
   14.8512   73.6618   -7.7753 O   0  0  0  0  0  0  0  0  0  0  0  0
   18.7148   72.8508   -6.8078 N   0  0  0  0  0  0  0  0  0  0  0  0
   16.7395   72.3484   -8.0292 N   0  0  0  0  0  0  0  0  0  0  0  0
   18.0686   72.0106   -7.7442 C   0  0  0  0  0  0  0  0  0  0  0  0
   18.0314   73.9215   -6.2417 C   0  0  0  0  0  0  0  0  0  0  0  0
   16.7645   74.2309   -6.5251 C   0  0  0  0  0  0  0  0  0  0  0  0
   16.0173   73.4031   -7.4937 C   0  0  0  0  0  0  0  0  0  0  0  0
   16.2692   71.7772   -8.6791 H   0  0  0  0  0  0  0  0  0  0  0  0
   20.5534   69.7580   -0.0747 O   0  0  0  0  0  0  0  0  0  0  0  0
   22.1227   69.6365    0.2935 P   0  0  2  0  0  0  0  0  0  0  0  0
   22.8322   70.6210   -0.7765 O   0  0  0  0  0  0  0  0  0  0  0  0
   22.6496   68.2307    0.2856 O   0  0  0  0  0  0  0  0  0  0  0  0
   22.2704   70.3982    1.7087 O   0  0  0  0  0  0  0  0  0  0  0  0
   22.4897   72.7574    1.7632 O   0  0  0  0  0  0  0  0  0  0  0  0
   24.1005   71.8595    5.4578 O   0  0  0  0  0  0  0  0  0  0  0  0
   21.5033   73.0751    5.3008 O   0  0  0  0  0  0  0  0  0  0  0  0
   24.6390   70.1409    3.1916 O   0  0  0  0  0  0  0  0  0  0  0  0
   23.2110   71.6967    4.3498 C   0  0  1  0  0  0  0  0  0  0  0  0
   22.3972   72.9830    4.1951 C   0  0  1  0  0  0  0  0  0  0  0  0
   24.0289   71.4230    3.0891 C   0  0  2  0  0  0  0  0  0  0  0  0
   21.6158   72.9887    2.8743 C   0  0  1  0  0  0  0  0  0  0  0  0
   23.1661   71.5004    1.8282 C   0  0  1  0  0  0  0  0  0  0  0  0
   23.5874   72.0331    6.2617 H   0  0  0  0  0  0  0  0  0  0  0  0
   22.0093   73.0701    6.1286 H   0  0  0  0  0  0  0  0  0  0  0  0
   25.1826   70.1047    3.9935 H   0  0  0  0  0  0  0  0  0  0  0  0
   20.7707   74.5012    1.2290 O   0  0  0  0  0  0  0  0  0  0  0  0
   20.9226   74.3265    2.6257 C   0  0  0  0  0  0  0  0  0  0  0  0
   20.3306   75.3485    1.0557 H   0  0  0  0  0  0  0  0  0  0  0  0
 25 28  1  0
 25 24  1  0
 25 26  1  6
 25 27  2  0
  1  4  1  0
  1 24  1  0
  1  2  1  6
  1  3  2  0
  6 11  1  0
  6 12  1  0
 29 36  1  0
 29 37  1  0
  9  7  1  6
  7 13  1  0
 10  8  1  6
  8 14  1  0
 37 28  1  1
  4  5  1  0
 33 30  1  1
 30 38  1  0
 34 31  1  1
 31 39  1  0
 35 32  1  1
 32 40  1  0
 41 42  1  0
 41 43  1  0
 15 19  2  0
 16 22  2  0
 12 17  1  1
 17 19  1  0
 17 20  1  0
 18 19  1  0
 18 22  1  0
 18 23  1  0
  9 10  1  0
  9 11  1  0
 10 12  1  0
 11  5  1  1
 33 34  1  0
 33 35  1  0
 34 36  1  0
 35 37  1  0
 36 42  1  6
 20 21  2  0
 21 22  1  0
M  CHG  2   2  -1  26  -1
M  END
>  <COMPND>  (192) 
    8629 

>  <AUTHOR>  (192) 
    GENERATED BY OPEN BABEL 3.1.1

>  <MASTER>  (192) 
        0    0    0    0    0    0    0    0   58    0   58    0

>  <minimizedAffinity>  (192) 
-7.15330

>  <CNNscore>  (192) 
0.3337285817

>  <CNNaffinity>  (192) 
4.1825156212

>  <CNN_VS>  (192) 
1.3958250284

>  <CNNaffinity_variance>  (192) 
0.0534306392

$$$$
193
     RDKit          3D

 43 45  0  0  0  0  0  0  0  0999 V2000
   20.6647   74.8499   -2.8512 P   0  0  2  0  0  0  0  0  0  0  0  0
   21.1948   74.7678   -1.3249 O   0  0  0  0  0  0  0  0  0  0  0  0
   20.2568   76.2198   -3.3076 O   0  0  0  0  0  0  0  0  0  0  0  0
   19.5154   73.7135   -2.9249 O   0  0  0  0  0  0  0  0  0  0  0  0
   18.3366   73.9908   -3.6607 C   0  0  0  0  0  0  0  0  0  0  0  0
   16.9109   72.7997   -5.1846 O   0  0  0  0  0  0  0  0  0  0  0  0
   19.2708   72.7153   -7.0325 O   0  0  0  0  0  0  0  0  0  0  0  0
   17.7741   74.7442   -8.0719 O   0  0  0  0  0  0  0  0  0  0  0  0
   18.8615   73.7490   -6.1384 C   0  0  1  0  0  0  0  0  0  0  0  0
   17.6514   74.4732   -6.6905 C   0  0  2  0  0  0  0  0  0  0  0  0
   18.2942   73.0899   -4.8873 C   0  0  1  0  0  0  0  0  0  0  0  0
   16.5311   73.4938   -6.3842 C   0  0  2  0  0  0  0  0  0  0  0  0
   19.6369   73.1120   -7.8391 H   0  0  0  0  0  0  0  0  0  0  0  0
   18.4996   75.3718   -8.2152 H   0  0  0  0  0  0  0  0  0  0  0  0
   14.7359   74.2314   -8.4363 O   0  0  0  0  0  0  0  0  0  0  0  0
   11.7370   76.0123   -5.4236 O   0  0  0  0  0  0  0  0  0  0  0  0
   15.2738   74.1511   -6.1644 N   0  0  0  0  0  0  0  0  0  0  0  0
   13.2441   75.1174   -6.9345 N   0  0  0  0  0  0  0  0  0  0  0  0
   14.4466   74.4791   -7.2638 C   0  0  0  0  0  0  0  0  0  0  0  0
   14.8721   74.4636   -4.8702 C   0  0  0  0  0  0  0  0  0  0  0  0
   13.7228   75.0737   -4.5732 C   0  0  0  0  0  0  0  0  0  0  0  0
   12.8010   75.4503   -5.6643 C   0  0  0  0  0  0  0  0  0  0  0  0
   12.6519   75.3557   -7.6844 H   0  0  0  0  0  0  0  0  0  0  0  0
   21.8787   74.1940   -3.6933 O   0  0  0  0  0  0  0  0  0  0  0  0
   22.2957   72.6499   -3.9273 P   0  0  2  0  0  0  0  0  0  0  0  0
   23.8611   72.7444   -4.3246 O   0  0  0  0  0  0  0  0  0  0  0  0
   21.4444   71.9280   -4.9314 O   0  0  0  0  0  0  0  0  0  0  0  0
   22.2884   71.9967   -2.4514 O   0  0  0  0  0  0  0  0  0  0  0  0
   22.2329   69.6282   -2.3923 O   0  0  0  0  0  0  0  0  0  0  0  0
   21.2286   70.4098    1.5359 O   0  0  0  0  0  0  0  0  0  0  0  0
   23.8322   69.3666    0.9187 O   0  0  0  0  0  0  0  0  0  0  0  0
   20.1991   72.0952   -0.5805 O   0  0  0  0  0  0  0  0  0  0  0  0
   21.9017   70.6331    0.2940 C   0  0  1  0  0  0  0  0  0  0  0  0
   22.7571   69.4030   -0.0158 C   0  0  1  0  0  0  0  0  0  0  0  0
   20.8631   70.8559   -0.8037 C   0  0  2  0  0  0  0  0  0  0  0  0
   23.2981   69.4516   -1.4511 C   0  0  1  0  0  0  0  0  0  0  0  0
   21.4989   70.8382   -2.1949 C   0  0  1  0  0  0  0  0  0  0  0  0
   21.8825   70.2680    2.2373 H   0  0  0  0  0  0  0  0  0  0  0  0
   23.4771   69.3366    1.8210 H   0  0  0  0  0  0  0  0  0  0  0  0
   19.8006   72.0938    0.3033 H   0  0  0  0  0  0  0  0  0  0  0  0
   23.4035   67.0826   -1.1585 O   0  0  0  0  0  0  0  0  0  0  0  0
   24.0221   68.1625   -1.8334 C   0  0  0  0  0  0  0  0  0  0  0  0
   23.8537   66.2554   -1.3925 H   0  0  0  0  0  0  0  0  0  0  0  0
 25 28  1  0
 25 24  1  0
 25 26  1  6
 25 27  2  0
  1  4  1  0
  1 24  1  0
  1  2  1  1
  1  3  2  0
  6 11  1  0
  6 12  1  0
 29 36  1  0
 29 37  1  0
  9  7  1  6
  7 13  1  0
 10  8  1  6
  8 14  1  0
 37 28  1  1
  4  5  1  0
 33 30  1  1
 30 38  1  0
 34 31  1  1
 31 39  1  0
 35 32  1  1
 32 40  1  0
 41 42  1  0
 41 43  1  0
 15 19  2  0
 16 22  2  0
 12 17  1  1
 17 19  1  0
 17 20  1  0
 18 19  1  0
 18 22  1  0
 18 23  1  0
  9 10  1  0
  9 11  1  0
 10 12  1  0
 11  5  1  1
 33 34  1  0
 33 35  1  0
 34 36  1  0
 35 37  1  0
 36 42  1  6
 20 21  2  0
 21 22  1  0
M  CHG  2   2  -1  26  -1
M  END
>  <COMPND>  (193) 
    8629 

>  <AUTHOR>  (193) 
    GENERATED BY OPEN BABEL 3.1.1

>  <MASTER>  (193) 
        0    0    0    0    0    0    0    0   58    0   58    0

>  <minimizedAffinity>  (193) 
-6.16526

>  <CNNscore>  (193) 
0.3297716677

>  <CNNaffinity>  (193) 
3.8269600868

>  <CNN_VS>  (193) 
1.2620229721

>  <CNNaffinity_variance>  (193) 
0.1091447249

$$$$
194
     RDKit          3D

 43 45  0  0  0  0  0  0  0  0999 V2000
   20.3499   71.6717   -1.1072 P   0  0  2  0  0  0  0  0  0  0  0  0
   21.0788   70.2430   -1.3190 O   0  0  0  0  0  0  0  0  0  0  0  0
   20.6648   72.7045   -2.1491 O   0  0  0  0  0  0  0  0  0  0  0  0
   20.7196   72.0744    0.4157 O   0  0  0  0  0  0  0  0  0  0  0  0
   21.1903   71.0615    1.2876 C   0  0  0  0  0  0  0  0  0  0  0  0
   23.0694   72.3938    1.9715 O   0  0  0  0  0  0  0  0  0  0  0  0
   24.6767   69.8668    1.8230 O   0  0  0  0  0  0  0  0  0  0  0  0
   24.2150   70.1212    4.4986 O   0  0  0  0  0  0  0  0  0  0  0  0
   23.3243   70.0528    2.2373 C   0  0  1  0  0  0  0  0  0  0  0  0
   23.2779   70.6932    3.6089 C   0  0  2  0  0  0  0  0  0  0  0  0
   22.7094   71.1359    1.3597 C   0  0  1  0  0  0  0  0  0  0  0  0
   23.5867   72.1459    3.2891 C   0  0  2  0  0  0  0  0  0  0  0  0
   25.0903   69.1793    2.3690 H   0  0  0  0  0  0  0  0  0  0  0  0
   23.9754   69.1973    4.6708 H   0  0  0  0  0  0  0  0  0  0  0  0
   24.9854   73.6715    5.2110 O   0  0  0  0  0  0  0  0  0  0  0  0
   21.1016   75.5951    6.7786 O   0  0  0  0  0  0  0  0  0  0  0  0
   22.9661   73.0538    4.2121 N   0  0  0  0  0  0  0  0  0  0  0  0
   23.0504   74.6282    5.9898 N   0  0  0  0  0  0  0  0  0  0  0  0
   23.7589   73.7713    5.1379 C   0  0  0  0  0  0  0  0  0  0  0  0
   21.5862   73.2258    4.1931 C   0  0  0  0  0  0  0  0  0  0  0  0
   20.9258   74.0459    5.0131 C   0  0  0  0  0  0  0  0  0  0  0  0
   21.6798   74.8325    6.0105 C   0  0  0  0  0  0  0  0  0  0  0  0
   23.5819   75.1381    6.6435 H   0  0  0  0  0  0  0  0  0  0  0  0
   18.7870   71.2711   -1.0078 O   0  0  0  0  0  0  0  0  0  0  0  0
   17.8024   70.5637   -2.0769 P   0  0  2  0  0  0  0  0  0  0  0  0
   16.3844   71.2985   -1.8183 O   0  0  0  0  0  0  0  0  0  0  0  0
   17.7526   69.0669   -1.9710 O   0  0  0  0  0  0  0  0  0  0  0  0
   18.2925   71.1168   -3.5118 O   0  0  0  0  0  0  0  0  0  0  0  0
   18.4407   73.2283   -4.5777 O   0  0  0  0  0  0  0  0  0  0  0  0
   16.6871   71.0701   -7.6302 O   0  0  0  0  0  0  0  0  0  0  0  0
   19.4421   71.8515   -7.8473 O   0  0  0  0  0  0  0  0  0  0  0  0
   15.9033   70.5878   -4.8856 O   0  0  0  0  0  0  0  0  0  0  0  0
   17.5476   71.2741   -6.5062 C   0  0  1  0  0  0  0  0  0  0  0  0
   18.5517   72.3717   -6.8640 C   0  0  1  0  0  0  0  0  0  0  0  0
   16.7052   71.6881   -5.3012 C   0  0  2  0  0  0  0  0  0  0  0  0
   19.3328   72.8328   -5.6262 C   0  0  1  0  0  0  0  0  0  0  0  0
   17.5774   72.1758   -4.1430 C   0  0  1  0  0  0  0  0  0  0  0  0
   17.2157   70.8065   -8.3986 H   0  0  0  0  0  0  0  0  0  0  0  0
   18.9362   71.5635   -8.6234 H   0  0  0  0  0  0  0  0  0  0  0  0
   15.3556   70.2885   -5.6275 H   0  0  0  0  0  0  0  0  0  0  0  0
   21.3251   73.5925   -6.7044 O   0  0  0  0  0  0  0  0  0  0  0  0
   20.2263   74.0338   -5.9284 C   0  0  0  0  0  0  0  0  0  0  0  0
   21.9023   74.3465   -6.9046 H   0  0  0  0  0  0  0  0  0  0  0  0
 25 28  1  0
 25 24  1  0
 25 26  1  1
 25 27  2  0
  1  4  1  0
  1 24  1  0
  1  2  1  6
  1  3  2  0
  6 11  1  0
  6 12  1  0
 29 36  1  0
 29 37  1  0
  9  7  1  6
  7 13  1  0
 10  8  1  1
  8 14  1  0
 37 28  1  6
  4  5  1  0
 33 30  1  6
 30 38  1  0
 34 31  1  6
 31 39  1  0
 35 32  1  1
 32 40  1  0
 41 42  1  0
 41 43  1  0
 15 19  2  0
 16 22  2  0
 12 17  1  1
 17 19  1  0
 17 20  1  0
 18 19  1  0
 18 22  1  0
 18 23  1  0
  9 10  1  0
  9 11  1  0
 10 12  1  0
 11  5  1  1
 33 34  1  0
 33 35  1  0
 34 36  1  0
 35 37  1  0
 36 42  1  6
 20 21  2  0
 21 22  1  0
M  CHG  2   2  -1  26  -1
M  END
>  <COMPND>  (194) 
    8629 

>  <AUTHOR>  (194) 
    GENERATED BY OPEN BABEL 3.1.1

>  <MASTER>  (194) 
        0    0    0    0    0    0    0    0   58    0   58    0

>  <minimizedAffinity>  (194) 
-6.94021

>  <CNNscore>  (194) 
0.3267272115

>  <CNNaffinity>  (194) 
3.8705248833

>  <CNN_VS>  (194) 
1.2646057606

>  <CNNaffinity_variance>  (194) 
0.1657482088

$$$$
195
     RDKit          3D

 43 45  0  0  0  0  0  0  0  0999 V2000
   17.6442   70.8721   -1.1638 P   0  0  2  0  0  0  0  0  0  0  0  0
   16.0604   70.7623   -0.8522 O   0  0  0  0  0  0  0  0  0  0  0  0
   18.2610   69.6384   -1.7544 O   0  0  0  0  0  0  0  0  0  0  0  0
   18.2814   71.3753    0.2357 O   0  0  0  0  0  0  0  0  0  0  0  0
   18.5864   72.7511    0.3838 C   0  0  0  0  0  0  0  0  0  0  0  0
   20.0191   71.7816    2.0515 O   0  0  0  0  0  0  0  0  0  0  0  0
   20.4068   74.5739    3.0732 O   0  0  0  0  0  0  0  0  0  0  0  0
   22.6880   74.1422    1.6426 O   0  0  0  0  0  0  0  0  0  0  0  0
   20.2584   74.1172    1.7297 C   0  0  1  0  0  0  0  0  0  0  0  0
   21.5264   73.4323    1.2641 C   0  0  2  0  0  0  0  0  0  0  0  0
   19.2586   72.9675    1.7327 C   0  0  1  0  0  0  0  0  0  0  0  0
   21.4211   72.0780    1.9445 C   0  0  2  0  0  0  0  0  0  0  0  0
   21.0406   75.3085    3.0966 H   0  0  0  0  0  0  0  0  0  0  0  0
   22.7092   74.9963    1.1835 H   0  0  0  0  0  0  0  0  0  0  0  0
   23.2567   70.2254    3.0292 O   0  0  0  0  0  0  0  0  0  0  0  0
   23.8185   68.1247   -1.0343 O   0  0  0  0  0  0  0  0  0  0  0  0
   22.0620   71.0361    1.1928 N   0  0  0  0  0  0  0  0  0  0  0  0
   23.5348   69.1808    1.0051 N   0  0  0  0  0  0  0  0  0  0  0  0
   22.9686   70.1590    1.8325 C   0  0  0  0  0  0  0  0  0  0  0  0
   21.7892   70.8918   -0.1632 C   0  0  0  0  0  0  0  0  0  0  0  0
   22.3385   69.9545   -0.9385 C   0  0  0  0  0  0  0  0  0  0  0  0
   23.2965   68.9977   -0.3479 C   0  0  0  0  0  0  0  0  0  0  0  0
   24.1697   68.5587    1.4289 H   0  0  0  0  0  0  0  0  0  0  0  0
   17.7401   72.1864   -2.1000 O   0  0  0  0  0  0  0  0  0  0  0  0
   16.6356   72.9065   -3.0352 P   0  0  2  0  0  0  0  0  0  0  0  0
   16.4519   74.3571   -2.3427 O   0  0  0  0  0  0  0  0  0  0  0  0
   15.3608   72.1291   -3.1918 O   0  0  0  0  0  0  0  0  0  0  0  0
   17.4080   73.2105   -4.4194 O   0  0  0  0  0  0  0  0  0  0  0  0
   17.9524   70.9337   -4.7891 O   0  0  0  0  0  0  0  0  0  0  0  0
   18.2701   72.3256   -8.6637 O   0  0  0  0  0  0  0  0  0  0  0  0
   16.0422   70.6682   -7.9307 O   0  0  0  0  0  0  0  0  0  0  0  0
   19.1789   73.9683   -6.4602 O   0  0  0  0  0  0  0  0  0  0  0  0
   17.7260   72.2619   -7.3426 C   0  0  1  0  0  0  0  0  0  0  0  0
   17.1940   70.8463   -7.1109 C   0  0  1  0  0  0  0  0  0  0  0  0
   18.8236   72.5956   -6.3340 C   0  0  2  0  0  0  0  0  0  0  0  0
   16.8389   70.6227   -5.6347 C   0  0  1  0  0  0  0  0  0  0  0  0
   18.3850   72.2911   -4.9005 C   0  0  1  0  0  0  0  0  0  0  0  0
   17.5782   72.1153   -9.3090 H   0  0  0  0  0  0  0  0  0  0  0  0
   16.2800   70.8126   -8.8601 H   0  0  0  0  0  0  0  0  0  0  0  0
   19.4549   74.1483   -7.3719 H   0  0  0  0  0  0  0  0  0  0  0  0
   16.1074   69.0570   -3.9847 O   0  0  0  0  0  0  0  0  0  0  0  0
   16.4558   69.1716   -5.3521 C   0  0  0  0  0  0  0  0  0  0  0  0
   15.8610   68.1387   -3.7904 H   0  0  0  0  0  0  0  0  0  0  0  0
 25 28  1  0
 25 24  1  0
 25 26  1  1
 25 27  2  0
  1  4  1  0
  1 24  1  0
  1  2  1  1
  1  3  2  0
  6 11  1  0
  6 12  1  0
 29 36  1  0
 29 37  1  0
  9  7  1  1
  7 13  1  0
 10  8  1  1
  8 14  1  0
 37 28  1  6
  4  5  1  0
 33 30  1  6
 30 38  1  0
 34 31  1  6
 31 39  1  0
 35 32  1  1
 32 40  1  0
 41 42  1  0
 41 43  1  0
 15 19  2  0
 16 22  2  0
 12 17  1  6
 17 19  1  0
 17 20  1  0
 18 19  1  0
 18 22  1  0
 18 23  1  0
  9 10  1  0
  9 11  1  0
 10 12  1  0
 11  5  1  6
 33 34  1  0
 33 35  1  0
 34 36  1  0
 35 37  1  0
 36 42  1  6
 20 21  2  0
 21 22  1  0
M  CHG  2   2  -1  26  -1
M  END
>  <COMPND>  (195) 
    8629 

>  <AUTHOR>  (195) 
    GENERATED BY OPEN BABEL 3.1.1

>  <MASTER>  (195) 
        0    0    0    0    0    0    0    0   58    0   58    0

>  <minimizedAffinity>  (195) 
-7.19421

>  <CNNscore>  (195) 
0.3189308643

>  <CNNaffinity>  (195) 
4.0039176941

>  <CNN_VS>  (195) 
1.2769728899

>  <CNNaffinity_variance>  (195) 
0.3295801580

$$$$
196
     RDKit          3D

 43 45  0  0  0  0  0  0  0  0999 V2000
   20.5456   74.2584   -4.5087 P   0  0  2  0  0  0  0  0  0  0  0  0
   19.2233   74.8019   -3.7512 O   0  0  0  0  0  0  0  0  0  0  0  0
   21.1701   75.2284   -5.4681 O   0  0  0  0  0  0  0  0  0  0  0  0
   20.0767   72.8458   -5.1431 O   0  0  0  0  0  0  0  0  0  0  0  0
   20.1057   72.6944   -6.5517 C   0  0  0  0  0  0  0  0  0  0  0  0
   18.9258   70.7582   -5.7562 O   0  0  0  0  0  0  0  0  0  0  0  0
   18.5705   70.0209   -8.6408 O   0  0  0  0  0  0  0  0  0  0  0  0
   16.1459   71.0905   -7.9977 O   0  0  0  0  0  0  0  0  0  0  0  0
   18.5669   71.3113   -8.0324 C   0  0  1  0  0  0  0  0  0  0  0  0
   17.2757   71.5304   -7.2719 C   0  0  2  0  0  0  0  0  0  0  0  0
   19.5989   71.3045   -6.9115 C   0  0  1  0  0  0  0  0  0  0  0  0
   17.5119   70.7189   -6.0094 C   0  0  2  0  0  0  0  0  0  0  0  0
   17.9193   70.0009   -9.3601 H   0  0  0  0  0  0  0  0  0  0  0  0
   16.0381   71.6377   -8.7912 H   0  0  0  0  0  0  0  0  0  0  0  0
   16.5761   69.1823   -3.8321 O   0  0  0  0  0  0  0  0  0  0  0  0
   14.8675   72.8981   -1.7074 O   0  0  0  0  0  0  0  0  0  0  0  0
   16.8195   71.2591   -4.8736 N   0  0  0  0  0  0  0  0  0  0  0  0
   15.7263   71.0338   -2.7759 N   0  0  0  0  0  0  0  0  0  0  0  0
   16.3906   70.4010   -3.8343 C   0  0  0  0  0  0  0  0  0  0  0  0
   16.5725   72.6255   -4.7980 C   0  0  0  0  0  0  0  0  0  0  0  0
   15.9365   73.2131   -3.7824 C   0  0  0  0  0  0  0  0  0  0  0  0
   15.4557   72.3877   -2.6557 C   0  0  0  0  0  0  0  0  0  0  0  0
   15.4180   70.4558   -2.0406 H   0  0  0  0  0  0  0  0  0  0  0  0
   21.5045   73.8079   -3.2878 O   0  0  0  0  0  0  0  0  0  0  0  0
   22.9975   73.1884   -3.2836 P   0  0  2  0  0  0  0  0  0  0  0  0
   23.8826   74.3578   -2.6005 O   0  0  0  0  0  0  0  0  0  0  0  0
   23.4860   72.7509   -4.6341 O   0  0  0  0  0  0  0  0  0  0  0  0
   22.9496   72.0144   -2.1771 O   0  0  0  0  0  0  0  0  0  0  0  0
   22.6805   69.6849   -2.5201 O   0  0  0  0  0  0  0  0  0  0  0  0
   20.7026   70.0536    1.0858 O   0  0  0  0  0  0  0  0  0  0  0  0
   23.2780   68.7852    1.0044 O   0  0  0  0  0  0  0  0  0  0  0  0
   20.4418   72.1223   -0.9223 O   0  0  0  0  0  0  0  0  0  0  0  0
   21.7081   70.3551    0.1145 C   0  0  1  0  0  0  0  0  0  0  0  0
   22.5089   69.0803   -0.1582 C   0  0  1  0  0  0  0  0  0  0  0  0
   21.0347   70.8508   -1.1638 C   0  0  2  0  0  0  0  0  0  0  0  0
   23.4264   69.2523   -1.3763 C   0  0  1  0  0  0  0  0  0  0  0  0
   22.0253   70.9398   -2.3261 C   0  0  1  0  0  0  0  0  0  0  0  0
   21.1236   69.7388    1.9001 H   0  0  0  0  0  0  0  0  0  0  0  0
   22.6868   68.6794    1.7664 H   0  0  0  0  0  0  0  0  0  0  0  0
   19.8166   72.0525   -0.1846 H   0  0  0  0  0  0  0  0  0  0  0  0
   23.4078   66.8719   -1.1707 O   0  0  0  0  0  0  0  0  0  0  0  0
   24.1163   67.9456   -1.7618 C   0  0  0  0  0  0  0  0  0  0  0  0
   23.8354   66.0337   -1.4077 H   0  0  0  0  0  0  0  0  0  0  0  0
 25 28  1  0
 25 24  1  0
 25 26  1  1
 25 27  2  0
  1  4  1  0
  1 24  1  0
  1  2  1  1
  1  3  2  0
  6 11  1  0
  6 12  1  0
 29 36  1  0
 29 37  1  0
  9  7  1  1
  7 13  1  0
 10  8  1  6
  8 14  1  0
 37 28  1  1
  4  5  1  0
 33 30  1  1
 30 38  1  0
 34 31  1  1
 31 39  1  0
 35 32  1  1
 32 40  1  0
 41 42  1  0
 41 43  1  0
 15 19  2  0
 16 22  2  0
 12 17  1  1
 17 19  1  0
 17 20  1  0
 18 19  1  0
 18 22  1  0
 18 23  1  0
  9 10  1  0
  9 11  1  0
 10 12  1  0
 11  5  1  1
 33 34  1  0
 33 35  1  0
 34 36  1  0
 35 37  1  0
 36 42  1  6
 20 21  2  0
 21 22  1  0
M  CHG  2   2  -1  26  -1
M  END
>  <COMPND>  (196) 
    8629 

>  <AUTHOR>  (196) 
    GENERATED BY OPEN BABEL 3.1.1

>  <MASTER>  (196) 
        0    0    0    0    0    0    0    0   58    0   58    0

>  <minimizedAffinity>  (196) 
-7.19494

>  <CNNscore>  (196) 
0.2879418731

>  <CNNaffinity>  (196) 
3.7696194649

>  <CNN_VS>  (196) 
1.0854313374

>  <CNNaffinity_variance>  (196) 
1.1612634659

$$$$
197
     RDKit          3D

 43 45  0  0  0  0  0  0  0  0999 V2000
   22.5761   73.1073   -3.3212 P   0  0  2  0  0  0  0  0  0  0  0  0
   23.4281   71.8135   -3.7878 O   0  0  0  0  0  0  0  0  0  0  0  0
   23.3631   74.3806   -3.2174 O   0  0  0  0  0  0  0  0  0  0  0  0
   21.8440   72.6210   -1.9628 O   0  0  0  0  0  0  0  0  0  0  0  0
   22.6468   72.2941   -0.8419 C   0  0  0  0  0  0  0  0  0  0  0  0
   21.8669   70.0255   -0.7035 O   0  0  0  0  0  0  0  0  0  0  0  0
   21.6368   70.4824    2.2511 O   0  0  0  0  0  0  0  0  0  0  0  0
   23.9741   69.0927    2.0447 O   0  0  0  0  0  0  0  0  0  0  0  0
   22.6119   70.9773    1.3348 C   0  0  1  0  0  0  0  0  0  0  0  0
   23.5693   69.8729    0.9383 C   0  0  2  0  0  0  0  0  0  0  0  0
   21.9083   71.2767    0.0170 C   0  0  1  0  0  0  0  0  0  0  0  0
   22.7425   69.0835   -0.0625 C   0  0  2  0  0  0  0  0  0  0  0  0
   22.0626   70.2843    3.1004 H   0  0  0  0  0  0  0  0  0  0  0  0
   24.4967   69.6393    2.6521 H   0  0  0  0  0  0  0  0  0  0  0  0
   22.9185   66.2886   -0.4305 O   0  0  0  0  0  0  0  0  0  0  0  0
   25.8872   66.7515   -3.9254 O   0  0  0  0  0  0  0  0  0  0  0  0
   23.5535   68.4464   -1.0614 N   0  0  0  0  0  0  0  0  0  0  0  0
   24.3964   66.5214   -2.1705 N   0  0  0  0  0  0  0  0  0  0  0  0
   23.5718   67.0357   -1.1618 C   0  0  0  0  0  0  0  0  0  0  0  0
   24.3192   69.2185   -1.9283 C   0  0  0  0  0  0  0  0  0  0  0  0
   25.1013   68.7125   -2.8840 C   0  0  0  0  0  0  0  0  0  0  0  0
   25.1772   67.2473   -3.0559 C   0  0  0  0  0  0  0  0  0  0  0  0
   24.4253   65.5410   -2.2590 H   0  0  0  0  0  0  0  0  0  0  0  0
   21.3652   73.1503   -4.3912 O   0  0  0  0  0  0  0  0  0  0  0  0
   21.3282   73.6322   -5.9337 P   0  0  2  0  0  0  0  0  0  0  0  0
   22.6425   72.9368   -6.5714 O   0  0  0  0  0  0  0  0  0  0  0  0
   21.2677   75.1217   -6.1117 O   0  0  0  0  0  0  0  0  0  0  0  0
   20.0871   72.8300   -6.5827 O   0  0  0  0  0  0  0  0  0  0  0  0
   19.0075   70.9330   -5.6595 O   0  0  0  0  0  0  0  0  0  0  0  0
   18.4523   70.1215   -9.6700 O   0  0  0  0  0  0  0  0  0  0  0  0
   16.2198   70.9630   -8.0712 O   0  0  0  0  0  0  0  0  0  0  0  0
   20.9430   71.2853   -8.7636 O   0  0  0  0  0  0  0  0  0  0  0  0
   18.5704   70.9543   -8.5133 C   0  0  1  0  0  0  0  0  0  0  0  0
   17.4720   70.5597   -7.5240 C   0  0  1  0  0  0  0  0  0  0  0  0
   19.9513   70.7528   -7.8921 C   0  0  2  0  0  0  0  0  0  0  0  0
   17.6950   71.2195   -6.1565 C   0  0  1  0  0  0  0  0  0  0  0  0
   20.0510   71.4070   -6.5128 C   0  0  1  0  0  0  0  0  0  0  0  0
   17.5778   70.2451  -10.0695 H   0  0  0  0  0  0  0  0  0  0  0  0
   16.0915   70.5398   -8.9347 H   0  0  0  0  0  0  0  0  0  0  0  0
   20.8695   70.8629   -9.6331 H   0  0  0  0  0  0  0  0  0  0  0  0
   16.1109   69.5231   -5.5891 O   0  0  0  0  0  0  0  0  0  0  0  0
   16.7024   70.7170   -5.1104 C   0  0  0  0  0  0  0  0  0  0  0  0
   15.4770   69.1916   -4.9334 H   0  0  0  0  0  0  0  0  0  0  0  0
 25 28  1  0
 25 24  1  0
 25 26  1  6
 25 27  2  0
  1  4  1  0
  1 24  1  0
  1  2  1  6
  1  3  2  0
  6 11  1  0
  6 12  1  0
 29 36  1  0
 29 37  1  0
  9  7  1  1
  7 13  1  0
 10  8  1  1
  8 14  1  0
 37 28  1  6
  4  5  1  0
 33 30  1  6
 30 38  1  0
 34 31  1  6
 31 39  1  0
 35 32  1  6
 32 40  1  0
 41 42  1  0
 41 43  1  0
 15 19  2  0
 16 22  2  0
 12 17  1  6
 17 19  1  0
 17 20  1  0
 18 19  1  0
 18 22  1  0
 18 23  1  0
  9 10  1  0
  9 11  1  0
 10 12  1  0
 11  5  1  6
 33 34  1  0
 33 35  1  0
 34 36  1  0
 35 37  1  0
 36 42  1  1
 20 21  2  0
 21 22  1  0
M  CHG  2   2  -1  26  -1
M  END
>  <COMPND>  (197) 
    8629 

>  <AUTHOR>  (197) 
    GENERATED BY OPEN BABEL 3.1.1

>  <MASTER>  (197) 
        0    0    0    0    0    0    0    0   58    0   58    0

>  <minimizedAffinity>  (197) 
-8.97126

>  <CNNscore>  (197) 
0.2729777098

>  <CNNaffinity>  (197) 
4.1492848396

>  <CNN_VS>  (197) 
1.1326622963

>  <CNNaffinity_variance>  (197) 
0.5850682259

$$$$
198
     RDKit          3D

 43 45  0  0  0  0  0  0  0  0999 V2000
   17.9207   71.7465   -0.6465 P   0  0  2  0  0  0  0  0  0  0  0  0
   16.3724   72.1116   -0.9410 O   0  0  0  0  0  0  0  0  0  0  0  0
   18.3222   70.3473   -1.0104 O   0  0  0  0  0  0  0  0  0  0  0  0
   18.1281   72.1559    0.9050 O   0  0  0  0  0  0  0  0  0  0  0  0
   19.2341   72.9730    1.2467 C   0  0  0  0  0  0  0  0  0  0  0  0
   20.6768   71.1433    1.8338 O   0  0  0  0  0  0  0  0  0  0  0  0
   21.3968   72.7374    4.2692 O   0  0  0  0  0  0  0  0  0  0  0  0
   23.5251   73.1755    2.6215 O   0  0  0  0  0  0  0  0  0  0  0  0
   21.1155   73.1895    2.9457 C   0  0  1  0  0  0  0  0  0  0  0  0
   22.2782   72.8798    2.0260 C   0  0  2  0  0  0  0  0  0  0  0  0
   20.0131   72.3075    2.3729 C   0  0  1  0  0  0  0  0  0  0  0  0
   22.0902   71.3941    1.7699 C   0  0  2  0  0  0  0  0  0  0  0  0
   22.0978   73.2859    4.6560 H   0  0  0  0  0  0  0  0  0  0  0  0
   23.5966   74.1322    2.7641 H   0  0  0  0  0  0  0  0  0  0  0  0
   23.5081   69.0032    1.2687 O   0  0  0  0  0  0  0  0  0  0  0  0
   23.9096   69.9669   -3.2203 O   0  0  0  0  0  0  0  0  0  0  0  0
   22.5768   70.9949    0.4795 N   0  0  0  0  0  0  0  0  0  0  0  0
   23.7067   69.4849   -0.9661 N   0  0  0  0  0  0  0  0  0  0  0  0
   23.2782   69.7752    0.3355 C   0  0  0  0  0  0  0  0  0  0  0  0
   22.3568   71.8090   -0.6263 C   0  0  0  0  0  0  0  0  0  0  0  0
   22.7731   71.5184   -1.8606 C   0  0  0  0  0  0  0  0  0  0  0  0
   23.5136   70.2623   -2.0970 C   0  0  0  0  0  0  0  0  0  0  0  0
   24.1978   68.6404   -1.0904 H   0  0  0  0  0  0  0  0  0  0  0  0
   18.7241   72.9043   -1.4383 O   0  0  0  0  0  0  0  0  0  0  0  0
   18.4258   73.6253   -2.8540 P   0  0  2  0  0  0  0  0  0  0  0  0
   19.9041   73.9695   -3.4139 O   0  0  0  0  0  0  0  0  0  0  0  0
   17.5079   74.8096   -2.7600 O   0  0  0  0  0  0  0  0  0  0  0  0
   17.8929   72.4404   -3.8115 O   0  0  0  0  0  0  0  0  0  0  0  0
   16.3704   73.2391   -5.4427 O   0  0  0  0  0  0  0  0  0  0  0  0
   15.8643   69.1791   -5.9999 O   0  0  0  0  0  0  0  0  0  0  0  0
   17.2786   70.7155   -7.9715 O   0  0  0  0  0  0  0  0  0  0  0  0
   16.2243   70.2362   -3.3293 O   0  0  0  0  0  0  0  0  0  0  0  0
   16.5949   70.3727   -5.7053 C   0  0  1  0  0  0  0  0  0  0  0  0
   16.5123   71.2980   -6.9209 C   0  0  1  0  0  0  0  0  0  0  0  0
   15.9819   71.0427   -4.4770 C   0  0  2  0  0  0  0  0  0  0  0  0
   17.0413   72.6994   -6.5874 C   0  0  1  0  0  0  0  0  0  0  0  0
   16.5412   72.4505   -4.2634 C   0  0  1  0  0  0  0  0  0  0  0  0
   16.2487   68.7485   -6.7786 H   0  0  0  0  0  0  0  0  0  0  0  0
   16.9347   69.8308   -8.1720 H   0  0  0  0  0  0  0  0  0  0  0  0
   15.8653   69.3478   -3.4769 H   0  0  0  0  0  0  0  0  0  0  0  0
   17.6191   73.2731   -8.8337 O   0  0  0  0  0  0  0  0  0  0  0  0
   16.8232   73.6814   -7.7364 C   0  0  0  0  0  0  0  0  0  0  0  0
   17.4903   73.8888   -9.5726 H   0  0  0  0  0  0  0  0  0  0  0  0
 25 28  1  0
 25 24  1  0
 25 26  1  6
 25 27  2  0
  1  4  1  0
  1 24  1  0
  1  2  1  6
  1  3  2  0
  6 11  1  0
  6 12  1  0
 29 36  1  0
 29 37  1  0
  9  7  1  1
  7 13  1  0
 10  8  1  1
  8 14  1  0
 37 28  1  6
  4  5  1  0
 33 30  1  6
 30 38  1  0
 34 31  1  6
 31 39  1  0
 35 32  1  1
 32 40  1  0
 41 42  1  0
 41 43  1  0
 15 19  2  0
 16 22  2  0
 12 17  1  6
 17 19  1  0
 17 20  1  0
 18 19  1  0
 18 22  1  0
 18 23  1  0
  9 10  1  0
  9 11  1  0
 10 12  1  0
 11  5  1  6
 33 34  1  0
 33 35  1  0
 34 36  1  0
 35 37  1  0
 36 42  1  6
 20 21  2  0
 21 22  1  0
M  CHG  2   2  -1  26  -1
M  END
>  <COMPND>  (198) 
    8629 

>  <AUTHOR>  (198) 
    GENERATED BY OPEN BABEL 3.1.1

>  <MASTER>  (198) 
        0    0    0    0    0    0    0    0   58    0   58    0

>  <minimizedAffinity>  (198) 
-6.99602

>  <CNNscore>  (198) 
0.2625009120

>  <CNNaffinity>  (198) 
3.7384529114

>  <CNN_VS>  (198) 
0.9813473225

>  <CNNaffinity_variance>  (198) 
0.4498553276

$$$$
199
     RDKit          3D

 43 45  0  0  0  0  0  0  0  0999 V2000
   19.9215   70.9156   -2.1010 P   0  0  2  0  0  0  0  0  0  0  0  0
   18.8267   70.0709   -1.2613 O   0  0  0  0  0  0  0  0  0  0  0  0
   19.8134   72.4059   -1.9640 O   0  0  0  0  0  0  0  0  0  0  0  0
   19.7878   70.3368   -3.6060 O   0  0  0  0  0  0  0  0  0  0  0  0
   19.1320   71.1303   -4.5797 C   0  0  0  0  0  0  0  0  0  0  0  0
   16.8656   71.9193   -4.4589 O   0  0  0  0  0  0  0  0  0  0  0  0
   16.0952   69.3414   -5.7824 O   0  0  0  0  0  0  0  0  0  0  0  0
   16.0284   71.1154   -7.8524 O   0  0  0  0  0  0  0  0  0  0  0  0
   17.2527   70.1498   -5.9869 C   0  0  1  0  0  0  0  0  0  0  0  0
   16.8927   71.3951   -6.7700 C   0  0  2  0  0  0  0  0  0  0  0  0
   17.6643   70.7295   -4.6394 C   0  0  1  0  0  0  0  0  0  0  0  0
   16.2363   72.2579   -5.7056 C   0  0  2  0  0  0  0  0  0  0  0  0
   15.8137   68.9599   -6.6293 H   0  0  0  0  0  0  0  0  0  0  0  0
   16.4917   70.5642   -8.5023 H   0  0  0  0  0  0  0  0  0  0  0  0
   14.4467   74.2677   -4.8477 O   0  0  0  0  0  0  0  0  0  0  0  0
   17.0192   77.6087   -6.7081 O   0  0  0  0  0  0  0  0  0  0  0  0
   16.4140   73.6612   -5.9518 N   0  0  0  0  0  0  0  0  0  0  0  0
   15.7292   75.9296   -5.7746 N   0  0  0  0  0  0  0  0  0  0  0  0
   15.4561   74.5880   -5.4788 C   0  0  0  0  0  0  0  0  0  0  0  0
   17.5285   74.1057   -6.6547 C   0  0  0  0  0  0  0  0  0  0  0  0
   17.7737   75.3885   -6.9297 C   0  0  0  0  0  0  0  0  0  0  0  0
   16.8220   76.4210   -6.4710 C   0  0  0  0  0  0  0  0  0  0  0  0
   15.0754   76.5933   -5.4553 H   0  0  0  0  0  0  0  0  0  0  0  0
   21.3256   70.2938   -1.5961 O   0  0  0  0  0  0  0  0  0  0  0  0
   21.9101   70.0633   -0.1067 P   0  0  2  0  0  0  0  0  0  0  0  0
   23.4386   69.6057   -0.3746 O   0  0  0  0  0  0  0  0  0  0  0  0
   21.1124   69.1012    0.7253 O   0  0  0  0  0  0  0  0  0  0  0  0
   22.0321   71.5464    0.5183 O   0  0  0  0  0  0  0  0  0  0  0  0
   21.8365   71.3625    2.8729 O   0  0  0  0  0  0  0  0  0  0  0  0
   22.0328   75.4741    2.5463 O   0  0  0  0  0  0  0  0  0  0  0  0
   24.2814   74.0258    3.5924 O   0  0  0  0  0  0  0  0  0  0  0  0
   20.5651   73.9379    0.5803 O   0  0  0  0  0  0  0  0  0  0  0  0
   22.3428   74.1229    2.1949 C   0  0  1  0  0  0  0  0  0  0  0  0
   22.9919   73.4493    3.4056 C   0  0  1  0  0  0  0  0  0  0  0  0
   21.0547   73.4007    1.8043 C   0  0  2  0  0  0  0  0  0  0  0  0
   23.1092   71.9332    3.1993 C   0  0  1  0  0  0  0  0  0  0  0  0
   21.2707   71.8920    1.6724 C   0  0  1  0  0  0  0  0  0  0  0  0
   22.8465   75.9384    2.7949 H   0  0  0  0  0  0  0  0  0  0  0  0
   24.1933   74.9834    3.7211 H   0  0  0  0  0  0  0  0  0  0  0  0
   20.4322   74.8933    0.6769 H   0  0  0  0  0  0  0  0  0  0  0  0
   25.0237   71.2282    4.4428 O   0  0  0  0  0  0  0  0  0  0  0  0
   23.6081   71.2220    4.4553 C   0  0  0  0  0  0  0  0  0  0  0  0
   25.3554   70.7791    5.2366 H   0  0  0  0  0  0  0  0  0  0  0  0
 25 28  1  0
 25 24  1  0
 25 26  1  6
 25 27  2  0
  1  4  1  0
  1 24  1  0
  1  2  1  1
  1  3  2  0
  6 11  1  0
  6 12  1  0
 29 36  1  0
 29 37  1  0
  9  7  1  1
  7 13  1  0
 10  8  1  6
  8 14  1  0
 37 28  1  6
  4  5  1  0
 33 30  1  1
 30 38  1  0
 34 31  1  6
 31 39  1  0
 35 32  1  6
 32 40  1  0
 41 42  1  0
 41 43  1  0
 15 19  2  0
 16 22  2  0
 12 17  1  6
 17 19  1  0
 17 20  1  0
 18 19  1  0
 18 22  1  0
 18 23  1  0
  9 10  1  0
  9 11  1  0
 10 12  1  0
 11  5  1  6
 33 34  1  0
 33 35  1  0
 34 36  1  0
 35 37  1  0
 36 42  1  1
 20 21  2  0
 21 22  1  0
M  CHG  2   2  -1  26  -1
M  END
>  <COMPND>  (199) 
    8629 

>  <AUTHOR>  (199) 
    GENERATED BY OPEN BABEL 3.1.1

>  <MASTER>  (199) 
        0    0    0    0    0    0    0    0   58    0   58    0

>  <minimizedAffinity>  (199) 
-6.75778

>  <CNNscore>  (199) 
0.2573082447

>  <CNNaffinity>  (199) 
3.8511605263

>  <CNN_VS>  (199) 
0.9909353256

>  <CNNaffinity_variance>  (199) 
0.0994964093

$$$$
200
     RDKit          3D

 43 45  0  0  0  0  0  0  0  0999 V2000
   22.2750   72.4304   -3.8166 P   0  0  2  0  0  0  0  0  0  0  0  0
   21.5443   71.0263   -4.1514 O   0  0  0  0  0  0  0  0  0  0  0  0
   23.7593   72.4406   -4.0364 O   0  0  0  0  0  0  0  0  0  0  0  0
   21.7849   72.7746   -2.3136 O   0  0  0  0  0  0  0  0  0  0  0  0
   22.5783   72.3328   -1.2259 C   0  0  0  0  0  0  0  0  0  0  0  0
   21.8095   70.0595   -1.1038 O   0  0  0  0  0  0  0  0  0  0  0  0
   21.3379   70.5727    1.8126 O   0  0  0  0  0  0  0  0  0  0  0  0
   23.6962   69.2034    1.8238 O   0  0  0  0  0  0  0  0  0  0  0  0
   22.3794   71.0594    0.9678 C   0  0  1  0  0  0  0  0  0  0  0  0
   23.3752   69.9572    0.6725 C   0  0  2  0  0  0  0  0  0  0  0  0
   21.7818   71.3251   -0.4083 C   0  0  1  0  0  0  0  0  0  0  0  0
   22.6387   69.1396   -0.3750 C   0  0  2  0  0  0  0  0  0  0  0  0
   21.6955   70.3960    2.6974 H   0  0  0  0  0  0  0  0  0  0  0  0
   24.1633   69.7674    2.4598 H   0  0  0  0  0  0  0  0  0  0  0  0
   23.0142   66.3444   -0.5306 O   0  0  0  0  0  0  0  0  0  0  0  0
   26.0974   66.7635   -3.9305 O   0  0  0  0  0  0  0  0  0  0  0  0
   23.5332   68.4911   -1.2920 N   0  0  0  0  0  0  0  0  0  0  0  0
   24.5489   66.5553   -2.2235 N   0  0  0  0  0  0  0  0  0  0  0  0
   23.6486   67.0814   -1.2883 C   0  0  0  0  0  0  0  0  0  0  0  0
   24.2840   69.2511   -2.1822 C   0  0  0  0  0  0  0  0  0  0  0  0
   25.1391   68.7342   -3.0670 C   0  0  0  0  0  0  0  0  0  0  0  0
   25.3187   67.2692   -3.1282 C   0  0  0  0  0  0  0  0  0  0  0  0
   24.6461   65.5755   -2.2389 H   0  0  0  0  0  0  0  0  0  0  0  0
   21.4541   73.4914   -4.7184 O   0  0  0  0  0  0  0  0  0  0  0  0
   19.8794   73.8538   -4.7614 P   0  0  2  0  0  0  0  0  0  0  0  0
   19.6658   74.4021   -6.2685 O   0  0  0  0  0  0  0  0  0  0  0  0
   19.4374   74.8055   -3.6877 O   0  0  0  0  0  0  0  0  0  0  0  0
   19.1305   72.4243   -4.7378 O   0  0  0  0  0  0  0  0  0  0  0  0
   16.9847   71.4191   -4.6928 O   0  0  0  0  0  0  0  0  0  0  0  0
   18.5014   69.8950   -1.1675 O   0  0  0  0  0  0  0  0  0  0  0  0
   18.1949   68.1693   -3.4426 O   0  0  0  0  0  0  0  0  0  0  0  0
   19.1008   72.6200   -1.9385 O   0  0  0  0  0  0  0  0  0  0  0  0
   18.5592   70.3470   -2.5231 C   0  0  1  0  0  0  0  0  0  0  0  0
   17.6242   69.4723   -3.3606 C   0  0  1  0  0  0  0  0  0  0  0  0
   18.1223   71.8096   -2.5806 C   0  0  2  0  0  0  0  0  0  0  0  0
   17.4272   70.0587   -4.7651 C   0  0  1  0  0  0  0  0  0  0  0  0
   17.9074   72.2787   -4.0207 C   0  0  1  0  0  0  0  0  0  0  0  0
   18.7781   68.9670   -1.1239 H   0  0  0  0  0  0  0  0  0  0  0  0
   18.3145   67.8106   -2.5492 H   0  0  0  0  0  0  0  0  0  0  0  0
   19.2274   72.3131   -1.0277 H   0  0  0  0  0  0  0  0  0  0  0  0
   15.8870   70.1328   -6.5902 O   0  0  0  0  0  0  0  0  0  0  0  0
   16.3769   69.2898   -5.5637 C   0  0  0  0  0  0  0  0  0  0  0  0
   15.2178   69.6566   -7.1070 H   0  0  0  0  0  0  0  0  0  0  0  0
 25 28  1  0
 25 24  1  0
 25 26  1  6
 25 27  2  0
  1  4  1  0
  1 24  1  0
  1  2  1  6
  1  3  2  0
  6 11  1  0
  6 12  1  0
 29 36  1  0
 29 37  1  0
  9  7  1  1
  7 13  1  0
 10  8  1  1
  8 14  1  0
 37 28  1  6
  4  5  1  0
 33 30  1  1
 30 38  1  0
 34 31  1  6
 31 39  1  0
 35 32  1  6
 32 40  1  0
 41 42  1  0
 41 43  1  0
 15 19  2  0
 16 22  2  0
 12 17  1  6
 17 19  1  0
 17 20  1  0
 18 19  1  0
 18 22  1  0
 18 23  1  0
  9 10  1  0
  9 11  1  0
 10 12  1  0
 11  5  1  6
 33 34  1  0
 33 35  1  0
 34 36  1  0
 35 37  1  0
 36 42  1  1
 20 21  2  0
 21 22  1  0
M  CHG  2   2  -1  26  -1
M  END
