1
     RDKit          3D

 43 45  0  0  0  0  0  0  0  0999 V2000
   22.6248   71.7154   -2.7901 P   0  0  2  0  0  0  0  0  0  0  0  0
   22.1944   73.2097   -2.3440 O   0  0  0  0  0  0  0  0  0  0  0  0
   24.0558   71.5688   -3.2169 O   0  0  0  0  0  0  0  0  0  0  0  0
   21.5165   71.3055   -3.8953 O   0  0  0  0  0  0  0  0  0  0  0  0
   20.6530   70.2174   -3.6156 C   0  0  0  0  0  0  0  0  0  0  0  0
   18.8372   71.4543   -4.5884 O   0  0  0  0  0  0  0  0  0  0  0  0
   17.1051   70.2047   -2.4837 O   0  0  0  0  0  0  0  0  0  0  0  0
   16.5432   68.6991   -4.6869 O   0  0  0  0  0  0  0  0  0  0  0  0
   18.2104   69.6455   -3.1915 C   0  0  1  0  0  0  0  0  0  0  0  0
   17.8116   69.3179   -4.6153 C   0  0  2  0  0  0  0  0  0  0  0  0
   19.2427   70.7473   -3.3959 C   0  0  1  0  0  0  0  0  0  0  0  0
   17.8315   70.6881   -5.2713 C   0  0  2  0  0  0  0  0  0  0  0  0
   16.4327   69.5196   -2.3411 H   0  0  0  0  0  0  0  0  0  0  0  0
   16.5821   67.8309   -4.2562 H   0  0  0  0  0  0  0  0  0  0  0  0
   15.9750   70.1396   -7.3282 O   0  0  0  0  0  0  0  0  0  0  0  0
   19.2160   70.4600  -10.5892 O   0  0  0  0  0  0  0  0  0  0  0  0
   18.1628   70.6225   -6.6668 N   0  0  0  0  0  0  0  0  0  0  0  0
   17.5902   70.2998   -8.9503 N   0  0  0  0  0  0  0  0  0  0  0  0
   17.1562   70.3392   -7.6191 C   0  0  0  0  0  0  0  0  0  0  0  0
   19.4734   70.8382   -7.0787 C   0  0  0  0  0  0  0  0  0  0  0  0
   19.8713   70.7958   -8.3520 C   0  0  0  0  0  0  0  0  0  0  0  0
   18.8815   70.5060   -9.4095 C   0  0  0  0  0  0  0  0  0  0  0  0
   16.9064   70.1037   -9.6312 H   0  0  0  0  0  0  0  0  0  0  0  0
   22.2097   70.8201   -1.5098 O   0  0  0  0  0  0  0  0  0  0  0  0
   21.5133   71.2290   -0.1095 P   0  0  2  0  0  0  0  0  0  0  0  0
   21.5340   69.8475    0.7324 O   0  0  0  0  0  0  0  0  0  0  0  0
   20.1519   71.8446   -0.2559 O   0  0  0  0  0  0  0  0  0  0  0  0
   22.5978   72.1710    0.6264 O   0  0  0  0  0  0  0  0  0  0  0  0
   24.4101   72.2819    2.1494 O   0  0  0  0  0  0  0  0  0  0  0  0
   21.5210   74.1607    4.4239 O   0  0  0  0  0  0  0  0  0  0  0  0
   23.6522   75.7081    3.2788 O   0  0  0  0  0  0  0  0  0  0  0  0
   20.8089   71.8938    2.7707 O   0  0  0  0  0  0  0  0  0  0  0  0
   22.2032   73.8061    3.2180 C   0  0  1  0  0  0  0  0  0  0  0  0
   23.6524   74.2841    3.3286 C   0  0  1  0  0  0  0  0  0  0  0  0
   22.1491   72.2898    3.0414 C   0  0  2  0  0  0  0  0  0  0  0  0
   24.5131   73.7098    2.1953 C   0  0  1  0  0  0  0  0  0  0  0  0
   23.0779   71.8182    1.9211 C   0  0  1  0  0  0  0  0  0  0  0  0
   21.5512   75.1223    4.5418 H   0  0  0  0  0  0  0  0  0  0  0  0
   23.1048   76.0580    3.9992 H   0  0  0  0  0  0  0  0  0  0  0  0
   20.2310   72.1979    3.4872 H   0  0  0  0  0  0  0  0  0  0  0  0
   26.2027   75.3832    1.9635 O   0  0  0  0  0  0  0  0  0  0  0  0
   25.9922   74.0449    2.3744 C   0  0  0  0  0  0  0  0  0  0  0  0
   27.1399   75.6105    2.0722 H   0  0  0  0  0  0  0  0  0  0  0  0
 25 28  1  0
 25 24  1  0
 25 26  1  1
 25 27  2  0
  1  4  1  0
  1 24  1  0
  1  2  1  1
  1  3  2  0
  6 11  1  0
  6 12  1  0
 29 36  1  0
 29 37  1  0
  9  7  1  1
  7 13  1  0
 10  8  1  1
  8 14  1  0
 37 28  1  6
  4  5  1  0
 33 30  1  1
 30 38  1  0
 34 31  1  6
 31 39  1  0
 35 32  1  6
 32 40  1  0
 41 42  1  0
 41 43  1  0
 15 19  2  0
 16 22  2  0
 12 17  1  6
 17 19  1  0
 17 20  1  0
 18 19  1  0
 18 22  1  0
 18 23  1  0
  9 10  1  0
  9 11  1  0
 10 12  1  0
 11  5  1  6
 33 34  1  0
 33 35  1  0
 34 36  1  0
 35 37  1  0
 36 42  1  1
 20 21  2  0
 21 22  1  0
M  CHG  2   2  -1  26  -1
M  END
>  <COMPND>  (1) 
    8629 

>  <AUTHOR>  (1) 
    GENERATED BY OPEN BABEL 3.1.1

>  <MASTER>  (1) 
        0    0    0    0    0    0    0    0   58    0   58    0

>  <minimizedAffinity>  (1) 
-7.46912

>  <CNNscore>  (1) 
0.9410040379

>  <CNNaffinity>  (1) 
4.8144311905

>  <CNN_VS>  (1) 
4.5303993225

>  <CNNaffinity_variance>  (1) 
0.0346281864

$$$$
2
     RDKit          3D

 43 45  0  0  0  0  0  0  0  0999 V2000
   22.4640   71.5727   -2.9022 P   0  0  2  0  0  0  0  0  0  0  0  0
   22.0910   73.1053   -2.5423 O   0  0  0  0  0  0  0  0  0  0  0  0
   23.8911   71.3459   -3.3063 O   0  0  0  0  0  0  0  0  0  0  0  0
   21.3484   71.1477   -3.9942 O   0  0  0  0  0  0  0  0  0  0  0  0
   20.4205   70.1325   -3.6530 C   0  0  0  0  0  0  0  0  0  0  0  0
   18.7329   71.4792   -4.7077 O   0  0  0  0  0  0  0  0  0  0  0  0
   16.8344   70.3594   -2.6748 O   0  0  0  0  0  0  0  0  0  0  0  0
   16.2694   68.8793   -4.8944 O   0  0  0  0  0  0  0  0  0  0  0  0
   17.9298   69.7244   -3.3323 C   0  0  1  0  0  0  0  0  0  0  0  0
   17.5714   69.4143   -4.7706 C   0  0  2  0  0  0  0  0  0  0  0  0
   19.0399   70.7550   -3.4962 C   0  0  1  0  0  0  0  0  0  0  0  0
   17.7092   70.7759   -5.4303 C   0  0  2  0  0  0  0  0  0  0  0  0
   16.1130   69.7206   -2.5586 H   0  0  0  0  0  0  0  0  0  0  0  0
   16.2328   68.0133   -4.4592 H   0  0  0  0  0  0  0  0  0  0  0  0
   15.9407   70.1481   -7.5413 O   0  0  0  0  0  0  0  0  0  0  0  0
   19.2998   70.4326  -10.6840 O   0  0  0  0  0  0  0  0  0  0  0  0
   18.0947   70.6796   -6.8100 N   0  0  0  0  0  0  0  0  0  0  0  0
   17.6147   70.2904   -9.1044 N   0  0  0  0  0  0  0  0  0  0  0  0
   17.1293   70.3574   -7.7922 C   0  0  0  0  0  0  0  0  0  0  0  0
   19.4171   70.9038   -7.1772 C   0  0  0  0  0  0  0  0  0  0  0  0
   19.8641   70.8348   -8.4329 C   0  0  0  0  0  0  0  0  0  0  0  0
   18.9197   70.5037   -9.5194 C   0  0  0  0  0  0  0  0  0  0  0  0
   16.9602   70.0672   -9.8055 H   0  0  0  0  0  0  0  0  0  0  0  0
   22.0031   70.7662   -1.5792 O   0  0  0  0  0  0  0  0  0  0  0  0
   21.4498   71.2921   -0.1543 P   0  0  2  0  0  0  0  0  0  0  0  0
   21.4660   69.9604    0.7643 O   0  0  0  0  0  0  0  0  0  0  0  0
   20.1164   71.9780   -0.2271 O   0  0  0  0  0  0  0  0  0  0  0  0
   22.6417   72.2076    0.4340 O   0  0  0  0  0  0  0  0  0  0  0  0
   21.8425   73.7263    2.0685 O   0  0  0  0  0  0  0  0  0  0  0  0
   25.6771   75.1924    1.6248 O   0  0  0  0  0  0  0  0  0  0  0  0
   24.9742   73.7601    4.0128 O   0  0  0  0  0  0  0  0  0  0  0  0
   24.2188   74.2400   -0.6873 O   0  0  0  0  0  0  0  0  0  0  0  0
   24.6667   74.1816    1.6785 C   0  0  1  0  0  0  0  0  0  0  0  0
   24.0184   74.2248    3.0637 C   0  0  1  0  0  0  0  0  0  0  0  0
   23.6296   74.4543    0.5907 C   0  0  2  0  0  0  0  0  0  0  0  0
   22.7534   73.3572    3.1105 C   0  0  1  0  0  0  0  0  0  0  0  0
   22.3906   73.5727    0.7579 C   0  0  1  0  0  0  0  0  0  0  0  0
   26.3391   75.0248    2.3127 H   0  0  0  0  0  0  0  0  0  0  0  0
   25.7682   74.3161    3.9726 H   0  0  0  0  0  0  0  0  0  0  0  0
   25.0018   74.8040   -0.7809 H   0  0  0  0  0  0  0  0  0  0  0  0
   22.4583   72.5078    5.3242 O   0  0  0  0  0  0  0  0  0  0  0  0
   22.0042   73.5093    4.4325 C   0  0  0  0  0  0  0  0  0  0  0  0
   21.9903   72.5926    6.1701 H   0  0  0  0  0  0  0  0  0  0  0  0
 25 28  1  0
 25 24  1  0
 25 26  1  1
 25 27  2  0
  1  4  1  0
  1 24  1  0
  1  2  1  1
  1  3  2  0
  6 11  1  0
  6 12  1  0
 29 36  1  0
 29 37  1  0
  9  7  1  1
  7 13  1  0
 10  8  1  1
  8 14  1  0
 37 28  1  1
  4  5  1  0
 33 30  1  1
 30 38  1  0
 34 31  1  1
 31 39  1  0
 35 32  1  6
 32 40  1  0
 41 42  1  0
 41 43  1  0
 15 19  2  0
 16 22  2  0
 12 17  1  6
 17 19  1  0
 17 20  1  0
 18 19  1  0
 18 22  1  0
 18 23  1  0
  9 10  1  0
  9 11  1  0
 10 12  1  0
 11  5  1  6
 33 34  1  0
 33 35  1  0
 34 36  1  0
 35 37  1  0
 36 42  1  1
 20 21  2  0
 21 22  1  0
M  CHG  2   2  -1  26  -1
M  END
>  <COMPND>  (2) 
    8629 

>  <AUTHOR>  (2) 
    GENERATED BY OPEN BABEL 3.1.1

>  <MASTER>  (2) 
        0    0    0    0    0    0    0    0   58    0   58    0

>  <minimizedAffinity>  (2) 
-7.47587

>  <CNNscore>  (2) 
0.9261761904

>  <CNNaffinity>  (2) 
4.7291727066

>  <CNN_VS>  (2) 
4.3800473213

>  <CNNaffinity_variance>  (2) 
0.0295299329

$$$$
3
     RDKit          3D

 43 45  0  0  0  0  0  0  0  0999 V2000
   22.0846   71.8831   -2.6579 P   0  0  2  0  0  0  0  0  0  0  0  0
   21.7779   73.4391   -2.3383 O   0  0  0  0  0  0  0  0  0  0  0  0
   23.5126   71.5763   -3.0019 O   0  0  0  0  0  0  0  0  0  0  0  0
   20.9913   71.4954   -3.7859 O   0  0  0  0  0  0  0  0  0  0  0  0
   20.1333   70.3936   -3.5454 C   0  0  0  0  0  0  0  0  0  0  0  0
   18.3894   71.5727   -4.7040 O   0  0  0  0  0  0  0  0  0  0  0  0
   16.4956   70.3091   -2.7526 O   0  0  0  0  0  0  0  0  0  0  0  0
   16.1795   68.7610   -4.9752 O   0  0  0  0  0  0  0  0  0  0  0  0
   17.6755   69.7678   -3.3444 C   0  0  1  0  0  0  0  0  0  0  0  0
   17.4207   69.4116   -4.7941 C   0  0  2  0  0  0  0  0  0  0  0  0
   18.6967   70.8918   -3.4677 C   0  0  1  0  0  0  0  0  0  0  0  0
   17.4708   70.7730   -5.4666 C   0  0  2  0  0  0  0  0  0  0  0  0
   15.8288   69.6096   -2.6632 H   0  0  0  0  0  0  0  0  0  0  0  0
   16.1976   67.8998   -4.5293 H   0  0  0  0  0  0  0  0  0  0  0  0
   15.8252   70.1766   -7.6834 O   0  0  0  0  0  0  0  0  0  0  0  0
   19.3568   70.5069  -10.6262 O   0  0  0  0  0  0  0  0  0  0  0  0
   17.9339   70.6970   -6.8234 N   0  0  0  0  0  0  0  0  0  0  0  0
   17.5850   70.3417   -9.1469 N   0  0  0  0  0  0  0  0  0  0  0  0
   17.0260   70.3894   -7.8634 C   0  0  0  0  0  0  0  0  0  0  0  0
   19.2749   70.9264   -7.1118 C   0  0  0  0  0  0  0  0  0  0  0  0
   19.7923   70.8759   -8.3410 C   0  0  0  0  0  0  0  0  0  0  0  0
   18.9112   70.5609   -9.4841 C   0  0  0  0  0  0  0  0  0  0  0  0
   16.9714   70.1289   -9.8872 H   0  0  0  0  0  0  0  0  0  0  0  0
   21.5322   71.1258   -1.3410 O   0  0  0  0  0  0  0  0  0  0  0  0
   22.1319   71.0272    0.1569 P   0  0  2  0  0  0  0  0  0  0  0  0
   23.7289   71.1437   -0.0744 O   0  0  0  0  0  0  0  0  0  0  0  0
   21.7033   69.8025    0.9120 O   0  0  0  0  0  0  0  0  0  0  0  0
   21.7183   72.4224    0.8551 O   0  0  0  0  0  0  0  0  0  0  0  0
   20.6077   72.7728    2.9191 O   0  0  0  0  0  0  0  0  0  0  0  0
   19.0609   75.9543    0.7892 O   0  0  0  0  0  0  0  0  0  0  0  0
   20.9945   76.4382    2.8568 O   0  0  0  0  0  0  0  0  0  0  0  0
   19.4790   73.4067   -0.5203 O   0  0  0  0  0  0  0  0  0  0  0  0
   20.0630   75.0110    1.1787 C   0  0  1  0  0  0  0  0  0  0  0  0
   20.3339   75.1891    2.6739 C   0  0  1  0  0  0  0  0  0  0  0  0
   19.5589   73.5987    0.8880 C   0  0  2  0  0  0  0  0  0  0  0  0
   21.1961   74.0434    3.2209 C   0  0  1  0  0  0  0  0  0  0  0  0
   20.4615   72.5361    1.5175 C   0  0  1  0  0  0  0  0  0  0  0  0
   19.3749   76.8531    0.9707 H   0  0  0  0  0  0  0  0  0  0  0  0
   20.4398   77.1530    2.5068 H   0  0  0  0  0  0  0  0  0  0  0  0
   18.9046   74.0853   -0.9069 H   0  0  0  0  0  0  0  0  0  0  0  0
   22.5170   74.8544    5.0392 O   0  0  0  0  0  0  0  0  0  0  0  0
   21.3472   74.1158    4.7388 C   0  0  0  0  0  0  0  0  0  0  0  0
   22.6259   74.9090    6.0020 H   0  0  0  0  0  0  0  0  0  0  0  0
 25 28  1  0
 25 24  1  0
 25 26  1  6
 25 27  2  0
  1  4  1  0
  1 24  1  0
  1  2  1  1
  1  3  2  0
  6 11  1  0
  6 12  1  0
 29 36  1  0
 29 37  1  0
  9  7  1  6
  7 13  1  0
 10  8  1  1
  8 14  1  0
 37 28  1  6
  4  5  1  0
 33 30  1  1
 30 38  1  0
 34 31  1  6
 31 39  1  0
 35 32  1  6
 32 40  1  0
 41 42  1  0
 41 43  1  0
 15 19  2  0
 16 22  2  0
 12 17  1  6
 17 19  1  0
 17 20  1  0
 18 19  1  0
 18 22  1  0
 18 23  1  0
  9 10  1  0
  9 11  1  0
 10 12  1  0
 11  5  1  6
 33 34  1  0
 33 35  1  0
 34 36  1  0
 35 37  1  0
 36 42  1  1
 20 21  2  0
 21 22  1  0
M  CHG  2   2  -1  26  -1
M  END
>  <COMPND>  (3) 
    8629 

>  <AUTHOR>  (3) 
    GENERATED BY OPEN BABEL 3.1.1

>  <MASTER>  (3) 
        0    0    0    0    0    0    0    0   58    0   58    0

>  <minimizedAffinity>  (3) 
-6.82154

>  <CNNscore>  (3) 
0.8724430799

>  <CNNaffinity>  (3) 
4.5587787628

>  <CNN_VS>  (3) 
3.9772748947

>  <CNNaffinity_variance>  (3) 
0.0241136085

$$$$
4
     RDKit          3D

 43 45  0  0  0  0  0  0  0  0999 V2000
   21.9848   72.8452   -4.8050 P   0  0  2  0  0  0  0  0  0  0  0  0
   21.2534   74.2254   -5.2262 O   0  0  0  0  0  0  0  0  0  0  0  0
   23.2908   72.5836   -5.4959 O   0  0  0  0  0  0  0  0  0  0  0  0
   20.8412   71.7199   -5.0145 O   0  0  0  0  0  0  0  0  0  0  0  0
   20.2366   71.1486   -3.8674 C   0  0  0  0  0  0  0  0  0  0  0  0
   18.4014   72.0564   -5.1252 O   0  0  0  0  0  0  0  0  0  0  0  0
   16.6264   70.9548   -2.9741 O   0  0  0  0  0  0  0  0  0  0  0  0
   16.3667   69.1074   -4.9631 O   0  0  0  0  0  0  0  0  0  0  0  0
   17.8267   70.4103   -3.5202 C   0  0  1  0  0  0  0  0  0  0  0  0
   17.5680   69.8490   -4.9028 C   0  0  2  0  0  0  0  0  0  0  0  0
   18.7733   71.5664   -3.8183 C   0  0  1  0  0  0  0  0  0  0  0  0
   17.5206   71.1088   -5.7506 C   0  0  2  0  0  0  0  0  0  0  0  0
   16.0063   70.2352   -2.7753 H   0  0  0  0  0  0  0  0  0  0  0  0
   16.4467   68.3162   -4.4079 H   0  0  0  0  0  0  0  0  0  0  0  0
   15.8631   70.1703   -7.8362 O   0  0  0  0  0  0  0  0  0  0  0  0
   19.3249   70.2654  -10.8772 O   0  0  0  0  0  0  0  0  0  0  0  0
   17.9626   70.8797   -7.0973 N   0  0  0  0  0  0  0  0  0  0  0  0
   17.5881   70.2186   -9.3487 N   0  0  0  0  0  0  0  0  0  0  0  0
   17.0504   70.4065   -8.0690 C   0  0  0  0  0  0  0  0  0  0  0  0
   19.2872   71.1242   -7.4429 C   0  0  0  0  0  0  0  0  0  0  0  0
   19.7846   70.9387   -8.6675 C   0  0  0  0  0  0  0  0  0  0  0  0
   18.8977   70.4461   -9.7411 C   0  0  0  0  0  0  0  0  0  0  0  0
   16.9712   69.8890  -10.0420 H   0  0  0  0  0  0  0  0  0  0  0  0
   22.0869   72.9642   -3.1961 O   0  0  0  0  0  0  0  0  0  0  0  0
   21.8556   74.2224   -2.2080 P   0  0  2  0  0  0  0  0  0  0  0  0
   20.2445   74.3083   -2.0875 O   0  0  0  0  0  0  0  0  0  0  0  0
   22.5110   75.4931   -2.6659 O   0  0  0  0  0  0  0  0  0  0  0  0
   22.3454   73.7009   -0.7612 O   0  0  0  0  0  0  0  0  0  0  0  0
   24.3096   72.9006    0.2961 O   0  0  0  0  0  0  0  0  0  0  0  0
   21.7328   69.8269    1.2776 O   0  0  0  0  0  0  0  0  0  0  0  0
   22.5633   71.6831    3.3056 O   0  0  0  0  0  0  0  0  0  0  0  0
   21.5761   71.0639   -1.3349 O   0  0  0  0  0  0  0  0  0  0  0  0
   22.1024   71.1828    1.0125 C   0  0  1  0  0  0  0  0  0  0  0  0
   23.1760   71.5934    2.0223 C   0  0  1  0  0  0  0  0  0  0  0  0
   22.6391   71.2841   -0.4140 C   0  0  2  0  0  0  0  0  0  0  0  0
   23.8124   72.9362    1.6390 C   0  0  1  0  0  0  0  0  0  0  0  0
   23.2946   72.6413   -0.6758 C   0  0  1  0  0  0  0  0  0  0  0  0
   21.3907   69.7557    2.1817 H   0  0  0  0  0  0  0  0  0  0  0  0
   22.1649   70.8289    3.5354 H   0  0  0  0  0  0  0  0  0  0  0  0
   21.1696   70.2015   -1.1590 H   0  0  0  0  0  0  0  0  0  0  0  0
   24.4871   73.7721    3.7732 O   0  0  0  0  0  0  0  0  0  0  0  0
   24.9923   73.2884    2.5422 C   0  0  0  0  0  0  0  0  0  0  0  0
   25.2269   74.0001    4.3584 H   0  0  0  0  0  0  0  0  0  0  0  0
 25 28  1  0
 25 24  1  0
 25 26  1  1
 25 27  2  0
  1  4  1  0
  1 24  1  0
  1  2  1  6
  1  3  2  0
  6 11  1  0
  6 12  1  0
 29 36  1  0
 29 37  1  0
  9  7  1  6
  7 13  1  0
 10  8  1  1
  8 14  1  0
 37 28  1  1
  4  5  1  0
 33 30  1  1
 30 38  1  0
 34 31  1  1
 31 39  1  0
 35 32  1  6
 32 40  1  0
 41 42  1  0
 41 43  1  0
 15 19  2  0
 16 22  2  0
 12 17  1  6
 17 19  1  0
 17 20  1  0
 18 19  1  0
 18 22  1  0
 18 23  1  0
  9 10  1  0
  9 11  1  0
 10 12  1  0
 11  5  1  6
 33 34  1  0
 33 35  1  0
 34 36  1  0
 35 37  1  0
 36 42  1  1
 20 21  2  0
 21 22  1  0
M  CHG  2   2  -1  26  -1
M  END
>  <COMPND>  (4) 
    8629 

>  <AUTHOR>  (4) 
    GENERATED BY OPEN BABEL 3.1.1

>  <MASTER>  (4) 
        0    0    0    0    0    0    0    0   58    0   58    0

>  <minimizedAffinity>  (4) 
-7.10154

>  <CNNscore>  (4) 
0.8686871529

>  <CNNaffinity>  (4) 
4.5959711075

>  <CNN_VS>  (4) 
3.9924609661

>  <CNNaffinity_variance>  (4) 
0.0157573614

$$$$
5
     RDKit          3D

 43 45  0  0  0  0  0  0  0  0999 V2000
   22.6399   72.0983   -2.9397 P   0  0  2  0  0  0  0  0  0  0  0  0
   22.4475   73.6940   -2.7550 O   0  0  0  0  0  0  0  0  0  0  0  0
   24.0052   71.6728   -3.3938 O   0  0  0  0  0  0  0  0  0  0  0  0
   21.4132   71.6681   -3.9031 O   0  0  0  0  0  0  0  0  0  0  0  0
   20.6377   70.5371   -3.5462 C   0  0  0  0  0  0  0  0  0  0  0  0
   18.7440   71.6178   -4.5560 O   0  0  0  0  0  0  0  0  0  0  0  0
   17.0935   70.2997   -2.4278 O   0  0  0  0  0  0  0  0  0  0  0  0
   16.6521   68.7049   -4.5954 O   0  0  0  0  0  0  0  0  0  0  0  0
   18.2396   69.8035   -3.1174 C   0  0  1  0  0  0  0  0  0  0  0  0
   17.8729   69.4139   -4.5342 C   0  0  2  0  0  0  0  0  0  0  0  0
   19.1921   70.9706   -3.3449 C   0  0  1  0  0  0  0  0  0  0  0  0
   17.7990   70.7657   -5.2236 C   0  0  2  0  0  0  0  0  0  0  0  0
   16.4706   69.5721   -2.2709 H   0  0  0  0  0  0  0  0  0  0  0  0
   16.7501   67.8524   -4.1433 H   0  0  0  0  0  0  0  0  0  0  0  0
   15.9829   70.0945   -7.2801 O   0  0  0  0  0  0  0  0  0  0  0  0
   19.2263   70.5046  -10.5288 O   0  0  0  0  0  0  0  0  0  0  0  0
   18.1419   70.6900   -6.6158 N   0  0  0  0  0  0  0  0  0  0  0  0
   17.5993   70.2995   -8.8960 N   0  0  0  0  0  0  0  0  0  0  0  0
   17.1555   70.3431   -7.5682 C   0  0  0  0  0  0  0  0  0  0  0  0
   19.4437   70.9584   -7.0245 C   0  0  0  0  0  0  0  0  0  0  0  0
   19.8512   70.9112   -8.2945 C   0  0  0  0  0  0  0  0  0  0  0  0
   18.8825   70.5566   -9.3519 C   0  0  0  0  0  0  0  0  0  0  0  0
   16.9295   70.0596   -9.5770 H   0  0  0  0  0  0  0  0  0  0  0  0
   22.1957   71.5098   -1.5011 O   0  0  0  0  0  0  0  0  0  0  0  0
   23.0239   70.6692   -0.3964 P   0  0  2  0  0  0  0  0  0  0  0  0
   21.8679   70.1092    0.5871 O   0  0  0  0  0  0  0  0  0  0  0  0
   24.0990   71.4556    0.2963 O   0  0  0  0  0  0  0  0  0  0  0  0
   23.5531   69.3656   -1.1873 O   0  0  0  0  0  0  0  0  0  0  0  0
   24.6804   67.6886    0.0510 O   0  0  0  0  0  0  0  0  0  0  0  0
   25.9661   66.6843   -3.7424 O   0  0  0  0  0  0  0  0  0  0  0  0
   24.0479   65.0153   -2.4071 O   0  0  0  0  0  0  0  0  0  0  0  0
   25.6923   69.4690   -3.0006 O   0  0  0  0  0  0  0  0  0  0  0  0
   25.0377   67.1630   -2.7654 C   0  0  1  0  0  0  0  0  0  0  0  0
   24.7867   66.0434   -1.7534 C   0  0  1  0  0  0  0  0  0  0  0  0
   25.6291   68.3901   -2.0740 C   0  0  2  0  0  0  0  0  0  0  0  0
   24.0147   66.5627   -0.5329 C   0  0  1  0  0  0  0  0  0  0  0  0
   24.8129   68.7939   -0.8448 C   0  0  1  0  0  0  0  0  0  0  0  0
   25.5964   65.9055   -4.1854 H   0  0  0  0  0  0  0  0  0  0  0  0
   24.5461   64.6965   -3.1761 H   0  0  0  0  0  0  0  0  0  0  0  0
   26.2118   69.2009   -3.7739 H   0  0  0  0  0  0  0  0  0  0  0  0
   24.5988   65.9482    1.7010 O   0  0  0  0  0  0  0  0  0  0  0  0
   23.8907   65.5022    0.5590 C   0  0  0  0  0  0  0  0  0  0  0  0
   24.5284   65.2833    2.4043 H   0  0  0  0  0  0  0  0  0  0  0  0
 25 28  1  0
 25 24  1  0
 25 26  1  1
 25 27  2  0
  1  4  1  0
  1 24  1  0
  1  2  1  1
  1  3  2  0
  6 11  1  0
  6 12  1  0
 29 36  1  0
 29 37  1  0
  9  7  1  1
  7 13  1  0
 10  8  1  1
  8 14  1  0
 37 28  1  6
  4  5  1  0
 33 30  1  6
 30 38  1  0
 34 31  1  6
 31 39  1  0
 35 32  1  6
 32 40  1  0
 41 42  1  0
 41 43  1  0
 15 19  2  0
 16 22  2  0
 12 17  1  6
 17 19  1  0
 17 20  1  0
 18 19  1  0
 18 22  1  0
 18 23  1  0
  9 10  1  0
  9 11  1  0
 10 12  1  0
 11  5  1  6
 33 34  1  0
 33 35  1  0
 34 36  1  0
 35 37  1  0
 36 42  1  1
 20 21  2  0
 21 22  1  0
M  CHG  2   2  -1  26  -1
M  END
>  <COMPND>  (5) 
    8629 

>  <AUTHOR>  (5) 
    GENERATED BY OPEN BABEL 3.1.1

>  <MASTER>  (5) 
        0    0    0    0    0    0    0    0   58    0   58    0

>  <minimizedAffinity>  (5) 
-9.39904

>  <CNNscore>  (5) 
0.8136020303

>  <CNNaffinity>  (5) 
5.0486807823

>  <CNN_VS>  (5) 
4.1076169014

>  <CNNaffinity_variance>  (5) 
0.0739728585

$$$$
6
     RDKit          3D

 43 45  0  0  0  0  0  0  0  0999 V2000
   21.2079   72.5455   -2.6654 P   0  0  2  0  0  0  0  0  0  0  0  0
   20.8443   72.8454   -1.1177 O   0  0  0  0  0  0  0  0  0  0  0  0
   22.0702   73.5807   -3.3259 O   0  0  0  0  0  0  0  0  0  0  0  0
   19.7697   72.2829   -3.3585 O   0  0  0  0  0  0  0  0  0  0  0  0
   19.1918   70.9937   -3.2493 C   0  0  0  0  0  0  0  0  0  0  0  0
   17.4106   71.6838   -4.7070 O   0  0  0  0  0  0  0  0  0  0  0  0
   15.6126   69.9955   -3.0019 O   0  0  0  0  0  0  0  0  0  0  0  0
   16.0414   68.4018   -5.1728 O   0  0  0  0  0  0  0  0  0  0  0  0
   16.9673   69.7667   -3.3864 C   0  0  1  0  0  0  0  0  0  0  0  0
   17.0376   69.3471   -4.8399 C   0  0  2  0  0  0  0  0  0  0  0  0
   17.6823   71.1119   -3.4087 C   0  0  1  0  0  0  0  0  0  0  0  0
   16.8503   70.6719   -5.5597 C   0  0  2  0  0  0  0  0  0  0  0  0
   15.1357   69.1504   -2.9802 H   0  0  0  0  0  0  0  0  0  0  0  0
   16.2043   67.5766   -4.6898 H   0  0  0  0  0  0  0  0  0  0  0  0
   15.5674   70.3479   -8.0551 O   0  0  0  0  0  0  0  0  0  0  0  0
   19.5305   70.8198  -10.3601 O   0  0  0  0  0  0  0  0  0  0  0  0
   17.5226   70.7060   -6.8278 N   0  0  0  0  0  0  0  0  0  0  0  0
   17.5417   70.5833   -9.2008 N   0  0  0  0  0  0  0  0  0  0  0  0
   16.7860   70.5315   -8.0226 C   0  0  0  0  0  0  0  0  0  0  0  0
   18.8971   70.9110   -6.8782 C   0  0  0  0  0  0  0  0  0  0  0  0
   19.6032   70.9564   -8.0098 C   0  0  0  0  0  0  0  0  0  0  0  0
   18.9094   70.7832   -9.3024 C   0  0  0  0  0  0  0  0  0  0  0  0
   17.0498   70.4639  -10.0455 H   0  0  0  0  0  0  0  0  0  0  0  0
   21.8580   71.0667   -2.6060 O   0  0  0  0  0  0  0  0  0  0  0  0
   23.3586   70.5802   -2.2530 P   0  0  2  0  0  0  0  0  0  0  0  0
   24.2825   71.5060   -3.2053 O   0  0  0  0  0  0  0  0  0  0  0  0
   23.5820   69.1049   -2.4185 O   0  0  0  0  0  0  0  0  0  0  0  0
   23.6273   71.1342   -0.7611 O   0  0  0  0  0  0  0  0  0  0  0  0
   24.7791   70.2879    1.1293 O   0  0  0  0  0  0  0  0  0  0  0  0
   21.4150   71.7659    3.0134 O   0  0  0  0  0  0  0  0  0  0  0  0
   23.9225   73.1343    3.3095 O   0  0  0  0  0  0  0  0  0  0  0  0
   21.1753   70.4745    0.4338 O   0  0  0  0  0  0  0  0  0  0  0  0
   22.4548   71.7437    2.0317 C   0  0  1  0  0  0  0  0  0  0  0  0
   23.7999   71.8271    2.7559 C   0  0  1  0  0  0  0  0  0  0  0  0
   22.3558   70.4479    1.2289 C   0  0  2  0  0  0  0  0  0  0  0  0
   24.9638   71.5415    1.7973 C   0  0  1  0  0  0  0  0  0  0  0  0
   23.5860   70.2360    0.3447 C   0  0  1  0  0  0  0  0  0  0  0  0
   21.4719   72.5864    3.5263 H   0  0  0  0  0  0  0  0  0  0  0  0
   23.1813   73.3022    3.9125 H   0  0  0  0  0  0  0  0  0  0  0  0
   20.4038   70.6089    1.0051 H   0  0  0  0  0  0  0  0  0  0  0  0
   26.7430   72.7817    2.7999 O   0  0  0  0  0  0  0  0  0  0  0  0
   26.3018   71.4640    2.5293 C   0  0  0  0  0  0  0  0  0  0  0  0
   27.5936   72.7479    3.2659 H   0  0  0  0  0  0  0  0  0  0  0  0
 25 28  1  0
 25 24  1  0
 25 26  1  6
 25 27  2  0
  1  4  1  0
  1 24  1  0
  1  2  1  1
  1  3  2  0
  6 11  1  0
  6 12  1  0
 29 36  1  0
 29 37  1  0
  9  7  1  6
  7 13  1  0
 10  8  1  6
  8 14  1  0
 37 28  1  6
  4  5  1  0
 33 30  1  1
 30 38  1  0
 34 31  1  6
 31 39  1  0
 35 32  1  6
 32 40  1  0
 41 42  1  0
 41 43  1  0
 15 19  2  0
 16 22  2  0
 12 17  1  6
 17 19  1  0
 17 20  1  0
 18 19  1  0
 18 22  1  0
 18 23  1  0
  9 10  1  0
  9 11  1  0
 10 12  1  0
 11  5  1  6
 33 34  1  0
 33 35  1  0
 34 36  1  0
 35 37  1  0
 36 42  1  1
 20 21  2  0
 21 22  1  0
M  CHG  2   2  -1  26  -1
M  END
>  <COMPND>  (6) 
    8629 

>  <AUTHOR>  (6) 
    GENERATED BY OPEN BABEL 3.1.1

>  <MASTER>  (6) 
        0    0    0    0    0    0    0    0   58    0   58    0

>  <minimizedAffinity>  (6) 
-7.79664

>  <CNNscore>  (6) 
0.8052063584

>  <CNNaffinity>  (6) 
4.6030907631

>  <CNN_VS>  (6) 
3.7064380646

>  <CNNaffinity_variance>  (6) 
0.0415453278

$$$$
7
     RDKit          3D

 43 45  0  0  0  0  0  0  0  0999 V2000
   23.0849   72.9146   -4.2870 P   0  0  2  0  0  0  0  0  0  0  0  0
   23.7097   74.3785   -3.9971 O   0  0  0  0  0  0  0  0  0  0  0  0
   23.1608   72.4648   -5.7165 O   0  0  0  0  0  0  0  0  0  0  0  0
   21.5982   72.9944   -3.6535 O   0  0  0  0  0  0  0  0  0  0  0  0
   20.5477   73.5045   -4.4562 C   0  0  0  0  0  0  0  0  0  0  0  0
   18.3654   72.7336   -5.1016 O   0  0  0  0  0  0  0  0  0  0  0  0
   18.2490   71.3985   -2.4192 O   0  0  0  0  0  0  0  0  0  0  0  0
   18.8753   69.3322   -4.0849 O   0  0  0  0  0  0  0  0  0  0  0  0
   19.3646   71.5773   -3.2904 C   0  0  1  0  0  0  0  0  0  0  0  0
   19.2661   70.6341   -4.4711 C   0  0  2  0  0  0  0  0  0  0  0  0
   19.2244   72.9393   -3.9587 C   0  0  1  0  0  0  0  0  0  0  0  0
   18.2269   71.3231   -5.3391 C   0  0  2  0  0  0  0  0  0  0  0  0
   18.3166   70.5354   -1.9806 H   0  0  0  0  0  0  0  0  0  0  0  0
   19.5690   68.9361   -3.5347 H   0  0  0  0  0  0  0  0  0  0  0  0
   16.1497   70.7280   -7.1580 O   0  0  0  0  0  0  0  0  0  0  0  0
   19.0962   70.3465  -10.6814 O   0  0  0  0  0  0  0  0  0  0  0  0
   18.4228   71.0644   -6.7377 N   0  0  0  0  0  0  0  0  0  0  0  0
   17.6185   70.5387   -8.9109 N   0  0  0  0  0  0  0  0  0  0  0  0
   17.3125   70.7744   -7.5645 C   0  0  0  0  0  0  0  0  0  0  0  0
   19.7045   71.0998   -7.2761 C   0  0  0  0  0  0  0  0  0  0  0  0
   19.9795   70.8715   -8.5620 C   0  0  0  0  0  0  0  0  0  0  0  0
   18.8758   70.5613   -9.4934 C   0  0  0  0  0  0  0  0  0  0  0  0
   16.8608   70.3343   -9.5058 H   0  0  0  0  0  0  0  0  0  0  0  0
   23.8751   71.9686   -3.2412 O   0  0  0  0  0  0  0  0  0  0  0  0
   23.4649   70.5582   -2.5663 P   0  0  2  0  0  0  0  0  0  0  0  0
   24.8898   69.8248   -2.3443 O   0  0  0  0  0  0  0  0  0  0  0  0
   22.4749   69.7594   -3.3635 O   0  0  0  0  0  0  0  0  0  0  0  0
   22.9698   70.9454   -1.0798 O   0  0  0  0  0  0  0  0  0  0  0  0
   22.8214   73.0960   -0.0951 O   0  0  0  0  0  0  0  0  0  0  0  0
   23.8111   70.9011    3.2596 O   0  0  0  0  0  0  0  0  0  0  0  0
   21.1406   71.9161    2.9662 O   0  0  0  0  0  0  0  0  0  0  0  0
   25.0224   70.2649    0.7087 O   0  0  0  0  0  0  0  0  0  0  0  0
   23.1842   71.1389    1.9964 C   0  0  1  0  0  0  0  0  0  0  0  0
   22.2331   72.3275    2.1492 C   0  0  1  0  0  0  0  0  0  0  0  0
   24.2595   71.4413    0.9545 C   0  0  2  0  0  0  0  0  0  0  0  0
   21.7267   72.8110    0.7836 C   0  0  1  0  0  0  0  0  0  0  0  0
   23.6521   71.9615   -0.3496 C   0  0  1  0  0  0  0  0  0  0  0  0
   23.1338   70.7080    3.9256 H   0  0  0  0  0  0  0  0  0  0  0  0
   21.4739   71.6127    3.8253 H   0  0  0  0  0  0  0  0  0  0  0  0
   25.4018   69.9457    1.5418 H   0  0  0  0  0  0  0  0  0  0  0  0
   19.5657   73.7397    1.2034 O   0  0  0  0  0  0  0  0  0  0  0  0
   20.9029   74.0916    0.8997 C   0  0  0  0  0  0  0  0  0  0  0  0
   19.0296   74.5450    1.2807 H   0  0  0  0  0  0  0  0  0  0  0  0
 25 28  1  0
 25 24  1  0
 25 26  1  1
 25 27  2  0
  1  4  1  0
  1 24  1  0
  1  2  1  6
  1  3  2  0
  6 11  1  0
  6 12  1  0
 29 36  1  0
 29 37  1  0
  9  7  1  1
  7 13  1  0
 10  8  1  1
  8 14  1  0
 37 28  1  1
  4  5  1  0
 33 30  1  1
 30 38  1  0
 34 31  1  1
 31 39  1  0
 35 32  1  6
 32 40  1  0
 41 42  1  0
 41 43  1  0
 15 19  2  0
 16 22  2  0
 12 17  1  6
 17 19  1  0
 17 20  1  0
 18 19  1  0
 18 22  1  0
 18 23  1  0
  9 10  1  0
  9 11  1  0
 10 12  1  0
 11  5  1  6
 33 34  1  0
 33 35  1  0
 34 36  1  0
 35 37  1  0
 36 42  1  1
 20 21  2  0
 21 22  1  0
M  CHG  2   2  -1  26  -1
M  END
>  <COMPND>  (7) 
    8629 

>  <AUTHOR>  (7) 
    GENERATED BY OPEN BABEL 3.1.1

>  <MASTER>  (7) 
        0    0    0    0    0    0    0    0   58    0   58    0

>  <minimizedAffinity>  (7) 
-6.85369

>  <CNNscore>  (7) 
0.6862611175

>  <CNNaffinity>  (7) 
4.5289506912

>  <CNN_VS>  (7) 
3.1080427170

>  <CNNaffinity_variance>  (7) 
0.0896783248

$$$$
8
     RDKit          3D

 43 45  0  0  0  0  0  0  0  0999 V2000
   21.8334   72.6963   -5.8869 P   0  0  2  0  0  0  0  0  0  0  0  0
   21.0736   74.0643   -6.2979 O   0  0  0  0  0  0  0  0  0  0  0  0
   23.3172   72.7040   -6.1094 O   0  0  0  0  0  0  0  0  0  0  0  0
   21.0112   71.5446   -6.6715 O   0  0  0  0  0  0  0  0  0  0  0  0
   20.5114   71.8332   -7.9656 C   0  0  0  0  0  0  0  0  0  0  0  0
   19.2787   69.8683   -7.3382 O   0  0  0  0  0  0  0  0  0  0  0  0
   18.1605   69.9096  -10.1201 O   0  0  0  0  0  0  0  0  0  0  0  0
   16.1338   70.9886   -8.6487 O   0  0  0  0  0  0  0  0  0  0  0  0
   18.4864   71.0021   -9.2624 C   0  0  1  0  0  0  0  0  0  0  0  0
   17.4529   71.1341   -8.1633 C   0  0  2  0  0  0  0  0  0  0  0  0
   19.7378   70.6264   -8.4788 C   0  0  1  0  0  0  0  0  0  0  0  0
   17.8544   70.0153   -7.2171 C   0  0  2  0  0  0  0  0  0  0  0  0
   17.3644   70.1264  -10.6312 H   0  0  0  0  0  0  0  0  0  0  0  0
   15.9259   71.7242   -9.2458 H   0  0  0  0  0  0  0  0  0  0  0  0
   16.3501   68.3213   -5.5304 O   0  0  0  0  0  0  0  0  0  0  0  0
   16.6729   71.2552   -1.9907 O   0  0  0  0  0  0  0  0  0  0  0  0
   17.5308   70.3115   -5.8501 N   0  0  0  0  0  0  0  0  0  0  0  0
   16.5122   69.7834   -3.7692 N   0  0  0  0  0  0  0  0  0  0  0  0
   16.7689   69.3938   -5.0899 C   0  0  0  0  0  0  0  0  0  0  0  0
   17.9678   71.5005   -5.2764 C   0  0  0  0  0  0  0  0  0  0  0  0
   17.7135   71.8578   -4.0159 C   0  0  0  0  0  0  0  0  0  0  0  0
   16.9236   70.9551   -3.1538 C   0  0  0  0  0  0  0  0  0  0  0  0
   15.9828   69.1600   -3.2207 H   0  0  0  0  0  0  0  0  0  0  0  0
   21.3848   72.4793   -4.3491 O   0  0  0  0  0  0  0  0  0  0  0  0
   21.7459   71.3102   -3.2929 P   0  0  2  0  0  0  0  0  0  0  0  0
   23.3518   71.1697   -3.4296 O   0  0  0  0  0  0  0  0  0  0  0  0
   20.9916   70.0304   -3.5098 O   0  0  0  0  0  0  0  0  0  0  0  0
   21.5175   71.9838   -1.8440 O   0  0  0  0  0  0  0  0  0  0  0  0
   22.2689   70.3197   -0.3332 O   0  0  0  0  0  0  0  0  0  0  0  0
   21.3301   73.2933    2.3738 O   0  0  0  0  0  0  0  0  0  0  0  0
   24.0845   72.6780    1.8419 O   0  0  0  0  0  0  0  0  0  0  0  0
   19.6504   72.8690    0.0548 O   0  0  0  0  0  0  0  0  0  0  0  0
   21.8020   72.7633    1.1321 C   0  0  1  0  0  0  0  0  0  0  0  0
   22.9992   71.8558    1.4221 C   0  0  1  0  0  0  0  0  0  0  0  0
   20.6768   71.9728    0.4670 C   0  0  2  0  0  0  0  0  0  0  0  0
   23.3927   71.0443    0.1804 C   0  0  1  0  0  0  0  0  0  0  0  0
   21.1848   71.1631   -0.7274 C   0  0  1  0  0  0  0  0  0  0  0  0
   22.0397   73.7967    2.8011 H   0  0  0  0  0  0  0  0  0  0  0  0
   23.8228   73.1854    2.6263 H   0  0  0  0  0  0  0  0  0  0  0  0
   19.3370   73.3754    0.8198 H   0  0  0  0  0  0  0  0  0  0  0  0
   24.6417   69.9421    1.8934 O   0  0  0  0  0  0  0  0  0  0  0  0
   24.4815   70.0188    0.4889 C   0  0  0  0  0  0  0  0  0  0  0  0
   25.3314   69.2929    2.1046 H   0  0  0  0  0  0  0  0  0  0  0  0
 25 28  1  0
 25 24  1  0
 25 26  1  1
 25 27  2  0
  1  4  1  0
  1 24  1  0
  1  2  1  6
  1  3  2  0
  6 11  1  0
  6 12  1  0
 29 36  1  0
 29 37  1  0
  9  7  1  6
  7 13  1  0
 10  8  1  6
  8 14  1  0
 37 28  1  6
  4  5  1  0
 33 30  1  1
 30 38  1  0
 34 31  1  6
 31 39  1  0
 35 32  1  6
 32 40  1  0
 41 42  1  0
 41 43  1  0
 15 19  2  0
 16 22  2  0
 12 17  1  1
 17 19  1  0
 17 20  1  0
 18 19  1  0
 18 22  1  0
 18 23  1  0
  9 10  1  0
  9 11  1  0
 10 12  1  0
 11  5  1  1
 33 34  1  0
 33 35  1  0
 34 36  1  0
 35 37  1  0
 36 42  1  1
 20 21  2  0
 21 22  1  0
M  CHG  2   2  -1  26  -1
M  END
>  <COMPND>  (8) 
    8629 

>  <AUTHOR>  (8) 
    GENERATED BY OPEN BABEL 3.1.1

>  <MASTER>  (8) 
        0    0    0    0    0    0    0    0   58    0   58    0

>  <minimizedAffinity>  (8) 
-7.20884

>  <CNNscore>  (8) 
0.6851733923

>  <CNNaffinity>  (8) 
4.4484024048

>  <CNN_VS>  (8) 
3.0479269028

>  <CNNaffinity_variance>  (8) 
0.1200247183

$$$$
9
     RDKit          3D

 43 45  0  0  0  0  0  0  0  0999 V2000
   21.0203   74.4295   -4.0307 P   0  0  2  0  0  0  0  0  0  0  0  0
   20.5409   75.8591   -3.4443 O   0  0  0  0  0  0  0  0  0  0  0  0
   20.9817   74.3127   -5.5261 O   0  0  0  0  0  0  0  0  0  0  0  0
   20.1226   73.3558   -3.2187 O   0  0  0  0  0  0  0  0  0  0  0  0
   19.7798   72.1392   -3.8592 C   0  0  0  0  0  0  0  0  0  0  0  0
   17.7853   72.1657   -5.1990 O   0  0  0  0  0  0  0  0  0  0  0  0
   16.4706   70.7018   -2.9364 O   0  0  0  0  0  0  0  0  0  0  0  0
   16.9879   68.7024   -4.7172 O   0  0  0  0  0  0  0  0  0  0  0  0
   17.8061   70.5932   -3.4263 C   0  0  1  0  0  0  0  0  0  0  0  0
   17.8246   69.8409   -4.7405 C   0  0  2  0  0  0  0  0  0  0  0  0
   18.2653   71.9831   -3.8490 C   0  0  1  0  0  0  0  0  0  0  0  0
   17.3429   70.9004   -5.7170 C   0  0  2  0  0  0  0  0  0  0  0  0
   16.1556   69.8264   -2.6600 H   0  0  0  0  0  0  0  0  0  0  0  0
   17.3361   68.0579   -4.0814 H   0  0  0  0  0  0  0  0  0  0  0  0
   15.7963   70.4059   -8.0281 O   0  0  0  0  0  0  0  0  0  0  0  0
   19.5367   70.2218  -10.7146 O   0  0  0  0  0  0  0  0  0  0  0  0
   17.8866   70.7197   -7.0334 N   0  0  0  0  0  0  0  0  0  0  0  0
   17.6600   70.3148   -9.3639 N   0  0  0  0  0  0  0  0  0  0  0  0
   17.0232   70.4754   -8.1267 C   0  0  0  0  0  0  0  0  0  0  0  0
   19.2617   70.7856   -7.2304 C   0  0  0  0  0  0  0  0  0  0  0  0
   19.8533   70.6291   -8.4164 C   0  0  0  0  0  0  0  0  0  0  0  0
   19.0227   70.3703   -9.6102 C   0  0  0  0  0  0  0  0  0  0  0  0
   17.0785   70.1433  -10.1399 H   0  0  0  0  0  0  0  0  0  0  0  0
   22.4878   74.2430   -3.3790 O   0  0  0  0  0  0  0  0  0  0  0  0
   23.6216   73.1167   -3.6214 P   0  0  2  0  0  0  0  0  0  0  0  0
   25.0037   73.9480   -3.4935 O   0  0  0  0  0  0  0  0  0  0  0  0
   23.4713   72.3594   -4.9090 O   0  0  0  0  0  0  0  0  0  0  0  0
   23.5746   72.1976   -2.2955 O   0  0  0  0  0  0  0  0  0  0  0  0
   23.8755   69.8515   -2.4431 O   0  0  0  0  0  0  0  0  0  0  0  0
   21.8570   70.0327    1.1546 O   0  0  0  0  0  0  0  0  0  0  0  0
   24.6623   69.4179    1.1320 O   0  0  0  0  0  0  0  0  0  0  0  0
   21.1112   71.8037   -1.0103 O   0  0  0  0  0  0  0  0  0  0  0  0
   22.7630   70.4850    0.1447 C   0  0  1  0  0  0  0  0  0  0  0  0
   23.8480   69.4218   -0.0373 C   0  0  1  0  0  0  0  0  0  0  0  0
   21.9935   70.6964   -1.1579 C   0  0  2  0  0  0  0  0  0  0  0  0
   24.7004   69.7074   -1.2810 C   0  0  1  0  0  0  0  0  0  0  0  0
   22.9367   70.9239   -2.3406 C   0  0  1  0  0  0  0  0  0  0  0  0
   22.3392   69.8970    1.9844 H   0  0  0  0  0  0  0  0  0  0  0  0
   24.1119   69.2369    1.9102 H   0  0  0  0  0  0  0  0  0  0  0  0
   20.5192   71.6474   -0.2587 H   0  0  0  0  0  0  0  0  0  0  0  0
   26.3456   68.8584   -2.7915 O   0  0  0  0  0  0  0  0  0  0  0  0
   25.6859   68.5774   -1.5708 C   0  0  0  0  0  0  0  0  0  0  0  0
   26.9763   68.1477   -2.9886 H   0  0  0  0  0  0  0  0  0  0  0  0
 25 28  1  0
 25 24  1  0
 25 26  1  6
 25 27  2  0
  1  4  1  0
  1 24  1  0
  1  2  1  6
  1  3  2  0
  6 11  1  0
  6 12  1  0
 29 36  1  0
 29 37  1  0
  9  7  1  6
  7 13  1  0
 10  8  1  1
  8 14  1  0
 37 28  1  1
  4  5  1  0
 33 30  1  1
 30 38  1  0
 34 31  1  1
 31 39  1  0
 35 32  1  1
 32 40  1  0
 41 42  1  0
 41 43  1  0
 15 19  2  0
 16 22  2  0
 12 17  1  6
 17 19  1  0
 17 20  1  0
 18 19  1  0
 18 22  1  0
 18 23  1  0
  9 10  1  0
  9 11  1  0
 10 12  1  0
 11  5  1  6
 33 34  1  0
 33 35  1  0
 34 36  1  0
 35 37  1  0
 36 42  1  6
 20 21  2  0
 21 22  1  0
M  CHG  2   2  -1  26  -1
M  END
>  <COMPND>  (9) 
    8629 

>  <AUTHOR>  (9) 
    GENERATED BY OPEN BABEL 3.1.1

>  <MASTER>  (9) 
        0    0    0    0    0    0    0    0   58    0   58    0

>  <minimizedAffinity>  (9) 
-8.40975

>  <CNNscore>  (9) 
0.6579287052

>  <CNNaffinity>  (9) 
4.6046814919

>  <CNN_VS>  (9) 
3.0295522213

>  <CNNaffinity_variance>  (9) 
0.0854147673

$$$$
10
     RDKit          3D

 43 45  0  0  0  0  0  0  0  0999 V2000
   19.8364   73.9909   -1.5638 P   0  0  2  0  0  0  0  0  0  0  0  0
   18.5001   74.8695   -1.8088 O   0  0  0  0  0  0  0  0  0  0  0  0
   21.0920   74.5716   -2.1448 O   0  0  0  0  0  0  0  0  0  0  0  0
   19.4339   72.5159   -2.0932 O   0  0  0  0  0  0  0  0  0  0  0  0
   19.0736   72.3613   -3.4548 C   0  0  0  0  0  0  0  0  0  0  0  0
   17.1716   72.1100   -4.9015 O   0  0  0  0  0  0  0  0  0  0  0  0
   16.0341   70.3165   -2.7849 O   0  0  0  0  0  0  0  0  0  0  0  0
   16.9827   68.5394   -4.6229 O   0  0  0  0  0  0  0  0  0  0  0  0
   17.3890   70.4712   -3.2037 C   0  0  1  0  0  0  0  0  0  0  0  0
   17.6031   69.8067   -4.5476 C   0  0  2  0  0  0  0  0  0  0  0  0
   17.6124   71.9412   -3.5364 C   0  0  1  0  0  0  0  0  0  0  0  0
   16.9867   70.8169   -5.5003 C   0  0  2  0  0  0  0  0  0  0  0  0
   15.8676   69.3856   -2.5665 H   0  0  0  0  0  0  0  0  0  0  0  0
   17.4100   67.9324   -3.9986 H   0  0  0  0  0  0  0  0  0  0  0  0
   15.6508   70.2395   -7.9210 O   0  0  0  0  0  0  0  0  0  0  0  0
   19.4993   70.8056  -10.3928 O   0  0  0  0  0  0  0  0  0  0  0  0
   17.6152   70.8067   -6.7912 N   0  0  0  0  0  0  0  0  0  0  0  0
   17.5681   70.5220   -9.1498 N   0  0  0  0  0  0  0  0  0  0  0  0
   16.8548   70.5031   -7.9445 C   0  0  0  0  0  0  0  0  0  0  0  0
   18.9707   71.0959   -6.9043 C   0  0  0  0  0  0  0  0  0  0  0  0
   19.6363   71.1085   -8.0610 C   0  0  0  0  0  0  0  0  0  0  0  0
   18.9155   70.8022   -9.3134 C   0  0  0  0  0  0  0  0  0  0  0  0
   17.0590   70.3132   -9.9665 H   0  0  0  0  0  0  0  0  0  0  0  0
   19.8607   73.8065    0.0419 O   0  0  0  0  0  0  0  0  0  0  0  0
   21.0325   73.3027    1.0349 P   0  0  2  0  0  0  0  0  0  0  0  0
   20.2246   72.5054    2.1878 O   0  0  0  0  0  0  0  0  0  0  0  0
   21.9197   74.4004    1.5467 O   0  0  0  0  0  0  0  0  0  0  0  0
   21.8029   72.1514    0.2066 O   0  0  0  0  0  0  0  0  0  0  0  0
   24.1160   72.2326    0.7164 O   0  0  0  0  0  0  0  0  0  0  0  0
   24.1982   69.3828   -2.2707 O   0  0  0  0  0  0  0  0  0  0  0  0
   24.6147   68.5893    0.4579 O   0  0  0  0  0  0  0  0  0  0  0  0
   22.4111   71.6497   -2.4866 O   0  0  0  0  0  0  0  0  0  0  0  0
   23.6498   70.0772   -1.1471 C   0  0  1  0  0  0  0  0  0  0  0  0
   24.6279   69.9458    0.0220 C   0  0  1  0  0  0  0  0  0  0  0  0
   23.4486   71.5454   -1.5174 C   0  0  2  0  0  0  0  0  0  0  0  0
   24.2415   70.8815    1.1753 C   0  0  1  0  0  0  0  0  0  0  0  0
   23.1158   72.3968   -0.2908 C   0  0  1  0  0  0  0  0  0  0  0  0
   24.3280   68.4498   -2.0424 H   0  0  0  0  0  0  0  0  0  0  0  0
   24.8599   68.0090   -0.2799 H   0  0  0  0  0  0  0  0  0  0  0  0
   22.6338   71.1066   -3.2582 H   0  0  0  0  0  0  0  0  0  0  0  0
   26.5579   70.6368    1.7074 O   0  0  0  0  0  0  0  0  0  0  0  0
   25.2896   70.8833    2.2860 C   0  0  0  0  0  0  0  0  0  0  0  0
   27.2350   70.6353    2.4026 H   0  0  0  0  0  0  0  0  0  0  0  0
 25 28  1  0
 25 24  1  0
 25 26  1  1
 25 27  2  0
  1  4  1  0
  1 24  1  0
  1  2  1  1
  1  3  2  0
  6 11  1  0
  6 12  1  0
 29 36  1  0
 29 37  1  0
  9  7  1  6
  7 13  1  0
 10  8  1  1
  8 14  1  0
 37 28  1  1
  4  5  1  0
 33 30  1  6
 30 38  1  0
 34 31  1  1
 31 39  1  0
 35 32  1  6
 32 40  1  0
 41 42  1  0
 41 43  1  0
 15 19  2  0
 16 22  2  0
 12 17  1  6
 17 19  1  0
 17 20  1  0
 18 19  1  0
 18 22  1  0
 18 23  1  0
  9 10  1  0
  9 11  1  0
 10 12  1  0
 11  5  1  6
 33 34  1  0
 33 35  1  0
 34 36  1  0
 35 37  1  0
 36 42  1  1
 20 21  2  0
 21 22  1  0
M  CHG  2   2  -1  26  -1
M  END
>  <COMPND>  (10) 
    8629 

>  <AUTHOR>  (10) 
    GENERATED BY OPEN BABEL 3.1.1

>  <MASTER>  (10) 
        0    0    0    0    0    0    0    0   58    0   58    0

>  <minimizedAffinity>  (10) 
-6.90690

>  <CNNscore>  (10) 
0.6398388147

>  <CNNaffinity>  (10) 
4.4190278053

>  <CNN_VS>  (10) 
2.8274655342

>  <CNNaffinity_variance>  (10) 
0.1110149398

$$$$
11
     RDKit          3D

 43 45  0  0  0  0  0  0  0  0999 V2000
   22.0564   72.8611   -6.0105 P   0  0  2  0  0  0  0  0  0  0  0  0
   22.1257   74.0071   -7.1504 O   0  0  0  0  0  0  0  0  0  0  0  0
   23.3837   72.4469   -5.4466 O   0  0  0  0  0  0  0  0  0  0  0  0
   21.1860   71.6825   -6.6970 O   0  0  0  0  0  0  0  0  0  0  0  0
   20.3341   72.0141   -7.7797 C   0  0  0  0  0  0  0  0  0  0  0  0
   19.2412   69.9655   -7.1612 O   0  0  0  0  0  0  0  0  0  0  0  0
   18.2095   69.8850   -9.9754 O   0  0  0  0  0  0  0  0  0  0  0  0
   16.0597   70.8178   -8.5807 O   0  0  0  0  0  0  0  0  0  0  0  0
   18.4217   71.0100   -9.1242 C   0  0  1  0  0  0  0  0  0  0  0  0
   17.3477   71.0730   -8.0583 C   0  0  2  0  0  0  0  0  0  0  0  0
   19.6741   70.7439   -8.2983 C   0  0  1  0  0  0  0  0  0  0  0  0
   17.8067   70.0008   -7.0847 C   0  0  2  0  0  0  0  0  0  0  0  0
   17.4150   70.0319  -10.5131 H   0  0  0  0  0  0  0  0  0  0  0  0
   15.8131   71.5273   -9.1943 H   0  0  0  0  0  0  0  0  0  0  0  0
   16.3045   68.2528   -5.4520 O   0  0  0  0  0  0  0  0  0  0  0  0
   16.3750   71.2037   -1.9124 O   0  0  0  0  0  0  0  0  0  0  0  0
   17.4187   70.2868   -5.7323 N   0  0  0  0  0  0  0  0  0  0  0  0
   16.3410   69.7235   -3.6908 N   0  0  0  0  0  0  0  0  0  0  0  0
   16.6639   69.3416   -4.9992 C   0  0  0  0  0  0  0  0  0  0  0  0
   17.7866   71.4930   -5.1461 C   0  0  0  0  0  0  0  0  0  0  0  0
   17.4696   71.8425   -3.8977 C   0  0  0  0  0  0  0  0  0  0  0  0
   16.6823   70.9114   -3.0639 C   0  0  0  0  0  0  0  0  0  0  0  0
   15.8152   69.0809   -3.1612 H   0  0  0  0  0  0  0  0  0  0  0  0
   21.0313   73.4865   -4.9283 O   0  0  0  0  0  0  0  0  0  0  0  0
   21.2637   73.9759   -3.4053 P   0  0  2  0  0  0  0  0  0  0  0  0
   19.7592   74.1955   -2.8525 O   0  0  0  0  0  0  0  0  0  0  0  0
   22.1533   75.1781   -3.2742 O   0  0  0  0  0  0  0  0  0  0  0  0
   21.7950   72.6632   -2.6310 O   0  0  0  0  0  0  0  0  0  0  0  0
   22.4808   73.1379   -0.4127 O   0  0  0  0  0  0  0  0  0  0  0  0
   23.9426   69.2904   -0.7462 O   0  0  0  0  0  0  0  0  0  0  0  0
   21.6374   69.7945    0.8909 O   0  0  0  0  0  0  0  0  0  0  0  0
   24.0895   71.0919   -3.0073 O   0  0  0  0  0  0  0  0  0  0  0  0
   23.0198   70.3583   -0.9777 C   0  0  1  0  0  0  0  0  0  0  0  0
   22.4762   70.8240    0.3744 C   0  0  1  0  0  0  0  0  0  0  0  0
   23.7454   71.4998   -1.6875 C   0  0  2  0  0  0  0  0  0  0  0  0
   21.6894   72.1340    0.2337 C   0  0  1  0  0  0  0  0  0  0  0  0
   22.8942   72.7702   -1.7302 C   0  0  1  0  0  0  0  0  0  0  0  0
   23.4880   68.5621   -0.2962 H   0  0  0  0  0  0  0  0  0  0  0  0
   22.1461   68.9727    0.9744 H   0  0  0  0  0  0  0  0  0  0  0  0
   24.6284   70.2871   -2.9667 H   0  0  0  0  0  0  0  0  0  0  0  0
   21.8401   71.8936    2.6061 O   0  0  0  0  0  0  0  0  0  0  0  0
   21.2726   72.6993    1.5897 C   0  0  0  0  0  0  0  0  0  0  0  0
   21.5835   72.2417    3.4749 H   0  0  0  0  0  0  0  0  0  0  0  0
 25 28  1  0
 25 24  1  0
 25 26  1  1
 25 27  2  0
  1  4  1  0
  1 24  1  0
  1  2  1  6
  1  3  2  0
  6 11  1  0
  6 12  1  0
 29 36  1  0
 29 37  1  0
  9  7  1  6
  7 13  1  0
 10  8  1  6
  8 14  1  0
 37 28  1  6
  4  5  1  0
 33 30  1  1
 30 38  1  0
 34 31  1  6
 31 39  1  0
 35 32  1  6
 32 40  1  0
 41 42  1  0
 41 43  1  0
 15 19  2  0
 16 22  2  0
 12 17  1  1
 17 19  1  0
 17 20  1  0
 18 19  1  0
 18 22  1  0
 18 23  1  0
  9 10  1  0
  9 11  1  0
 10 12  1  0
 11  5  1  1
 33 34  1  0
 33 35  1  0
 34 36  1  0
 35 37  1  0
 36 42  1  1
 20 21  2  0
 21 22  1  0
M  CHG  2   2  -1  26  -1
M  END
>  <COMPND>  (11) 
    8629 

>  <AUTHOR>  (11) 
    GENERATED BY OPEN BABEL 3.1.1

>  <MASTER>  (11) 
        0    0    0    0    0    0    0    0   58    0   58    0

>  <minimizedAffinity>  (11) 
-7.43697

>  <CNNscore>  (11) 
0.6108822823

>  <CNNaffinity>  (11) 
4.3620548248

>  <CNN_VS>  (11) 
2.6647019386

>  <CNNaffinity_variance>  (11) 
0.4026536942

$$$$
12
     RDKit          3D

 43 45  0  0  0  0  0  0  0  0999 V2000
   21.9655   72.8842   -6.3664 P   0  0  2  0  0  0  0  0  0  0  0  0
   20.8642   74.0599   -6.2171 O   0  0  0  0  0  0  0  0  0  0  0  0
   23.1807   73.2520   -7.1660 O   0  0  0  0  0  0  0  0  0  0  0  0
   21.1154   71.6236   -6.9196 O   0  0  0  0  0  0  0  0  0  0  0  0
   20.6448   71.6595   -8.2556 C   0  0  0  0  0  0  0  0  0  0  0  0
   19.3494   69.9355   -7.1957 O   0  0  0  0  0  0  0  0  0  0  0  0
   17.8712   69.7082   -9.7945 O   0  0  0  0  0  0  0  0  0  0  0  0
   16.1600   71.1801   -8.2642 O   0  0  0  0  0  0  0  0  0  0  0  0
   18.4004   70.8691   -9.1561 C   0  0  1  0  0  0  0  0  0  0  0  0
   17.5403   71.2556   -7.9710 C   0  0  2  0  0  0  0  0  0  0  0  0
   19.7110   70.4789   -8.4842 C   0  0  1  0  0  0  0  0  0  0  0  0
   17.9720   70.2422   -6.9246 C   0  0  2  0  0  0  0  0  0  0  0  0
   17.0340   69.9327  -10.2311 H   0  0  0  0  0  0  0  0  0  0  0  0
   15.9350   71.8440   -8.9345 H   0  0  0  0  0  0  0  0  0  0  0  0
   17.0463   68.7484   -4.7134 O   0  0  0  0  0  0  0  0  0  0  0  0
   17.5937   72.3126   -1.8433 O   0  0  0  0  0  0  0  0  0  0  0  0
   17.8627   70.7548   -5.5880 N   0  0  0  0  0  0  0  0  0  0  0  0
   17.3198   70.5243   -3.2861 N   0  0  0  0  0  0  0  0  0  0  0  0
   17.3851   69.9222   -4.5491 C   0  0  0  0  0  0  0  0  0  0  0  0
   18.2273   72.0693   -5.3179 C   0  0  0  0  0  0  0  0  0  0  0  0
   18.1578   72.6288   -4.1082 C   0  0  0  0  0  0  0  0  0  0  0  0
   17.6693   71.8270   -2.9677 C   0  0  0  0  0  0  0  0  0  0  0  0
   16.9897   69.9634   -2.5471 H   0  0  0  0  0  0  0  0  0  0  0  0
   22.2685   72.4732   -4.8327 O   0  0  0  0  0  0  0  0  0  0  0  0
   23.2809   73.1076   -3.7438 P   0  0  2  0  0  0  0  0  0  0  0  0
   22.7246   74.6149   -3.5540 O   0  0  0  0  0  0  0  0  0  0  0  0
   24.7295   73.0261   -4.1297 O   0  0  0  0  0  0  0  0  0  0  0  0
   22.9141   72.3605   -2.3610 O   0  0  0  0  0  0  0  0  0  0  0  0
   23.3175   70.0356   -2.5816 O   0  0  0  0  0  0  0  0  0  0  0  0
   21.5385   70.0458    1.1447 O   0  0  0  0  0  0  0  0  0  0  0  0
   24.3623   69.5719    0.9229 O   0  0  0  0  0  0  0  0  0  0  0  0
   20.5644   71.8195   -0.9252 O   0  0  0  0  0  0  0  0  0  0  0  0
   22.3518   70.5623    0.0878 C   0  0  1  0  0  0  0  0  0  0  0  0
   23.4723   69.5582   -0.1896 C   0  0  1  0  0  0  0  0  0  0  0  0
   21.4873   70.7605   -1.1560 C   0  0  2  0  0  0  0  0  0  0  0  0
   24.2245   69.9100   -1.4801 C   0  0  1  0  0  0  0  0  0  0  0  0
   22.3369   71.0577   -2.3928 C   0  0  1  0  0  0  0  0  0  0  0  0
   22.0812   69.9181    1.9376 H   0  0  0  0  0  0  0  0  0  0  0  0
   23.8748   69.3486    1.7314 H   0  0  0  0  0  0  0  0  0  0  0  0
   20.0324   71.6192   -0.1399 H   0  0  0  0  0  0  0  0  0  0  0  0
   26.3797   68.9817   -1.0305 O   0  0  0  0  0  0  0  0  0  0  0  0
   25.2418   68.8363   -1.8601 C   0  0  0  0  0  0  0  0  0  0  0  0
   27.0356   68.3046   -1.2608 H   0  0  0  0  0  0  0  0  0  0  0  0
 25 28  1  0
 25 24  1  0
 25 26  1  1
 25 27  2  0
  1  4  1  0
  1 24  1  0
  1  2  1  1
  1  3  2  0
  6 11  1  0
  6 12  1  0
 29 36  1  0
 29 37  1  0
  9  7  1  1
  7 13  1  0
 10  8  1  6
  8 14  1  0
 37 28  1  1
  4  5  1  0
 33 30  1  1
 30 38  1  0
 34 31  1  1
 31 39  1  0
 35 32  1  1
 32 40  1  0
 41 42  1  0
 41 43  1  0
 15 19  2  0
 16 22  2  0
 12 17  1  1
 17 19  1  0
 17 20  1  0
 18 19  1  0
 18 22  1  0
 18 23  1  0
  9 10  1  0
  9 11  1  0
 10 12  1  0
 11  5  1  1
 33 34  1  0
 33 35  1  0
 34 36  1  0
 35 37  1  0
 36 42  1  6
 20 21  2  0
 21 22  1  0
M  CHG  2   2  -1  26  -1
M  END
>  <COMPND>  (12) 
    8629 

>  <AUTHOR>  (12) 
    GENERATED BY OPEN BABEL 3.1.1

>  <MASTER>  (12) 
        0    0    0    0    0    0    0    0   58    0   58    0

>  <minimizedAffinity>  (12) 
-8.14161

>  <CNNscore>  (12) 
0.4925895929

>  <CNNaffinity>  (12) 
4.2089567184

>  <CNN_VS>  (12) 
2.0732882023

>  <CNNaffinity_variance>  (12) 
0.4598954618

$$$$
13
     RDKit          3D

 43 45  0  0  0  0  0  0  0  0999 V2000
   19.9058   73.2045   -2.7331 P   0  0  2  0  0  0  0  0  0  0  0  0
   21.5068   73.4373   -2.7168 O   0  0  0  0  0  0  0  0  0  0  0  0
   19.1174   74.2709   -3.4349 O   0  0  0  0  0  0  0  0  0  0  0  0
   19.5325   72.9637   -1.1773 O   0  0  0  0  0  0  0  0  0  0  0  0
   20.5064   73.2665   -0.1936 C   0  0  0  0  0  0  0  0  0  0  0  0
   20.9049   70.9872    0.4541 O   0  0  0  0  0  0  0  0  0  0  0  0
   20.7003   71.9526    3.2855 O   0  0  0  0  0  0  0  0  0  0  0  0
   23.3950   71.7491    2.9203 O   0  0  0  0  0  0  0  0  0  0  0  0
   21.2560   72.6081    2.1468 C   0  0  1  0  0  0  0  0  0  0  0  0
   22.5905   71.9907    1.7840 C   0  0  2  0  0  0  0  0  0  0  0  0
   20.4013   72.2520    0.9368 C   0  0  1  0  0  0  0  0  0  0  0  0
   22.1657   70.7102    1.0854 C   0  0  2  0  0  0  0  0  0  0  0  0
   21.2292   72.1653    4.0710 H   0  0  0  0  0  0  0  0  0  0  0  0
   23.6391   72.5940    3.3293 H   0  0  0  0  0  0  0  0  0  0  0  0
   24.6076   69.4018    1.6365 O   0  0  0  0  0  0  0  0  0  0  0  0
   25.6993   69.1625   -2.8348 O   0  0  0  0  0  0  0  0  0  0  0  0
   23.1071   70.2943    0.0843 N   0  0  0  0  0  0  0  0  0  0  0  0
   25.1491   69.2836   -0.5903 N   0  0  0  0  0  0  0  0  0  0  0  0
   24.3044   69.6457    0.4667 C   0  0  0  0  0  0  0  0  0  0  0  0
   22.8388   70.5300   -1.2597 C   0  0  0  0  0  0  0  0  0  0  0  0
   23.6553   70.1796   -2.2556 C   0  0  0  0  0  0  0  0  0  0  0  0
   24.9273   69.4973   -1.9416 C   0  0  0  0  0  0  0  0  0  0  0  0
   25.9893   68.8307   -0.3479 H   0  0  0  0  0  0  0  0  0  0  0  0
   19.7598   71.7279   -3.3745 O   0  0  0  0  0  0  0  0  0  0  0  0
   18.4841   70.7417   -3.4891 P   0  0  2  0  0  0  0  0  0  0  0  0
   17.2557   71.6635   -2.9805 O   0  0  0  0  0  0  0  0  0  0  0  0
   18.6376   69.4479   -2.7432 O   0  0  0  0  0  0  0  0  0  0  0  0
   18.2384   70.5742   -5.0754 O   0  0  0  0  0  0  0  0  0  0  0  0
   19.1764   71.9272   -6.7802 O   0  0  0  0  0  0  0  0  0  0  0  0
   15.6344   70.8921   -8.6332 O   0  0  0  0  0  0  0  0  0  0  0  0
   18.1006   69.7328   -9.5398 O   0  0  0  0  0  0  0  0  0  0  0  0
   15.6694   71.4467   -5.7923 O   0  0  0  0  0  0  0  0  0  0  0  0
   16.7739   70.6875   -7.7936 C   0  0  1  0  0  0  0  0  0  0  0  0
   18.0334   70.8422   -8.6483 C   0  0  1  0  0  0  0  0  0  0  0  0
   16.7572   71.7208   -6.6688 C   0  0  2  0  0  0  0  0  0  0  0  0
   19.2928   70.9017   -7.7734 C   0  0  1  0  0  0  0  0  0  0  0  0
   18.0747   71.7311   -5.8915 C   0  0  1  0  0  0  0  0  0  0  0  0
   15.6388   70.2389   -9.3493 H   0  0  0  0  0  0  0  0  0  0  0  0
   17.2993   69.7064  -10.0861 H   0  0  0  0  0  0  0  0  0  0  0  0
   14.8412   71.4432   -6.2963 H   0  0  0  0  0  0  0  0  0  0  0  0
   21.1506   72.3766   -8.0600 O   0  0  0  0  0  0  0  0  0  0  0  0
   20.5437   71.2134   -8.5920 C   0  0  0  0  0  0  0  0  0  0  0  0
   21.9483   72.5869   -8.5710 H   0  0  0  0  0  0  0  0  0  0  0  0
 25 28  1  0
 25 24  1  0
 25 26  1  1
 25 27  2  0
  1  4  1  0
  1 24  1  0
  1  2  1  1
  1  3  2  0
  6 11  1  0
  6 12  1  0
 29 36  1  0
 29 37  1  0
  9  7  1  1
  7 13  1  0
 10  8  1  1
  8 14  1  0
 37 28  1  6
  4  5  1  0
 33 30  1  6
 30 38  1  0
 34 31  1  6
 31 39  1  0
 35 32  1  1
 32 40  1  0
 41 42  1  0
 41 43  1  0
 15 19  2  0
 16 22  2  0
 12 17  1  6
 17 19  1  0
 17 20  1  0
 18 19  1  0
 18 22  1  0
 18 23  1  0
  9 10  1  0
  9 11  1  0
 10 12  1  0
 11  5  1  6
 33 34  1  0
 33 35  1  0
 34 36  1  0
 35 37  1  0
 36 42  1  6
 20 21  2  0
 21 22  1  0
M  CHG  2   2  -1  26  -1
M  END
>  <COMPND>  (13) 
    8629 

>  <AUTHOR>  (13) 
    GENERATED BY OPEN BABEL 3.1.1

>  <MASTER>  (13) 
        0    0    0    0    0    0    0    0   58    0   58    0

>  <minimizedAffinity>  (13) 
-8.01999

>  <CNNscore>  (13) 
0.4454876482

>  <CNNaffinity>  (13) 
4.0802087784

>  <CNN_VS>  (13) 
1.8176826239

>  <CNNaffinity_variance>  (13) 
0.3301499784

$$$$
14
     RDKit          3D

 43 45  0  0  0  0  0  0  0  0999 V2000
   19.9569   74.9657   -4.1971 P   0  0  2  0  0  0  0  0  0  0  0  0
   21.4692   74.8762   -3.6294 O   0  0  0  0  0  0  0  0  0  0  0  0
   18.9668   75.6009   -3.2657 O   0  0  0  0  0  0  0  0  0  0  0  0
   19.6220   73.4492   -4.6508 O   0  0  0  0  0  0  0  0  0  0  0  0
   19.6011   72.4361   -3.6603 C   0  0  0  0  0  0  0  0  0  0  0  0
   17.5567   71.9451   -4.8236 O   0  0  0  0  0  0  0  0  0  0  0  0
   16.8452   70.2344   -2.4661 O   0  0  0  0  0  0  0  0  0  0  0  0
   17.6916   68.3999   -4.2978 O   0  0  0  0  0  0  0  0  0  0  0  0
   18.1191   70.4542   -3.0696 C   0  0  1  0  0  0  0  0  0  0  0  0
   18.2130   69.7104   -4.3854 C   0  0  2  0  0  0  0  0  0  0  0  0
   18.1798   71.9081   -3.5210 C   0  0  1  0  0  0  0  0  0  0  0  0
   17.4014   70.6019   -5.3099 C   0  0  2  0  0  0  0  0  0  0  0  0
   16.7830   69.3124   -2.1693 H   0  0  0  0  0  0  0  0  0  0  0  0
   18.2421   67.8722   -3.6985 H   0  0  0  0  0  0  0  0  0  0  0  0
   15.7375   70.0844   -7.5328 O   0  0  0  0  0  0  0  0  0  0  0  0
   19.2677   70.3955  -10.4794 O   0  0  0  0  0  0  0  0  0  0  0  0
   17.8592   70.5423   -6.6694 N   0  0  0  0  0  0  0  0  0  0  0  0
   17.4966   70.2399   -8.9982 N   0  0  0  0  0  0  0  0  0  0  0  0
   16.9421   70.2747   -7.7124 C   0  0  0  0  0  0  0  0  0  0  0  0
   19.2040   70.7483   -6.9574 C   0  0  0  0  0  0  0  0  0  0  0  0
   19.7171   70.7105   -8.1889 C   0  0  0  0  0  0  0  0  0  0  0  0
   18.8264   70.4369   -9.3351 C   0  0  0  0  0  0  0  0  0  0  0  0
   16.8766   70.0548   -9.7406 H   0  0  0  0  0  0  0  0  0  0  0  0
   20.1429   75.7341   -5.6071 O   0  0  0  0  0  0  0  0  0  0  0  0
   19.1441   76.7059   -6.4262 P   0  0  2  0  0  0  0  0  0  0  0  0
   20.0521   77.2107   -7.6665 O   0  0  0  0  0  0  0  0  0  0  0  0
   18.5497   77.8120   -5.6034 O   0  0  0  0  0  0  0  0  0  0  0  0
   18.0612   75.7114   -7.0920 O   0  0  0  0  0  0  0  0  0  0  0  0
   16.0337   76.1873   -8.2230 O   0  0  0  0  0  0  0  0  0  0  0  0
   14.8923   72.7495   -6.2407 O   0  0  0  0  0  0  0  0  0  0  0  0
   15.3275   72.6718   -9.0784 O   0  0  0  0  0  0  0  0  0  0  0  0
   16.6121   74.6710   -4.9257 O   0  0  0  0  0  0  0  0  0  0  0  0
   15.7964   73.6160   -6.9314 C   0  0  1  0  0  0  0  0  0  0  0  0
   15.2336   73.8803   -8.3294 C   0  0  1  0  0  0  0  0  0  0  0  0
   15.9311   74.9218   -6.1503 C   0  0  2  0  0  0  0  0  0  0  0  0
   16.0036   75.0062   -9.0327 C   0  0  1  0  0  0  0  0  0  0  0  0
   16.6699   75.9899   -6.9588 C   0  0  1  0  0  0  0  0  0  0  0  0
   14.8026   71.9183   -6.7312 H   0  0  0  0  0  0  0  0  0  0  0  0
   14.8376   71.9690   -8.6232 H   0  0  0  0  0  0  0  0  0  0  0  0
   16.1344   73.9935   -4.4231 H   0  0  0  0  0  0  0  0  0  0  0  0
   14.0287   74.9169  -10.3746 O   0  0  0  0  0  0  0  0  0  0  0  0
   15.3617   75.3936  -10.3631 C   0  0  0  0  0  0  0  0  0  0  0  0
   13.6075   75.1565  -11.2153 H   0  0  0  0  0  0  0  0  0  0  0  0
 25 28  1  0
 25 24  1  0
 25 26  1  6
 25 27  2  0
  1  4  1  0
  1 24  1  0
  1  2  1  1
  1  3  2  0
  6 11  1  0
  6 12  1  0
 29 36  1  0
 29 37  1  0
  9  7  1  6
  7 13  1  0
 10  8  1  1
  8 14  1  0
 37 28  1  6
  4  5  1  0
 33 30  1  1
 30 38  1  0
 34 31  1  6
 31 39  1  0
 35 32  1  1
 32 40  1  0
 41 42  1  0
 41 43  1  0
 15 19  2  0
 16 22  2  0
 12 17  1  6
 17 19  1  0
 17 20  1  0
 18 19  1  0
 18 22  1  0
 18 23  1  0
  9 10  1  0
  9 11  1  0
 10 12  1  0
 11  5  1  6
 33 34  1  0
 33 35  1  0
 34 36  1  0
 35 37  1  0
 36 42  1  6
 20 21  2  0
 21 22  1  0
M  CHG  2   2  -1  26  -1
M  END
>  <COMPND>  (14) 
    8629 

>  <AUTHOR>  (14) 
    GENERATED BY OPEN BABEL 3.1.1

>  <MASTER>  (14) 
        0    0    0    0    0    0    0    0   58    0   58    0

>  <minimizedAffinity>  (14) 
-5.46439

>  <CNNscore>  (14) 
0.4366407096

>  <CNNaffinity>  (14) 
4.0237736702

>  <CNN_VS>  (14) 
1.7569433451

>  <CNNaffinity_variance>  (14) 
0.6250045896

$$$$
15
     RDKit          3D

 43 45  0  0  0  0  0  0  0  0999 V2000
   19.2884   71.7988   -1.6863 P   0  0  2  0  0  0  0  0  0  0  0  0
   20.1589   72.3606   -2.9289 O   0  0  0  0  0  0  0  0  0  0  0  0
   18.6717   72.8541   -0.8160 O   0  0  0  0  0  0  0  0  0  0  0  0
   20.2927   70.7721   -0.9412 O   0  0  0  0  0  0  0  0  0  0  0  0
   21.6071   71.2091   -0.6427 C   0  0  0  0  0  0  0  0  0  0  0  0
   22.4850   69.2724    0.4763 O   0  0  0  0  0  0  0  0  0  0  0  0
   23.1692   71.1199    2.7368 O   0  0  0  0  0  0  0  0  0  0  0  0
   25.5678   70.8076    1.4775 O   0  0  0  0  0  0  0  0  0  0  0  0
   23.2050   71.3620    1.3313 C   0  0  1  0  0  0  0  0  0  0  0  0
   24.3926   70.6596    0.7069 C   0  0  2  0  0  0  0  0  0  0  0  0
   22.0310   70.6256    0.6982 C   0  0  1  0  0  0  0  0  0  0  0  0
   23.9110   69.2201    0.6458 C   0  0  2  0  0  0  0  0  0  0  0  0
   23.9095   71.5805    3.1630 H   0  0  0  0  0  0  0  0  0  0  0  0
   25.8339   71.7403    1.4858 H   0  0  0  0  0  0  0  0  0  0  0  0
   24.3848   66.4356    0.6413 O   0  0  0  0  0  0  0  0  0  0  0  0
   26.1191   66.5525   -3.6271 O   0  0  0  0  0  0  0  0  0  0  0  0
   24.4850   68.4967   -0.4536 N   0  0  0  0  0  0  0  0  0  0  0  0
   25.2478   66.4960   -1.4841 N   0  0  0  0  0  0  0  0  0  0  0  0
   24.6819   67.0996   -0.3538 C   0  0  0  0  0  0  0  0  0  0  0  0
   24.8457   69.1719   -1.6146 C   0  0  0  0  0  0  0  0  0  0  0  0
   25.3854   68.5818   -2.6831 C   0  0  0  0  0  0  0  0  0  0  0  0
   25.6243   67.1243   -2.6606 C   0  0  0  0  0  0  0  0  0  0  0  0
   25.3946   65.5234   -1.4373 H   0  0  0  0  0  0  0  0  0  0  0  0
   18.2266   70.8127   -2.4028 O   0  0  0  0  0  0  0  0  0  0  0  0
   18.4380   69.6327   -3.4871 P   0  0  2  0  0  0  0  0  0  0  0  0
   17.6054   68.3967   -2.8576 O   0  0  0  0  0  0  0  0  0  0  0  0
   19.8761   69.3222   -3.7862 O   0  0  0  0  0  0  0  0  0  0  0  0
   17.5733   70.0960   -4.7688 O   0  0  0  0  0  0  0  0  0  0  0  0
   19.0637   71.3781   -6.0923 O   0  0  0  0  0  0  0  0  0  0  0  0
   15.6917   71.6317   -8.4622 O   0  0  0  0  0  0  0  0  0  0  0  0
   17.8944   69.9910   -9.3013 O   0  0  0  0  0  0  0  0  0  0  0  0
   15.4417   71.7310   -5.5800 O   0  0  0  0  0  0  0  0  0  0  0  0
   16.6053   71.0030   -7.5592 C   0  0  1  0  0  0  0  0  0  0  0  0
   17.9760   70.9330   -8.2353 C   0  0  1  0  0  0  0  0  0  0  0  0
   16.6813   71.8245   -6.2736 C   0  0  2  0  0  0  0  0  0  0  0  0
   19.0653   70.5175   -7.2373 C   0  0  1  0  0  0  0  0  0  0  0  0
   17.8285   71.3608   -5.3740 C   0  0  1  0  0  0  0  0  0  0  0  0
   15.6385   71.1148   -9.2804 H   0  0  0  0  0  0  0  0  0  0  0  0
   17.2027   70.2647   -9.9240 H   0  0  0  0  0  0  0  0  0  0  0  0
   14.7237   72.0276   -6.1599 H   0  0  0  0  0  0  0  0  0  0  0  0
   20.5066   71.7022   -8.7301 O   0  0  0  0  0  0  0  0  0  0  0  0
   20.4619   70.5937   -7.8505 C   0  0  0  0  0  0  0  0  0  0  0  0
   21.3898   71.7634   -9.1276 H   0  0  0  0  0  0  0  0  0  0  0  0
 25 28  1  0
 25 24  1  0
 25 26  1  1
 25 27  2  0
  1  4  1  0
  1 24  1  0
  1  2  1  6
  1  3  2  0
  6 11  1  0
  6 12  1  0
 29 36  1  0
 29 37  1  0
  9  7  1  1
  7 13  1  0
 10  8  1  1
  8 14  1  0
 37 28  1  6
  4  5  1  0
 33 30  1  6
 30 38  1  0
 34 31  1  6
 31 39  1  0
 35 32  1  1
 32 40  1  0
 41 42  1  0
 41 43  1  0
 15 19  2  0
 16 22  2  0
 12 17  1  6
 17 19  1  0
 17 20  1  0
 18 19  1  0
 18 22  1  0
 18 23  1  0
  9 10  1  0
  9 11  1  0
 10 12  1  0
 11  5  1  6
 33 34  1  0
 33 35  1  0
 34 36  1  0
 35 37  1  0
 36 42  1  6
 20 21  2  0
 21 22  1  0
M  CHG  2   2  -1  26  -1
M  END
>  <COMPND>  (15) 
    8629 

>  <AUTHOR>  (15) 
    GENERATED BY OPEN BABEL 3.1.1

>  <MASTER>  (15) 
        0    0    0    0    0    0    0    0   58    0   58    0

>  <minimizedAffinity>  (15) 
-9.01952

>  <CNNscore>  (15) 
0.4287842214

>  <CNNaffinity>  (15) 
4.2422156334

>  <CNN_VS>  (15) 
1.8189951181

>  <CNNaffinity_variance>  (15) 
0.4164102674

$$$$
16
     RDKit          3D

 43 45  0  0  0  0  0  0  0  0999 V2000
   23.0704   73.7190   -4.2804 P   0  0  2  0  0  0  0  0  0  0  0  0
   24.0693   72.4592   -4.4607 O   0  0  0  0  0  0  0  0  0  0  0  0
   23.5881   75.0204   -4.8185 O   0  0  0  0  0  0  0  0  0  0  0  0
   22.7084   73.7049   -2.7035 O   0  0  0  0  0  0  0  0  0  0  0  0
   21.7241   74.6064   -2.2277 C   0  0  0  0  0  0  0  0  0  0  0  0
   21.0871   72.5439   -1.1722 O   0  0  0  0  0  0  0  0  0  0  0  0
   18.6146   73.9837   -0.2752 O   0  0  0  0  0  0  0  0  0  0  0  0
   20.1690   74.0194    1.9652 O   0  0  0  0  0  0  0  0  0  0  0  0
   19.9462   74.4770   -0.4123 C   0  0  1  0  0  0  0  0  0  0  0  0
   20.8180   73.9567    0.7115 C   0  0  2  0  0  0  0  0  0  0  0  0
   20.5698   73.8114   -1.6328 C   0  0  1  0  0  0  0  0  0  0  0  0
   21.0901   72.5303    0.2647 C   0  0  2  0  0  0  0  0  0  0  0  0
   18.1957   74.3948    0.4977 H   0  0  0  0  0  0  0  0  0  0  0  0
   20.0181   74.9469    2.2053 H   0  0  0  0  0  0  0  0  0  0  0  0
   21.6163   69.8444    0.9625 O   0  0  0  0  0  0  0  0  0  0  0  0
   26.0036   70.7856    2.0148 O   0  0  0  0  0  0  0  0  0  0  0  0
   22.3612   72.0456    0.7239 N   0  0  0  0  0  0  0  0  0  0  0  0
   23.8004   70.3152    1.4857 N   0  0  0  0  0  0  0  0  0  0  0  0
   22.5200   70.6784    1.0492 C   0  0  0  0  0  0  0  0  0  0  0  0
   23.4336   72.9222    0.8472 C   0  0  0  0  0  0  0  0  0  0  0  0
   24.6480   72.5603    1.2661 C   0  0  0  0  0  0  0  0  0  0  0  0
   24.8980   71.1497    1.6262 C   0  0  0  0  0  0  0  0  0  0  0  0
   23.9345   69.3678    1.7184 H   0  0  0  0  0  0  0  0  0  0  0  0
   21.7039   73.2012   -4.9715 O   0  0  0  0  0  0  0  0  0  0  0  0
   21.0330   73.5610   -6.3974 P   0  0  2  0  0  0  0  0  0  0  0  0
   22.0963   72.9742   -7.4664 O   0  0  0  0  0  0  0  0  0  0  0  0
   20.7134   75.0169   -6.5772 O   0  0  0  0  0  0  0  0  0  0  0  0
   19.7580   72.5777   -6.5088 O   0  0  0  0  0  0  0  0  0  0  0  0
   19.2927   70.4175   -5.6521 O   0  0  0  0  0  0  0  0  0  0  0  0
   17.7211   69.9757   -9.4450 O   0  0  0  0  0  0  0  0  0  0  0  0
   15.9517   70.1899   -7.1930 O   0  0  0  0  0  0  0  0  0  0  0  0
   20.1632   71.4817   -9.0602 O   0  0  0  0  0  0  0  0  0  0  0  0
   18.0446   70.6790   -8.2424 C   0  0  1  0  0  0  0  0  0  0  0  0
   17.3549   69.9728   -7.0735 C   0  0  1  0  0  0  0  0  0  0  0  0
   19.5605   70.6749   -8.0541 C   0  0  2  0  0  0  0  0  0  0  0  0
   17.8649   70.5035   -5.7269 C   0  0  1  0  0  0  0  0  0  0  0  0
   19.9584   71.1752   -6.6644 C   0  0  1  0  0  0  0  0  0  0  0  0
   16.7601   69.9751   -9.5707 H   0  0  0  0  0  0  0  0  0  0  0  0
   15.6425   69.8508   -8.0478 H   0  0  0  0  0  0  0  0  0  0  0  0
   19.9038   71.1546   -9.9352 H   0  0  0  0  0  0  0  0  0  0  0  0
   16.6344   68.5682   -5.0564 O   0  0  0  0  0  0  0  0  0  0  0  0
   17.3077   69.7058   -4.5498 C   0  0  0  0  0  0  0  0  0  0  0  0
   16.2748   68.0508   -4.3184 H   0  0  0  0  0  0  0  0  0  0  0  0
 25 28  1  0
 25 24  1  0
 25 26  1  6
 25 27  2  0
  1  4  1  0
  1 24  1  0
  1  2  1  1
  1  3  2  0
  6 11  1  0
  6 12  1  0
 29 36  1  0
 29 37  1  0
  9  7  1  1
  7 13  1  0
 10  8  1  1
  8 14  1  0
 37 28  1  6
  4  5  1  0
 33 30  1  6
 30 38  1  0
 34 31  1  6
 31 39  1  0
 35 32  1  6
 32 40  1  0
 41 42  1  0
 41 43  1  0
 15 19  2  0
 16 22  2  0
 12 17  1  6
 17 19  1  0
 17 20  1  0
 18 19  1  0
 18 22  1  0
 18 23  1  0
  9 10  1  0
  9 11  1  0
 10 12  1  0
 11  5  1  1
 33 34  1  0
 33 35  1  0
 34 36  1  0
 35 37  1  0
 36 42  1  1
 20 21  2  0
 21 22  1  0
M  CHG  2   2  -1  26  -1
M  END
>  <COMPND>  (16) 
    8629 

>  <AUTHOR>  (16) 
    GENERATED BY OPEN BABEL 3.1.1

>  <MASTER>  (16) 
        0    0    0    0    0    0    0    0   58    0   58    0

>  <minimizedAffinity>  (16) 
-7.45832

>  <CNNscore>  (16) 
0.4053488374

>  <CNNaffinity>  (16) 
4.2246999741

>  <CNN_VS>  (16) 
1.7124772072

>  <CNNaffinity_variance>  (16) 
0.1890386641

$$$$
17
     RDKit          3D

 43 45  0  0  0  0  0  0  0  0999 V2000
   22.9130   73.1008   -3.6842 P   0  0  2  0  0  0  0  0  0  0  0  0
   24.2264   72.5829   -4.4742 O   0  0  0  0  0  0  0  0  0  0  0  0
   22.9238   74.5572   -3.3232 O   0  0  0  0  0  0  0  0  0  0  0  0
   22.7742   72.0706   -2.4442 O   0  0  0  0  0  0  0  0  0  0  0  0
   23.2073   72.4927   -1.1628 C   0  0  0  0  0  0  0  0  0  0  0  0
   22.5893   70.2493   -0.5638 O   0  0  0  0  0  0  0  0  0  0  0  0
   22.3548   71.2643    2.2479 O   0  0  0  0  0  0  0  0  0  0  0  0
   24.7815   70.0205    2.2655 O   0  0  0  0  0  0  0  0  0  0  0  0
   23.2845   71.6325    1.2304 C   0  0  1  0  0  0  0  0  0  0  0  0
   24.3130   70.5379    1.0368 C   0  0  2  0  0  0  0  0  0  0  0  0
   22.5496   71.6181   -0.1042 C   0  0  1  0  0  0  0  0  0  0  0  0
   23.5344   69.5131    0.2297 C   0  0  2  0  0  0  0  0  0  0  0  0
   22.8011   71.2668    3.1097 H   0  0  0  0  0  0  0  0  0  0  0  0
   25.2701   70.7099    2.7416 H   0  0  0  0  0  0  0  0  0  0  0  0
   24.2371   66.8109    0.6571 O   0  0  0  0  0  0  0  0  0  0  0  0
   26.7817   66.6746   -3.1831 O   0  0  0  0  0  0  0  0  0  0  0  0
   24.3788   68.7468   -0.6428 N   0  0  0  0  0  0  0  0  0  0  0  0
   25.5034   66.7452   -1.2555 N   0  0  0  0  0  0  0  0  0  0  0  0
   24.6710   67.3971   -0.3368 C   0  0  0  0  0  0  0  0  0  0  0  0
   24.9073   69.3338   -1.7873 C   0  0  0  0  0  0  0  0  0  0  0  0
   25.7006   68.6987   -2.6526 C   0  0  0  0  0  0  0  0  0  0  0  0
   26.0545   67.2859   -2.4064 C   0  0  0  0  0  0  0  0  0  0  0  0
   25.7209   65.8043   -1.0627 H   0  0  0  0  0  0  0  0  0  0  0  0
   21.7034   72.6587   -4.6610 O   0  0  0  0  0  0  0  0  0  0  0  0
   20.9899   73.4357   -5.8858 P   0  0  2  0  0  0  0  0  0  0  0  0
   22.0264   73.2285   -7.1107 O   0  0  0  0  0  0  0  0  0  0  0  0
   20.6556   74.8698   -5.5934 O   0  0  0  0  0  0  0  0  0  0  0  0
   19.7190   72.5170   -6.2675 O   0  0  0  0  0  0  0  0  0  0  0  0
   19.1365   70.3391   -5.5367 O   0  0  0  0  0  0  0  0  0  0  0  0
   17.8327   70.0937   -9.4470 O   0  0  0  0  0  0  0  0  0  0  0  0
   15.9110   70.2700   -7.3200 O   0  0  0  0  0  0  0  0  0  0  0  0
   20.2790   71.5116   -8.8269 O   0  0  0  0  0  0  0  0  0  0  0  0
   18.0865   70.7391   -8.1963 C   0  0  1  0  0  0  0  0  0  0  0  0
   17.2957   70.0076   -7.1099 C   0  0  1  0  0  0  0  0  0  0  0  0
   19.5842   70.6834   -7.9007 C   0  0  2  0  0  0  0  0  0  0  0  0
   17.7205   70.4694   -5.7095 C   0  0  1  0  0  0  0  0  0  0  0  0
   19.8933   71.1165   -6.4665 C   0  0  1  0  0  0  0  0  0  0  0  0
   16.8835   70.1260   -9.6409 H   0  0  0  0  0  0  0  0  0  0  0  0
   15.6557   69.9742   -8.2080 H   0  0  0  0  0  0  0  0  0  0  0  0
   20.0752   71.2271   -9.7310 H   0  0  0  0  0  0  0  0  0  0  0  0
   16.5749   68.4406   -5.1800 O   0  0  0  0  0  0  0  0  0  0  0  0
   17.0589   69.6424   -4.6093 C   0  0  0  0  0  0  0  0  0  0  0  0
   16.1514   67.9039   -4.4913 H   0  0  0  0  0  0  0  0  0  0  0  0
 25 28  1  0
 25 24  1  0
 25 26  1  6
 25 27  2  0
  1  4  1  0
  1 24  1  0
  1  2  1  6
  1  3  2  0
  6 11  1  0
  6 12  1  0
 29 36  1  0
 29 37  1  0
  9  7  1  1
  7 13  1  0
 10  8  1  1
  8 14  1  0
 37 28  1  6
  4  5  1  0
 33 30  1  6
 30 38  1  0
 34 31  1  6
 31 39  1  0
 35 32  1  6
 32 40  1  0
 41 42  1  0
 41 43  1  0
 15 19  2  0
 16 22  2  0
 12 17  1  6
 17 19  1  0
 17 20  1  0
 18 19  1  0
 18 22  1  0
 18 23  1  0
  9 10  1  0
  9 11  1  0
 10 12  1  0
 11  5  1  6
 33 34  1  0
 33 35  1  0
 34 36  1  0
 35 37  1  0
 36 42  1  1
 20 21  2  0
 21 22  1  0
M  CHG  2   2  -1  26  -1
M  END
>  <COMPND>  (17) 
    8629 

>  <AUTHOR>  (17) 
    GENERATED BY OPEN BABEL 3.1.1

>  <MASTER>  (17) 
        0    0    0    0    0    0    0    0   58    0   58    0

>  <minimizedAffinity>  (17) 
-8.88936

>  <CNNscore>  (17) 
0.3675317466

>  <CNNaffinity>  (17) 
4.2130975723

>  <CNN_VS>  (17) 
1.5484471321

>  <CNNaffinity_variance>  (17) 
0.3679743707

$$$$
18
     RDKit          3D

 43 45  0  0  0  0  0  0  0  0999 V2000
   23.2097   72.8024   -3.1879 P   0  0  2  0  0  0  0  0  0  0  0  0
   24.0843   71.4645   -3.4379 O   0  0  0  0  0  0  0  0  0  0  0  0
   23.9529   74.0911   -3.3833 O   0  0  0  0  0  0  0  0  0  0  0  0
   22.5668   72.5776   -1.7202 O   0  0  0  0  0  0  0  0  0  0  0  0
   23.3998   72.7387   -0.5854 C   0  0  0  0  0  0  0  0  0  0  0  0
   23.9457   71.8032    1.5596 O   0  0  0  0  0  0  0  0  0  0  0  0
   21.5908   69.9907    1.1595 O   0  0  0  0  0  0  0  0  0  0  0  0
   20.5993   71.8898    2.8468 O   0  0  0  0  0  0  0  0  0  0  0  0
   21.7548   71.3549    0.7755 C   0  0  1  0  0  0  0  0  0  0  0  0
   21.6595   72.2574    1.9879 C   0  0  2  0  0  0  0  0  0  0  0  0
   23.2035   71.5506    0.3464 C   0  0  1  0  0  0  0  0  0  0  0  0
   23.0237   72.0687    2.6293 C   0  0  2  0  0  0  0  0  0  0  0  0
   20.6729   69.8413    1.4374 H   0  0  0  0  0  0  0  0  0  0  0  0
   19.7530   72.0279    2.3935 H   0  0  0  0  0  0  0  0  0  0  0  0
   22.4447   72.5902    5.3442 O   0  0  0  0  0  0  0  0  0  0  0  0
   24.7488   76.5808    5.2587 O   0  0  0  0  0  0  0  0  0  0  0  0
   23.4601   73.2362    3.3420 N   0  0  0  0  0  0  0  0  0  0  0  0
   23.5926   74.5767    5.2995 N   0  0  0  0  0  0  0  0  0  0  0  0
   23.1144   73.4029    4.7033 C   0  0  0  0  0  0  0  0  0  0  0  0
   24.2223   74.2005    2.6916 C   0  0  0  0  0  0  0  0  0  0  0  0
   24.6694   75.3150    3.2740 C   0  0  0  0  0  0  0  0  0  0  0  0
   24.3524   75.5656    4.6949 C   0  0  0  0  0  0  0  0  0  0  0  0
   23.3638   74.7144    6.2474 H   0  0  0  0  0  0  0  0  0  0  0  0
   21.9448   72.5991   -4.1736 O   0  0  0  0  0  0  0  0  0  0  0  0
   21.6809   73.1158   -5.6824 P   0  0  2  0  0  0  0  0  0  0  0  0
   22.8341   72.3695   -6.5372 O   0  0  0  0  0  0  0  0  0  0  0  0
   21.6710   74.6100   -5.8283 O   0  0  0  0  0  0  0  0  0  0  0  0
   20.3095   72.3911   -6.1284 O   0  0  0  0  0  0  0  0  0  0  0  0
   19.6783   70.2176   -5.4256 O   0  0  0  0  0  0  0  0  0  0  0  0
   17.6401   70.3686   -9.0136 O   0  0  0  0  0  0  0  0  0  0  0  0
   16.1809   70.5368   -6.5457 O   0  0  0  0  0  0  0  0  0  0  0  0
   20.2794   71.5385   -8.8019 O   0  0  0  0  0  0  0  0  0  0  0  0
   18.1847   70.8967   -7.8012 C   0  0  1  0  0  0  0  0  0  0  0  0
   17.5502   70.1509   -6.6256 C   0  0  1  0  0  0  0  0  0  0  0  0
   19.6996   70.7010   -7.8075 C   0  0  2  0  0  0  0  0  0  0  0  0
   18.2734   70.4719   -5.3107 C   0  0  1  0  0  0  0  0  0  0  0  0
   20.3135   71.0000   -6.4386 C   0  0  1  0  0  0  0  0  0  0  0  0
   16.6785   70.4902   -9.0162 H   0  0  0  0  0  0  0  0  0  0  0  0
   15.7358   70.3292   -7.3824 H   0  0  0  0  0  0  0  0  0  0  0  0
   19.8828   71.3393   -9.6637 H   0  0  0  0  0  0  0  0  0  0  0  0
   16.8059   68.7030   -4.6575 O   0  0  0  0  0  0  0  0  0  0  0  0
   17.7591   69.6199   -4.1524 C   0  0  0  0  0  0  0  0  0  0  0  0
   16.4701   68.1538   -3.9314 H   0  0  0  0  0  0  0  0  0  0  0  0
 25 28  1  0
 25 24  1  0
 25 26  1  6
 25 27  2  0
  1  4  1  0
  1 24  1  0
  1  2  1  6
  1  3  2  0
  6 11  1  0
  6 12  1  0
 29 36  1  0
 29 37  1  0
  9  7  1  1
  7 13  1  0
 10  8  1  1
  8 14  1  0
 37 28  1  1
  4  5  1  0
 33 30  1  6
 30 38  1  0
 34 31  1  1
 31 39  1  0
 35 32  1  6
 32 40  1  0
 41 42  1  0
 41 43  1  0
 15 19  2  0
 16 22  2  0
 12 17  1  6
 17 19  1  0
 17 20  1  0
 18 19  1  0
 18 22  1  0
 18 23  1  0
  9 10  1  0
  9 11  1  0
 10 12  1  0
 11  5  1  6
 33 34  1  0
 33 35  1  0
 34 36  1  0
 35 37  1  0
 36 42  1  1
 20 21  2  0
 21 22  1  0
M  CHG  2   2  -1  26  -1
M  END
>  <COMPND>  (18) 
    8629 

>  <AUTHOR>  (18) 
    GENERATED BY OPEN BABEL 3.1.1

>  <MASTER>  (18) 
        0    0    0    0    0    0    0    0   58    0   58    0

>  <minimizedAffinity>  (18) 
-7.36440

>  <CNNscore>  (18) 
0.3607465327

>  <CNNaffinity>  (18) 
3.8382709026

>  <CNN_VS>  (18) 
1.3846429586

>  <CNNaffinity_variance>  (18) 
0.2614405155

$$$$
19
     RDKit          3D

 43 45  0  0  0  0  0  0  0  0999 V2000
   18.1497   74.2987   -0.7197 P   0  0  2  0  0  0  0  0  0  0  0  0
   18.5285   75.8562   -0.9392 O   0  0  0  0  0  0  0  0  0  0  0  0
   16.8237   74.0557   -0.0609 O   0  0  0  0  0  0  0  0  0  0  0  0
   19.4376   73.6902    0.0478 O   0  0  0  0  0  0  0  0  0  0  0  0
   20.7212   73.8996   -0.5148 C   0  0  0  0  0  0  0  0  0  0  0  0
   22.6071   72.5268   -1.0912 O   0  0  0  0  0  0  0  0  0  0  0  0
   20.6250   70.3256   -1.5570 O   0  0  0  0  0  0  0  0  0  0  0  0
   21.6234   69.7151    0.9062 O   0  0  0  0  0  0  0  0  0  0  0  0
   20.6117   71.3583   -0.5728 C   0  0  1  0  0  0  0  0  0  0  0  0
   21.6351   71.0701    0.5057 C   0  0  2  0  0  0  0  0  0  0  0  0
   21.1710   72.6231   -1.2122 C   0  0  1  0  0  0  0  0  0  0  0  0
   22.9329   71.4667   -0.1774 C   0  0  2  0  0  0  0  0  0  0  0  0
   20.2718   69.5077   -1.1719 H   0  0  0  0  0  0  0  0  0  0  0  0
   20.7777   69.5118    1.3352 H   0  0  0  0  0  0  0  0  0  0  0  0
   24.5977   69.7918    1.3720 O   0  0  0  0  0  0  0  0  0  0  0  0
   26.6795   73.3916    3.3592 O   0  0  0  0  0  0  0  0  0  0  0  0
   23.9191   71.9396    0.7527 N   0  0  0  0  0  0  0  0  0  0  0  0
   25.6331   71.5856    2.3601 N   0  0  0  0  0  0  0  0  0  0  0  0
   24.7026   71.0151    1.4821 C   0  0  0  0  0  0  0  0  0  0  0  0
   24.1019   73.3062    0.9339 C   0  0  0  0  0  0  0  0  0  0  0  0
   24.9926   73.8341    1.7761 C   0  0  0  0  0  0  0  0  0  0  0  0
   25.8511   72.9370    2.5762 C   0  0  0  0  0  0  0  0  0  0  0  0
   26.1898   70.9608    2.8791 H   0  0  0  0  0  0  0  0  0  0  0  0
   18.2861   73.6786   -2.2062 O   0  0  0  0  0  0  0  0  0  0  0  0
   17.6396   72.3523   -2.8666 P   0  0  2  0  0  0  0  0  0  0  0  0
   16.1960   72.8636   -3.3883 O   0  0  0  0  0  0  0  0  0  0  0  0
   17.5811   71.1707   -1.9423 O   0  0  0  0  0  0  0  0  0  0  0  0
   18.4960   72.1070   -4.2124 O   0  0  0  0  0  0  0  0  0  0  0  0
   17.8032   70.1872   -5.4170 O   0  0  0  0  0  0  0  0  0  0  0  0
   21.3316   70.9792   -7.4104 O   0  0  0  0  0  0  0  0  0  0  0  0
   18.8227   71.5044   -8.7055 O   0  0  0  0  0  0  0  0  0  0  0  0
   21.1780   71.3507   -4.5437 O   0  0  0  0  0  0  0  0  0  0  0  0
   20.1282   71.3078   -6.7111 C   0  0  1  0  0  0  0  0  0  0  0  0
   18.9450   70.7487   -7.5037 C   0  0  1  0  0  0  0  0  0  0  0  0
   20.1786   70.6918   -5.3141 C   0  0  2  0  0  0  0  0  0  0  0  0
   17.6466   70.8261   -6.6894 C   0  0  1  0  0  0  0  0  0  0  0  0
   18.8235   70.7780   -4.6096 C   0  0  1  0  0  0  0  0  0  0  0  0
   21.3062   71.3677   -8.2981 H   0  0  0  0  0  0  0  0  0  0  0  0
   19.6493   71.4476   -9.2101 H   0  0  0  0  0  0  0  0  0  0  0  0
   22.0311   71.2888   -5.0002 H   0  0  0  0  0  0  0  0  0  0  0  0
   16.1295   70.8969   -8.5339 O   0  0  0  0  0  0  0  0  0  0  0  0
   16.4853   70.1315   -7.3973 C   0  0  0  0  0  0  0  0  0  0  0  0
   15.3916   70.4667   -8.9946 H   0  0  0  0  0  0  0  0  0  0  0  0
 25 28  1  0
 25 24  1  0
 25 26  1  6
 25 27  2  0
  1  4  1  0
  1 24  1  0
  1  2  1  6
  1  3  2  0
  6 11  1  0
  6 12  1  0
 29 36  1  0
 29 37  1  0
  9  7  1  6
  7 13  1  0
 10  8  1  6
  8 14  1  0
 37 28  1  6
  4  5  1  0
 33 30  1  6
 30 38  1  0
 34 31  1  6
 31 39  1  0
 35 32  1  1
 32 40  1  0
 41 42  1  0
 41 43  1  0
 15 19  2  0
 16 22  2  0
 12 17  1  1
 17 19  1  0
 17 20  1  0
 18 19  1  0
 18 22  1  0
 18 23  1  0
  9 10  1  0
  9 11  1  0
 10 12  1  0
 11  5  1  1
 33 34  1  0
 33 35  1  0
 34 36  1  0
 35 37  1  0
 36 42  1  6
 20 21  2  0
 21 22  1  0
M  CHG  2   2  -1  26  -1
M  END
>  <COMPND>  (19) 
    8629 

>  <AUTHOR>  (19) 
    GENERATED BY OPEN BABEL 3.1.1

>  <MASTER>  (19) 
        0    0    0    0    0    0    0    0   58    0   58    0

>  <minimizedAffinity>  (19) 
-6.53037

>  <CNNscore>  (19) 
0.3589091003

>  <CNNaffinity>  (19) 
4.0976619720

>  <CNN_VS>  (19) 
1.4706882238

>  <CNNaffinity_variance>  (19) 
0.1201740876

$$$$
20
     RDKit          3D

 43 45  0  0  0  0  0  0  0  0999 V2000
   19.3928   70.8286   -2.4870 P   0  0  2  0  0  0  0  0  0  0  0  0
   18.3229   72.0422   -2.4822 O   0  0  0  0  0  0  0  0  0  0  0  0
   18.8432   69.5009   -2.9189 O   0  0  0  0  0  0  0  0  0  0  0  0
   20.0375   70.8732   -1.0036 O   0  0  0  0  0  0  0  0  0  0  0  0
   21.4266   71.1228   -0.8773 C   0  0  0  0  0  0  0  0  0  0  0  0
   22.4434   69.3459    0.3806 O   0  0  0  0  0  0  0  0  0  0  0  0
   22.9764   71.4015    2.4974 O   0  0  0  0  0  0  0  0  0  0  0  0
   25.3971   71.1796    1.2615 O   0  0  0  0  0  0  0  0  0  0  0  0
   22.9999   71.5413    1.0778 C   0  0  1  0  0  0  0  0  0  0  0  0
   24.2398   70.8867    0.5054 C   0  0  2  0  0  0  0  0  0  0  0  0
   21.8876   70.6735    0.5024 C   0  0  1  0  0  0  0  0  0  0  0  0
   23.8685   69.4142    0.5515 C   0  0  2  0  0  0  0  0  0  0  0  0
   23.6780   71.9471    2.8875 H   0  0  0  0  0  0  0  0  0  0  0  0
   25.5919   72.1278    1.2005 H   0  0  0  0  0  0  0  0  0  0  0  0
   24.4177   66.6473    0.6956 O   0  0  0  0  0  0  0  0  0  0  0  0
   26.2970   66.6150   -3.5125 O   0  0  0  0  0  0  0  0  0  0  0  0
   24.5002   68.6572   -0.4922 N   0  0  0  0  0  0  0  0  0  0  0  0
   25.3528   66.6334   -1.3999 N   0  0  0  0  0  0  0  0  0  0  0  0
   24.7314   67.2726   -0.3194 C   0  0  0  0  0  0  0  0  0  0  0  0
   24.8830   69.2876   -1.6711 C   0  0  0  0  0  0  0  0  0  0  0  0
   25.4758   68.6641   -2.6915 C   0  0  0  0  0  0  0  0  0  0  0  0
   25.7533   67.2167   -2.5916 C   0  0  0  0  0  0  0  0  0  0  0  0
   25.5243   65.6687   -1.3019 H   0  0  0  0  0  0  0  0  0  0  0  0
   20.5847   71.3985   -3.4184 O   0  0  0  0  0  0  0  0  0  0  0  0
   20.5816   72.5315   -4.5714 P   0  0  2  0  0  0  0  0  0  0  0  0
   22.0051   72.3142   -5.3089 O   0  0  0  0  0  0  0  0  0  0  0  0
   20.3538   73.9258   -4.0634 O   0  0  0  0  0  0  0  0  0  0  0  0
   19.4861   72.0222   -5.6416 O   0  0  0  0  0  0  0  0  0  0  0  0
   18.7177   69.8214   -6.0688 O   0  0  0  0  0  0  0  0  0  0  0  0
   18.5737   71.3278   -9.9108 O   0  0  0  0  0  0  0  0  0  0  0  0
   16.1288   70.8627   -8.4775 O   0  0  0  0  0  0  0  0  0  0  0  0
   20.7463   72.0720   -8.1485 O   0  0  0  0  0  0  0  0  0  0  0  0
   18.4640   71.3801   -8.4858 C   0  0  1  0  0  0  0  0  0  0  0  0
   17.3971   70.3740   -8.0497 C   0  0  1  0  0  0  0  0  0  0  0  0
   19.8167   71.0311   -7.8678 C   0  0  2  0  0  0  0  0  0  0  0  0
   17.4088   70.1790   -6.5276 C   0  0  1  0  0  0  0  0  0  0  0  0
   19.7078   70.8102   -6.3580 C   0  0  1  0  0  0  0  0  0  0  0  0
   17.7183   71.5490  -10.3093 H   0  0  0  0  0  0  0  0  0  0  0  0
   16.1349   70.9820   -9.4403 H   0  0  0  0  0  0  0  0  0  0  0  0
   20.8064   72.2018   -9.1073 H   0  0  0  0  0  0  0  0  0  0  0  0
   16.8497   68.6301   -4.7963 O   0  0  0  0  0  0  0  0  0  0  0  0
   16.4617   69.0651   -6.0864 C   0  0  0  0  0  0  0  0  0  0  0  0
   16.2555   67.9213   -4.5024 H   0  0  0  0  0  0  0  0  0  0  0  0
 25 28  1  0
 25 24  1  0
 25 26  1  6
 25 27  2  0
  1  4  1  0
  1 24  1  0
  1  2  1  1
  1  3  2  0
  6 11  1  0
  6 12  1  0
 29 36  1  0
 29 37  1  0
  9  7  1  1
  7 13  1  0
 10  8  1  1
  8 14  1  0
 37 28  1  1
  4  5  1  0
 33 30  1  6
 30 38  1  0
 34 31  1  1
 31 39  1  0
 35 32  1  1
 32 40  1  0
 41 42  1  0
 41 43  1  0
 15 19  2  0
 16 22  2  0
 12 17  1  6
 17 19  1  0
 17 20  1  0
 18 19  1  0
 18 22  1  0
 18 23  1  0
  9 10  1  0
  9 11  1  0
 10 12  1  0
 11  5  1  6
 33 34  1  0
 33 35  1  0
 34 36  1  0
 35 37  1  0
 36 42  1  6
 20 21  2  0
 21 22  1  0
M  CHG  2   2  -1  26  -1
M  END
>  <COMPND>  (20) 
    8629 

>  <AUTHOR>  (20) 
    GENERATED BY OPEN BABEL 3.1.1

>  <MASTER>  (20) 
        0    0    0    0    0    0    0    0   58    0   58    0

>  <minimizedAffinity>  (20) 
-8.64803

>  <CNNscore>  (20) 
0.3567520082

>  <CNNaffinity>  (20) 
4.2308516502

>  <CNN_VS>  (20) 
1.5093648434

>  <CNNaffinity_variance>  (20) 
0.3032649159

$$$$
21
     RDKit          3D

 43 45  0  0  0  0  0  0  0  0999 V2000
   21.7271   71.6607   -2.2816 P   0  0  2  0  0  0  0  0  0  0  0  0
   20.9354   73.0535   -2.5065 O   0  0  0  0  0  0  0  0  0  0  0  0
   22.8410   71.4009   -3.2527 O   0  0  0  0  0  0  0  0  0  0  0  0
   20.5530   70.5480   -2.2450 O   0  0  0  0  0  0  0  0  0  0  0  0
   19.9149   70.1982   -3.4609 C   0  0  0  0  0  0  0  0  0  0  0  0
   18.1947   71.4122   -4.6189 O   0  0  0  0  0  0  0  0  0  0  0  0
   16.2511   70.0018   -2.8233 O   0  0  0  0  0  0  0  0  0  0  0  0
   16.0548   68.5822   -5.1434 O   0  0  0  0  0  0  0  0  0  0  0  0
   17.4643   69.5176   -3.3970 C   0  0  1  0  0  0  0  0  0  0  0  0
   17.2744   69.2432   -4.8743 C   0  0  2  0  0  0  0  0  0  0  0  0
   18.4665   70.6650   -3.4129 C   0  0  1  0  0  0  0  0  0  0  0  0
   17.3234   70.6426   -5.4636 C   0  0  2  0  0  0  0  0  0  0  0  0
   15.5956   69.2864   -2.8021 H   0  0  0  0  0  0  0  0  0  0  0  0
   16.0727   67.6967   -4.7481 H   0  0  0  0  0  0  0  0  0  0  0  0
   15.7727   70.1817   -7.7789 O   0  0  0  0  0  0  0  0  0  0  0  0
   19.4177   70.7140  -10.5487 O   0  0  0  0  0  0  0  0  0  0  0  0
   17.8414   70.6552   -6.8026 N   0  0  0  0  0  0  0  0  0  0  0  0
   17.5889   70.4473   -9.1562 N   0  0  0  0  0  0  0  0  0  0  0  0
   16.9783   70.4107   -7.8960 C   0  0  0  0  0  0  0  0  0  0  0  0
   19.1913   70.9083   -7.0210 C   0  0  0  0  0  0  0  0  0  0  0  0
   19.7582   70.9384   -8.2289 C   0  0  0  0  0  0  0  0  0  0  0  0
   18.9261   70.6932   -9.4245 C   0  0  0  0  0  0  0  0  0  0  0  0
   17.0071   70.2794   -9.9328 H   0  0  0  0  0  0  0  0  0  0  0  0
   22.1900   71.7513   -0.7355 O   0  0  0  0  0  0  0  0  0  0  0  0
   22.8863   70.6577    0.2300 P   0  0  2  0  0  0  0  0  0  0  0  0
   21.6304   69.9917    1.0026 O   0  0  0  0  0  0  0  0  0  0  0  0
   23.9429   71.2206    1.1360 O   0  0  0  0  0  0  0  0  0  0  0  0
   23.4084   69.5034   -0.7700 O   0  0  0  0  0  0  0  0  0  0  0  0
   24.7031   67.8279    0.2943 O   0  0  0  0  0  0  0  0  0  0  0  0
   25.5364   66.9038   -3.6430 O   0  0  0  0  0  0  0  0  0  0  0  0
   23.8198   65.1814   -2.1150 O   0  0  0  0  0  0  0  0  0  0  0  0
   25.3110   69.6717   -2.8260 O   0  0  0  0  0  0  0  0  0  0  0  0
   24.7256   67.3513   -2.5532 C   0  0  1  0  0  0  0  0  0  0  0  0
   24.6161   66.2123   -1.5376 C   0  0  1  0  0  0  0  0  0  0  0  0
   25.3769   68.5780   -1.9172 C   0  0  2  0  0  0  0  0  0  0  0  0
   23.9893   66.6994   -0.2242 C   0  0  1  0  0  0  0  0  0  0  0  0
   24.7091   68.9488   -0.5918 C   0  0  1  0  0  0  0  0  0  0  0  0
   25.1281   66.1254   -4.0515 H   0  0  0  0  0  0  0  0  0  0  0  0
   24.2263   64.8830   -2.9438 H   0  0  0  0  0  0  0  0  0  0  0  0
   25.7373   69.4245   -3.6608 H   0  0  0  0  0  0  0  0  0  0  0  0
   24.7154   66.1248    1.9784 O   0  0  0  0  0  0  0  0  0  0  0  0
   24.0147   65.6206    0.8563 C   0  0  0  0  0  0  0  0  0  0  0  0
   24.7393   65.4490    2.6744 H   0  0  0  0  0  0  0  0  0  0  0  0
 25 28  1  0
 25 24  1  0
 25 26  1  1
 25 27  2  0
  1  4  1  0
  1 24  1  0
  1  2  1  6
  1  3  2  0
  6 11  1  0
  6 12  1  0
 29 36  1  0
 29 37  1  0
  9  7  1  6
  7 13  1  0
 10  8  1  1
  8 14  1  0
 37 28  1  6
  4  5  1  0
 33 30  1  6
 30 38  1  0
 34 31  1  6
 31 39  1  0
 35 32  1  6
 32 40  1  0
 41 42  1  0
 41 43  1  0
 15 19  2  0
 16 22  2  0
 12 17  1  6
 17 19  1  0
 17 20  1  0
 18 19  1  0
 18 22  1  0
 18 23  1  0
  9 10  1  0
  9 11  1  0
 10 12  1  0
 11  5  1  6
 33 34  1  0
 33 35  1  0
 34 36  1  0
 35 37  1  0
 36 42  1  1
 20 21  2  0
 21 22  1  0
M  CHG  2   2  -1  26  -1
M  END
>  <COMPND>  (21) 
    8629 

>  <AUTHOR>  (21) 
    GENERATED BY OPEN BABEL 3.1.1

>  <MASTER>  (21) 
        0    0    0    0    0    0    0    0   58    0   58    0

>  <minimizedAffinity>  (21) 
-9.86983

>  <CNNscore>  (21) 
0.8401554823

>  <CNNaffinity>  (21) 
5.0305709839

>  <CNN_VS>  (21) 
4.2264618874

>  <CNNaffinity_variance>  (21) 
0.1232198030

$$$$
22
     RDKit          3D

 43 45  0  0  0  0  0  0  0  0999 V2000
   21.6866   71.9815   -1.9619 P   0  0  2  0  0  0  0  0  0  0  0  0
   21.5906   73.5287   -2.4250 O   0  0  0  0  0  0  0  0  0  0  0  0
   22.6932   71.1574   -2.7096 O   0  0  0  0  0  0  0  0  0  0  0  0
   20.1572   71.4587   -2.0345 O   0  0  0  0  0  0  0  0  0  0  0  0
   19.6510   71.0208   -3.2835 C   0  0  0  0  0  0  0  0  0  0  0  0
   17.8418   71.8742   -4.6147 O   0  0  0  0  0  0  0  0  0  0  0  0
   16.0196   70.3846   -2.7568 O   0  0  0  0  0  0  0  0  0  0  0  0
   16.1248   68.7412   -4.9305 O   0  0  0  0  0  0  0  0  0  0  0  0
   17.3124   70.0198   -3.2375 C   0  0  1  0  0  0  0  0  0  0  0  0
   17.2314   69.5853   -4.6860 C   0  0  2  0  0  0  0  0  0  0  0  0
   18.1527   71.2872   -3.3321 C   0  0  1  0  0  0  0  0  0  0  0  0
   17.1219   70.9170   -5.4088 C   0  0  2  0  0  0  0  0  0  0  0  0
   15.4648   69.5913   -2.6877 H   0  0  0  0  0  0  0  0  0  0  0  0
   16.2414   67.9073   -4.4492 H   0  0  0  0  0  0  0  0  0  0  0  0
   15.7505   70.0580   -7.7238 O   0  0  0  0  0  0  0  0  0  0  0  0
   19.4287   70.7985  -10.4002 O   0  0  0  0  0  0  0  0  0  0  0  0
   17.6969   70.8755   -6.7238 N   0  0  0  0  0  0  0  0  0  0  0  0
   17.5830   70.4275   -9.0546 N   0  0  0  0  0  0  0  0  0  0  0  0
   16.9229   70.4267   -7.8192 C   0  0  0  0  0  0  0  0  0  0  0  0
   19.0142   71.2771   -6.9171 C   0  0  0  0  0  0  0  0  0  0  0  0
   19.6294   71.2708   -8.1015 C   0  0  0  0  0  0  0  0  0  0  0  0
   18.8910   70.8161   -9.2973 C   0  0  0  0  0  0  0  0  0  0  0  0
   17.0636   70.1185   -9.8321 H   0  0  0  0  0  0  0  0  0  0  0  0
   21.9569   72.0942   -0.3721 O   0  0  0  0  0  0  0  0  0  0  0  0
   22.4565   70.9927    0.7003 P   0  0  2  0  0  0  0  0  0  0  0  0
   24.0135   70.7799    0.3157 O   0  0  0  0  0  0  0  0  0  0  0  0
   21.6431   69.7309    0.7108 O   0  0  0  0  0  0  0  0  0  0  0  0
   22.4886   71.7796    2.1092 O   0  0  0  0  0  0  0  0  0  0  0  0
   21.2375   73.7698    2.4096 O   0  0  0  0  0  0  0  0  0  0  0  0
   24.0608   74.3115    5.3738 O   0  0  0  0  0  0  0  0  0  0  0  0
   21.3588   73.6550    6.0922 O   0  0  0  0  0  0  0  0  0  0  0  0
   24.8319   73.1385    2.8422 O   0  0  0  0  0  0  0  0  0  0  0  0
   23.1755   73.5596    4.5393 C   0  0  1  0  0  0  0  0  0  0  0  0
   21.7493   74.0572    4.7822 C   0  0  1  0  0  0  0  0  0  0  0  0
   23.5741   73.7618    3.0787 C   0  0  2  0  0  0  0  0  0  0  0  0
   20.7791   73.4895    3.7374 C   0  0  1  0  0  0  0  0  0  0  0  0
   22.5180   73.2044    2.1226 C   0  0  1  0  0  0  0  0  0  0  0  0
   23.8134   74.1870    6.3027 H   0  0  0  0  0  0  0  0  0  0  0  0
   21.9798   74.0196    6.7422 H   0  0  0  0  0  0  0  0  0  0  0  0
   25.4919   73.5002    3.4533 H   0  0  0  0  0  0  0  0  0  0  0  0
   18.7022   73.4382    4.9176 O   0  0  0  0  0  0  0  0  0  0  0  0
   19.3830   74.0953    3.8646 C   0  0  0  0  0  0  0  0  0  0  0  0
   17.8121   73.8137    5.0103 H   0  0  0  0  0  0  0  0  0  0  0  0
 25 28  1  0
 25 24  1  0
 25 26  1  6
 25 27  2  0
  1  4  1  0
  1 24  1  0
  1  2  1  6
  1  3  2  0
  6 11  1  0
  6 12  1  0
 29 36  1  0
 29 37  1  0
  9  7  1  6
  7 13  1  0
 10  8  1  1
  8 14  1  0
 37 28  1  1
  4  5  1  0
 33 30  1  1
 30 38  1  0
 34 31  1  1
 31 39  1  0
 35 32  1  1
 32 40  1  0
 41 42  1  0
 41 43  1  0
 15 19  2  0
 16 22  2  0
 12 17  1  6
 17 19  1  0
 17 20  1  0
 18 19  1  0
 18 22  1  0
 18 23  1  0
  9 10  1  0
  9 11  1  0
 10 12  1  0
 11  5  1  6
 33 34  1  0
 33 35  1  0
 34 36  1  0
 35 37  1  0
 36 42  1  1
 20 21  2  0
 21 22  1  0
M  CHG  2   2  -1  26  -1
M  END
>  <COMPND>  (22) 
    8629 

>  <AUTHOR>  (22) 
    GENERATED BY OPEN BABEL 3.1.1

>  <MASTER>  (22) 
        0    0    0    0    0    0    0    0   58    0   58    0

>  <minimizedAffinity>  (22) 
-7.10295

>  <CNNscore>  (22) 
0.8017976880

>  <CNNaffinity>  (22) 
4.4335556030

>  <CNN_VS>  (22) 
3.5548145771

>  <CNNaffinity_variance>  (22) 
0.0141886575

$$$$
23
     RDKit          3D

 43 45  0  0  0  0  0  0  0  0999 V2000
   22.7047   71.6719   -2.6448 P   0  0  2  0  0  0  0  0  0  0  0  0
   21.7903   72.9932   -2.8329 O   0  0  0  0  0  0  0  0  0  0  0  0
   23.8705   71.5690   -3.5838 O   0  0  0  0  0  0  0  0  0  0  0  0
   21.6429   70.4527   -2.7067 O   0  0  0  0  0  0  0  0  0  0  0  0
   20.8545   70.3014   -3.8743 C   0  0  0  0  0  0  0  0  0  0  0  0
   19.0212   71.5462   -4.8034 O   0  0  0  0  0  0  0  0  0  0  0  0
   17.3581   70.3854   -2.5949 O   0  0  0  0  0  0  0  0  0  0  0  0
   16.6768   68.8330   -4.7309 O   0  0  0  0  0  0  0  0  0  0  0  0
   18.4223   69.7870   -3.3329 C   0  0  1  0  0  0  0  0  0  0  0  0
   17.9578   69.4295   -4.7293 C   0  0  2  0  0  0  0  0  0  0  0  0
   19.4644   70.8634   -3.6102 C   0  0  1  0  0  0  0  0  0  0  0  0
   17.9741   70.7813   -5.4225 C   0  0  2  0  0  0  0  0  0  0  0  0
   16.6803   69.7170   -2.4056 H   0  0  0  0  0  0  0  0  0  0  0  0
   16.7185   67.9759   -4.2788 H   0  0  0  0  0  0  0  0  0  0  0  0
   16.0289   70.1802   -7.3803 O   0  0  0  0  0  0  0  0  0  0  0  0
   19.1273   70.3887  -10.7859 O   0  0  0  0  0  0  0  0  0  0  0  0
   18.2447   70.6727   -6.8284 N   0  0  0  0  0  0  0  0  0  0  0  0
   17.5732   70.2847   -9.0744 N   0  0  0  0  0  0  0  0  0  0  0  0
   17.1971   70.3657   -7.7276 C   0  0  0  0  0  0  0  0  0  0  0  0
   19.5370   70.8701   -7.3025 C   0  0  0  0  0  0  0  0  0  0  0  0
   19.8795   70.7880   -8.5899 C   0  0  0  0  0  0  0  0  0  0  0  0
   18.8441   70.4713   -9.5947 C   0  0  0  0  0  0  0  0  0  0  0  0
   16.8600   70.0715   -9.7192 H   0  0  0  0  0  0  0  0  0  0  0  0
   23.1045   71.7264   -1.0795 O   0  0  0  0  0  0  0  0  0  0  0  0
   23.6153   70.5689   -0.0734 P   0  0  2  0  0  0  0  0  0  0  0  0
   24.4073   69.5511   -1.0503 O   0  0  0  0  0  0  0  0  0  0  0  0
   22.5229   69.9288    0.7335 O   0  0  0  0  0  0  0  0  0  0  0  0
   24.7715   71.2728    0.8057 O   0  0  0  0  0  0  0  0  0  0  0  0
   26.1811   70.8097    2.6537 O   0  0  0  0  0  0  0  0  0  0  0  0
   24.4745   74.3243    3.9901 O   0  0  0  0  0  0  0  0  0  0  0  0
   27.2163   74.3147    3.1353 O   0  0  0  0  0  0  0  0  0  0  0  0
   22.8717   72.4030    2.5344 O   0  0  0  0  0  0  0  0  0  0  0  0
   25.0014   73.4199    3.0155 C   0  0  1  0  0  0  0  0  0  0  0  0
   26.4611   73.1295    3.3703 C   0  0  1  0  0  0  0  0  0  0  0  0
   24.1780   72.1334    3.0317 C   0  0  2  0  0  0  0  0  0  0  0  0
   27.0143   71.9686    2.5329 C   0  0  1  0  0  0  0  0  0  0  0  0
   24.8411   71.0280    2.2080 C   0  0  1  0  0  0  0  0  0  0  0  0
   24.9926   75.1435    3.9846 H   0  0  0  0  0  0  0  0  0  0  0  0
   26.8564   75.0402    3.6696 H   0  0  0  0  0  0  0  0  0  0  0  0
   22.4625   73.1042    3.0643 H   0  0  0  0  0  0  0  0  0  0  0  0
   28.7020   72.2005    4.2083 O   0  0  0  0  0  0  0  0  0  0  0  0
   28.4160   71.5587    2.9792 C   0  0  0  0  0  0  0  0  0  0  0  0
   29.5911   71.9486    4.5047 H   0  0  0  0  0  0  0  0  0  0  0  0
 25 28  1  0
 25 24  1  0
 25 26  1  6
 25 27  2  0
  1  4  1  0
  1 24  1  0
  1  2  1  6
  1  3  2  0
  6 11  1  0
  6 12  1  0
 29 36  1  0
 29 37  1  0
  9  7  1  1
  7 13  1  0
 10  8  1  1
  8 14  1  0
 37 28  1  6
  4  5  1  0
 33 30  1  1
 30 38  1  0
 34 31  1  6
 31 39  1  0
 35 32  1  6
 32 40  1  0
 41 42  1  0
 41 43  1  0
 15 19  2  0
 16 22  2  0
 12 17  1  6
 17 19  1  0
 17 20  1  0
 18 19  1  0
 18 22  1  0
 18 23  1  0
  9 10  1  0
  9 11  1  0
 10 12  1  0
 11  5  1  6
 33 34  1  0
 33 35  1  0
 34 36  1  0
 35 37  1  0
 36 42  1  1
 20 21  2  0
 21 22  1  0
M  CHG  2   2  -1  26  -1
M  END
>  <COMPND>  (23) 
    8629 

>  <AUTHOR>  (23) 
    GENERATED BY OPEN BABEL 3.1.1

>  <MASTER>  (23) 
        0    0    0    0    0    0    0    0   58    0   58    0

>  <minimizedAffinity>  (23) 
-7.43966

>  <CNNscore>  (23) 
0.7927989960

>  <CNNaffinity>  (23) 
4.5665063858

>  <CNN_VS>  (23) 
3.6203217506

>  <CNNaffinity_variance>  (23) 
0.0518651791

$$$$
24
     RDKit          3D

 43 45  0  0  0  0  0  0  0  0999 V2000
   20.9040   74.8018   -3.2332 P   0  0  2  0  0  0  0  0  0  0  0  0
   21.0937   75.0275   -1.6425 O   0  0  0  0  0  0  0  0  0  0  0  0
   20.4569   76.0138   -3.9964 O   0  0  0  0  0  0  0  0  0  0  0  0
   19.9309   73.5126   -3.3292 O   0  0  0  0  0  0  0  0  0  0  0  0
   18.8539   73.5455   -4.2494 C   0  0  0  0  0  0  0  0  0  0  0  0
   17.2411   71.9852   -5.1087 O   0  0  0  0  0  0  0  0  0  0  0  0
   17.5242   70.5411   -2.4962 O   0  0  0  0  0  0  0  0  0  0  0  0
   19.0631   69.0406   -4.1745 O   0  0  0  0  0  0  0  0  0  0  0  0
   18.5152   71.2259   -3.2605 C   0  0  1  0  0  0  0  0  0  0  0  0
   18.8964   70.4105   -4.4784 C   0  0  2  0  0  0  0  0  0  0  0  0
   17.8603   72.4495   -3.8891 C   0  0  1  0  0  0  0  0  0  0  0  0
   17.7217   70.6644   -5.4078 C   0  0  2  0  0  0  0  0  0  0  0  0
   17.9190   69.7558   -2.0846 H   0  0  0  0  0  0  0  0  0  0  0  0
   19.8223   68.9310   -3.5809 H   0  0  0  0  0  0  0  0  0  0  0  0
   15.9604   69.9930   -7.5114 O   0  0  0  0  0  0  0  0  0  0  0  0
   19.2706   70.4750  -10.6817 O   0  0  0  0  0  0  0  0  0  0  0  0
   18.0966   70.6071   -6.7926 N   0  0  0  0  0  0  0  0  0  0  0  0
   17.6100   70.2337   -9.0883 N   0  0  0  0  0  0  0  0  0  0  0  0
   17.1360   70.2584   -7.7704 C   0  0  0  0  0  0  0  0  0  0  0  0
   19.4039   70.8951   -7.1691 C   0  0  0  0  0  0  0  0  0  0  0  0
   19.8403   70.8658   -8.4300 C   0  0  0  0  0  0  0  0  0  0  0  0
   18.8999   70.5108   -9.5125 C   0  0  0  0  0  0  0  0  0  0  0  0
   16.9586   69.9930   -9.7865 H   0  0  0  0  0  0  0  0  0  0  0  0
   22.3372   74.2100   -3.6899 O   0  0  0  0  0  0  0  0  0  0  0  0
   22.7740   72.7232   -4.1498 P   0  0  2  0  0  0  0  0  0  0  0  0
   24.3645   72.8671   -4.4087 O   0  0  0  0  0  0  0  0  0  0  0  0
   22.0016   72.1897   -5.3215 O   0  0  0  0  0  0  0  0  0  0  0  0
   22.6582   71.8306   -2.8101 O   0  0  0  0  0  0  0  0  0  0  0  0
   23.0446   72.7132   -0.6448 O   0  0  0  0  0  0  0  0  0  0  0  0
   23.9254   68.7469    0.0926 O   0  0  0  0  0  0  0  0  0  0  0  0
   21.4940   69.8750    1.1241 O   0  0  0  0  0  0  0  0  0  0  0  0
   24.7111   69.9582   -2.4164 O   0  0  0  0  0  0  0  0  0  0  0  0
   23.2290   69.8345   -0.5218 C   0  0  1  0  0  0  0  0  0  0  0  0
   22.5545   70.6552    0.5792 C   0  0  1  0  0  0  0  0  0  0  0  0
   24.2274   70.6924   -1.2968 C   0  0  2  0  0  0  0  0  0  0  0  0
   22.0136   71.9817    0.0288 C   0  0  1  0  0  0  0  0  0  0  0  0
   23.6018   72.0103   -1.7572 C   0  0  1  0  0  0  0  0  0  0  0  0
   23.2970   68.1980    0.5859 H   0  0  0  0  0  0  0  0  0  0  0  0
   21.8489   69.0400    1.4677 H   0  0  0  0  0  0  0  0  0  0  0  0
   25.1050   69.1264   -2.1117 H   0  0  0  0  0  0  0  0  0  0  0  0
   22.4579   72.9779    2.1546 O   0  0  0  0  0  0  0  0  0  0  0  0
   21.4775   72.8848    1.1375 C   0  0  0  0  0  0  0  0  0  0  0  0
   22.1306   73.5500    2.8669 H   0  0  0  0  0  0  0  0  0  0  0  0
 25 28  1  0
 25 24  1  0
 25 26  1  6
 25 27  2  0
  1  4  1  0
  1 24  1  0
  1  2  1  1
  1  3  2  0
  6 11  1  0
  6 12  1  0
 29 36  1  0
 29 37  1  0
  9  7  1  1
  7 13  1  0
 10  8  1  1
  8 14  1  0
 37 28  1  6
  4  5  1  0
 33 30  1  1
 30 38  1  0
 34 31  1  6
 31 39  1  0
 35 32  1  6
 32 40  1  0
 41 42  1  0
 41 43  1  0
 15 19  2  0
 16 22  2  0
 12 17  1  6
 17 19  1  0
 17 20  1  0
 18 19  1  0
 18 22  1  0
 18 23  1  0
  9 10  1  0
  9 11  1  0
 10 12  1  0
 11  5  1  6
 33 34  1  0
 33 35  1  0
 34 36  1  0
 35 37  1  0
 36 42  1  1
 20 21  2  0
 21 22  1  0
M  CHG  2   2  -1  26  -1
M  END
>  <COMPND>  (24) 
    8629 

>  <AUTHOR>  (24) 
    GENERATED BY OPEN BABEL 3.1.1

>  <MASTER>  (24) 
        0    0    0    0    0    0    0    0   58    0   58    0

>  <minimizedAffinity>  (24) 
-7.21609

>  <CNNscore>  (24) 
0.7489167452

>  <CNNaffinity>  (24) 
4.5705170631

>  <CNN_VS>  (24) 
3.4229366779

>  <CNNaffinity_variance>  (24) 
0.0897280946

$$$$
25
     RDKit          3D

 43 45  0  0  0  0  0  0  0  0999 V2000
   21.1455   74.6378   -2.8665 P   0  0  2  0  0  0  0  0  0  0  0  0
   21.4764   74.4281   -1.2968 O   0  0  0  0  0  0  0  0  0  0  0  0
   20.6050   75.9908   -3.2250 O   0  0  0  0  0  0  0  0  0  0  0  0
   20.1948   73.3813   -3.2343 O   0  0  0  0  0  0  0  0  0  0  0  0
   19.3738   73.4690   -4.3858 C   0  0  0  0  0  0  0  0  0  0  0  0
   17.4259   72.4773   -5.3839 O   0  0  0  0  0  0  0  0  0  0  0  0
   17.0333   71.0668   -2.7672 O   0  0  0  0  0  0  0  0  0  0  0  0
   18.1509   69.1280   -4.3257 O   0  0  0  0  0  0  0  0  0  0  0  0
   18.2465   71.3918   -3.4438 C   0  0  1  0  0  0  0  0  0  0  0  0
   18.4475   70.4752   -4.6325 C   0  0  2  0  0  0  0  0  0  0  0  0
   18.0610   72.7470   -4.1149 C   0  0  1  0  0  0  0  0  0  0  0  0
   17.4894   71.0670   -5.6523 C   0  0  2  0  0  0  0  0  0  0  0  0
   17.1276   70.2052   -2.3305 H   0  0  0  0  0  0  0  0  0  0  0  0
   18.7878   68.7971   -3.6732 H   0  0  0  0  0  0  0  0  0  0  0  0
   15.8245   70.2376   -7.7779 O   0  0  0  0  0  0  0  0  0  0  0  0
   19.3110   70.3385  -10.7904 O   0  0  0  0  0  0  0  0  0  0  0  0
   17.9358   70.8690   -7.0025 N   0  0  0  0  0  0  0  0  0  0  0  0
   17.5618   70.2887   -9.2762 N   0  0  0  0  0  0  0  0  0  0  0  0
   17.0192   70.4502   -7.9950 C   0  0  0  0  0  0  0  0  0  0  0  0
   19.2688   71.0898   -7.3311 C   0  0  0  0  0  0  0  0  0  0  0  0
   19.7707   70.9301   -8.5574 C   0  0  0  0  0  0  0  0  0  0  0  0
   18.8798   70.4945   -9.6522 C   0  0  0  0  0  0  0  0  0  0  0  0
   16.9421   69.9971   -9.9838 H   0  0  0  0  0  0  0  0  0  0  0  0
   22.5426   74.2592   -3.5862 O   0  0  0  0  0  0  0  0  0  0  0  0
   23.2342   72.8269   -3.8744 P   0  0  2  0  0  0  0  0  0  0  0  0
   24.7923   73.2043   -4.0921 O   0  0  0  0  0  0  0  0  0  0  0  0
   22.6174   72.0632   -5.0103 O   0  0  0  0  0  0  0  0  0  0  0  0
   23.1949   72.0611   -2.4542 O   0  0  0  0  0  0  0  0  0  0  0  0
   23.7008   69.7464   -2.4009 O   0  0  0  0  0  0  0  0  0  0  0  0
   21.6972   70.0668    1.1955 O   0  0  0  0  0  0  0  0  0  0  0  0
   24.5456   69.6999    1.1870 O   0  0  0  0  0  0  0  0  0  0  0  0
   20.7842   71.5682   -1.1049 O   0  0  0  0  0  0  0  0  0  0  0  0
   22.5533   70.5058    0.1373 C   0  0  1  0  0  0  0  0  0  0  0  0
   23.7268   69.5296    0.0334 C   0  0  1  0  0  0  0  0  0  0  0  0
   21.7598   70.5335   -1.1678 C   0  0  2  0  0  0  0  0  0  0  0  0
   24.5427   69.7779   -1.2424 C   0  0  1  0  0  0  0  0  0  0  0  0
   22.6717   70.7375   -2.3790 C   0  0  1  0  0  0  0  0  0  0  0  0
   22.1948   70.0474    2.0270 H   0  0  0  0  0  0  0  0  0  0  0  0
   24.0183   69.5408    1.9857 H   0  0  0  0  0  0  0  0  0  0  0  0
   20.2131   71.4276   -0.3342 H   0  0  0  0  0  0  0  0  0  0  0  0
   25.2852   67.5789   -0.6750 O   0  0  0  0  0  0  0  0  0  0  0  0
   25.6222   68.7172   -1.4464 C   0  0  0  0  0  0  0  0  0  0  0  0
   25.9634   66.8953   -0.7952 H   0  0  0  0  0  0  0  0  0  0  0  0
 25 28  1  0
 25 24  1  0
 25 26  1  6
 25 27  2  0
  1  4  1  0
  1 24  1  0
  1  2  1  1
  1  3  2  0
  6 11  1  0
  6 12  1  0
 29 36  1  0
 29 37  1  0
  9  7  1  6
  7 13  1  0
 10  8  1  1
  8 14  1  0
 37 28  1  1
  4  5  1  0
 33 30  1  1
 30 38  1  0
 34 31  1  1
 31 39  1  0
 35 32  1  1
 32 40  1  0
 41 42  1  0
 41 43  1  0
 15 19  2  0
 16 22  2  0
 12 17  1  6
 17 19  1  0
 17 20  1  0
 18 19  1  0
 18 22  1  0
 18 23  1  0
  9 10  1  0
  9 11  1  0
 10 12  1  0
 11  5  1  6
 33 34  1  0
 33 35  1  0
 34 36  1  0
 35 37  1  0
 36 42  1  6
 20 21  2  0
 21 22  1  0
M  CHG  2   2  -1  26  -1
M  END
>  <COMPND>  (25) 
    8629 

>  <AUTHOR>  (25) 
    GENERATED BY OPEN BABEL 3.1.1

>  <MASTER>  (25) 
        0    0    0    0    0    0    0    0   58    0   58    0

>  <minimizedAffinity>  (25) 
-8.00759

>  <CNNscore>  (25) 
0.6753011346

>  <CNNaffinity>  (25) 
4.5297632217

>  <CNN_VS>  (25) 
3.0589542389

>  <CNNaffinity_variance>  (25) 
0.0524383895

$$$$
26
     RDKit          3D

 43 45  0  0  0  0  0  0  0  0999 V2000
   22.0907   72.8951   -6.0865 P   0  0  2  0  0  0  0  0  0  0  0  0
   21.1700   74.1642   -5.6874 O   0  0  0  0  0  0  0  0  0  0  0  0
   23.1430   73.1752   -7.1188 O   0  0  0  0  0  0  0  0  0  0  0  0
   21.0203   71.7436   -6.4687 O   0  0  0  0  0  0  0  0  0  0  0  0
   19.9781   72.0630   -7.3741 C   0  0  0  0  0  0  0  0  0  0  0  0
   18.7416   70.0921   -6.7734 O   0  0  0  0  0  0  0  0  0  0  0  0
   18.1156   69.8223   -9.6934 O   0  0  0  0  0  0  0  0  0  0  0  0
   15.8225   70.9061   -8.6916 O   0  0  0  0  0  0  0  0  0  0  0  0
   18.2426   71.0034   -8.9033 C   0  0  1  0  0  0  0  0  0  0  0  0
   17.0315   71.1710   -8.0097 C   0  0  2  0  0  0  0  0  0  0  0  0
   19.3563   70.7723   -7.8896 C   0  0  1  0  0  0  0  0  0  0  0  0
   17.3127   70.1655   -6.9060 C   0  0  2  0  0  0  0  0  0  0  0  0
   17.4103   69.9460  -10.3485 H   0  0  0  0  0  0  0  0  0  0  0  0
   15.6886   71.5726   -9.3833 H   0  0  0  0  0  0  0  0  0  0  0  0
   16.7109   68.3862   -4.7966 O   0  0  0  0  0  0  0  0  0  0  0  0
   15.1444   71.7972   -2.1222 O   0  0  0  0  0  0  0  0  0  0  0  0
   16.7472   70.5615   -5.6472 N   0  0  0  0  0  0  0  0  0  0  0  0
   15.9316   70.0861   -3.4666 N   0  0  0  0  0  0  0  0  0  0  0  0
   16.4822   69.5892   -4.6548 C   0  0  0  0  0  0  0  0  0  0  0  0
   16.4618   71.9011   -5.4065 C   0  0  0  0  0  0  0  0  0  0  0  0
   15.9356   72.3585   -4.2685 C   0  0  0  0  0  0  0  0  0  0  0  0
   15.6287   71.4078   -3.1803 C   0  0  0  0  0  0  0  0  0  0  0  0
   15.7382   69.4269   -2.7610 H   0  0  0  0  0  0  0  0  0  0  0  0
   22.6640   72.3987   -4.6589 O   0  0  0  0  0  0  0  0  0  0  0  0
   23.5977   73.1467   -3.5718 P   0  0  2  0  0  0  0  0  0  0  0  0
   22.6036   74.2455   -2.9223 O   0  0  0  0  0  0  0  0  0  0  0  0
   24.8657   73.7169   -4.1382 O   0  0  0  0  0  0  0  0  0  0  0  0
   23.8185   72.0555   -2.4032 O   0  0  0  0  0  0  0  0  0  0  0  0
   24.1166   69.7063   -2.4981 O   0  0  0  0  0  0  0  0  0  0  0  0
   21.7806   69.9383    0.8990 O   0  0  0  0  0  0  0  0  0  0  0  0
   24.5723   69.3082    1.1383 O   0  0  0  0  0  0  0  0  0  0  0  0
   21.2460   71.6892   -1.3434 O   0  0  0  0  0  0  0  0  0  0  0  0
   22.7775   70.3745   -0.0290 C   0  0  1  0  0  0  0  0  0  0  0  0
   23.8678   69.3035   -0.1003 C   0  0  1  0  0  0  0  0  0  0  0  0
   22.1310   70.5755   -1.3983 C   0  0  2  0  0  0  0  0  0  0  0  0
   24.8315   69.5707   -1.2643 C   0  0  1  0  0  0  0  0  0  0  0  0
   23.1792   70.7848   -2.4926 C   0  0  1  0  0  0  0  0  0  0  0  0
   22.1844   69.8093    1.7706 H   0  0  0  0  0  0  0  0  0  0  0  0
   23.9523   69.1389    1.8650 H   0  0  0  0  0  0  0  0  0  0  0  0
   20.5871   71.5444   -0.6471 H   0  0  0  0  0  0  0  0  0  0  0  0
   26.5061   68.6237   -2.6814 O   0  0  0  0  0  0  0  0  0  0  0  0
   25.8320   68.4322   -1.4512 C   0  0  0  0  0  0  0  0  0  0  0  0
   27.1464   67.9066   -2.8136 H   0  0  0  0  0  0  0  0  0  0  0  0
 25 28  1  0
 25 24  1  0
 25 26  1  1
 25 27  2  0
  1  4  1  0
  1 24  1  0
  1  2  1  1
  1  3  2  0
  6 11  1  0
  6 12  1  0
 29 36  1  0
 29 37  1  0
  9  7  1  6
  7 13  1  0
 10  8  1  6
  8 14  1  0
 37 28  1  1
  4  5  1  0
 33 30  1  1
 30 38  1  0
 34 31  1  1
 31 39  1  0
 35 32  1  1
 32 40  1  0
 41 42  1  0
 41 43  1  0
 15 19  2  0
 16 22  2  0
 12 17  1  1
 17 19  1  0
 17 20  1  0
 18 19  1  0
 18 22  1  0
 18 23  1  0
  9 10  1  0
  9 11  1  0
 10 12  1  0
 11  5  1  1
 33 34  1  0
 33 35  1  0
 34 36  1  0
 35 37  1  0
 36 42  1  6
 20 21  2  0
 21 22  1  0
M  CHG  2   2  -1  26  -1
M  END
>  <COMPND>  (26) 
    8629 

>  <AUTHOR>  (26) 
    GENERATED BY OPEN BABEL 3.1.1

>  <MASTER>  (26) 
        0    0    0    0    0    0    0    0   58    0   58    0

>  <minimizedAffinity>  (26) 
-8.79849

>  <CNNscore>  (26) 
0.6298321486

>  <CNNaffinity>  (26) 
4.3945159912

>  <CNN_VS>  (26) 
2.7678074837

>  <CNNaffinity_variance>  (26) 
0.4477237165

$$$$
27
     RDKit          3D

 43 45  0  0  0  0  0  0  0  0999 V2000
   22.5182   71.8463   -3.4107 P   0  0  2  0  0  0  0  0  0  0  0  0
   21.6078   70.5117   -3.3240 O   0  0  0  0  0  0  0  0  0  0  0  0
   23.9893   71.6005   -3.5747 O   0  0  0  0  0  0  0  0  0  0  0  0
   22.0893   72.6948   -2.1015 O   0  0  0  0  0  0  0  0  0  0  0  0
   22.9946   72.7631   -1.0136 C   0  0  0  0  0  0  0  0  0  0  0  0
   24.1986   71.2891    0.4532 O   0  0  0  0  0  0  0  0  0  0  0  0
   21.5395   70.0624    1.0975 O   0  0  0  0  0  0  0  0  0  0  0  0
   21.9838   71.6811    3.2467 O   0  0  0  0  0  0  0  0  0  0  0  0
   21.8633   71.4261    0.8318 C   0  0  1  0  0  0  0  0  0  0  0  0
   22.5821   72.0364    2.0169 C   0  0  2  0  0  0  0  0  0  0  0  0
   22.9432   71.4512   -0.2427 C   0  0  1  0  0  0  0  0  0  0  0  0
   23.9827   71.4685    1.8624 C   0  0  2  0  0  0  0  0  0  0  0  0
   20.8513   70.0208    1.7807 H   0  0  0  0  0  0  0  0  0  0  0  0
   21.0949   72.0659    3.2972 H   0  0  0  0  0  0  0  0  0  0  0  0
   26.6706   70.7272    2.3137 O   0  0  0  0  0  0  0  0  0  0  0  0
   27.7633   74.9317    3.8531 O   0  0  0  0  0  0  0  0  0  0  0  0
   24.9912   72.3496    2.3802 N   0  0  0  0  0  0  0  0  0  0  0  0
   27.2126   72.8214    3.0796 N   0  0  0  0  0  0  0  0  0  0  0  0
   26.3110   71.8780    2.5705 C   0  0  0  0  0  0  0  0  0  0  0  0
   24.6675   73.6654    2.6931 C   0  0  0  0  0  0  0  0  0  0  0  0
   25.5387   74.5520    3.1790 C   0  0  0  0  0  0  0  0  0  0  0  0
   26.9387   74.1398    3.4073 C   0  0  0  0  0  0  0  0  0  0  0  0
   28.1378   72.5153    3.2208 H   0  0  0  0  0  0  0  0  0  0  0  0
   21.8355   72.6740   -4.6198 O   0  0  0  0  0  0  0  0  0  0  0  0
   20.3207   73.2005   -4.8233 P   0  0  2  0  0  0  0  0  0  0  0  0
   20.5088   74.7902   -5.0573 O   0  0  0  0  0  0  0  0  0  0  0  0
   19.3898   72.8457   -3.7002 O   0  0  0  0  0  0  0  0  0  0  0  0
   19.8788   72.6256   -6.2653 O   0  0  0  0  0  0  0  0  0  0  0  0
   19.0376   70.4390   -5.9084 O   0  0  0  0  0  0  0  0  0  0  0  0
   18.7200   70.6048  -10.0221 O   0  0  0  0  0  0  0  0  0  0  0  0
   16.3465   70.7338   -8.4104 O   0  0  0  0  0  0  0  0  0  0  0  0
   21.0018   71.7993   -8.7007 O   0  0  0  0  0  0  0  0  0  0  0  0
   18.6892   71.1264   -8.6908 C   0  0  1  0  0  0  0  0  0  0  0  0
   17.6244   70.3626   -7.9011 C   0  0  1  0  0  0  0  0  0  0  0  0
   20.0649   70.9461   -8.0520 C   0  0  2  0  0  0  0  0  0  0  0  0
   17.7143   70.6779   -6.4018 C   0  0  1  0  0  0  0  0  0  0  0  0
   20.0332   71.2378   -6.5507 C   0  0  1  0  0  0  0  0  0  0  0  0
   17.8496   70.7166  -10.4336 H   0  0  0  0  0  0  0  0  0  0  0  0
   16.3031   70.5299   -9.3579 H   0  0  0  0  0  0  0  0  0  0  0  0
   21.0127   71.6046   -9.6503 H   0  0  0  0  0  0  0  0  0  0  0  0
   16.0199   68.9943   -6.4612 O   0  0  0  0  0  0  0  0  0  0  0  0
   16.7671   69.8092   -5.5770 C   0  0  0  0  0  0  0  0  0  0  0  0
   15.4129   68.4357   -5.9501 H   0  0  0  0  0  0  0  0  0  0  0  0
 25 28  1  0
 25 24  1  0
 25 26  1  6
 25 27  2  0
  1  4  1  0
  1 24  1  0
  1  2  1  1
  1  3  2  0
  6 11  1  0
  6 12  1  0
 29 36  1  0
 29 37  1  0
  9  7  1  1
  7 13  1  0
 10  8  1  1
  8 14  1  0
 37 28  1  6
  4  5  1  0
 33 30  1  6
 30 38  1  0
 34 31  1  6
 31 39  1  0
 35 32  1  6
 32 40  1  0
 41 42  1  0
 41 43  1  0
 15 19  2  0
 16 22  2  0
 12 17  1  6
 17 19  1  0
 17 20  1  0
 18 19  1  0
 18 22  1  0
 18 23  1  0
  9 10  1  0
  9 11  1  0
 10 12  1  0
 11  5  1  1
 33 34  1  0
 33 35  1  0
 34 36  1  0
 35 37  1  0
 36 42  1  1
 20 21  2  0
 21 22  1  0
M  CHG  2   2  -1  26  -1
M  END
>  <COMPND>  (27) 
    8629 

>  <AUTHOR>  (27) 
    GENERATED BY OPEN BABEL 3.1.1

>  <MASTER>  (27) 
        0    0    0    0    0    0    0    0   58    0   58    0

>  <minimizedAffinity>  (27) 
-7.71249

>  <CNNscore>  (27) 
0.5985775590

>  <CNNaffinity>  (27) 
4.2377691269

>  <CNN_VS>  (27) 
2.5366334915

>  <CNNaffinity_variance>  (27) 
0.1209800839

$$$$
28
     RDKit          3D

 43 45  0  0  0  0  0  0  0  0999 V2000
   22.8756   72.8940   -3.5815 P   0  0  2  0  0  0  0  0  0  0  0  0
   23.9394   71.6762   -3.6336 O   0  0  0  0  0  0  0  0  0  0  0  0
   23.4798   74.2663   -3.6365 O   0  0  0  0  0  0  0  0  0  0  0  0
   21.9807   72.5722   -2.2725 O   0  0  0  0  0  0  0  0  0  0  0  0
   21.7894   73.5992   -1.3152 C   0  0  0  0  0  0  0  0  0  0  0  0
   19.7856   73.7944   -2.6270 O   0  0  0  0  0  0  0  0  0  0  0  0
   19.3185   76.3826   -1.1869 O   0  0  0  0  0  0  0  0  0  0  0  0
   17.6480   74.6667    0.1175 O   0  0  0  0  0  0  0  0  0  0  0  0
   19.8832   75.1672   -0.6978 C   0  0  1  0  0  0  0  0  0  0  0  0
   18.8003   74.1275   -0.4975 C   0  0  2  0  0  0  0  0  0  0  0  0
   20.7124   74.5510   -1.8177 C   0  0  1  0  0  0  0  0  0  0  0  0
   18.5408   73.6645   -1.9210 C   0  0  2  0  0  0  0  0  0  0  0  0
   18.7846   76.7947   -0.4891 H   0  0  0  0  0  0  0  0  0  0  0  0
   17.8643   74.9466    1.0206 H   0  0  0  0  0  0  0  0  0  0  0  0
   15.8724   72.8127   -1.5579 O   0  0  0  0  0  0  0  0  0  0  0  0
   17.0075   68.3887   -2.1754 O   0  0  0  0  0  0  0  0  0  0  0  0
   18.1108   72.2960   -1.9820 N   0  0  0  0  0  0  0  0  0  0  0  0
   16.4397   70.6106   -1.8659 N   0  0  0  0  0  0  0  0  0  0  0  0
   16.7476   71.9746   -1.7845 C   0  0  0  0  0  0  0  0  0  0  0  0
   19.0362   71.2894   -2.2356 C   0  0  0  0  0  0  0  0  0  0  0  0
   18.7266   69.9932   -2.3088 C   0  0  0  0  0  0  0  0  0  0  0  0
   17.3240   69.5728   -2.1143 C   0  0  0  0  0  0  0  0  0  0  0  0
   15.4962   70.3629   -1.7312 H   0  0  0  0  0  0  0  0  0  0  0  0
   21.8714   72.5517   -4.8012 O   0  0  0  0  0  0  0  0  0  0  0  0
   21.3854   73.4440   -6.0584 P   0  0  2  0  0  0  0  0  0  0  0  0
   22.5355   73.1822   -7.1658 O   0  0  0  0  0  0  0  0  0  0  0  0
   21.1566   74.8918   -5.7336 O   0  0  0  0  0  0  0  0  0  0  0  0
   20.0872   72.6732   -6.6288 O   0  0  0  0  0  0  0  0  0  0  0  0
   19.1158   70.5905   -6.0497 O   0  0  0  0  0  0  0  0  0  0  0  0
   18.5692   70.4587  -10.1405 O   0  0  0  0  0  0  0  0  0  0  0  0
   16.3097   70.8911   -8.4213 O   0  0  0  0  0  0  0  0  0  0  0  0
   21.0036   71.5775   -9.0443 O   0  0  0  0  0  0  0  0  0  0  0  0
   18.6537   71.0834   -8.8567 C   0  0  1  0  0  0  0  0  0  0  0  0
   17.5860   70.4657   -7.9517 C   0  0  1  0  0  0  0  0  0  0  0  0
   20.0485   70.8504   -8.2791 C   0  0  2  0  0  0  0  0  0  0  0  0
   17.7860   70.8891   -6.4902 C   0  0  1  0  0  0  0  0  0  0  0  0
   20.1259   71.2597   -6.8072 C   0  0  1  0  0  0  0  0  0  0  0  0
   17.6861   70.6034  -10.5130 H   0  0  0  0  0  0  0  0  0  0  0  0
   16.1963   70.6179   -9.3452 H   0  0  0  0  0  0  0  0  0  0  0  0
   20.9448   71.3091   -9.9741 H   0  0  0  0  0  0  0  0  0  0  0  0
   16.2495   69.0755   -6.2471 O   0  0  0  0  0  0  0  0  0  0  0  0
   16.8299   70.1611   -5.5479 C   0  0  0  0  0  0  0  0  0  0  0  0
   15.6388   68.6027   -5.6596 H   0  0  0  0  0  0  0  0  0  0  0  0
 25 28  1  0
 25 24  1  0
 25 26  1  6
 25 27  2  0
  1  4  1  0
  1 24  1  0
  1  2  1  6
  1  3  2  0
  6 11  1  0
  6 12  1  0
 29 36  1  0
 29 37  1  0
  9  7  1  6
  7 13  1  0
 10  8  1  6
  8 14  1  0
 37 28  1  6
  4  5  1  0
 33 30  1  6
 30 38  1  0
 34 31  1  6
 31 39  1  0
 35 32  1  6
 32 40  1  0
 41 42  1  0
 41 43  1  0
 15 19  2  0
 16 22  2  0
 12 17  1  1
 17 19  1  0
 17 20  1  0
 18 19  1  0
 18 22  1  0
 18 23  1  0
  9 10  1  0
  9 11  1  0
 10 12  1  0
 11  5  1  1
 33 34  1  0
 33 35  1  0
 34 36  1  0
 35 37  1  0
 36 42  1  1
 20 21  2  0
 21 22  1  0
M  CHG  2   2  -1  26  -1
M  END
>  <COMPND>  (28) 
    8629 

>  <AUTHOR>  (28) 
    GENERATED BY OPEN BABEL 3.1.1

>  <MASTER>  (28) 
        0    0    0    0    0    0    0    0   58    0   58    0

>  <minimizedAffinity>  (28) 
-6.30510

>  <CNNscore>  (28) 
0.5965127349

>  <CNNaffinity>  (28) 
4.1176252365

>  <CNN_VS>  (28) 
2.4562158585

>  <CNNaffinity_variance>  (28) 
0.4032790065

$$$$
29
     RDKit          3D

 43 45  0  0  0  0  0  0  0  0999 V2000
   23.0781   72.9737   -3.4235 P   0  0  2  0  0  0  0  0  0  0  0  0
   24.2663   72.7177   -4.4912 O   0  0  0  0  0  0  0  0  0  0  0  0
   22.8541   74.4114   -3.0572 O   0  0  0  0  0  0  0  0  0  0  0  0
   23.4394   71.9839   -2.1956 O   0  0  0  0  0  0  0  0  0  0  0  0
   23.5555   72.5343   -0.8951 C   0  0  0  0  0  0  0  0  0  0  0  0
   22.7825   70.3016   -0.4579 O   0  0  0  0  0  0  0  0  0  0  0  0
   22.5476   71.1451    2.4098 O   0  0  0  0  0  0  0  0  0  0  0  0
   24.8894   69.7479    2.3911 O   0  0  0  0  0  0  0  0  0  0  0  0
   23.5222   71.5175    1.4368 C   0  0  1  0  0  0  0  0  0  0  0  0
   24.4834   70.3733    1.1908 C   0  0  2  0  0  0  0  0  0  0  0  0
   22.8192   71.6373    0.0905 C   0  0  1  0  0  0  0  0  0  0  0  0
   23.6603   69.4557    0.3028 C   0  0  2  0  0  0  0  0  0  0  0  0
   22.9730   71.0627    3.2783 H   0  0  0  0  0  0  0  0  0  0  0  0
   25.4096   70.3718    2.9211 H   0  0  0  0  0  0  0  0  0  0  0  0
   24.2819   66.7200    0.6314 O   0  0  0  0  0  0  0  0  0  0  0  0
   26.7941   66.6386   -3.2316 O   0  0  0  0  0  0  0  0  0  0  0  0
   24.4744   68.6944   -0.6022 N   0  0  0  0  0  0  0  0  0  0  0  0
   25.5321   66.6817   -1.2925 N   0  0  0  0  0  0  0  0  0  0  0  0
   24.7268   67.3267   -0.3452 C   0  0  0  0  0  0  0  0  0  0  0  0
   25.0128   69.3042   -1.7301 C   0  0  0  0  0  0  0  0  0  0  0  0
   25.7800   68.6754   -2.6231 C   0  0  0  0  0  0  0  0  0  0  0  0
   26.0917   67.2447   -2.4285 C   0  0  0  0  0  0  0  0  0  0  0  0
   25.7217   65.7284   -1.1339 H   0  0  0  0  0  0  0  0  0  0  0  0
   21.8080   72.2492   -4.1126 O   0  0  0  0  0  0  0  0  0  0  0  0
   20.4546   71.6422   -3.4700 P   0  0  2  0  0  0  0  0  0  0  0  0
   20.0920   72.7003   -2.3009 O   0  0  0  0  0  0  0  0  0  0  0  0
   20.5790   70.2211   -3.0022 O   0  0  0  0  0  0  0  0  0  0  0  0
   19.3250   71.8785   -4.5983 O   0  0  0  0  0  0  0  0  0  0  0  0
   19.0766   71.1316   -6.8337 O   0  0  0  0  0  0  0  0  0  0  0  0
   17.8466   75.0451   -7.3053 O   0  0  0  0  0  0  0  0  0  0  0  0
   15.9089   72.9277   -7.4068 O   0  0  0  0  0  0  0  0  0  0  0  0
   20.0453   74.4269   -5.5268 O   0  0  0  0  0  0  0  0  0  0  0  0
   17.9925   73.7988   -6.6189 C   0  0  1  0  0  0  0  0  0  0  0  0
   17.3162   72.7096   -7.4538 C   0  0  1  0  0  0  0  0  0  0  0  0
   19.4796   73.4966   -6.4438 C   0  0  2  0  0  0  0  0  0  0  0  0
   17.6583   71.3113   -6.9217 C   0  0  1  0  0  0  0  0  0  0  0  0
   19.7114   72.0649   -5.9574 C   0  0  1  0  0  0  0  0  0  0  0  0
   16.9046   75.2431   -7.4193 H   0  0  0  0  0  0  0  0  0  0  0  0
   15.7065   73.8142   -7.7450 H   0  0  0  0  0  0  0  0  0  0  0  0
   19.8921   75.3294   -5.8461 H   0  0  0  0  0  0  0  0  0  0  0  0
   15.7682   69.9693   -7.5009 O   0  0  0  0  0  0  0  0  0  0  0  0
   17.1242   70.2069   -7.8311 C   0  0  0  0  0  0  0  0  0  0  0  0
   15.4149   69.2688   -8.0720 H   0  0  0  0  0  0  0  0  0  0  0  0
 25 28  1  0
 25 24  1  0
 25 26  1  1
 25 27  2  0
  1  4  1  0
  1 24  1  0
  1  2  1  6
  1  3  2  0
  6 11  1  0
  6 12  1  0
 29 36  1  0
 29 37  1  0
  9  7  1  1
  7 13  1  0
 10  8  1  1
  8 14  1  0
 37 28  1  1
  4  5  1  0
 33 30  1  6
 30 38  1  0
 34 31  1  1
 31 39  1  0
 35 32  1  1
 32 40  1  0
 41 42  1  0
 41 43  1  0
 15 19  2  0
 16 22  2  0
 12 17  1  6
 17 19  1  0
 17 20  1  0
 18 19  1  0
 18 22  1  0
 18 23  1  0
  9 10  1  0
  9 11  1  0
 10 12  1  0
 11  5  1  6
 33 34  1  0
 33 35  1  0
 34 36  1  0
 35 37  1  0
 36 42  1  6
 20 21  2  0
 21 22  1  0
M  CHG  2   2  -1  26  -1
M  END
>  <COMPND>  (29) 
    8629 

>  <AUTHOR>  (29) 
    GENERATED BY OPEN BABEL 3.1.1

>  <MASTER>  (29) 
        0    0    0    0    0    0    0    0   58    0   58    0

>  <minimizedAffinity>  (29) 
-7.66741

>  <CNNscore>  (29) 
0.4848521352

>  <CNNaffinity>  (29) 
4.3240227699

>  <CNN_VS>  (29) 
2.0965116024

>  <CNNaffinity_variance>  (29) 
0.1252523661

$$$$
30
     RDKit          3D

 43 45  0  0  0  0  0  0  0  0999 V2000
   22.7994   72.3728   -3.6150 P   0  0  2  0  0  0  0  0  0  0  0  0
   22.3076   70.8317   -3.6387 O   0  0  0  0  0  0  0  0  0  0  0  0
   24.2145   72.5934   -4.0626 O   0  0  0  0  0  0  0  0  0  0  0  0
   22.4517   72.8684   -2.1146 O   0  0  0  0  0  0  0  0  0  0  0  0
   23.3693   72.5742   -1.0757 C   0  0  0  0  0  0  0  0  0  0  0  0
   22.6583   70.3474   -0.5195 O   0  0  0  0  0  0  0  0  0  0  0  0
   22.4697   71.3160    2.3119 O   0  0  0  0  0  0  0  0  0  0  0  0
   24.8421   69.9713    2.3005 O   0  0  0  0  0  0  0  0  0  0  0  0
   23.4129   71.6648    1.3001 C   0  0  1  0  0  0  0  0  0  0  0  0
   24.3944   70.5320    1.0832 C   0  0  2  0  0  0  0  0  0  0  0  0
   22.6767   71.7073   -0.0332 C   0  0  1  0  0  0  0  0  0  0  0  0
   23.5726   69.5567    0.2576 C   0  0  2  0  0  0  0  0  0  0  0  0
   22.9166   71.2828    3.1728 H   0  0  0  0  0  0  0  0  0  0  0  0
   25.3597   70.6302    2.7891 H   0  0  0  0  0  0  0  0  0  0  0  0
   24.2762   66.8576    0.7017 O   0  0  0  0  0  0  0  0  0  0  0  0
   26.6884   66.6502   -3.2200 O   0  0  0  0  0  0  0  0  0  0  0  0
   24.3832   68.7730   -0.6313 N   0  0  0  0  0  0  0  0  0  0  0  0
   25.4766   66.7565   -1.2514 N   0  0  0  0  0  0  0  0  0  0  0  0
   24.6790   67.4265   -0.3150 C   0  0  0  0  0  0  0  0  0  0  0  0
   24.8754   69.3400   -1.8018 C   0  0  0  0  0  0  0  0  0  0  0  0
   25.6357   68.6879   -2.6837 C   0  0  0  0  0  0  0  0  0  0  0  0
   25.9909   67.2769   -2.4284 C   0  0  0  0  0  0  0  0  0  0  0  0
   25.6959   65.8174   -1.0519 H   0  0  0  0  0  0  0  0  0  0  0  0
   21.6849   73.1239   -4.5132 O   0  0  0  0  0  0  0  0  0  0  0  0
   21.5560   73.3023   -6.1146 P   0  0  2  0  0  0  0  0  0  0  0  0
   22.7314   72.3509   -6.6897 O   0  0  0  0  0  0  0  0  0  0  0  0
   21.6277   74.7269   -6.5828 O   0  0  0  0  0  0  0  0  0  0  0  0
   20.1876   72.5390   -6.5018 O   0  0  0  0  0  0  0  0  0  0  0  0
   19.2124   70.4295   -6.0375 O   0  0  0  0  0  0  0  0  0  0  0  0
   18.5740   70.5685  -10.1148 O   0  0  0  0  0  0  0  0  0  0  0  0
   16.3569   70.9030   -8.3202 O   0  0  0  0  0  0  0  0  0  0  0  0
   21.0412   71.5970   -9.0037 O   0  0  0  0  0  0  0  0  0  0  0  0
   18.6921   71.1075   -8.7953 C   0  0  1  0  0  0  0  0  0  0  0  0
   17.6397   70.4392   -7.9084 C   0  0  1  0  0  0  0  0  0  0  0  0
   20.0974   70.8280   -8.2659 C   0  0  2  0  0  0  0  0  0  0  0  0
   17.8756   70.7651   -6.4274 C   0  0  1  0  0  0  0  0  0  0  0  0
   20.2109   71.1399   -6.7726 C   0  0  1  0  0  0  0  0  0  0  0  0
   17.6841   70.7430  -10.4569 H   0  0  0  0  0  0  0  0  0  0  0  0
   16.2207   70.6914   -9.2571 H   0  0  0  0  0  0  0  0  0  0  0  0
   20.9596   71.3903   -9.9473 H   0  0  0  0  0  0  0  0  0  0  0  0
   16.2016   69.0649   -6.3020 O   0  0  0  0  0  0  0  0  0  0  0  0
   16.9348   69.9837   -5.5129 C   0  0  0  0  0  0  0  0  0  0  0  0
   15.5987   68.5602   -5.7331 H   0  0  0  0  0  0  0  0  0  0  0  0
 25 28  1  0
 25 24  1  0
 25 26  1  6
 25 27  2  0
  1  4  1  0
  1 24  1  0
  1  2  1  1
  1  3  2  0
  6 11  1  0
  6 12  1  0
 29 36  1  0
 29 37  1  0
  9  7  1  1
  7 13  1  0
 10  8  1  1
  8 14  1  0
 37 28  1  6
  4  5  1  0
 33 30  1  6
 30 38  1  0
 34 31  1  6
 31 39  1  0
 35 32  1  6
 32 40  1  0
 41 42  1  0
 41 43  1  0
 15 19  2  0
 16 22  2  0
 12 17  1  6
 17 19  1  0
 17 20  1  0
 18 19  1  0
 18 22  1  0
 18 23  1  0
  9 10  1  0
  9 11  1  0
 10 12  1  0
 11  5  1  6
 33 34  1  0
 33 35  1  0
 34 36  1  0
 35 37  1  0
 36 42  1  1
 20 21  2  0
 21 22  1  0
M  CHG  2   2  -1  26  -1
M  END
>  <COMPND>  (30) 
    8629 

>  <AUTHOR>  (30) 
    GENERATED BY OPEN BABEL 3.1.1

>  <MASTER>  (30) 
        0    0    0    0    0    0    0    0   58    0   58    0

>  <minimizedAffinity>  (30) 
-8.97169

>  <CNNscore>  (30) 
0.4663219452

>  <CNNaffinity>  (30) 
4.3344116211

>  <CNN_VS>  (30) 
2.0212311745

>  <CNNaffinity_variance>  (30) 
0.2802583873

$$$$
31
     RDKit          3D

 43 45  0  0  0  0  0  0  0  0999 V2000
   20.5124   71.0043   -2.9330 P   0  0  2  0  0  0  0  0  0  0  0  0
   20.7172   69.6326   -3.7660 O   0  0  0  0  0  0  0  0  0  0  0  0
   21.1918   72.2079   -3.5172 O   0  0  0  0  0  0  0  0  0  0  0  0
   20.9508   70.6125   -1.4257 O   0  0  0  0  0  0  0  0  0  0  0  0
   21.7066   71.5482   -0.6765 C   0  0  0  0  0  0  0  0  0  0  0  0
   22.4247   69.5532    0.4541 O   0  0  0  0  0  0  0  0  0  0  0  0
   23.1871   71.3446    2.7345 O   0  0  0  0  0  0  0  0  0  0  0  0
   25.5844   70.8696    1.5246 O   0  0  0  0  0  0  0  0  0  0  0  0
   23.2693   71.5864    1.3309 C   0  0  1  0  0  0  0  0  0  0  0  0
   24.4184   70.8047    0.7290 C   0  0  2  0  0  0  0  0  0  0  0  0
   22.0608   70.9341    0.6709 C   0  0  1  0  0  0  0  0  0  0  0  0
   23.8397   69.4020    0.6531 C   0  0  2  0  0  0  0  0  0  0  0  0
   23.9484   71.7521    3.1777 H   0  0  0  0  0  0  0  0  0  0  0  0
   25.9141   71.7816    1.5416 H   0  0  0  0  0  0  0  0  0  0  0  0
   24.3306   66.6217    0.7337 O   0  0  0  0  0  0  0  0  0  0  0  0
   25.9368   66.5948   -3.5861 O   0  0  0  0  0  0  0  0  0  0  0  0
   24.3854   68.6428   -0.4365 N   0  0  0  0  0  0  0  0  0  0  0  0
   25.1298   66.6105   -1.4174 N   0  0  0  0  0  0  0  0  0  0  0  0
   24.5939   67.2512   -0.2930 C   0  0  0  0  0  0  0  0  0  0  0  0
   24.7073   69.2779   -1.6310 C   0  0  0  0  0  0  0  0  0  0  0  0
   25.2188   68.6527   -2.6935 C   0  0  0  0  0  0  0  0  0  0  0  0
   25.4673   67.1982   -2.6263 C   0  0  0  0  0  0  0  0  0  0  0  0
   25.2840   65.6409   -1.3404 H   0  0  0  0  0  0  0  0  0  0  0  0
   18.9043   71.1265   -2.8236 O   0  0  0  0  0  0  0  0  0  0  0  0
   17.7268   70.1663   -3.3753 P   0  0  2  0  0  0  0  0  0  0  0  0
   16.3794   70.9838   -3.0095 O   0  0  0  0  0  0  0  0  0  0  0  0
   17.7687   68.7671   -2.8327 O   0  0  0  0  0  0  0  0  0  0  0  0
   17.8393   70.2641   -4.9824 O   0  0  0  0  0  0  0  0  0  0  0  0
   19.1464   71.6680   -6.3742 O   0  0  0  0  0  0  0  0  0  0  0  0
   15.6759   71.5692   -8.6096 O   0  0  0  0  0  0  0  0  0  0  0  0
   17.9922   70.1381   -9.5232 O   0  0  0  0  0  0  0  0  0  0  0  0
   15.5300   71.6774   -5.7206 O   0  0  0  0  0  0  0  0  0  0  0  0
   16.6804   71.0417   -7.7389 C   0  0  1  0  0  0  0  0  0  0  0  0
   18.0241   71.0957   -8.4686 C   0  0  1  0  0  0  0  0  0  0  0  0
   16.7269   71.8814   -6.4638 C   0  0  2  0  0  0  0  0  0  0  0  0
   19.1864   70.7984   -7.5117 C   0  0  1  0  0  0  0  0  0  0  0  0
   17.9475   71.5405   -5.6071 C   0  0  1  0  0  0  0  0  0  0  0  0
   15.6409   71.0402   -9.4210 H   0  0  0  0  0  0  0  0  0  0  0  0
   17.2536   70.3369  -10.1199 H   0  0  0  0  0  0  0  0  0  0  0  0
   14.7647   71.8969   -6.2737 H   0  0  0  0  0  0  0  0  0  0  0  0
   20.9337   72.3512   -8.0066 O   0  0  0  0  0  0  0  0  0  0  0  0
   20.5442   71.0013   -8.1807 C   0  0  0  0  0  0  0  0  0  0  0  0
   21.7964   72.4949   -8.4271 H   0  0  0  0  0  0  0  0  0  0  0  0
 25 28  1  0
 25 24  1  0
 25 26  1  1
 25 27  2  0
  1  4  1  0
  1 24  1  0
  1  2  1  6
  1  3  2  0
  6 11  1  0
  6 12  1  0
 29 36  1  0
 29 37  1  0
  9  7  1  1
  7 13  1  0
 10  8  1  1
  8 14  1  0
 37 28  1  6
  4  5  1  0
 33 30  1  6
 30 38  1  0
 34 31  1  6
 31 39  1  0
 35 32  1  1
 32 40  1  0
 41 42  1  0
 41 43  1  0
 15 19  2  0
 16 22  2  0
 12 17  1  6
 17 19  1  0
 17 20  1  0
 18 19  1  0
 18 22  1  0
 18 23  1  0
  9 10  1  0
  9 11  1  0
 10 12  1  0
 11  5  1  6
 33 34  1  0
 33 35  1  0
 34 36  1  0
 35 37  1  0
 36 42  1  6
 20 21  2  0
 21 22  1  0
M  CHG  2   2  -1  26  -1
M  END
>  <COMPND>  (31) 
    8629 

>  <AUTHOR>  (31) 
    GENERATED BY OPEN BABEL 3.1.1

>  <MASTER>  (31) 
        0    0    0    0    0    0    0    0   58    0   58    0

>  <minimizedAffinity>  (31) 
-8.62708

>  <CNNscore>  (31) 
0.4489144981

>  <CNNaffinity>  (31) 
4.3685503006

>  <CNN_VS>  (31) 
1.9611055851

>  <CNNaffinity_variance>  (31) 
0.2789246738

$$$$
32
     RDKit          3D

 43 45  0  0  0  0  0  0  0  0999 V2000
   22.1414   71.6124   -3.0621 P   0  0  2  0  0  0  0  0  0  0  0  0
   21.2579   72.7586   -3.7853 O   0  0  0  0  0  0  0  0  0  0  0  0
   23.5516   71.4906   -3.5601 O   0  0  0  0  0  0  0  0  0  0  0  0
   21.2324   70.2804   -3.1937 O   0  0  0  0  0  0  0  0  0  0  0  0
   20.1298   70.2995   -4.0835 C   0  0  0  0  0  0  0  0  0  0  0  0
   17.9886   71.3132   -3.6817 O   0  0  0  0  0  0  0  0  0  0  0  0
   17.2047   68.7123   -2.4122 O   0  0  0  0  0  0  0  0  0  0  0  0
   16.0531   68.5410   -4.8781 O   0  0  0  0  0  0  0  0  0  0  0  0
   18.0432   68.9482   -3.5421 C   0  0  1  0  0  0  0  0  0  0  0  0
   17.2088   69.3428   -4.7428 C   0  0  2  0  0  0  0  0  0  0  0  0
   18.8406   70.2192   -3.2774 C   0  0  1  0  0  0  0  0  0  0  0  0
   16.8808   70.7940   -4.4354 C   0  0  2  0  0  0  0  0  0  0  0  0
   16.6857   67.9053   -2.5578 H   0  0  0  0  0  0  0  0  0  0  0  0
   16.3142   67.6274   -5.0730 H   0  0  0  0  0  0  0  0  0  0  0  0
   14.8874   72.7654   -4.7792 O   0  0  0  0  0  0  0  0  0  0  0  0
   16.3408   73.7533   -9.0398 O   0  0  0  0  0  0  0  0  0  0  0  0
   16.7156   71.5818   -5.6243 N   0  0  0  0  0  0  0  0  0  0  0  0
   15.6128   73.2558   -6.9003 N   0  0  0  0  0  0  0  0  0  0  0  0
   15.6821   72.5448   -5.6954 C   0  0  0  0  0  0  0  0  0  0  0  0
   17.5729   71.3961   -6.7034 C   0  0  0  0  0  0  0  0  0  0  0  0
   17.4927   72.0814   -7.8458 C   0  0  0  0  0  0  0  0  0  0  0  0
   16.4407   73.1066   -8.0017 C   0  0  0  0  0  0  0  0  0  0  0  0
   14.9004   73.9317   -6.9728 H   0  0  0  0  0  0  0  0  0  0  0  0
   22.0114   71.9877   -1.4952 O   0  0  0  0  0  0  0  0  0  0  0  0
   22.1175   71.0670   -0.1708 P   0  0  2  0  0  0  0  0  0  0  0  0
   23.2962   70.0218   -0.5389 O   0  0  0  0  0  0  0  0  0  0  0  0
   20.8238   70.4232    0.2363 O   0  0  0  0  0  0  0  0  0  0  0  0
   22.7646   72.0338    0.9480 O   0  0  0  0  0  0  0  0  0  0  0  0
   24.4560   71.6528    2.5637 O   0  0  0  0  0  0  0  0  0  0  0  0
   21.9188   74.0134    4.8087 O   0  0  0  0  0  0  0  0  0  0  0  0
   24.4088   75.0977    3.8749 O   0  0  0  0  0  0  0  0  0  0  0  0
   20.8267   72.0555    2.9775 O   0  0  0  0  0  0  0  0  0  0  0  0
   22.5801   73.5777    3.6179 C   0  0  1  0  0  0  0  0  0  0  0  0
   24.0892   73.7098    3.8317 C   0  0  1  0  0  0  0  0  0  0  0  0
   22.2016   72.1240    3.3402 C   0  0  2  0  0  0  0  0  0  0  0  0
   24.8708   73.0162    2.7077 C   0  0  1  0  0  0  0  0  0  0  0  0
   23.0713   71.5144    2.2393 C   0  0  1  0  0  0  0  0  0  0  0  0
   22.1545   74.9359    4.9905 H   0  0  0  0  0  0  0  0  0  0  0  0
   23.9084   75.5238    4.5885 H   0  0  0  0  0  0  0  0  0  0  0  0
   20.2867   72.4442    3.6826 H   0  0  0  0  0  0  0  0  0  0  0  0
   26.8658   71.7014    2.7031 O   0  0  0  0  0  0  0  0  0  0  0  0
   26.3730   72.9990    2.9820 C   0  0  0  0  0  0  0  0  0  0  0  0
   27.8209   71.6756    2.8729 H   0  0  0  0  0  0  0  0  0  0  0  0
 25 28  1  0
 25 24  1  0
 25 26  1  6
 25 27  2  0
  1  4  1  0
  1 24  1  0
  1  2  1  6
  1  3  2  0
  6 11  1  0
  6 12  1  0
 29 36  1  0
 29 37  1  0
  9  7  1  1
  7 13  1  0
 10  8  1  1
  8 14  1  0
 37 28  1  6
  4  5  1  0
 33 30  1  1
 30 38  1  0
 34 31  1  6
 31 39  1  0
 35 32  1  6
 32 40  1  0
 41 42  1  0
 41 43  1  0
 15 19  2  0
 16 22  2  0
 12 17  1  6
 17 19  1  0
 17 20  1  0
 18 19  1  0
 18 22  1  0
 18 23  1  0
  9 10  1  0
  9 11  1  0
 10 12  1  0
 11  5  1  6
 33 34  1  0
 33 35  1  0
 34 36  1  0
 35 37  1  0
 36 42  1  1
 20 21  2  0
 21 22  1  0
M  CHG  2   2  -1  26  -1
M  END
>  <COMPND>  (32) 
    8629 

>  <AUTHOR>  (32) 
    GENERATED BY OPEN BABEL 3.1.1

>  <MASTER>  (32) 
        0    0    0    0    0    0    0    0   58    0   58    0

>  <minimizedAffinity>  (32) 
-6.63196

>  <CNNscore>  (32) 
0.4220713675

>  <CNNaffinity>  (32) 
4.0777373314

>  <CNN_VS>  (32) 
1.7210961580

>  <CNNaffinity_variance>  (32) 
0.0300338380

$$$$
33
     RDKit          3D

 43 45  0  0  0  0  0  0  0  0999 V2000
   23.1383   73.5642   -4.2503 P   0  0  2  0  0  0  0  0  0  0  0  0
   24.1189   72.2775   -4.2376 O   0  0  0  0  0  0  0  0  0  0  0  0
   23.7277   74.8043   -4.8556 O   0  0  0  0  0  0  0  0  0  0  0  0
   22.6507   73.6961   -2.7132 O   0  0  0  0  0  0  0  0  0  0  0  0
   21.5640   74.5569   -2.4201 C   0  0  0  0  0  0  0  0  0  0  0  0
   20.9745   72.4870   -1.3517 O   0  0  0  0  0  0  0  0  0  0  0  0
   18.4558   73.8662   -0.4885 O   0  0  0  0  0  0  0  0  0  0  0  0
   19.9891   73.9639    1.7645 O   0  0  0  0  0  0  0  0  0  0  0  0
   19.7746   74.3946   -0.6187 C   0  0  1  0  0  0  0  0  0  0  0  0
   20.6505   73.9081    0.5170 C   0  0  2  0  0  0  0  0  0  0  0  0
   20.4268   73.7358   -1.8279 C   0  0  1  0  0  0  0  0  0  0  0  0
   20.9653   72.4860    0.0852 C   0  0  2  0  0  0  0  0  0  0  0  0
   18.0191   74.2724    0.2771 H   0  0  0  0  0  0  0  0  0  0  0  0
   19.8108   74.8890    1.9951 H   0  0  0  0  0  0  0  0  0  0  0  0
   21.5263   69.8476    0.9233 O   0  0  0  0  0  0  0  0  0  0  0  0
   25.9110   70.8906    1.8864 O   0  0  0  0  0  0  0  0  0  0  0  0
   22.2452   72.0403    0.5594 N   0  0  0  0  0  0  0  0  0  0  0  0
   23.7091   70.3690    1.4020 N   0  0  0  0  0  0  0  0  0  0  0  0
   22.4215   70.6945    0.9571 C   0  0  0  0  0  0  0  0  0  0  0  0
   23.3089   72.9336    0.6261 C   0  0  0  0  0  0  0  0  0  0  0  0
   24.5304   72.6077    1.0539 C   0  0  0  0  0  0  0  0  0  0  0  0
   24.7986   71.2214    1.4879 C   0  0  0  0  0  0  0  0  0  0  0  0
   23.8554   69.4371    1.6846 H   0  0  0  0  0  0  0  0  0  0  0  0
   21.8200   73.0092   -5.0033 O   0  0  0  0  0  0  0  0  0  0  0  0
   21.0518   73.5352   -6.3248 P   0  0  2  0  0  0  0  0  0  0  0  0
   22.0354   73.0875   -7.5287 O   0  0  0  0  0  0  0  0  0  0  0  0
   20.7250   75.0003   -6.3044 O   0  0  0  0  0  0  0  0  0  0  0  0
   19.7690   72.5657   -6.4645 O   0  0  0  0  0  0  0  0  0  0  0  0
   19.2877   70.4019   -5.6260 O   0  0  0  0  0  0  0  0  0  0  0  0
   17.7069   70.0058   -9.4201 O   0  0  0  0  0  0  0  0  0  0  0  0
   15.9426   70.2145   -7.1636 O   0  0  0  0  0  0  0  0  0  0  0  0
   20.1615   71.4888   -9.0261 O   0  0  0  0  0  0  0  0  0  0  0  0
   18.0378   70.6960   -8.2120 C   0  0  1  0  0  0  0  0  0  0  0  0
   17.3442   69.9852   -7.0482 C   0  0  1  0  0  0  0  0  0  0  0  0
   19.5539   70.6781   -8.0261 C   0  0  2  0  0  0  0  0  0  0  0  0
   17.8605   70.4999   -5.6978 C   0  0  1  0  0  0  0  0  0  0  0  0
   19.9579   71.1630   -6.6326 C   0  0  1  0  0  0  0  0  0  0  0  0
   16.7457   70.0140   -9.5443 H   0  0  0  0  0  0  0  0  0  0  0  0
   15.6294   69.8854   -8.0208 H   0  0  0  0  0  0  0  0  0  0  0  0
   19.8982   71.1715   -9.9035 H   0  0  0  0  0  0  0  0  0  0  0  0
   16.6608   68.5413   -5.0394 O   0  0  0  0  0  0  0  0  0  0  0  0
   17.2987   69.6965   -4.5269 C   0  0  0  0  0  0  0  0  0  0  0  0
   16.2986   68.0201   -4.3054 H   0  0  0  0  0  0  0  0  0  0  0  0
 25 28  1  0
 25 24  1  0
 25 26  1  6
 25 27  2  0
  1  4  1  0
  1 24  1  0
  1  2  1  1
  1  3  2  0
  6 11  1  0
  6 12  1  0
 29 36  1  0
 29 37  1  0
  9  7  1  1
  7 13  1  0
 10  8  1  1
  8 14  1  0
 37 28  1  6
  4  5  1  0
 33 30  1  6
 30 38  1  0
 34 31  1  1
 31 39  1  0
 35 32  1  6
 32 40  1  0
 41 42  1  0
 41 43  1  0
 15 19  2  0
 16 22  2  0
 12 17  1  1
 17 19  1  0
 17 20  1  0
 18 19  1  0
 18 22  1  0
 18 23  1  0
  9 10  1  0
  9 11  1  0
 10 12  1  0
 11  5  1  1
 33 34  1  0
 33 35  1  0
 34 36  1  0
 35 37  1  0
 36 42  1  1
 20 21  2  0
 21 22  1  0
M  CHG  2   2  -1  26  -1
M  END
>  <COMPND>  (33) 
    8629 

>  <AUTHOR>  (33) 
    GENERATED BY OPEN BABEL 3.1.1

>  <MASTER>  (33) 
        0    0    0    0    0    0    0    0   58    0   58    0

>  <minimizedAffinity>  (33) 
-7.49238

>  <CNNscore>  (33) 
0.4107888639

>  <CNNaffinity>  (33) 
4.2021250725

>  <CNN_VS>  (33) 
1.7261861563

>  <CNNaffinity_variance>  (33) 
0.1999833286

$$$$
34
     RDKit          3D

 43 45  0  0  0  0  0  0  0  0999 V2000
   22.0868   73.2281   -1.1297 P   0  0  2  0  0  0  0  0  0  0  0  0
   21.3517   73.9116    0.1391 O   0  0  0  0  0  0  0  0  0  0  0  0
   23.4954   73.6866   -1.3687 O   0  0  0  0  0  0  0  0  0  0  0  0
   21.0536   73.4661   -2.3519 O   0  0  0  0  0  0  0  0  0  0  0  0
   20.5728   72.3370   -3.0603 C   0  0  0  0  0  0  0  0  0  0  0  0
   21.0435   70.8799   -4.9121 O   0  0  0  0  0  0  0  0  0  0  0  0
   23.3442   72.7039   -5.5207 O   0  0  0  0  0  0  0  0  0  0  0  0
   21.4620   73.4983   -7.3269 O   0  0  0  0  0  0  0  0  0  0  0  0
   22.0487   73.0233   -5.0158 C   0  0  1  0  0  0  0  0  0  0  0  0
   21.0148   72.9201   -6.1176 C   0  0  2  0  0  0  0  0  0  0  0  0
   21.6229   71.9038   -4.0741 C   0  0  1  0  0  0  0  0  0  0  0  0
   20.8183   71.4175   -6.2255 C   0  0  2  0  0  0  0  0  0  0  0  0
   23.6376   73.4048   -6.1244 H   0  0  0  0  0  0  0  0  0  0  0  0
   21.5718   74.4545   -7.2071 H   0  0  0  0  0  0  0  0  0  0  0  0
   20.0278   71.1507   -8.9240 O   0  0  0  0  0  0  0  0  0  0  0  0
   15.7054   70.0731   -7.7420 O   0  0  0  0  0  0  0  0  0  0  0  0
   19.4926   71.0677   -6.6516 N   0  0  0  0  0  0  0  0  0  0  0  0
   17.8762   70.6142   -8.3333 N   0  0  0  0  0  0  0  0  0  0  0  0
   19.1993   70.9608   -8.0311 C   0  0  0  0  0  0  0  0  0  0  0  0
   18.4998   70.8345   -5.7062 C   0  0  0  0  0  0  0  0  0  0  0  0
   17.2426   70.5061   -6.0108 C   0  0  0  0  0  0  0  0  0  0  0  0
   16.8534   70.3736   -7.4296 C   0  0  0  0  0  0  0  0  0  0  0  0
   17.6487   70.5342   -9.2880 H   0  0  0  0  0  0  0  0  0  0  0  0
   21.9359   71.6471   -0.8289 O   0  0  0  0  0  0  0  0  0  0  0  0
   22.7583   70.6722    0.1641 P   0  0  2  0  0  0  0  0  0  0  0  0
   21.5951   69.9725    1.0445 O   0  0  0  0  0  0  0  0  0  0  0  0
   23.8143   71.3673    0.9738 O   0  0  0  0  0  0  0  0  0  0  0  0
   23.3135   69.4933   -0.7881 O   0  0  0  0  0  0  0  0  0  0  0  0
   24.6353   67.8492    0.2920 O   0  0  0  0  0  0  0  0  0  0  0  0
   25.5922   66.9915   -3.6323 O   0  0  0  0  0  0  0  0  0  0  0  0
   23.8955   65.2002   -2.1625 O   0  0  0  0  0  0  0  0  0  0  0  0
   25.2587   69.7425   -2.7955 O   0  0  0  0  0  0  0  0  0  0  0  0
   24.7415   67.4021   -2.5584 C   0  0  1  0  0  0  0  0  0  0  0  0
   24.6443   66.2501   -1.5563 C   0  0  1  0  0  0  0  0  0  0  0  0
   25.3378   68.6424   -1.8955 C   0  0  2  0  0  0  0  0  0  0  0  0
   23.9708   66.7039   -0.2542 C   0  0  1  0  0  0  0  0  0  0  0  0
   24.6267   68.9786   -0.5834 C   0  0  1  0  0  0  0  0  0  0  0  0
   25.2191   66.2046   -4.0577 H   0  0  0  0  0  0  0  0  0  0  0  0
   24.3312   64.9232   -2.9838 H   0  0  0  0  0  0  0  0  0  0  0  0
   25.7127   69.5173   -3.6219 H   0  0  0  0  0  0  0  0  0  0  0  0
   24.7182   66.1086    1.9358 O   0  0  0  0  0  0  0  0  0  0  0  0
   24.0047   65.6157    0.8167 C   0  0  0  0  0  0  0  0  0  0  0  0
   24.7476   65.4267    2.6256 H   0  0  0  0  0  0  0  0  0  0  0  0
 25 28  1  0
 25 24  1  0
 25 26  1  1
 25 27  2  0
  1  4  1  0
  1 24  1  0
  1  2  1  1
  1  3  2  0
  6 11  1  0
  6 12  1  0
 29 36  1  0
 29 37  1  0
  9  7  1  6
  7 13  1  0
 10  8  1  6
  8 14  1  0
 37 28  1  6
  4  5  1  0
 33 30  1  6
 30 38  1  0
 34 31  1  6
 31 39  1  0
 35 32  1  6
 32 40  1  0
 41 42  1  0
 41 43  1  0
 15 19  2  0
 16 22  2  0
 12 17  1  1
 17 19  1  0
 17 20  1  0
 18 19  1  0
 18 22  1  0
 18 23  1  0
  9 10  1  0
  9 11  1  0
 10 12  1  0
 11  5  1  1
 33 34  1  0
 33 35  1  0
 34 36  1  0
 35 37  1  0
 36 42  1  1
 20 21  2  0
 21 22  1  0
M  CHG  2   2  -1  26  -1
M  END
>  <COMPND>  (34) 
    8629 

>  <AUTHOR>  (34) 
    GENERATED BY OPEN BABEL 3.1.1

>  <MASTER>  (34) 
        0    0    0    0    0    0    0    0   58    0   58    0

>  <minimizedAffinity>  (34) 
-8.80574

>  <CNNscore>  (34) 
0.3951389492

>  <CNNaffinity>  (34) 
4.5191602707

>  <CNN_VS>  (34) 
1.7856962681

>  <CNNaffinity_variance>  (34) 
0.2215435207

$$$$
35
     RDKit          3D

 43 45  0  0  0  0  0  0  0  0999 V2000
   22.9805   73.3306   -4.5761 P   0  0  2  0  0  0  0  0  0  0  0  0
   23.0690   74.5415   -5.6454 O   0  0  0  0  0  0  0  0  0  0  0  0
   24.2329   72.5163   -4.4357 O   0  0  0  0  0  0  0  0  0  0  0  0
   21.6575   72.5135   -5.0233 O   0  0  0  0  0  0  0  0  0  0  0  0
   20.8988   71.8560   -4.0233 C   0  0  0  0  0  0  0  0  0  0  0  0
   19.1316   72.9217   -5.2542 O   0  0  0  0  0  0  0  0  0  0  0  0
   17.3913   72.3602   -2.8779 O   0  0  0  0  0  0  0  0  0  0  0  0
   16.6764   70.3860   -4.6180 O   0  0  0  0  0  0  0  0  0  0  0  0
   18.4401   71.5697   -3.4350 C   0  0  1  0  0  0  0  0  0  0  0  0
   17.9808   70.9192   -4.7232 C   0  0  2  0  0  0  0  0  0  0  0  0
   19.5295   72.5146   -3.9267 C   0  0  1  0  0  0  0  0  0  0  0  0
   18.0626   72.0746   -5.7063 C   0  0  2  0  0  0  0  0  0  0  0  0
   16.6839   71.7786   -2.5567 H   0  0  0  0  0  0  0  0  0  0  0  0
   16.6764   69.6544   -3.9812 H   0  0  0  0  0  0  0  0  0  0  0  0
   16.7309   73.0163   -8.0123 O   0  0  0  0  0  0  0  0  0  0  0  0
   19.2407   70.3228  -10.7849 O   0  0  0  0  0  0  0  0  0  0  0  0
   18.3482   71.6368   -7.0435 N   0  0  0  0  0  0  0  0  0  0  0  0
   17.9818   71.6745   -9.3910 N   0  0  0  0  0  0  0  0  0  0  0  0
   17.6208   72.1717   -8.1322 C   0  0  0  0  0  0  0  0  0  0  0  0
   19.3400   70.6875   -7.2649 C   0  0  0  0  0  0  0  0  0  0  0  0
   19.6713   70.2229   -8.4714 C   0  0  0  0  0  0  0  0  0  0  0  0
   18.9594   70.7303   -9.6621 C   0  0  0  0  0  0  0  0  0  0  0  0
   17.4883   72.0324  -10.1643 H   0  0  0  0  0  0  0  0  0  0  0  0
   22.5070   74.0755   -3.2219 O   0  0  0  0  0  0  0  0  0  0  0  0
   23.3562   74.6321   -1.9640 P   0  0  2  0  0  0  0  0  0  0  0  0
   22.2820   75.5390   -1.1633 O   0  0  0  0  0  0  0  0  0  0  0  0
   24.6161   75.3548   -2.3436 O   0  0  0  0  0  0  0  0  0  0  0  0
   23.5833   73.3417   -1.0215 O   0  0  0  0  0  0  0  0  0  0  0  0
   23.3008   71.0491   -1.5511 O   0  0  0  0  0  0  0  0  0  0  0  0
   22.1243   70.9620    2.4061 O   0  0  0  0  0  0  0  0  0  0  0  0
   24.6521   69.8256    1.6530 O   0  0  0  0  0  0  0  0  0  0  0  0
   21.3968   73.2090    0.7325 O   0  0  0  0  0  0  0  0  0  0  0  0
   22.8939   71.4050    1.2850 C   0  0  1  0  0  0  0  0  0  0  0  0
   23.6475   70.2017    0.7150 C   0  0  1  0  0  0  0  0  0  0  0  0
   21.9537   71.9965    0.2365 C   0  0  2  0  0  0  0  0  0  0  0  0
   24.2818   70.5372   -0.6415 C   0  0  1  0  0  0  0  0  0  0  0  0
   22.6731   72.2471   -1.0901 C   0  0  1  0  0  0  0  0  0  0  0  0
   22.7154   70.5857    3.0758 H   0  0  0  0  0  0  0  0  0  0  0  0
   24.2384   69.6169    2.5053 H   0  0  0  0  0  0  0  0  0  0  0  0
   20.9439   73.0370    1.5722 H   0  0  0  0  0  0  0  0  0  0  0  0
   26.1857   69.0968   -0.7389 O   0  0  0  0  0  0  0  0  0  0  0  0
   24.9039   69.3086   -1.3015 C   0  0  0  0  0  0  0  0  0  0  0  0
   26.5935   68.3177   -1.1492 H   0  0  0  0  0  0  0  0  0  0  0  0
 25 28  1  0
 25 24  1  0
 25 26  1  1
 25 27  2  0
  1  4  1  0
  1 24  1  0
  1  2  1  6
  1  3  2  0
  6 11  1  0
  6 12  1  0
 29 36  1  0
 29 37  1  0
  9  7  1  6
  7 13  1  0
 10  8  1  1
  8 14  1  0
 37 28  1  1
  4  5  1  0
 33 30  1  1
 30 38  1  0
 34 31  1  1
 31 39  1  0
 35 32  1  1
 32 40  1  0
 41 42  1  0
 41 43  1  0
 15 19  2  0
 16 22  2  0
 12 17  1  6
 17 19  1  0
 17 20  1  0
 18 19  1  0
 18 22  1  0
 18 23  1  0
  9 10  1  0
  9 11  1  0
 10 12  1  0
 11  5  1  6
 33 34  1  0
 33 35  1  0
 34 36  1  0
 35 37  1  0
 36 42  1  6
 20 21  2  0
 21 22  1  0
M  CHG  2   2  -1  26  -1
M  END
>  <COMPND>  (35) 
    8629 

>  <AUTHOR>  (35) 
    GENERATED BY OPEN BABEL 3.1.1

>  <MASTER>  (35) 
        0    0    0    0    0    0    0    0   58    0   58    0

>  <minimizedAffinity>  (35) 
-6.98996

>  <CNNscore>  (35) 
0.3922973871

>  <CNNaffinity>  (35) 
4.0665001869

>  <CNN_VS>  (35) 
1.5952774286

>  <CNNaffinity_variance>  (35) 
0.2340995818

$$$$
36
     RDKit          3D

 43 45  0  0  0  0  0  0  0  0999 V2000
   23.0518   71.5530   -2.1148 P   0  0  2  0  0  0  0  0  0  0  0  0
   22.7026   73.1169   -2.3378 O   0  0  0  0  0  0  0  0  0  0  0  0
   24.2245   71.0469   -2.9023 O   0  0  0  0  0  0  0  0  0  0  0  0
   21.6461   70.7988   -2.3847 O   0  0  0  0  0  0  0  0  0  0  0  0
   21.0040   70.9918   -3.6330 C   0  0  0  0  0  0  0  0  0  0  0  0
   19.0149   71.9434   -4.5879 O   0  0  0  0  0  0  0  0  0  0  0  0
   17.5167   70.5223   -2.4138 O   0  0  0  0  0  0  0  0  0  0  0  0
   17.1200   68.8984   -4.5684 O   0  0  0  0  0  0  0  0  0  0  0  0
   18.6729   70.1019   -3.1361 C   0  0  1  0  0  0  0  0  0  0  0  0
   18.2925   69.6867   -4.5420 C   0  0  2  0  0  0  0  0  0  0  0  0
   19.5393   71.3291   -3.3904 C   0  0  1  0  0  0  0  0  0  0  0  0
   18.1097   71.0295   -5.2285 C   0  0  2  0  0  0  0  0  0  0  0  0
   16.9481   69.7553   -2.2393 H   0  0  0  0  0  0  0  0  0  0  0  0
   17.2871   68.0549   -4.1196 H   0  0  0  0  0  0  0  0  0  0  0  0
   20.5062   71.9880   -6.3757 O   0  0  0  0  0  0  0  0  0  0  0  0
   19.1791   70.7672  -10.6171 O   0  0  0  0  0  0  0  0  0  0  0  0
   18.4169   70.9745   -6.6300 N   0  0  0  0  0  0  0  0  0  0  0  0
   19.8435   71.3792   -8.4866 N   0  0  0  0  0  0  0  0  0  0  0  0
   19.6482   71.4844   -7.1036 C   0  0  0  0  0  0  0  0  0  0  0  0
   17.5026   70.4192   -7.5185 C   0  0  0  0  0  0  0  0  0  0  0  0
   17.7035   70.3275   -8.8348 C   0  0  0  0  0  0  0  0  0  0  0  0
   18.9647   70.8369   -9.4109 C   0  0  0  0  0  0  0  0  0  0  0  0
   20.6941   71.7282   -8.8394 H   0  0  0  0  0  0  0  0  0  0  0  0
   23.2208   71.4435   -0.5109 O   0  0  0  0  0  0  0  0  0  0  0  0
   23.2486   70.1576    0.4682 P   0  0  2  0  0  0  0  0  0  0  0  0
   21.6910   69.9514    0.8541 O   0  0  0  0  0  0  0  0  0  0  0  0
   24.1651   70.3025    1.6484 O   0  0  0  0  0  0  0  0  0  0  0  0
   23.5967   68.9142   -0.5002 O   0  0  0  0  0  0  0  0  0  0  0  0
   24.4553   66.7062   -0.4375 O   0  0  0  0  0  0  0  0  0  0  0  0
   27.1349   68.3808   -3.0957 O   0  0  0  0  0  0  0  0  0  0  0  0
   25.1468   66.5434   -4.0547 O   0  0  0  0  0  0  0  0  0  0  0  0
   26.1961   69.9188   -0.8302 O   0  0  0  0  0  0  0  0  0  0  0  0
   25.8600   68.1923   -2.4756 C   0  0  1  0  0  0  0  0  0  0  0  0
   25.4413   66.7341   -2.6737 C   0  0  1  0  0  0  0  0  0  0  0  0
   25.9747   68.5215   -0.9884 C   0  0  2  0  0  0  0  0  0  0  0  0
   24.2185   66.3872   -1.8137 C   0  0  1  0  0  0  0  0  0  0  0  0
   24.7257   68.0918   -0.2168 C   0  0  1  0  0  0  0  0  0  0  0  0
   27.0688   68.1739   -4.0404 H   0  0  0  0  0  0  0  0  0  0  0  0
   25.9269   66.7663   -4.5867 H   0  0  0  0  0  0  0  0  0  0  0  0
   26.9896   70.1782   -1.3230 H   0  0  0  0  0  0  0  0  0  0  0  0
   23.5570   64.5666   -3.2125 O   0  0  0  0  0  0  0  0  0  0  0  0
   23.8799   64.8993   -1.8749 C   0  0  0  0  0  0  0  0  0  0  0  0
   23.3395   63.6224   -3.2667 H   0  0  0  0  0  0  0  0  0  0  0  0
 25 28  1  0
 25 24  1  0
 25 26  1  1
 25 27  2  0
  1  4  1  0
  1 24  1  0
  1  2  1  1
  1  3  2  0
  6 11  1  0
  6 12  1  0
 29 36  1  0
 29 37  1  0
  9  7  1  1
  7 13  1  0
 10  8  1  1
  8 14  1  0
 37 28  1  6
  4  5  1  0
 33 30  1  6
 30 38  1  0
 34 31  1  6
 31 39  1  0
 35 32  1  6
 32 40  1  0
 41 42  1  0
 41 43  1  0
 15 19  2  0
 16 22  2  0
 12 17  1  6
 17 19  1  0
 17 20  1  0
 18 19  1  0
 18 22  1  0
 18 23  1  0
  9 10  1  0
  9 11  1  0
 10 12  1  0
 11  5  1  6
 33 34  1  0
 33 35  1  0
 34 36  1  0
 35 37  1  0
 36 42  1  1
 20 21  2  0
 21 22  1  0
M  CHG  2   2  -1  26  -1
M  END
>  <COMPND>  (36) 
    8629 

>  <AUTHOR>  (36) 
    GENERATED BY OPEN BABEL 3.1.1

>  <MASTER>  (36) 
        0    0    0    0    0    0    0    0   58    0   58    0

>  <minimizedAffinity>  (36) 
-8.70920

>  <CNNscore>  (36) 
0.3776096404

>  <CNNaffinity>  (36) 
4.4473814964

>  <CNN_VS>  (36) 
1.6793740988

>  <CNNaffinity_variance>  (36) 
0.2984382212

$$$$
37
     RDKit          3D

 43 45  0  0  0  0  0  0  0  0999 V2000
   23.0336   71.4060   -2.5638 P   0  0  2  0  0  0  0  0  0  0  0  0
   24.5083   70.9344   -3.0331 O   0  0  0  0  0  0  0  0  0  0  0  0
   21.9059   70.5518   -3.0640 O   0  0  0  0  0  0  0  0  0  0  0  0
   22.9727   72.9671   -2.9847 O   0  0  0  0  0  0  0  0  0  0  0  0
   21.8844   73.7493   -2.5249 C   0  0  0  0  0  0  0  0  0  0  0  0
   20.5196   73.1581   -4.4121 O   0  0  0  0  0  0  0  0  0  0  0  0
   19.6696   76.0331   -4.4608 O   0  0  0  0  0  0  0  0  0  0  0  0
   17.5594   74.8099   -3.2411 O   0  0  0  0  0  0  0  0  0  0  0  0
   19.9577   75.1963   -3.3418 C   0  0  1  0  0  0  0  0  0  0  0  0
   18.8320   74.2076   -3.1209 C   0  0  2  0  0  0  0  0  0  0  0  0
   21.1140   74.2813   -3.7255 C   0  0  1  0  0  0  0  0  0  0  0  0
   19.0974   73.1800   -4.2080 C   0  0  2  0  0  0  0  0  0  0  0  0
   18.9344   76.6268   -4.2395 H   0  0  0  0  0  0  0  0  0  0  0  0
   17.4384   75.4554   -2.5273 H   0  0  0  0  0  0  0  0  0  0  0  0
   18.1211   71.2507   -6.0253 O   0  0  0  0  0  0  0  0  0  0  0  0
   17.4437   68.1653   -2.6693 O   0  0  0  0  0  0  0  0  0  0  0  0
   18.6593   71.8641   -3.8364 N   0  0  0  0  0  0  0  0  0  0  0  0
   17.7848   69.7159   -4.3528 N   0  0  0  0  0  0  0  0  0  0  0  0
   18.1856   70.9718   -4.8262 C   0  0  0  0  0  0  0  0  0  0  0  0
   18.7023   71.4700   -2.5035 C   0  0  0  0  0  0  0  0  0  0  0  0
   18.3152   70.2692   -2.0682 C   0  0  0  0  0  0  0  0  0  0  0  0
   17.8073   69.2777   -3.0382 C   0  0  0  0  0  0  0  0  0  0  0  0
   17.4507   69.0778   -5.0244 H   0  0  0  0  0  0  0  0  0  0  0  0
   23.1672   71.4686   -0.9541 O   0  0  0  0  0  0  0  0  0  0  0  0
   23.2941   70.2921    0.1472 P   0  0  2  0  0  0  0  0  0  0  0  0
   21.7700   70.0891    0.6506 O   0  0  0  0  0  0  0  0  0  0  0  0
   24.2758   70.5808    1.2457 O   0  0  0  0  0  0  0  0  0  0  0  0
   23.6207   68.9640   -0.7097 O   0  0  0  0  0  0  0  0  0  0  0  0
   24.3929   66.7324   -0.5086 O   0  0  0  0  0  0  0  0  0  0  0  0
   27.3153   68.2180   -3.0192 O   0  0  0  0  0  0  0  0  0  0  0  0
   25.3369   66.4137   -4.0577 O   0  0  0  0  0  0  0  0  0  0  0  0
   26.2715   69.8688   -0.8826 O   0  0  0  0  0  0  0  0  0  0  0  0
   25.9931   68.0950   -2.4881 C   0  0  1  0  0  0  0  0  0  0  0  0
   25.5378   66.6452   -2.6661 C   0  0  1  0  0  0  0  0  0  0  0  0
   26.0121   68.4747   -1.0086 C   0  0  2  0  0  0  0  0  0  0  0  0
   24.2446   66.3710   -1.8867 C   0  0  1  0  0  0  0  0  0  0  0  0
   24.6961   68.1155   -0.3163 C   0  0  1  0  0  0  0  0  0  0  0  0
   27.3101   67.9788   -3.9585 H   0  0  0  0  0  0  0  0  0  0  0  0
   26.1608   66.5909   -4.5384 H   0  0  0  0  0  0  0  0  0  0  0  0
   27.1072   70.0833   -1.3246 H   0  0  0  0  0  0  0  0  0  0  0  0
   23.4982   64.5548   -3.2479 O   0  0  0  0  0  0  0  0  0  0  0  0
   23.8581   64.8940   -1.9214 C   0  0  0  0  0  0  0  0  0  0  0  0
   23.2501   63.6174   -3.2853 H   0  0  0  0  0  0  0  0  0  0  0  0
 25 28  1  0
 25 24  1  0
 25 26  1  1
 25 27  2  0
  1  4  1  0
  1 24  1  0
  1  2  1  6
  1  3  2  0
  6 11  1  0
  6 12  1  0
 29 36  1  0
 29 37  1  0
  9  7  1  6
  7 13  1  0
 10  8  1  6
  8 14  1  0
 37 28  1  6
  4  5  1  0
 33 30  1  1
 30 38  1  0
 34 31  1  6
 31 39  1  0
 35 32  1  6
 32 40  1  0
 41 42  1  0
 41 43  1  0
 15 19  2  0
 16 22  2  0
 12 17  1  1
 17 19  1  0
 17 20  1  0
 18 19  1  0
 18 22  1  0
 18 23  1  0
  9 10  1  0
  9 11  1  0
 10 12  1  0
 11  5  1  1
 33 34  1  0
 33 35  1  0
 34 36  1  0
 35 37  1  0
 36 42  1  1
 20 21  2  0
 21 22  1  0
M  CHG  2   2  -1  26  -1
M  END
>  <COMPND>  (37) 
    8629 

>  <AUTHOR>  (37) 
    GENERATED BY OPEN BABEL 3.1.1

>  <MASTER>  (37) 
        0    0    0    0    0    0    0    0   58    0   58    0

>  <minimizedAffinity>  (37) 
-7.15383

>  <CNNscore>  (37) 
0.3772361577

>  <CNNaffinity>  (37) 
4.2457852364

>  <CNN_VS>  (37) 
1.6016637087

>  <CNNaffinity_variance>  (37) 
0.3203456104

$$$$
38
     RDKit          3D

 43 45  0  0  0  0  0  0  0  0999 V2000
   19.5361   72.6082   -2.3408 P   0  0  2  0  0  0  0  0  0  0  0  0
   20.5016   71.5951   -3.1525 O   0  0  0  0  0  0  0  0  0  0  0  0
   19.7779   74.0648   -2.6079 O   0  0  0  0  0  0  0  0  0  0  0  0
   19.6912   72.1413   -0.7994 O   0  0  0  0  0  0  0  0  0  0  0  0
   20.2637   73.0476    0.1272 C   0  0  0  0  0  0  0  0  0  0  0  0
   21.1176   71.0574    1.1682 O   0  0  0  0  0  0  0  0  0  0  0  0
   21.1714   72.6380    3.7157 O   0  0  0  0  0  0  0  0  0  0  0  0
   23.7815   72.6918    2.9276 O   0  0  0  0  0  0  0  0  0  0  0  0
   21.4420   73.0666    2.3821 C   0  0  1  0  0  0  0  0  0  0  0  0
   22.7922   72.5523    1.9282 C   0  0  2  0  0  0  0  0  0  0  0  0
   20.4903   72.3277    1.4495 C   0  0  1  0  0  0  0  0  0  0  0  0
   22.4847   71.0992    1.6088 C   0  0  2  0  0  0  0  0  0  0  0  0
   21.7669   73.0967    4.3296 H   0  0  0  0  0  0  0  0  0  0  0  0
   23.9415   73.6337    3.0950 H   0  0  0  0  0  0  0  0  0  0  0  0
   25.0028   69.8967    2.0461 O   0  0  0  0  0  0  0  0  0  0  0  0
   25.6250   69.1337   -2.4563 O   0  0  0  0  0  0  0  0  0  0  0  0
   23.3259   70.5772    0.5689 N   0  0  0  0  0  0  0  0  0  0  0  0
   25.3105   69.5176   -0.1961 N   0  0  0  0  0  0  0  0  0  0  0  0
   24.5726   69.9941    0.8950 C   0  0  0  0  0  0  0  0  0  0  0  0
   22.9124   70.6461   -0.7570 C   0  0  0  0  0  0  0  0  0  0  0  0
   23.6284   70.1882   -1.7861 C   0  0  0  0  0  0  0  0  0  0  0  0
   24.9429   69.5642   -1.5315 C   0  0  0  0  0  0  0  0  0  0  0  0
   26.1825   69.1076    0.0069 H   0  0  0  0  0  0  0  0  0  0  0  0
   18.0555   72.0896   -2.7303 O   0  0  0  0  0  0  0  0  0  0  0  0
   17.5005   70.6054   -3.0498 P   0  0  2  0  0  0  0  0  0  0  0  0
   15.9019   70.7564   -2.8518 O   0  0  0  0  0  0  0  0  0  0  0  0
   18.1276   69.5222   -2.2208 O   0  0  0  0  0  0  0  0  0  0  0  0
   17.6991   70.4290   -4.6418 O   0  0  0  0  0  0  0  0  0  0  0  0
   19.0770   71.6259   -6.1535 O   0  0  0  0  0  0  0  0  0  0  0  0
   15.8098   70.9935   -8.5980 O   0  0  0  0  0  0  0  0  0  0  0  0
   18.2344   69.5267   -9.0642 O   0  0  0  0  0  0  0  0  0  0  0  0
   15.4199   71.5930   -5.7930 O   0  0  0  0  0  0  0  0  0  0  0  0
   16.7527   70.6680   -7.5732 C   0  0  1  0  0  0  0  0  0  0  0  0
   18.1505   70.6527   -8.1950 C   0  0  1  0  0  0  0  0  0  0  0  0
   16.6683   71.7167   -6.4658 C   0  0  2  0  0  0  0  0  0  0  0  0
   19.2370   70.5753   -7.1139 C   0  0  1  0  0  0  0  0  0  0  0  0
   17.8225   71.5816   -5.4709 C   0  0  1  0  0  0  0  0  0  0  0  0
   15.8579   70.3312   -9.3041 H   0  0  0  0  0  0  0  0  0  0  0  0
   17.5428   69.5875   -9.7418 H   0  0  0  0  0  0  0  0  0  0  0  0
   14.6975   71.6806   -6.4335 H   0  0  0  0  0  0  0  0  0  0  0  0
   20.5779   71.6065   -8.8013 O   0  0  0  0  0  0  0  0  0  0  0  0
   20.6394   70.7176   -7.7012 C   0  0  0  0  0  0  0  0  0  0  0  0
   21.4636   71.7070   -9.1851 H   0  0  0  0  0  0  0  0  0  0  0  0
 25 28  1  0
 25 24  1  0
 25 26  1  6
 25 27  2  0
  1  4  1  0
  1 24  1  0
  1  2  1  6
  1  3  2  0
  6 11  1  0
  6 12  1  0
 29 36  1  0
 29 37  1  0
  9  7  1  1
  7 13  1  0
 10  8  1  1
  8 14  1  0
 37 28  1  6
  4  5  1  0
 33 30  1  6
 30 38  1  0
 34 31  1  6
 31 39  1  0
 35 32  1  1
 32 40  1  0
 41 42  1  0
 41 43  1  0
 15 19  2  0
 16 22  2  0
 12 17  1  6
 17 19  1  0
 17 20  1  0
 18 19  1  0
 18 22  1  0
 18 23  1  0
  9 10  1  0
  9 11  1  0
 10 12  1  0
 11  5  1  6
 33 34  1  0
 33 35  1  0
 34 36  1  0
 35 37  1  0
 36 42  1  6
 20 21  2  0
 21 22  1  0
M  CHG  2   2  -1  26  -1
M  END
>  <COMPND>  (38) 
    8629 

>  <AUTHOR>  (38) 
    GENERATED BY OPEN BABEL 3.1.1

>  <MASTER>  (38) 
        0    0    0    0    0    0    0    0   58    0   58    0

>  <minimizedAffinity>  (38) 
-7.79814

>  <CNNscore>  (38) 
0.3758075237

>  <CNNaffinity>  (38) 
3.9380970001

>  <CNN_VS>  (38) 
1.4799665213

>  <CNNaffinity_variance>  (38) 
0.3631846905

$$$$
39
     RDKit          3D

 43 45  0  0  0  0  0  0  0  0999 V2000
   23.4130   72.2819   -3.5648 P   0  0  2  0  0  0  0  0  0  0  0  0
   23.7574   70.7682   -3.1094 O   0  0  0  0  0  0  0  0  0  0  0  0
   24.5314   73.0063   -4.2546 O   0  0  0  0  0  0  0  0  0  0  0  0
   22.8537   72.9760   -2.2144 O   0  0  0  0  0  0  0  0  0  0  0  0
   22.4983   72.1440   -1.1239 C   0  0  0  0  0  0  0  0  0  0  0  0
   20.6615   71.7294    0.3688 O   0  0  0  0  0  0  0  0  0  0  0  0
   18.9915   73.3251   -1.5431 O   0  0  0  0  0  0  0  0  0  0  0  0
   19.4953   75.1200    0.4471 O   0  0  0  0  0  0  0  0  0  0  0  0
   20.3535   73.5120   -1.1619 C   0  0  1  0  0  0  0  0  0  0  0  0
   20.4339   74.0847    0.2378 C   0  0  2  0  0  0  0  0  0  0  0  0
   20.9827   72.1364   -0.9794 C   0  0  1  0  0  0  0  0  0  0  0  0
   20.1563   72.8616    1.0951 C   0  0  2  0  0  0  0  0  0  0  0  0
   18.5687   74.1900   -1.6659 H   0  0  0  0  0  0  0  0  0  0  0  0
   19.7147   75.8753   -0.1205 H   0  0  0  0  0  0  0  0  0  0  0  0
   19.1319   74.2257    3.3463 O   0  0  0  0  0  0  0  0  0  0  0  0
   22.7558   73.0468    5.9384 O   0  0  0  0  0  0  0  0  0  0  0  0
   20.8111   72.9271    2.3711 N   0  0  0  0  0  0  0  0  0  0  0  0
   20.9371   73.6374    4.6352 N   0  0  0  0  0  0  0  0  0  0  0  0
   20.2124   73.6391    3.4365 C   0  0  0  0  0  0  0  0  0  0  0  0
   22.0331   72.2896    2.5565 C   0  0  0  0  0  0  0  0  0  0  0  0
   22.7120   72.2986    3.7055 C   0  0  0  0  0  0  0  0  0  0  0  0
   22.1557   73.0199    4.8684 C   0  0  0  0  0  0  0  0  0  0  0  0
   20.5395   74.1274    5.3913 H   0  0  0  0  0  0  0  0  0  0  0  0
   22.0785   72.0980   -4.4583 O   0  0  0  0  0  0  0  0  0  0  0  0
   21.4219   73.0438   -5.5928 P   0  0  2  0  0  0  0  0  0  0  0  0
   22.3923   72.8217   -6.8682 O   0  0  0  0  0  0  0  0  0  0  0  0
   21.2602   74.4782   -5.1801 O   0  0  0  0  0  0  0  0  0  0  0  0
   20.0448   72.3041   -5.9946 O   0  0  0  0  0  0  0  0  0  0  0  0
   19.2880   70.1254   -5.4495 O   0  0  0  0  0  0  0  0  0  0  0  0
   17.7227   70.4339   -9.2581 O   0  0  0  0  0  0  0  0  0  0  0  0
   15.9669   70.5606   -6.9889 O   0  0  0  0  0  0  0  0  0  0  0  0
   20.3363   71.5347   -8.6775 O   0  0  0  0  0  0  0  0  0  0  0  0
   18.1199   70.9118   -7.9700 C   0  0  1  0  0  0  0  0  0  0  0  0
   17.3276   70.1454   -6.9089 C   0  0  1  0  0  0  0  0  0  0  0  0
   19.6194   70.6809   -7.7924 C   0  0  2  0  0  0  0  0  0  0  0  0
   17.8850   70.4090   -5.5036 C   0  0  1  0  0  0  0  0  0  0  0  0
   20.0610   70.9235   -6.3480 C   0  0  1  0  0  0  0  0  0  0  0  0
   16.7717   70.5780   -9.3774 H   0  0  0  0  0  0  0  0  0  0  0  0
   15.6272   70.3892   -7.8814 H   0  0  0  0  0  0  0  0  0  0  0  0
   20.0479   71.3713   -9.5886 H   0  0  0  0  0  0  0  0  0  0  0  0
   16.5516   68.4670   -5.1035 O   0  0  0  0  0  0  0  0  0  0  0  0
   17.2121   69.5341   -4.4481 C   0  0  0  0  0  0  0  0  0  0  0  0
   16.1190   67.9017   -4.4440 H   0  0  0  0  0  0  0  0  0  0  0  0
 25 28  1  0
 25 24  1  0
 25 26  1  6
 25 27  2  0
  1  4  1  0
  1 24  1  0
  1  2  1  1
  1  3  2  0
  6 11  1  0
  6 12  1  0
 29 36  1  0
 29 37  1  0
  9  7  1  1
  7 13  1  0
 10  8  1  6
  8 14  1  0
 37 28  1  1
  4  5  1  0
 33 30  1  6
 30 38  1  0
 34 31  1  1
 31 39  1  0
 35 32  1  6
 32 40  1  0
 41 42  1  0
 41 43  1  0
 15 19  2  0
 16 22  2  0
 12 17  1  1
 17 19  1  0
 17 20  1  0
 18 19  1  0
 18 22  1  0
 18 23  1  0
  9 10  1  0
  9 11  1  0
 10 12  1  0
 11  5  1  1
 33 34  1  0
 33 35  1  0
 34 36  1  0
 35 37  1  0
 36 42  1  1
 20 21  2  0
 21 22  1  0
M  CHG  2   2  -1  26  -1
M  END
>  <COMPND>  (39) 
    8629 

>  <AUTHOR>  (39) 
    GENERATED BY OPEN BABEL 3.1.1

>  <MASTER>  (39) 
        0    0    0    0    0    0    0    0   58    0   58    0

>  <minimizedAffinity>  (39) 
-6.79043

>  <CNNscore>  (39) 
0.3741808534

>  <CNNaffinity>  (39) 
3.8435854912

>  <CNN_VS>  (39) 
1.4381960630

>  <CNNaffinity_variance>  (39) 
0.1318673193

$$$$
40
     RDKit          3D

 43 45  0  0  0  0  0  0  0  0999 V2000
   22.6729   72.8153   -3.6329 P   0  0  2  0  0  0  0  0  0  0  0  0
   23.8374   72.4994   -4.7106 O   0  0  0  0  0  0  0  0  0  0  0  0
   22.4908   74.2680   -3.3042 O   0  0  0  0  0  0  0  0  0  0  0  0
   23.0285   71.8513   -2.3830 O   0  0  0  0  0  0  0  0  0  0  0  0
   23.2461   72.4425   -1.1138 C   0  0  0  0  0  0  0  0  0  0  0  0
   22.6322   70.2026   -0.4975 O   0  0  0  0  0  0  0  0  0  0  0  0
   22.4251   71.2321    2.3111 O   0  0  0  0  0  0  0  0  0  0  0  0
   24.8511   69.9865    2.3120 O   0  0  0  0  0  0  0  0  0  0  0  0
   23.3454   71.5944    1.2829 C   0  0  1  0  0  0  0  0  0  0  0  0
   24.3713   70.4981    1.0852 C   0  0  2  0  0  0  0  0  0  0  0  0
   22.5979   71.5737   -0.0445 C   0  0  1  0  0  0  0  0  0  0  0  0
   23.5843   69.4697    0.2907 C   0  0  2  0  0  0  0  0  0  0  0  0
   22.8796   71.2387    3.1686 H   0  0  0  0  0  0  0  0  0  0  0  0
   25.3446   70.6780    2.7799 H   0  0  0  0  0  0  0  0  0  0  0  0
   24.1905   66.7359    0.6606 O   0  0  0  0  0  0  0  0  0  0  0  0
   26.8022   66.6131   -3.1348 O   0  0  0  0  0  0  0  0  0  0  0  0
   24.4199   68.6983   -0.5858 N   0  0  0  0  0  0  0  0  0  0  0  0
   25.4903   66.6769   -1.2297 N   0  0  0  0  0  0  0  0  0  0  0  0
   24.6621   67.3325   -0.3097 C   0  0  0  0  0  0  0  0  0  0  0  0
   24.9889   69.2964   -1.7049 C   0  0  0  0  0  0  0  0  0  0  0  0
   25.7775   68.6577   -2.5717 C   0  0  0  0  0  0  0  0  0  0  0  0
   26.0805   67.2282   -2.3559 C   0  0  0  0  0  0  0  0  0  0  0  0
   25.6733   65.7248   -1.0574 H   0  0  0  0  0  0  0  0  0  0  0  0
   21.3743   72.1045   -4.2820 O   0  0  0  0  0  0  0  0  0  0  0  0
   19.9612   71.6731   -3.6262 P   0  0  2  0  0  0  0  0  0  0  0  0
   19.4166   73.0519   -2.9781 O   0  0  0  0  0  0  0  0  0  0  0  0
   20.0556   70.5290   -2.6587 O   0  0  0  0  0  0  0  0  0  0  0  0
   18.9906   71.4042   -4.8874 O   0  0  0  0  0  0  0  0  0  0  0  0
   17.0898   72.5472   -5.7223 O   0  0  0  0  0  0  0  0  0  0  0  0
   15.8106   68.6581   -6.2609 O   0  0  0  0  0  0  0  0  0  0  0  0
   16.5562   70.2344   -8.5429 O   0  0  0  0  0  0  0  0  0  0  0  0
   17.3349   69.3634   -3.9032 O   0  0  0  0  0  0  0  0  0  0  0  0
   16.7666   69.7210   -6.2163 C   0  0  1  0  0  0  0  0  0  0  0  0
   16.3552   70.7793   -7.2417 C   0  0  1  0  0  0  0  0  0  0  0  0
   16.7872   70.3151   -4.8092 C   0  0  2  0  0  0  0  0  0  0  0  0
   17.1737   72.0658   -7.0688 C   0  0  1  0  0  0  0  0  0  0  0  0
   17.5875   71.6178   -4.7578 C   0  0  1  0  0  0  0  0  0  0  0  0
   15.7929   68.2762   -7.1516 H   0  0  0  0  0  0  0  0  0  0  0  0
   16.0342   69.4223   -8.6388 H   0  0  0  0  0  0  0  0  0  0  0  0
   16.8194   68.5435   -3.9449 H   0  0  0  0  0  0  0  0  0  0  0  0
   15.4878   72.7539   -8.6158 O   0  0  0  0  0  0  0  0  0  0  0  0
   16.6736   73.1881   -7.9757 C   0  0  0  0  0  0  0  0  0  0  0  0
   15.1578   73.4583   -9.1961 H   0  0  0  0  0  0  0  0  0  0  0  0
 25 28  1  0
 25 24  1  0
 25 26  1  1
 25 27  2  0
  1  4  1  0
  1 24  1  0
  1  2  1  6
  1  3  2  0
  6 11  1  0
  6 12  1  0
 29 36  1  0
 29 37  1  0
  9  7  1  1
  7 13  1  0
 10  8  1  1
  8 14  1  0
 37 28  1  6
  4  5  1  0
 33 30  1  1
 30 38  1  0
 34 31  1  6
 31 39  1  0
 35 32  1  1
 32 40  1  0
 41 42  1  0
 41 43  1  0
 15 19  2  0
 16 22  2  0
 12 17  1  6
 17 19  1  0
 17 20  1  0
 18 19  1  0
 18 22  1  0
 18 23  1  0
  9 10  1  0
  9 11  1  0
 10 12  1  0
 11  5  1  6
 33 34  1  0
 33 35  1  0
 34 36  1  0
 35 37  1  0
 36 42  1  6
 20 21  2  0
 21 22  1  0
M  CHG  2   2  -1  26  -1
M  END
>  <COMPND>  (40) 
    8629 

>  <AUTHOR>  (40) 
    GENERATED BY OPEN BABEL 3.1.1

>  <MASTER>  (40) 
        0    0    0    0    0    0    0    0   58    0   58    0

>  <minimizedAffinity>  (40) 
-8.26552

>  <CNNscore>  (40) 
0.3730699718

>  <CNNaffinity>  (40) 
4.0941915512

>  <CNN_VS>  (40) 
1.5274199247

>  <CNNaffinity_variance>  (40) 
0.3248002231

$$$$
41
     RDKit          3D

 43 45  0  0  0  0  0  0  0  0999 V2000
   20.2494   71.9187   -1.3243 P   0  0  2  0  0  0  0  0  0  0  0  0
   20.5318   70.5205   -0.5610 O   0  0  0  0  0  0  0  0  0  0  0  0
   19.0294   72.6589   -0.8603 O   0  0  0  0  0  0  0  0  0  0  0  0
   20.2742   71.5176   -2.8915 O   0  0  0  0  0  0  0  0  0  0  0  0
   19.5432   70.3779   -3.3094 C   0  0  0  0  0  0  0  0  0  0  0  0
   17.8251   71.4514   -4.6015 O   0  0  0  0  0  0  0  0  0  0  0  0
   15.8680   69.9055   -2.9369 O   0  0  0  0  0  0  0  0  0  0  0  0
   15.9497   68.4639   -5.2503 O   0  0  0  0  0  0  0  0  0  0  0  0
   17.1530   69.5126   -3.4162 C   0  0  1  0  0  0  0  0  0  0  0  0
   17.0929   69.2173   -4.9004 C   0  0  2  0  0  0  0  0  0  0  0  0
   18.0639   70.7330   -3.3714 C   0  0  1  0  0  0  0  0  0  0  0  0
   17.0786   70.6135   -5.4991 C   0  0  2  0  0  0  0  0  0  0  0  0
   15.2688   69.1423   -2.9559 H   0  0  0  0  0  0  0  0  0  0  0  0
   16.0058   67.5842   -4.8456 H   0  0  0  0  0  0  0  0  0  0  0  0
   15.6933   70.2319   -7.9308 O   0  0  0  0  0  0  0  0  0  0  0  0
   19.5296   70.8091  -10.4188 O   0  0  0  0  0  0  0  0  0  0  0  0
   17.6906   70.6591   -6.7971 N   0  0  0  0  0  0  0  0  0  0  0  0
   17.6046   70.5198   -9.1677 N   0  0  0  0  0  0  0  0  0  0  0  0
   16.9057   70.4532   -7.9556 C   0  0  0  0  0  0  0  0  0  0  0  0
   19.0543   70.9061   -6.9120 C   0  0  0  0  0  0  0  0  0  0  0  0
   19.7059   70.9651   -8.0753 C   0  0  0  0  0  0  0  0  0  0  0  0
   18.9592   70.7611   -9.3334 C   0  0  0  0  0  0  0  0  0  0  0  0
   17.0784   70.3791   -9.9881 H   0  0  0  0  0  0  0  0  0  0  0  0
   21.6379   72.7239   -1.1333 O   0  0  0  0  0  0  0  0  0  0  0  0
   22.9655   72.7838   -2.0535 P   0  0  2  0  0  0  0  0  0  0  0  0
   23.3785   71.2274   -2.2109 O   0  0  0  0  0  0  0  0  0  0  0  0
   24.0542   73.6611   -1.5067 O   0  0  0  0  0  0  0  0  0  0  0  0
   22.4308   73.2134   -3.5146 O   0  0  0  0  0  0  0  0  0  0  0  0
   22.9631   75.4937   -3.8797 O   0  0  0  0  0  0  0  0  0  0  0  0
   20.7516   74.7776   -7.2926 O   0  0  0  0  0  0  0  0  0  0  0  0
   23.6003   75.0857   -7.4875 O   0  0  0  0  0  0  0  0  0  0  0  0
   19.9530   73.5863   -4.7781 O   0  0  0  0  0  0  0  0  0  0  0  0
   21.6614   74.4538   -6.2377 C   0  0  1  0  0  0  0  0  0  0  0  0
   22.8516   75.4116   -6.3199 C   0  0  1  0  0  0  0  0  0  0  0  0
   20.9442   74.6012   -4.8971 C   0  0  2  0  0  0  0  0  0  0  0  0
   23.7363   75.3044   -5.0705 C   0  0  1  0  0  0  0  0  0  0  0  0
   21.9215   74.5281   -3.7226 C   0  0  1  0  0  0  0  0  0  0  0  0
   21.2007   74.6855   -8.1466 H   0  0  0  0  0  0  0  0  0  0  0  0
   23.0300   75.1568   -8.2691 H   0  0  0  0  0  0  0  0  0  0  0  0
   19.3404   73.6434   -5.5273 H   0  0  0  0  0  0  0  0  0  0  0  0
   26.0922   75.7010   -5.0345 O   0  0  0  0  0  0  0  0  0  0  0  0
   24.8395   76.3602   -5.0586 C   0  0  0  0  0  0  0  0  0  0  0  0
   26.8039   76.3607   -5.0270 H   0  0  0  0  0  0  0  0  0  0  0  0
 25 28  1  0
 25 24  1  0
 25 26  1  6
 25 27  2  0
  1  4  1  0
  1 24  1  0
  1  2  1  1
  1  3  2  0
  6 11  1  0
  6 12  1  0
 29 36  1  0
 29 37  1  0
  9  7  1  6
  7 13  1  0
 10  8  1  1
  8 14  1  0
 37 28  1  6
  4  5  1  0
 33 30  1  6
 30 38  1  0
 34 31  1  6
 31 39  1  0
 35 32  1  1
 32 40  1  0
 41 42  1  0
 41 43  1  0
 15 19  2  0
 16 22  2  0
 12 17  1  6
 17 19  1  0
 17 20  1  0
 18 19  1  0
 18 22  1  0
 18 23  1  0
  9 10  1  0
  9 11  1  0
 10 12  1  0
 11  5  1  6
 33 34  1  0
 33 35  1  0
 34 36  1  0
 35 37  1  0
 36 42  1  6
 20 21  2  0
 21 22  1  0
M  CHG  2   2  -1  26  -1
M  END
>  <COMPND>  (41) 
    8629 

>  <AUTHOR>  (41) 
    GENERATED BY OPEN BABEL 3.1.1

>  <MASTER>  (41) 
        0    0    0    0    0    0    0    0   58    0   58    0

>  <minimizedAffinity>  (41) 
-6.52356

>  <CNNscore>  (41) 
0.8820185065

>  <CNNaffinity>  (41) 
4.5742340088

>  <CNN_VS>  (41) 
4.0345592499

>  <CNNaffinity_variance>  (41) 
0.2466597855

$$$$
42
     RDKit          3D

 43 45  0  0  0  0  0  0  0  0999 V2000
   20.9945   72.3791   -3.2104 P   0  0  2  0  0  0  0  0  0  0  0  0
   21.9786   71.5706   -2.2128 O   0  0  0  0  0  0  0  0  0  0  0  0
   20.0949   73.3769   -2.5422 O   0  0  0  0  0  0  0  0  0  0  0  0
   20.2499   71.2137   -4.0503 O   0  0  0  0  0  0  0  0  0  0  0  0
   19.4956   70.2460   -3.3414 C   0  0  0  0  0  0  0  0  0  0  0  0
   17.7960   71.3730   -4.6123 O   0  0  0  0  0  0  0  0  0  0  0  0
   15.8129   69.8323   -2.9739 O   0  0  0  0  0  0  0  0  0  0  0  0
   15.8675   68.4314   -5.3129 O   0  0  0  0  0  0  0  0  0  0  0  0
   17.0904   69.4253   -3.4614 C   0  0  1  0  0  0  0  0  0  0  0  0
   17.0241   69.1579   -4.9506 C   0  0  2  0  0  0  0  0  0  0  0  0
   18.0229   70.6284   -3.3955 C   0  0  1  0  0  0  0  0  0  0  0  0
   17.0343   70.5648   -5.5241 C   0  0  2  0  0  0  0  0  0  0  0  0
   15.2002   69.0803   -3.0060 H   0  0  0  0  0  0  0  0  0  0  0  0
   15.9082   67.5437   -4.9242 H   0  0  0  0  0  0  0  0  0  0  0  0
   15.6517   70.1905   -7.9585 O   0  0  0  0  0  0  0  0  0  0  0  0
   19.4846   70.8086  -10.4420 O   0  0  0  0  0  0  0  0  0  0  0  0
   17.6461   70.6229   -6.8217 N   0  0  0  0  0  0  0  0  0  0  0  0
   17.5613   70.4988   -9.1931 N   0  0  0  0  0  0  0  0  0  0  0  0
   16.8627   70.4197   -7.9816 C   0  0  0  0  0  0  0  0  0  0  0  0
   19.0082   70.8793   -6.9347 C   0  0  0  0  0  0  0  0  0  0  0  0
   19.6596   70.9501   -8.0974 C   0  0  0  0  0  0  0  0  0  0  0  0
   18.9144   70.7498   -9.3570 C   0  0  0  0  0  0  0  0  0  0  0  0
   17.0361   70.3602  -10.0145 H   0  0  0  0  0  0  0  0  0  0  0  0
   22.0145   73.0120   -4.2930 O   0  0  0  0  0  0  0  0  0  0  0  0
   23.3484   73.9044   -4.0996 P   0  0  2  0  0  0  0  0  0  0  0  0
   24.5426   72.8223   -4.2421 O   0  0  0  0  0  0  0  0  0  0  0  0
   23.3793   74.6964   -2.8246 O   0  0  0  0  0  0  0  0  0  0  0  0
   23.4426   74.7946   -5.4426 O   0  0  0  0  0  0  0  0  0  0  0  0
   22.0771   76.0173   -6.9450 O   0  0  0  0  0  0  0  0  0  0  0  0
   23.8446   73.4198   -9.6245 O   0  0  0  0  0  0  0  0  0  0  0  0
   24.6227   76.1842   -9.6060 O   0  0  0  0  0  0  0  0  0  0  0  0
   23.0840   72.4833   -6.9931 O   0  0  0  0  0  0  0  0  0  0  0  0
   23.7860   74.2556   -8.4654 C   0  0  1  0  0  0  0  0  0  0  0  0
   23.4789   75.6840   -8.9192 C   0  0  1  0  0  0  0  0  0  0  0  0
   22.6909   73.7403   -7.5333 C   0  0  2  0  0  0  0  0  0  0  0  0
   23.1375   76.5837   -7.7237 C   0  0  1  0  0  0  0  0  0  0  0  0
   22.3950   74.7323   -6.4070 C   0  0  1  0  0  0  0  0  0  0  0  0
   24.5383   73.7412  -10.2202 H   0  0  0  0  0  0  0  0  0  0  0  0
   24.8278   75.6069  -10.3582 H   0  0  0  0  0  0  0  0  0  0  0  0
   23.2682   71.8642   -7.7160 H   0  0  0  0  0  0  0  0  0  0  0  0
   22.1101   77.8650   -9.4591 O   0  0  0  0  0  0  0  0  0  0  0  0
   22.6750   77.9705   -8.1653 C   0  0  0  0  0  0  0  0  0  0  0  0
   21.8110   78.7401   -9.7531 H   0  0  0  0  0  0  0  0  0  0  0  0
 25 28  1  0
 25 24  1  0
 25 26  1  1
 25 27  2  0
  1  4  1  0
  1 24  1  0
  1  2  1  1
  1  3  2  0
  6 11  1  0
  6 12  1  0
 29 36  1  0
 29 37  1  0
  9  7  1  6
  7 13  1  0
 10  8  1  1
  8 14  1  0
 37 28  1  1
  4  5  1  0
 33 30  1  6
 30 38  1  0
 34 31  1  1
 31 39  1  0
 35 32  1  1
 32 40  1  0
 41 42  1  0
 41 43  1  0
 15 19  2  0
 16 22  2  0
 12 17  1  6
 17 19  1  0
 17 20  1  0
 18 19  1  0
 18 22  1  0
 18 23  1  0
  9 10  1  0
  9 11  1  0
 10 12  1  0
 11  5  1  6
 33 34  1  0
 33 35  1  0
 34 36  1  0
 35 37  1  0
 36 42  1  6
 20 21  2  0
 21 22  1  0
M  CHG  2   2  -1  26  -1
M  END
>  <COMPND>  (42) 
    8629 

>  <AUTHOR>  (42) 
    GENERATED BY OPEN BABEL 3.1.1

>  <MASTER>  (42) 
        0    0    0    0    0    0    0    0   58    0   58    0

>  <minimizedAffinity>  (42) 
-7.15382

>  <CNNscore>  (42) 
0.8713591695

>  <CNNaffinity>  (42) 
4.6704874039

>  <CNN_VS>  (42) 
4.0696721077

>  <CNNaffinity_variance>  (42) 
0.1702383906

$$$$
43
     RDKit          3D

 43 45  0  0  0  0  0  0  0  0999 V2000
   22.0694   71.9473   -1.8577 P   0  0  2  0  0  0  0  0  0  0  0  0
   21.0150   72.6252   -0.8349 O   0  0  0  0  0  0  0  0  0  0  0  0
   22.7779   72.9082   -2.7667 O   0  0  0  0  0  0  0  0  0  0  0  0
   21.2093   70.7899   -2.5916 O   0  0  0  0  0  0  0  0  0  0  0  0
   20.6387   71.0716   -3.8577 C   0  0  0  0  0  0  0  0  0  0  0  0
   18.6554   71.9066   -4.9268 O   0  0  0  0  0  0  0  0  0  0  0  0
   17.1318   70.6135   -2.6913 O   0  0  0  0  0  0  0  0  0  0  0  0
   16.8239   68.8293   -4.7306 O   0  0  0  0  0  0  0  0  0  0  0  0
   18.3145   70.1679   -3.3531 C   0  0  1  0  0  0  0  0  0  0  0  0
   17.9788   69.6435   -4.7337 C   0  0  2  0  0  0  0  0  0  0  0  0
   19.1616   71.3926   -3.6754 C   0  0  1  0  0  0  0  0  0  0  0  0
   17.7859   70.9287   -5.5206 C   0  0  2  0  0  0  0  0  0  0  0  0
   16.5749   69.8486   -2.4751 H   0  0  0  0  0  0  0  0  0  0  0  0
   16.9969   68.0245   -4.2176 H   0  0  0  0  0  0  0  0  0  0  0  0
   16.0051   70.0254   -7.5182 O   0  0  0  0  0  0  0  0  0  0  0  0
   19.2156   70.3929  -10.8043 O   0  0  0  0  0  0  0  0  0  0  0  0
   18.1298   70.7792   -6.9065 N   0  0  0  0  0  0  0  0  0  0  0  0
   17.6051   70.2093   -9.1528 N   0  0  0  0  0  0  0  0  0  0  0  0
   17.1619   70.3172   -7.8285 C   0  0  0  0  0  0  0  0  0  0  0  0
   19.4145   71.0897   -7.3390 C   0  0  0  0  0  0  0  0  0  0  0  0
   19.8216   70.9801   -8.6053 C   0  0  0  0  0  0  0  0  0  0  0  0
   18.8717   70.5044   -9.6317 C   0  0  0  0  0  0  0  0  0  0  0  0
   16.9480   69.8890   -9.8128 H   0  0  0  0  0  0  0  0  0  0  0  0
   23.0417   71.1095   -0.8750 O   0  0  0  0  0  0  0  0  0  0  0  0
   22.8582   70.6552    0.6654 P   0  0  2  0  0  0  0  0  0  0  0  0
   24.2006   69.8026    0.9632 O   0  0  0  0  0  0  0  0  0  0  0  0
   21.5811   69.9157    0.9409 O   0  0  0  0  0  0  0  0  0  0  0  0
   23.0413   72.0142    1.5167 O   0  0  0  0  0  0  0  0  0  0  0  0
   24.2533   72.5421    3.4836 O   0  0  0  0  0  0  0  0  0  0  0  0
   20.7879   74.6495    4.2584 O   0  0  0  0  0  0  0  0  0  0  0  0
   23.1857   76.0695    3.5640 O   0  0  0  0  0  0  0  0  0  0  0  0
   20.6457   72.0574    2.9777 O   0  0  0  0  0  0  0  0  0  0  0  0
   21.8264   74.1054    3.4394 C   0  0  1  0  0  0  0  0  0  0  0  0
   23.1615   74.6871    3.9084 C   0  0  1  0  0  0  0  0  0  0  0  0
   21.8249   72.5840    3.5766 C   0  0  2  0  0  0  0  0  0  0  0  0
   24.3435   73.9541    3.2599 C   0  0  1  0  0  0  0  0  0  0  0  0
   23.0675   71.9584    2.9405 C   0  0  1  0  0  0  0  0  0  0  0  0
   20.7831   75.6152    4.1755 H   0  0  0  0  0  0  0  0  0  0  0  0
   22.4339   76.5207    3.9793 H   0  0  0  0  0  0  0  0  0  0  0  0
   19.8662   72.4611    3.3891 H   0  0  0  0  0  0  0  0  0  0  0  0
   26.5887   74.6004    2.7597 O   0  0  0  0  0  0  0  0  0  0  0  0
   25.6835   74.4116    3.8318 C   0  0  0  0  0  0  0  0  0  0  0  0
   27.4460   74.8920    3.1087 H   0  0  0  0  0  0  0  0  0  0  0  0
 25 28  1  0
 25 24  1  0
 25 26  1  1
 25 27  2  0
  1  4  1  0
  1 24  1  0
  1  2  1  1
  1  3  2  0
  6 11  1  0
  6 12  1  0
 29 36  1  0
 29 37  1  0
  9  7  1  6
  7 13  1  0
 10  8  1  1
  8 14  1  0
 37 28  1  6
  4  5  1  0
 33 30  1  1
 30 38  1  0
 34 31  1  6
 31 39  1  0
 35 32  1  6
 32 40  1  0
 41 42  1  0
 41 43  1  0
 15 19  2  0
 16 22  2  0
 12 17  1  6
 17 19  1  0
 17 20  1  0
 18 19  1  0
 18 22  1  0
 18 23  1  0
  9 10  1  0
  9 11  1  0
 10 12  1  0
 11  5  1  6
 33 34  1  0
 33 35  1  0
 34 36  1  0
 35 37  1  0
 36 42  1  1
 20 21  2  0
 21 22  1  0
M  CHG  2   2  -1  26  -1
M  END
>  <COMPND>  (43) 
    8629 

>  <AUTHOR>  (43) 
    GENERATED BY OPEN BABEL 3.1.1

>  <MASTER>  (43) 
        0    0    0    0    0    0    0    0   58    0   58    0

>  <minimizedAffinity>  (43) 
-7.29408

>  <CNNscore>  (43) 
0.8415983915

>  <CNNaffinity>  (43) 
4.5398454666

>  <CNN_VS>  (43) 
3.8207266331

>  <CNNaffinity_variance>  (43) 
0.0387826301

$$$$
44
     RDKit          3D

 43 45  0  0  0  0  0  0  0  0999 V2000
   22.5077   72.0483   -2.9198 P   0  0  2  0  0  0  0  0  0  0  0  0
   22.2168   73.6335   -2.7784 O   0  0  0  0  0  0  0  0  0  0  0  0
   23.9121   71.6941   -3.3116 O   0  0  0  0  0  0  0  0  0  0  0  0
   21.3469   71.5280   -3.9196 O   0  0  0  0  0  0  0  0  0  0  0  0
   20.5482   70.4297   -3.5149 C   0  0  0  0  0  0  0  0  0  0  0  0
   18.7011   71.5657   -4.5501 O   0  0  0  0  0  0  0  0  0  0  0  0
   16.9809   70.2824   -2.4561 O   0  0  0  0  0  0  0  0  0  0  0  0
   16.5328   68.7103   -4.6388 O   0  0  0  0  0  0  0  0  0  0  0  0
   18.1245   69.7588   -3.1294 C   0  0  1  0  0  0  0  0  0  0  0  0
   17.7710   69.3859   -4.5540 C   0  0  2  0  0  0  0  0  0  0  0  0
   19.1116   70.9010   -3.3352 C   0  0  1  0  0  0  0  0  0  0  0  0
   17.7448   70.7424   -5.2376 C   0  0  2  0  0  0  0  0  0  0  0  0
   16.3362   69.5711   -2.3132 H   0  0  0  0  0  0  0  0  0  0  0  0
   16.6005   67.8533   -4.1896 H   0  0  0  0  0  0  0  0  0  0  0  0
   15.9625   70.0557   -7.3184 O   0  0  0  0  0  0  0  0  0  0  0  0
   19.2513   70.4720  -10.5202 O   0  0  0  0  0  0  0  0  0  0  0  0
   18.1085   70.6641   -6.6243 N   0  0  0  0  0  0  0  0  0  0  0  0
   17.6014   70.2637   -8.9110 N   0  0  0  0  0  0  0  0  0  0  0  0
   17.1379   70.3093   -7.5900 C   0  0  0  0  0  0  0  0  0  0  0  0
   19.4149   70.9378   -7.0146 C   0  0  0  0  0  0  0  0  0  0  0  0
   19.8412   70.8886   -8.2784 C   0  0  0  0  0  0  0  0  0  0  0  0
   18.8900   70.5259   -9.3487 C   0  0  0  0  0  0  0  0  0  0  0  0
   16.9430   70.0184   -9.6009 H   0  0  0  0  0  0  0  0  0  0  0  0
   22.0415   71.4640   -1.4865 O   0  0  0  0  0  0  0  0  0  0  0  0
   22.8638   70.6630   -0.3484 P   0  0  2  0  0  0  0  0  0  0  0  0
   21.7008   70.1202    0.6367 O   0  0  0  0  0  0  0  0  0  0  0  0
   23.9229   71.4789    0.3346 O   0  0  0  0  0  0  0  0  0  0  0  0
   23.4145   69.3425   -1.0953 O   0  0  0  0  0  0  0  0  0  0  0  0
   24.5957   67.6978    0.1360 O   0  0  0  0  0  0  0  0  0  0  0  0
   25.9446   66.7778   -3.6568 O   0  0  0  0  0  0  0  0  0  0  0  0
   24.0815   65.0255   -2.3506 O   0  0  0  0  0  0  0  0  0  0  0  0
   25.5609   69.5432   -2.8920 O   0  0  0  0  0  0  0  0  0  0  0  0
   24.9921   67.2121   -2.6823 C   0  0  1  0  0  0  0  0  0  0  0  0
   24.7765   66.0745   -1.6822 C   0  0  1  0  0  0  0  0  0  0  0  0
   25.5320   68.4541   -1.9757 C   0  0  2  0  0  0  0  0  0  0  0  0
   23.9770   66.5531   -0.4628 C   0  0  1  0  0  0  0  0  0  0  0  0
   24.6927   68.8156   -0.7489 C   0  0  1  0  0  0  0  0  0  0  0  0
   25.6077   65.9897   -4.1095 H   0  0  0  0  0  0  0  0  0  0  0  0
   24.5966   64.7327   -3.1188 H   0  0  0  0  0  0  0  0  0  0  0  0
   26.0955   69.3020   -3.6639 H   0  0  0  0  0  0  0  0  0  0  0  0
   24.5800   65.9346    1.7649 O   0  0  0  0  0  0  0  0  0  0  0  0
   23.8855   65.4787    0.6186 C   0  0  0  0  0  0  0  0  0  0  0  0
   24.5299   65.2610    2.4617 H   0  0  0  0  0  0  0  0  0  0  0  0
 25 28  1  0
 25 24  1  0
 25 26  1  1
 25 27  2  0
  1  4  1  0
  1 24  1  0
  1  2  1  1
  1  3  2  0
  6 11  1  0
  6 12  1  0
 29 36  1  0
 29 37  1  0
  9  7  1  1
  7 13  1  0
 10  8  1  1
  8 14  1  0
 37 28  1  6
  4  5  1  0
 33 30  1  6
 30 38  1  0
 34 31  1  6
 31 39  1  0
 35 32  1  6
 32 40  1  0
 41 42  1  0
 41 43  1  0
 15 19  2  0
 16 22  2  0
 12 17  1  6
 17 19  1  0
 17 20  1  0
 18 19  1  0
 18 22  1  0
 18 23  1  0
  9 10  1  0
  9 11  1  0
 10 12  1  0
 11  5  1  6
 33 34  1  0
 33 35  1  0
 34 36  1  0
 35 37  1  0
 36 42  1  1
 20 21  2  0
 21 22  1  0
M  CHG  2   2  -1  26  -1
M  END
>  <COMPND>  (44) 
    8629 

>  <AUTHOR>  (44) 
    GENERATED BY OPEN BABEL 3.1.1

>  <MASTER>  (44) 
        0    0    0    0    0    0    0    0   58    0   58    0

>  <minimizedAffinity>  (44) 
-9.42705

>  <CNNscore>  (44) 
0.8244845867

>  <CNNaffinity>  (44) 
5.0695133209

>  <CNN_VS>  (44) 
4.1797356606

>  <CNNaffinity_variance>  (44) 
0.0763619840

$$$$
45
     RDKit          3D

 43 45  0  0  0  0  0  0  0  0999 V2000
   21.6538   72.4996   -5.4412 P   0  0  2  0  0  0  0  0  0  0  0  0
   20.9251   73.8878   -5.8403 O   0  0  0  0  0  0  0  0  0  0  0  0
   23.1513   72.5209   -5.5324 O   0  0  0  0  0  0  0  0  0  0  0  0
   20.9097   71.3929   -6.3575 O   0  0  0  0  0  0  0  0  0  0  0  0
   20.4879   71.7648   -7.6581 C   0  0  0  0  0  0  0  0  0  0  0  0
   19.1384   69.8308   -7.1976 O   0  0  0  0  0  0  0  0  0  0  0  0
   18.2079   70.0347  -10.0407 O   0  0  0  0  0  0  0  0  0  0  0  0
   16.1341   71.1386   -8.6559 O   0  0  0  0  0  0  0  0  0  0  0  0
   18.5205   71.0759   -9.1168 C   0  0  1  0  0  0  0  0  0  0  0  0
   17.4233   71.2070   -8.0813 C   0  0  2  0  0  0  0  0  0  0  0  0
   19.7016   70.6146   -8.2721 C   0  0  1  0  0  0  0  0  0  0  0  0
   17.7163   70.0339   -7.1614 C   0  0  2  0  0  0  0  0  0  0  0  0
   17.4565   70.3064  -10.5917 H   0  0  0  0  0  0  0  0  0  0  0  0
   15.9957   71.9063   -9.2322 H   0  0  0  0  0  0  0  0  0  0  0  0
   16.3350   68.1846   -5.5336 O   0  0  0  0  0  0  0  0  0  0  0  0
   16.2295   71.1150   -1.9778 O   0  0  0  0  0  0  0  0  0  0  0  0
   17.3158   70.2872   -5.8062 N   0  0  0  0  0  0  0  0  0  0  0  0
   16.2837   69.6452   -3.7644 N   0  0  0  0  0  0  0  0  0  0  0  0
   16.6256   69.2918   -5.0759 C   0  0  0  0  0  0  0  0  0  0  0  0
   17.6079   71.5113   -5.2145 C   0  0  0  0  0  0  0  0  0  0  0  0
   17.2738   71.8332   -3.9631 C   0  0  0  0  0  0  0  0  0  0  0  0
   16.5507   70.8491   -3.1320 C   0  0  0  0  0  0  0  0  0  0  0  0
   15.8020   68.9675   -3.2366 H   0  0  0  0  0  0  0  0  0  0  0  0
   21.0741   72.1967   -3.9630 O   0  0  0  0  0  0  0  0  0  0  0  0
   21.0814   70.8452   -3.0762 P   0  0  2  0  0  0  0  0  0  0  0  0
   22.6408   70.4141   -3.0697 O   0  0  0  0  0  0  0  0  0  0  0  0
   20.1464   69.7797   -3.5707 O   0  0  0  0  0  0  0  0  0  0  0  0
   20.7900   71.3439   -1.5691 O   0  0  0  0  0  0  0  0  0  0  0  0
   22.0508   73.2306   -0.8857 O   0  0  0  0  0  0  0  0  0  0  0  0
   20.6588   71.9967    2.8008 O   0  0  0  0  0  0  0  0  0  0  0  0
   19.5763   74.3694    1.5980 O   0  0  0  0  0  0  0  0  0  0  0  0
   21.4470   70.0342    0.8243 O   0  0  0  0  0  0  0  0  0  0  0  0
   20.5918   72.2140    1.3889 C   0  0  1  0  0  0  0  0  0  0  0  0
   20.7497   73.7129    1.1263 C   0  0  1  0  0  0  0  0  0  0  0  0
   21.7117   71.4282    0.7093 C   0  0  2  0  0  0  0  0  0  0  0  0
   20.9554   73.9949   -0.3682 C   0  0  1  0  0  0  0  0  0  0  0  0
   21.8639   71.8194   -0.7618 C   0  0  1  0  0  0  0  0  0  0  0  0
   19.9501   72.4925    3.2383 H   0  0  0  0  0  0  0  0  0  0  0  0
   19.4577   74.1829    2.5427 H   0  0  0  0  0  0  0  0  0  0  0  0
   21.3531   69.7992    1.7601 H   0  0  0  0  0  0  0  0  0  0  0  0
   20.0542   76.1855   -0.6811 O   0  0  0  0  0  0  0  0  0  0  0  0
   21.2719   75.4649   -0.6345 C   0  0  0  0  0  0  0  0  0  0  0  0
   20.2401   77.1229   -0.8497 H   0  0  0  0  0  0  0  0  0  0  0  0
 25 28  1  0
 25 24  1  0
 25 26  1  1
 25 27  2  0
  1  4  1  0
  1 24  1  0
  1  2  1  6
  1  3  2  0
  6 11  1  0
  6 12  1  0
 29 36  1  0
 29 37  1  0
  9  7  1  6
  7 13  1  0
 10  8  1  6
  8 14  1  0
 37 28  1  6
  4  5  1  0
 33 30  1  1
 30 38  1  0
 34 31  1  6
 31 39  1  0
 35 32  1  6
 32 40  1  0
 41 42  1  0
 41 43  1  0
 15 19  2  0
 16 22  2  0
 12 17  1  1
 17 19  1  0
 17 20  1  0
 18 19  1  0
 18 22  1  0
 18 23  1  0
  9 10  1  0
  9 11  1  0
 10 12  1  0
 11  5  1  1
 33 34  1  0
 33 35  1  0
 34 36  1  0
 35 37  1  0
 36 42  1  1
 20 21  2  0
 21 22  1  0
M  CHG  2   2  -1  26  -1
M  END
>  <COMPND>  (45) 
    8629 

>  <AUTHOR>  (45) 
    GENERATED BY OPEN BABEL 3.1.1

>  <MASTER>  (45) 
        0    0    0    0    0    0    0    0   58    0   58    0

>  <minimizedAffinity>  (45) 
-7.09433

>  <CNNscore>  (45) 
0.7861097455

>  <CNNaffinity>  (45) 
4.5977091789

>  <CNN_VS>  (45) 
3.6143040657

>  <CNNaffinity_variance>  (45) 
0.1194004193

$$$$
46
     RDKit          3D

 43 45  0  0  0  0  0  0  0  0999 V2000
   20.9611   73.5523   -4.3083 P   0  0  2  0  0  0  0  0  0  0  0  0
   20.1393   74.9249   -4.5491 O   0  0  0  0  0  0  0  0  0  0  0  0
   21.3217   72.8021   -5.5568 O   0  0  0  0  0  0  0  0  0  0  0  0
   20.0585   72.7419   -3.2376 O   0  0  0  0  0  0  0  0  0  0  0  0
   19.4966   71.5013   -3.6286 C   0  0  0  0  0  0  0  0  0  0  0  0
   17.6887   72.0351   -5.1187 O   0  0  0  0  0  0  0  0  0  0  0  0
   15.8940   70.7092   -3.1157 O   0  0  0  0  0  0  0  0  0  0  0  0
   16.1793   68.7831   -5.0249 O   0  0  0  0  0  0  0  0  0  0  0  0
   17.2234   70.3654   -3.5027 C   0  0  1  0  0  0  0  0  0  0  0  0
   17.2225   69.7243   -4.8748 C   0  0  2  0  0  0  0  0  0  0  0  0
   17.9876   71.6588   -3.7565 C   0  0  1  0  0  0  0  0  0  0  0  0
   17.0584   70.9292   -5.7855 C   0  0  2  0  0  0  0  0  0  0  0  0
   15.3866   69.8991   -2.9478 H   0  0  0  0  0  0  0  0  0  0  0  0
   16.3289   68.0358   -4.4249 H   0  0  0  0  0  0  0  0  0  0  0  0
   15.6543   70.5157   -8.2012 O   0  0  0  0  0  0  0  0  0  0  0  0
   19.5585   70.2072  -10.6308 O   0  0  0  0  0  0  0  0  0  0  0  0
   17.6828   70.7383   -7.0642 N   0  0  0  0  0  0  0  0  0  0  0  0
   17.5995   70.3626   -9.4090 N   0  0  0  0  0  0  0  0  0  0  0  0
   16.8868   70.5376   -8.2159 C   0  0  0  0  0  0  0  0  0  0  0  0
   19.0696   70.7517   -7.1670 C   0  0  0  0  0  0  0  0  0  0  0  0
   19.7339   70.5820   -8.3121 C   0  0  0  0  0  0  0  0  0  0  0  0
   18.9769   70.3664   -9.5621 C   0  0  0  0  0  0  0  0  0  0  0  0
   17.0658   70.2207  -10.2244 H   0  0  0  0  0  0  0  0  0  0  0  0
   22.2257   74.0360   -3.4253 O   0  0  0  0  0  0  0  0  0  0  0  0
   23.7000   73.3984   -3.2442 P   0  0  2  0  0  0  0  0  0  0  0  0
   24.5706   74.6344   -2.6680 O   0  0  0  0  0  0  0  0  0  0  0  0
   24.2585   72.7757   -4.4908 O   0  0  0  0  0  0  0  0  0  0  0  0
   23.5562   72.3845   -1.9966 O   0  0  0  0  0  0  0  0  0  0  0  0
   23.9023   70.0729   -2.3878 O   0  0  0  0  0  0  0  0  0  0  0  0
   21.8311   69.8360    1.1765 O   0  0  0  0  0  0  0  0  0  0  0  0
   24.6473   69.2744    1.1330 O   0  0  0  0  0  0  0  0  0  0  0  0
   21.0829   71.8147   -0.7995 O   0  0  0  0  0  0  0  0  0  0  0  0
   22.7426   70.4085    0.2348 C   0  0  1  0  0  0  0  0  0  0  0  0
   23.8494   69.3891   -0.0419 C   0  0  1  0  0  0  0  0  0  0  0  0
   21.9875   70.7443   -1.0499 C   0  0  2  0  0  0  0  0  0  0  0  0
   24.7136   69.8198   -1.2347 C   0  0  1  0  0  0  0  0  0  0  0  0
   22.9426   71.1123   -2.1867 C   0  0  1  0  0  0  0  0  0  0  0  0
   22.3042   69.6209    1.9948 H   0  0  0  0  0  0  0  0  0  0  0  0
   24.0896   69.0024    1.8788 H   0  0  0  0  0  0  0  0  0  0  0  0
   20.4835   71.5692   -0.0782 H   0  0  0  0  0  0  0  0  0  0  0  0
   26.1619   68.9996   -2.9490 O   0  0  0  0  0  0  0  0  0  0  0  0
   25.7236   68.7438   -1.6273 C   0  0  0  0  0  0  0  0  0  0  0  0
   26.8055   68.3227   -3.2123 H   0  0  0  0  0  0  0  0  0  0  0  0
 25 28  1  0
 25 24  1  0
 25 26  1  1
 25 27  2  0
  1  4  1  0
  1 24  1  0
  1  2  1  6
  1  3  2  0
  6 11  1  0
  6 12  1  0
 29 36  1  0
 29 37  1  0
  9  7  1  6
  7 13  1  0
 10  8  1  1
  8 14  1  0
 37 28  1  1
  4  5  1  0
 33 30  1  1
 30 38  1  0
 34 31  1  1
 31 39  1  0
 35 32  1  1
 32 40  1  0
 41 42  1  0
 41 43  1  0
 15 19  2  0
 16 22  2  0
 12 17  1  6
 17 19  1  0
 17 20  1  0
 18 19  1  0
 18 22  1  0
 18 23  1  0
  9 10  1  0
  9 11  1  0
 10 12  1  0
 11  5  1  6
 33 34  1  0
 33 35  1  0
 34 36  1  0
 35 37  1  0
 36 42  1  6
 20 21  2  0
 21 22  1  0
M  CHG  2   2  -1  26  -1
M  END
>  <COMPND>  (46) 
    8629 

>  <AUTHOR>  (46) 
    GENERATED BY OPEN BABEL 3.1.1

>  <MASTER>  (46) 
        0    0    0    0    0    0    0    0   58    0   58    0

>  <minimizedAffinity>  (46) 
-8.53126

>  <CNNscore>  (46) 
0.7482036948

>  <CNNaffinity>  (46) 
4.6143598557

>  <CNN_VS>  (46) 
3.4524810314

>  <CNNaffinity_variance>  (46) 
0.0846768767

$$$$
47
     RDKit          3D

 43 45  0  0  0  0  0  0  0  0999 V2000
   21.9588   72.6005   -5.7075 P   0  0  2  0  0  0  0  0  0  0  0  0
   21.3598   74.0648   -5.3692 O   0  0  0  0  0  0  0  0  0  0  0  0
   23.1521   72.5985   -6.6171 O   0  0  0  0  0  0  0  0  0  0  0  0
   20.6747   71.7671   -6.2314 O   0  0  0  0  0  0  0  0  0  0  0  0
   20.1653   72.0511   -7.5227 C   0  0  0  0  0  0  0  0  0  0  0  0
   19.0110   70.0103   -6.9969 O   0  0  0  0  0  0  0  0  0  0  0  0
   18.1889   69.9519   -9.8799 O   0  0  0  0  0  0  0  0  0  0  0  0
   15.9508   70.8989   -8.6427 O   0  0  0  0  0  0  0  0  0  0  0  0
   18.3481   71.0711   -9.0096 C   0  0  1  0  0  0  0  0  0  0  0  0
   17.1990   71.1396   -8.0255 C   0  0  2  0  0  0  0  0  0  0  0  0
   19.5337   70.7895   -8.0951 C   0  0  1  0  0  0  0  0  0  0  0  0
   17.5752   70.0589   -7.0262 C   0  0  2  0  0  0  0  0  0  0  0  0
   17.4376   70.1088  -10.4740 H   0  0  0  0  0  0  0  0  0  0  0  0
   15.7566   71.6135   -9.2691 H   0  0  0  0  0  0  0  0  0  0  0  0
   16.3209   68.1665   -5.3458 O   0  0  0  0  0  0  0  0  0  0  0  0
   15.7572   71.2600   -1.9763 O   0  0  0  0  0  0  0  0  0  0  0  0
   17.0911   70.3425   -5.7046 N   0  0  0  0  0  0  0  0  0  0  0  0
   16.0414   69.7083   -3.6694 N   0  0  0  0  0  0  0  0  0  0  0  0
   16.4755   69.3215   -4.9437 C   0  0  0  0  0  0  0  0  0  0  0  0
   17.2292   71.6212   -5.1757 C   0  0  0  0  0  0  0  0  0  0  0  0
   16.8088   71.9742   -3.9592 C   0  0  0  0  0  0  0  0  0  0  0  0
   16.1548   70.9666   -3.0996 C   0  0  0  0  0  0  0  0  0  0  0  0
   15.6092   69.0137   -3.1213 H   0  0  0  0  0  0  0  0  0  0  0  0
   22.2279   71.9708   -4.2433 O   0  0  0  0  0  0  0  0  0  0  0  0
   23.5251   72.0375   -3.2811 P   0  0  2  0  0  0  0  0  0  0  0  0
   24.4930   73.0917   -4.0358 O   0  0  0  0  0  0  0  0  0  0  0  0
   24.1570   70.7036   -3.0066 O   0  0  0  0  0  0  0  0  0  0  0  0
   23.0173   72.8207   -1.9645 O   0  0  0  0  0  0  0  0  0  0  0  0
   20.9347   72.8888   -0.8354 O   0  0  0  0  0  0  0  0  0  0  0  0
   21.9530   76.8825   -0.5828 O   0  0  0  0  0  0  0  0  0  0  0  0
   22.0741   75.2370    1.7678 O   0  0  0  0  0  0  0  0  0  0  0  0
   22.5482   75.3901   -2.9907 O   0  0  0  0  0  0  0  0  0  0  0  0
   22.1999   75.4741   -0.6089 C   0  0  1  0  0  0  0  0  0  0  0  0
   21.4430   74.8329    0.5559 C   0  0  1  0  0  0  0  0  0  0  0  0
   21.7155   74.9070   -1.9420 C   0  0  2  0  0  0  0  0  0  0  0  0
   21.4402   73.3027    0.4393 C   0  0  1  0  0  0  0  0  0  0  0  0
   21.7056   73.3773   -1.9349 C   0  0  1  0  0  0  0  0  0  0  0  0
   22.2587   77.2489    0.2609 H   0  0  0  0  0  0  0  0  0  0  0  0
   22.0696   76.2052    1.8288 H   0  0  0  0  0  0  0  0  0  0  0  0
   22.5458   76.3596   -2.9848 H   0  0  0  0  0  0  0  0  0  0  0  0
   19.6560   73.6217    1.9961 O   0  0  0  0  0  0  0  0  0  0  0  0
   20.5590   72.6498    1.5020 C   0  0  0  0  0  0  0  0  0  0  0  0
   19.0884   73.2202    2.6732 H   0  0  0  0  0  0  0  0  0  0  0  0
 25 28  1  0
 25 24  1  0
 25 26  1  6
 25 27  2  0
  1  4  1  0
  1 24  1  0
  1  2  1  1
  1  3  2  0
  6 11  1  0
  6 12  1  0
 29 36  1  0
 29 37  1  0
  9  7  1  6
  7 13  1  0
 10  8  1  6
  8 14  1  0
 37 28  1  1
  4  5  1  0
 33 30  1  6
 30 38  1  0
 34 31  1  1
 31 39  1  0
 35 32  1  6
 32 40  1  0
 41 42  1  0
 41 43  1  0
 15 19  2  0
 16 22  2  0
 12 17  1  1
 17 19  1  0
 17 20  1  0
 18 19  1  0
 18 22  1  0
 18 23  1  0
  9 10  1  0
  9 11  1  0
 10 12  1  0
 11  5  1  1
 33 34  1  0
 33 35  1  0
 34 36  1  0
 35 37  1  0
 36 42  1  1
 20 21  2  0
 21 22  1  0
M  CHG  2   2  -1  26  -1
M  END
>  <COMPND>  (47) 
    8629 

>  <AUTHOR>  (47) 
    GENERATED BY OPEN BABEL 3.1.1

>  <MASTER>  (47) 
        0    0    0    0    0    0    0    0   58    0   58    0

>  <minimizedAffinity>  (47) 
-6.79741

>  <CNNscore>  (47) 
0.7188382745

>  <CNNaffinity>  (47) 
4.3701028824

>  <CNN_VS>  (47) 
3.1413972378

>  <CNNaffinity_variance>  (47) 
0.1869361997

$$$$
48
     RDKit          3D

 43 45  0  0  0  0  0  0  0  0999 V2000
   22.0693   72.9594   -6.3004 P   0  0  2  0  0  0  0  0  0  0  0  0
   22.2308   73.9247   -7.5886 O   0  0  0  0  0  0  0  0  0  0  0  0
   23.3570   72.5626   -5.6403 O   0  0  0  0  0  0  0  0  0  0  0  0
   21.1519   71.7410   -6.8405 O   0  0  0  0  0  0  0  0  0  0  0  0
   20.4358   71.9186   -8.0503 C   0  0  0  0  0  0  0  0  0  0  0  0
   19.2347   70.0540   -7.1259 O   0  0  0  0  0  0  0  0  0  0  0  0
   18.1055   69.6587   -9.8754 O   0  0  0  0  0  0  0  0  0  0  0  0
   16.0687   70.9192   -8.5719 O   0  0  0  0  0  0  0  0  0  0  0  0
   18.4184   70.8727   -9.1946 C   0  0  1  0  0  0  0  0  0  0  0  0
   17.3873   71.1549   -8.1219 C   0  0  2  0  0  0  0  0  0  0  0  0
   19.6783   70.6373   -8.3707 C   0  0  1  0  0  0  0  0  0  0  0  0
   17.8088   70.1977   -7.0200 C   0  0  2  0  0  0  0  0  0  0  0  0
   17.3044   69.7845  -10.4087 H   0  0  0  0  0  0  0  0  0  0  0  0
   15.8477   71.5530   -9.2720 H   0  0  0  0  0  0  0  0  0  0  0  0
   16.3862   68.7349   -5.0670 O   0  0  0  0  0  0  0  0  0  0  0  0
   16.6262   72.1976   -2.0349 O   0  0  0  0  0  0  0  0  0  0  0  0
   17.4860   70.6925   -5.7115 N   0  0  0  0  0  0  0  0  0  0  0  0
   16.5070   70.4602   -3.5588 N   0  0  0  0  0  0  0  0  0  0  0  0
   16.7670   69.8779   -4.8059 C   0  0  0  0  0  0  0  0  0  0  0  0
   17.8816   71.9721   -5.3374 C   0  0  0  0  0  0  0  0  0  0  0  0
   17.6247   72.5131   -4.1447 C   0  0  0  0  0  0  0  0  0  0  0  0
   16.8781   71.7282   -3.1404 C   0  0  0  0  0  0  0  0  0  0  0  0
   16.0071   69.9113   -2.9118 H   0  0  0  0  0  0  0  0  0  0  0  0
   21.0540   73.7858   -5.3521 O   0  0  0  0  0  0  0  0  0  0  0  0
   21.3338   74.8913   -4.2064 P   0  0  2  0  0  0  0  0  0  0  0  0
   19.8606   75.1831   -3.6046 O   0  0  0  0  0  0  0  0  0  0  0  0
   22.0567   76.1135   -4.6940 O   0  0  0  0  0  0  0  0  0  0  0  0
   22.0990   74.0835   -3.0373 O   0  0  0  0  0  0  0  0  0  0  0  0
   20.6977   72.2289   -2.5754 O   0  0  0  0  0  0  0  0  0  0  0  0
   23.7460   71.4336    0.0941 O   0  0  0  0  0  0  0  0  0  0  0  0
   23.4704   69.8195   -2.2653 O   0  0  0  0  0  0  0  0  0  0  0  0
   22.8865   74.1628   -0.3450 O   0  0  0  0  0  0  0  0  0  0  0  0
   23.1760   71.9042   -1.1302 C   0  0  1  0  0  0  0  0  0  0  0  0
   22.4720   70.7304   -1.8138 C   0  0  1  0  0  0  0  0  0  0  0  0
   22.1813   73.0214   -0.8208 C   0  0  2  0  0  0  0  0  0  0  0  0
   21.6136   71.2095   -2.9922 C   0  0  1  0  0  0  0  0  0  0  0  0
   21.3446   73.3886   -2.0477 C   0  0  1  0  0  0  0  0  0  0  0  0
   24.3789   70.7244   -0.0954 H   0  0  0  0  0  0  0  0  0  0  0  0
   24.0057   69.5251   -1.5117 H   0  0  0  0  0  0  0  0  0  0  0  0
   23.4120   73.9173    0.4318 H   0  0  0  0  0  0  0  0  0  0  0  0
   19.6058   69.9265   -2.8132 O   0  0  0  0  0  0  0  0  0  0  0  0
   20.7799   70.0780   -3.5897 C   0  0  0  0  0  0  0  0  0  0  0  0
   19.0652   69.2099   -3.1820 H   0  0  0  0  0  0  0  0  0  0  0  0
 25 28  1  0
 25 24  1  0
 25 26  1  1
 25 27  2  0
  1  4  1  0
  1 24  1  0
  1  2  1  6
  1  3  2  0
  6 11  1  0
  6 12  1  0
 29 36  1  0
 29 37  1  0
  9  7  1  1
  7 13  1  0
 10  8  1  6
  8 14  1  0
 37 28  1  6
  4  5  1  0
 33 30  1  1
 30 38  1  0
 34 31  1  6
 31 39  1  0
 35 32  1  6
 32 40  1  0
 41 42  1  0
 41 43  1  0
 15 19  2  0
 16 22  2  0
 12 17  1  1
 17 19  1  0
 17 20  1  0
 18 19  1  0
 18 22  1  0
 18 23  1  0
  9 10  1  0
  9 11  1  0
 10 12  1  0
 11  5  1  1
 33 34  1  0
 33 35  1  0
 34 36  1  0
 35 37  1  0
 36 42  1  1
 20 21  2  0
 21 22  1  0
M  CHG  2   2  -1  26  -1
M  END
>  <COMPND>  (48) 
    8629 

>  <AUTHOR>  (48) 
    GENERATED BY OPEN BABEL 3.1.1

>  <MASTER>  (48) 
        0    0    0    0    0    0    0    0   58    0   58    0

>  <minimizedAffinity>  (48) 
-6.27238

>  <CNNscore>  (48) 
0.7164083719

>  <CNNaffinity>  (48) 
4.3527064323

>  <CNN_VS>  (48) 
3.1183152199

>  <CNNaffinity_variance>  (48) 
0.3867650330

$$$$
49
     RDKit          3D

 43 45  0  0  0  0  0  0  0  0999 V2000
   21.2103   72.0644   -3.1580 P   0  0  2  0  0  0  0  0  0  0  0  0
   20.6394   72.4238   -1.6875 O   0  0  0  0  0  0  0  0  0  0  0  0
   22.0274   73.1455   -3.8022 O   0  0  0  0  0  0  0  0  0  0  0  0
   19.8989   71.5913   -3.9790 O   0  0  0  0  0  0  0  0  0  0  0  0
   19.1827   70.4598   -3.5154 C   0  0  0  0  0  0  0  0  0  0  0  0
   17.4645   71.4675   -4.8592 O   0  0  0  0  0  0  0  0  0  0  0  0
   15.5271   69.7779   -3.3157 O   0  0  0  0  0  0  0  0  0  0  0  0
   15.7885   68.3977   -5.6531 O   0  0  0  0  0  0  0  0  0  0  0  0
   16.8514   69.4674   -3.7460 C   0  0  1  0  0  0  0  0  0  0  0  0
   16.8717   69.2043   -5.2372 C   0  0  2  0  0  0  0  0  0  0  0  0
   17.6900   70.7346   -3.6351 C   0  0  1  0  0  0  0  0  0  0  0  0
   16.8053   70.6113   -5.8064 C   0  0  2  0  0  0  0  0  0  0  0  0
   14.9728   68.9836   -3.3773 H   0  0  0  0  0  0  0  0  0  0  0  0
   15.8761   67.5132   -5.2650 H   0  0  0  0  0  0  0  0  0  0  0  0
   16.2004   72.5586   -7.7609 O   0  0  0  0  0  0  0  0  0  0  0  0
   19.4156   70.9356  -10.6366 O   0  0  0  0  0  0  0  0  0  0  0  0
   17.4690   70.7209   -7.0748 N   0  0  0  0  0  0  0  0  0  0  0  0
   17.8019   71.7490   -9.1911 N   0  0  0  0  0  0  0  0  0  0  0  0
   17.0888   71.7341   -7.9856 C   0  0  0  0  0  0  0  0  0  0  0  0
   18.4847   69.8303   -7.4047 C   0  0  0  0  0  0  0  0  0  0  0  0
   19.1541   69.8572   -8.5590 C   0  0  0  0  0  0  0  0  0  0  0  0
   18.8185   70.8848   -9.5657 C   0  0  0  0  0  0  0  0  0  0  0  0
   17.5540   72.4460   -9.8412 H   0  0  0  0  0  0  0  0  0  0  0  0
   22.0041   70.6781   -2.9109 O   0  0  0  0  0  0  0  0  0  0  0  0
   23.4882   70.3923   -2.3377 P   0  0  2  0  0  0  0  0  0  0  0  0
   24.4187   71.3966   -3.1997 O   0  0  0  0  0  0  0  0  0  0  0  0
   23.9061   68.9518   -2.4027 O   0  0  0  0  0  0  0  0  0  0  0  0
   23.4797   71.0198   -0.8507 O   0  0  0  0  0  0  0  0  0  0  0  0
   24.6144   70.1951    1.0595 O   0  0  0  0  0  0  0  0  0  0  0  0
   21.3037   71.8259    2.9117 O   0  0  0  0  0  0  0  0  0  0  0  0
   23.8517   73.1277    3.1588 O   0  0  0  0  0  0  0  0  0  0  0  0
   21.0147   70.4678    0.3717 O   0  0  0  0  0  0  0  0  0  0  0  0
   22.3380   71.7445    1.9273 C   0  0  1  0  0  0  0  0  0  0  0  0
   23.6882   71.8091    2.6440 C   0  0  1  0  0  0  0  0  0  0  0  0
   22.1974   70.4295    1.1630 C   0  0  2  0  0  0  0  0  0  0  0  0
   24.8389   71.4615    1.6900 C   0  0  1  0  0  0  0  0  0  0  0  0
   23.4169   70.1556    0.2809 C   0  0  1  0  0  0  0  0  0  0  0  0
   21.3870   72.6589    3.4003 H   0  0  0  0  0  0  0  0  0  0  0  0
   23.1184   73.3348    3.7593 H   0  0  0  0  0  0  0  0  0  0  0  0
   20.2499   70.6415    0.9416 H   0  0  0  0  0  0  0  0  0  0  0  0
   26.6342   72.6773    2.6940 O   0  0  0  0  0  0  0  0  0  0  0  0
   26.1773   71.3658    2.4192 C   0  0  0  0  0  0  0  0  0  0  0  0
   27.4851   72.6319    3.1583 H   0  0  0  0  0  0  0  0  0  0  0  0
 25 28  1  0
 25 24  1  0
 25 26  1  6
 25 27  2  0
  1  4  1  0
  1 24  1  0
  1  2  1  1
  1  3  2  0
  6 11  1  0
  6 12  1  0
 29 36  1  0
 29 37  1  0
  9  7  1  6
  7 13  1  0
 10  8  1  6
  8 14  1  0
 37 28  1  6
  4  5  1  0
 33 30  1  1
 30 38  1  0
 34 31  1  6
 31 39  1  0
 35 32  1  6
 32 40  1  0
 41 42  1  0
 41 43  1  0
 15 19  2  0
 16 22  2  0
 12 17  1  6
 17 19  1  0
 17 20  1  0
 18 19  1  0
 18 22  1  0
 18 23  1  0
  9 10  1  0
  9 11  1  0
 10 12  1  0
 11  5  1  6
 33 34  1  0
 33 35  1  0
 34 36  1  0
 35 37  1  0
 36 42  1  1
 20 21  2  0
 21 22  1  0
M  CHG  2   2  -1  26  -1
M  END
>  <COMPND>  (49) 
    8629 

>  <AUTHOR>  (49) 
    GENERATED BY OPEN BABEL 3.1.1

>  <MASTER>  (49) 
        0    0    0    0    0    0    0    0   58    0   58    0

>  <minimizedAffinity>  (49) 
-7.76679

>  <CNNscore>  (49) 
0.6964923143

>  <CNNaffinity>  (49) 
4.4784402847

>  <CNN_VS>  (49) 
3.1191992760

>  <CNNaffinity_variance>  (49) 
0.0617616661

$$$$
50
     RDKit          3D

 43 45  0  0  0  0  0  0  0  0999 V2000
   21.2775   72.6712   -5.3469 P   0  0  2  0  0  0  0  0  0  0  0  0
   20.2786   72.1485   -4.1866 O   0  0  0  0  0  0  0  0  0  0  0  0
   21.0932   74.1068   -5.7425 O   0  0  0  0  0  0  0  0  0  0  0  0
   21.0958   71.5865   -6.5336 O   0  0  0  0  0  0  0  0  0  0  0  0
   20.2492   71.9111   -7.6225 C   0  0  0  0  0  0  0  0  0  0  0  0
   18.9658   69.9990   -6.9366 O   0  0  0  0  0  0  0  0  0  0  0  0
   18.1472   69.7518   -9.8106 O   0  0  0  0  0  0  0  0  0  0  0  0
   15.9719   70.9394   -8.6729 O   0  0  0  0  0  0  0  0  0  0  0  0
   18.3760   70.9275   -9.0356 C   0  0  1  0  0  0  0  0  0  0  0  0
   17.2317   71.1511   -8.0690 C   0  0  2  0  0  0  0  0  0  0  0  0
   19.5394   70.6487   -8.0922 C   0  0  1  0  0  0  0  0  0  0  0  0
   17.5361   70.1361   -6.9803 C   0  0  2  0  0  0  0  0  0  0  0  0
   17.4086   69.9058  -10.4210 H   0  0  0  0  0  0  0  0  0  0  0  0
   15.8249   71.6099   -9.3582 H   0  0  0  0  0  0  0  0  0  0  0  0
   16.5883   68.3888   -4.9736 O   0  0  0  0  0  0  0  0  0  0  0  0
   15.7668   71.8732   -2.0709 O   0  0  0  0  0  0  0  0  0  0  0  0
   17.0687   70.5597   -5.6905 N   0  0  0  0  0  0  0  0  0  0  0  0
   16.1802   70.1252   -3.5299 N   0  0  0  0  0  0  0  0  0  0  0  0
   16.6126   69.6018   -4.7550 C   0  0  0  0  0  0  0  0  0  0  0  0
   17.0659   71.9114   -5.3640 C   0  0  0  0  0  0  0  0  0  0  0  0
   16.6491   72.3944   -4.1917 C   0  0  0  0  0  0  0  0  0  0  0  0
   16.1569   71.4603   -3.1587 C   0  0  0  0  0  0  0  0  0  0  0  0
   15.8577   69.4766   -2.8627 H   0  0  0  0  0  0  0  0  0  0  0  0
   22.7394   72.3193   -4.7537 O   0  0  0  0  0  0  0  0  0  0  0  0
   23.6549   73.0844   -3.6631 P   0  0  2  0  0  0  0  0  0  0  0  0
   22.6533   74.2002   -3.0552 O   0  0  0  0  0  0  0  0  0  0  0  0
   24.9366   73.6379   -4.2151 O   0  0  0  0  0  0  0  0  0  0  0  0
   23.8472   72.0156   -2.4691 O   0  0  0  0  0  0  0  0  0  0  0  0
   24.1187   69.6621   -2.5311 O   0  0  0  0  0  0  0  0  0  0  0  0
   21.7882   69.9681    0.8638 O   0  0  0  0  0  0  0  0  0  0  0  0
   24.5728   69.3100    1.1101 O   0  0  0  0  0  0  0  0  0  0  0  0
   21.2716   71.6932   -1.4026 O   0  0  0  0  0  0  0  0  0  0  0  0
   22.7892   70.3800   -0.0709 C   0  0  1  0  0  0  0  0  0  0  0  0
   23.8673   69.2959   -0.1277 C   0  0  1  0  0  0  0  0  0  0  0  0
   22.1439   70.5690   -1.4425 C   0  0  2  0  0  0  0  0  0  0  0  0
   24.8331   69.5358   -1.2960 C   0  0  1  0  0  0  0  0  0  0  0  0
   23.1936   70.7510   -2.5403 C   0  0  1  0  0  0  0  0  0  0  0  0
   22.1913   69.8468    1.7369 H   0  0  0  0  0  0  0  0  0  0  0  0
   23.9515   69.1579    1.8395 H   0  0  0  0  0  0  0  0  0  0  0  0
   20.6117   71.5657   -0.7039 H   0  0  0  0  0  0  0  0  0  0  0  0
   26.5705   68.6064   -2.6475 O   0  0  0  0  0  0  0  0  0  0  0  0
   25.8205   68.3835   -1.4676 C   0  0  0  0  0  0  0  0  0  0  0  0
   27.2034   67.8809   -2.7694 H   0  0  0  0  0  0  0  0  0  0  0  0
 25 28  1  0
 25 24  1  0
 25 26  1  1
 25 27  2  0
  1  4  1  0
  1 24  1  0
  1  2  1  1
  1  3  2  0
  6 11  1  0
  6 12  1  0
 29 36  1  0
 29 37  1  0
  9  7  1  6
  7 13  1  0
 10  8  1  6
  8 14  1  0
 37 28  1  1
  4  5  1  0
 33 30  1  1
 30 38  1  0
 34 31  1  1
 31 39  1  0
 35 32  1  1
 32 40  1  0
 41 42  1  0
 41 43  1  0
 15 19  2  0
 16 22  2  0
 12 17  1  1
 17 19  1  0
 17 20  1  0
 18 19  1  0
 18 22  1  0
 18 23  1  0
  9 10  1  0
  9 11  1  0
 10 12  1  0
 11  5  1  1
 33 34  1  0
 33 35  1  0
 34 36  1  0
 35 37  1  0
 36 42  1  6
 20 21  2  0
 21 22  1  0
M  CHG  2   2  -1  26  -1
M  END
>  <COMPND>  (50) 
    8629 

>  <AUTHOR>  (50) 
    GENERATED BY OPEN BABEL 3.1.1

>  <MASTER>  (50) 
        0    0    0    0    0    0    0    0   58    0   58    0

>  <minimizedAffinity>  (50) 
-8.54186

>  <CNNscore>  (50) 
0.6440054178

>  <CNNaffinity>  (50) 
4.3872914314

>  <CNN_VS>  (50) 
2.8254394531

>  <CNNaffinity_variance>  (50) 
0.5366244912

$$$$
51
     RDKit          3D

 43 45  0  0  0  0  0  0  0  0999 V2000
   23.1826   72.6383   -4.1913 P   0  0  2  0  0  0  0  0  0  0  0  0
   23.1991   72.5370   -5.8058 O   0  0  0  0  0  0  0  0  0  0  0  0
   24.0654   71.6515   -3.4853 O   0  0  0  0  0  0  0  0  0  0  0  0
   21.6107   72.5705   -3.8138 O   0  0  0  0  0  0  0  0  0  0  0  0
   20.9834   71.3013   -3.7562 C   0  0  0  0  0  0  0  0  0  0  0  0
   18.8665   71.9556   -4.6858 O   0  0  0  0  0  0  0  0  0  0  0  0
   17.6177   70.5466   -2.3521 O   0  0  0  0  0  0  0  0  0  0  0  0
   17.3270   68.7321   -4.3670 O   0  0  0  0  0  0  0  0  0  0  0  0
   18.7865   70.2020   -3.0940 C   0  0  1  0  0  0  0  0  0  0  0  0
   18.4038   69.6434   -4.4487 C   0  0  2  0  0  0  0  0  0  0  0  0
   19.4999   71.4939   -3.4727 C   0  0  1  0  0  0  0  0  0  0  0  0
   18.0466   70.9030   -5.2193 C   0  0  2  0  0  0  0  0  0  0  0  0
   17.1455   69.7375   -2.0988 H   0  0  0  0  0  0  0  0  0  0  0  0
   17.6039   67.9480   -3.8678 H   0  0  0  0  0  0  0  0  0  0  0  0
   16.2006   69.8827   -7.0980 O   0  0  0  0  0  0  0  0  0  0  0  0
   19.1530   70.4640  -10.5889 O   0  0  0  0  0  0  0  0  0  0  0  0
   18.3065   70.7768   -6.6257 N   0  0  0  0  0  0  0  0  0  0  0  0
   17.6721   70.1731   -8.8347 N   0  0  0  0  0  0  0  0  0  0  0  0
   17.3121   70.2511   -7.4833 C   0  0  0  0  0  0  0  0  0  0  0  0
   19.5358   71.1725   -7.1415 C   0  0  0  0  0  0  0  0  0  0  0  0
   19.8639   71.0904   -8.4326 C   0  0  0  0  0  0  0  0  0  0  0  0
   18.8815   70.5522   -9.3955 C   0  0  0  0  0  0  0  0  0  0  0  0
   16.9953   69.8096   -9.4508 H   0  0  0  0  0  0  0  0  0  0  0  0
   23.5548   74.1879   -3.9205 O   0  0  0  0  0  0  0  0  0  0  0  0
   23.6497   75.0321   -2.5453 P   0  0  2  0  0  0  0  0  0  0  0  0
   22.1109   75.4351   -2.2503 O   0  0  0  0  0  0  0  0  0  0  0  0
   24.5949   76.1971   -2.6024 O   0  0  0  0  0  0  0  0  0  0  0  0
   24.0075   73.9353   -1.4165 O   0  0  0  0  0  0  0  0  0  0  0  0
   22.3548   72.7040   -0.2463 O   0  0  0  0  0  0  0  0  0  0  0  0
   25.3878   72.5630    2.5523 O   0  0  0  0  0  0  0  0  0  0  0  0
   24.7152   70.1970    1.0698 O   0  0  0  0  0  0  0  0  0  0  0  0
   24.9561   74.9751    1.0113 O   0  0  0  0  0  0  0  0  0  0  0  0
   24.8296   72.5803    1.2357 C   0  0  1  0  0  0  0  0  0  0  0  0
   23.9057   71.3694    1.0905 C   0  0  1  0  0  0  0  0  0  0  0  0
   24.0486   73.8787    1.0417 C   0  0  2  0  0  0  0  0  0  0  0  0
   23.0675   71.4627   -0.1916 C   0  0  1  0  0  0  0  0  0  0  0  0
   23.2109   73.8482   -0.2379 C   0  0  1  0  0  0  0  0  0  0  0  0
   25.8854   71.7413    2.6818 H   0  0  0  0  0  0  0  0  0  0  0  0
   25.2398   70.1504    1.8846 H   0  0  0  0  0  0  0  0  0  0  0  0
   25.4802   74.9836    1.8268 H   0  0  0  0  0  0  0  0  0  0  0  0
   21.6322   69.9995    1.0364 O   0  0  0  0  0  0  0  0  0  0  0  0
   22.0280   70.3474   -0.2776 C   0  0  0  0  0  0  0  0  0  0  0  0
   20.9704   69.2909    0.9972 H   0  0  0  0  0  0  0  0  0  0  0  0
 25 28  1  0
 25 24  1  0
 25 26  1  1
 25 27  2  0
  1  4  1  0
  1 24  1  0
  1  2  1  6
  1  3  2  0
  6 11  1  0
  6 12  1  0
 29 36  1  0
 29 37  1  0
  9  7  1  1
  7 13  1  0
 10  8  1  1
  8 14  1  0
 37 28  1  6
  4  5  1  0
 33 30  1  1
 30 38  1  0
 34 31  1  6
 31 39  1  0
 35 32  1  6
 32 40  1  0
 41 42  1  0
 41 43  1  0
 15 19  2  0
 16 22  2  0
 12 17  1  6
 17 19  1  0
 17 20  1  0
 18 19  1  0
 18 22  1  0
 18 23  1  0
  9 10  1  0
  9 11  1  0
 10 12  1  0
 11  5  1  6
 33 34  1  0
 33 35  1  0
 34 36  1  0
 35 37  1  0
 36 42  1  1
 20 21  2  0
 21 22  1  0
M  CHG  2   2  -1  26  -1
M  END
>  <COMPND>  (51) 
    8629 

>  <AUTHOR>  (51) 
    GENERATED BY OPEN BABEL 3.1.1

>  <MASTER>  (51) 
        0    0    0    0    0    0    0    0   58    0   58    0

>  <minimizedAffinity>  (51) 
-7.33357

>  <CNNscore>  (51) 
0.6437357068

>  <CNNaffinity>  (51) 
4.4252266884

>  <CNN_VS>  (51) 
2.8486764431

>  <CNNaffinity_variance>  (51) 
0.0700205788

$$$$
52
     RDKit          3D

 43 45  0  0  0  0  0  0  0  0999 V2000
   21.9942   73.1296   -5.3190 P   0  0  2  0  0  0  0  0  0  0  0  0
   21.3635   74.6178   -5.3895 O   0  0  0  0  0  0  0  0  0  0  0  0
   23.3087   72.9644   -6.0235 O   0  0  0  0  0  0  0  0  0  0  0  0
   20.7950   72.1745   -5.8362 O   0  0  0  0  0  0  0  0  0  0  0  0
   20.3155   72.3471   -7.1584 C   0  0  0  0  0  0  0  0  0  0  0  0
   19.3043   70.2359   -6.6160 O   0  0  0  0  0  0  0  0  0  0  0  0
   18.8165   69.9260   -9.5583 O   0  0  0  0  0  0  0  0  0  0  0  0
   16.3767   70.7164   -8.6313 O   0  0  0  0  0  0  0  0  0  0  0  0
   18.7735   71.1048   -8.7559 C   0  0  1  0  0  0  0  0  0  0  0  0
   17.5209   71.1163   -7.9048 C   0  0  2  0  0  0  0  0  0  0  0  0
   19.8712   70.9972   -7.7048 C   0  0  1  0  0  0  0  0  0  0  0  0
   17.8823   70.1393   -6.7990 C   0  0  2  0  0  0  0  0  0  0  0  0
   18.1245   69.9718  -10.2372 H   0  0  0  0  0  0  0  0  0  0  0  0
   16.1878   71.3698   -9.3227 H   0  0  0  0  0  0  0  0  0  0  0  0
   16.4322   68.2774   -5.2471 O   0  0  0  0  0  0  0  0  0  0  0  0
   15.4216   71.4467   -2.0572 O   0  0  0  0  0  0  0  0  0  0  0  0
   17.2303   70.4507   -5.5583 N   0  0  0  0  0  0  0  0  0  0  0  0
   15.9303   69.8569   -3.6599 N   0  0  0  0  0  0  0  0  0  0  0  0
   16.5273   69.4431   -4.8576 C   0  0  0  0  0  0  0  0  0  0  0  0
   17.2921   71.7430   -5.0483 C   0  0  0  0  0  0  0  0  0  0  0  0
   16.7162   72.1217   -3.9054 C   0  0  0  0  0  0  0  0  0  0  0  0
   15.9624   71.1296   -3.1121 C   0  0  0  0  0  0  0  0  0  0  0  0
   15.4348   69.1720   -3.1548 H   0  0  0  0  0  0  0  0  0  0  0  0
   22.0393   72.8288   -3.7314 O   0  0  0  0  0  0  0  0  0  0  0  0
   22.5005   71.5134   -2.9129 P   0  0  2  0  0  0  0  0  0  0  0  0
   24.0378   71.3095   -3.3739 O   0  0  0  0  0  0  0  0  0  0  0  0
   21.6242   70.3141   -3.1314 O   0  0  0  0  0  0  0  0  0  0  0  0
   22.5966   72.0007   -1.3772 O   0  0  0  0  0  0  0  0  0  0  0  0
   22.8795   69.8441   -0.4362 O   0  0  0  0  0  0  0  0  0  0  0  0
   24.0803   72.1320    2.7847 O   0  0  0  0  0  0  0  0  0  0  0  0
   26.0379   70.6689    1.2764 O   0  0  0  0  0  0  0  0  0  0  0  0
   21.8651   73.0057    1.1387 O   0  0  0  0  0  0  0  0  0  0  0  0
   23.9370   71.8055    1.3997 C   0  0  1  0  0  0  0  0  0  0  0  0
   24.6333   70.4666    1.1482 C   0  0  1  0  0  0  0  0  0  0  0  0
   22.4506   71.7105    1.0605 C   0  0  2  0  0  0  0  0  0  0  0  0
   24.2972   69.9207   -0.2462 C   0  0  1  0  0  0  0  0  0  0  0  0
   22.2255   71.1100   -0.3283 C   0  0  1  0  0  0  0  0  0  0  0  0
   25.0218   72.1943    3.0066 H   0  0  0  0  0  0  0  0  0  0  0  0
   26.2367   71.0142    2.1610 H   0  0  0  0  0  0  0  0  0  0  0  0
   22.0142   73.3750    2.0226 H   0  0  0  0  0  0  0  0  0  0  0  0
   24.2851   67.6553    0.5133 O   0  0  0  0  0  0  0  0  0  0  0  0
   24.8524   68.5141   -0.4588 C   0  0  0  0  0  0  0  0  0  0  0  0
   24.6292   66.7564    0.3900 H   0  0  0  0  0  0  0  0  0  0  0  0
 25 28  1  0
 25 24  1  0
 25 26  1  6
 25 27  2  0
  1  4  1  0
  1 24  1  0
  1  2  1  1
  1  3  2  0
  6 11  1  0
  6 12  1  0
 29 36  1  0
 29 37  1  0
  9  7  1  6
  7 13  1  0
 10  8  1  6
  8 14  1  0
 37 28  1  6
  4  5  1  0
 33 30  1  1
 30 38  1  0
 34 31  1  6
 31 39  1  0
 35 32  1  6
 32 40  1  0
 41 42  1  0
 41 43  1  0
 15 19  2  0
 16 22  2  0
 12 17  1  1
 17 19  1  0
 17 20  1  0
 18 19  1  0
 18 22  1  0
 18 23  1  0
  9 10  1  0
  9 11  1  0
 10 12  1  0
 11  5  1  1
 33 34  1  0
 33 35  1  0
 34 36  1  0
 35 37  1  0
 36 42  1  1
 20 21  2  0
 21 22  1  0
M  CHG  2   2  -1  26  -1
M  END
>  <COMPND>  (52) 
    8629 

>  <AUTHOR>  (52) 
    GENERATED BY OPEN BABEL 3.1.1

>  <MASTER>  (52) 
        0    0    0    0    0    0    0    0   58    0   58    0

>  <minimizedAffinity>  (52) 
-7.51369

>  <CNNscore>  (52) 
0.6084060669

>  <CNNaffinity>  (52) 
4.3342609406

>  <CNN_VS>  (52) 
2.6369905472

>  <CNNaffinity_variance>  (52) 
0.2172222584

$$$$
53
     RDKit          3D

 43 45  0  0  0  0  0  0  0  0999 V2000
   20.9652   72.7598   -4.2383 P   0  0  2  0  0  0  0  0  0  0  0  0
   21.2740   71.4861   -3.2897 O   0  0  0  0  0  0  0  0  0  0  0  0
   19.5657   73.2932   -4.1474 O   0  0  0  0  0  0  0  0  0  0  0  0
   21.4379   72.2737   -5.7074 O   0  0  0  0  0  0  0  0  0  0  0  0
   20.5076   72.3421   -6.7740 C   0  0  0  0  0  0  0  0  0  0  0  0
   19.3145   70.3505   -6.1541 O   0  0  0  0  0  0  0  0  0  0  0  0
   19.4496   69.5926   -9.0520 O   0  0  0  0  0  0  0  0  0  0  0  0
   16.9049   70.5409   -8.8037 O   0  0  0  0  0  0  0  0  0  0  0  0
   19.2880   70.8820   -8.4633 C   0  0  1  0  0  0  0  0  0  0  0  0
   17.8849   71.0376   -7.9150 C   0  0  2  0  0  0  0  0  0  0  0  0
   20.1319   70.9281   -7.1956 C   0  0  1  0  0  0  0  0  0  0  0  0
   17.9610   70.2405   -6.6239 C   0  0  2  0  0  0  0  0  0  0  0  0
   18.9202   69.5392   -9.8637 H   0  0  0  0  0  0  0  0  0  0  0  0
   16.8954   71.0810   -9.6093 H   0  0  0  0  0  0  0  0  0  0  0  0
   16.9892   68.7253   -4.4473 O   0  0  0  0  0  0  0  0  0  0  0  0
   14.5637   72.2875   -2.8137 O   0  0  0  0  0  0  0  0  0  0  0  0
   17.0744   70.7470   -5.6145 N   0  0  0  0  0  0  0  0  0  0  0  0
   15.7825   70.5003   -3.6356 N   0  0  0  0  0  0  0  0  0  0  0  0
   16.6447   69.9031   -4.5640 C   0  0  0  0  0  0  0  0  0  0  0  0
   16.6405   72.0670   -5.6723 C   0  0  0  0  0  0  0  0  0  0  0  0
   15.8172   72.6208   -4.7798 C   0  0  0  0  0  0  0  0  0  0  0  0
   15.3218   71.8073   -3.6507 C   0  0  0  0  0  0  0  0  0  0  0  0
   15.4698   69.9314   -2.8951 H   0  0  0  0  0  0  0  0  0  0  0  0
   22.1157   73.8142   -3.8169 O   0  0  0  0  0  0  0  0  0  0  0  0
   23.6948   73.6078   -3.5398 P   0  0  2  0  0  0  0  0  0  0  0  0
   24.2769   75.1171   -3.5683 O   0  0  0  0  0  0  0  0  0  0  0  0
   24.3692   72.6660   -4.4948 O   0  0  0  0  0  0  0  0  0  0  0  0
   23.7833   73.1660   -1.9900 O   0  0  0  0  0  0  0  0  0  0  0  0
   21.9968   73.0848   -0.4349 O   0  0  0  0  0  0  0  0  0  0  0  0
   25.0814   74.0046    2.1515 O   0  0  0  0  0  0  0  0  0  0  0  0
   23.9452   71.3671    2.1808 O   0  0  0  0  0  0  0  0  0  0  0  0
   25.0044   75.1960   -0.4856 O   0  0  0  0  0  0  0  0  0  0  0  0
   24.4765   73.3857    1.0129 C   0  0  1  0  0  0  0  0  0  0  0  0
   23.3520   72.4721    1.5045 C   0  0  1  0  0  0  0  0  0  0  0  0
   23.9235   74.4702    0.0902 C   0  0  2  0  0  0  0  0  0  0  0  0
   22.4862   71.9814    0.3363 C   0  0  1  0  0  0  0  0  0  0  0  0
   23.0370   73.8796   -1.0077 C   0  0  1  0  0  0  0  0  0  0  0  0
   25.4350   73.3214    2.7412 H   0  0  0  0  0  0  0  0  0  0  0  0
   24.4895   71.6907    2.9158 H   0  0  0  0  0  0  0  0  0  0  0  0
   25.5579   75.5650    0.2196 H   0  0  0  0  0  0  0  0  0  0  0  0
   21.6449   69.8460    1.0006 O   0  0  0  0  0  0  0  0  0  0  0  0
   21.2669   71.1981    0.8178 C   0  0  0  0  0  0  0  0  0  0  0  0
   20.8788   69.3354    1.3073 H   0  0  0  0  0  0  0  0  0  0  0  0
 25 28  1  0
 25 24  1  0
 25 26  1  1
 25 27  2  0
  1  4  1  0
  1 24  1  0
  1  2  1  1
  1  3  2  0
  6 11  1  0
  6 12  1  0
 29 36  1  0
 29 37  1  0
  9  7  1  1
  7 13  1  0
 10  8  1  6
  8 14  1  0
 37 28  1  6
  4  5  1  0
 33 30  1  1
 30 38  1  0
 34 31  1  6
 31 39  1  0
 35 32  1  6
 32 40  1  0
 41 42  1  0
 41 43  1  0
 15 19  2  0
 16 22  2  0
 12 17  1  1
 17 19  1  0
 17 20  1  0
 18 19  1  0
 18 22  1  0
 18 23  1  0
  9 10  1  0
  9 11  1  0
 10 12  1  0
 11  5  1  1
 33 34  1  0
 33 35  1  0
 34 36  1  0
 35 37  1  0
 36 42  1  1
 20 21  2  0
 21 22  1  0
M  CHG  2   2  -1  26  -1
M  END
>  <COMPND>  (53) 
    8629 

>  <AUTHOR>  (53) 
    GENERATED BY OPEN BABEL 3.1.1

>  <MASTER>  (53) 
        0    0    0    0    0    0    0    0   58    0   58    0

>  <minimizedAffinity>  (53) 
-6.68442

>  <CNNscore>  (53) 
0.5483278632

>  <CNNaffinity>  (53) 
4.1750664711

>  <CNN_VS>  (53) 
2.2893052101

>  <CNNaffinity_variance>  (53) 
0.2069469988

$$$$
54
     RDKit          3D

 43 45  0  0  0  0  0  0  0  0999 V2000
   20.8144   74.8068   -2.3651 P   0  0  2  0  0  0  0  0  0  0  0  0
   19.5798   75.7908   -2.7184 O   0  0  0  0  0  0  0  0  0  0  0  0
   22.1587   75.4712   -2.3101 O   0  0  0  0  0  0  0  0  0  0  0  0
   20.6694   73.6020   -3.4352 O   0  0  0  0  0  0  0  0  0  0  0  0
   19.5159   73.5630   -4.2572 C   0  0  0  0  0  0  0  0  0  0  0  0
   17.8215   71.9794   -4.8858 O   0  0  0  0  0  0  0  0  0  0  0  0
   18.4635   70.5586   -2.3246 O   0  0  0  0  0  0  0  0  0  0  0  0
   19.7841   69.0612   -4.1822 O   0  0  0  0  0  0  0  0  0  0  0  0
   19.3371   71.2478   -3.2175 C   0  0  1  0  0  0  0  0  0  0  0  0
   19.5632   70.4269   -4.4700 C   0  0  2  0  0  0  0  0  0  0  0  0
   18.5911   72.4596   -3.7618 C   0  0  1  0  0  0  0  0  0  0  0  0
   18.2732   70.6614   -5.2375 C   0  0  2  0  0  0  0  0  0  0  0  0
   18.9181   69.7807   -1.9639 H   0  0  0  0  0  0  0  0  0  0  0  0
   20.6162   68.9642   -3.6934 H   0  0  0  0  0  0  0  0  0  0  0  0
   16.2753   69.8928   -7.0802 O   0  0  0  0  0  0  0  0  0  0  0  0
   19.1128   70.4504  -10.6689 O   0  0  0  0  0  0  0  0  0  0  0  0
   18.4624   70.5973   -6.6593 N   0  0  0  0  0  0  0  0  0  0  0  0
   17.6897   70.1712   -8.8656 N   0  0  0  0  0  0  0  0  0  0  0  0
   17.3947   70.1981   -7.4966 C   0  0  0  0  0  0  0  0  0  0  0  0
   19.6958   70.9284   -7.2098 C   0  0  0  0  0  0  0  0  0  0  0  0
   19.9613   70.8963   -8.5174 C   0  0  0  0  0  0  0  0  0  0  0  0
   18.8999   70.4900   -9.4610 C   0  0  0  0  0  0  0  0  0  0  0  0
   16.9612   69.8957   -9.4681 H   0  0  0  0  0  0  0  0  0  0  0  0
   20.3463   74.1198   -0.9787 O   0  0  0  0  0  0  0  0  0  0  0  0
   21.2005   73.4092    0.1953 P   0  0  2  0  0  0  0  0  0  0  0  0
   20.0620   72.7364    1.1273 O   0  0  0  0  0  0  0  0  0  0  0  0
   22.1314   74.3339    0.9250 O   0  0  0  0  0  0  0  0  0  0  0  0
   21.9268   72.1613   -0.5260 O   0  0  0  0  0  0  0  0  0  0  0  0
   24.1873   72.1746    0.1856 O   0  0  0  0  0  0  0  0  0  0  0  0
   24.3376   68.9825   -2.4294 O   0  0  0  0  0  0  0  0  0  0  0  0
   24.4627   68.5049    0.3998 O   0  0  0  0  0  0  0  0  0  0  0  0
   22.7308   71.3025   -3.0737 O   0  0  0  0  0  0  0  0  0  0  0  0
   23.7415   69.8380   -1.4505 C   0  0  1  0  0  0  0  0  0  0  0  0
   24.6039   69.7954   -0.1875 C   0  0  1  0  0  0  0  0  0  0  0  0
   23.6713   71.2592   -2.0060 C   0  0  2  0  0  0  0  0  0  0  0  0
   24.1824   70.8846    0.8081 C   0  0  1  0  0  0  0  0  0  0  0  0
   23.2912   72.2707   -0.9232 C   0  0  1  0  0  0  0  0  0  0  0  0
   24.3847   68.0784   -2.0831 H   0  0  0  0  0  0  0  0  0  0  0  0
   24.7316   67.8263   -0.2393 H   0  0  0  0  0  0  0  0  0  0  0  0
   22.9827   70.6580   -3.7527 H   0  0  0  0  0  0  0  0  0  0  0  0
   24.8702   69.8605    2.8543 O   0  0  0  0  0  0  0  0  0  0  0  0
   25.1283   70.9629    2.0044 C   0  0  0  0  0  0  0  0  0  0  0  0
   25.4652   69.8970    3.6201 H   0  0  0  0  0  0  0  0  0  0  0  0
 25 28  1  0
 25 24  1  0
 25 26  1  1
 25 27  2  0
  1  4  1  0
  1 24  1  0
  1  2  1  6
  1  3  2  0
  6 11  1  0
  6 12  1  0
 29 36  1  0
 29 37  1  0
  9  7  1  1
  7 13  1  0
 10  8  1  1
  8 14  1  0
 37 28  1  1
  4  5  1  0
 33 30  1  6
 30 38  1  0
 34 31  1  1
 31 39  1  0
 35 32  1  6
 32 40  1  0
 41 42  1  0
 41 43  1  0
 15 19  2  0
 16 22  2  0
 12 17  1  6
 17 19  1  0
 17 20  1  0
 18 19  1  0
 18 22  1  0
 18 23  1  0
  9 10  1  0
  9 11  1  0
 10 12  1  0
 11  5  1  6
 33 34  1  0
 33 35  1  0
 34 36  1  0
 35 37  1  0
 36 42  1  1
 20 21  2  0
 21 22  1  0
M  CHG  2   2  -1  26  -1
M  END
>  <COMPND>  (54) 
    8629 

>  <AUTHOR>  (54) 
    GENERATED BY OPEN BABEL 3.1.1

>  <MASTER>  (54) 
        0    0    0    0    0    0    0    0   58    0   58    0

>  <minimizedAffinity>  (54) 
-6.88564

>  <CNNscore>  (54) 
0.5402655602

>  <CNNaffinity>  (54) 
4.2956433296

>  <CNN_VS>  (54) 
2.3207881451

>  <CNNaffinity_variance>  (54) 
0.1335196197

$$$$
55
     RDKit          3D

 43 45  0  0  0  0  0  0  0  0999 V2000
   19.9470   71.8038   -1.7425 P   0  0  2  0  0  0  0  0  0  0  0  0
   19.3875   73.0488   -0.8741 O   0  0  0  0  0  0  0  0  0  0  0  0
   19.2139   70.5102   -1.5410 O   0  0  0  0  0  0  0  0  0  0  0  0
   21.5291   71.7747   -1.4049 O   0  0  0  0  0  0  0  0  0  0  0  0
   22.0815   70.5913   -0.8550 C   0  0  0  0  0  0  0  0  0  0  0  0
   23.8571   72.0931   -0.2503 O   0  0  0  0  0  0  0  0  0  0  0  0
   25.5978   69.6593   -0.0577 O   0  0  0  0  0  0  0  0  0  0  0  0
   25.0054   70.1745    2.5538 O   0  0  0  0  0  0  0  0  0  0  0  0
   24.2205   69.8126    0.2813 C   0  0  1  0  0  0  0  0  0  0  0  0
   24.0803   70.5936    1.5713 C   0  0  2  0  0  0  0  0  0  0  0  0
   23.5899   70.7583   -0.7332 C   0  0  1  0  0  0  0  0  0  0  0  0
   24.3275   72.0184    1.1054 C   0  0  2  0  0  0  0  0  0  0  0  0
   26.0218   69.0590    0.5762 H   0  0  0  0  0  0  0  0  0  0  0  0
   24.8064   69.2626    2.8175 H   0  0  0  0  0  0  0  0  0  0  0  0
   25.3944   73.2999    3.3852 O   0  0  0  0  0  0  0  0  0  0  0  0
   21.5234   75.7057    4.0702 O   0  0  0  0  0  0  0  0  0  0  0  0
   23.6205   72.9843    1.8982 N   0  0  0  0  0  0  0  0  0  0  0  0
   23.4661   74.4969    3.7243 N   0  0  0  0  0  0  0  0  0  0  0  0
   24.2465   73.5680    3.0242 C   0  0  0  0  0  0  0  0  0  0  0  0
   22.3213   73.3438    1.5566 C   0  0  0  0  0  0  0  0  0  0  0  0
   21.5902   74.2303    2.2354 C   0  0  0  0  0  0  0  0  0  0  0  0
   22.1702   74.8864    3.4250 C   0  0  0  0  0  0  0  0  0  0  0  0
   23.8814   74.9162    4.5126 H   0  0  0  0  0  0  0  0  0  0  0  0
   19.9088   72.3700   -3.2561 O   0  0  0  0  0  0  0  0  0  0  0  0
   20.7654   71.9608   -4.5645 P   0  0  2  0  0  0  0  0  0  0  0  0
   21.2613   70.4580   -4.2282 O   0  0  0  0  0  0  0  0  0  0  0  0
   21.8725   72.9179   -4.8993 O   0  0  0  0  0  0  0  0  0  0  0  0
   19.6656   71.7756   -5.7312 O   0  0  0  0  0  0  0  0  0  0  0  0
   18.6779   69.6934   -6.2839 O   0  0  0  0  0  0  0  0  0  0  0  0
   18.3119   71.5872   -9.9350 O   0  0  0  0  0  0  0  0  0  0  0  0
   15.9775   71.1652   -8.3163 O   0  0  0  0  0  0  0  0  0  0  0  0
   20.6915   71.9834   -8.3349 O   0  0  0  0  0  0  0  0  0  0  0  0
   18.3376   71.5033   -8.5075 C   0  0  1  0  0  0  0  0  0  0  0  0
   17.2335   70.5415   -8.0638 C   0  0  1  0  0  0  0  0  0  0  0  0
   19.7065   70.9926   -8.0620 C   0  0  2  0  0  0  0  0  0  0  0  0
   17.3675   70.1932   -6.5752 C   0  0  1  0  0  0  0  0  0  0  0  0
   19.7176   70.6290   -6.5762 C   0  0  1  0  0  0  0  0  0  0  0  0
   17.4455   71.9113  -10.2244 H   0  0  0  0  0  0  0  0  0  0  0  0
   15.9058   71.3804   -9.2595 H   0  0  0  0  0  0  0  0  0  0  0  0
   20.6746   72.2047   -9.2787 H   0  0  0  0  0  0  0  0  0  0  0  0
   16.2500   69.1508   -4.7386 O   0  0  0  0  0  0  0  0  0  0  0  0
   16.3738   69.1151   -6.1484 C   0  0  0  0  0  0  0  0  0  0  0  0
   15.6203   68.4700   -4.4525 H   0  0  0  0  0  0  0  0  0  0  0  0
 25 28  1  0
 25 24  1  0
 25 26  1  1
 25 27  2  0
  1  4  1  0
  1 24  1  0
  1  2  1  1
  1  3  2  0
  6 11  1  0
  6 12  1  0
 29 36  1  0
 29 37  1  0
  9  7  1  6
  7 13  1  0
 10  8  1  1
  8 14  1  0
 37 28  1  1
  4  5  1  0
 33 30  1  6
 30 38  1  0
 34 31  1  1
 31 39  1  0
 35 32  1  1
 32 40  1  0
 41 42  1  0
 41 43  1  0
 15 19  2  0
 16 22  2  0
 12 17  1  1
 17 19  1  0
 17 20  1  0
 18 19  1  0
 18 22  1  0
 18 23  1  0
  9 10  1  0
  9 11  1  0
 10 12  1  0
 11  5  1  1
 33 34  1  0
 33 35  1  0
 34 36  1  0
 35 37  1  0
 36 42  1  6
 20 21  2  0
 21 22  1  0
M  CHG  2   2  -1  26  -1
M  END
>  <COMPND>  (55) 
    8629 

>  <AUTHOR>  (55) 
    GENERATED BY OPEN BABEL 3.1.1

>  <MASTER>  (55) 
        0    0    0    0    0    0    0    0   58    0   58    0

>  <minimizedAffinity>  (55) 
-6.69389

>  <CNNscore>  (55) 
0.5088905096

>  <CNNaffinity>  (55) 
4.1798334122

>  <CNN_VS>  (55) 
2.1270775795

>  <CNNaffinity_variance>  (55) 
0.0096990801

$$$$
56
     RDKit          3D

 43 45  0  0  0  0  0  0  0  0999 V2000
   22.8201   72.4062   -3.6239 P   0  0  2  0  0  0  0  0  0  0  0  0
   22.2765   70.8828   -3.6576 O   0  0  0  0  0  0  0  0  0  0  0  0
   24.2433   72.5812   -4.0660 O   0  0  0  0  0  0  0  0  0  0  0  0
   22.4846   72.9052   -2.1218 O   0  0  0  0  0  0  0  0  0  0  0  0
   23.3926   72.5817   -1.0832 C   0  0  0  0  0  0  0  0  0  0  0  0
   22.6607   70.3603   -0.5323 O   0  0  0  0  0  0  0  0  0  0  0  0
   22.4295   71.3388    2.2926 O   0  0  0  0  0  0  0  0  0  0  0  0
   24.7947   69.9818    2.3253 O   0  0  0  0  0  0  0  0  0  0  0  0
   23.3914   71.6795    1.2957 C   0  0  1  0  0  0  0  0  0  0  0  0
   24.3705   70.5410    1.0988 C   0  0  2  0  0  0  0  0  0  0  0  0
   22.6779   71.7217   -0.0499 C   0  0  1  0  0  0  0  0  0  0  0  0
   23.5576   69.5674    0.2625 C   0  0  2  0  0  0  0  0  0  0  0  0
   22.8617   71.3060    3.1610 H   0  0  0  0  0  0  0  0  0  0  0  0
   25.3074   70.6395    2.8205 H   0  0  0  0  0  0  0  0  0  0  0  0
   24.2333   66.8638    0.7229 O   0  0  0  0  0  0  0  0  0  0  0  0
   26.7164   66.6339   -3.1530 O   0  0  0  0  0  0  0  0  0  0  0  0
   24.3789   68.7766   -0.6102 N   0  0  0  0  0  0  0  0  0  0  0  0
   25.4690   66.7515   -1.2074 N   0  0  0  0  0  0  0  0  0  0  0  0
   24.6590   67.4285   -0.2868 C   0  0  0  0  0  0  0  0  0  0  0  0
   24.8968   69.3385   -1.7720 C   0  0  0  0  0  0  0  0  0  0  0  0
   25.6687   68.6798   -2.6388 C   0  0  0  0  0  0  0  0  0  0  0  0
   26.0089   67.2667   -2.3753 C   0  0  0  0  0  0  0  0  0  0  0  0
   25.6778   65.8111   -1.0028 H   0  0  0  0  0  0  0  0  0  0  0  0
   21.7345   73.1994   -4.5212 O   0  0  0  0  0  0  0  0  0  0  0  0
   21.5782   73.3350   -6.1244 P   0  0  2  0  0  0  0  0  0  0  0  0
   22.7480   72.3735   -6.6940 O   0  0  0  0  0  0  0  0  0  0  0  0
   21.6357   74.7471   -6.6310 O   0  0  0  0  0  0  0  0  0  0  0  0
   20.2069   72.5563   -6.4684 O   0  0  0  0  0  0  0  0  0  0  0  0
   19.2492   70.4332   -6.0304 O   0  0  0  0  0  0  0  0  0  0  0  0
   18.5966   70.6239  -10.1033 O   0  0  0  0  0  0  0  0  0  0  0  0
   16.3828   70.9165   -8.2973 O   0  0  0  0  0  0  0  0  0  0  0  0
   21.0595   71.6556   -8.9858 O   0  0  0  0  0  0  0  0  0  0  0  0
   18.7149   71.1454   -8.7769 C   0  0  1  0  0  0  0  0  0  0  0  0
   17.6704   70.4569   -7.8960 C   0  0  1  0  0  0  0  0  0  0  0  0
   20.1240   70.8692   -8.2558 C   0  0  2  0  0  0  0  0  0  0  0  0
   17.9086   70.7640   -6.4114 C   0  0  1  0  0  0  0  0  0  0  0  0
   20.2399   71.1613   -6.7587 C   0  0  1  0  0  0  0  0  0  0  0  0
   17.7043   70.7963  -10.4403 H   0  0  0  0  0  0  0  0  0  0  0  0
   16.2452   70.7169   -9.2367 H   0  0  0  0  0  0  0  0  0  0  0  0
   20.9764   71.4613   -9.9319 H   0  0  0  0  0  0  0  0  0  0  0  0
   16.2215   69.0752   -6.3088 O   0  0  0  0  0  0  0  0  0  0  0  0
   16.9767   69.9628   -5.5049 C   0  0  0  0  0  0  0  0  0  0  0  0
   15.6240   68.5584   -5.7452 H   0  0  0  0  0  0  0  0  0  0  0  0
 25 28  1  0
 25 24  1  0
 25 26  1  6
 25 27  2  0
  1  4  1  0
  1 24  1  0
  1  2  1  1
  1  3  2  0
  6 11  1  0
  6 12  1  0
 29 36  1  0
 29 37  1  0
  9  7  1  1
  7 13  1  0
 10  8  1  1
  8 14  1  0
 37 28  1  6
  4  5  1  0
 33 30  1  6
 30 38  1  0
 34 31  1  6
 31 39  1  0
 35 32  1  6
 32 40  1  0
 41 42  1  0
 41 43  1  0
 15 19  2  0
 16 22  2  0
 12 17  1  6
 17 19  1  0
 17 20  1  0
 18 19  1  0
 18 22  1  0
 18 23  1  0
  9 10  1  0
  9 11  1  0
 10 12  1  0
 11  5  1  6
 33 34  1  0
 33 35  1  0
 34 36  1  0
 35 37  1  0
 36 42  1  1
 20 21  2  0
 21 22  1  0
M  CHG  2   2  -1  26  -1
M  END
>  <COMPND>  (56) 
    8629 

>  <AUTHOR>  (56) 
    GENERATED BY OPEN BABEL 3.1.1

>  <MASTER>  (56) 
        0    0    0    0    0    0    0    0   58    0   58    0

>  <minimizedAffinity>  (56) 
-9.01019

>  <CNNscore>  (56) 
0.4624500573

>  <CNNaffinity>  (56) 
4.3240728378

>  <CNN_VS>  (56) 
1.9996677637

>  <CNNaffinity_variance>  (56) 
0.2917074561

$$$$
57
     RDKit          3D

 43 45  0  0  0  0  0  0  0  0999 V2000
   24.5171   71.1597    2.4192 P   0  0  2  0  0  0  0  0  0  0  0  0
   23.3193   71.8086    3.2920 O   0  0  0  0  0  0  0  0  0  0  0  0
   24.9341   69.7815    2.8413 O   0  0  0  0  0  0  0  0  0  0  0  0
   25.6777   72.2865    2.4542 O   0  0  0  0  0  0  0  0  0  0  0  0
   25.3591   73.5988    2.0250 C   0  0  0  0  0  0  0  0  0  0  0  0
   26.0051   73.9263    4.3161 O   0  0  0  0  0  0  0  0  0  0  0  0
   25.1537   76.7783    3.9530 O   0  0  0  0  0  0  0  0  0  0  0  0
   27.8673   76.9355    3.7334 O   0  0  0  0  0  0  0  0  0  0  0  0
   25.7854   75.9000    3.0230 C   0  0  1  0  0  0  0  0  0  0  0  0
   27.2453   75.7165    3.3814 C   0  0  2  0  0  0  0  0  0  0  0  0
   25.2252   74.5005    3.2445 C   0  0  1  0  0  0  0  0  0  0  0  0
   27.1641   74.7440    4.5458 C   0  0  2  0  0  0  0  0  0  0  0  0
   25.4952   77.6785    3.8305 H   0  0  0  0  0  0  0  0  0  0  0  0
   27.8948   77.5198    2.9597 H   0  0  0  0  0  0  0  0  0  0  0  0
   29.5333   75.4217    5.9263 O   0  0  0  0  0  0  0  0  0  0  0  0
   31.5394   71.4227    4.8196 O   0  0  0  0  0  0  0  0  0  0  0  0
   28.3211   73.8985    4.6350 N   0  0  0  0  0  0  0  0  0  0  0  0
   30.5302   73.4299    5.3743 N   0  0  0  0  0  0  0  0  0  0  0  0
   29.4601   74.3335    5.3517 C   0  0  0  0  0  0  0  0  0  0  0  0
   28.3186   72.6531    4.0162 C   0  0  0  0  0  0  0  0  0  0  0  0
   29.3476   71.8037    4.0460 C   0  0  0  0  0  0  0  0  0  0  0  0
   30.5762   72.1816    4.7738 C   0  0  0  0  0  0  0  0  0  0  0  0
   31.3347   73.7116    5.8674 H   0  0  0  0  0  0  0  0  0  0  0  0
   23.9591   71.2597    0.9054 O   0  0  0  0  0  0  0  0  0  0  0  0
   22.6839   70.5644    0.1960 P   0  0  2  0  0  0  0  0  0  0  0  0
   22.0822   71.7483   -0.7281 O   0  0  0  0  0  0  0  0  0  0  0  0
   21.6967   69.9653    1.1555 O   0  0  0  0  0  0  0  0  0  0  0  0
   23.3210   69.5141   -0.8508 O   0  0  0  0  0  0  0  0  0  0  0  0
   24.6194   67.8678    0.2539 O   0  0  0  0  0  0  0  0  0  0  0  0
   25.6357   66.9977   -3.6527 O   0  0  0  0  0  0  0  0  0  0  0  0
   23.9092   65.2159   -2.2062 O   0  0  0  0  0  0  0  0  0  0  0  0
   25.2988   69.7518   -2.8274 O   0  0  0  0  0  0  0  0  0  0  0  0
   24.7695   67.4138   -2.5935 C   0  0  1  0  0  0  0  0  0  0  0  0
   24.6520   66.2644   -1.5905 C   0  0  1  0  0  0  0  0  0  0  0  0
   25.3596   68.6535   -1.9239 C   0  0  2  0  0  0  0  0  0  0  0  0
   23.9595   66.7236   -0.3003 C   0  0  1  0  0  0  0  0  0  0  0  0
   24.6289   68.9952   -0.6241 C   0  0  1  0  0  0  0  0  0  0  0  0
   25.2665   66.2112   -4.0824 H   0  0  0  0  0  0  0  0  0  0  0  0
   24.3569   64.9355   -3.0199 H   0  0  0  0  0  0  0  0  0  0  0  0
   25.7651   69.5231   -3.6460 H   0  0  0  0  0  0  0  0  0  0  0  0
   24.6705   66.1302    1.9023 O   0  0  0  0  0  0  0  0  0  0  0  0
   23.9724   65.6377    0.7734 C   0  0  0  0  0  0  0  0  0  0  0  0
   24.6865   65.4498    2.5940 H   0  0  0  0  0  0  0  0  0  0  0  0
 25 28  1  0
 25 24  1  0
 25 26  1  6
 25 27  2  0
  1  4  1  0
  1 24  1  0
  1  2  1  1
  1  3  2  0
  6 11  1  0
  6 12  1  0
 29 36  1  0
 29 37  1  0
  9  7  1  1
  7 13  1  0
 10  8  1  1
  8 14  1  0
 37 28  1  6
  4  5  1  0
 33 30  1  6
 30 38  1  0
 34 31  1  6
 31 39  1  0
 35 32  1  6
 32 40  1  0
 41 42  1  0
 41 43  1  0
 15 19  2  0
 16 22  2  0
 12 17  1  6
 17 19  1  0
 17 20  1  0
 18 19  1  0
 18 22  1  0
 18 23  1  0
  9 10  1  0
  9 11  1  0
 10 12  1  0
 11  5  1  6
 33 34  1  0
 33 35  1  0
 34 36  1  0
 35 37  1  0
 36 42  1  1
 20 21  2  0
 21 22  1  0
M  CHG  2   2  -1  26  -1
M  END
>  <COMPND>  (57) 
    8629 

>  <AUTHOR>  (57) 
    GENERATED BY OPEN BABEL 3.1.1

>  <MASTER>  (57) 
        0    0    0    0    0    0    0    0   58    0   58    0

>  <minimizedAffinity>  (57) 
-8.03464

>  <CNNscore>  (57) 
0.4275603592

>  <CNNaffinity>  (57) 
3.9570832253

>  <CNN_VS>  (57) 
1.6918919086

>  <CNNaffinity_variance>  (57) 
0.4694621563

$$$$
58
     RDKit          3D

 43 45  0  0  0  0  0  0  0  0999 V2000
   19.5058   72.2287   -3.0003 P   0  0  2  0  0  0  0  0  0  0  0  0
   17.9836   72.2507   -3.5477 O   0  0  0  0  0  0  0  0  0  0  0  0
   20.1653   70.8811   -3.0151 O   0  0  0  0  0  0  0  0  0  0  0  0
   19.4088   72.9476   -1.5540 O   0  0  0  0  0  0  0  0  0  0  0  0
   20.5776   73.0221   -0.7563 C   0  0  0  0  0  0  0  0  0  0  0  0
   20.9871   70.8109    0.0903 O   0  0  0  0  0  0  0  0  0  0  0  0
   20.5688   71.9809    2.8193 O   0  0  0  0  0  0  0  0  0  0  0  0
   23.2862   71.8299    2.6474 O   0  0  0  0  0  0  0  0  0  0  0  0
   21.1838   72.5646    1.6720 C   0  0  1  0  0  0  0  0  0  0  0  0
   22.5544   71.9612    1.4458 C   0  0  2  0  0  0  0  0  0  0  0  0
   20.4215   72.0932    0.4399 C   0  0  1  0  0  0  0  0  0  0  0  0
   22.2089   70.6197    0.8220 C   0  0  2  0  0  0  0  0  0  0  0  0
   21.0383   72.2678    3.6188 H   0  0  0  0  0  0  0  0  0  0  0  0
   23.4816   72.7101    3.0050 H   0  0  0  0  0  0  0  0  0  0  0  0
   24.5991   69.3480    1.6269 O   0  0  0  0  0  0  0  0  0  0  0  0
   26.0372   68.8895   -2.7277 O   0  0  0  0  0  0  0  0  0  0  0  0
   23.2254   70.1573   -0.0804 N   0  0  0  0  0  0  0  0  0  0  0  0
   25.3131   69.1206   -0.5420 N   0  0  0  0  0  0  0  0  0  0  0  0
   24.3886   69.5323    0.4264 C   0  0  0  0  0  0  0  0  0  0  0  0
   23.0634   70.3250   -1.4514 C   0  0  0  0  0  0  0  0  0  0  0  0
   23.9550   69.9279   -2.3616 C   0  0  0  0  0  0  0  0  0  0  0  0
   25.1979   69.2660   -1.9154 C   0  0  0  0  0  0  0  0  0  0  0  0
   26.1314   68.6830   -0.2122 H   0  0  0  0  0  0  0  0  0  0  0  0
   20.2364   73.3453   -3.9127 O   0  0  0  0  0  0  0  0  0  0  0  0
   20.8929   73.2481   -5.3866 P   0  0  2  0  0  0  0  0  0  0  0  0
   22.0805   72.1666   -5.1932 O   0  0  0  0  0  0  0  0  0  0  0  0
   21.3411   74.5661   -5.9488 O   0  0  0  0  0  0  0  0  0  0  0  0
   19.7857   72.4828   -6.2773 O   0  0  0  0  0  0  0  0  0  0  0  0
   18.9874   70.2597   -6.0854 O   0  0  0  0  0  0  0  0  0  0  0  0
   18.8342   70.6636  -10.1920 O   0  0  0  0  0  0  0  0  0  0  0  0
   16.3941   70.6405   -8.6775 O   0  0  0  0  0  0  0  0  0  0  0  0
   21.0284   71.8300   -8.7073 O   0  0  0  0  0  0  0  0  0  0  0  0
   18.7354   71.1038   -8.8349 C   0  0  1  0  0  0  0  0  0  0  0  0
   17.6593   70.2695   -8.1372 C   0  0  1  0  0  0  0  0  0  0  0  0
   20.0881   70.9179   -8.1501 C   0  0  2  0  0  0  0  0  0  0  0  0
   17.6796   70.4966   -6.6196 C   0  0  1  0  0  0  0  0  0  0  0  0
   19.9874   71.1185   -6.6369 C   0  0  1  0  0  0  0  0  0  0  0  0
   17.9787   70.7794  -10.6327 H   0  0  0  0  0  0  0  0  0  0  0  0
   16.3948   70.4927   -9.6363 H   0  0  0  0  0  0  0  0  0  0  0  0
   21.0831   71.6926   -9.6654 H   0  0  0  0  0  0  0  0  0  0  0  0
   17.1650   69.4179   -4.5507 O   0  0  0  0  0  0  0  0  0  0  0  0
   16.7222   69.5584   -5.8880 C   0  0  0  0  0  0  0  0  0  0  0  0
   16.5649   68.8235   -4.0728 H   0  0  0  0  0  0  0  0  0  0  0  0
 25 28  1  0
 25 24  1  0
 25 26  1  1
 25 27  2  0
  1  4  1  0
  1 24  1  0
  1  2  1  6
  1  3  2  0
  6 11  1  0
  6 12  1  0
 29 36  1  0
 29 37  1  0
  9  7  1  1
  7 13  1  0
 10  8  1  1
  8 14  1  0
 37 28  1  6
  4  5  1  0
 33 30  1  6
 30 38  1  0
 34 31  1  6
 31 39  1  0
 35 32  1  6
 32 40  1  0
 41 42  1  0
 41 43  1  0
 15 19  2  0
 16 22  2  0
 12 17  1  6
 17 19  1  0
 17 20  1  0
 18 19  1  0
 18 22  1  0
 18 23  1  0
  9 10  1  0
  9 11  1  0
 10 12  1  0
 11  5  1  6
 33 34  1  0
 33 35  1  0
 34 36  1  0
 35 37  1  0
 36 42  1  1
 20 21  2  0
 21 22  1  0
M  CHG  2   2  -1  26  -1
M  END
>  <COMPND>  (58) 
    8629 

>  <AUTHOR>  (58) 
    GENERATED BY OPEN BABEL 3.1.1

>  <MASTER>  (58) 
        0    0    0    0    0    0    0    0   58    0   58    0

>  <minimizedAffinity>  (58) 
-8.24701

>  <CNNscore>  (58) 
0.3979673386

>  <CNNaffinity>  (58) 
4.0944142342

>  <CNN_VS>  (58) 
1.6294431686

>  <CNNaffinity_variance>  (58) 
0.2636462450

$$$$
59
     RDKit          3D

 43 45  0  0  0  0  0  0  0  0999 V2000
   22.6142   71.9423   -2.4234 P   0  0  2  0  0  0  0  0  0  0  0  0
   22.1105   73.4710   -2.5877 O   0  0  0  0  0  0  0  0  0  0  0  0
   23.9748   71.6591   -2.9891 O   0  0  0  0  0  0  0  0  0  0  0  0
   21.4013   71.0656   -3.0382 O   0  0  0  0  0  0  0  0  0  0  0  0
   20.6404   71.6149   -4.0999 C   0  0  0  0  0  0  0  0  0  0  0  0
   20.3976   70.9719   -6.4023 O   0  0  0  0  0  0  0  0  0  0  0  0
   23.0993   72.1983   -6.8352 O   0  0  0  0  0  0  0  0  0  0  0  0
   21.4138   74.1311   -7.7623 O   0  0  0  0  0  0  0  0  0  0  0  0
   22.0468   72.6173   -5.9681 C   0  0  1  0  0  0  0  0  0  0  0  0
   20.9284   73.2526   -6.7677 C   0  0  2  0  0  0  0  0  0  0  0  0
   21.3716   71.3696   -5.4126 C   0  0  1  0  0  0  0  0  0  0  0  0
   20.2290   72.0370   -7.3521 C   0  0  2  0  0  0  0  0  0  0  0  0
   23.5457   72.9781   -7.2020 H   0  0  0  0  0  0  0  0  0  0  0  0
   21.8500   74.8879   -7.3406 H   0  0  0  0  0  0  0  0  0  0  0  0
   18.6561   70.6512   -9.2450 O   0  0  0  0  0  0  0  0  0  0  0  0
   14.8560   72.9743   -8.0603 O   0  0  0  0  0  0  0  0  0  0  0  0
   18.8258   72.2594   -7.5592 N   0  0  0  0  0  0  0  0  0  0  0  0
   16.7652   71.8089   -8.6534 N   0  0  0  0  0  0  0  0  0  0  0  0
   18.1288   71.5108   -8.5361 C   0  0  0  0  0  0  0  0  0  0  0  0
   18.1552   73.2106   -6.7981 C   0  0  0  0  0  0  0  0  0  0  0  0
   16.8548   73.4838   -6.9232 C   0  0  0  0  0  0  0  0  0  0  0  0
   16.0537   72.7461   -7.9212 C   0  0  0  0  0  0  0  0  0  0  0  0
   16.2593   71.3001   -9.3279 H   0  0  0  0  0  0  0  0  0  0  0  0
   22.4796   71.6841   -0.8334 O   0  0  0  0  0  0  0  0  0  0  0  0
   23.1714   70.5818    0.1254 P   0  0  2  0  0  0  0  0  0  0  0  0
   21.9218   69.9749    0.9547 O   0  0  0  0  0  0  0  0  0  0  0  0
   24.2802   71.1206    0.9822 O   0  0  0  0  0  0  0  0  0  0  0  0
   23.6143   69.3930   -0.8724 O   0  0  0  0  0  0  0  0  0  0  0  0
   24.8116   67.6406    0.1823 O   0  0  0  0  0  0  0  0  0  0  0  0
   25.5712   66.6787   -3.7609 O   0  0  0  0  0  0  0  0  0  0  0  0
   23.7617   65.0577   -2.2292 O   0  0  0  0  0  0  0  0  0  0  0  0
   25.5146   69.4530   -2.9365 O   0  0  0  0  0  0  0  0  0  0  0  0
   24.7932   67.1709   -2.6664 C   0  0  1  0  0  0  0  0  0  0  0  0
   24.6206   66.0378   -1.6530 C   0  0  1  0  0  0  0  0  0  0  0  0
   25.5193   68.3549   -2.0305 C   0  0  2  0  0  0  0  0  0  0  0  0
   24.0296   66.5580   -0.3357 C   0  0  1  0  0  0  0  0  0  0  0  0
   24.8805   68.7615   -0.7013 C   0  0  1  0  0  0  0  0  0  0  0  0
   25.1155   65.9271   -4.1694 H   0  0  0  0  0  0  0  0  0  0  0  0
   24.1462   64.7378   -3.0605 H   0  0  0  0  0  0  0  0  0  0  0  0
   25.9218   69.1830   -3.7738 H   0  0  0  0  0  0  0  0  0  0  0  0
   24.5231   66.0186    1.9391 O   0  0  0  0  0  0  0  0  0  0  0  0
   23.9954   65.4768    0.7423 C   0  0  0  0  0  0  0  0  0  0  0  0
   24.5073   65.3416    2.6342 H   0  0  0  0  0  0  0  0  0  0  0  0
 25 28  1  0
 25 24  1  0
 25 26  1  1
 25 27  2  0
  1  4  1  0
  1 24  1  0
  1  2  1  1
  1  3  2  0
  6 11  1  0
  6 12  1  0
 29 36  1  0
 29 37  1  0
  9  7  1  6
  7 13  1  0
 10  8  1  6
  8 14  1  0
 37 28  1  6
  4  5  1  0
 33 30  1  6
 30 38  1  0
 34 31  1  6
 31 39  1  0
 35 32  1  6
 32 40  1  0
 41 42  1  0
 41 43  1  0
 15 19  2  0
 16 22  2  0
 12 17  1  1
 17 19  1  0
 17 20  1  0
 18 19  1  0
 18 22  1  0
 18 23  1  0
  9 10  1  0
  9 11  1  0
 10 12  1  0
 11  5  1  1
 33 34  1  0
 33 35  1  0
 34 36  1  0
 35 37  1  0
 36 42  1  1
 20 21  2  0
 21 22  1  0
M  CHG  2   2  -1  26  -1
M  END
>  <COMPND>  (59) 
    8629 

>  <AUTHOR>  (59) 
    GENERATED BY OPEN BABEL 3.1.1

>  <MASTER>  (59) 
        0    0    0    0    0    0    0    0   58    0   58    0

>  <minimizedAffinity>  (59) 
-8.76031

>  <CNNscore>  (59) 
0.3948010504

>  <CNNaffinity>  (59) 
4.5491418839

>  <CNN_VS>  (59) 
1.7960059643

>  <CNNaffinity_variance>  (59) 
0.0838754326

$$$$
60
     RDKit          3D

 43 45  0  0  0  0  0  0  0  0999 V2000
   21.9269   73.0338   -5.3381 P   0  0  2  0  0  0  0  0  0  0  0  0
   20.8022   74.1649   -5.6083 O   0  0  0  0  0  0  0  0  0  0  0  0
   23.3282   73.4358   -5.6931 O   0  0  0  0  0  0  0  0  0  0  0  0
   21.3556   71.7275   -6.1030 O   0  0  0  0  0  0  0  0  0  0  0  0
   20.1345   71.8399   -6.8131 C   0  0  0  0  0  0  0  0  0  0  0  0
   19.3124   70.5319   -4.9727 O   0  0  0  0  0  0  0  0  0  0  0  0
   17.0762   69.7150   -6.7957 O   0  0  0  0  0  0  0  0  0  0  0  0
   15.9100   71.6326   -5.2468 O   0  0  0  0  0  0  0  0  0  0  0  0
   17.7463   70.9706   -6.6963 C   0  0  1  0  0  0  0  0  0  0  0  0
   17.3072   71.7033   -5.4458 C   0  0  2  0  0  0  0  0  0  0  0  0
   19.2163   70.6962   -6.4046 C   0  0  1  0  0  0  0  0  0  0  0  0
   18.0892   70.9774   -4.3643 C   0  0  2  0  0  0  0  0  0  0  0  0
   16.1356   69.8645   -6.9821 H   0  0  0  0  0  0  0  0  0  0  0  0
   15.4572   72.1088   -5.9602 H   0  0  0  0  0  0  0  0  0  0  0  0
   18.7800   70.0465   -1.7886 O   0  0  0  0  0  0  0  0  0  0  0  0
   19.2786   74.3339   -0.1728 O   0  0  0  0  0  0  0  0  0  0  0  0
   18.4047   71.8284   -3.2518 N   0  0  0  0  0  0  0  0  0  0  0  0
   19.0279   72.1821   -0.9862 N   0  0  0  0  0  0  0  0  0  0  0  0
   18.7378   71.2602   -2.0001 C   0  0  0  0  0  0  0  0  0  0  0  0
   18.3824   73.2101   -3.4081 C   0  0  0  0  0  0  0  0  0  0  0  0
   18.6603   74.0755   -2.4308 C   0  0  0  0  0  0  0  0  0  0  0  0
   19.0179   73.5639   -1.0920 C   0  0  0  0  0  0  0  0  0  0  0  0
   19.2623   71.8092   -0.1054 H   0  0  0  0  0  0  0  0  0  0  0  0
   21.7067   72.6673   -3.7792 O   0  0  0  0  0  0  0  0  0  0  0  0
   22.4411   71.5852   -2.8291 P   0  0  2  0  0  0  0  0  0  0  0  0
   24.0008   71.7357   -3.2320 O   0  0  0  0  0  0  0  0  0  0  0  0
   21.9011   70.1899   -2.9539 O   0  0  0  0  0  0  0  0  0  0  0  0
   22.3414   72.2108   -1.3446 O   0  0  0  0  0  0  0  0  0  0  0  0
   24.0544   72.3873    0.2836 O   0  0  0  0  0  0  0  0  0  0  0  0
   20.8202   71.8203    2.7874 O   0  0  0  0  0  0  0  0  0  0  0  0
   22.0477   74.4114    2.6214 O   0  0  0  0  0  0  0  0  0  0  0  0
   20.9787   70.3759    0.2838 O   0  0  0  0  0  0  0  0  0  0  0  0
   21.5000   72.3062    1.6268 C   0  0  1  0  0  0  0  0  0  0  0  0
   22.6321   73.2278    2.0847 C   0  0  1  0  0  0  0  0  0  0  0  0
   22.0565   71.1203    0.8412 C   0  0  2  0  0  0  0  0  0  0  0  0
   23.5691   73.5752    0.9201 C   0  0  1  0  0  0  0  0  0  0  0  0
   23.0145   71.5732   -0.2621 C   0  0  1  0  0  0  0  0  0  0  0  0
   20.4640   72.5683    3.2905 H   0  0  0  0  0  0  0  0  0  0  0  0
   21.4581   74.1780    3.3556 H   0  0  0  0  0  0  0  0  0  0  0  0
   20.3797   70.0947    0.9923 H   0  0  0  0  0  0  0  0  0  0  0  0
   25.6471   73.4876    2.0961 O   0  0  0  0  0  0  0  0  0  0  0  0
   24.7916   74.3634    1.3851 C   0  0  0  0  0  0  0  0  0  0  0  0
   26.4298   73.9755    2.3980 H   0  0  0  0  0  0  0  0  0  0  0  0
 25 28  1  0
 25 24  1  0
 25 26  1  6
 25 27  2  0
  1  4  1  0
  1 24  1  0
  1  2  1  6
  1  3  2  0
  6 11  1  0
  6 12  1  0
 29 36  1  0
 29 37  1  0
  9  7  1  1
  7 13  1  0
 10  8  1  1
  8 14  1  0
 37 28  1  6
  4  5  1  0
 33 30  1  1
 30 38  1  0
 34 31  1  6
 31 39  1  0
 35 32  1  6
 32 40  1  0
 41 42  1  0
 41 43  1  0
 15 19  2  0
 16 22  2  0
 12 17  1  1
 17 19  1  0
 17 20  1  0
 18 19  1  0
 18 22  1  0
 18 23  1  0
  9 10  1  0
  9 11  1  0
 10 12  1  0
 11  5  1  1
 33 34  1  0
 33 35  1  0
 34 36  1  0
 35 37  1  0
 36 42  1  1
 20 21  2  0
 21 22  1  0
M  CHG  2   2  -1  26  -1
M  END
>  <COMPND>  (60) 
    8629 

>  <AUTHOR>  (60) 
    GENERATED BY OPEN BABEL 3.1.1

>  <MASTER>  (60) 
        0    0    0    0    0    0    0    0   58    0   58    0

>  <minimizedAffinity>  (60) 
-5.81914

>  <CNNscore>  (60) 
0.3790855110

>  <CNNaffinity>  (60) 
3.6988778114

>  <CNN_VS>  (60) 
1.4021910429

>  <CNNaffinity_variance>  (60) 
0.4673737884

$$$$
61
     RDKit          3D

 43 45  0  0  0  0  0  0  0  0999 V2000
   21.3938   72.4017   -2.3420 P   0  0  2  0  0  0  0  0  0  0  0  0
   21.7798   70.8724   -2.7023 O   0  0  0  0  0  0  0  0  0  0  0  0
   21.9415   72.9032   -1.0381 O   0  0  0  0  0  0  0  0  0  0  0  0
   19.7830   72.4407   -2.4890 O   0  0  0  0  0  0  0  0  0  0  0  0
   19.2267   72.6910   -3.7679 C   0  0  0  0  0  0  0  0  0  0  0  0
   17.3165   72.2241   -5.1488 O   0  0  0  0  0  0  0  0  0  0  0  0
   16.2682   70.6304   -2.8354 O   0  0  0  0  0  0  0  0  0  0  0  0
   17.2545   68.6993   -4.4891 O   0  0  0  0  0  0  0  0  0  0  0  0
   17.6117   70.7841   -3.2901 C   0  0  1  0  0  0  0  0  0  0  0  0
   17.8317   69.9873   -4.5590 C   0  0  2  0  0  0  0  0  0  0  0  0
   17.7800   72.2166   -3.7808 C   0  0  1  0  0  0  0  0  0  0  0  0
   17.1689   70.8690   -5.6037 C   0  0  2  0  0  0  0  0  0  0  0  0
   16.1367   69.7232   -2.5166 H   0  0  0  0  0  0  0  0  0  0  0  0
   17.7103   68.1770   -3.8107 H   0  0  0  0  0  0  0  0  0  0  0  0
   15.7518   70.3986   -8.0013 O   0  0  0  0  0  0  0  0  0  0  0  0
   19.6223   70.3968  -10.5034 O   0  0  0  0  0  0  0  0  0  0  0  0
   17.7811   70.7417   -6.8961 N   0  0  0  0  0  0  0  0  0  0  0  0
   17.6802   70.3983   -9.2452 N   0  0  0  0  0  0  0  0  0  0  0  0
   16.9795   70.5051   -8.0371 C   0  0  0  0  0  0  0  0  0  0  0  0
   19.1616   70.8517   -7.0228 C   0  0  0  0  0  0  0  0  0  0  0  0
   19.8146   70.7460   -8.1820 C   0  0  0  0  0  0  0  0  0  0  0  0
   19.0511   70.4989   -9.4221 C   0  0  0  0  0  0  0  0  0  0  0  0
   17.1425   70.2331  -10.0535 H   0  0  0  0  0  0  0  0  0  0  0  0
   21.8973   73.2195   -3.6422 O   0  0  0  0  0  0  0  0  0  0  0  0
   23.1038   72.9285   -4.6779 P   0  0  2  0  0  0  0  0  0  0  0  0
   22.4557   71.8682   -5.7139 O   0  0  0  0  0  0  0  0  0  0  0  0
   24.3739   72.4617   -4.0276 O   0  0  0  0  0  0  0  0  0  0  0  0
   23.2499   74.2923   -5.5285 O   0  0  0  0  0  0  0  0  0  0  0  0
   21.7292   76.0291   -6.0647 O   0  0  0  0  0  0  0  0  0  0  0  0
   23.6644   75.7017   -9.6977 O   0  0  0  0  0  0  0  0  0  0  0  0
   24.1692   77.9792   -8.0224 O   0  0  0  0  0  0  0  0  0  0  0  0
   23.0745   73.3235   -8.1564 O   0  0  0  0  0  0  0  0  0  0  0  0
   23.5577   75.6803   -8.2716 C   0  0  1  0  0  0  0  0  0  0  0  0
   23.0997   77.0632   -7.8042 C   0  0  1  0  0  0  0  0  0  0  0  0
   22.5453   74.6120   -7.8628 C   0  0  2  0  0  0  0  0  0  0  0  0
   22.7066   77.0445   -6.3209 C   0  0  1  0  0  0  0  0  0  0  0  0
   22.1864   74.7123   -6.3792 C   0  0  1  0  0  0  0  0  0  0  0  0
   24.3061   76.3776   -9.9638 H   0  0  0  0  0  0  0  0  0  0  0  0
   24.4081   77.9810   -8.9627 H   0  0  0  0  0  0  0  0  0  0  0  0
   23.2975   73.2726   -9.0985 H   0  0  0  0  0  0  0  0  0  0  0  0
   23.1489   79.2933   -5.6457 O   0  0  0  0  0  0  0  0  0  0  0  0
   22.0984   78.3720   -5.8736 C   0  0  0  0  0  0  0  0  0  0  0  0
   22.7767   80.1430   -5.3607 H   0  0  0  0  0  0  0  0  0  0  0  0
 25 28  1  0
 25 24  1  0
 25 26  1  6
 25 27  2  0
  1  4  1  0
  1 24  1  0
  1  2  1  6
  1  3  2  0
  6 11  1  0
  6 12  1  0
 29 36  1  0
 29 37  1  0
  9  7  1  6
  7 13  1  0
 10  8  1  1
  8 14  1  0
 37 28  1  1
  4  5  1  0
 33 30  1  6
 30 38  1  0
 34 31  1  1
 31 39  1  0
 35 32  1  1
 32 40  1  0
 41 42  1  0
 41 43  1  0
 15 19  2  0
 16 22  2  0
 12 17  1  6
 17 19  1  0
 17 20  1  0
 18 19  1  0
 18 22  1  0
 18 23  1  0
  9 10  1  0
  9 11  1  0
 10 12  1  0
 11  5  1  6
 33 34  1  0
 33 35  1  0
 34 36  1  0
 35 37  1  0
 36 42  1  6
 20 21  2  0
 21 22  1  0
M  CHG  2   2  -1  26  -1
M  END
>  <COMPND>  (61) 
    8629 

>  <AUTHOR>  (61) 
    GENERATED BY OPEN BABEL 3.1.1

>  <MASTER>  (61) 
        0    0    0    0    0    0    0    0   58    0   58    0

>  <minimizedAffinity>  (61) 
-6.55654

>  <CNNscore>  (61) 
0.8329659104

>  <CNNaffinity>  (61) 
4.6415443420

>  <CNN_VS>  (61) 
3.8662481308

>  <CNNaffinity_variance>  (61) 
0.1045461744

$$$$
62
     RDKit          3D

 43 45  0  0  0  0  0  0  0  0999 V2000
   22.1765   71.8873   -2.2637 P   0  0  2  0  0  0  0  0  0  0  0  0
   21.4275   73.3092   -2.4506 O   0  0  0  0  0  0  0  0  0  0  0  0
   23.3441   71.6610   -3.1785 O   0  0  0  0  0  0  0  0  0  0  0  0
   20.9811   70.8020   -2.3684 O   0  0  0  0  0  0  0  0  0  0  0  0
   20.3452   70.6152   -3.6209 C   0  0  0  0  0  0  0  0  0  0  0  0
   18.4983   71.6605   -4.7479 O   0  0  0  0  0  0  0  0  0  0  0  0
   16.7485   70.3587   -2.6902 O   0  0  0  0  0  0  0  0  0  0  0  0
   16.4392   68.7259   -4.8523 O   0  0  0  0  0  0  0  0  0  0  0  0
   17.9346   69.8636   -3.3094 C   0  0  1  0  0  0  0  0  0  0  0  0
   17.6482   69.4483   -4.7373 C   0  0  2  0  0  0  0  0  0  0  0  0
   18.8869   71.0369   -3.5043 C   0  0  1  0  0  0  0  0  0  0  0  0
   17.5987   70.7884   -5.4514 C   0  0  2  0  0  0  0  0  0  0  0  0
   16.1250   69.6273   -2.5551 H   0  0  0  0  0  0  0  0  0  0  0  0
   16.5209   67.8816   -4.3820 H   0  0  0  0  0  0  0  0  0  0  0  0
   15.8996   70.0767   -7.5925 O   0  0  0  0  0  0  0  0  0  0  0  0
   19.3112   70.4590  -10.6675 O   0  0  0  0  0  0  0  0  0  0  0  0
   18.0165   70.6945   -6.8218 N   0  0  0  0  0  0  0  0  0  0  0  0
   17.5996   70.2678   -9.1219 N   0  0  0  0  0  0  0  0  0  0  0  0
   17.0846   70.3280   -7.8207 C   0  0  0  0  0  0  0  0  0  0  0  0
   19.3371   70.9648   -7.1637 C   0  0  0  0  0  0  0  0  0  0  0  0
   19.8126   70.9016   -8.4091 C   0  0  0  0  0  0  0  0  0  0  0  0
   18.9043   70.5260   -9.5117 C   0  0  0  0  0  0  0  0  0  0  0  0
   16.9688   70.0141   -9.8343 H   0  0  0  0  0  0  0  0  0  0  0  0
   22.5428   71.8736   -0.6894 O   0  0  0  0  0  0  0  0  0  0  0  0
   22.9442   70.6572    0.2966 P   0  0  2  0  0  0  0  0  0  0  0  0
   21.5156   70.1526    0.8641 O   0  0  0  0  0  0  0  0  0  0  0  0
   23.9367   71.0289    1.3600 O   0  0  0  0  0  0  0  0  0  0  0  0
   23.4314   69.4759   -0.6895 O   0  0  0  0  0  0  0  0  0  0  0  0
   24.7400   67.7776    0.3204 O   0  0  0  0  0  0  0  0  0  0  0  0
   25.5392   66.9553   -3.6464 O   0  0  0  0  0  0  0  0  0  0  0  0
   23.8411   65.1903   -2.1467 O   0  0  0  0  0  0  0  0  0  0  0  0
   25.3145   69.7011   -2.7578 O   0  0  0  0  0  0  0  0  0  0  0  0
   24.7374   67.3730   -2.5383 C   0  0  1  0  0  0  0  0  0  0  0  0
   24.6402   66.2085   -1.5507 C   0  0  1  0  0  0  0  0  0  0  0  0
   25.3916   68.5850   -1.8776 C   0  0  2  0  0  0  0  0  0  0  0  0
   24.0243   66.6607   -0.2199 C   0  0  1  0  0  0  0  0  0  0  0  0
   24.7351   68.9205   -0.5372 C   0  0  1  0  0  0  0  0  0  0  0  0
   25.1292   66.1863   -4.0707 H   0  0  0  0  0  0  0  0  0  0  0  0
   24.2407   64.9140   -2.9864 H   0  0  0  0  0  0  0  0  0  0  0  0
   25.7338   69.4761   -3.6025 H   0  0  0  0  0  0  0  0  0  0  0  0
   24.6481   66.0767    2.0115 O   0  0  0  0  0  0  0  0  0  0  0  0
   24.0623   65.5550    0.8329 C   0  0  0  0  0  0  0  0  0  0  0  0
   24.6786   65.3841    2.6905 H   0  0  0  0  0  0  0  0  0  0  0  0
 25 28  1  0
 25 24  1  0
 25 26  1  1
 25 27  2  0
  1  4  1  0
  1 24  1  0
  1  2  1  6
  1  3  2  0
  6 11  1  0
  6 12  1  0
 29 36  1  0
 29 37  1  0
  9  7  1  6
  7 13  1  0
 10  8  1  1
  8 14  1  0
 37 28  1  6
  4  5  1  0
 33 30  1  6
 30 38  1  0
 34 31  1  6
 31 39  1  0
 35 32  1  6
 32 40  1  0
 41 42  1  0
 41 43  1  0
 15 19  2  0
 16 22  2  0
 12 17  1  6
 17 19  1  0
 17 20  1  0
 18 19  1  0
 18 22  1  0
 18 23  1  0
  9 10  1  0
  9 11  1  0
 10 12  1  0
 11  5  1  6
 33 34  1  0
 33 35  1  0
 34 36  1  0
 35 37  1  0
 36 42  1  1
 20 21  2  0
 21 22  1  0
M  CHG  2   2  -1  26  -1
M  END
>  <COMPND>  (62) 
    8629 

>  <AUTHOR>  (62) 
    GENERATED BY OPEN BABEL 3.1.1

>  <MASTER>  (62) 
        0    0    0    0    0    0    0    0   58    0   58    0

>  <minimizedAffinity>  (62) 
-9.71618

>  <CNNscore>  (62) 
0.8039608002

>  <CNNaffinity>  (62) 
5.0527300835

>  <CNN_VS>  (62) 
4.0621967316

>  <CNNaffinity_variance>  (62) 
0.1013359204

$$$$
63
     RDKit          3D

 43 45  0  0  0  0  0  0  0  0999 V2000
   21.1334   72.4544   -5.2329 P   0  0  2  0  0  0  0  0  0  0  0  0
   20.2368   71.8756   -4.0170 O   0  0  0  0  0  0  0  0  0  0  0  0
   20.8355   73.8731   -5.6204 O   0  0  0  0  0  0  0  0  0  0  0  0
   20.9551   71.3536   -6.4052 O   0  0  0  0  0  0  0  0  0  0  0  0
   20.3055   71.7411   -7.6034 C   0  0  0  0  0  0  0  0  0  0  0  0
   18.9161   69.8668   -7.0285 O   0  0  0  0  0  0  0  0  0  0  0  0
   18.0611   69.8581   -9.9025 O   0  0  0  0  0  0  0  0  0  0  0  0
   15.9696   71.0942   -8.6639 O   0  0  0  0  0  0  0  0  0  0  0  0
   18.3657   70.9647   -9.0552 C   0  0  1  0  0  0  0  0  0  0  0  0
   17.2446   71.1911   -8.0625 C   0  0  2  0  0  0  0  0  0  0  0  0
   19.5180   70.5563   -8.1459 C   0  0  1  0  0  0  0  0  0  0  0  0
   17.4968   70.0904   -7.0461 C   0  0  2  0  0  0  0  0  0  0  0  0
   17.3281   70.0952  -10.4928 H   0  0  0  0  0  0  0  0  0  0  0  0
   15.8573   71.8158   -9.3021 H   0  0  0  0  0  0  0  0  0  0  0  0
   16.5867   68.2555   -5.1011 O   0  0  0  0  0  0  0  0  0  0  0  0
   15.8671   71.6024   -2.0154 O   0  0  0  0  0  0  0  0  0  0  0  0
   17.0658   70.4549   -5.7259 N   0  0  0  0  0  0  0  0  0  0  0  0
   16.2293   69.9235   -3.5662 N   0  0  0  0  0  0  0  0  0  0  0  0
   16.6262   69.4565   -4.8257 C   0  0  0  0  0  0  0  0  0  0  0  0
   17.0820   71.7895   -5.3354 C   0  0  0  0  0  0  0  0  0  0  0  0
   16.6991   72.2186   -4.1310 C   0  0  0  0  0  0  0  0  0  0  0  0
   16.2260   71.2394   -3.1313 C   0  0  0  0  0  0  0  0  0  0  0  0
   15.9188   69.2458   -2.9226 H   0  0  0  0  0  0  0  0  0  0  0  0
   22.6459   72.1999   -4.7225 O   0  0  0  0  0  0  0  0  0  0  0  0
   23.5564   73.0054   -3.6571 P   0  0  2  0  0  0  0  0  0  0  0  0
   22.5315   74.0962   -3.0429 O   0  0  0  0  0  0  0  0  0  0  0  0
   24.8100   73.5923   -4.2385 O   0  0  0  0  0  0  0  0  0  0  0  0
   23.8037   71.9566   -2.4556 O   0  0  0  0  0  0  0  0  0  0  0  0
   24.1128   69.6069   -2.4760 O   0  0  0  0  0  0  0  0  0  0  0  0
   21.8402   69.9436    0.9551 O   0  0  0  0  0  0  0  0  0  0  0  0
   24.6394   69.3354    1.1623 O   0  0  0  0  0  0  0  0  0  0  0  0
   21.2537   71.6143   -1.3349 O   0  0  0  0  0  0  0  0  0  0  0  0
   22.8170   70.3527   -0.0061 C   0  0  1  0  0  0  0  0  0  0  0  0
   23.9115   69.2851   -0.0616 C   0  0  1  0  0  0  0  0  0  0  0  0
   22.1436   70.5037   -1.3688 C   0  0  2  0  0  0  0  0  0  0  0  0
   24.8516   69.5170   -1.2522 C   0  0  1  0  0  0  0  0  0  0  0  0
   23.1698   70.6805   -2.4894 C   0  0  1  0  0  0  0  0  0  0  0  0
   22.2612   69.8463    1.8228 H   0  0  0  0  0  0  0  0  0  0  0  0
   24.0341   69.1880    1.9061 H   0  0  0  0  0  0  0  0  0  0  0  0
   20.6090   71.4902   -0.6217 H   0  0  0  0  0  0  0  0  0  0  0  0
   26.5739   68.5848   -2.6211 O   0  0  0  0  0  0  0  0  0  0  0  0
   25.8546   68.3776   -1.4194 C   0  0  0  0  0  0  0  0  0  0  0  0
   27.2163   67.8673   -2.7405 H   0  0  0  0  0  0  0  0  0  0  0  0
 25 28  1  0
 25 24  1  0
 25 26  1  1
 25 27  2  0
  1  4  1  0
  1 24  1  0
  1  2  1  1
  1  3  2  0
  6 11  1  0
  6 12  1  0
 29 36  1  0
 29 37  1  0
  9  7  1  6
  7 13  1  0
 10  8  1  6
  8 14  1  0
 37 28  1  1
  4  5  1  0
 33 30  1  1
 30 38  1  0
 34 31  1  1
 31 39  1  0
 35 32  1  1
 32 40  1  0
 41 42  1  0
 41 43  1  0
 15 19  2  0
 16 22  2  0
 12 17  1  1
 17 19  1  0
 17 20  1  0
 18 19  1  0
 18 22  1  0
 18 23  1  0
  9 10  1  0
  9 11  1  0
 10 12  1  0
 11  5  1  1
 33 34  1  0
 33 35  1  0
 34 36  1  0
 35 37  1  0
 36 42  1  6
 20 21  2  0
 21 22  1  0
M  CHG  2   2  -1  26  -1
M  END
>  <COMPND>  (63) 
    8629 

>  <AUTHOR>  (63) 
    GENERATED BY OPEN BABEL 3.1.1

>  <MASTER>  (63) 
        0    0    0    0    0    0    0    0   58    0   58    0

>  <minimizedAffinity>  (63) 
-8.55955

>  <CNNscore>  (63) 
0.6871953011

>  <CNNaffinity>  (63) 
4.4349927902

>  <CNN_VS>  (63) 
3.0477061272

>  <CNNaffinity_variance>  (63) 
0.5420369506

$$$$
64
     RDKit          3D

 43 45  0  0  0  0  0  0  0  0999 V2000
   22.4726   71.9833   -3.4102 P   0  0  2  0  0  0  0  0  0  0  0  0
   21.9363   70.4591   -3.3288 O   0  0  0  0  0  0  0  0  0  0  0  0
   23.8745   72.1354   -3.9229 O   0  0  0  0  0  0  0  0  0  0  0  0
   22.1989   72.5710   -1.9277 O   0  0  0  0  0  0  0  0  0  0  0  0
   23.2495   72.5259   -0.9780 C   0  0  0  0  0  0  0  0  0  0  0  0
   24.3520   71.0863    0.5987 O   0  0  0  0  0  0  0  0  0  0  0  0
   21.6609   69.8496    1.0671 O   0  0  0  0  0  0  0  0  0  0  0  0
   21.9350   71.5078    3.2147 O   0  0  0  0  0  0  0  0  0  0  0  0
   21.9943   71.2112    0.8022 C   0  0  1  0  0  0  0  0  0  0  0  0
   22.6198   71.8471    2.0262 C   0  0  2  0  0  0  0  0  0  0  0  0
   23.1502   71.2268   -0.1902 C   0  0  1  0  0  0  0  0  0  0  0  0
   24.0318   71.2877    1.9850 C   0  0  2  0  0  0  0  0  0  0  0  0
   20.9246   69.8141    1.6985 H   0  0  0  0  0  0  0  0  0  0  0  0
   21.0423   71.8864    3.1929 H   0  0  0  0  0  0  0  0  0  0  0  0
   26.7881   70.7251    2.2377 O   0  0  0  0  0  0  0  0  0  0  0  0
   27.6272   74.8059    4.2087 O   0  0  0  0  0  0  0  0  0  0  0  0
   24.9935   72.1854    2.5600 N   0  0  0  0  0  0  0  0  0  0  0  0
   27.2037   72.7576    3.2188 N   0  0  0  0  0  0  0  0  0  0  0  0
   26.3537   71.8061    2.6406 C   0  0  0  0  0  0  0  0  0  0  0  0
   24.5849   73.4264    3.0363 C   0  0  0  0  0  0  0  0  0  0  0  0
   25.4078   74.3219    3.5860 C   0  0  0  0  0  0  0  0  0  0  0  0
   26.8452   74.0037    3.7079 C   0  0  0  0  0  0  0  0  0  0  0  0
   28.1558   72.5151    3.2858 H   0  0  0  0  0  0  0  0  0  0  0  0
   21.3453   72.7179   -4.3060 O   0  0  0  0  0  0  0  0  0  0  0  0
   21.3318   73.1255   -5.8702 P   0  0  2  0  0  0  0  0  0  0  0  0
   22.5803   72.2970   -6.4803 O   0  0  0  0  0  0  0  0  0  0  0  0
   21.3881   74.6046   -6.1212 O   0  0  0  0  0  0  0  0  0  0  0  0
   20.0246   72.3944   -6.4716 O   0  0  0  0  0  0  0  0  0  0  0  0
   19.0601   70.2514   -6.1647 O   0  0  0  0  0  0  0  0  0  0  0  0
   18.6164   70.5949  -10.2556 O   0  0  0  0  0  0  0  0  0  0  0  0
   16.3108   70.8073   -8.5565 O   0  0  0  0  0  0  0  0  0  0  0  0
   21.0115   71.5950   -8.9740 O   0  0  0  0  0  0  0  0  0  0  0  0
   18.6628   71.0657   -8.9060 C   0  0  1  0  0  0  0  0  0  0  0  0
   17.5792   70.3389   -8.1070 C   0  0  1  0  0  0  0  0  0  0  0  0
   20.0451   70.7767   -8.3237 C   0  0  2  0  0  0  0  0  0  0  0  0
   17.7387   70.5901   -6.6015 C   0  0  1  0  0  0  0  0  0  0  0  0
   20.0819   71.0117   -6.8126 C   0  0  1  0  0  0  0  0  0  0  0  0
   17.7414   70.7758  -10.6314 H   0  0  0  0  0  0  0  0  0  0  0  0
   16.2230   70.6432   -9.5087 H   0  0  0  0  0  0  0  0  0  0  0  0
   20.9785   71.4368   -9.9299 H   0  0  0  0  0  0  0  0  0  0  0  0
   16.1967   70.5754   -4.7764 O   0  0  0  0  0  0  0  0  0  0  0  0
   16.7669   69.7502   -5.7755 C   0  0  0  0  0  0  0  0  0  0  0  0
   15.5757   70.0543   -4.2430 H   0  0  0  0  0  0  0  0  0  0  0  0
 25 28  1  0
 25 24  1  0
 25 26  1  6
 25 27  2  0
  1  4  1  0
  1 24  1  0
  1  2  1  1
  1  3  2  0
  6 11  1  0
  6 12  1  0
 29 36  1  0
 29 37  1  0
  9  7  1  1
  7 13  1  0
 10  8  1  1
  8 14  1  0
 37 28  1  6
  4  5  1  0
 33 30  1  6
 30 38  1  0
 34 31  1  6
 31 39  1  0
 35 32  1  6
 32 40  1  0
 41 42  1  0
 41 43  1  0
 15 19  2  0
 16 22  2  0
 12 17  1  6
 17 19  1  0
 17 20  1  0
 18 19  1  0
 18 22  1  0
 18 23  1  0
  9 10  1  0
  9 11  1  0
 10 12  1  0
 11  5  1  1
 33 34  1  0
 33 35  1  0
 34 36  1  0
 35 37  1  0
 36 42  1  1
 20 21  2  0
 21 22  1  0
M  CHG  2   2  -1  26  -1
M  END
>  <COMPND>  (64) 
    8629 

>  <AUTHOR>  (64) 
    GENERATED BY OPEN BABEL 3.1.1

>  <MASTER>  (64) 
        0    0    0    0    0    0    0    0   58    0   58    0

>  <minimizedAffinity>  (64) 
-7.87277

>  <CNNscore>  (64) 
0.6666284204

>  <CNNaffinity>  (64) 
4.3613176346

>  <CNN_VS>  (64) 
2.9073781967

>  <CNNaffinity_variance>  (64) 
0.1302392930

$$$$
65
     RDKit          3D

 43 45  0  0  0  0  0  0  0  0999 V2000
   21.9934   72.8531   -4.8529 P   0  0  2  0  0  0  0  0  0  0  0  0
   21.7946   74.4258   -4.5295 O   0  0  0  0  0  0  0  0  0  0  0  0
   23.2657   72.5094   -5.5703 O   0  0  0  0  0  0  0  0  0  0  0  0
   20.6254   72.4363   -5.6098 O   0  0  0  0  0  0  0  0  0  0  0  0
   20.6400   72.3292   -7.0226 C   0  0  0  0  0  0  0  0  0  0  0  0
   19.4807   70.3447   -6.3216 O   0  0  0  0  0  0  0  0  0  0  0  0
   19.4108   69.5868   -9.2219 O   0  0  0  0  0  0  0  0  0  0  0  0
   16.8950   70.5503   -8.7984 O   0  0  0  0  0  0  0  0  0  0  0  0
   19.2979   70.8770   -8.6236 C   0  0  1  0  0  0  0  0  0  0  0  0
   17.9370   71.0408   -7.9796 C   0  0  2  0  0  0  0  0  0  0  0  0
   20.2276   70.9177   -7.4171 C   0  0  1  0  0  0  0  0  0  0  0  0
   18.0973   70.2429   -6.6968 C   0  0  2  0  0  0  0  0  0  0  0  0
   18.8262   69.5369   -9.9950 H   0  0  0  0  0  0  0  0  0  0  0  0
   16.8331   71.0906   -9.6015 H   0  0  0  0  0  0  0  0  0  0  0  0
   16.7568   68.6350   -4.8005 O   0  0  0  0  0  0  0  0  0  0  0  0
   15.0104   72.3145   -2.6436 O   0  0  0  0  0  0  0  0  0  0  0  0
   17.2857   70.7544   -5.6286 N   0  0  0  0  0  0  0  0  0  0  0  0
   15.8884   70.4684   -3.7280 N   0  0  0  0  0  0  0  0  0  0  0  0
   16.6551   69.8616   -4.7310 C   0  0  0  0  0  0  0  0  0  0  0  0
   17.1218   72.1272   -5.4790 C   0  0  0  0  0  0  0  0  0  0  0  0
   16.3863   72.6899   -4.5180 C   0  0  0  0  0  0  0  0  0  0  0  0
   15.6940   71.8275   -3.5387 C   0  0  0  0  0  0  0  0  0  0  0  0
   15.4395   69.8661   -3.0912 H   0  0  0  0  0  0  0  0  0  0  0  0
   21.8312   72.1602   -3.4015 O   0  0  0  0  0  0  0  0  0  0  0  0
   20.5232   71.9080   -2.4858 P   0  0  2  0  0  0  0  0  0  0  0  0
   20.1004   70.3901   -2.8528 O   0  0  0  0  0  0  0  0  0  0  0  0
   19.4311   72.9194   -2.6810 O   0  0  0  0  0  0  0  0  0  0  0  0
   21.0913   71.8196   -0.9777 O   0  0  0  0  0  0  0  0  0  0  0  0
   23.3806   72.4317   -1.0119 O   0  0  0  0  0  0  0  0  0  0  0  0
   23.0405   71.3713    2.9644 O   0  0  0  0  0  0  0  0  0  0  0  0
   23.2892   74.1424    2.2521 O   0  0  0  0  0  0  0  0  0  0  0  0
   21.6447   69.8456    0.9386 O   0  0  0  0  0  0  0  0  0  0  0  0
   22.5969   71.9160    1.7186 C   0  0  1  0  0  0  0  0  0  0  0  0
   23.5262   73.0716    1.3424 C   0  0  1  0  0  0  0  0  0  0  0  0
   22.6395   70.8229    0.6524 C   0  0  2  0  0  0  0  0  0  0  0  0
   23.2810   73.5324   -0.1008 C   0  0  1  0  0  0  0  0  0  0  0  0
   22.4327   71.3946   -0.7513 C   0  0  1  0  0  0  0  0  0  0  0  0
   23.0154   72.0602    3.6458 H   0  0  0  0  0  0  0  0  0  0  0  0
   23.4471   73.8381    3.1597 H   0  0  0  0  0  0  0  0  0  0  0  0
   21.7867   69.4912    1.8297 H   0  0  0  0  0  0  0  0  0  0  0  0
   23.8161   75.2051   -1.7209 O   0  0  0  0  0  0  0  0  0  0  0  0
   24.3016   74.5763   -0.5491 C   0  0  0  0  0  0  0  0  0  0  0  0
   24.4553   75.8723   -2.0176 H   0  0  0  0  0  0  0  0  0  0  0  0
 25 28  1  0
 25 24  1  0
 25 26  1  6
 25 27  2  0
  1  4  1  0
  1 24  1  0
  1  2  1  1
  1  3  2  0
  6 11  1  0
  6 12  1  0
 29 36  1  0
 29 37  1  0
  9  7  1  1
  7 13  1  0
 10  8  1  6
  8 14  1  0
 37 28  1  1
  4  5  1  0
 33 30  1  1
 30 38  1  0
 34 31  1  1
 31 39  1  0
 35 32  1  1
 32 40  1  0
 41 42  1  0
 41 43  1  0
 15 19  2  0
 16 22  2  0
 12 17  1  1
 17 19  1  0
 17 20  1  0
 18 19  1  0
 18 22  1  0
 18 23  1  0
  9 10  1  0
  9 11  1  0
 10 12  1  0
 11  5  1  1
 33 34  1  0
 33 35  1  0
 34 36  1  0
 35 37  1  0
 36 42  1  6
 20 21  2  0
 21 22  1  0
M  CHG  2   2  -1  26  -1
M  END
>  <COMPND>  (65) 
    8629 

>  <AUTHOR>  (65) 
    GENERATED BY OPEN BABEL 3.1.1

>  <MASTER>  (65) 
        0    0    0    0    0    0    0    0   58    0   58    0

>  <minimizedAffinity>  (65) 
-6.70562

>  <CNNscore>  (65) 
0.6656763554

>  <CNNaffinity>  (65) 
4.3587331772

>  <CNN_VS>  (65) 
2.9015057087

>  <CNNaffinity_variance>  (65) 
0.1264531314

$$$$
66
     RDKit          3D

 43 45  0  0  0  0  0  0  0  0999 V2000
   22.6619   72.1483   -1.9884 P   0  0  2  0  0  0  0  0  0  0  0  0
   22.2935   73.7224   -2.0505 O   0  0  0  0  0  0  0  0  0  0  0  0
   23.9213   71.7633   -2.7076 O   0  0  0  0  0  0  0  0  0  0  0  0
   21.3118   71.4132   -2.4931 O   0  0  0  0  0  0  0  0  0  0  0  0
   20.7235   71.8405   -3.7093 C   0  0  0  0  0  0  0  0  0  0  0  0
   20.9679   70.6514   -5.7830 O   0  0  0  0  0  0  0  0  0  0  0  0
   23.3177   72.4368   -6.3139 O   0  0  0  0  0  0  0  0  0  0  0  0
   21.3534   73.5744   -7.8252 O   0  0  0  0  0  0  0  0  0  0  0  0
   22.0847   72.7380   -5.6625 C   0  0  1  0  0  0  0  0  0  0  0  0
   20.9662   72.8459   -6.6779 C   0  0  2  0  0  0  0  0  0  0  0  0
   21.6672   71.5130   -4.8584 C   0  0  1  0  0  0  0  0  0  0  0  0
   20.6756   71.3862   -6.9828 C   0  0  2  0  0  0  0  0  0  0  0  0
   23.6046   73.2046   -6.8335 H   0  0  0  0  0  0  0  0  0  0  0  0
   21.5270   74.4964   -7.5795 H   0  0  0  0  0  0  0  0  0  0  0  0
   19.8165   69.5278   -8.9286 O   0  0  0  0  0  0  0  0  0  0  0  0
   15.3863   70.6218   -8.2822 O   0  0  0  0  0  0  0  0  0  0  0  0
   19.3035   71.1645   -7.3427 N   0  0  0  0  0  0  0  0  0  0  0  0
   17.6113   70.0739   -8.6051 N   0  0  0  0  0  0  0  0  0  0  0  0
   18.9788   70.2086   -8.3333 C   0  0  0  0  0  0  0  0  0  0  0  0
   18.2966   71.8905   -6.7158 C   0  0  0  0  0  0  0  0  0  0  0  0
   16.9973   71.7512   -6.9873 C   0  0  0  0  0  0  0  0  0  0  0  0
   16.5732   70.7732   -8.0099 C   0  0  0  0  0  0  0  0  0  0  0  0
   17.3613   69.4140   -9.2920 H   0  0  0  0  0  0  0  0  0  0  0  0
   22.6722   71.8398   -0.4017 O   0  0  0  0  0  0  0  0  0  0  0  0
   23.1386   70.5294    0.4219 P   0  0  2  0  0  0  0  0  0  0  0  0
   21.7442   69.9224    0.9740 O   0  0  0  0  0  0  0  0  0  0  0  0
   24.1597   70.8037    1.4878 O   0  0  0  0  0  0  0  0  0  0  0  0
   23.6181   69.4843   -0.7106 O   0  0  0  0  0  0  0  0  0  0  0  0
   24.8099   67.6957    0.2880 O   0  0  0  0  0  0  0  0  0  0  0  0
   25.4567   66.7819   -3.6866 O   0  0  0  0  0  0  0  0  0  0  0  0
   23.6570   65.1685   -2.1354 O   0  0  0  0  0  0  0  0  0  0  0  0
   25.4685   69.5437   -2.8196 O   0  0  0  0  0  0  0  0  0  0  0  0
   24.7142   67.2703   -2.5661 C   0  0  1  0  0  0  0  0  0  0  0  0
   24.5465   66.1248   -1.5658 C   0  0  1  0  0  0  0  0  0  0  0  0
   25.4760   68.4319   -1.9306 C   0  0  2  0  0  0  0  0  0  0  0  0
   23.9968   66.6347   -0.2268 C   0  0  1  0  0  0  0  0  0  0  0  0
   24.8768   68.8287   -0.5802 C   0  0  1  0  0  0  0  0  0  0  0  0
   24.9782   66.0444   -4.0950 H   0  0  0  0  0  0  0  0  0  0  0  0
   24.0155   64.8549   -2.9806 H   0  0  0  0  0  0  0  0  0  0  0  0
   25.8505   69.2796   -3.6706 H   0  0  0  0  0  0  0  0  0  0  0  0
   24.6554   66.0058    1.9822 O   0  0  0  0  0  0  0  0  0  0  0  0
   23.9700   65.5377    0.8353 C   0  0  0  0  0  0  0  0  0  0  0  0
   24.6461   65.3181    2.6668 H   0  0  0  0  0  0  0  0  0  0  0  0
 25 28  1  0
 25 24  1  0
 25 26  1  1
 25 27  2  0
  1  4  1  0
  1 24  1  0
  1  2  1  1
  1  3  2  0
  6 11  1  0
  6 12  1  0
 29 36  1  0
 29 37  1  0
  9  7  1  6
  7 13  1  0
 10  8  1  6
  8 14  1  0
 37 28  1  6
  4  5  1  0
 33 30  1  6
 30 38  1  0
 34 31  1  6
 31 39  1  0
 35 32  1  6
 32 40  1  0
 41 42  1  0
 41 43  1  0
 15 19  2  0
 16 22  2  0
 12 17  1  1
 17 19  1  0
 17 20  1  0
 18 19  1  0
 18 22  1  0
 18 23  1  0
  9 10  1  0
  9 11  1  0
 10 12  1  0
 11  5  1  1
 33 34  1  0
 33 35  1  0
 34 36  1  0
 35 37  1  0
 36 42  1  1
 20 21  2  0
 21 22  1  0
M  CHG  2   2  -1  26  -1
M  END
>  <COMPND>  (66) 
    8629 

>  <AUTHOR>  (66) 
    GENERATED BY OPEN BABEL 3.1.1

>  <MASTER>  (66) 
        0    0    0    0    0    0    0    0   58    0   58    0

>  <minimizedAffinity>  (66) 
-9.06881

>  <CNNscore>  (66) 
0.6360266805

>  <CNNaffinity>  (66) 
4.6638402939

>  <CNN_VS>  (66) 
2.9663269520

>  <CNNaffinity_variance>  (66) 
0.0819141418

$$$$
67
     RDKit          3D

 43 45  0  0  0  0  0  0  0  0999 V2000
   19.7491   72.9866   -1.6058 P   0  0  2  0  0  0  0  0  0  0  0  0
   19.5339   71.3875   -1.7247 O   0  0  0  0  0  0  0  0  0  0  0  0
   19.9675   73.4947   -0.2110 O   0  0  0  0  0  0  0  0  0  0  0  0
   18.4776   73.6089   -2.3893 O   0  0  0  0  0  0  0  0  0  0  0  0
   18.3098   73.2965   -3.7612 C   0  0  0  0  0  0  0  0  0  0  0  0
   16.6792   72.7239   -5.4307 O   0  0  0  0  0  0  0  0  0  0  0  0
   15.0220   71.6486   -3.1749 O   0  0  0  0  0  0  0  0  0  0  0  0
   16.1110   69.3879   -4.2426 O   0  0  0  0  0  0  0  0  0  0  0  0
   16.4382   71.6239   -3.3455 C   0  0  1  0  0  0  0  0  0  0  0  0
   16.8240   70.5988   -4.3915 C   0  0  2  0  0  0  0  0  0  0  0  0
   16.8534   72.9298   -4.0116 C   0  0  1  0  0  0  0  0  0  0  0  0
   16.4833   71.3229   -5.6829 C   0  0  2  0  0  0  0  0  0  0  0  0
   14.7332   70.8248   -2.7508 H   0  0  0  0  0  0  0  0  0  0  0  0
   16.3623   68.9653   -3.4065 H   0  0  0  0  0  0  0  0  0  0  0  0
   15.5383   70.5424   -8.2277 O   0  0  0  0  0  0  0  0  0  0  0  0
   19.8111   69.8079   -9.7914 O   0  0  0  0  0  0  0  0  0  0  0  0
   17.3268   70.9231   -6.7738 N   0  0  0  0  0  0  0  0  0  0  0  0
   17.6666   70.1775   -9.0043 N   0  0  0  0  0  0  0  0  0  0  0  0
   16.7518   70.5488   -8.0107 C   0  0  0  0  0  0  0  0  0  0  0  0
   18.7078   70.9054   -6.6116 C   0  0  0  0  0  0  0  0  0  0  0  0
   19.5664   70.5475   -7.5687 C   0  0  0  0  0  0  0  0  0  0  0  0
   19.0474   70.1424   -8.8910 C   0  0  0  0  0  0  0  0  0  0  0  0
   17.2889   69.9124   -9.8743 H   0  0  0  0  0  0  0  0  0  0  0  0
   20.9744   73.2650   -2.6228 O   0  0  0  0  0  0  0  0  0  0  0  0
   22.0142   72.2525   -3.3345 P   0  0  2  0  0  0  0  0  0  0  0  0
   23.0042   73.2448   -4.1425 O   0  0  0  0  0  0  0  0  0  0  0  0
   21.3639   71.1995   -4.1843 O   0  0  0  0  0  0  0  0  0  0  0  0
   22.9141   71.6747   -2.1256 O   0  0  0  0  0  0  0  0  0  0  0  0
   23.3701   69.3514   -2.2320 O   0  0  0  0  0  0  0  0  0  0  0  0
   24.4651   70.0600    1.6859 O   0  0  0  0  0  0  0  0  0  0  0  0
   26.4935   69.5628   -0.2856 O   0  0  0  0  0  0  0  0  0  0  0  0
   22.1611   71.4066    0.5645 O   0  0  0  0  0  0  0  0  0  0  0  0
   24.3188   70.3701    0.2974 C   0  0  1  0  0  0  0  0  0  0  0  0
   25.1049   69.3357   -0.5105 C   0  0  1  0  0  0  0  0  0  0  0  0
   22.8369   70.3264   -0.0703 C   0  0  2  0  0  0  0  0  0  0  0  0
   24.7820   69.4398   -2.0071 C   0  0  1  0  0  0  0  0  0  0  0  0
   22.6287   70.3873   -1.5846 C   0  0  1  0  0  0  0  0  0  0  0  0
   25.4038   70.0865    1.9260 H   0  0  0  0  0  0  0  0  0  0  0  0
   26.6840   69.4947    0.6632 H   0  0  0  0  0  0  0  0  0  0  0  0
   22.3003   71.3566    1.5226 H   0  0  0  0  0  0  0  0  0  0  0  0
   26.7743   68.6791   -3.0845 O   0  0  0  0  0  0  0  0  0  0  0  0
   25.4330   68.3172   -2.8122 C   0  0  0  0  0  0  0  0  0  0  0  0
   27.2014   67.9737   -3.5962 H   0  0  0  0  0  0  0  0  0  0  0  0
 25 28  1  0
 25 24  1  0
 25 26  1  6
 25 27  2  0
  1  4  1  0
  1 24  1  0
  1  2  1  1
  1  3  2  0
  6 11  1  0
  6 12  1  0
 29 36  1  0
 29 37  1  0
  9  7  1  6
  7 13  1  0
 10  8  1  1
  8 14  1  0
 37 28  1  6
  4  5  1  0
 33 30  1  1
 30 38  1  0
 34 31  1  6
 31 39  1  0
 35 32  1  1
 32 40  1  0
 41 42  1  0
 41 43  1  0
 15 19  2  0
 16 22  2  0
 12 17  1  6
 17 19  1  0
 17 20  1  0
 18 19  1  0
 18 22  1  0
 18 23  1  0
  9 10  1  0
  9 11  1  0
 10 12  1  0
 11  5  1  6
 33 34  1  0
 33 35  1  0
 34 36  1  0
 35 37  1  0
 36 42  1  6
 20 21  2  0
 21 22  1  0
M  CHG  2   2  -1  26  -1
M  END
>  <COMPND>  (67) 
    8629 

>  <AUTHOR>  (67) 
    GENERATED BY OPEN BABEL 3.1.1

>  <MASTER>  (67) 
        0    0    0    0    0    0    0    0   58    0   58    0

>  <minimizedAffinity>  (67) 
-7.06224

>  <CNNscore>  (67) 
0.6318674088

>  <CNNaffinity>  (67) 
4.3808832169

>  <CNN_VS>  (67) 
2.7681372166

>  <CNNaffinity_variance>  (67) 
0.0417215787

$$$$
68
     RDKit          3D

 43 45  0  0  0  0  0  0  0  0999 V2000
   20.8378   75.2451   -3.5814 P   0  0  2  0  0  0  0  0  0  0  0  0
   20.8480   76.3885   -2.4369 O   0  0  0  0  0  0  0  0  0  0  0  0
   21.3094   75.6965   -4.9324 O   0  0  0  0  0  0  0  0  0  0  0  0
   19.3336   74.6519   -3.5244 O   0  0  0  0  0  0  0  0  0  0  0  0
   18.8680   73.8832   -4.6199 C   0  0  0  0  0  0  0  0  0  0  0  0
   17.4669   72.0221   -5.2089 O   0  0  0  0  0  0  0  0  0  0  0  0
   18.2097   70.8609   -2.5461 O   0  0  0  0  0  0  0  0  0  0  0  0
   19.8243   69.4899   -4.2637 O   0  0  0  0  0  0  0  0  0  0  0  0
   19.0041   71.6287   -3.4488 C   0  0  1  0  0  0  0  0  0  0  0  0
   19.4078   70.7864   -4.6409 C   0  0  2  0  0  0  0  0  0  0  0  0
   18.1041   72.6773   -4.0904 C   0  0  1  0  0  0  0  0  0  0  0  0
   18.1314   70.7739   -5.4647 C   0  0  2  0  0  0  0  0  0  0  0  0
   18.7630   70.1845   -2.1237 H   0  0  0  0  0  0  0  0  0  0  0  0
   20.6396   69.5510   -3.7419 H   0  0  0  0  0  0  0  0  0  0  0  0
   16.2814   69.7772   -7.3521 O   0  0  0  0  0  0  0  0  0  0  0  0
   19.2303   70.3925  -10.8402 O   0  0  0  0  0  0  0  0  0  0  0  0
   18.3893   70.6629   -6.8727 N   0  0  0  0  0  0  0  0  0  0  0  0
   17.7512   70.0845   -9.0874 N   0  0  0  0  0  0  0  0  0  0  0  0
   17.3930   70.1481   -7.7347 C   0  0  0  0  0  0  0  0  0  0  0  0
   19.6186   71.0623   -7.3857 C   0  0  0  0  0  0  0  0  0  0  0  0
   19.9449   70.9940   -8.6780 C   0  0  0  0  0  0  0  0  0  0  0  0
   18.9604   70.4680   -9.6455 C   0  0  0  0  0  0  0  0  0  0  0  0
   17.0731   69.7289   -9.7066 H   0  0  0  0  0  0  0  0  0  0  0  0
   21.7202   74.0624   -2.9214 O   0  0  0  0  0  0  0  0  0  0  0  0
   23.2070   73.5292   -3.2647 P   0  0  2  0  0  0  0  0  0  0  0  0
   24.1595   74.7358   -2.7603 O   0  0  0  0  0  0  0  0  0  0  0  0
   23.4057   73.1429   -4.7018 O   0  0  0  0  0  0  0  0  0  0  0  0
   23.4670   72.3361   -2.2093 O   0  0  0  0  0  0  0  0  0  0  0  0
   23.5987   69.9970   -2.5666 O   0  0  0  0  0  0  0  0  0  0  0  0
   21.7530   69.9974    1.1273 O   0  0  0  0  0  0  0  0  0  0  0  0
   24.5056   69.2054    0.9176 O   0  0  0  0  0  0  0  0  0  0  0  0
   21.0395   71.9939   -0.8436 O   0  0  0  0  0  0  0  0  0  0  0  0
   22.6441   70.4754    0.1159 C   0  0  1  0  0  0  0  0  0  0  0  0
   23.6444   69.3635   -0.2065 C   0  0  1  0  0  0  0  0  0  0  0  0
   21.8361   70.8483   -1.1256 C   0  0  2  0  0  0  0  0  0  0  0  0
   24.4606   69.6995   -1.4619 C   0  0  1  0  0  0  0  0  0  0  0  0
   22.7414   71.1153   -2.3295 C   0  0  1  0  0  0  0  0  0  0  0  0
   22.2597   69.7593    1.9185 H   0  0  0  0  0  0  0  0  0  0  0  0
   23.9778   68.9940    1.7037 H   0  0  0  0  0  0  0  0  0  0  0  0
   20.4708   71.8120   -0.0799 H   0  0  0  0  0  0  0  0  0  0  0  0
   26.6052   68.6685   -1.2464 O   0  0  0  0  0  0  0  0  0  0  0  0
   25.3523   68.5369   -1.8924 C   0  0  0  0  0  0  0  0  0  0  0  0
   27.1832   67.9351   -1.5107 H   0  0  0  0  0  0  0  0  0  0  0  0
 25 28  1  0
 25 24  1  0
 25 26  1  1
 25 27  2  0
  1  4  1  0
  1 24  1  0
  1  2  1  1
  1  3  2  0
  6 11  1  0
  6 12  1  0
 29 36  1  0
 29 37  1  0
  9  7  1  1
  7 13  1  0
 10  8  1  1
  8 14  1  0
 37 28  1  1
  4  5  1  0
 33 30  1  1
 30 38  1  0
 34 31  1  1
 31 39  1  0
 35 32  1  1
 32 40  1  0
 41 42  1  0
 41 43  1  0
 15 19  2  0
 16 22  2  0
 12 17  1  6
 17 19  1  0
 17 20  1  0
 18 19  1  0
 18 22  1  0
 18 23  1  0
  9 10  1  0
  9 11  1  0
 10 12  1  0
 11  5  1  6
 33 34  1  0
 33 35  1  0
 34 36  1  0
 35 37  1  0
 36 42  1  6
 20 21  2  0
 21 22  1  0
M  CHG  2   2  -1  26  -1
M  END
>  <COMPND>  (68) 
    8629 

>  <AUTHOR>  (68) 
    GENERATED BY OPEN BABEL 3.1.1

>  <MASTER>  (68) 
        0    0    0    0    0    0    0    0   58    0   58    0

>  <minimizedAffinity>  (68) 
-7.48112

>  <CNNscore>  (68) 
0.5949891806

>  <CNNaffinity>  (68) 
4.4979867935

>  <CNN_VS>  (68) 
2.6762535572

>  <CNNaffinity_variance>  (68) 
0.0822135583

$$$$
69
     RDKit          3D

 43 45  0  0  0  0  0  0  0  0999 V2000
   19.9796   70.7921   -2.7148 P   0  0  2  0  0  0  0  0  0  0  0  0
   20.1784   70.4651   -1.1429 O   0  0  0  0  0  0  0  0  0  0  0  0
   20.7690   69.9218   -3.6480 O   0  0  0  0  0  0  0  0  0  0  0  0
   20.2698   72.3804   -2.8208 O   0  0  0  0  0  0  0  0  0  0  0  0
   20.4655   73.1133   -1.6240 C   0  0  0  0  0  0  0  0  0  0  0  0
   22.7337   73.2603   -0.8447 O   0  0  0  0  0  0  0  0  0  0  0  0
   23.2508   74.9766   -3.2484 O   0  0  0  0  0  0  0  0  0  0  0  0
   24.2462   72.5578   -4.0199 O   0  0  0  0  0  0  0  0  0  0  0  0
   22.3923   73.8449   -3.1157 C   0  0  1  0  0  0  0  0  0  0  0  0
   23.2076   72.5698   -3.0618 C   0  0  2  0  0  0  0  0  0  0  0  0
   21.7736   73.8859   -1.7240 C   0  0  1  0  0  0  0  0  0  0  0  0
   23.7288   72.5892   -1.6349 C   0  0  2  0  0  0  0  0  0  0  0  0
   23.6573   74.9722   -4.1297 H   0  0  0  0  0  0  0  0  0  0  0  0
   23.8639   72.5457   -4.9113 H   0  0  0  0  0  0  0  0  0  0  0  0
   24.3035   72.0228    1.0719 O   0  0  0  0  0  0  0  0  0  0  0  0
   24.4852   67.4871    0.2745 O   0  0  0  0  0  0  0  0  0  0  0  0
   23.9307   71.2691   -1.1076 N   0  0  0  0  0  0  0  0  0  0  0  0
   24.3933   69.7648    0.6727 N   0  0  0  0  0  0  0  0  0  0  0  0
   24.2151   71.0935    0.2667 C   0  0  0  0  0  0  0  0  0  0  0  0
   23.8455   70.1659   -1.9499 C   0  0  0  0  0  0  0  0  0  0  0  0
   24.0193   68.9054   -1.5473 C   0  0  0  0  0  0  0  0  0  0  0  0
   24.3200   68.6350   -0.1266 C   0  0  0  0  0  0  0  0  0  0  0  0
   24.5928   69.6181    1.6258 H   0  0  0  0  0  0  0  0  0  0  0  0
   18.3769   70.7022   -2.9049 O   0  0  0  0  0  0  0  0  0  0  0  0
   17.4477   69.5485   -3.5519 P   0  0  2  0  0  0  0  0  0  0  0  0
   15.9482   70.0256   -3.1761 O   0  0  0  0  0  0  0  0  0  0  0  0
   17.7873   68.1583   -3.0980 O   0  0  0  0  0  0  0  0  0  0  0  0
   17.5613   69.7783   -5.1454 O   0  0  0  0  0  0  0  0  0  0  0  0
   19.0972   71.0905   -6.3847 O   0  0  0  0  0  0  0  0  0  0  0  0
   15.7166   71.6886   -8.6792 O   0  0  0  0  0  0  0  0  0  0  0  0
   17.8298   70.0187   -9.6762 O   0  0  0  0  0  0  0  0  0  0  0  0
   15.5017   71.5703   -5.7949 O   0  0  0  0  0  0  0  0  0  0  0  0
   16.6086   70.9482   -7.8416 C   0  0  1  0  0  0  0  0  0  0  0  0
   17.9673   70.8682   -8.5405 C   0  0  1  0  0  0  0  0  0  0  0  0
   16.7371   71.6605   -6.4965 C   0  0  2  0  0  0  0  0  0  0  0  0
   19.0459   70.3244   -7.5940 C   0  0  1  0  0  0  0  0  0  0  0  0
   17.8701   71.0739   -5.6526 C   0  0  1  0  0  0  0  0  0  0  0  0
   15.6303   71.2414   -9.5348 H   0  0  0  0  0  0  0  0  0  0  0  0
   17.1454   70.3730  -10.2655 H   0  0  0  0  0  0  0  0  0  0  0  0
   14.7926   71.9452   -6.3394 H   0  0  0  0  0  0  0  0  0  0  0  0
   21.2744   71.1593   -7.3803 O   0  0  0  0  0  0  0  0  0  0  0  0
   20.4380   70.3838   -8.2190 C   0  0  0  0  0  0  0  0  0  0  0  0
   22.1639   71.2056   -7.7655 H   0  0  0  0  0  0  0  0  0  0  0  0
 25 28  1  0
 25 24  1  0
 25 26  1  1
 25 27  2  0
  1  4  1  0
  1 24  1  0
  1  2  1  1
  1  3  2  0
  6 11  1  0
  6 12  1  0
 29 36  1  0
 29 37  1  0
  9  7  1  1
  7 13  1  0
 10  8  1  6
  8 14  1  0
 37 28  1  6
  4  5  1  0
 33 30  1  6
 30 38  1  0
 34 31  1  6
 31 39  1  0
 35 32  1  1
 32 40  1  0
 41 42  1  0
 41 43  1  0
 15 19  2  0
 16 22  2  0
 12 17  1  1
 17 19  1  0
 17 20  1  0
 18 19  1  0
 18 22  1  0
 18 23  1  0
  9 10  1  0
  9 11  1  0
 10 12  1  0
 11  5  1  6
 33 34  1  0
 33 35  1  0
 34 36  1  0
 35 37  1  0
 36 42  1  6
 20 21  2  0
 21 22  1  0
M  CHG  2   2  -1  26  -1
M  END
>  <COMPND>  (69) 
    8629 

>  <AUTHOR>  (69) 
    GENERATED BY OPEN BABEL 3.1.1

>  <MASTER>  (69) 
        0    0    0    0    0    0    0    0   58    0   58    0

>  <minimizedAffinity>  (69) 
-7.94340

>  <CNNscore>  (69) 
0.5821041465

>  <CNNaffinity>  (69) 
4.4637308121

>  <CNN_VS>  (69) 
2.5983562469

>  <CNNaffinity_variance>  (69) 
0.1274683625

$$$$
70
     RDKit          3D

 43 45  0  0  0  0  0  0  0  0999 V2000
   20.6875   71.0921   -2.1865 P   0  0  2  0  0  0  0  0  0  0  0  0
   20.1286   70.4931   -0.7914 O   0  0  0  0  0  0  0  0  0  0  0  0
   21.5872   70.1709   -2.9566 O   0  0  0  0  0  0  0  0  0  0  0  0
   21.3322   72.5157   -1.7674 O   0  0  0  0  0  0  0  0  0  0  0  0
   21.9709   72.6239   -0.5072 C   0  0  0  0  0  0  0  0  0  0  0  0
   24.2450   72.9664    0.1893 O   0  0  0  0  0  0  0  0  0  0  0  0
   24.7575   70.1653   -0.7499 O   0  0  0  0  0  0  0  0  0  0  0  0
   24.5487   69.8576    1.9516 O   0  0  0  0  0  0  0  0  0  0  0  0
   23.5986   70.7074   -0.1187 C   0  0  1  0  0  0  0  0  0  0  0  0
   23.8619   70.9386    1.3546 C   0  0  2  0  0  0  0  0  0  0  0  0
   23.4049   72.1281   -0.6340 C   0  0  1  0  0  0  0  0  0  0  0  0
   24.6871   72.2140    1.3309 C   0  0  2  0  0  0  0  0  0  0  0  0
   24.9015   69.2580   -0.4368 H   0  0  0  0  0  0  0  0  0  0  0  0
   23.9825   69.0701    1.9427 H   0  0  0  0  0  0  0  0  0  0  0  0
   26.7905   73.3507    2.8348 O   0  0  0  0  0  0  0  0  0  0  0  0
   23.8596   75.2404    5.8481 O   0  0  0  0  0  0  0  0  0  0  0  0
   24.5023   73.0080    2.5128 N   0  0  0  0  0  0  0  0  0  0  0  0
   25.3294   74.2908    4.3339 N   0  0  0  0  0  0  0  0  0  0  0  0
   25.6254   73.5314    3.1948 C   0  0  0  0  0  0  0  0  0  0  0  0
   23.2185   73.2608    2.9840 C   0  0  0  0  0  0  0  0  0  0  0  0
   22.9533   73.9860    4.0726 C   0  0  0  0  0  0  0  0  0  0  0  0
   24.0707   74.5691    4.8428 C   0  0  0  0  0  0  0  0  0  0  0  0
   26.0962   74.6653    4.8254 H   0  0  0  0  0  0  0  0  0  0  0  0
   19.3371   71.5200   -2.9652 O   0  0  0  0  0  0  0  0  0  0  0  0
   17.9660   70.7081   -3.2373 P   0  0  2  0  0  0  0  0  0  0  0  0
   16.8190   71.7518   -2.7761 O   0  0  0  0  0  0  0  0  0  0  0  0
   17.8970   69.3716   -2.5569 O   0  0  0  0  0  0  0  0  0  0  0  0
   17.8394   70.6476   -4.8451 O   0  0  0  0  0  0  0  0  0  0  0  0
   19.1606   71.8393   -6.4107 O   0  0  0  0  0  0  0  0  0  0  0  0
   15.6366   71.6211   -8.5519 O   0  0  0  0  0  0  0  0  0  0  0  0
   17.8799   70.0130   -9.3455 O   0  0  0  0  0  0  0  0  0  0  0  0
   15.5632   72.0544   -5.6907 O   0  0  0  0  0  0  0  0  0  0  0  0
   16.6427   71.1567   -7.6478 C   0  0  1  0  0  0  0  0  0  0  0  0
   17.9697   71.0800   -8.4054 C   0  0  1  0  0  0  0  0  0  0  0  0
   16.7484   72.1305   -6.4756 C   0  0  2  0  0  0  0  0  0  0  0  0
   19.1436   70.8480   -7.4445 C   0  0  1  0  0  0  0  0  0  0  0  0
   17.9766   71.8419   -5.6106 C   0  0  1  0  0  0  0  0  0  0  0  0
   15.5641   71.0069   -9.2983 H   0  0  0  0  0  0  0  0  0  0  0  0
   17.1345   70.1715   -9.9460 H   0  0  0  0  0  0  0  0  0  0  0  0
   14.7929   72.2392   -6.2496 H   0  0  0  0  0  0  0  0  0  0  0  0
   20.9225   72.2737   -8.1599 O   0  0  0  0  0  0  0  0  0  0  0  0
   20.4912   70.9252   -8.1587 C   0  0  0  0  0  0  0  0  0  0  0  0
   21.7793   72.3380   -8.6110 H   0  0  0  0  0  0  0  0  0  0  0  0
 25 28  1  0
 25 24  1  0
 25 26  1  1
 25 27  2  0
  1  4  1  0
  1 24  1  0
  1  2  1  1
  1  3  2  0
  6 11  1  0
  6 12  1  0
 29 36  1  0
 29 37  1  0
  9  7  1  6
  7 13  1  0
 10  8  1  6
  8 14  1  0
 37 28  1  6
  4  5  1  0
 33 30  1  6
 30 38  1  0
 34 31  1  6
 31 39  1  0
 35 32  1  1
 32 40  1  0
 41 42  1  0
 41 43  1  0
 15 19  2  0
 16 22  2  0
 12 17  1  1
 17 19  1  0
 17 20  1  0
 18 19  1  0
 18 22  1  0
 18 23  1  0
  9 10  1  0
  9 11  1  0
 10 12  1  0
 11  5  1  1
 33 34  1  0
 33 35  1  0
 34 36  1  0
 35 37  1  0
 36 42  1  6
 20 21  2  0
 21 22  1  0
M  CHG  2   2  -1  26  -1
M  END
>  <COMPND>  (70) 
    8629 

>  <AUTHOR>  (70) 
    GENERATED BY OPEN BABEL 3.1.1

>  <MASTER>  (70) 
        0    0    0    0    0    0    0    0   58    0   58    0

>  <minimizedAffinity>  (70) 
-6.82326

>  <CNNscore>  (70) 
0.4943670928

>  <CNNaffinity>  (70) 
4.0796880722

>  <CNN_VS>  (70) 
2.0168635845

>  <CNNaffinity_variance>  (70) 
0.0573908314

$$$$
71
     RDKit          3D

 43 45  0  0  0  0  0  0  0  0999 V2000
   22.1359   73.1608   -4.7862 P   0  0  2  0  0  0  0  0  0  0  0  0
   21.9662   74.7489   -5.0441 O   0  0  0  0  0  0  0  0  0  0  0  0
   23.4418   72.5804   -5.2435 O   0  0  0  0  0  0  0  0  0  0  0  0
   20.8091   72.5155   -5.4505 O   0  0  0  0  0  0  0  0  0  0  0  0
   20.7514   72.3908   -6.8608 C   0  0  0  0  0  0  0  0  0  0  0  0
   19.5945   70.4137   -6.1353 O   0  0  0  0  0  0  0  0  0  0  0  0
   19.6747   69.5412   -9.0029 O   0  0  0  0  0  0  0  0  0  0  0  0
   17.1256   70.4725   -8.7362 O   0  0  0  0  0  0  0  0  0  0  0  0
   19.5116   70.8515   -8.4628 C   0  0  1  0  0  0  0  0  0  0  0  0
   18.1191   71.0146   -7.8901 C   0  0  2  0  0  0  0  0  0  0  0  0
   20.3824   70.9573   -7.2170 C   0  0  1  0  0  0  0  0  0  0  0  0
   18.2323   70.2709   -6.5701 C   0  0  2  0  0  0  0  0  0  0  0  0
   19.1283   69.4498   -9.7998 H   0  0  0  0  0  0  0  0  0  0  0  0
   17.0924   70.9796   -9.5623 H   0  0  0  0  0  0  0  0  0  0  0  0
   16.6559   68.7078   -4.8238 O   0  0  0  0  0  0  0  0  0  0  0  0
   14.9312   72.4415   -2.7439 O   0  0  0  0  0  0  0  0  0  0  0  0
   17.3624   70.8084   -5.5623 N   0  0  0  0  0  0  0  0  0  0  0  0
   15.7985   70.5682   -3.7894 N   0  0  0  0  0  0  0  0  0  0  0  0
   16.6132   69.9369   -4.7380 C   0  0  0  0  0  0  0  0  0  0  0  0
   17.2589   72.1856   -5.3990 C   0  0  0  0  0  0  0  0  0  0  0  0
   16.4764   72.7719   -4.4906 C   0  0  0  0  0  0  0  0  0  0  0  0
   15.6606   71.9326   -3.5893 C   0  0  0  0  0  0  0  0  0  0  0  0
   15.2671   69.9810   -3.2042 H   0  0  0  0  0  0  0  0  0  0  0  0
   21.8546   73.0180   -3.2008 O   0  0  0  0  0  0  0  0  0  0  0  0
   21.1901   71.8189   -2.3443 P   0  0  2  0  0  0  0  0  0  0  0  0
   21.7346   70.4877   -3.0853 O   0  0  0  0  0  0  0  0  0  0  0  0
   19.6951   71.8977   -2.2325 O   0  0  0  0  0  0  0  0  0  0  0  0
   21.9690   71.8461   -0.9309 O   0  0  0  0  0  0  0  0  0  0  0  0
   22.6633   69.6676   -0.3074 O   0  0  0  0  0  0  0  0  0  0  0  0
   23.5787   71.6761    3.1824 O   0  0  0  0  0  0  0  0  0  0  0  0
   25.6974   70.8046    1.4505 O   0  0  0  0  0  0  0  0  0  0  0  0
   21.1784   72.3541    1.7133 O   0  0  0  0  0  0  0  0  0  0  0  0
   23.4372   71.5197    1.7679 C   0  0  1  0  0  0  0  0  0  0  0  0
   24.3457   70.3735    1.3189 C   0  0  1  0  0  0  0  0  0  0  0  0
   21.9775   71.2073    1.4438 C   0  0  2  0  0  0  0  0  0  0  0  0
   24.0524   69.9702   -0.1325 C   0  0  1  0  0  0  0  0  0  0  0  0
   21.8032   70.7697   -0.0116 C   0  0  1  0  0  0  0  0  0  0  0  0
   24.5032   71.8752    3.3949 H   0  0  0  0  0  0  0  0  0  0  0  0
   25.8694   71.0569    2.3714 H   0  0  0  0  0  0  0  0  0  0  0  0
   21.2973   72.6210    2.6377 H   0  0  0  0  0  0  0  0  0  0  0  0
   24.4869   67.6641    0.3170 O   0  0  0  0  0  0  0  0  0  0  0  0
   24.8356   68.7275   -0.5501 C   0  0  0  0  0  0  0  0  0  0  0  0
   24.9776   66.8663    0.0629 H   0  0  0  0  0  0  0  0  0  0  0  0
 25 28  1  0
 25 24  1  0
 25 26  1  6
 25 27  2  0
  1  4  1  0
  1 24  1  0
  1  2  1  1
  1  3  2  0
  6 11  1  0
  6 12  1  0
 29 36  1  0
 29 37  1  0
  9  7  1  1
  7 13  1  0
 10  8  1  6
  8 14  1  0
 37 28  1  6
  4  5  1  0
 33 30  1  1
 30 38  1  0
 34 31  1  6
 31 39  1  0
 35 32  1  6
 32 40  1  0
 41 42  1  0
 41 43  1  0
 15 19  2  0
 16 22  2  0
 12 17  1  1
 17 19  1  0
 17 20  1  0
 18 19  1  0
 18 22  1  0
 18 23  1  0
  9 10  1  0
  9 11  1  0
 10 12  1  0
 11  5  1  1
 33 34  1  0
 33 35  1  0
 34 36  1  0
 35 37  1  0
 36 42  1  1
 20 21  2  0
 21 22  1  0
M  CHG  2   2  -1  26  -1
M  END
>  <COMPND>  (71) 
    8629 

>  <AUTHOR>  (71) 
    GENERATED BY OPEN BABEL 3.1.1

>  <MASTER>  (71) 
        0    0    0    0    0    0    0    0   58    0   58    0

>  <minimizedAffinity>  (71) 
-7.16238

>  <CNNscore>  (71) 
0.4615397155

>  <CNNaffinity>  (71) 
4.0872278214

>  <CNN_VS>  (71) 
1.8864179850

>  <CNNaffinity_variance>  (71) 
0.2739067078

$$$$
72
     RDKit          3D

 43 45  0  0  0  0  0  0  0  0999 V2000
   22.6971   72.5908   -3.6610 P   0  0  2  0  0  0  0  0  0  0  0  0
   24.2506   72.1449   -3.7325 O   0  0  0  0  0  0  0  0  0  0  0  0
   22.2829   73.6109   -4.6804 O   0  0  0  0  0  0  0  0  0  0  0  0
   22.4862   73.0171   -2.1145 O   0  0  0  0  0  0  0  0  0  0  0  0
   23.4226   72.5611   -1.1537 C   0  0  0  0  0  0  0  0  0  0  0  0
   22.6848   70.3393   -0.6125 O   0  0  0  0  0  0  0  0  0  0  0  0
   22.4350   71.3121    2.2128 O   0  0  0  0  0  0  0  0  0  0  0  0
   24.7986   69.9528    2.2590 O   0  0  0  0  0  0  0  0  0  0  0  0
   23.4041   71.6540    1.2232 C   0  0  1  0  0  0  0  0  0  0  0  0
   24.3835   70.5149    1.0308 C   0  0  2  0  0  0  0  0  0  0  0  0
   22.7000   71.6996   -0.1271 C   0  0  1  0  0  0  0  0  0  0  0  0
   23.5754   69.5439    0.1868 C   0  0  2  0  0  0  0  0  0  0  0  0
   22.8611   71.2772    3.0840 H   0  0  0  0  0  0  0  0  0  0  0  0
   25.3085   70.6090    2.7591 H   0  0  0  0  0  0  0  0  0  0  0  0
   24.2983   66.8581    0.6789 O   0  0  0  0  0  0  0  0  0  0  0  0
   26.7524   66.6135   -3.2145 O   0  0  0  0  0  0  0  0  0  0  0  0
   24.4020   68.7541   -0.6818 N   0  0  0  0  0  0  0  0  0  0  0  0
   25.5195   66.7384   -1.2602 N   0  0  0  0  0  0  0  0  0  0  0  0
   24.7064   67.4153   -0.3422 C   0  0  0  0  0  0  0  0  0  0  0  0
   24.9012   69.3079   -1.8557 C   0  0  0  0  0  0  0  0  0  0  0  0
   25.6763   68.6494   -2.7199 C   0  0  0  0  0  0  0  0  0  0  0  0
   26.0413   67.2458   -2.4396 C   0  0  0  0  0  0  0  0  0  0  0  0
   25.7451   65.8045   -1.0443 H   0  0  0  0  0  0  0  0  0  0  0  0
   21.9098   71.1824   -3.7602 O   0  0  0  0  0  0  0  0  0  0  0  0
   20.3336   70.8382   -3.6609 P   0  0  2  0  0  0  0  0  0  0  0  0
   19.9260   71.3854   -2.1940 O   0  0  0  0  0  0  0  0  0  0  0  0
   20.0034   69.3927   -3.8963 O   0  0  0  0  0  0  0  0  0  0  0  0
   19.6263   71.8618   -4.6889 O   0  0  0  0  0  0  0  0  0  0  0  0
   18.7023   70.4853   -6.3824 O   0  0  0  0  0  0  0  0  0  0  0  0
   17.5069   74.1730   -7.8045 O   0  0  0  0  0  0  0  0  0  0  0  0
   15.5634   72.3990   -6.6541 O   0  0  0  0  0  0  0  0  0  0  0  0
   20.1151   73.8718   -6.5853 O   0  0  0  0  0  0  0  0  0  0  0  0
   17.8123   73.1996   -6.8022 C   0  0  1  0  0  0  0  0  0  0  0  0
   16.8858   71.9986   -7.0020 C   0  0  1  0  0  0  0  0  0  0  0  0
   19.2744   72.7801   -6.9429 C   0  0  2  0  0  0  0  0  0  0  0  0
   17.3280   70.8084   -6.1400 C   0  0  1  0  0  0  0  0  0  0  0  0
   19.5968   71.5581   -6.0810 C   0  0  1  0  0  0  0  0  0  0  0  0
   16.5801   74.4440   -7.7203 H   0  0  0  0  0  0  0  0  0  0  0  0
   15.2965   73.1515   -7.2052 H   0  0  0  0  0  0  0  0  0  0  0  0
   19.9013   74.6389   -7.1382 H   0  0  0  0  0  0  0  0  0  0  0  0
   15.6426   69.8277   -7.5208 O   0  0  0  0  0  0  0  0  0  0  0  0
   16.5145   69.5513   -6.4403 C   0  0  0  0  0  0  0  0  0  0  0  0
   15.1186   69.0364   -7.7233 H   0  0  0  0  0  0  0  0  0  0  0  0
 25 28  1  0
 25 24  1  0
 25 26  1  1
 25 27  2  0
  1  4  1  0
  1 24  1  0
  1  2  1  1
  1  3  2  0
  6 11  1  0
  6 12  1  0
 29 36  1  0
 29 37  1  0
  9  7  1  1
  7 13  1  0
 10  8  1  1
  8 14  1  0
 37 28  1  1
  4  5  1  0
 33 30  1  6
 30 38  1  0
 34 31  1  1
 31 39  1  0
 35 32  1  1
 32 40  1  0
 41 42  1  0
 41 43  1  0
 15 19  2  0
 16 22  2  0
 12 17  1  6
 17 19  1  0
 17 20  1  0
 18 19  1  0
 18 22  1  0
 18 23  1  0
  9 10  1  0
  9 11  1  0
 10 12  1  0
 11  5  1  6
 33 34  1  0
 33 35  1  0
 34 36  1  0
 35 37  1  0
 36 42  1  6
 20 21  2  0
 21 22  1  0
M  CHG  2   2  -1  26  -1
M  END
>  <COMPND>  (72) 
    8629 

>  <AUTHOR>  (72) 
    GENERATED BY OPEN BABEL 3.1.1

>  <MASTER>  (72) 
        0    0    0    0    0    0    0    0   58    0   58    0

>  <minimizedAffinity>  (72) 
-7.97046

>  <CNNscore>  (72) 
0.4473924041

>  <CNNaffinity>  (72) 
4.2209563255

>  <CNN_VS>  (72) 
1.8884238005

>  <CNNaffinity_variance>  (72) 
0.2249183655

$$$$
73
     RDKit          3D

 43 45  0  0  0  0  0  0  0  0999 V2000
   22.5715   71.7032   -3.2168 P   0  0  2  0  0  0  0  0  0  0  0  0
   21.8143   70.3026   -2.9299 O   0  0  0  0  0  0  0  0  0  0  0  0
   24.0517   71.5903   -3.4352 O   0  0  0  0  0  0  0  0  0  0  0  0
   22.1128   72.6515   -1.9887 O   0  0  0  0  0  0  0  0  0  0  0  0
   23.0229   72.8667   -0.9242 C   0  0  0  0  0  0  0  0  0  0  0  0
   23.8567   71.9396    1.1298 O   0  0  0  0  0  0  0  0  0  0  0  0
   21.5391   70.0419    0.9960 O   0  0  0  0  0  0  0  0  0  0  0  0
   20.6884   71.8920    2.8098 O   0  0  0  0  0  0  0  0  0  0  0  0
   21.6054   71.4136    0.6095 C   0  0  1  0  0  0  0  0  0  0  0  0
   21.6234   72.3046    1.8340 C   0  0  2  0  0  0  0  0  0  0  0  0
   22.9839   71.6665    0.0118 C   0  0  1  0  0  0  0  0  0  0  0  0
   23.0609   72.1637    2.3051 C   0  0  2  0  0  0  0  0  0  0  0  0
   20.6674   69.8562    1.3803 H   0  0  0  0  0  0  0  0  0  0  0  0
   19.7893   72.0007    2.4627 H   0  0  0  0  0  0  0  0  0  0  0  0
   22.6003   72.7505    5.0293 O   0  0  0  0  0  0  0  0  0  0  0  0
   24.9324   76.7165    4.7583 O   0  0  0  0  0  0  0  0  0  0  0  0
   23.5365   73.3425    2.9726 N   0  0  0  0  0  0  0  0  0  0  0  0
   23.7621   74.7247    4.8922 N   0  0  0  0  0  0  0  0  0  0  0  0
   23.2495   73.5425    4.3430 C   0  0  0  0  0  0  0  0  0  0  0  0
   24.2789   74.2850    2.2695 C   0  0  0  0  0  0  0  0  0  0  0  0
   24.7594   75.4079    2.8076 C   0  0  0  0  0  0  0  0  0  0  0  0
   24.5042   75.6928    4.2344 C   0  0  0  0  0  0  0  0  0  0  0  0
   23.5743   74.8855    5.8455 H   0  0  0  0  0  0  0  0  0  0  0  0
   21.7509   72.3099   -4.4704 O   0  0  0  0  0  0  0  0  0  0  0  0
   20.2774   72.9691   -4.5557 P   0  0  2  0  0  0  0  0  0  0  0  0
   20.5848   74.5239   -4.8806 O   0  0  0  0  0  0  0  0  0  0  0  0
   19.4323   72.7468   -3.3349 O   0  0  0  0  0  0  0  0  0  0  0  0
   19.6467   72.3842   -5.9214 O   0  0  0  0  0  0  0  0  0  0  0  0
   18.8381   70.2314   -5.3483 O   0  0  0  0  0  0  0  0  0  0  0  0
   17.7587   70.3023   -9.3333 O   0  0  0  0  0  0  0  0  0  0  0  0
   15.7330   70.5378   -7.3112 O   0  0  0  0  0  0  0  0  0  0  0  0
   20.2742   71.4659   -8.4978 O   0  0  0  0  0  0  0  0  0  0  0  0
   17.9898   70.8580   -8.0359 C   0  0  1  0  0  0  0  0  0  0  0  0
   17.0751   70.1442   -7.0387 C   0  0  1  0  0  0  0  0  0  0  0  0
   19.4565   70.6557   -7.6603 C   0  0  2  0  0  0  0  0  0  0  0  0
   17.4515   70.4945   -5.5928 C   0  0  1  0  0  0  0  0  0  0  0  0
   19.7134   70.9859   -6.1889 C   0  0  1  0  0  0  0  0  0  0  0  0
   16.8293   70.4279   -9.5781 H   0  0  0  0  0  0  0  0  0  0  0  0
   15.5081   70.3115   -8.2274 H   0  0  0  0  0  0  0  0  0  0  0  0
   20.1025   71.2470   -9.4265 H   0  0  0  0  0  0  0  0  0  0  0  0
   16.9076   68.3008   -4.8176 O   0  0  0  0  0  0  0  0  0  0  0  0
   16.6564   69.6737   -4.5798 C   0  0  0  0  0  0  0  0  0  0  0  0
   16.4083   67.7662   -4.1800 H   0  0  0  0  0  0  0  0  0  0  0  0
 25 28  1  0
 25 24  1  0
 25 26  1  6
 25 27  2  0
  1  4  1  0
  1 24  1  0
  1  2  1  1
  1  3  2  0
  6 11  1  0
  6 12  1  0
 29 36  1  0
 29 37  1  0
  9  7  1  1
  7 13  1  0
 10  8  1  1
  8 14  1  0
 37 28  1  6
  4  5  1  0
 33 30  1  6
 30 38  1  0
 34 31  1  6
 31 39  1  0
 35 32  1  6
 32 40  1  0
 41 42  1  0
 41 43  1  0
 15 19  2  0
 16 22  2  0
 12 17  1  6
 17 19  1  0
 17 20  1  0
 18 19  1  0
 18 22  1  0
 18 23  1  0
  9 10  1  0
  9 11  1  0
 10 12  1  0
 11  5  1  6
 33 34  1  0
 33 35  1  0
 34 36  1  0
 35 37  1  0
 36 42  1  1
 20 21  2  0
 21 22  1  0
M  CHG  2   2  -1  26  -1
M  END
>  <COMPND>  (73) 
    8629 

>  <AUTHOR>  (73) 
    GENERATED BY OPEN BABEL 3.1.1

>  <MASTER>  (73) 
        0    0    0    0    0    0    0    0   58    0   58    0

>  <minimizedAffinity>  (73) 
-7.14200

>  <CNNscore>  (73) 
0.4289801717

>  <CNNaffinity>  (73) 
4.0260367393

>  <CNN_VS>  (73) 
1.7270898819

>  <CNNaffinity_variance>  (73) 
0.1101562157

$$$$
74
     RDKit          3D

 43 45  0  0  0  0  0  0  0  0999 V2000
   23.1121   72.5682   -4.2224 P   0  0  2  0  0  0  0  0  0  0  0  0
   22.8762   71.1356   -3.5086 O   0  0  0  0  0  0  0  0  0  0  0  0
   24.4750   73.1615   -4.0177 O   0  0  0  0  0  0  0  0  0  0  0  0
   21.8696   73.4678   -3.7077 O   0  0  0  0  0  0  0  0  0  0  0  0
   21.9854   74.1302   -2.4605 C   0  0  0  0  0  0  0  0  0  0  0  0
   21.1594   72.5206   -0.8790 O   0  0  0  0  0  0  0  0  0  0  0  0
   19.1311   74.5921   -0.1135 O   0  0  0  0  0  0  0  0  0  0  0  0
   20.9758   74.7997    1.8842 O   0  0  0  0  0  0  0  0  0  0  0  0
   20.4941   74.7630   -0.4987 C   0  0  1  0  0  0  0  0  0  0  0  0
   21.4156   74.3348    0.6243 C   0  0  2  0  0  0  0  0  0  0  0  0
   20.8091   73.7350   -1.5782 C   0  0  1  0  0  0  0  0  0  0  0  0
   21.3680   72.8205    0.5107 C   0  0  2  0  0  0  0  0  0  0  0  0
   18.9064   75.2381    0.5751 H   0  0  0  0  0  0  0  0  0  0  0  0
   21.0248   75.7681    1.9067 H   0  0  0  0  0  0  0  0  0  0  0  0
   21.6195   70.0876    1.1786 O   0  0  0  0  0  0  0  0  0  0  0  0
   26.0987   70.5512    2.1599 O   0  0  0  0  0  0  0  0  0  0  0  0
   22.5884   72.2002    0.9435 N   0  0  0  0  0  0  0  0  0  0  0  0
   23.8497   70.3206    1.6665 N   0  0  0  0  0  0  0  0  0  0  0  0
   22.6075   70.8209    1.2556 C   0  0  0  0  0  0  0  0  0  0  0  0
   23.7493   72.9577    1.0544 C   0  0  0  0  0  0  0  0  0  0  0  0
   24.9256   72.4659    1.4490 C   0  0  0  0  0  0  0  0  0  0  0  0
   25.0314   71.0334    1.7938 C   0  0  0  0  0  0  0  0  0  0  0  0
   23.8869   69.3622    1.8895 H   0  0  0  0  0  0  0  0  0  0  0  0
   22.7319   72.2725   -5.7654 O   0  0  0  0  0  0  0  0  0  0  0  0
   21.6802   72.9960   -6.7570 P   0  0  2  0  0  0  0  0  0  0  0  0
   22.1206   72.4614   -8.2191 O   0  0  0  0  0  0  0  0  0  0  0  0
   21.6431   74.4914   -6.6297 O   0  0  0  0  0  0  0  0  0  0  0  0
   20.2718   72.2646   -6.4628 O   0  0  0  0  0  0  0  0  0  0  0  0
   19.7132   70.1743   -5.4956 O   0  0  0  0  0  0  0  0  0  0  0  0
   16.9542   70.2385   -8.5671 O   0  0  0  0  0  0  0  0  0  0  0  0
   16.0736   70.6301   -5.8617 O   0  0  0  0  0  0  0  0  0  0  0  0
   19.6254   71.2648   -9.0040 O   0  0  0  0  0  0  0  0  0  0  0  0
   17.7713   70.8024   -7.5377 C   0  0  1  0  0  0  0  0  0  0  0  0
   17.3747   70.1622   -6.2059 C   0  0  1  0  0  0  0  0  0  0  0  0
   19.2387   70.5198   -7.8542 C   0  0  2  0  0  0  0  0  0  0  0  0
   18.3792   70.5152   -5.1007 C   0  0  1  0  0  0  0  0  0  0  0  0
   20.1473   70.8602   -6.6716 C   0  0  1  0  0  0  0  0  0  0  0  0
   16.0212   70.4148   -8.3724 H   0  0  0  0  0  0  0  0  0  0  0  0
   15.4490   70.4013   -6.5679 H   0  0  0  0  0  0  0  0  0  0  0  0
   19.0429   71.0401   -9.7456 H   0  0  0  0  0  0  0  0  0  0  0  0
   17.2815   68.6401   -4.1066 O   0  0  0  0  0  0  0  0  0  0  0  0
   18.0914   69.7612   -3.8042 C   0  0  0  0  0  0  0  0  0  0  0  0
   17.0905   68.1505   -3.2908 H   0  0  0  0  0  0  0  0  0  0  0  0
 25 28  1  0
 25 24  1  0
 25 26  1  6
 25 27  2  0
  1  4  1  0
  1 24  1  0
  1  2  1  1
  1  3  2  0
  6 11  1  0
  6 12  1  0
 29 36  1  0
 29 37  1  0
  9  7  1  1
  7 13  1  0
 10  8  1  1
  8 14  1  0
 37 28  1  1
  4  5  1  0
 33 30  1  6
 30 38  1  0
 34 31  1  1
 31 39  1  0
 35 32  1  6
 32 40  1  0
 41 42  1  0
 41 43  1  0
 15 19  2  0
 16 22  2  0
 12 17  1  6
 17 19  1  0
 17 20  1  0
 18 19  1  0
 18 22  1  0
 18 23  1  0
  9 10  1  0
  9 11  1  0
 10 12  1  0
 11  5  1  1
 33 34  1  0
 33 35  1  0
 34 36  1  0
 35 37  1  0
 36 42  1  1
 20 21  2  0
 21 22  1  0
M  CHG  2   2  -1  26  -1
M  END
>  <COMPND>  (74) 
    8629 

>  <AUTHOR>  (74) 
    GENERATED BY OPEN BABEL 3.1.1

>  <MASTER>  (74) 
        0    0    0    0    0    0    0    0   58    0   58    0

>  <minimizedAffinity>  (74) 
-7.03725

>  <CNNscore>  (74) 
0.4268918335

>  <CNNaffinity>  (74) 
4.1996216774

>  <CNN_VS>  (74) 
1.7927842140

>  <CNNaffinity_variance>  (74) 
0.0988213271

$$$$
75
     RDKit          3D

 43 45  0  0  0  0  0  0  0  0999 V2000
   22.3892   72.6147   -3.4701 P   0  0  2  0  0  0  0  0  0  0  0  0
   23.8019   71.8774   -3.7496 O   0  0  0  0  0  0  0  0  0  0  0  0
   22.0063   73.6551   -4.4812 O   0  0  0  0  0  0  0  0  0  0  0  0
   22.5170   73.1329   -1.9427 O   0  0  0  0  0  0  0  0  0  0  0  0
   23.4739   72.5177   -1.0979 C   0  0  0  0  0  0  0  0  0  0  0  0
   22.7352   70.2943   -0.5646 O   0  0  0  0  0  0  0  0  0  0  0  0
   22.4800   71.2587    2.2630 O   0  0  0  0  0  0  0  0  0  0  0  0
   24.8436   69.8994    2.3097 O   0  0  0  0  0  0  0  0  0  0  0  0
   23.4510   71.6036    1.2764 C   0  0  1  0  0  0  0  0  0  0  0  0
   24.4308   70.4651    1.0824 C   0  0  2  0  0  0  0  0  0  0  0  0
   22.7494   71.6532   -0.0752 C   0  0  1  0  0  0  0  0  0  0  0  0
   23.6244   69.4965    0.2340 C   0  0  2  0  0  0  0  0  0  0  0  0
   22.9046   71.2212    3.1350 H   0  0  0  0  0  0  0  0  0  0  0  0
   25.3526   70.5541    2.8127 H   0  0  0  0  0  0  0  0  0  0  0  0
   24.2591   66.7781    0.6646 O   0  0  0  0  0  0  0  0  0  0  0  0
   26.8123   66.5779   -3.1672 O   0  0  0  0  0  0  0  0  0  0  0  0
   24.4526   68.7094   -0.6354 N   0  0  0  0  0  0  0  0  0  0  0  0
   25.5297   66.6806   -1.2438 N   0  0  0  0  0  0  0  0  0  0  0  0
   24.7105   67.3531   -0.3280 C   0  0  0  0  0  0  0  0  0  0  0  0
   24.9991   69.2829   -1.7783 C   0  0  0  0  0  0  0  0  0  0  0  0
   25.7794   68.6282   -2.6408 C   0  0  0  0  0  0  0  0  0  0  0  0
   26.0978   67.2072   -2.3930 C   0  0  0  0  0  0  0  0  0  0  0  0
   25.7234   65.7347   -1.0500 H   0  0  0  0  0  0  0  0  0  0  0  0
   21.3525   71.3803   -3.3494 O   0  0  0  0  0  0  0  0  0  0  0  0
   19.8287   71.3223   -2.8132 P   0  0  2  0  0  0  0  0  0  0  0  0
   19.4466   72.8815   -2.6118 O   0  0  0  0  0  0  0  0  0  0  0  0
   19.6392   70.4751   -1.5884 O   0  0  0  0  0  0  0  0  0  0  0  0
   18.9633   70.8524   -4.0920 O   0  0  0  0  0  0  0  0  0  0  0  0
   17.2869   72.1104   -5.1982 O   0  0  0  0  0  0  0  0  0  0  0  0
   15.8063   68.3128   -5.8594 O   0  0  0  0  0  0  0  0  0  0  0  0
   16.9755   69.7776   -8.0355 O   0  0  0  0  0  0  0  0  0  0  0  0
   17.0393   68.9603   -3.3217 O   0  0  0  0  0  0  0  0  0  0  0  0
   16.8239   69.3043   -5.6959 C   0  0  1  0  0  0  0  0  0  0  0  0
   16.6384   70.3656   -6.7821 C   0  0  1  0  0  0  0  0  0  0  0  0
   16.6947   69.9278   -4.3074 C   0  0  2  0  0  0  0  0  0  0  0  0
   17.5194   71.5931   -6.5136 C   0  0  1  0  0  0  0  0  0  0  0  0
   17.5756   71.1700   -4.1618 C   0  0  1  0  0  0  0  0  0  0  0  0
   15.8831   67.9126   -6.7389 H   0  0  0  0  0  0  0  0  0  0  0  0
   16.4124   69.0034   -8.1927 H   0  0  0  0  0  0  0  0  0  0  0  0
   16.4745   68.1791   -3.4243 H   0  0  0  0  0  0  0  0  0  0  0  0
   16.1585   72.3398   -8.3300 O   0  0  0  0  0  0  0  0  0  0  0  0
   17.2346   72.7274   -7.4957 C   0  0  0  0  0  0  0  0  0  0  0  0
   15.9659   73.0523   -8.9601 H   0  0  0  0  0  0  0  0  0  0  0  0
 25 28  1  0
 25 24  1  0
 25 26  1  1
 25 27  2  0
  1  4  1  0
  1 24  1  0
  1  2  1  6
  1  3  2  0
  6 11  1  0
  6 12  1  0
 29 36  1  0
 29 37  1  0
  9  7  1  1
  7 13  1  0
 10  8  1  1
  8 14  1  0
 37 28  1  6
  4  5  1  0
 33 30  1  6
 30 38  1  0
 34 31  1  6
 31 39  1  0
 35 32  1  1
 32 40  1  0
 41 42  1  0
 41 43  1  0
 15 19  2  0
 16 22  2  0
 12 17  1  6
 17 19  1  0
 17 20  1  0
 18 19  1  0
 18 22  1  0
 18 23  1  0
  9 10  1  0
  9 11  1  0
 10 12  1  0
 11  5  1  6
 33 34  1  0
 33 35  1  0
 34 36  1  0
 35 37  1  0
 36 42  1  6
 20 21  2  0
 21 22  1  0
M  CHG  2   2  -1  26  -1
M  END
>  <COMPND>  (75) 
    8629 

>  <AUTHOR>  (75) 
    GENERATED BY OPEN BABEL 3.1.1

>  <MASTER>  (75) 
        0    0    0    0    0    0    0    0   58    0   58    0

>  <minimizedAffinity>  (75) 
-8.32298

>  <CNNscore>  (75) 
0.4258880615

>  <CNNaffinity>  (75) 
4.1604628563

>  <CNN_VS>  (75) 
1.7718914747

>  <CNNaffinity_variance>  (75) 
0.4153991342

$$$$
76
     RDKit          3D

 43 45  0  0  0  0  0  0  0  0999 V2000
   22.7247   72.3692   -3.5841 P   0  0  2  0  0  0  0  0  0  0  0  0
   22.1925   70.8422   -3.5368 O   0  0  0  0  0  0  0  0  0  0  0  0
   24.1175   72.5388   -4.1159 O   0  0  0  0  0  0  0  0  0  0  0  0
   22.4752   72.9143   -2.0812 O   0  0  0  0  0  0  0  0  0  0  0  0
   23.4058   72.5638   -1.0717 C   0  0  0  0  0  0  0  0  0  0  0  0
   22.6771   70.3435   -0.5118 O   0  0  0  0  0  0  0  0  0  0  0  0
   22.4918   71.3196    2.3173 O   0  0  0  0  0  0  0  0  0  0  0  0
   24.8540   69.9571    2.3122 O   0  0  0  0  0  0  0  0  0  0  0  0
   23.4391   71.6591    1.3060 C   0  0  1  0  0  0  0  0  0  0  0  0
   24.4123   70.5185    1.0930 C   0  0  2  0  0  0  0  0  0  0  0  0
   22.7051   71.7044   -0.0283 C   0  0  1  0  0  0  0  0  0  0  0  0
   23.5843   69.5477    0.2683 C   0  0  2  0  0  0  0  0  0  0  0  0
   22.9373   71.2850    3.1789 H   0  0  0  0  0  0  0  0  0  0  0  0
   25.3759   70.6131    2.8001 H   0  0  0  0  0  0  0  0  0  0  0  0
   24.2635   66.8430    0.7172 O   0  0  0  0  0  0  0  0  0  0  0  0
   26.6831   66.6102   -3.1985 O   0  0  0  0  0  0  0  0  0  0  0  0
   24.3902   68.7559   -0.6177 N   0  0  0  0  0  0  0  0  0  0  0  0
   25.4676   66.7293   -1.2329 N   0  0  0  0  0  0  0  0  0  0  0  0
   24.6736   67.4073   -0.2992 C   0  0  0  0  0  0  0  0  0  0  0  0
   24.8900   69.3173   -1.7877 C   0  0  0  0  0  0  0  0  0  0  0  0
   25.6468   68.6575   -2.6671 C   0  0  0  0  0  0  0  0  0  0  0  0
   25.9892   67.2439   -2.4093 C   0  0  0  0  0  0  0  0  0  0  0  0
   25.6783   65.7886   -1.0318 H   0  0  0  0  0  0  0  0  0  0  0  0
   21.5812   73.1264   -4.4397 O   0  0  0  0  0  0  0  0  0  0  0  0
   21.2940   73.1619   -6.0300 P   0  0  2  0  0  0  0  0  0  0  0  0
   22.4091   72.1554   -6.6310 O   0  0  0  0  0  0  0  0  0  0  0  0
   21.3156   74.5386   -6.6286 O   0  0  0  0  0  0  0  0  0  0  0  0
   19.8959   72.3760   -6.2104 O   0  0  0  0  0  0  0  0  0  0  0  0
   19.0758   70.2779   -5.4742 O   0  0  0  0  0  0  0  0  0  0  0  0
   17.6687   70.2112   -9.3558 O   0  0  0  0  0  0  0  0  0  0  0  0
   15.8273   70.6007   -7.1865 O   0  0  0  0  0  0  0  0  0  0  0  0
   20.2782   71.3266   -8.7848 O   0  0  0  0  0  0  0  0  0  0  0  0
   18.0238   70.8148   -8.1088 C   0  0  1  0  0  0  0  0  0  0  0  0
   17.1755   70.1754   -7.0077 C   0  0  1  0  0  0  0  0  0  0  0  0
   19.5104   70.5809   -7.8464 C   0  0  2  0  0  0  0  0  0  0  0  0
   17.6819   70.5755   -5.6154 C   0  0  1  0  0  0  0  0  0  0  0  0
   19.8992   70.9660   -6.4179 C   0  0  1  0  0  0  0  0  0  0  0  0
   16.7261   70.3566   -9.5286 H   0  0  0  0  0  0  0  0  0  0  0  0
   15.5199   70.3423   -8.0697 H   0  0  0  0  0  0  0  0  0  0  0  0
   20.0229   71.0735   -9.6852 H   0  0  0  0  0  0  0  0  0  0  0  0
   16.1790   68.7940   -5.0898 O   0  0  0  0  0  0  0  0  0  0  0  0
   16.9508   69.8260   -4.5037 C   0  0  0  0  0  0  0  0  0  0  0  0
   15.7083   68.3081   -4.3940 H   0  0  0  0  0  0  0  0  0  0  0  0
 25 28  1  0
 25 24  1  0
 25 26  1  6
 25 27  2  0
  1  4  1  0
  1 24  1  0
  1  2  1  1
  1  3  2  0
  6 11  1  0
  6 12  1  0
 29 36  1  0
 29 37  1  0
  9  7  1  1
  7 13  1  0
 10  8  1  1
  8 14  1  0
 37 28  1  6
  4  5  1  0
 33 30  1  6
 30 38  1  0
 34 31  1  6
 31 39  1  0
 35 32  1  6
 32 40  1  0
 41 42  1  0
 41 43  1  0
 15 19  2  0
 16 22  2  0
 12 17  1  6
 17 19  1  0
 17 20  1  0
 18 19  1  0
 18 22  1  0
 18 23  1  0
  9 10  1  0
  9 11  1  0
 10 12  1  0
 11  5  1  6
 33 34  1  0
 33 35  1  0
 34 36  1  0
 35 37  1  0
 36 42  1  1
 20 21  2  0
 21 22  1  0
M  CHG  2   2  -1  26  -1
M  END
>  <COMPND>  (76) 
    8629 

>  <AUTHOR>  (76) 
    GENERATED BY OPEN BABEL 3.1.1

>  <MASTER>  (76) 
        0    0    0    0    0    0    0    0   58    0   58    0

>  <minimizedAffinity>  (76) 
-8.90073

>  <CNNscore>  (76) 
0.4050951302

>  <CNNaffinity>  (76) 
4.2684011459

>  <CNN_VS>  (76) 
1.7291085720

>  <CNNaffinity_variance>  (76) 
0.3048719764

$$$$
77
     RDKit          3D

 43 45  0  0  0  0  0  0  0  0999 V2000
   22.3773   72.5499   -3.4417 P   0  0  2  0  0  0  0  0  0  0  0  0
   23.8625   71.9455   -3.6575 O   0  0  0  0  0  0  0  0  0  0  0  0
   21.9720   73.6035   -4.4302 O   0  0  0  0  0  0  0  0  0  0  0  0
   22.3637   73.0016   -1.8881 O   0  0  0  0  0  0  0  0  0  0  0  0
   23.3627   72.4862   -1.0254 C   0  0  0  0  0  0  0  0  0  0  0  0
   22.7003   70.2527   -0.4369 O   0  0  0  0  0  0  0  0  0  0  0  0
   22.5364   71.2460    2.3875 O   0  0  0  0  0  0  0  0  0  0  0  0
   24.9323   69.9439    2.3534 O   0  0  0  0  0  0  0  0  0  0  0  0
   23.4581   71.6015    1.3581 C   0  0  1  0  0  0  0  0  0  0  0  0
   24.4565   70.4843    1.1375 C   0  0  2  0  0  0  0  0  0  0  0  0
   22.7014   71.6175    0.0358 C   0  0  1  0  0  0  0  0  0  0  0  0
   23.6402   69.4863    0.3339 C   0  0  2  0  0  0  0  0  0  0  0  0
   22.9967   71.2294    3.2418 H   0  0  0  0  0  0  0  0  0  0  0  0
   25.4452   70.6168    2.8277 H   0  0  0  0  0  0  0  0  0  0  0  0
   24.1960   66.7373    0.6681 O   0  0  0  0  0  0  0  0  0  0  0  0
   26.7662   66.6048   -3.1552 O   0  0  0  0  0  0  0  0  0  0  0  0
   24.4515   68.7083   -0.5594 N   0  0  0  0  0  0  0  0  0  0  0  0
   25.4752   66.6735   -1.2360 N   0  0  0  0  0  0  0  0  0  0  0  0
   24.6694   67.3351   -0.3005 C   0  0  0  0  0  0  0  0  0  0  0  0
   25.0209   69.3074   -1.6778 C   0  0  0  0  0  0  0  0  0  0  0  0
   25.7879   68.6628   -2.5596 C   0  0  0  0  0  0  0  0  0  0  0  0
   26.0648   67.2253   -2.3623 C   0  0  0  0  0  0  0  0  0  0  0  0
   25.6411   65.7161   -1.0759 H   0  0  0  0  0  0  0  0  0  0  0  0
   21.4440   71.2301   -3.4445 O   0  0  0  0  0  0  0  0  0  0  0  0
   19.8461   71.0596   -3.2694 P   0  0  2  0  0  0  0  0  0  0  0  0
   19.7102   70.2432   -1.8793 O   0  0  0  0  0  0  0  0  0  0  0  0
   19.1648   70.4093   -4.4386 O   0  0  0  0  0  0  0  0  0  0  0  0
   19.3123   72.5432   -2.9247 O   0  0  0  0  0  0  0  0  0  0  0  0
   18.4550   73.1449   -0.7988 O   0  0  0  0  0  0  0  0  0  0  0  0
   16.4838   75.9347   -3.1188 O   0  0  0  0  0  0  0  0  0  0  0  0
   18.6351   76.7754   -1.4121 O   0  0  0  0  0  0  0  0  0  0  0  0
   16.8676   73.2428   -4.1118 O   0  0  0  0  0  0  0  0  0  0  0  0
   17.5758   75.0921   -2.7408 C   0  0  1  0  0  0  0  0  0  0  0  0
   18.0241   75.4906   -1.3333 C   0  0  1  0  0  0  0  0  0  0  0  0
   17.1149   73.6360   -2.7662 C   0  0  2  0  0  0  0  0  0  0  0  0
   19.0084   74.4654   -0.7543 C   0  0  1  0  0  0  0  0  0  0  0  0
   18.1453   72.7061   -2.1229 C   0  0  1  0  0  0  0  0  0  0  0  0
   16.7699   76.8606   -3.1051 H   0  0  0  0  0  0  0  0  0  0  0  0
   18.0033   77.4133   -1.7796 H   0  0  0  0  0  0  0  0  0  0  0  0
   16.2136   73.8389   -4.5077 H   0  0  0  0  0  0  0  0  0  0  0  0
   18.5242   75.8205    1.1530 O   0  0  0  0  0  0  0  0  0  0  0  0
   19.3465   74.7584    0.7058 C   0  0  0  0  0  0  0  0  0  0  0  0
   18.7282   76.0178    2.0811 H   0  0  0  0  0  0  0  0  0  0  0  0
 25 28  1  0
 25 24  1  0
 25 26  1  1
 25 27  2  0
  1  4  1  0
  1 24  1  0
  1  2  1  6
  1  3  2  0
  6 11  1  0
  6 12  1  0
 29 36  1  0
 29 37  1  0
  9  7  1  1
  7 13  1  0
 10  8  1  1
  8 14  1  0
 37 28  1  6
  4  5  1  0
 33 30  1  1
 30 38  1  0
 34 31  1  6
 31 39  1  0
 35 32  1  6
 32 40  1  0
 41 42  1  0
 41 43  1  0
 15 19  2  0
 16 22  2  0
 12 17  1  6
 17 19  1  0
 17 20  1  0
 18 19  1  0
 18 22  1  0
 18 23  1  0
  9 10  1  0
  9 11  1  0
 10 12  1  0
 11  5  1  6
 33 34  1  0
 33 35  1  0
 34 36  1  0
 35 37  1  0
 36 42  1  1
 20 21  2  0
 21 22  1  0
M  CHG  2   2  -1  26  -1
M  END
>  <COMPND>  (77) 
    8629 

>  <AUTHOR>  (77) 
    GENERATED BY OPEN BABEL 3.1.1

>  <MASTER>  (77) 
        0    0    0    0    0    0    0    0   58    0   58    0

>  <minimizedAffinity>  (77) 
-6.15875

>  <CNNscore>  (77) 
0.4013781846

>  <CNNaffinity>  (77) 
4.1284770966

>  <CNN_VS>  (77) 
1.6570806503

>  <CNNaffinity_variance>  (77) 
0.1116696373

$$$$
78
     RDKit          3D

 43 45  0  0  0  0  0  0  0  0999 V2000
   18.7251   72.9321   -1.6410 P   0  0  2  0  0  0  0  0  0  0  0  0
   19.2080   74.4758   -1.6771 O   0  0  0  0  0  0  0  0  0  0  0  0
   17.2380   72.7337   -1.6143 O   0  0  0  0  0  0  0  0  0  0  0  0
   19.5409   72.2990   -0.3954 O   0  0  0  0  0  0  0  0  0  0  0  0
   20.2845   73.1702    0.4387 C   0  0  0  0  0  0  0  0  0  0  0  0
   21.1818   71.1912    1.4644 O   0  0  0  0  0  0  0  0  0  0  0  0
   21.3632   72.8059    3.9845 O   0  0  0  0  0  0  0  0  0  0  0  0
   23.9323   72.8396    3.0707 O   0  0  0  0  0  0  0  0  0  0  0  0
   21.5703   73.2155    2.6337 C   0  0  1  0  0  0  0  0  0  0  0  0
   22.8955   72.6902    2.1223 C   0  0  2  0  0  0  0  0  0  0  0  0
   20.5725   72.4675    1.7583 C   0  0  1  0  0  0  0  0  0  0  0  0
   22.5687   71.2340    1.8379 C   0  0  2  0  0  0  0  0  0  0  0  0
   21.9890   73.2707    4.5626 H   0  0  0  0  0  0  0  0  0  0  0  0
   24.1031   73.7831    3.2173 H   0  0  0  0  0  0  0  0  0  0  0  0
   25.0674   69.9619    2.1782 O   0  0  0  0  0  0  0  0  0  0  0  0
   25.5049   69.2057   -2.3470 O   0  0  0  0  0  0  0  0  0  0  0  0
   23.3571   70.6949    0.7660 N   0  0  0  0  0  0  0  0  0  0  0  0
   25.2831   69.5863   -0.0753 N   0  0  0  0  0  0  0  0  0  0  0  0
   24.5985   70.0768    1.0440 C   0  0  0  0  0  0  0  0  0  0  0  0
   22.8977   70.7817   -0.5437 C   0  0  0  0  0  0  0  0  0  0  0  0
   23.5632   70.3101   -1.6001 C   0  0  0  0  0  0  0  0  0  0  0  0
   24.8687   69.6496   -1.3962 C   0  0  0  0  0  0  0  0  0  0  0  0
   26.1505   69.1519    0.0941 H   0  0  0  0  0  0  0  0  0  0  0  0
   19.4666   72.2892   -2.9254 O   0  0  0  0  0  0  0  0  0  0  0  0
   19.4638   70.7815   -3.5083 P   0  0  2  0  0  0  0  0  0  0  0  0
   18.5224   69.9816   -2.4636 O   0  0  0  0  0  0  0  0  0  0  0  0
   20.8314   70.1889   -3.6886 O   0  0  0  0  0  0  0  0  0  0  0  0
   18.5887   70.8684   -4.8617 O   0  0  0  0  0  0  0  0  0  0  0  0
   19.2479   71.6462   -7.0011 O   0  0  0  0  0  0  0  0  0  0  0  0
   15.3082   72.8825   -7.0345 O   0  0  0  0  0  0  0  0  0  0  0  0
   16.1105   70.6593   -8.6659 O   0  0  0  0  0  0  0  0  0  0  0  0
   16.8567   73.0602   -4.5952 O   0  0  0  0  0  0  0  0  0  0  0  0
   16.3984   72.0136   -6.7156 C   0  0  1  0  0  0  0  0  0  0  0  0
   17.0312   71.5377   -8.0247 C   0  0  1  0  0  0  0  0  0  0  0  0
   17.4171   72.7793   -5.8733 C   0  0  2  0  0  0  0  0  0  0  0  0
   18.3633   70.8205   -7.7676 C   0  0  1  0  0  0  0  0  0  0  0  0
   18.7236   71.9986   -5.7194 C   0  0  1  0  0  0  0  0  0  0  0  0
   14.6575   72.4023   -7.5688 H   0  0  0  0  0  0  0  0  0  0  0  0
   15.2734   71.1242   -8.8221 H   0  0  0  0  0  0  0  0  0  0  0  0
   16.0303   73.5548   -4.7062 H   0  0  0  0  0  0  0  0  0  0  0  0
   18.6003   71.3240  -10.0912 O   0  0  0  0  0  0  0  0  0  0  0  0
   19.0880   70.4768   -9.0672 C   0  0  0  0  0  0  0  0  0  0  0  0
   19.0529   71.1168  -10.9243 H   0  0  0  0  0  0  0  0  0  0  0  0
 25 28  1  0
 25 24  1  0
 25 26  1  1
 25 27  2  0
  1  4  1  0
  1 24  1  0
  1  2  1  6
  1  3  2  0
  6 11  1  0
  6 12  1  0
 29 36  1  0
 29 37  1  0
  9  7  1  1
  7 13  1  0
 10  8  1  1
  8 14  1  0
 37 28  1  1
  4  5  1  0
 33 30  1  6
 30 38  1  0
 34 31  1  1
 31 39  1  0
 35 32  1  1
 32 40  1  0
 41 42  1  0
 41 43  1  0
 15 19  2  0
 16 22  2  0
 12 17  1  6
 17 19  1  0
 17 20  1  0
 18 19  1  0
 18 22  1  0
 18 23  1  0
  9 10  1  0
  9 11  1  0
 10 12  1  0
 11  5  1  6
 33 34  1  0
 33 35  1  0
 34 36  1  0
 35 37  1  0
 36 42  1  6
 20 21  2  0
 21 22  1  0
M  CHG  2   2  -1  26  -1
M  END
>  <COMPND>  (78) 
    8629 

>  <AUTHOR>  (78) 
    GENERATED BY OPEN BABEL 3.1.1

>  <MASTER>  (78) 
        0    0    0    0    0    0    0    0   58    0   58    0

>  <minimizedAffinity>  (78) 
-7.27195

>  <CNNscore>  (78) 
0.3942960203

>  <CNNaffinity>  (78) 
3.9585533142

>  <CNN_VS>  (78) 
1.5608417988

>  <CNNaffinity_variance>  (78) 
0.1978862584

$$$$
79
     RDKit          3D

 43 45  0  0  0  0  0  0  0  0999 V2000
   22.2971   73.4264   -5.2587 P   0  0  2  0  0  0  0  0  0  0  0  0
   22.3795   75.0408   -5.3255 O   0  0  0  0  0  0  0  0  0  0  0  0
   23.1206   72.7068   -6.2860 O   0  0  0  0  0  0  0  0  0  0  0  0
   20.7092   73.1170   -5.2886 O   0  0  0  0  0  0  0  0  0  0  0  0
   19.8154   74.1262   -4.8522 C   0  0  0  0  0  0  0  0  0  0  0  0
   18.6086   73.4735   -6.8249 O   0  0  0  0  0  0  0  0  0  0  0  0
   17.3344   76.1856   -6.7155 O   0  0  0  0  0  0  0  0  0  0  0  0
   15.4011   74.5775   -5.6605 O   0  0  0  0  0  0  0  0  0  0  0  0
   17.7150   75.3237   -5.6442 C   0  0  1  0  0  0  0  0  0  0  0  0
   16.7465   74.1649   -5.5322 C   0  0  2  0  0  0  0  0  0  0  0  0
   19.0067   74.6212   -6.0434 C   0  0  1  0  0  0  0  0  0  0  0  0
   17.1944   73.2683   -6.6739 C   0  0  2  0  0  0  0  0  0  0  0  0
   16.5119   76.6456   -6.4836 H   0  0  0  0  0  0  0  0  0  0  0  0
   15.1640   75.1453   -4.9107 H   0  0  0  0  0  0  0  0  0  0  0  0
   15.6344   71.5783   -8.3134 O   0  0  0  0  0  0  0  0  0  0  0  0
   16.3267   67.9546   -5.5511 O   0  0  0  0  0  0  0  0  0  0  0  0
   16.9507   71.8788   -6.4071 N   0  0  0  0  0  0  0  0  0  0  0  0
   15.9805   69.7753   -6.9368 N   0  0  0  0  0  0  0  0  0  0  0  0
   16.1522   71.1189   -7.2934 C   0  0  0  0  0  0  0  0  0  0  0  0
   17.5012   71.2831   -5.2775 C   0  0  0  0  0  0  0  0  0  0  0  0
   17.3269   70.0008   -4.9509 C   0  0  0  0  0  0  0  0  0  0  0  0
   16.5058   69.1375   -5.8241 C   0  0  0  0  0  0  0  0  0  0  0  0
   15.4276   69.2266   -7.5392 H   0  0  0  0  0  0  0  0  0  0  0  0
   22.7012   73.1049   -3.7270 O   0  0  0  0  0  0  0  0  0  0  0  0
   22.7719   71.7067   -2.9189 P   0  0  2  0  0  0  0  0  0  0  0  0
   24.2441   71.1424   -3.2820 O   0  0  0  0  0  0  0  0  0  0  0  0
   21.6508   70.7582   -3.2309 O   0  0  0  0  0  0  0  0  0  0  0  0
   22.8717   72.1368   -1.3664 O   0  0  0  0  0  0  0  0  0  0  0  0
   23.0382   69.9655   -0.4314 O   0  0  0  0  0  0  0  0  0  0  0  0
   24.0694   72.1943    2.8883 O   0  0  0  0  0  0  0  0  0  0  0  0
   26.0905   70.6976    1.5016 O   0  0  0  0  0  0  0  0  0  0  0  0
   21.9936   73.1366    1.1043 O   0  0  0  0  0  0  0  0  0  0  0  0
   24.0136   71.8839    1.4933 C   0  0  1  0  0  0  0  0  0  0  0  0
   24.6936   70.5307    1.2756 C   0  0  1  0  0  0  0  0  0  0  0  0
   22.5522   71.8283    1.0523 C   0  0  2  0  0  0  0  0  0  0  0  0
   24.4410   70.0058   -0.1442 C   0  0  1  0  0  0  0  0  0  0  0  0
   22.4086   71.2459   -0.3549 C   0  0  1  0  0  0  0  0  0  0  0  0
   24.9947   72.2316    3.1745 H   0  0  0  0  0  0  0  0  0  0  0  0
   26.2363   71.0299    2.4013 H   0  0  0  0  0  0  0  0  0  0  0  0
   22.0904   73.4941    2.0002 H   0  0  0  0  0  0  0  0  0  0  0  0
   24.2544   67.7180    0.5191 O   0  0  0  0  0  0  0  0  0  0  0  0
   24.9759   68.5880   -0.3334 C   0  0  0  0  0  0  0  0  0  0  0  0
   24.5840   66.8118    0.4091 H   0  0  0  0  0  0  0  0  0  0  0  0
 25 28  1  0
 25 24  1  0
 25 26  1  6
 25 27  2  0
  1  4  1  0
  1 24  1  0
  1  2  1  6
  1  3  2  0
  6 11  1  0
  6 12  1  0
 29 36  1  0
 29 37  1  0
  9  7  1  6
  7 13  1  0
 10  8  1  6
  8 14  1  0
 37 28  1  6
  4  5  1  0
 33 30  1  1
 30 38  1  0
 34 31  1  6
 31 39  1  0
 35 32  1  6
 32 40  1  0
 41 42  1  0
 41 43  1  0
 15 19  2  0
 16 22  2  0
 12 17  1  1
 17 19  1  0
 17 20  1  0
 18 19  1  0
 18 22  1  0
 18 23  1  0
  9 10  1  0
  9 11  1  0
 10 12  1  0
 11  5  1  1
 33 34  1  0
 33 35  1  0
 34 36  1  0
 35 37  1  0
 36 42  1  1
 20 21  2  0
 21 22  1  0
M  CHG  2   2  -1  26  -1
M  END
>  <COMPND>  (79) 
    8629 

>  <AUTHOR>  (79) 
    GENERATED BY OPEN BABEL 3.1.1

>  <MASTER>  (79) 
        0    0    0    0    0    0    0    0   58    0   58    0

>  <minimizedAffinity>  (79) 
-6.59418

>  <CNNscore>  (79) 
0.3761188388

>  <CNNaffinity>  (79) 
4.0992555618

>  <CNN_VS>  (79) 
1.5418072939

>  <CNNaffinity_variance>  (79) 
0.3009343743

$$$$
80
     RDKit          3D

 43 45  0  0  0  0  0  0  0  0999 V2000
   23.5033   71.9870   -3.2056 P   0  0  2  0  0  0  0  0  0  0  0  0
   24.0688   70.4887   -2.9758 O   0  0  0  0  0  0  0  0  0  0  0  0
   24.4790   72.9448   -3.8238 O   0  0  0  0  0  0  0  0  0  0  0  0
   22.9258   72.4109   -1.7548 O   0  0  0  0  0  0  0  0  0  0  0  0
   23.8139   72.4230   -0.6508 C   0  0  0  0  0  0  0  0  0  0  0  0
   24.1730   71.4691    1.5252 O   0  0  0  0  0  0  0  0  0  0  0  0
   21.6557   69.9103    1.0513 O   0  0  0  0  0  0  0  0  0  0  0  0
   20.8072   71.9304    2.6749 O   0  0  0  0  0  0  0  0  0  0  0  0
   21.9790   71.2432    0.6585 C   0  0  1  0  0  0  0  0  0  0  0  0
   21.9332   72.1699    1.8554 C   0  0  2  0  0  0  0  0  0  0  0  0
   23.4560   71.2774    0.2860 C   0  0  1  0  0  0  0  0  0  0  0  0
   23.2435   71.8478    2.5536 C   0  0  2  0  0  0  0  0  0  0  0  0
   20.7170   69.8635    1.2935 H   0  0  0  0  0  0  0  0  0  0  0  0
   19.9988   72.1503    2.1861 H   0  0  0  0  0  0  0  0  0  0  0  0
   22.4298   72.6166    5.1468 O   0  0  0  0  0  0  0  0  0  0  0  0
   25.3457   76.1852    5.2025 O   0  0  0  0  0  0  0  0  0  0  0  0
   23.7738   72.9736    3.2697 N   0  0  0  0  0  0  0  0  0  0  0  0
   23.8825   74.3927    5.1725 N   0  0  0  0  0  0  0  0  0  0  0  0
   23.2961   73.2742    4.5666 C   0  0  0  0  0  0  0  0  0  0  0  0
   24.7564   73.7658    2.6861 C   0  0  0  0  0  0  0  0  0  0  0  0
   25.3045   74.8298    3.2767 C   0  0  0  0  0  0  0  0  0  0  0  0
   24.8613   75.2122    4.6329 C   0  0  0  0  0  0  0  0  0  0  0  0
   23.5651   74.6216    6.0762 H   0  0  0  0  0  0  0  0  0  0  0  0
   22.1616   71.7401   -4.0727 O   0  0  0  0  0  0  0  0  0  0  0  0
   21.3702   72.7036   -5.1014 P   0  0  2  0  0  0  0  0  0  0  0  0
   22.2934   72.6667   -6.4294 O   0  0  0  0  0  0  0  0  0  0  0  0
   21.1029   74.0825   -4.5711 O   0  0  0  0  0  0  0  0  0  0  0  0
   20.0457   71.8729   -5.5024 O   0  0  0  0  0  0  0  0  0  0  0  0
   18.8566   71.7253   -7.5470 O   0  0  0  0  0  0  0  0  0  0  0  0
   15.6671   71.6878   -4.9246 O   0  0  0  0  0  0  0  0  0  0  0  0
   16.4022   69.2749   -6.2978 O   0  0  0  0  0  0  0  0  0  0  0  0
   17.9549   73.3795   -4.3917 O   0  0  0  0  0  0  0  0  0  0  0  0
   16.9964   71.3951   -5.3638 C   0  0  1  0  0  0  0  0  0  0  0  0
   16.9060   70.5621   -6.6438 C   0  0  1  0  0  0  0  0  0  0  0  0
   17.7353   72.7060   -5.6265 C   0  0  2  0  0  0  0  0  0  0  0  0
   18.2778   70.4349   -7.3200 C   0  0  1  0  0  0  0  0  0  0  0  0
   19.0647   72.4707   -6.3458 C   0  0  1  0  0  0  0  0  0  0  0  0
   15.1927   70.8596   -4.7556 H   0  0  0  0  0  0  0  0  0  0  0  0
   15.5360   69.3694   -5.8713 H   0  0  0  0  0  0  0  0  0  0  0  0
   17.1058   73.5228   -3.9462 H   0  0  0  0  0  0  0  0  0  0  0  0
   19.4467   69.8259   -9.3129 O   0  0  0  0  0  0  0  0  0  0  0  0
   18.1840   69.7429   -8.6782 C   0  0  0  0  0  0  0  0  0  0  0  0
   19.4021   69.3893  -10.1784 H   0  0  0  0  0  0  0  0  0  0  0  0
 25 28  1  0
 25 24  1  0
 25 26  1  6
 25 27  2  0
  1  4  1  0
  1 24  1  0
  1  2  1  1
  1  3  2  0
  6 11  1  0
  6 12  1  0
 29 36  1  0
 29 37  1  0
  9  7  1  1
  7 13  1  0
 10  8  1  1
  8 14  1  0
 37 28  1  1
  4  5  1  0
 33 30  1  6
 30 38  1  0
 34 31  1  1
 31 39  1  0
 35 32  1  1
 32 40  1  0
 41 42  1  0
 41 43  1  0
 15 19  2  0
 16 22  2  0
 12 17  1  6
 17 19  1  0
 17 20  1  0
 18 19  1  0
 18 22  1  0
 18 23  1  0
  9 10  1  0
  9 11  1  0
 10 12  1  0
 11  5  1  6
 33 34  1  0
 33 35  1  0
 34 36  1  0
 35 37  1  0
 36 42  1  6
 20 21  2  0
 21 22  1  0
M  CHG  2   2  -1  26  -1
M  END
>  <COMPND>  (80) 
    8629 

>  <AUTHOR>  (80) 
    GENERATED BY OPEN BABEL 3.1.1

>  <MASTER>  (80) 
        0    0    0    0    0    0    0    0   58    0   58    0

>  <minimizedAffinity>  (80) 
-6.67062

>  <CNNscore>  (80) 
0.3584577441

>  <CNNaffinity>  (80) 
3.8748340607

>  <CNN_VS>  (80) 
1.3889642954

>  <CNNaffinity_variance>  (80) 
0.1639874876

$$$$
81
     RDKit          3D

 43 45  0  0  0  0  0  0  0  0999 V2000
   22.1060   71.7051   -1.9886 P   0  0  2  0  0  0  0  0  0  0  0  0
   21.2111   72.6275   -1.0058 O   0  0  0  0  0  0  0  0  0  0  0  0
   22.7629   72.4378   -3.1213 O   0  0  0  0  0  0  0  0  0  0  0  0
   21.1060   70.5062   -2.4133 O   0  0  0  0  0  0  0  0  0  0  0  0
   20.4996   70.5529   -3.6931 C   0  0  0  0  0  0  0  0  0  0  0  0
   18.6585   71.6587   -4.7709 O   0  0  0  0  0  0  0  0  0  0  0  0
   16.9179   70.3869   -2.6867 O   0  0  0  0  0  0  0  0  0  0  0  0
   16.5172   68.7828   -4.8554 O   0  0  0  0  0  0  0  0  0  0  0  0
   18.0763   69.8651   -3.3357 C   0  0  1  0  0  0  0  0  0  0  0  0
   17.7479   69.4707   -4.7606 C   0  0  2  0  0  0  0  0  0  0  0  0
   19.0563   71.0134   -3.5413 C   0  0  1  0  0  0  0  0  0  0  0  0
   17.7202   70.8180   -5.4620 C   0  0  2  0  0  0  0  0  0  0  0  0
   16.2775   69.6717   -2.5443 H   0  0  0  0  0  0  0  0  0  0  0  0
   16.5856   67.9323   -4.3941 H   0  0  0  0  0  0  0  0  0  0  0  0
   15.9890   70.0396   -7.5536 O   0  0  0  0  0  0  0  0  0  0  0  0
   19.3090   70.4958  -10.7176 O   0  0  0  0  0  0  0  0  0  0  0  0
   18.1057   70.7251   -6.8419 N   0  0  0  0  0  0  0  0  0  0  0  0
   17.6434   70.2676   -9.1274 N   0  0  0  0  0  0  0  0  0  0  0  0
   17.1600   70.3235   -7.8139 C   0  0  0  0  0  0  0  0  0  0  0  0
   19.4087   71.0308   -7.2195 C   0  0  0  0  0  0  0  0  0  0  0  0
   19.8543   70.9713   -8.4761 C   0  0  0  0  0  0  0  0  0  0  0  0
   18.9296   70.5604   -9.5524 C   0  0  0  0  0  0  0  0  0  0  0  0
   17.0024   69.9899   -9.8215 H   0  0  0  0  0  0  0  0  0  0  0  0
   23.1319   70.9796   -0.9718 O   0  0  0  0  0  0  0  0  0  0  0  0
   22.9455   70.4973    0.5598 P   0  0  2  0  0  0  0  0  0  0  0  0
   24.1991   69.5008    0.7902 O   0  0  0  0  0  0  0  0  0  0  0  0
   21.6062   69.8859    0.8537 O   0  0  0  0  0  0  0  0  0  0  0  0
   23.2939   71.8018    1.4441 O   0  0  0  0  0  0  0  0  0  0  0  0
   23.8608   73.9608    0.6479 O   0  0  0  0  0  0  0  0  0  0  0  0
   26.0883   73.9337    4.1247 O   0  0  0  0  0  0  0  0  0  0  0  0
   23.7245   75.5573    3.9678 O   0  0  0  0  0  0  0  0  0  0  0  0
   25.8649   71.5254    2.5342 O   0  0  0  0  0  0  0  0  0  0  0  0
   24.9651   73.6263    3.2945 C   0  0  1  0  0  0  0  0  0  0  0  0
   24.3334   74.9421    2.8359 C   0  0  1  0  0  0  0  0  0  0  0  0
   25.4405   72.8108    2.0935 C   0  0  2  0  0  0  0  0  0  0  0  0
   23.2928   74.7025    1.7337 C   0  0  1  0  0  0  0  0  0  0  0  0
   24.3448   72.6732    1.0349 C   0  0  1  0  0  0  0  0  0  0  0  0
   25.7933   74.4511    4.8894 H   0  0  0  0  0  0  0  0  0  0  0  0
   24.3922   75.7026    4.6565 H   0  0  0  0  0  0  0  0  0  0  0  0
   26.5587   71.6262    3.2038 H   0  0  0  0  0  0  0  0  0  0  0  0
   21.7596   76.5136    2.0132 O   0  0  0  0  0  0  0  0  0  0  0  0
   22.7645   76.0117    1.1515 C   0  0  0  0  0  0  0  0  0  0  0  0
   21.4143   77.3469    1.6554 H   0  0  0  0  0  0  0  0  0  0  0  0
 25 28  1  0
 25 24  1  0
 25 26  1  1
 25 27  2  0
  1  4  1  0
  1 24  1  0
  1  2  1  1
  1  3  2  0
  6 11  1  0
  6 12  1  0
 29 36  1  0
 29 37  1  0
  9  7  1  6
  7 13  1  0
 10  8  1  1
  8 14  1  0
 37 28  1  1
  4  5  1  0
 33 30  1  1
 30 38  1  0
 34 31  1  1
 31 39  1  0
 35 32  1  1
 32 40  1  0
 41 42  1  0
 41 43  1  0
 15 19  2  0
 16 22  2  0
 12 17  1  6
 17 19  1  0
 17 20  1  0
 18 19  1  0
 18 22  1  0
 18 23  1  0
  9 10  1  0
  9 11  1  0
 10 12  1  0
 11  5  1  6
 33 34  1  0
 33 35  1  0
 34 36  1  0
 35 37  1  0
 36 42  1  6
 20 21  2  0
 21 22  1  0
M  CHG  2   2  -1  26  -1
M  END
>  <COMPND>  (81) 
    8629 

>  <AUTHOR>  (81) 
    GENERATED BY OPEN BABEL 3.1.1

>  <MASTER>  (81) 
        0    0    0    0    0    0    0    0   58    0   58    0

>  <minimizedAffinity>  (81) 
-7.05078

>  <CNNscore>  (81) 
0.8150323629

>  <CNNaffinity>  (81) 
4.6014785767

>  <CNN_VS>  (81) 
3.7503540516

>  <CNNaffinity_variance>  (81) 
0.0854493231

$$$$
82
     RDKit          3D

 43 45  0  0  0  0  0  0  0  0999 V2000
   21.9002   71.7273   -3.1641 P   0  0  2  0  0  0  0  0  0  0  0  0
   22.0299   73.2158   -3.7845 O   0  0  0  0  0  0  0  0  0  0  0  0
   23.2034   71.0175   -2.9421 O   0  0  0  0  0  0  0  0  0  0  0  0
   20.8550   70.9848   -4.1511 O   0  0  0  0  0  0  0  0  0  0  0  0
   20.0062   69.9874   -3.6102 C   0  0  0  0  0  0  0  0  0  0  0  0
   18.3331   71.3042   -4.7239 O   0  0  0  0  0  0  0  0  0  0  0  0
   16.3514   69.9924   -2.8955 O   0  0  0  0  0  0  0  0  0  0  0  0
   16.0267   68.6027   -5.2193 O   0  0  0  0  0  0  0  0  0  0  0  0
   17.5230   69.4450   -3.4980 C   0  0  1  0  0  0  0  0  0  0  0  0
   17.2870   69.1922   -4.9724 C   0  0  2  0  0  0  0  0  0  0  0  0
   18.5877   70.5344   -3.5285 C   0  0  1  0  0  0  0  0  0  0  0  0
   17.4023   70.5908   -5.5543 C   0  0  2  0  0  0  0  0  0  0  0  0
   15.6572   69.3148   -2.8646 H   0  0  0  0  0  0  0  0  0  0  0  0
   16.0030   67.7147   -4.8298 H   0  0  0  0  0  0  0  0  0  0  0  0
   15.7843   70.2038   -7.8369 O   0  0  0  0  0  0  0  0  0  0  0  0
   19.3898   70.5822  -10.6826 O   0  0  0  0  0  0  0  0  0  0  0  0
   17.8920   70.5838   -6.9040 N   0  0  0  0  0  0  0  0  0  0  0  0
   17.5808   70.3928   -9.2520 N   0  0  0  0  0  0  0  0  0  0  0  0
   16.9960   70.3800   -7.9792 C   0  0  0  0  0  0  0  0  0  0  0  0
   19.2467   70.7780   -7.1507 C   0  0  0  0  0  0  0  0  0  0  0  0
   19.7888   70.7860   -8.3702 C   0  0  0  0  0  0  0  0  0  0  0  0
   18.9216   70.5804   -9.5483 C   0  0  0  0  0  0  0  0  0  0  0  0
   16.9760   70.2524  -10.0163 H   0  0  0  0  0  0  0  0  0  0  0  0
   21.0278   71.9666   -1.8245 O   0  0  0  0  0  0  0  0  0  0  0  0
   21.2283   72.9997   -0.5976 P   0  0  2  0  0  0  0  0  0  0  0  0
   20.1151   72.5224    0.4751 O   0  0  0  0  0  0  0  0  0  0  0  0
   21.1312   74.4459   -0.9887 O   0  0  0  0  0  0  0  0  0  0  0  0
   22.6389   72.5791    0.0643 O   0  0  0  0  0  0  0  0  0  0  0  0
   22.7837   70.3039    0.7118 O   0  0  0  0  0  0  0  0  0  0  0  0
   26.0923   71.7681    2.7018 O   0  0  0  0  0  0  0  0  0  0  0  0
   26.4501   70.1223    0.3755 O   0  0  0  0  0  0  0  0  0  0  0  0
   23.6769   73.3564    2.5530 O   0  0  0  0  0  0  0  0  0  0  0  0
   25.1463   71.6846    1.6325 C   0  0  1  0  0  0  0  0  0  0  0  0
   25.2040   70.2709    1.0503 C   0  0  1  0  0  0  0  0  0  0  0  0
   23.7508   71.9857    2.1760 C   0  0  2  0  0  0  0  0  0  0  0  0
   24.0392   70.0224    0.0825 C   0  0  1  0  0  0  0  0  0  0  0  0
   22.6629   71.6581    1.1517 C   0  0  1  0  0  0  0  0  0  0  0  0
   26.9805   71.5784    2.3633 H   0  0  0  0  0  0  0  0  0  0  0  0
   27.1772   70.2823    0.9976 H   0  0  0  0  0  0  0  0  0  0  0  0
   24.3704   73.5511    3.2018 H   0  0  0  0  0  0  0  0  0  0  0  0
   24.5146   67.7470    0.6350 O   0  0  0  0  0  0  0  0  0  0  0  0
   23.9867   68.5706   -0.3883 C   0  0  0  0  0  0  0  0  0  0  0  0
   24.4872   66.8199    0.3494 H   0  0  0  0  0  0  0  0  0  0  0  0
 25 28  1  0
 25 24  1  0
 25 26  1  1
 25 27  2  0
  1  4  1  0
  1 24  1  0
  1  2  1  6
  1  3  2  0
  6 11  1  0
  6 12  1  0
 29 36  1  0
 29 37  1  0
  9  7  1  6
  7 13  1  0
 10  8  1  1
  8 14  1  0
 37 28  1  6
  4  5  1  0
 33 30  1  1
 30 38  1  0
 34 31  1  6
 31 39  1  0
 35 32  1  6
 32 40  1  0
 41 42  1  0
 41 43  1  0
 15 19  2  0
 16 22  2  0
 12 17  1  6
 17 19  1  0
 17 20  1  0
 18 19  1  0
 18 22  1  0
 18 23  1  0
  9 10  1  0
  9 11  1  0
 10 12  1  0
 11  5  1  6
 33 34  1  0
 33 35  1  0
 34 36  1  0
 35 37  1  0
 36 42  1  1
 20 21  2  0
 21 22  1  0
M  CHG  2   2  -1  26  -1
M  END
>  <COMPND>  (82) 
    8629 

>  <AUTHOR>  (82) 
    GENERATED BY OPEN BABEL 3.1.1

>  <MASTER>  (82) 
        0    0    0    0    0    0    0    0   58    0   58    0

>  <minimizedAffinity>  (82) 
-7.37222

>  <CNNscore>  (82) 
0.8015934229

>  <CNNaffinity>  (82) 
4.6544218063

>  <CNN_VS>  (82) 
3.7309539318

>  <CNNaffinity_variance>  (82) 
0.0152928308

$$$$
83
     RDKit          3D

 43 45  0  0  0  0  0  0  0  0999 V2000
   21.3463   72.9564   -4.5820 P   0  0  2  0  0  0  0  0  0  0  0  0
   21.4272   74.5632   -4.7524 O   0  0  0  0  0  0  0  0  0  0  0  0
   22.0833   72.1703   -5.6262 O   0  0  0  0  0  0  0  0  0  0  0  0
   19.7603   72.6574   -4.4667 O   0  0  0  0  0  0  0  0  0  0  0  0
   19.3190   71.7079   -3.5120 C   0  0  0  0  0  0  0  0  0  0  0  0
   17.4136   71.8973   -4.9637 O   0  0  0  0  0  0  0  0  0  0  0  0
   15.9499   70.2231   -2.9524 O   0  0  0  0  0  0  0  0  0  0  0  0
   16.5677   68.4127   -4.8959 O   0  0  0  0  0  0  0  0  0  0  0  0
   17.3131   70.1496   -3.3666 C   0  0  1  0  0  0  0  0  0  0  0  0
   17.4106   69.5372   -4.7483 C   0  0  2  0  0  0  0  0  0  0  0  0
   17.8060   71.5701   -3.6127 C   0  0  1  0  0  0  0  0  0  0  0  0
   16.9978   70.6980   -5.6372 C   0  0  2  0  0  0  0  0  0  0  0  0
   15.6130   69.3277   -2.7889 H   0  0  0  0  0  0  0  0  0  0  0  0
   16.8713   67.7017   -4.3102 H   0  0  0  0  0  0  0  0  0  0  0  0
   15.5997   70.4368   -8.0775 O   0  0  0  0  0  0  0  0  0  0  0  0
   19.5000   70.5155  -10.5316 O   0  0  0  0  0  0  0  0  0  0  0  0
   17.6228   70.6480   -6.9288 N   0  0  0  0  0  0  0  0  0  0  0  0
   17.5429   70.4764   -9.2975 N   0  0  0  0  0  0  0  0  0  0  0  0
   16.8299   70.5143   -8.0924 C   0  0  0  0  0  0  0  0  0  0  0  0
   19.0071   70.7315   -7.0325 C   0  0  0  0  0  0  0  0  0  0  0  0
   19.6717   70.6926   -8.1892 C   0  0  0  0  0  0  0  0  0  0  0  0
   18.9179   70.5544   -9.4520 C   0  0  0  0  0  0  0  0  0  0  0  0
   17.0114   70.3833  -10.1213 H   0  0  0  0  0  0  0  0  0  0  0  0
   21.8706   72.7243   -3.0706 O   0  0  0  0  0  0  0  0  0  0  0  0
   23.3545   72.4474   -2.4925 P   0  0  2  0  0  0  0  0  0  0  0  0
   24.0984   73.8715   -2.6823 O   0  0  0  0  0  0  0  0  0  0  0  0
   24.0599   71.2895   -3.1373 O   0  0  0  0  0  0  0  0  0  0  0  0
   23.1513   72.3029   -0.8979 O   0  0  0  0  0  0  0  0  0  0  0  0
   21.7454   73.9785    0.0145 O   0  0  0  0  0  0  0  0  0  0  0  0
   23.2559   72.4038    3.5201 O   0  0  0  0  0  0  0  0  0  0  0  0
   20.5283   71.8796    2.7897 O   0  0  0  0  0  0  0  0  0  0  0  0
   24.9710   72.6807    1.2047 O   0  0  0  0  0  0  0  0  0  0  0  0
   22.7870   72.3641    2.1696 C   0  0  1  0  0  0  0  0  0  0  0  0
   21.3399   72.8603    2.1496 C   0  0  1  0  0  0  0  0  0  0  0  0
   23.6743   73.2592    1.3066 C   0  0  2  0  0  0  0  0  0  0  0  0
   20.8561   73.0994    0.7130 C   0  0  1  0  0  0  0  0  0  0  0  0
   23.0778   73.4719   -0.0859 C   0  0  1  0  0  0  0  0  0  0  0  0
   22.6970   71.8371    4.0733 H   0  0  0  0  0  0  0  0  0  0  0  0
   20.8447   71.7376    3.6958 H   0  0  0  0  0  0  0  0  0  0  0  0
   25.3380   72.5514    2.0927 H   0  0  0  0  0  0  0  0  0  0  0  0
   19.2097   74.3196    1.9417 O   0  0  0  0  0  0  0  0  0  0  0  0
   19.4718   73.7432    0.6754 C   0  0  0  0  0  0  0  0  0  0  0  0
   18.3320   74.7334    1.9325 H   0  0  0  0  0  0  0  0  0  0  0  0
 25 28  1  0
 25 24  1  0
 25 26  1  1
 25 27  2  0
  1  4  1  0
  1 24  1  0
  1  2  1  6
  1  3  2  0
  6 11  1  0
  6 12  1  0
 29 36  1  0
 29 37  1  0
  9  7  1  6
  7 13  1  0
 10  8  1  1
  8 14  1  0
 37 28  1  1
  4  5  1  0
 33 30  1  1
 30 38  1  0
 34 31  1  6
 31 39  1  0
 35 32  1  6
 32 40  1  0
 41 42  1  0
 41 43  1  0
 15 19  2  0
 16 22  2  0
 12 17  1  6
 17 19  1  0
 17 20  1  0
 18 19  1  0
 18 22  1  0
 18 23  1  0
  9 10  1  0
  9 11  1  0
 10 12  1  0
 11  5  1  6
 33 34  1  0
 33 35  1  0
 34 36  1  0
 35 37  1  0
 36 42  1  1
 20 21  2  0
 21 22  1  0
M  CHG  2   2  -1  26  -1
M  END
>  <COMPND>  (83) 
    8629 

>  <AUTHOR>  (83) 
    GENERATED BY OPEN BABEL 3.1.1

>  <MASTER>  (83) 
        0    0    0    0    0    0    0    0   58    0   58    0

>  <minimizedAffinity>  (83) 
-6.59401

>  <CNNscore>  (83) 
0.7844722271

>  <CNNaffinity>  (83) 
4.4467697144

>  <CNN_VS>  (83) 
3.4883673191

>  <CNNaffinity_variance>  (83) 
0.0279460009

$$$$
84
     RDKit          3D

 43 45  0  0  0  0  0  0  0  0999 V2000
   22.3006   71.2768   -1.9902 P   0  0  2  0  0  0  0  0  0  0  0  0
   21.9176   72.8303   -1.7507 O   0  0  0  0  0  0  0  0  0  0  0  0
   23.5021   71.0471   -2.8591 O   0  0  0  0  0  0  0  0  0  0  0  0
   20.9201   70.6121   -2.5102 O   0  0  0  0  0  0  0  0  0  0  0  0
   20.4285   70.9850   -3.7858 C   0  0  0  0  0  0  0  0  0  0  0  0
   18.5163   71.8850   -4.9290 O   0  0  0  0  0  0  0  0  0  0  0  0
   16.8634   70.6092   -2.7770 O   0  0  0  0  0  0  0  0  0  0  0  0
   16.5969   68.8564   -4.8491 O   0  0  0  0  0  0  0  0  0  0  0  0
   18.0615   70.1390   -3.3927 C   0  0  1  0  0  0  0  0  0  0  0  0
   17.7720   69.6391   -4.7926 C   0  0  2  0  0  0  0  0  0  0  0  0
   18.9539   71.3439   -3.6634 C   0  0  1  0  0  0  0  0  0  0  0  0
   17.6477   70.9376   -5.5715 C   0  0  2  0  0  0  0  0  0  0  0  0
   16.2775   69.8573   -2.5942 H   0  0  0  0  0  0  0  0  0  0  0  0
   16.7260   68.0417   -4.3389 H   0  0  0  0  0  0  0  0  0  0  0  0
   15.9303   70.1102   -7.6557 O   0  0  0  0  0  0  0  0  0  0  0  0
   19.2904   70.4208  -10.7948 O   0  0  0  0  0  0  0  0  0  0  0  0
   18.0473   70.7940   -6.9430 N   0  0  0  0  0  0  0  0  0  0  0  0
   17.6047   70.2657   -9.2171 N   0  0  0  0  0  0  0  0  0  0  0  0
   17.1075   70.3712   -7.9118 C   0  0  0  0  0  0  0  0  0  0  0  0
   19.3580   71.0714   -7.3156 C   0  0  0  0  0  0  0  0  0  0  0  0
   19.8167   70.9646   -8.5644 C   0  0  0  0  0  0  0  0  0  0  0  0
   18.8991   70.5289   -9.6368 C   0  0  0  0  0  0  0  0  0  0  0  0
   16.9681   69.9725   -9.9088 H   0  0  0  0  0  0  0  0  0  0  0  0
   22.4377   70.7002   -0.4864 O   0  0  0  0  0  0  0  0  0  0  0  0
   23.2414   71.2643    0.7977 P   0  0  2  0  0  0  0  0  0  0  0  0
   24.5903   71.8798    0.1501 O   0  0  0  0  0  0  0  0  0  0  0  0
   23.4804   70.2427    1.8715 O   0  0  0  0  0  0  0  0  0  0  0  0
   22.3946   72.5522    1.2762 O   0  0  0  0  0  0  0  0  0  0  0  0
   21.6848   72.6808    3.5337 O   0  0  0  0  0  0  0  0  0  0  0  0
   19.0414   75.3734    1.8566 O   0  0  0  0  0  0  0  0  0  0  0  0
   21.1965   76.3344    3.4937 O   0  0  0  0  0  0  0  0  0  0  0  0
   19.7541   72.9637    0.4196 O   0  0  0  0  0  0  0  0  0  0  0  0
   20.2918   74.6954    2.0051 C   0  0  1  0  0  0  0  0  0  0  0  0
   20.8178   74.9629    3.4166 C   0  0  1  0  0  0  0  0  0  0  0  0
   20.0773   73.1989    1.7859 C   0  0  2  0  0  0  0  0  0  0  0  0
   22.0144   74.0591    3.7425 C   0  0  1  0  0  0  0  0  0  0  0  0
   21.3103   72.3870    2.1864 C   0  0  1  0  0  0  0  0  0  0  0  0
   19.1707   76.3242    1.9941 H   0  0  0  0  0  0  0  0  0  0  0  0
   20.4321   76.8944    3.2853 H   0  0  0  0  0  0  0  0  0  0  0  0
   18.9718   73.4831    0.1785 H   0  0  0  0  0  0  0  0  0  0  0  0
   22.0284   73.0485    5.9075 O   0  0  0  0  0  0  0  0  0  0  0  0
   22.4555   74.1967    5.1980 C   0  0  0  0  0  0  0  0  0  0  0  0
   22.3025   73.1220    6.8355 H   0  0  0  0  0  0  0  0  0  0  0  0
 25 28  1  0
 25 24  1  0
 25 26  1  6
 25 27  2  0
  1  4  1  0
  1 24  1  0
  1  2  1  1
  1  3  2  0
  6 11  1  0
  6 12  1  0
 29 36  1  0
 29 37  1  0
  9  7  1  6
  7 13  1  0
 10  8  1  1
  8 14  1  0
 37 28  1  6
  4  5  1  0
 33 30  1  1
 30 38  1  0
 34 31  1  6
 31 39  1  0
 35 32  1  6
 32 40  1  0
 41 42  1  0
 41 43  1  0
 15 19  2  0
 16 22  2  0
 12 17  1  6
 17 19  1  0
 17 20  1  0
 18 19  1  0
 18 22  1  0
 18 23  1  0
  9 10  1  0
  9 11  1  0
 10 12  1  0
 11  5  1  6
 33 34  1  0
 33 35  1  0
 34 36  1  0
 35 37  1  0
 36 42  1  1
 20 21  2  0
 21 22  1  0
M  CHG  2   2  -1  26  -1
M  END
>  <COMPND>  (84) 
    8629 

>  <AUTHOR>  (84) 
    GENERATED BY OPEN BABEL 3.1.1

>  <MASTER>  (84) 
        0    0    0    0    0    0    0    0   58    0   58    0

>  <minimizedAffinity>  (84) 
-6.65552

>  <CNNscore>  (84) 
0.7462388873

>  <CNNaffinity>  (84) 
4.4749126434

>  <CNN_VS>  (84) 
3.3393537998

>  <CNNaffinity_variance>  (84) 
0.0746784806

$$$$
85
     RDKit          3D

 43 45  0  0  0  0  0  0  0  0999 V2000
   20.7888   72.6384   -1.5506 P   0  0  2  0  0  0  0  0  0  0  0  0
   21.4670   71.2027   -1.2402 O   0  0  0  0  0  0  0  0  0  0  0  0
   20.9486   73.6626   -0.4658 O   0  0  0  0  0  0  0  0  0  0  0  0
   19.2648   72.2698   -1.9500 O   0  0  0  0  0  0  0  0  0  0  0  0
   18.9780   71.9517   -3.3007 C   0  0  0  0  0  0  0  0  0  0  0  0
   17.1894   72.2982   -4.8675 O   0  0  0  0  0  0  0  0  0  0  0  0
   15.4709   70.7452   -2.9633 O   0  0  0  0  0  0  0  0  0  0  0  0
   16.0609   68.8939   -4.8768 O   0  0  0  0  0  0  0  0  0  0  0  0
   16.8471   70.5616   -3.2918 C   0  0  1  0  0  0  0  0  0  0  0  0
   16.9813   69.9458   -4.6689 C   0  0  2  0  0  0  0  0  0  0  0  0
   17.4682   71.9377   -3.4968 C   0  0  1  0  0  0  0  0  0  0  0  0
   16.7209   71.1379   -5.5739 C   0  0  2  0  0  0  0  0  0  0  0  0
   15.0529   69.8799   -2.8274 H   0  0  0  0  0  0  0  0  0  0  0  0
   16.2684   68.1595   -4.2781 H   0  0  0  0  0  0  0  0  0  0  0  0
   15.6173   70.0560   -7.9381 O   0  0  0  0  0  0  0  0  0  0  0  0
   19.4956   70.8097  -10.3113 O   0  0  0  0  0  0  0  0  0  0  0  0
   17.4198   71.0395   -6.8242 N   0  0  0  0  0  0  0  0  0  0  0  0
   17.5492   70.4323   -9.1179 N   0  0  0  0  0  0  0  0  0  0  0  0
   16.7752   70.4787   -7.9514 C   0  0  0  0  0  0  0  0  0  0  0  0
   18.7295   71.4962   -6.9238 C   0  0  0  0  0  0  0  0  0  0  0  0
   19.4543   71.4436   -8.0432 C   0  0  0  0  0  0  0  0  0  0  0  0
   18.8550   70.8722   -9.2665 C   0  0  0  0  0  0  0  0  0  0  0  0
   17.1210   70.0454   -9.9158 H   0  0  0  0  0  0  0  0  0  0  0  0
   21.4461   73.0519   -2.9683 O   0  0  0  0  0  0  0  0  0  0  0  0
   22.9705   73.4134   -3.3665 P   0  0  2  0  0  0  0  0  0  0  0  0
   23.5766   71.9911   -3.8435 O   0  0  0  0  0  0  0  0  0  0  0  0
   23.7501   74.0830   -2.2721 O   0  0  0  0  0  0  0  0  0  0  0  0
   22.8442   74.2783   -4.7233 O   0  0  0  0  0  0  0  0  0  0  0  0
   21.0570   75.1037   -6.0428 O   0  0  0  0  0  0  0  0  0  0  0  0
   23.4580   73.6032   -9.0486 O   0  0  0  0  0  0  0  0  0  0  0  0
   23.2318   76.4449   -8.6999 O   0  0  0  0  0  0  0  0  0  0  0  0
   23.2194   72.1745   -6.5423 O   0  0  0  0  0  0  0  0  0  0  0  0
   23.1802   74.2318   -7.7943 C   0  0  1  0  0  0  0  0  0  0  0  0
   22.3727   75.5031   -8.0635 C   0  0  1  0  0  0  0  0  0  0  0  0
   22.3858   73.2659   -6.9171 C   0  0  2  0  0  0  0  0  0  0  0  0
   21.8099   76.0881   -6.7611 C   0  0  1  0  0  0  0  0  0  0  0  0
   21.8298   73.9602   -5.6726 C   0  0  1  0  0  0  0  0  0  0  0  0
   23.9627   74.2111   -9.6101 H   0  0  0  0  0  0  0  0  0  0  0  0
   23.5808   76.0630   -9.5206 H   0  0  0  0  0  0  0  0  0  0  0  0
   23.5648   71.7432   -7.3389 H   0  0  0  0  0  0  0  0  0  0  0  0
   19.7654   76.8003   -7.7720 O   0  0  0  0  0  0  0  0  0  0  0  0
   20.8720   77.2649   -7.0210 C   0  0  0  0  0  0  0  0  0  0  0  0
   19.1598   77.5385   -7.9447 H   0  0  0  0  0  0  0  0  0  0  0  0
 25 28  1  0
 25 24  1  0
 25 26  1  6
 25 27  2  0
  1  4  1  0
  1 24  1  0
  1  2  1  1
  1  3  2  0
  6 11  1  0
  6 12  1  0
 29 36  1  0
 29 37  1  0
  9  7  1  6
  7 13  1  0
 10  8  1  1
  8 14  1  0
 37 28  1  1
  4  5  1  0
 33 30  1  6
 30 38  1  0
 34 31  1  1
 31 39  1  0
 35 32  1  1
 32 40  1  0
 41 42  1  0
 41 43  1  0
 15 19  2  0
 16 22  2  0
 12 17  1  6
 17 19  1  0
 17 20  1  0
 18 19  1  0
 18 22  1  0
 18 23  1  0
  9 10  1  0
  9 11  1  0
 10 12  1  0
 11  5  1  6
 33 34  1  0
 33 35  1  0
 34 36  1  0
 35 37  1  0
 36 42  1  6
 20 21  2  0
 21 22  1  0
M  CHG  2   2  -1  26  -1
M  END
>  <COMPND>  (85) 
    8629 

>  <AUTHOR>  (85) 
    GENERATED BY OPEN BABEL 3.1.1

>  <MASTER>  (85) 
        0    0    0    0    0    0    0    0   58    0   58    0

>  <minimizedAffinity>  (85) 
-6.46459

>  <CNNscore>  (85) 
0.7302065492

>  <CNNaffinity>  (85) 
4.4062891006

>  <CNN_VS>  (85) 
3.2175011635

>  <CNNaffinity_variance>  (85) 
0.2167983502

$$$$
86
     RDKit          3D

 43 45  0  0  0  0  0  0  0  0999 V2000
   22.7443   71.8216   -2.4308 P   0  0  2  0  0  0  0  0  0  0  0  0
   22.1259   73.3062   -2.6063 O   0  0  0  0  0  0  0  0  0  0  0  0
   23.9218   71.5176   -3.3097 O   0  0  0  0  0  0  0  0  0  0  0  0
   21.4661   70.8452   -2.6060 O   0  0  0  0  0  0  0  0  0  0  0  0
   20.7880   70.8357   -3.8501 C   0  0  0  0  0  0  0  0  0  0  0  0
   18.8299   71.7999   -4.8552 O   0  0  0  0  0  0  0  0  0  0  0  0
   17.2889   70.5480   -2.6082 O   0  0  0  0  0  0  0  0  0  0  0  0
   16.8354   68.8247   -4.6724 O   0  0  0  0  0  0  0  0  0  0  0  0
   18.4295   70.0514   -3.3066 C   0  0  1  0  0  0  0  0  0  0  0  0
   18.0333   69.5741   -4.6882 C   0  0  2  0  0  0  0  0  0  0  0  0
   19.3356   71.2338   -3.6262 C   0  0  1  0  0  0  0  0  0  0  0  0
   17.8940   70.8834   -5.4460 C   0  0  2  0  0  0  0  0  0  0  0  0
   16.6955   69.8108   -2.3929 H   0  0  0  0  0  0  0  0  0  0  0  0
   16.9752   68.0015   -4.1789 H   0  0  0  0  0  0  0  0  0  0  0  0
   16.0021   70.1989   -7.4284 O   0  0  0  0  0  0  0  0  0  0  0  0
   19.1703   70.3716  -10.7712 O   0  0  0  0  0  0  0  0  0  0  0  0
   18.1970   70.7430   -6.8423 N   0  0  0  0  0  0  0  0  0  0  0  0
   17.5811   70.2856   -9.0913 N   0  0  0  0  0  0  0  0  0  0  0  0
   17.1744   70.3951   -7.7554 C   0  0  0  0  0  0  0  0  0  0  0  0
   19.4960   70.9499   -7.2938 C   0  0  0  0  0  0  0  0  0  0  0  0
   19.8677   70.8404   -8.5709 C   0  0  0  0  0  0  0  0  0  0  0  0
   18.8599   70.4802   -9.5890 C   0  0  0  0  0  0  0  0  0  0  0  0
   16.8857   70.0438   -9.7453 H   0  0  0  0  0  0  0  0  0  0  0  0
   23.0493   71.7400   -0.8455 O   0  0  0  0  0  0  0  0  0  0  0  0
   23.4269   70.4841    0.0996 P   0  0  2  0  0  0  0  0  0  0  0  0
   21.9986   70.0422    0.7177 O   0  0  0  0  0  0  0  0  0  0  0  0
   24.4807   70.7818    1.1267 O   0  0  0  0  0  0  0  0  0  0  0  0
   23.8102   69.3001   -0.9282 O   0  0  0  0  0  0  0  0  0  0  0  0
   24.9162   67.4774    0.1068 O   0  0  0  0  0  0  0  0  0  0  0  0
   25.5908   66.4992   -3.8478 O   0  0  0  0  0  0  0  0  0  0  0  0
   23.7059   64.9718   -2.3110 O   0  0  0  0  0  0  0  0  0  0  0  0
   25.6949   69.2672   -3.0070 O   0  0  0  0  0  0  0  0  0  0  0  0
   24.8499   67.0271   -2.7443 C   0  0  1  0  0  0  0  0  0  0  0  0
   24.6223   65.8991   -1.7360 C   0  0  1  0  0  0  0  0  0  0  0  0
   25.6455   68.1650   -2.1075 C   0  0  2  0  0  0  0  0  0  0  0  0
   24.0713   66.4432   -0.4111 C   0  0  1  0  0  0  0  0  0  0  0  0
   25.0406   68.5982   -0.7709 C   0  0  1  0  0  0  0  0  0  0  0  0
   25.0909   65.7766   -4.2569 H   0  0  0  0  0  0  0  0  0  0  0  0
   24.0655   64.6361   -3.1472 H   0  0  0  0  0  0  0  0  0  0  0  0
   26.0801   68.9801   -3.8491 H   0  0  0  0  0  0  0  0  0  0  0  0
   24.5471   65.8648    1.8578 O   0  0  0  0  0  0  0  0  0  0  0  0
   23.9853   65.3589    0.6608 C   0  0  0  0  0  0  0  0  0  0  0  0
   24.4990   65.1855    2.5492 H   0  0  0  0  0  0  0  0  0  0  0  0
 25 28  1  0
 25 24  1  0
 25 26  1  1
 25 27  2  0
  1  4  1  0
  1 24  1  0
  1  2  1  1
  1  3  2  0
  6 11  1  0
  6 12  1  0
 29 36  1  0
 29 37  1  0
  9  7  1  1
  7 13  1  0
 10  8  1  1
  8 14  1  0
 37 28  1  6
  4  5  1  0
 33 30  1  6
 30 38  1  0
 34 31  1  6
 31 39  1  0
 35 32  1  6
 32 40  1  0
 41 42  1  0
 41 43  1  0
 15 19  2  0
 16 22  2  0
 12 17  1  6
 17 19  1  0
 17 20  1  0
 18 19  1  0
 18 22  1  0
 18 23  1  0
  9 10  1  0
  9 11  1  0
 10 12  1  0
 11  5  1  6
 33 34  1  0
 33 35  1  0
 34 36  1  0
 35 37  1  0
 36 42  1  1
 20 21  2  0
 21 22  1  0
M  CHG  2   2  -1  26  -1
M  END
>  <COMPND>  (86) 
    8629 

>  <AUTHOR>  (86) 
    GENERATED BY OPEN BABEL 3.1.1

>  <MASTER>  (86) 
        0    0    0    0    0    0    0    0   58    0   58    0

>  <minimizedAffinity>  (86) 
-9.63332

>  <CNNscore>  (86) 
0.7120720744

>  <CNNaffinity>  (86) 
4.9526829720

>  <CNN_VS>  (86) 
3.5266673565

>  <CNNaffinity_variance>  (86) 
0.0484435931

$$$$
87
     RDKit          3D

 43 45  0  0  0  0  0  0  0  0999 V2000
   22.6090   71.4927   -2.1140 P   0  0  2  0  0  0  0  0  0  0  0  0
   22.0487   72.4622   -0.9464 O   0  0  0  0  0  0  0  0  0  0  0  0
   23.5465   72.1471   -3.0857 O   0  0  0  0  0  0  0  0  0  0  0  0
   21.2724   70.8443   -2.7552 O   0  0  0  0  0  0  0  0  0  0  0  0
   20.7189   71.4438   -3.9137 C   0  0  0  0  0  0  0  0  0  0  0  0
   18.6446   72.0567   -4.9603 O   0  0  0  0  0  0  0  0  0  0  0  0
   17.2950   70.7218   -2.6392 O   0  0  0  0  0  0  0  0  0  0  0  0
   17.1018   68.8389   -4.6022 O   0  0  0  0  0  0  0  0  0  0  0  0
   18.4975   70.3576   -3.3150 C   0  0  1  0  0  0  0  0  0  0  0  0
   18.1785   69.7518   -4.6659 C   0  0  2  0  0  0  0  0  0  0  0  0
   19.2235   71.6392   -3.7045 C   0  0  1  0  0  0  0  0  0  0  0  0
   17.8530   70.9829   -5.4944 C   0  0  2  0  0  0  0  0  0  0  0  0
   16.8142   69.9196   -2.3802 H   0  0  0  0  0  0  0  0  0  0  0  0
   17.3581   68.0734   -4.0646 H   0  0  0  0  0  0  0  0  0  0  0  0
   16.0701   69.9663   -7.4349 O   0  0  0  0  0  0  0  0  0  0  0  0
   19.2057   70.3636  -10.7893 O   0  0  0  0  0  0  0  0  0  0  0  0
   18.1771   70.8104   -6.8824 N   0  0  0  0  0  0  0  0  0  0  0  0
   17.6328   70.1651   -9.1036 N   0  0  0  0  0  0  0  0  0  0  0  0
   17.2100   70.2909   -7.7741 C   0  0  0  0  0  0  0  0  0  0  0  0
   19.4418   71.1551   -7.3468 C   0  0  0  0  0  0  0  0  0  0  0  0
   19.8297   71.0279   -8.6174 C   0  0  0  0  0  0  0  0  0  0  0  0
   18.8791   70.4927   -9.6134 C   0  0  0  0  0  0  0  0  0  0  0  0
   16.9759   69.8049   -9.7428 H   0  0  0  0  0  0  0  0  0  0  0  0
   23.2498   70.2605   -1.2869 O   0  0  0  0  0  0  0  0  0  0  0  0
   23.2542   69.9327    0.2959 P   0  0  2  0  0  0  0  0  0  0  0  0
   24.1409   68.5828    0.3928 O   0  0  0  0  0  0  0  0  0  0  0  0
   21.8866   69.8203    0.9049 O   0  0  0  0  0  0  0  0  0  0  0  0
   24.1846   71.0791    0.9479 O   0  0  0  0  0  0  0  0  0  0  0  0
   25.4076   71.3120    2.9645 O   0  0  0  0  0  0  0  0  0  0  0  0
   23.6127   75.0289    2.8485 O   0  0  0  0  0  0  0  0  0  0  0  0
   26.4232   74.7940    2.3065 O   0  0  0  0  0  0  0  0  0  0  0  0
   22.1388   72.6866    1.9996 O   0  0  0  0  0  0  0  0  0  0  0  0
   24.2220   73.8585    2.2969 C   0  0  1  0  0  0  0  0  0  0  0  0
   25.6385   73.7430    2.8633 C   0  0  1  0  0  0  0  0  0  0  0  0
   23.3894   72.6357    2.6778 C   0  0  2  0  0  0  0  0  0  0  0  0
   26.2587   72.3793    2.5307 C   0  0  1  0  0  0  0  0  0  0  0  0
   24.1181   71.3315    2.3490 C   0  0  1  0  0  0  0  0  0  0  0  0
   24.1362   75.8090    2.6099 H   0  0  0  0  0  0  0  0  0  0  0  0
   26.0205   75.6496    2.5234 H   0  0  0  0  0  0  0  0  0  0  0  0
   21.6872   73.5166    2.2161 H   0  0  0  0  0  0  0  0  0  0  0  0
   28.3799   71.2830    2.4430 O   0  0  0  0  0  0  0  0  0  0  0  0
   27.6079   72.1815    3.2182 C   0  0  0  0  0  0  0  0  0  0  0  0
   29.2416   71.1479    2.8684 H   0  0  0  0  0  0  0  0  0  0  0  0
 25 28  1  0
 25 24  1  0
 25 26  1  6
 25 27  2  0
  1  4  1  0
  1 24  1  0
  1  2  1  1
  1  3  2  0
  6 11  1  0
  6 12  1  0
 29 36  1  0
 29 37  1  0
  9  7  1  6
  7 13  1  0
 10  8  1  1
  8 14  1  0
 37 28  1  6
  4  5  1  0
 33 30  1  1
 30 38  1  0
 34 31  1  6
 31 39  1  0
 35 32  1  6
 32 40  1  0
 41 42  1  0
 41 43  1  0
 15 19  2  0
 16 22  2  0
 12 17  1  6
 17 19  1  0
 17 20  1  0
 18 19  1  0
 18 22  1  0
 18 23  1  0
  9 10  1  0
  9 11  1  0
 10 12  1  0
 11  5  1  6
 33 34  1  0
 33 35  1  0
 34 36  1  0
 35 37  1  0
 36 42  1  1
 20 21  2  0
 21 22  1  0
M  CHG  2   2  -1  26  -1
M  END
>  <COMPND>  (87) 
    8629 

>  <AUTHOR>  (87) 
    GENERATED BY OPEN BABEL 3.1.1

>  <MASTER>  (87) 
        0    0    0    0    0    0    0    0   58    0   58    0

>  <minimizedAffinity>  (87) 
-7.30804

>  <CNNscore>  (87) 
0.6769614816

>  <CNNaffinity>  (87) 
4.4971160889

>  <CNN_VS>  (87) 
3.0443744659

>  <CNNaffinity_variance>  (87) 
0.0988700688

$$$$
88
     RDKit          3D

 43 45  0  0  0  0  0  0  0  0999 V2000
   21.9814   72.8655   -5.9660 P   0  0  2  0  0  0  0  0  0  0  0  0
   21.5478   74.4242   -5.9677 O   0  0  0  0  0  0  0  0  0  0  0  0
   23.0636   72.5076   -6.9418 O   0  0  0  0  0  0  0  0  0  0  0  0
   20.5824   72.0730   -6.1465 O   0  0  0  0  0  0  0  0  0  0  0  0
   19.8289   72.2916   -7.3264 C   0  0  0  0  0  0  0  0  0  0  0  0
   18.7390   70.2363   -6.7250 O   0  0  0  0  0  0  0  0  0  0  0  0
   18.1655   69.9026   -9.6491 O   0  0  0  0  0  0  0  0  0  0  0  0
   15.7867   70.8154   -8.6772 O   0  0  0  0  0  0  0  0  0  0  0  0
   18.1945   71.0946   -8.8657 C   0  0  1  0  0  0  0  0  0  0  0  0
   16.9650   71.1752   -7.9852 C   0  0  2  0  0  0  0  0  0  0  0  0
   19.3120   70.9545   -7.8395 C   0  0  1  0  0  0  0  0  0  0  0  0
   17.3100   70.2004   -6.8722 C   0  0  2  0  0  0  0  0  0  0  0  0
   17.4597   69.9687  -10.3120 H   0  0  0  0  0  0  0  0  0  0  0  0
   15.6098   71.4658   -9.3747 H   0  0  0  0  0  0  0  0  0  0  0  0
   16.7602   68.3801   -4.7836 O   0  0  0  0  0  0  0  0  0  0  0  0
   14.9782   71.6920   -2.1196 O   0  0  0  0  0  0  0  0  0  0  0  0
   16.7032   70.5599   -5.6216 N   0  0  0  0  0  0  0  0  0  0  0  0
   15.8735   70.0306   -3.4588 N   0  0  0  0  0  0  0  0  0  0  0  0
   16.4693   69.5693   -4.6395 C   0  0  0  0  0  0  0  0  0  0  0  0
   16.3471   71.8821   -5.3789 C   0  0  0  0  0  0  0  0  0  0  0  0
   15.7785   72.3055   -4.2481 C   0  0  0  0  0  0  0  0  0  0  0  0
   15.5001   71.3339   -3.1709 C   0  0  0  0  0  0  0  0  0  0  0  0
   15.7007   69.3582   -2.7604 H   0  0  0  0  0  0  0  0  0  0  0  0
   22.3555   72.5940   -4.4171 O   0  0  0  0  0  0  0  0  0  0  0  0
   23.5457   73.1806   -3.4939 P   0  0  2  0  0  0  0  0  0  0  0  0
   22.8984   74.5219   -2.8619 O   0  0  0  0  0  0  0  0  0  0  0  0
   24.8388   73.4018   -4.2240 O   0  0  0  0  0  0  0  0  0  0  0  0
   23.6453   72.1526   -2.2536 O   0  0  0  0  0  0  0  0  0  0  0  0
   24.0256   69.8180   -2.4000 O   0  0  0  0  0  0  0  0  0  0  0  0
   21.7483   69.9010    1.0436 O   0  0  0  0  0  0  0  0  0  0  0  0
   24.5650   69.3680    1.2188 O   0  0  0  0  0  0  0  0  0  0  0  0
   21.1084   71.6734   -1.1537 O   0  0  0  0  0  0  0  0  0  0  0  0
   22.7110   70.3905    0.1060 C   0  0  1  0  0  0  0  0  0  0  0  0
   23.8374   69.3612   -0.0063 C   0  0  1  0  0  0  0  0  0  0  0  0
   22.0315   70.5938   -1.2469 C   0  0  2  0  0  0  0  0  0  0  0  0
   24.7684   69.6851   -1.1825 C   0  0  1  0  0  0  0  0  0  0  0  0
   23.0504   70.8615   -2.3561 C   0  0  1  0  0  0  0  0  0  0  0  0
   22.1733   69.7702    1.9049 H   0  0  0  0  0  0  0  0  0  0  0  0
   23.9655   69.1626    1.9534 H   0  0  0  0  0  0  0  0  0  0  0  0
   20.4686   71.4917   -0.4484 H   0  0  0  0  0  0  0  0  0  0  0  0
   26.3717   68.7637   -2.6957 O   0  0  0  0  0  0  0  0  0  0  0  0
   25.8053   68.5873   -1.4102 C   0  0  0  0  0  0  0  0  0  0  0  0
   27.0337   68.0722   -2.8543 H   0  0  0  0  0  0  0  0  0  0  0  0
 25 28  1  0
 25 24  1  0
 25 26  1  1
 25 27  2  0
  1  4  1  0
  1 24  1  0
  1  2  1  1
  1  3  2  0
  6 11  1  0
  6 12  1  0
 29 36  1  0
 29 37  1  0
  9  7  1  6
  7 13  1  0
 10  8  1  6
  8 14  1  0
 37 28  1  1
  4  5  1  0
 33 30  1  1
 30 38  1  0
 34 31  1  1
 31 39  1  0
 35 32  1  1
 32 40  1  0
 41 42  1  0
 41 43  1  0
 15 19  2  0
 16 22  2  0
 12 17  1  1
 17 19  1  0
 17 20  1  0
 18 19  1  0
 18 22  1  0
 18 23  1  0
  9 10  1  0
  9 11  1  0
 10 12  1  0
 11  5  1  1
 33 34  1  0
 33 35  1  0
 34 36  1  0
 35 37  1  0
 36 42  1  6
 20 21  2  0
 21 22  1  0
M  CHG  2   2  -1  26  -1
M  END
>  <COMPND>  (88) 
    8629 

>  <AUTHOR>  (88) 
    GENERATED BY OPEN BABEL 3.1.1

>  <MASTER>  (88) 
        0    0    0    0    0    0    0    0   58    0   58    0

>  <minimizedAffinity>  (88) 
-8.79292

>  <CNNscore>  (88) 
0.6439373493

>  <CNNaffinity>  (88) 
4.3848152161

>  <CNN_VS>  (88) 
2.8235461712

>  <CNNaffinity_variance>  (88) 
0.4330535829

$$$$
89
     RDKit          3D

 43 45  0  0  0  0  0  0  0  0999 V2000
   21.8758   72.8497   -5.6199 P   0  0  2  0  0  0  0  0  0  0  0  0
   21.2820   74.3449   -5.7910 O   0  0  0  0  0  0  0  0  0  0  0  0
   23.2118   72.6209   -6.2633 O   0  0  0  0  0  0  0  0  0  0  0  0
   20.6756   71.8940   -6.1338 O   0  0  0  0  0  0  0  0  0  0  0  0
   20.0565   72.1931   -7.3728 C   0  0  0  0  0  0  0  0  0  0  0  0
   18.9510   70.1155   -6.8877 O   0  0  0  0  0  0  0  0  0  0  0  0
   18.2451   70.0267   -9.8006 O   0  0  0  0  0  0  0  0  0  0  0  0
   15.9299   70.8999   -8.6542 O   0  0  0  0  0  0  0  0  0  0  0  0
   18.3327   71.1515   -8.9274 C   0  0  1  0  0  0  0  0  0  0  0  0
   17.1442   71.1827   -7.9892 C   0  0  2  0  0  0  0  0  0  0  0  0
   19.4902   70.9105   -7.9664 C   0  0  1  0  0  0  0  0  0  0  0  0
   17.5166   70.1161   -6.9734 C   0  0  2  0  0  0  0  0  0  0  0  0
   17.5128   70.1578  -10.4239 H   0  0  0  0  0  0  0  0  0  0  0  0
   15.7367   71.6069   -9.2895 H   0  0  0  0  0  0  0  0  0  0  0  0
   16.3693   68.1608   -5.2886 O   0  0  0  0  0  0  0  0  0  0  0  0
   15.4574   71.2626   -2.0040 O   0  0  0  0  0  0  0  0  0  0  0  0
   16.9719   70.3849   -5.6724 N   0  0  0  0  0  0  0  0  0  0  0  0
   15.9163   69.7068   -3.6544 N   0  0  0  0  0  0  0  0  0  0  0  0
   16.4182   69.3321   -4.9073 C   0  0  0  0  0  0  0  0  0  0  0  0
   16.9906   71.6805   -5.1675 C   0  0  0  0  0  0  0  0  0  0  0  0
   16.5068   72.0216   -3.9713 C   0  0  0  0  0  0  0  0  0  0  0  0
   15.9108   70.9809   -3.1089 C   0  0  0  0  0  0  0  0  0  0  0  0
   15.5253   68.9900   -3.1039 H   0  0  0  0  0  0  0  0  0  0  0  0
   21.8540   72.6310   -4.0184 O   0  0  0  0  0  0  0  0  0  0  0  0
   22.3843   71.4058   -3.1070 P   0  0  2  0  0  0  0  0  0  0  0  0
   23.9826   71.4216   -3.3578 O   0  0  0  0  0  0  0  0  0  0  0  0
   21.7244   70.0897   -3.4008 O   0  0  0  0  0  0  0  0  0  0  0  0
   22.2050   71.9196   -1.5875 O   0  0  0  0  0  0  0  0  0  0  0  0
   22.6872   70.4533    0.2108 O   0  0  0  0  0  0  0  0  0  0  0  0
   20.2417   73.1334    2.1824 O   0  0  0  0  0  0  0  0  0  0  0  0
   23.0657   73.1413    2.7048 O   0  0  0  0  0  0  0  0  0  0  0  0
   19.6388   72.3627   -0.5420 O   0  0  0  0  0  0  0  0  0  0  0  0
   21.2285   72.7267    1.2305 C   0  0  1  0  0  0  0  0  0  0  0  0
   22.4003   72.1029    1.9912 C   0  0  1  0  0  0  0  0  0  0  0  0
   20.6088   71.7118    0.2716 C   0  0  2  0  0  0  0  0  0  0  0  0
   23.3741   71.4044    1.0327 C   0  0  1  0  0  0  0  0  0  0  0  0
   21.6692   71.0399   -0.6025 C   0  0  1  0  0  0  0  0  0  0  0  0
   20.6287   73.7783    2.7939 H   0  0  0  0  0  0  0  0  0  0  0  0
   22.4397   73.5746    3.3061 H   0  0  0  0  0  0  0  0  0  0  0  0
   18.9730   72.7838    0.0231 H   0  0  0  0  0  0  0  0  0  0  0  0
   24.6031   69.3616    1.1922 O   0  0  0  0  0  0  0  0  0  0  0  0
   24.4649   70.6416    1.7812 C   0  0  0  0  0  0  0  0  0  0  0  0
   25.2943   68.8648    1.6582 H   0  0  0  0  0  0  0  0  0  0  0  0
 25 28  1  0
 25 24  1  0
 25 26  1  6
 25 27  2  0
  1  4  1  0
  1 24  1  0
  1  2  1  1
  1  3  2  0
  6 11  1  0
  6 12  1  0
 29 36  1  0
 29 37  1  0
  9  7  1  6
  7 13  1  0
 10  8  1  6
  8 14  1  0
 37 28  1  6
  4  5  1  0
 33 30  1  1
 30 38  1  0
 34 31  1  6
 31 39  1  0
 35 32  1  6
 32 40  1  0
 41 42  1  0
 41 43  1  0
 15 19  2  0
 16 22  2  0
 12 17  1  1
 17 19  1  0
 17 20  1  0
 18 19  1  0
 18 22  1  0
 18 23  1  0
  9 10  1  0
  9 11  1  0
 10 12  1  0
 11  5  1  1
 33 34  1  0
 33 35  1  0
 34 36  1  0
 35 37  1  0
 36 42  1  1
 20 21  2  0
 21 22  1  0
M  CHG  2   2  -1  26  -1
M  END
>  <COMPND>  (89) 
    8629 

>  <AUTHOR>  (89) 
    GENERATED BY OPEN BABEL 3.1.1

>  <MASTER>  (89) 
        0    0    0    0    0    0    0    0   58    0   58    0

>  <minimizedAffinity>  (89) 
-7.31789

>  <CNNscore>  (89) 
0.6076486707

>  <CNNaffinity>  (89) 
4.4113483429

>  <CNN_VS>  (89) 
2.6805498600

>  <CNNaffinity_variance>  (89) 
0.1483295411

$$$$
90
     RDKit          3D

 43 45  0  0  0  0  0  0  0  0999 V2000
   20.6342   73.9303   -3.8057 P   0  0  2  0  0  0  0  0  0  0  0  0
   20.4280   74.0646   -2.2067 O   0  0  0  0  0  0  0  0  0  0  0  0
   20.7353   75.2330   -4.5434 O   0  0  0  0  0  0  0  0  0  0  0  0
   19.4337   72.9505   -4.2713 O   0  0  0  0  0  0  0  0  0  0  0  0
   18.8814   72.0583   -3.3191 C   0  0  0  0  0  0  0  0  0  0  0  0
   17.0808   72.3695   -4.8795 O   0  0  0  0  0  0  0  0  0  0  0  0
   15.4186   70.7251   -3.0023 O   0  0  0  0  0  0  0  0  0  0  0  0
   16.0712   68.9287   -4.9474 O   0  0  0  0  0  0  0  0  0  0  0  0
   16.8000   70.5951   -3.3340 C   0  0  1  0  0  0  0  0  0  0  0  0
   16.9547   70.0082   -4.7215 C   0  0  2  0  0  0  0  0  0  0  0  0
   17.3728   71.9952   -3.5153 C   0  0  1  0  0  0  0  0  0  0  0  0
   16.6524   71.2060   -5.6058 C   0  0  2  0  0  0  0  0  0  0  0  0
   15.0310   69.8436   -2.8813 H   0  0  0  0  0  0  0  0  0  0  0  0
   16.3044   68.1917   -4.3616 H   0  0  0  0  0  0  0  0  0  0  0  0
   15.8554   72.5820   -7.9402 O   0  0  0  0  0  0  0  0  0  0  0  0
   19.4182   70.9290  -10.3516 O   0  0  0  0  0  0  0  0  0  0  0  0
   17.3535   71.1534   -6.8577 N   0  0  0  0  0  0  0  0  0  0  0  0
   17.6302   71.7579   -9.1390 N   0  0  0  0  0  0  0  0  0  0  0  0
   16.8690   71.8810   -7.9696 C   0  0  0  0  0  0  0  0  0  0  0  0
   18.5080   70.3869   -6.9736 C   0  0  0  0  0  0  0  0  0  0  0  0
   19.2217   70.2791   -8.0963 C   0  0  0  0  0  0  0  0  0  0  0  0
   18.7837   71.0078   -9.3042 C   0  0  0  0  0  0  0  0  0  0  0  0
   17.3115   72.2557   -9.9266 H   0  0  0  0  0  0  0  0  0  0  0  0
   21.9408   72.9861   -3.9257 O   0  0  0  0  0  0  0  0  0  0  0  0
   23.4499   73.1880   -3.3826 P   0  0  2  0  0  0  0  0  0  0  0  0
   23.4049   74.6532   -2.6980 O   0  0  0  0  0  0  0  0  0  0  0  0
   24.5090   73.0283   -4.4345 O   0  0  0  0  0  0  0  0  0  0  0  0
   23.5784   72.1626   -2.1428 O   0  0  0  0  0  0  0  0  0  0  0  0
   23.9267   69.8237   -2.3004 O   0  0  0  0  0  0  0  0  0  0  0  0
   21.7815   69.9352    1.2262 O   0  0  0  0  0  0  0  0  0  0  0  0
   24.5966   69.3706    1.2961 O   0  0  0  0  0  0  0  0  0  0  0  0
   21.0795   71.7130   -0.9478 O   0  0  0  0  0  0  0  0  0  0  0  0
   22.7137   70.4131    0.2525 C   0  0  1  0  0  0  0  0  0  0  0  0
   23.8235   69.3711    0.0992 C   0  0  1  0  0  0  0  0  0  0  0  0
   21.9862   70.6229   -1.0742 C   0  0  2  0  0  0  0  0  0  0  0  0
   24.7132   69.6834   -1.1115 C   0  0  1  0  0  0  0  0  0  0  0  0
   22.9657   70.8782   -2.2212 C   0  0  1  0  0  0  0  0  0  0  0  0
   22.2370   69.8004    2.0711 H   0  0  0  0  0  0  0  0  0  0  0  0
   24.0228   69.1726    2.0529 H   0  0  0  0  0  0  0  0  0  0  0  0
   20.4646   71.5391   -0.2187 H   0  0  0  0  0  0  0  0  0  0  0  0
   25.3306   67.4200   -0.6593 O   0  0  0  0  0  0  0  0  0  0  0  0
   25.7284   68.5738   -1.3767 C   0  0  0  0  0  0  0  0  0  0  0  0
   25.9674   66.7053   -0.8188 H   0  0  0  0  0  0  0  0  0  0  0  0
 25 28  1  0
 25 24  1  0
 25 26  1  1
 25 27  2  0
  1  4  1  0
  1 24  1  0
  1  2  1  1
  1  3  2  0
  6 11  1  0
  6 12  1  0
 29 36  1  0
 29 37  1  0
  9  7  1  6
  7 13  1  0
 10  8  1  6
  8 14  1  0
 37 28  1  1
  4  5  1  0
 33 30  1  1
 30 38  1  0
 34 31  1  1
 31 39  1  0
 35 32  1  1
 32 40  1  0
 41 42  1  0
 41 43  1  0
 15 19  2  0
 16 22  2  0
 12 17  1  6
 17 19  1  0
 17 20  1  0
 18 19  1  0
 18 22  1  0
 18 23  1  0
  9 10  1  0
  9 11  1  0
 10 12  1  0
 11  5  1  6
 33 34  1  0
 33 35  1  0
 34 36  1  0
 35 37  1  0
 36 42  1  6
 20 21  2  0
 21 22  1  0
M  CHG  2   2  -1  26  -1
M  END
>  <COMPND>  (90) 
    8629 

>  <AUTHOR>  (90) 
    GENERATED BY OPEN BABEL 3.1.1

>  <MASTER>  (90) 
        0    0    0    0    0    0    0    0   58    0   58    0

>  <minimizedAffinity>  (90) 
-7.92597

>  <CNNscore>  (90) 
0.5481817126

>  <CNNaffinity>  (90) 
4.3711552620

>  <CNN_VS>  (90) 
2.3961873055

>  <CNNaffinity_variance>  (90) 
0.1151269227

$$$$
91
     RDKit          3D

 43 45  0  0  0  0  0  0  0  0999 V2000
   21.8336   72.4867   -5.6577 P   0  0  2  0  0  0  0  0  0  0  0  0
   21.2473   73.8823   -5.0868 O   0  0  0  0  0  0  0  0  0  0  0  0
   23.0133   72.6227   -6.5748 O   0  0  0  0  0  0  0  0  0  0  0  0
   20.5375   71.7486   -6.2849 O   0  0  0  0  0  0  0  0  0  0  0  0
   20.1794   72.0346   -7.6257 C   0  0  0  0  0  0  0  0  0  0  0  0
   19.0218   69.9811   -7.1598 O   0  0  0  0  0  0  0  0  0  0  0  0
   18.1199   70.0591  -10.0183 O   0  0  0  0  0  0  0  0  0  0  0  0
   15.9255   70.9666   -8.6777 O   0  0  0  0  0  0  0  0  0  0  0  0
   18.3132   71.1367   -9.1035 C   0  0  1  0  0  0  0  0  0  0  0  0
   17.1923   71.1696   -8.0855 C   0  0  2  0  0  0  0  0  0  0  0  0
   19.5210   70.8049   -8.2361 C   0  0  1  0  0  0  0  0  0  0  0  0
   17.5862   70.0420   -7.1466 C   0  0  2  0  0  0  0  0  0  0  0  0
   17.3539   70.2484  -10.5834 H   0  0  0  0  0  0  0  0  0  0  0  0
   15.7204   71.7102   -9.2657 H   0  0  0  0  0  0  0  0  0  0  0  0
   16.2872   68.1102   -5.5471 O   0  0  0  0  0  0  0  0  0  0  0  0
   15.9233   71.0272   -1.9975 O   0  0  0  0  0  0  0  0  0  0  0  0
   17.1415   70.2696   -5.8006 N   0  0  0  0  0  0  0  0  0  0  0  0
   16.1072   69.5641   -3.7809 N   0  0  0  0  0  0  0  0  0  0  0  0
   16.4987   69.2330   -5.0844 C   0  0  0  0  0  0  0  0  0  0  0  0
   17.3443   71.5093   -5.2040 C   0  0  0  0  0  0  0  0  0  0  0  0
   16.9638   71.8093   -3.9604 C   0  0  0  0  0  0  0  0  0  0  0  0
   16.2853   70.7821   -3.1441 C   0  0  0  0  0  0  0  0  0  0  0  0
   15.6571   68.8577   -3.2631 H   0  0  0  0  0  0  0  0  0  0  0  0
   22.1209   71.6362   -4.3134 O   0  0  0  0  0  0  0  0  0  0  0  0
   21.1274   71.1381   -3.1396 P   0  0  2  0  0  0  0  0  0  0  0  0
   20.4545   69.8057   -3.7637 O   0  0  0  0  0  0  0  0  0  0  0  0
   20.1415   72.1756   -2.6864 O   0  0  0  0  0  0  0  0  0  0  0  0
   22.1074   70.5941   -1.9783 O   0  0  0  0  0  0  0  0  0  0  0  0
   23.9364   71.8576   -1.1566 O   0  0  0  0  0  0  0  0  0  0  0  0
   25.2940   68.0647   -0.2498 O   0  0  0  0  0  0  0  0  0  0  0  0
   24.4023   69.7942    1.8625 O   0  0  0  0  0  0  0  0  0  0  0  0
   23.8611   68.5330   -2.7210 O   0  0  0  0  0  0  0  0  0  0  0  0
   24.3128   69.0909   -0.4219 C   0  0  1  0  0  0  0  0  0  0  0  0
   24.6480   70.2396    0.5315 C   0  0  1  0  0  0  0  0  0  0  0  0
   24.3408   69.5701   -1.8720 C   0  0  2  0  0  0  0  0  0  0  0  0
   23.8038   71.4827    0.2195 C   0  0  1  0  0  0  0  0  0  0  0  0
   23.5088   70.8395   -2.0635 C   0  0  1  0  0  0  0  0  0  0  0  0
   25.2811   67.7557    0.6688 H   0  0  0  0  0  0  0  0  0  0  0  0
   24.9410   69.0087    2.0465 H   0  0  0  0  0  0  0  0  0  0  0  0
   24.3961   67.7352   -2.5906 H   0  0  0  0  0  0  0  0  0  0  0  0
   23.1098   73.1500    1.7839 O   0  0  0  0  0  0  0  0  0  0  0  0
   24.2313   72.6884    1.0535 C   0  0  0  0  0  0  0  0  0  0  0  0
   23.3671   73.9172    2.3196 H   0  0  0  0  0  0  0  0  0  0  0  0
 25 28  1  0
 25 24  1  0
 25 26  1  6
 25 27  2  0
  1  4  1  0
  1 24  1  0
  1  2  1  1
  1  3  2  0
  6 11  1  0
  6 12  1  0
 29 36  1  0
 29 37  1  0
  9  7  1  6
  7 13  1  0
 10  8  1  6
  8 14  1  0
 37 28  1  1
  4  5  1  0
 33 30  1  6
 30 38  1  0
 34 31  1  1
 31 39  1  0
 35 32  1  6
 32 40  1  0
 41 42  1  0
 41 43  1  0
 15 19  2  0
 16 22  2  0
 12 17  1  1
 17 19  1  0
 17 20  1  0
 18 19  1  0
 18 22  1  0
 18 23  1  0
  9 10  1  0
  9 11  1  0
 10 12  1  0
 11  5  1  1
 33 34  1  0
 33 35  1  0
 34 36  1  0
 35 37  1  0
 36 42  1  1
 20 21  2  0
 21 22  1  0
M  CHG  2   2  -1  26  -1
M  END
>  <COMPND>  (91) 
    8629 

>  <AUTHOR>  (91) 
    GENERATED BY OPEN BABEL 3.1.1

>  <MASTER>  (91) 
        0    0    0    0    0    0    0    0   58    0   58    0

>  <minimizedAffinity>  (91) 
-7.90936

>  <CNNscore>  (91) 
0.5339078903

>  <CNNaffinity>  (91) 
4.3051333427

>  <CNN_VS>  (91) 
2.2985446453

>  <CNNaffinity_variance>  (91) 
0.1912541687

$$$$
92
     RDKit          3D

 43 45  0  0  0  0  0  0  0  0999 V2000
   20.3026   71.5233   -1.1915 P   0  0  2  0  0  0  0  0  0  0  0  0
   19.1051   70.4602   -1.4223 O   0  0  0  0  0  0  0  0  0  0  0  0
   19.8576   72.9149   -0.8494 O   0  0  0  0  0  0  0  0  0  0  0  0
   21.2087   71.3832   -2.5246 O   0  0  0  0  0  0  0  0  0  0  0  0
   20.7345   71.9613   -3.7283 C   0  0  0  0  0  0  0  0  0  0  0  0
   20.9718   70.6979   -5.7584 O   0  0  0  0  0  0  0  0  0  0  0  0
   23.3370   72.4440   -6.3480 O   0  0  0  0  0  0  0  0  0  0  0  0
   21.3842   73.5439   -7.9016 O   0  0  0  0  0  0  0  0  0  0  0  0
   22.1057   72.7782   -5.7096 C   0  0  1  0  0  0  0  0  0  0  0  0
   20.9895   72.8595   -6.7300 C   0  0  2  0  0  0  0  0  0  0  0  0
   21.6770   71.5858   -4.8636 C   0  0  1  0  0  0  0  0  0  0  0  0
   20.6872   71.3924   -6.9838 C   0  0  2  0  0  0  0  0  0  0  0  0
   23.6310   73.1907   -6.8939 H   0  0  0  0  0  0  0  0  0  0  0  0
   21.5653   74.4726   -7.6882 H   0  0  0  0  0  0  0  0  0  0  0  0
   19.8327   69.6827   -9.0633 O   0  0  0  0  0  0  0  0  0  0  0  0
   15.3925   70.6158   -8.2537 O   0  0  0  0  0  0  0  0  0  0  0  0
   19.3137   71.1695   -7.3379 N   0  0  0  0  0  0  0  0  0  0  0  0
   17.6225   70.1485   -8.6584 N   0  0  0  0  0  0  0  0  0  0  0  0
   18.9916   70.2919   -8.3992 C   0  0  0  0  0  0  0  0  0  0  0  0
   18.3032   71.8173   -6.6358 C   0  0  0  0  0  0  0  0  0  0  0  0
   17.0024   71.6708   -6.8962 C   0  0  0  0  0  0  0  0  0  0  0  0
   16.5807   70.7716   -7.9896 C   0  0  0  0  0  0  0  0  0  0  0  0
   17.3742   69.5424   -9.3937 H   0  0  0  0  0  0  0  0  0  0  0  0
   21.2091   70.8096   -0.0594 O   0  0  0  0  0  0  0  0  0  0  0  0
   22.8112   70.7775    0.1532 P   0  0  2  0  0  0  0  0  0  0  0  0
   22.9721   70.2970    1.6897 O   0  0  0  0  0  0  0  0  0  0  0  0
   23.5004   72.0725   -0.1661 O   0  0  0  0  0  0  0  0  0  0  0  0
   23.3144   69.5184   -0.7223 O   0  0  0  0  0  0  0  0  0  0  0  0
   24.6496   67.8700    0.3343 O   0  0  0  0  0  0  0  0  0  0  0  0
   25.5769   67.0452   -3.6041 O   0  0  0  0  0  0  0  0  0  0  0  0
   23.8973   65.2377   -2.1343 O   0  0  0  0  0  0  0  0  0  0  0  0
   25.2423   69.7887   -2.7435 O   0  0  0  0  0  0  0  0  0  0  0  0
   24.7338   67.4450   -2.5202 C   0  0  1  0  0  0  0  0  0  0  0  0
   24.6480   66.2851   -1.5262 C   0  0  1  0  0  0  0  0  0  0  0  0
   25.3319   68.6820   -1.8526 C   0  0  2  0  0  0  0  0  0  0  0  0
   23.9839   66.7269   -0.2152 C   0  0  1  0  0  0  0  0  0  0  0  0
   24.6307   69.0060   -0.5323 C   0  0  1  0  0  0  0  0  0  0  0  0
   25.2025   66.2605   -4.0325 H   0  0  0  0  0  0  0  0  0  0  0  0
   24.3271   64.9683   -2.9613 H   0  0  0  0  0  0  0  0  0  0  0  0
   25.6902   69.5712   -3.5753 H   0  0  0  0  0  0  0  0  0  0  0  0
   24.6726   66.1466    1.9979 O   0  0  0  0  0  0  0  0  0  0  0  0
   24.0297   65.6306    0.8469 C   0  0  0  0  0  0  0  0  0  0  0  0
   24.7087   65.4599    2.6826 H   0  0  0  0  0  0  0  0  0  0  0  0
 25 28  1  0
 25 24  1  0
 25 26  1  1
 25 27  2  0
  1  4  1  0
  1 24  1  0
  1  2  1  6
  1  3  2  0
  6 11  1  0
  6 12  1  0
 29 36  1  0
 29 37  1  0
  9  7  1  6
  7 13  1  0
 10  8  1  6
  8 14  1  0
 37 28  1  6
  4  5  1  0
 33 30  1  6
 30 38  1  0
 34 31  1  6
 31 39  1  0
 35 32  1  6
 32 40  1  0
 41 42  1  0
 41 43  1  0
 15 19  2  0
 16 22  2  0
 12 17  1  1
 17 19  1  0
 17 20  1  0
 18 19  1  0
 18 22  1  0
 18 23  1  0
  9 10  1  0
  9 11  1  0
 10 12  1  0
 11  5  1  1
 33 34  1  0
 33 35  1  0
 34 36  1  0
 35 37  1  0
 36 42  1  1
 20 21  2  0
 21 22  1  0
M  CHG  2   2  -1  26  -1
M  END
>  <COMPND>  (92) 
    8629 

>  <AUTHOR>  (92) 
    GENERATED BY OPEN BABEL 3.1.1

>  <MASTER>  (92) 
        0    0    0    0    0    0    0    0   58    0   58    0

>  <minimizedAffinity>  (92) 
-8.89262

>  <CNNscore>  (92) 
0.5047295094

>  <CNNaffinity>  (92) 
4.5772037506

>  <CNN_VS>  (92) 
2.3102498055

>  <CNNaffinity_variance>  (92) 
0.1108992919

$$$$
93
     RDKit          3D

 43 45  0  0  0  0  0  0  0  0999 V2000
   22.0927   73.0534   -5.4223 P   0  0  2  0  0  0  0  0  0  0  0  0
   21.9595   74.6549   -5.6085 O   0  0  0  0  0  0  0  0  0  0  0  0
   23.1626   72.4057   -6.2514 O   0  0  0  0  0  0  0  0  0  0  0  0
   20.5889   72.5077   -5.6649 O   0  0  0  0  0  0  0  0  0  0  0  0
   20.0767   72.5021   -6.9860 C   0  0  0  0  0  0  0  0  0  0  0  0
   19.0771   70.4398   -6.2636 O   0  0  0  0  0  0  0  0  0  0  0  0
   18.9371   69.7075   -9.1679 O   0  0  0  0  0  0  0  0  0  0  0  0
   16.3841   70.5019   -8.6315 O   0  0  0  0  0  0  0  0  0  0  0  0
   18.7662   70.9818   -8.5495 C   0  0  1  0  0  0  0  0  0  0  0  0
   17.4251   71.0508   -7.8493 C   0  0  2  0  0  0  0  0  0  0  0  0
   19.7400   71.0707   -7.3811 C   0  0  1  0  0  0  0  0  0  0  0  0
   17.6889   70.2524   -6.5839 C   0  0  2  0  0  0  0  0  0  0  0  0
   18.3258   69.6274   -9.9174 H   0  0  0  0  0  0  0  0  0  0  0  0
   16.2547   71.0449   -9.4246 H   0  0  0  0  0  0  0  0  0  0  0  0
   16.8843   68.6117   -4.4302 O   0  0  0  0  0  0  0  0  0  0  0  0
   14.6258   72.0760   -2.3957 O   0  0  0  0  0  0  0  0  0  0  0  0
   16.8905   70.6997   -5.4776 N   0  0  0  0  0  0  0  0  0  0  0  0
   15.7606   70.3380   -3.4188 N   0  0  0  0  0  0  0  0  0  0  0  0
   16.5405   69.7954   -4.4480 C   0  0  0  0  0  0  0  0  0  0  0  0
   16.4635   72.0220   -5.4211 C   0  0  0  0  0  0  0  0  0  0  0  0
   15.7191   72.5234   -4.4334 C   0  0  0  0  0  0  0  0  0  0  0  0
   15.3102   71.6449   -3.3185 C   0  0  0  0  0  0  0  0  0  0  0  0
   15.5043   69.7265   -2.6908 H   0  0  0  0  0  0  0  0  0  0  0  0
   22.2861   72.8879   -3.8260 O   0  0  0  0  0  0  0  0  0  0  0  0
   22.5779   71.5800   -2.9219 P   0  0  2  0  0  0  0  0  0  0  0  0
   24.1190   71.2276   -3.2658 O   0  0  0  0  0  0  0  0  0  0  0  0
   21.6182   70.4481   -3.1494 O   0  0  0  0  0  0  0  0  0  0  0  0
   22.6145   72.1315   -1.4055 O   0  0  0  0  0  0  0  0  0  0  0  0
   21.0570   73.3463   -0.0959 O   0  0  0  0  0  0  0  0  0  0  0  0
   24.5278   75.2602    1.0623 O   0  0  0  0  0  0  0  0  0  0  0  0
   23.2103   73.4824    2.8931 O   0  0  0  0  0  0  0  0  0  0  0  0
   24.1801   74.4426   -1.6927 O   0  0  0  0  0  0  0  0  0  0  0  0
   23.7275   74.1474    0.6545 C   0  0  1  0  0  0  0  0  0  0  0  0
   22.6152   73.9527    1.6868 C   0  0  1  0  0  0  0  0  0  0  0  0
   23.1367   74.4360   -0.7243 C   0  0  2  0  0  0  0  0  0  0  0  0
   21.5628   72.9545    1.1857 C   0  0  1  0  0  0  0  0  0  0  0  0
   22.0659   73.4123   -1.1056 C   0  0  1  0  0  0  0  0  0  0  0  0
   24.9063   75.0831    1.9369 H   0  0  0  0  0  0  0  0  0  0  0  0
   23.8732   74.1215    3.1985 H   0  0  0  0  0  0  0  0  0  0  0  0
   24.8514   75.0949   -1.4401 H   0  0  0  0  0  0  0  0  0  0  0  0
   20.7346   72.0821    3.2502 O   0  0  0  0  0  0  0  0  0  0  0  0
   20.3654   72.8640    2.1292 C   0  0  0  0  0  0  0  0  0  0  0  0
   19.9822   72.0161    3.8595 H   0  0  0  0  0  0  0  0  0  0  0  0
 25 28  1  0
 25 24  1  0
 25 26  1  6
 25 27  2  0
  1  4  1  0
  1 24  1  0
  1  2  1  1
  1  3  2  0
  6 11  1  0
  6 12  1  0
 29 36  1  0
 29 37  1  0
  9  7  1  1
  7 13  1  0
 10  8  1  6
  8 14  1  0
 37 28  1  1
  4  5  1  0
 33 30  1  1
 30 38  1  0
 34 31  1  1
 31 39  1  0
 35 32  1  6
 32 40  1  0
 41 42  1  0
 41 43  1  0
 15 19  2  0
 16 22  2  0
 12 17  1  1
 17 19  1  0
 17 20  1  0
 18 19  1  0
 18 22  1  0
 18 23  1  0
  9 10  1  0
  9 11  1  0
 10 12  1  0
 11  5  1  1
 33 34  1  0
 33 35  1  0
 34 36  1  0
 35 37  1  0
 36 42  1  1
 20 21  2  0
 21 22  1  0
M  CHG  2   2  -1  26  -1
M  END
>  <COMPND>  (93) 
    8629 

>  <AUTHOR>  (93) 
    GENERATED BY OPEN BABEL 3.1.1

>  <MASTER>  (93) 
        0    0    0    0    0    0    0    0   58    0   58    0

>  <minimizedAffinity>  (93) 
-6.58663

>  <CNNscore>  (93) 
0.4963223934

>  <CNNaffinity>  (93) 
4.1760210991

>  <CNN_VS>  (93) 
2.0726528168

>  <CNNaffinity_variance>  (93) 
0.1928545982

$$$$
94
     RDKit          3D

 43 45  0  0  0  0  0  0  0  0999 V2000
   22.9474   72.8479   -3.4485 P   0  0  2  0  0  0  0  0  0  0  0  0
   24.2678   72.7024   -4.3720 O   0  0  0  0  0  0  0  0  0  0  0  0
   22.5930   74.2549   -3.0664 O   0  0  0  0  0  0  0  0  0  0  0  0
   23.2202   71.8332   -2.2181 O   0  0  0  0  0  0  0  0  0  0  0  0
   23.3928   72.3752   -0.9204 C   0  0  0  0  0  0  0  0  0  0  0  0
   24.0290   71.5907    1.2599 O   0  0  0  0  0  0  0  0  0  0  0  0
   21.6227   69.8075    1.1149 O   0  0  0  0  0  0  0  0  0  0  0  0
   20.7545   71.8498    2.6999 O   0  0  0  0  0  0  0  0  0  0  0  0
   21.7929   71.1350    0.6209 C   0  0  1  0  0  0  0  0  0  0  0  0
   21.7765   72.1278    1.7645 C   0  0  2  0  0  0  0  0  0  0  0  0
   23.2215   71.2650    0.1074 C   0  0  1  0  0  0  0  0  0  0  0  0
   23.1677   71.9565    2.3505 C   0  0  2  0  0  0  0  0  0  0  0  0
   20.7175   69.7003    1.4481 H   0  0  0  0  0  0  0  0  0  0  0  0
   19.8891   71.9728    2.2796 H   0  0  0  0  0  0  0  0  0  0  0  0
   22.5734   72.7899    4.9830 O   0  0  0  0  0  0  0  0  0  0  0  0
   25.1183   76.6072    4.5448 O   0  0  0  0  0  0  0  0  0  0  0  0
   23.6619   73.1638    2.9502 N   0  0  0  0  0  0  0  0  0  0  0  0
   23.8412   74.6898    4.7627 N   0  0  0  0  0  0  0  0  0  0  0  0
   23.3028   73.4908    4.2785 C   0  0  0  0  0  0  0  0  0  0  0  0
   24.4931   74.0089    2.2230 C   0  0  0  0  0  0  0  0  0  0  0  0
   24.9971   75.1494    2.6988 C   0  0  0  0  0  0  0  0  0  0  0  0
   24.6707   75.5641    4.0785 C   0  0  0  0  0  0  0  0  0  0  0  0
   23.6044   74.9383    5.6857 H   0  0  0  0  0  0  0  0  0  0  0  0
   21.8154   72.0791   -4.3092 O   0  0  0  0  0  0  0  0  0  0  0  0
   20.6324   71.0770   -3.8520 P   0  0  2  0  0  0  0  0  0  0  0  0
   19.8507   71.9205   -2.7141 O   0  0  0  0  0  0  0  0  0  0  0  0
   21.1095   69.7260   -3.4033 O   0  0  0  0  0  0  0  0  0  0  0  0
   19.6166   71.0451   -5.1058 O   0  0  0  0  0  0  0  0  0  0  0  0
   19.8394   71.9108   -7.3007 O   0  0  0  0  0  0  0  0  0  0  0  0
   15.8353   72.7070   -6.6806 O   0  0  0  0  0  0  0  0  0  0  0  0
   16.6006   70.6009   -8.4769 O   0  0  0  0  0  0  0  0  0  0  0  0
   17.7247   73.0307   -4.5115 O   0  0  0  0  0  0  0  0  0  0  0  0
   17.0491   71.9602   -6.5606 C   0  0  1  0  0  0  0  0  0  0  0  0
   17.5124   71.5691   -7.9653 C   0  0  1  0  0  0  0  0  0  0  0  0
   18.1011   72.8252   -5.8689 C   0  0  2  0  0  0  0  0  0  0  0  0
   18.9375   71.0002   -7.9403 C   0  0  1  0  0  0  0  0  0  0  0  0
   19.4914   72.1914   -5.9435 C   0  0  1  0  0  0  0  0  0  0  0  0
   15.1630   72.1633   -7.1186 H   0  0  0  0  0  0  0  0  0  0  0  0
   15.7045   70.9725   -8.4869 H   0  0  0  0  0  0  0  0  0  0  0  0
   16.8431   73.4326   -4.4778 H   0  0  0  0  0  0  0  0  0  0  0  0
   18.6157   71.3774  -10.2777 O   0  0  0  0  0  0  0  0  0  0  0  0
   19.4783   70.7505   -9.3464 C   0  0  0  0  0  0  0  0  0  0  0  0
   18.9477   71.2271  -11.1770 H   0  0  0  0  0  0  0  0  0  0  0  0
 25 28  1  0
 25 24  1  0
 25 26  1  1
 25 27  2  0
  1  4  1  0
  1 24  1  0
  1  2  1  6
  1  3  2  0
  6 11  1  0
  6 12  1  0
 29 36  1  0
 29 37  1  0
  9  7  1  1
  7 13  1  0
 10  8  1  1
  8 14  1  0
 37 28  1  1
  4  5  1  0
 33 30  1  6
 30 38  1  0
 34 31  1  1
 31 39  1  0
 35 32  1  1
 32 40  1  0
 41 42  1  0
 41 43  1  0
 15 19  2  0
 16 22  2  0
 12 17  1  6
 17 19  1  0
 17 20  1  0
 18 19  1  0
 18 22  1  0
 18 23  1  0
  9 10  1  0
  9 11  1  0
 10 12  1  0
 11  5  1  6
 33 34  1  0
 33 35  1  0
 34 36  1  0
 35 37  1  0
 36 42  1  6
 20 21  2  0
 21 22  1  0
M  CHG  2   2  -1  26  -1
M  END
>  <COMPND>  (94) 
    8629 

>  <AUTHOR>  (94) 
    GENERATED BY OPEN BABEL 3.1.1

>  <MASTER>  (94) 
        0    0    0    0    0    0    0    0   58    0   58    0

>  <minimizedAffinity>  (94) 
-6.93954

>  <CNNscore>  (94) 
0.4782227874

>  <CNNaffinity>  (94) 
4.0676631927

>  <CNN_VS>  (94) 
1.9452491999

>  <CNNaffinity_variance>  (94) 
0.1612445265

$$$$
95
     RDKit          3D

 43 45  0  0  0  0  0  0  0  0999 V2000
   22.9230   72.9192   -3.5758 P   0  0  2  0  0  0  0  0  0  0  0  0
   24.2148   72.7387   -4.5329 O   0  0  0  0  0  0  0  0  0  0  0  0
   22.5809   74.3396   -3.2341 O   0  0  0  0  0  0  0  0  0  0  0  0
   23.2326   71.9491   -2.3185 O   0  0  0  0  0  0  0  0  0  0  0  0
   23.3724   72.5308   -1.0340 C   0  0  0  0  0  0  0  0  0  0  0  0
   22.6733   70.2925   -0.5094 O   0  0  0  0  0  0  0  0  0  0  0  0
   22.4283   71.2339    2.3268 O   0  0  0  0  0  0  0  0  0  0  0  0
   24.8132   69.9116    2.3434 O   0  0  0  0  0  0  0  0  0  0  0  0
   23.3849   71.6005    1.3340 C   0  0  1  0  0  0  0  0  0  0  0  0
   24.3806   70.4789    1.1237 C   0  0  2  0  0  0  0  0  0  0  0  0
   22.6707   71.6482   -0.0109 C   0  0  1  0  0  0  0  0  0  0  0  0
   23.5819   69.5035    0.2759 C   0  0  2  0  0  0  0  0  0  0  0  0
   22.8611   71.1973    3.1947 H   0  0  0  0  0  0  0  0  0  0  0  0
   25.3163   70.5708    2.8464 H   0  0  0  0  0  0  0  0  0  0  0  0
   24.2389   66.7844    0.6668 O   0  0  0  0  0  0  0  0  0  0  0  0
   26.7860   66.6585   -3.1722 O   0  0  0  0  0  0  0  0  0  0  0  0
   24.4146   68.7353   -0.6061 N   0  0  0  0  0  0  0  0  0  0  0  0
   25.5065   66.7239   -1.2452 N   0  0  0  0  0  0  0  0  0  0  0  0
   24.6838   67.3769   -0.3185 C   0  0  0  0  0  0  0  0  0  0  0  0
   24.9543   69.3291   -1.7419 C   0  0  0  0  0  0  0  0  0  0  0  0
   25.7381   68.6929   -2.6149 C   0  0  0  0  0  0  0  0  0  0  0  0
   26.0681   67.2711   -2.3879 C   0  0  0  0  0  0  0  0  0  0  0  0
   25.7080   65.7769   -1.0651 H   0  0  0  0  0  0  0  0  0  0  0  0
   21.7652   72.1217   -4.3736 O   0  0  0  0  0  0  0  0  0  0  0  0
   20.6772   71.0401   -3.8643 P   0  0  2  0  0  0  0  0  0  0  0  0
   19.8955   71.8267   -2.6862 O   0  0  0  0  0  0  0  0  0  0  0  0
   21.2668   69.7246   -3.4452 O   0  0  0  0  0  0  0  0  0  0  0  0
   19.6064   70.9401   -5.0678 O   0  0  0  0  0  0  0  0  0  0  0  0
   19.6322   71.9611   -7.2064 O   0  0  0  0  0  0  0  0  0  0  0  0
   15.5739   72.1009   -6.4576 O   0  0  0  0  0  0  0  0  0  0  0  0
   16.5942   70.2484   -8.4004 O   0  0  0  0  0  0  0  0  0  0  0  0
   17.4557   72.5756   -4.3098 O   0  0  0  0  0  0  0  0  0  0  0  0
   16.8891   71.5412   -6.4098 C   0  0  1  0  0  0  0  0  0  0  0  0
   17.3646   71.3109   -7.8457 C   0  0  1  0  0  0  0  0  0  0  0  0
   17.8189   72.5123   -5.6847 C   0  0  2  0  0  0  0  0  0  0  0  0
   18.8592   70.9646   -7.8854 C   0  0  1  0  0  0  0  0  0  0  0  0
   19.2858   72.1027   -5.8273 C   0  0  1  0  0  0  0  0  0  0  0  0
   14.9784   71.4890   -6.9163 H   0  0  0  0  0  0  0  0  0  0  0  0
   15.6525   70.4794   -8.3689 H   0  0  0  0  0  0  0  0  0  0  0  0
   16.5250   72.8362   -4.2329 H   0  0  0  0  0  0  0  0  0  0  0  0
   18.4312   71.4613  -10.1830 O   0  0  0  0  0  0  0  0  0  0  0  0
   19.3901   70.8857   -9.3151 C   0  0  0  0  0  0  0  0  0  0  0  0
   18.7558   71.4184  -11.0965 H   0  0  0  0  0  0  0  0  0  0  0  0
 25 28  1  0
 25 24  1  0
 25 26  1  1
 25 27  2  0
  1  4  1  0
  1 24  1  0
  1  2  1  6
  1  3  2  0
  6 11  1  0
  6 12  1  0
 29 36  1  0
 29 37  1  0
  9  7  1  1
  7 13  1  0
 10  8  1  1
  8 14  1  0
 37 28  1  1
  4  5  1  0
 33 30  1  6
 30 38  1  0
 34 31  1  1
 31 39  1  0
 35 32  1  1
 32 40  1  0
 41 42  1  0
 41 43  1  0
 15 19  2  0
 16 22  2  0
 12 17  1  6
 17 19  1  0
 17 20  1  0
 18 19  1  0
 18 22  1  0
 18 23  1  0
  9 10  1  0
  9 11  1  0
 10 12  1  0
 11  5  1  6
 33 34  1  0
 33 35  1  0
 34 36  1  0
 35 37  1  0
 36 42  1  6
 20 21  2  0
 21 22  1  0
M  CHG  2   2  -1  26  -1
M  END
>  <COMPND>  (95) 
    8629 

>  <AUTHOR>  (95) 
    GENERATED BY OPEN BABEL 3.1.1

>  <MASTER>  (95) 
        0    0    0    0    0    0    0    0   58    0   58    0

>  <minimizedAffinity>  (95) 
-8.46988

>  <CNNscore>  (95) 
0.4712879658

>  <CNNaffinity>  (95) 
4.3616456985

>  <CNN_VS>  (95) 
2.0555911064

>  <CNNaffinity_variance>  (95) 
0.2001054585

$$$$
96
     RDKit          3D

 43 45  0  0  0  0  0  0  0  0999 V2000
   19.9079   71.9280   -2.4624 P   0  0  2  0  0  0  0  0  0  0  0  0
   20.0033   73.4815   -2.0209 O   0  0  0  0  0  0  0  0  0  0  0  0
   18.5351   71.4626   -2.8502 O   0  0  0  0  0  0  0  0  0  0  0  0
   20.5989   71.1322   -1.2348 O   0  0  0  0  0  0  0  0  0  0  0  0
   21.8719   71.5601   -0.7829 C   0  0  0  0  0  0  0  0  0  0  0  0
   22.5098   69.5411    0.3532 O   0  0  0  0  0  0  0  0  0  0  0  0
   23.1957   71.2934    2.6877 O   0  0  0  0  0  0  0  0  0  0  0  0
   25.6375   70.7968    1.5796 O   0  0  0  0  0  0  0  0  0  0  0  0
   23.3439   71.5506    1.2923 C   0  0  1  0  0  0  0  0  0  0  0  0
   24.5072   70.7590    0.7323 C   0  0  2  0  0  0  0  0  0  0  0  0
   22.1567   70.9246    0.5711 C   0  0  1  0  0  0  0  0  0  0  0  0
   23.9122   69.3662    0.6130 C   0  0  2  0  0  0  0  0  0  0  0  0
   23.9423   71.6840    3.1694 H   0  0  0  0  0  0  0  0  0  0  0  0
   25.9792   71.7035    1.6227 H   0  0  0  0  0  0  0  0  0  0  0  0
   24.3297   66.5733    0.6678 O   0  0  0  0  0  0  0  0  0  0  0  0
   26.1568   66.5788   -3.5633 O   0  0  0  0  0  0  0  0  0  0  0  0
   24.4949   68.6119   -0.4608 N   0  0  0  0  0  0  0  0  0  0  0  0
   25.2390   66.5783   -1.4391 N   0  0  0  0  0  0  0  0  0  0  0  0
   24.6614   67.2133   -0.3322 C   0  0  0  0  0  0  0  0  0  0  0  0
   24.8939   69.2588   -1.6253 C   0  0  0  0  0  0  0  0  0  0  0  0
   25.4443   68.6390   -2.6713 C   0  0  0  0  0  0  0  0  0  0  0  0
   25.6532   67.1777   -2.6180 C   0  0  0  0  0  0  0  0  0  0  0  0
   25.3651   65.6040   -1.3720 H   0  0  0  0  0  0  0  0  0  0  0  0
   21.0132   71.8153   -3.6365 O   0  0  0  0  0  0  0  0  0  0  0  0
   21.3261   72.7790   -4.8960 P   0  0  2  0  0  0  0  0  0  0  0  0
   22.7428   72.2235   -5.4454 O   0  0  0  0  0  0  0  0  0  0  0  0
   21.3211   74.2437   -4.5662 O   0  0  0  0  0  0  0  0  0  0  0  0
   20.2535   72.3430   -6.0204 O   0  0  0  0  0  0  0  0  0  0  0  0
   19.2785   70.1829   -6.0345 O   0  0  0  0  0  0  0  0  0  0  0  0
   18.8004   71.1486  -10.0207 O   0  0  0  0  0  0  0  0  0  0  0  0
   16.5114   71.1104   -8.2866 O   0  0  0  0  0  0  0  0  0  0  0  0
   21.2131   71.9300   -8.6250 O   0  0  0  0  0  0  0  0  0  0  0  0
   18.8618   71.4078   -8.6156 C   0  0  1  0  0  0  0  0  0  0  0  0
   17.7809   70.5729   -7.9262 C   0  0  1  0  0  0  0  0  0  0  0  0
   20.2474   71.0267   -8.0977 C   0  0  2  0  0  0  0  0  0  0  0  0
   17.9553   70.5906   -6.4017 C   0  0  1  0  0  0  0  0  0  0  0  0
   20.2992   71.0283   -6.5689 C   0  0  1  0  0  0  0  0  0  0  0  0
   17.9233   71.3889  -10.3559 H   0  0  0  0  0  0  0  0  0  0  0  0
   16.4142   71.0939   -9.2518 H   0  0  0  0  0  0  0  0  0  0  0  0
   21.1705   71.9196   -9.5935 H   0  0  0  0  0  0  0  0  0  0  0  0
   15.9371   70.4027   -5.1366 O   0  0  0  0  0  0  0  0  0  0  0  0
   16.9857   69.6392   -5.7039 C   0  0  0  0  0  0  0  0  0  0  0  0
   15.3121   69.8102   -4.6894 H   0  0  0  0  0  0  0  0  0  0  0  0
 25 28  1  0
 25 24  1  0
 25 26  1  6
 25 27  2  0
  1  4  1  0
  1 24  1  0
  1  2  1  1
  1  3  2  0
  6 11  1  0
  6 12  1  0
 29 36  1  0
 29 37  1  0
  9  7  1  1
  7 13  1  0
 10  8  1  1
  8 14  1  0
 37 28  1  1
  4  5  1  0
 33 30  1  6
 30 38  1  0
 34 31  1  1
 31 39  1  0
 35 32  1  6
 32 40  1  0
 41 42  1  0
 41 43  1  0
 15 19  2  0
 16 22  2  0
 12 17  1  6
 17 19  1  0
 17 20  1  0
 18 19  1  0
 18 22  1  0
 18 23  1  0
  9 10  1  0
  9 11  1  0
 10 12  1  0
 11  5  1  6
 33 34  1  0
 33 35  1  0
 34 36  1  0
 35 37  1  0
 36 42  1  1
 20 21  2  0
 21 22  1  0
M  CHG  2   2  -1  26  -1
M  END
>  <COMPND>  (96) 
    8629 

>  <AUTHOR>  (96) 
    GENERATED BY OPEN BABEL 3.1.1

>  <MASTER>  (96) 
        0    0    0    0    0    0    0    0   58    0   58    0

>  <minimizedAffinity>  (96) 
-8.40811

>  <CNNscore>  (96) 
0.4146528542

>  <CNNaffinity>  (96) 
4.3324713707

>  <CNN_VS>  (96) 
1.7964715958

>  <CNNaffinity_variance>  (96) 
0.2441529781

$$$$
97
     RDKit          3D

 43 45  0  0  0  0  0  0  0  0999 V2000
   20.1587   70.9834   -3.0058 P   0  0  2  0  0  0  0  0  0  0  0  0
   20.5532   69.6132   -3.7702 O   0  0  0  0  0  0  0  0  0  0  0  0
   20.6788   72.2377   -3.6442 O   0  0  0  0  0  0  0  0  0  0  0  0
   20.6280   70.7253   -1.4790 O   0  0  0  0  0  0  0  0  0  0  0  0
   21.4378   71.7010   -0.8465 C   0  0  0  0  0  0  0  0  0  0  0  0
   23.7081   72.4134   -0.5116 O   0  0  0  0  0  0  0  0  0  0  0  0
   24.4872   69.5787   -1.1019 O   0  0  0  0  0  0  0  0  0  0  0  0
   24.6273   69.6792    1.6197 O   0  0  0  0  0  0  0  0  0  0  0  0
   23.3439   70.0741   -0.4072 C   0  0  1  0  0  0  0  0  0  0  0  0
   23.7373   70.5643    0.9706 C   0  0  2  0  0  0  0  0  0  0  0  0
   22.9023   71.3630   -1.0893 C   0  0  1  0  0  0  0  0  0  0  0  0
   24.3738   71.9078    0.6572 C   0  0  2  0  0  0  0  0  0  0  0  0
   24.7873   68.7555   -0.6846 H   0  0  0  0  0  0  0  0  0  0  0  0
   24.1759   68.8393    1.7975 H   0  0  0  0  0  0  0  0  0  0  0  0
   26.2034   72.2245    2.7857 O   0  0  0  0  0  0  0  0  0  0  0  0
   23.6686   75.5580    4.7103 O   0  0  0  0  0  0  0  0  0  0  0  0
   24.2170   72.8512    1.7280 N   0  0  0  0  0  0  0  0  0  0  0  0
   24.9398   73.8842    3.7422 N   0  0  0  0  0  0  0  0  0  0  0  0
   25.1930   72.9298    2.7486 C   0  0  0  0  0  0  0  0  0  0  0  0
   23.1053   73.6862    1.7587 C   0  0  0  0  0  0  0  0  0  0  0  0
   22.8780   74.5901    2.7139 C   0  0  0  0  0  0  0  0  0  0  0  0
   23.8493   74.7361    3.8172 C   0  0  0  0  0  0  0  0  0  0  0  0
   25.6061   73.9566    4.4638 H   0  0  0  0  0  0  0  0  0  0  0  0
   18.5474   70.8953   -2.9104 O   0  0  0  0  0  0  0  0  0  0  0  0
   17.5057   69.8163   -3.5132 P   0  0  2  0  0  0  0  0  0  0  0  0
   16.0625   70.4461   -3.1417 O   0  0  0  0  0  0  0  0  0  0  0  0
   17.7158   68.4147   -3.0177 O   0  0  0  0  0  0  0  0  0  0  0  0
   17.6240   69.9845   -5.1141 O   0  0  0  0  0  0  0  0  0  0  0  0
   19.0786   71.3200   -6.4244 O   0  0  0  0  0  0  0  0  0  0  0  0
   15.6430   71.6702   -8.6881 O   0  0  0  0  0  0  0  0  0  0  0  0
   17.8202   70.0657   -9.6542 O   0  0  0  0  0  0  0  0  0  0  0  0
   15.4725   71.6511   -5.7985 O   0  0  0  0  0  0  0  0  0  0  0  0
   16.5805   71.0051   -7.8372 C   0  0  1  0  0  0  0  0  0  0  0  0
   17.9320   70.9631   -8.5531 C   0  0  1  0  0  0  0  0  0  0  0  0
   16.6926   71.7731   -6.5215 C   0  0  2  0  0  0  0  0  0  0  0  0
   19.0480   70.5072   -7.6034 C   0  0  1  0  0  0  0  0  0  0  0  0
   17.8637   71.2731   -5.6737 C   0  0  1  0  0  0  0  0  0  0  0  0
   15.5667   71.1873   -9.5251 H   0  0  0  0  0  0  0  0  0  0  0  0
   17.1118   70.3646  -10.2459 H   0  0  0  0  0  0  0  0  0  0  0  0
   14.7391   71.9711   -6.3458 H   0  0  0  0  0  0  0  0  0  0  0  0
   21.3340   71.1314   -7.2980 O   0  0  0  0  0  0  0  0  0  0  0  0
   20.4272   70.6087   -8.2512 C   0  0  0  0  0  0  0  0  0  0  0  0
   22.2162   71.2014   -7.6962 H   0  0  0  0  0  0  0  0  0  0  0  0
 25 28  1  0
 25 24  1  0
 25 26  1  1
 25 27  2  0
  1  4  1  0
  1 24  1  0
  1  2  1  6
  1  3  2  0
  6 11  1  0
  6 12  1  0
 29 36  1  0
 29 37  1  0
  9  7  1  6
  7 13  1  0
 10  8  1  6
  8 14  1  0
 37 28  1  6
  4  5  1  0
 33 30  1  6
 30 38  1  0
 34 31  1  6
 31 39  1  0
 35 32  1  1
 32 40  1  0
 41 42  1  0
 41 43  1  0
 15 19  2  0
 16 22  2  0
 12 17  1  1
 17 19  1  0
 17 20  1  0
 18 19  1  0
 18 22  1  0
 18 23  1  0
  9 10  1  0
  9 11  1  0
 10 12  1  0
 11  5  1  1
 33 34  1  0
 33 35  1  0
 34 36  1  0
 35 37  1  0
 36 42  1  6
 20 21  2  0
 21 22  1  0
M  CHG  2   2  -1  26  -1
M  END
>  <COMPND>  (97) 
    8629 

>  <AUTHOR>  (97) 
    GENERATED BY OPEN BABEL 3.1.1

>  <MASTER>  (97) 
        0    0    0    0    0    0    0    0   58    0   58    0

>  <minimizedAffinity>  (97) 
-7.07630

>  <CNNscore>  (97) 
0.4107242823

>  <CNNaffinity>  (97) 
4.1044692993

>  <CNN_VS>  (97) 
1.6858052015

>  <CNNaffinity_variance>  (97) 
0.0931627899

$$$$
98
     RDKit          3D

 43 45  0  0  0  0  0  0  0  0999 V2000
   19.8772   71.5388   -2.0785 P   0  0  2  0  0  0  0  0  0  0  0  0
   19.2213   72.8410   -2.7797 O   0  0  0  0  0  0  0  0  0  0  0  0
   19.5422   71.3646   -0.6264 O   0  0  0  0  0  0  0  0  0  0  0  0
   21.4526   71.6626   -2.4262 O   0  0  0  0  0  0  0  0  0  0  0  0
   22.1612   70.4877   -2.7800 C   0  0  0  0  0  0  0  0  0  0  0  0
   23.7197   71.7353   -1.4426 O   0  0  0  0  0  0  0  0  0  0  0  0
   25.6332   69.4717   -1.8958 O   0  0  0  0  0  0  0  0  0  0  0  0
   24.7079   68.9731    0.6206 O   0  0  0  0  0  0  0  0  0  0  0  0
   24.2184   69.4348   -1.7158 C   0  0  1  0  0  0  0  0  0  0  0  0
   23.8664   69.6844   -0.2641 C   0  0  2  0  0  0  0  0  0  0  0  0
   23.6261   70.6594   -2.4019 C   0  0  1  0  0  0  0  0  0  0  0  0
   24.0392   71.1896   -0.1523 C   0  0  2  0  0  0  0  0  0  0  0  0
   26.0339   68.6990   -1.4663 H   0  0  0  0  0  0  0  0  0  0  0  0
   24.5608   68.0207    0.5115 H   0  0  0  0  0  0  0  0  0  0  0  0
   21.7744   69.8963    0.9321 O   0  0  0  0  0  0  0  0  0  0  0  0
   20.7610   73.5126    3.6035 O   0  0  0  0  0  0  0  0  0  0  0  0
   23.1660   71.7698    0.8286 N   0  0  0  0  0  0  0  0  0  0  0  0
   21.2718   71.6979    2.2615 N   0  0  0  0  0  0  0  0  0  0  0  0
   22.0553   71.0364    1.3073 C   0  0  0  0  0  0  0  0  0  0  0  0
   23.4148   73.0520    1.3060 C   0  0  0  0  0  0  0  0  0  0  0  0
   22.6572   73.6691    2.2151 C   0  0  0  0  0  0  0  0  0  0  0  0
   21.4773   72.9720    2.7665 C   0  0  0  0  0  0  0  0  0  0  0  0
   20.4924   71.2065    2.6091 H   0  0  0  0  0  0  0  0  0  0  0  0
   19.3889   70.3280   -3.0316 O   0  0  0  0  0  0  0  0  0  0  0  0
   17.9586   69.5849   -3.1552 P   0  0  2  0  0  0  0  0  0  0  0  0
   17.0526   70.3373   -2.0459 O   0  0  0  0  0  0  0  0  0  0  0  0
   18.0239   68.0938   -2.9936 O   0  0  0  0  0  0  0  0  0  0  0  0
   17.3627   70.0788   -4.5715 O   0  0  0  0  0  0  0  0  0  0  0  0
   18.6188   70.5358   -6.5285 O   0  0  0  0  0  0  0  0  0  0  0  0
   15.5112   73.1934   -7.1035 O   0  0  0  0  0  0  0  0  0  0  0  0
   15.6714   70.8272   -8.7232 O   0  0  0  0  0  0  0  0  0  0  0  0
   16.5753   72.7694   -4.4451 O   0  0  0  0  0  0  0  0  0  0  0  0
   16.1187   71.9728   -6.6718 C   0  0  1  0  0  0  0  0  0  0  0  0
   16.7343   71.2856   -7.8923 C   0  0  1  0  0  0  0  0  0  0  0  0
   17.1939   72.2901   -5.6342 C   0  0  2  0  0  0  0  0  0  0  0  0
   17.6299   70.1117   -7.4741 C   0  0  1  0  0  0  0  0  0  0  0  0
   18.0596   71.0671   -5.3257 C   0  0  1  0  0  0  0  0  0  0  0  0
   14.8272   72.9989   -7.7621 H   0  0  0  0  0  0  0  0  0  0  0  0
   15.1132   71.5780   -8.9799 H   0  0  0  0  0  0  0  0  0  0  0  0
   16.0305   73.5437   -4.6536 H   0  0  0  0  0  0  0  0  0  0  0  0
   18.0710   70.2711   -9.8169 O   0  0  0  0  0  0  0  0  0  0  0  0
   18.3777   69.5112   -8.6625 C   0  0  0  0  0  0  0  0  0  0  0  0
   18.5403   69.9006  -10.5813 H   0  0  0  0  0  0  0  0  0  0  0  0
 25 28  1  0
 25 24  1  0
 25 26  1  1
 25 27  2  0
  1  4  1  0
  1 24  1  0
  1  2  1  6
  1  3  2  0
  6 11  1  0
  6 12  1  0
 29 36  1  0
 29 37  1  0
  9  7  1  1
  7 13  1  0
 10  8  1  1
  8 14  1  0
 37 28  1  6
  4  5  1  0
 33 30  1  6
 30 38  1  0
 34 31  1  6
 31 39  1  0
 35 32  1  1
 32 40  1  0
 41 42  1  0
 41 43  1  0
 15 19  2  0
 16 22  2  0
 12 17  1  1
 17 19  1  0
 17 20  1  0
 18 19  1  0
 18 22  1  0
 18 23  1  0
  9 10  1  0
  9 11  1  0
 10 12  1  0
 11  5  1  1
 33 34  1  0
 33 35  1  0
 34 36  1  0
 35 37  1  0
 36 42  1  6
 20 21  2  0
 21 22  1  0
M  CHG  2   2  -1  26  -1
M  END
>  <COMPND>  (98) 
    8629 

>  <AUTHOR>  (98) 
    GENERATED BY OPEN BABEL 3.1.1

>  <MASTER>  (98) 
        0    0    0    0    0    0    0    0   58    0   58    0

>  <minimizedAffinity>  (98) 
-7.34505

>  <CNNscore>  (98) 
0.3669368625

>  <CNNaffinity>  (98) 
3.9123871326

>  <CNN_VS>  (98) 
1.4355990887

>  <CNNaffinity_variance>  (98) 
0.2804207802

$$$$
99
     RDKit          3D

 43 45  0  0  0  0  0  0  0  0999 V2000
   22.9194   73.1455   -3.6430 P   0  0  2  0  0  0  0  0  0  0  0  0
   24.2309   72.7055   -4.4818 O   0  0  0  0  0  0  0  0  0  0  0  0
   22.8761   74.5922   -3.2472 O   0  0  0  0  0  0  0  0  0  0  0  0
   22.8623   72.0818   -2.4251 O   0  0  0  0  0  0  0  0  0  0  0  0
   23.2638   72.5089   -1.1350 C   0  0  0  0  0  0  0  0  0  0  0  0
   22.6199   70.2655   -0.5638 O   0  0  0  0  0  0  0  0  0  0  0  0
   22.3779   71.2529    2.2571 O   0  0  0  0  0  0  0  0  0  0  0  0
   24.7921   69.9848    2.2762 O   0  0  0  0  0  0  0  0  0  0  0  0
   23.3175   71.6227    1.2493 C   0  0  1  0  0  0  0  0  0  0  0  0
   24.3364   70.5200    1.0503 C   0  0  2  0  0  0  0  0  0  0  0  0
   22.5909   71.6297   -0.0899 C   0  0  1  0  0  0  0  0  0  0  0  0
   23.5527   69.5116    0.2275 C   0  0  2  0  0  0  0  0  0  0  0  0
   22.8188   71.2418    3.1216 H   0  0  0  0  0  0  0  0  0  0  0  0
   25.2845   70.6643    2.7627 H   0  0  0  0  0  0  0  0  0  0  0  0
   24.2600   66.8102    0.6525 O   0  0  0  0  0  0  0  0  0  0  0  0
   26.7914   66.6767   -3.1966 O   0  0  0  0  0  0  0  0  0  0  0  0
   24.3950   68.7462   -0.6479 N   0  0  0  0  0  0  0  0  0  0  0  0
   25.5197   66.7459   -1.2645 N   0  0  0  0  0  0  0  0  0  0  0  0
   24.6897   67.3969   -0.3429 C   0  0  0  0  0  0  0  0  0  0  0  0
   24.9188   69.3338   -1.7943 C   0  0  0  0  0  0  0  0  0  0  0  0
   25.7098   68.6996   -2.6623 C   0  0  0  0  0  0  0  0  0  0  0  0
   26.0662   67.2872   -2.4173 C   0  0  0  0  0  0  0  0  0  0  0  0
   25.7389   65.8052   -1.0724 H   0  0  0  0  0  0  0  0  0  0  0  0
   21.7026   72.6721   -4.5961 O   0  0  0  0  0  0  0  0  0  0  0  0
   21.1109   73.3106   -5.9581 P   0  0  2  0  0  0  0  0  0  0  0  0
   22.1870   72.8578   -7.0782 O   0  0  0  0  0  0  0  0  0  0  0  0
   20.8728   74.7913   -5.8909 O   0  0  0  0  0  0  0  0  0  0  0  0
   19.7938   72.4353   -6.2810 O   0  0  0  0  0  0  0  0  0  0  0  0
   19.1591   70.2583   -5.5924 O   0  0  0  0  0  0  0  0  0  0  0  0
   17.7447   70.1622   -9.4706 O   0  0  0  0  0  0  0  0  0  0  0  0
   15.8870   70.3423   -7.2878 O   0  0  0  0  0  0  0  0  0  0  0  0
   20.2521   71.4827   -8.8805 O   0  0  0  0  0  0  0  0  0  0  0  0
   18.0528   70.7646   -8.2107 C   0  0  1  0  0  0  0  0  0  0  0  0
   17.2673   70.0296   -7.1228 C   0  0  1  0  0  0  0  0  0  0  0  0
   19.5551   70.6524   -7.9578 C   0  0  2  0  0  0  0  0  0  0  0  0
   17.7442   70.4390   -5.7228 C   0  0  1  0  0  0  0  0  0  0  0  0
   19.9164   71.0360   -6.5217 C   0  0  1  0  0  0  0  0  0  0  0  0
   16.7923   70.2305   -9.6374 H   0  0  0  0  0  0  0  0  0  0  0  0
   15.5986   70.0793   -8.1760 H   0  0  0  0  0  0  0  0  0  0  0  0
   20.0152   71.2298   -9.7859 H   0  0  0  0  0  0  0  0  0  0  0  0
   16.5216   68.4486   -5.2203 O   0  0  0  0  0  0  0  0  0  0  0  0
   17.0850   69.6041   -4.6271 C   0  0  0  0  0  0  0  0  0  0  0  0
   16.0988   67.9074   -4.5347 H   0  0  0  0  0  0  0  0  0  0  0  0
 25 28  1  0
 25 24  1  0
 25 26  1  6
 25 27  2  0
  1  4  1  0
  1 24  1  0
  1  2  1  6
  1  3  2  0
  6 11  1  0
  6 12  1  0
 29 36  1  0
 29 37  1  0
  9  7  1  1
  7 13  1  0
 10  8  1  1
  8 14  1  0
 37 28  1  6
  4  5  1  0
 33 30  1  6
 30 38  1  0
 34 31  1  1
 31 39  1  0
 35 32  1  6
 32 40  1  0
 41 42  1  0
 41 43  1  0
 15 19  2  0
 16 22  2  0
 12 17  1  6
 17 19  1  0
 17 20  1  0
 18 19  1  0
 18 22  1  0
 18 23  1  0
  9 10  1  0
  9 11  1  0
 10 12  1  0
 11  5  1  6
 33 34  1  0
 33 35  1  0
 34 36  1  0
 35 37  1  0
 36 42  1  1
 20 21  2  0
 21 22  1  0
M  CHG  2   2  -1  26  -1
M  END
>  <COMPND>  (99) 
    8629 

>  <AUTHOR>  (99) 
    GENERATED BY OPEN BABEL 3.1.1

>  <MASTER>  (99) 
        0    0    0    0    0    0    0    0   58    0   58    0

>  <minimizedAffinity>  (99) 
-8.90110

>  <CNNscore>  (99) 
0.3640811741

>  <CNNaffinity>  (99) 
4.2227220535

>  <CNN_VS>  (99) 
1.5374135971

>  <CNNaffinity_variance>  (99) 
0.3481157720

$$$$
100
     RDKit          3D

 43 45  0  0  0  0  0  0  0  0999 V2000
   22.8844   72.2236   -2.6476 P   0  0  2  0  0  0  0  0  0  0  0  0
   23.1032   73.7798   -2.2633 O   0  0  0  0  0  0  0  0  0  0  0  0
   24.0504   71.5690   -3.3283 O   0  0  0  0  0  0  0  0  0  0  0  0
   21.4945   72.2197   -3.4757 O   0  0  0  0  0  0  0  0  0  0  0  0
   21.3989   73.0215   -4.6401 C   0  0  0  0  0  0  0  0  0  0  0  0
   20.8020   70.8865   -5.5671 O   0  0  0  0  0  0  0  0  0  0  0  0
   21.3453   72.1095   -8.2504 O   0  0  0  0  0  0  0  0  0  0  0  0
   18.6239   72.1949   -8.0983 O   0  0  0  0  0  0  0  0  0  0  0  0
   20.7749   72.7051   -7.0862 C   0  0  1  0  0  0  0  0  0  0  0  0
   19.3544   72.2185   -6.8889 C   0  0  2  0  0  0  0  0  0  0  0  0
   21.4820   72.1248   -5.8678 C   0  0  1  0  0  0  0  0  0  0  0  0
   19.5742   70.8305   -6.3115 C   0  0  2  0  0  0  0  0  0  0  0  0
   20.9098   72.4648   -9.0416 H   0  0  0  0  0  0  0  0  0  0  0  0
   18.5104   73.1010   -8.4253 H   0  0  0  0  0  0  0  0  0  0  0  0
   17.1045   69.7639   -7.1723 O   0  0  0  0  0  0  0  0  0  0  0  0
   15.5769   69.3266   -2.8460 O   0  0  0  0  0  0  0  0  0  0  0  0
   18.5131   70.4290   -5.4315 N   0  0  0  0  0  0  0  0  0  0  0  0
   16.3460   69.5469   -5.0174 N   0  0  0  0  0  0  0  0  0  0  0  0
   17.3123   69.9063   -5.9656 C   0  0  0  0  0  0  0  0  0  0  0  0
   18.6691   70.5550   -4.0554 C   0  0  0  0  0  0  0  0  0  0  0  0
   17.7374   70.2089   -3.1647 C   0  0  0  0  0  0  0  0  0  0  0  0
   16.4535   69.6542   -3.6399 C   0  0  0  0  0  0  0  0  0  0  0  0
   15.5010   69.1806   -5.3663 H   0  0  0  0  0  0  0  0  0  0  0  0
   22.4680   71.5556   -1.2357 O   0  0  0  0  0  0  0  0  0  0  0  0
   23.2957   70.6002   -0.2282 P   0  0  2  0  0  0  0  0  0  0  0  0
   22.1408   69.9512    0.7005 O   0  0  0  0  0  0  0  0  0  0  0  0
   24.3812   71.3033    0.5342 O   0  0  0  0  0  0  0  0  0  0  0  0
   23.8096   69.3803   -1.1518 O   0  0  0  0  0  0  0  0  0  0  0  0
   24.8277   67.6059    0.0445 O   0  0  0  0  0  0  0  0  0  0  0  0
   26.0105   66.5882   -3.7786 O   0  0  0  0  0  0  0  0  0  0  0  0
   23.9919   65.0305   -2.4570 O   0  0  0  0  0  0  0  0  0  0  0  0
   25.9364   69.3704   -2.9825 O   0  0  0  0  0  0  0  0  0  0  0  0
   25.1254   67.1111   -2.7843 C   0  0  1  0  0  0  0  0  0  0  0  0
   24.8054   65.9923   -1.7910 C   0  0  1  0  0  0  0  0  0  0  0  0
   25.8059   68.2808   -2.0757 C   0  0  2  0  0  0  0  0  0  0  0  0
   24.0810   66.5402   -0.5540 C   0  0  1  0  0  0  0  0  0  0  0  0
   25.0294   68.7165   -0.8317 C   0  0  1  0  0  0  0  0  0  0  0  0
   25.5843   65.8455   -4.2326 H   0  0  0  0  0  0  0  0  0  0  0  0
   24.4607   64.6928   -3.2363 H   0  0  0  0  0  0  0  0  0  0  0  0
   26.4299   69.0819   -3.7655 H   0  0  0  0  0  0  0  0  0  0  0  0
   24.5358   65.9031    1.7034 O   0  0  0  0  0  0  0  0  0  0  0  0
   23.8924   65.4701    0.5190 C   0  0  0  0  0  0  0  0  0  0  0  0
   24.4238   65.2320    2.3954 H   0  0  0  0  0  0  0  0  0  0  0  0
 25 28  1  0
 25 24  1  0
 25 26  1  1
 25 27  2  0
  1  4  1  0
  1 24  1  0
  1  2  1  1
  1  3  2  0
  6 11  1  0
  6 12  1  0
 29 36  1  0
 29 37  1  0
  9  7  1  6
  7 13  1  0
 10  8  1  6
  8 14  1  0
 37 28  1  6
  4  5  1  0
 33 30  1  6
 30 38  1  0
 34 31  1  6
 31 39  1  0
 35 32  1  6
 32 40  1  0
 41 42  1  0
 41 43  1  0
 15 19  2  0
 16 22  2  0
 12 17  1  1
 17 19  1  0
 17 20  1  0
 18 19  1  0
 18 22  1  0
 18 23  1  0
  9 10  1  0
  9 11  1  0
 10 12  1  0
 11  5  1  1
 33 34  1  0
 33 35  1  0
 34 36  1  0
 35 37  1  0
 36 42  1  1
 20 21  2  0
 21 22  1  0
M  CHG  2   2  -1  26  -1
M  END
>  <COMPND>  (100) 
    8629 

>  <AUTHOR>  (100) 
    GENERATED BY OPEN BABEL 3.1.1

>  <MASTER>  (100) 
        0    0    0    0    0    0    0    0   58    0   58    0

>  <minimizedAffinity>  (100) 
-9.22218

>  <CNNscore>  (100) 
0.3626751304

>  <CNNaffinity>  (100) 
4.2667794228

>  <CNN_VS>  (100) 
1.5474548340

>  <CNNaffinity_variance>  (100) 
0.5342713594

$$$$
101
     RDKit          3D

 43 45  0  0  0  0  0  0  0  0999 V2000
   22.9591   70.8434   -2.1658 P   0  0  2  0  0  0  0  0  0  0  0  0
   23.9994   71.3865   -3.2795 O   0  0  0  0  0  0  0  0  0  0  0  0
   23.5208   69.8260   -1.2166 O   0  0  0  0  0  0  0  0  0  0  0  0
   21.6783   70.3653   -3.0311 O   0  0  0  0  0  0  0  0  0  0  0  0
   21.1589   71.2453   -4.0127 C   0  0  0  0  0  0  0  0  0  0  0  0
   19.0595   71.9999   -4.9054 O   0  0  0  0  0  0  0  0  0  0  0  0
   17.7946   70.7325   -2.5003 O   0  0  0  0  0  0  0  0  0  0  0  0
   17.3412   68.8844   -4.4537 O   0  0  0  0  0  0  0  0  0  0  0  0
   18.9200   70.2982   -3.2621 C   0  0  1  0  0  0  0  0  0  0  0  0
   18.4675   69.7269   -4.5896 C   0  0  2  0  0  0  0  0  0  0  0  0
   19.6979   71.5342   -3.6963 C   0  0  1  0  0  0  0  0  0  0  0  0
   18.1642   70.9842   -5.3868 C   0  0  2  0  0  0  0  0  0  0  0  0
   17.2825   69.9603   -2.2115 H   0  0  0  0  0  0  0  0  0  0  0  0
   17.5850   68.0990   -3.9394 H   0  0  0  0  0  0  0  0  0  0  0  0
   16.2217   69.9902   -7.1802 O   0  0  0  0  0  0  0  0  0  0  0  0
   19.0930   70.3352  -10.7687 O   0  0  0  0  0  0  0  0  0  0  0  0
   18.3771   70.8043   -6.7952 N   0  0  0  0  0  0  0  0  0  0  0  0
   17.6529   70.1629   -8.9656 N   0  0  0  0  0  0  0  0  0  0  0  0
   17.3363   70.2974   -7.6077 C   0  0  0  0  0  0  0  0  0  0  0  0
   19.6068   71.1296   -7.3573 C   0  0  0  0  0  0  0  0  0  0  0  0
   19.8931   70.9943   -8.6538 C   0  0  0  0  0  0  0  0  0  0  0  0
   18.8606   70.4713   -9.5715 C   0  0  0  0  0  0  0  0  0  0  0  0
   16.9433   69.8112   -9.5508 H   0  0  0  0  0  0  0  0  0  0  0  0
   22.4364   72.2022   -1.4634 O   0  0  0  0  0  0  0  0  0  0  0  0
   21.3134   72.4453   -0.3264 P   0  0  2  0  0  0  0  0  0  0  0  0
   20.8825   70.9443    0.0964 O   0  0  0  0  0  0  0  0  0  0  0  0
   20.1723   73.3168   -0.7649 O   0  0  0  0  0  0  0  0  0  0  0  0
   22.1340   73.0072    0.9448 O   0  0  0  0  0  0  0  0  0  0  0  0
   24.1194   72.3091    2.0345 O   0  0  0  0  0  0  0  0  0  0  0  0
   21.8372   73.2329    5.3494 O   0  0  0  0  0  0  0  0  0  0  0  0
   24.0087   74.9557    4.5981 O   0  0  0  0  0  0  0  0  0  0  0  0
   20.6059   71.9666    3.0559 O   0  0  0  0  0  0  0  0  0  0  0  0
   22.3053   73.3842    4.0065 C   0  0  1  0  0  0  0  0  0  0  0  0
   23.8105   73.6550    4.0511 C   0  0  1  0  0  0  0  0  0  0  0  0
   22.0124   72.1028    3.2284 C   0  0  2  0  0  0  0  0  0  0  0  0
   24.4314   73.5640    2.6506 C   0  0  1  0  0  0  0  0  0  0  0  0
   22.7164   72.0932    1.8704 C   0  0  1  0  0  0  0  0  0  0  0  0
   22.0197   74.0433    5.8488 H   0  0  0  0  0  0  0  0  0  0  0  0
   23.6116   74.9999    5.4821 H   0  0  0  0  0  0  0  0  0  0  0  0
   20.1718   71.9738    3.9227 H   0  0  0  0  0  0  0  0  0  0  0  0
   26.4937   72.3786    2.8751 O   0  0  0  0  0  0  0  0  0  0  0  0
   25.9539   73.6745    2.6917 C   0  0  0  0  0  0  0  0  0  0  0  0
   27.4622   72.4334    2.9029 H   0  0  0  0  0  0  0  0  0  0  0  0
 25 28  1  0
 25 24  1  0
 25 26  1  1
 25 27  2  0
  1  4  1  0
  1 24  1  0
  1  2  1  6
  1  3  2  0
  6 11  1  0
  6 12  1  0
 29 36  1  0
 29 37  1  0
  9  7  1  1
  7 13  1  0
 10  8  1  1
  8 14  1  0
 37 28  1  6
  4  5  1  0
 33 30  1  1
 30 38  1  0
 34 31  1  6
 31 39  1  0
 35 32  1  6
 32 40  1  0
 41 42  1  0
 41 43  1  0
 15 19  2  0
 16 22  2  0
 12 17  1  6
 17 19  1  0
 17 20  1  0
 18 19  1  0
 18 22  1  0
 18 23  1  0
  9 10  1  0
  9 11  1  0
 10 12  1  0
 11  5  1  6
 33 34  1  0
 33 35  1  0
 34 36  1  0
 35 37  1  0
 36 42  1  1
 20 21  2  0
 21 22  1  0
M  CHG  2   2  -1  26  -1
M  END
>  <COMPND>  (101) 
    8629 

>  <AUTHOR>  (101) 
    GENERATED BY OPEN BABEL 3.1.1

>  <MASTER>  (101) 
        0    0    0    0    0    0    0    0   58    0   58    0

>  <minimizedAffinity>  (101) 
-7.33670

>  <CNNscore>  (101) 
0.8664891124

>  <CNNaffinity>  (101) 
4.5458045006

>  <CNN_VS>  (101) 
3.9388902187

>  <CNNaffinity_variance>  (101) 
0.0165279191

$$$$
102
     RDKit          3D

 43 45  0  0  0  0  0  0  0  0999 V2000
   22.0892   71.6879   -2.4264 P   0  0  2  0  0  0  0  0  0  0  0  0
   21.3440   73.0969   -2.7035 O   0  0  0  0  0  0  0  0  0  0  0  0
   23.2330   71.3838   -3.3487 O   0  0  0  0  0  0  0  0  0  0  0  0
   20.8855   70.6067   -2.4197 O   0  0  0  0  0  0  0  0  0  0  0  0
   20.2092   70.3402   -3.6360 C   0  0  0  0  0  0  0  0  0  0  0  0
   18.4941   71.5704   -4.7845 O   0  0  0  0  0  0  0  0  0  0  0  0
   16.5805   70.3913   -2.7999 O   0  0  0  0  0  0  0  0  0  0  0  0
   16.1832   68.8366   -5.0048 O   0  0  0  0  0  0  0  0  0  0  0  0
   17.7334   69.8036   -3.4006 C   0  0  1  0  0  0  0  0  0  0  0  0
   17.4487   69.4443   -4.8441 C   0  0  2  0  0  0  0  0  0  0  0  0
   18.7920   70.8896   -3.5459 C   0  0  1  0  0  0  0  0  0  0  0  0
   17.5387   70.7974   -5.5291 C   0  0  2  0  0  0  0  0  0  0  0  0
   15.8905   69.7167   -2.6965 H   0  0  0  0  0  0  0  0  0  0  0  0
   16.1762   67.9791   -4.5515 H   0  0  0  0  0  0  0  0  0  0  0  0
   15.8527   70.2050   -7.7164 O   0  0  0  0  0  0  0  0  0  0  0  0
   19.3517   70.4227  -10.7081 O   0  0  0  0  0  0  0  0  0  0  0  0
   17.9826   70.6935   -6.8906 N   0  0  0  0  0  0  0  0  0  0  0  0
   17.5963   70.3141   -9.2043 N   0  0  0  0  0  0  0  0  0  0  0  0
   17.0551   70.3906   -7.9146 C   0  0  0  0  0  0  0  0  0  0  0  0
   19.3240   70.8913   -7.1992 C   0  0  0  0  0  0  0  0  0  0  0  0
   19.8243   70.8135   -8.4340 C   0  0  0  0  0  0  0  0  0  0  0  0
   18.9222   70.5013   -9.5613 C   0  0  0  0  0  0  0  0  0  0  0  0
   16.9689   70.1039   -9.9337 H   0  0  0  0  0  0  0  0  0  0  0  0
   22.4934   71.7914   -0.8647 O   0  0  0  0  0  0  0  0  0  0  0  0
   23.0030   70.6651    0.1768 P   0  0  2  0  0  0  0  0  0  0  0  0
   21.6348   70.1630    0.8792 O   0  0  0  0  0  0  0  0  0  0  0  0
   24.0523   71.1449    1.1373 O   0  0  0  0  0  0  0  0  0  0  0  0
   23.4622   69.4276   -0.7521 O   0  0  0  0  0  0  0  0  0  0  0  0
   24.7232   67.7114    0.2876 O   0  0  0  0  0  0  0  0  0  0  0  0
   25.5811   66.8608   -3.6610 O   0  0  0  0  0  0  0  0  0  0  0  0
   23.8261   65.1303   -2.1867 O   0  0  0  0  0  0  0  0  0  0  0  0
   25.3865   69.6133   -2.7862 O   0  0  0  0  0  0  0  0  0  0  0  0
   24.7662   67.2961   -2.5693 C   0  0  1  0  0  0  0  0  0  0  0  0
   24.6312   66.1371   -1.5797 C   0  0  1  0  0  0  0  0  0  0  0  0
   25.4285   68.4994   -1.9008 C   0  0  2  0  0  0  0  0  0  0  0  0
   23.9987   66.6046   -0.2619 C   0  0  1  0  0  0  0  0  0  0  0  0
   24.7533   68.8510   -0.5740 C   0  0  1  0  0  0  0  0  0  0  0  0
   25.1659   66.0972   -4.0901 H   0  0  0  0  0  0  0  0  0  0  0  0
   24.2364   64.8441   -3.0180 H   0  0  0  0  0  0  0  0  0  0  0  0
   25.8173   69.3781   -3.6223 H   0  0  0  0  0  0  0  0  0  0  0  0
   24.6872   65.9760    1.9380 O   0  0  0  0  0  0  0  0  0  0  0  0
   23.9988   65.5025    0.7952 C   0  0  0  0  0  0  0  0  0  0  0  0
   24.6949   65.2851    2.6194 H   0  0  0  0  0  0  0  0  0  0  0  0
 25 28  1  0
 25 24  1  0
 25 26  1  1
 25 27  2  0
  1  4  1  0
  1 24  1  0
  1  2  1  6
  1  3  2  0
  6 11  1  0
  6 12  1  0
 29 36  1  0
 29 37  1  0
  9  7  1  6
  7 13  1  0
 10  8  1  1
  8 14  1  0
 37 28  1  6
  4  5  1  0
 33 30  1  6
 30 38  1  0
 34 31  1  6
 31 39  1  0
 35 32  1  6
 32 40  1  0
 41 42  1  0
 41 43  1  0
 15 19  2  0
 16 22  2  0
 12 17  1  6
 17 19  1  0
 17 20  1  0
 18 19  1  0
 18 22  1  0
 18 23  1  0
  9 10  1  0
  9 11  1  0
 10 12  1  0
 11  5  1  6
 33 34  1  0
 33 35  1  0
 34 36  1  0
 35 37  1  0
 36 42  1  1
 20 21  2  0
 21 22  1  0
M  CHG  2   2  -1  26  -1
M  END
>  <COMPND>  (102) 
    8629 

>  <AUTHOR>  (102) 
    GENERATED BY OPEN BABEL 3.1.1

>  <MASTER>  (102) 
        0    0    0    0    0    0    0    0   58    0   58    0

>  <minimizedAffinity>  (102) 
-9.79681

>  <CNNscore>  (102) 
0.8313736916

>  <CNNaffinity>  (102) 
5.0680727959

>  <CNN_VS>  (102) 
4.2134623528

>  <CNNaffinity_variance>  (102) 
0.0670695081

$$$$
103
     RDKit          3D

 43 45  0  0  0  0  0  0  0  0999 V2000
   23.1962   72.5308   -3.7864 P   0  0  2  0  0  0  0  0  0  0  0  0
   23.5160   73.8892   -2.9678 O   0  0  0  0  0  0  0  0  0  0  0  0
   23.2692   72.6587   -5.2796 O   0  0  0  0  0  0  0  0  0  0  0  0
   21.7722   72.0450   -3.1915 O   0  0  0  0  0  0  0  0  0  0  0  0
   20.9605   71.1986   -3.9869 C   0  0  0  0  0  0  0  0  0  0  0  0
   18.9163   72.0048   -4.9593 O   0  0  0  0  0  0  0  0  0  0  0  0
   17.5300   70.7799   -2.5995 O   0  0  0  0  0  0  0  0  0  0  0  0
   17.1009   68.9371   -4.5634 O   0  0  0  0  0  0  0  0  0  0  0  0
   18.6710   70.3134   -3.3176 C   0  0  1  0  0  0  0  0  0  0  0  0
   18.2532   69.7493   -4.6596 C   0  0  2  0  0  0  0  0  0  0  0  0
   19.4968   71.5270   -3.7259 C   0  0  1  0  0  0  0  0  0  0  0  0
   18.0131   71.0111   -5.4709 C   0  0  2  0  0  0  0  0  0  0  0  0
   16.9873   70.0225   -2.3279 H   0  0  0  0  0  0  0  0  0  0  0  0
   17.3046   68.1475   -4.0383 H   0  0  0  0  0  0  0  0  0  0  0  0
   16.1137   70.0596   -7.3322 O   0  0  0  0  0  0  0  0  0  0  0  0
   19.1237   70.3182  -10.8128 O   0  0  0  0  0  0  0  0  0  0  0  0
   18.2734   70.8206   -6.8699 N   0  0  0  0  0  0  0  0  0  0  0  0
   17.6139   70.1893   -9.0638 N   0  0  0  0  0  0  0  0  0  0  0  0
   17.2508   70.3369   -7.7190 C   0  0  0  0  0  0  0  0  0  0  0  0
   19.5309   71.1125   -7.3869 C   0  0  0  0  0  0  0  0  0  0  0  0
   19.8614   70.9650   -8.6715 C   0  0  0  0  0  0  0  0  0  0  0  0
   18.8506   70.4647   -9.6254 C   0  0  0  0  0  0  0  0  0  0  0  0
   16.9177   69.8534   -9.6739 H   0  0  0  0  0  0  0  0  0  0  0  0
   24.2367   71.4698   -3.1504 O   0  0  0  0  0  0  0  0  0  0  0  0
   24.0077   70.2459   -2.1195 P   0  0  2  0  0  0  0  0  0  0  0  0
   25.4929   69.6301   -1.9388 O   0  0  0  0  0  0  0  0  0  0  0  0
   22.9750   69.2513   -2.5648 O   0  0  0  0  0  0  0  0  0  0  0  0
   23.6863   70.9566   -0.7065 O   0  0  0  0  0  0  0  0  0  0  0  0
   24.8246   70.3737    1.2888 O   0  0  0  0  0  0  0  0  0  0  0  0
   21.3385   71.8603    2.9282 O   0  0  0  0  0  0  0  0  0  0  0  0
   23.7649   73.3825    3.1362 O   0  0  0  0  0  0  0  0  0  0  0  0
   21.2374   70.2965    0.4943 O   0  0  0  0  0  0  0  0  0  0  0  0
   22.4056   71.7909    1.9786 C   0  0  1  0  0  0  0  0  0  0  0  0
   23.7237   72.0201    2.7208 C   0  0  1  0  0  0  0  0  0  0  0  0
   22.3946   70.4152    1.3148 C   0  0  2  0  0  0  0  0  0  0  0  0
   24.9273   71.6980    1.8249 C   0  0  1  0  0  0  0  0  0  0  0  0
   23.6585   70.1775    0.4866 C   0  0  1  0  0  0  0  0  0  0  0  0
   21.3396   72.7315    3.3529 H   0  0  0  0  0  0  0  0  0  0  0  0
   22.9993   73.5729    3.7008 H   0  0  0  0  0  0  0  0  0  0  0  0
   20.4441   70.4488    1.0303 H   0  0  0  0  0  0  0  0  0  0  0  0
   26.5959   73.1292    2.7611 O   0  0  0  0  0  0  0  0  0  0  0  0
   26.2460   71.7678    2.5918 C   0  0  0  0  0  0  0  0  0  0  0  0
   27.4332   73.1890    3.2480 H   0  0  0  0  0  0  0  0  0  0  0  0
 25 28  1  0
 25 24  1  0
 25 26  1  1
 25 27  2  0
  1  4  1  0
  1 24  1  0
  1  2  1  1
  1  3  2  0
  6 11  1  0
  6 12  1  0
 29 36  1  0
 29 37  1  0
  9  7  1  1
  7 13  1  0
 10  8  1  1
  8 14  1  0
 37 28  1  6
  4  5  1  0
 33 30  1  1
 30 38  1  0
 34 31  1  6
 31 39  1  0
 35 32  1  6
 32 40  1  0
 41 42  1  0
 41 43  1  0
 15 19  2  0
 16 22  2  0
 12 17  1  6
 17 19  1  0
 17 20  1  0
 18 19  1  0
 18 22  1  0
 18 23  1  0
  9 10  1  0
  9 11  1  0
 10 12  1  0
 11  5  1  6
 33 34  1  0
 33 35  1  0
 34 36  1  0
 35 37  1  0
 36 42  1  1
 20 21  2  0
 21 22  1  0
M  CHG  2   2  -1  26  -1
M  END
>  <COMPND>  (103) 
    8629 

>  <AUTHOR>  (103) 
    GENERATED BY OPEN BABEL 3.1.1

>  <MASTER>  (103) 
        0    0    0    0    0    0    0    0   58    0   58    0

>  <minimizedAffinity>  (103) 
-8.01225

>  <CNNscore>  (103) 
0.7917624116

>  <CNNaffinity>  (103) 
4.5830154419

>  <CNN_VS>  (103) 
3.6286592484

>  <CNNaffinity_variance>  (103) 
0.0637997538

$$$$
104
     RDKit          3D

 43 45  0  0  0  0  0  0  0  0999 V2000
   23.3195   70.5397   -2.4642 P   0  0  2  0  0  0  0  0  0  0  0  0
   24.0016   71.6482   -3.4251 O   0  0  0  0  0  0  0  0  0  0  0  0
   24.1348   69.2984   -2.2504 O   0  0  0  0  0  0  0  0  0  0  0  0
   21.8534   70.3147   -3.1107 O   0  0  0  0  0  0  0  0  0  0  0  0
   21.3159   71.3317   -3.9380 C   0  0  0  0  0  0  0  0  0  0  0  0
   19.1544   71.9947   -4.7517 O   0  0  0  0  0  0  0  0  0  0  0  0
   18.0332   70.6529   -2.3158 O   0  0  0  0  0  0  0  0  0  0  0  0
   17.5980   68.7998   -4.2685 O   0  0  0  0  0  0  0  0  0  0  0  0
   19.1503   70.2767   -3.1194 C   0  0  1  0  0  0  0  0  0  0  0  0
   18.6789   69.6945   -4.4356 C   0  0  2  0  0  0  0  0  0  0  0  0
   19.8550   71.5504   -3.5692 C   0  0  1  0  0  0  0  0  0  0  0  0
   18.2907   70.9421   -5.2109 C   0  0  2  0  0  0  0  0  0  0  0  0
   17.5675   69.8558   -2.0163 H   0  0  0  0  0  0  0  0  0  0  0  0
   17.8953   68.0229   -3.7698 H   0  0  0  0  0  0  0  0  0  0  0  0
   16.3344   69.8734   -6.9455 O   0  0  0  0  0  0  0  0  0  0  0  0
   19.0614   70.3751  -10.6270 O   0  0  0  0  0  0  0  0  0  0  0  0
   18.4627   70.7823   -6.6273 N   0  0  0  0  0  0  0  0  0  0  0  0
   17.6938   70.1243   -8.7772 N   0  0  0  0  0  0  0  0  0  0  0  0
   17.4185   70.2343   -7.4082 C   0  0  0  0  0  0  0  0  0  0  0  0
   19.6563   71.1674   -7.2282 C   0  0  0  0  0  0  0  0  0  0  0  0
   19.9034   71.0547   -8.5349 C   0  0  0  0  0  0  0  0  0  0  0  0
   18.8645   70.4918   -9.4214 C   0  0  0  0  0  0  0  0  0  0  0  0
   16.9810   69.7448   -9.3410 H   0  0  0  0  0  0  0  0  0  0  0  0
   22.9985   71.3741   -1.1175 O   0  0  0  0  0  0  0  0  0  0  0  0
   22.2124   70.9524    0.2305 P   0  0  2  0  0  0  0  0  0  0  0  0
   23.0822   69.7101    0.7941 O   0  0  0  0  0  0  0  0  0  0  0  0
   20.7572   70.6464    0.0241 O   0  0  0  0  0  0  0  0  0  0  0  0
   22.5024   72.1561    1.2660 O   0  0  0  0  0  0  0  0  0  0  0  0
   22.8161   74.4959    1.0578 O   0  0  0  0  0  0  0  0  0  0  0  0
   25.8682   73.6544    3.7086 O   0  0  0  0  0  0  0  0  0  0  0  0
   23.5238   75.0298    4.6359 O   0  0  0  0  0  0  0  0  0  0  0  0
   25.2714   71.8081    1.5604 O   0  0  0  0  0  0  0  0  0  0  0  0
   24.5723   73.5027    3.1229 C   0  0  1  0  0  0  0  0  0  0  0  0
   23.8265   74.8317    3.2577 C   0  0  1  0  0  0  0  0  0  0  0  0
   24.7308   73.1218    1.6521 C   0  0  2  0  0  0  0  0  0  0  0  0
   22.5391   74.8317    2.4224 C   0  0  1  0  0  0  0  0  0  0  0  0
   23.4002   73.2012    0.9015 C   0  0  1  0  0  0  0  0  0  0  0  0
   25.7747   73.8957    4.6427 H   0  0  0  0  0  0  0  0  0  0  0  0
   24.3451   75.0272    5.1522 H   0  0  0  0  0  0  0  0  0  0  0  0
   26.1136   71.7710    2.0392 H   0  0  0  0  0  0  0  0  0  0  0  0
   22.1125   76.8205    1.1688 O   0  0  0  0  0  0  0  0  0  0  0  0
   21.8613   76.2002    2.4164 C   0  0  0  0  0  0  0  0  0  0  0  0
   21.6868   77.6924    1.1504 H   0  0  0  0  0  0  0  0  0  0  0  0
 25 28  1  0
 25 24  1  0
 25 26  1  1
 25 27  2  0
  1  4  1  0
  1 24  1  0
  1  2  1  6
  1  3  2  0
  6 11  1  0
  6 12  1  0
 29 36  1  0
 29 37  1  0
  9  7  1  1
  7 13  1  0
 10  8  1  1
  8 14  1  0
 37 28  1  1
  4  5  1  0
 33 30  1  6
 30 38  1  0
 34 31  1  1
 31 39  1  0
 35 32  1  1
 32 40  1  0
 41 42  1  0
 41 43  1  0
 15 19  2  0
 16 22  2  0
 12 17  1  6
 17 19  1  0
 17 20  1  0
 18 19  1  0
 18 22  1  0
 18 23  1  0
  9 10  1  0
  9 11  1  0
 10 12  1  0
 11  5  1  6
 33 34  1  0
 33 35  1  0
 34 36  1  0
 35 37  1  0
 36 42  1  6
 20 21  2  0
 21 22  1  0
M  CHG  2   2  -1  26  -1
M  END
>  <COMPND>  (104) 
    8629 

>  <AUTHOR>  (104) 
    GENERATED BY OPEN BABEL 3.1.1

>  <MASTER>  (104) 
        0    0    0    0    0    0    0    0   58    0   58    0

>  <minimizedAffinity>  (104) 
-6.91812

>  <CNNscore>  (104) 
0.7851441503

>  <CNNaffinity>  (104) 
4.4693727493

>  <CNN_VS>  (104) 
3.5091018677

>  <CNNaffinity_variance>  (104) 
0.0270319767

$$$$
105
     RDKit          3D

 43 45  0  0  0  0  0  0  0  0999 V2000
   21.3718   73.7432   -5.1316 P   0  0  2  0  0  0  0  0  0  0  0  0
   21.0652   75.0780   -5.9929 O   0  0  0  0  0  0  0  0  0  0  0  0
   21.8775   72.5769   -5.9287 O   0  0  0  0  0  0  0  0  0  0  0  0
   20.0029   73.4901   -4.3070 O   0  0  0  0  0  0  0  0  0  0  0  0
   19.7730   72.2048   -3.7566 C   0  0  0  0  0  0  0  0  0  0  0  0
   17.7257   72.1426   -5.0130 O   0  0  0  0  0  0  0  0  0  0  0  0
   16.5988   70.5431   -2.7410 O   0  0  0  0  0  0  0  0  0  0  0  0
   17.1604   68.6255   -4.5968 O   0  0  0  0  0  0  0  0  0  0  0  0
   17.9165   70.5296   -3.2875 C   0  0  1  0  0  0  0  0  0  0  0  0
   17.9249   69.8137   -4.6221 C   0  0  2  0  0  0  0  0  0  0  0  0
   18.2725   71.9555   -3.6892 C   0  0  1  0  0  0  0  0  0  0  0  0
   17.3393   70.8662   -5.5479 C   0  0  2  0  0  0  0  0  0  0  0  0
   16.3493   69.6431   -2.4767 H   0  0  0  0  0  0  0  0  0  0  0  0
   17.5736   67.9877   -3.9941 H   0  0  0  0  0  0  0  0  0  0  0  0
   15.7359   70.2908   -7.8010 O   0  0  0  0  0  0  0  0  0  0  0  0
   19.3566   70.4546  -10.6480 O   0  0  0  0  0  0  0  0  0  0  0  0
   17.8368   70.7530   -6.8900 N   0  0  0  0  0  0  0  0  0  0  0  0
   17.5400   70.3730   -9.2168 N   0  0  0  0  0  0  0  0  0  0  0  0
   16.9479   70.4600   -7.9504 C   0  0  0  0  0  0  0  0  0  0  0  0
   19.1922   70.9323   -7.1440 C   0  0  0  0  0  0  0  0  0  0  0  0
   19.7413   70.8448   -8.3573 C   0  0  0  0  0  0  0  0  0  0  0  0
   18.8818   70.5418   -9.5198 C   0  0  0  0  0  0  0  0  0  0  0  0
   16.9402   70.1694   -9.9707 H   0  0  0  0  0  0  0  0  0  0  0  0
   22.3897   74.2716   -3.9925 O   0  0  0  0  0  0  0  0  0  0  0  0
   23.5735   73.5150   -3.1930 P   0  0  2  0  0  0  0  0  0  0  0  0
   24.4675   74.7328   -2.6140 O   0  0  0  0  0  0  0  0  0  0  0  0
   24.3392   72.5237   -4.0207 O   0  0  0  0  0  0  0  0  0  0  0  0
   22.8516   72.8857   -1.8938 O   0  0  0  0  0  0  0  0  0  0  0  0
   23.5670   73.3661    0.3139 O   0  0  0  0  0  0  0  0  0  0  0  0
   21.7681   69.7101    0.9840 O   0  0  0  0  0  0  0  0  0  0  0  0
   20.4921   72.1097    1.9126 O   0  0  0  0  0  0  0  0  0  0  0  0
   23.2847   70.1501   -1.4421 O   0  0  0  0  0  0  0  0  0  0  0  0
   21.9294   70.9887    0.3639 C   0  0  1  0  0  0  0  0  0  0  0  0
   21.8388   72.0631    1.4493 C   0  0  1  0  0  0  0  0  0  0  0  0
   23.2893   71.0388   -0.3301 C   0  0  2  0  0  0  0  0  0  0  0  0
   22.2656   73.4344    0.9085 C   0  0  1  0  0  0  0  0  0  0  0  0
   23.6389   72.4566   -0.7860 C   0  0  1  0  0  0  0  0  0  0  0  0
   20.9063   69.6715    1.4261 H   0  0  0  0  0  0  0  0  0  0  0  0
   20.2350   71.2376    2.2509 H   0  0  0  0  0  0  0  0  0  0  0  0
   23.0624   69.2560   -1.1403 H   0  0  0  0  0  0  0  0  0  0  0  0
   21.0168   74.9125    2.3101 O   0  0  0  0  0  0  0  0  0  0  0  0
   22.3341   74.4882    2.0117 C   0  0  0  0  0  0  0  0  0  0  0  0
   21.0448   75.5831    3.0110 H   0  0  0  0  0  0  0  0  0  0  0  0
 25 28  1  0
 25 24  1  0
 25 26  1  1
 25 27  2  0
  1  4  1  0
  1 24  1  0
  1  2  1  6
  1  3  2  0
  6 11  1  0
  6 12  1  0
 29 36  1  0
 29 37  1  0
  9  7  1  6
  7 13  1  0
 10  8  1  1
  8 14  1  0
 37 28  1  6
  4  5  1  0
 33 30  1  1
 30 38  1  0
 34 31  1  6
 31 39  1  0
 35 32  1  6
 32 40  1  0
 41 42  1  0
 41 43  1  0
 15 19  2  0
 16 22  2  0
 12 17  1  6
 17 19  1  0
 17 20  1  0
 18 19  1  0
 18 22  1  0
 18 23  1  0
  9 10  1  0
  9 11  1  0
 10 12  1  0
 11  5  1  6
 33 34  1  0
 33 35  1  0
 34 36  1  0
 35 37  1  0
 36 42  1  1
 20 21  2  0
 21 22  1  0
M  CHG  2   2  -1  26  -1
M  END
>  <COMPND>  (105) 
    8629 

>  <AUTHOR>  (105) 
    GENERATED BY OPEN BABEL 3.1.1

>  <MASTER>  (105) 
        0    0    0    0    0    0    0    0   58    0   58    0

>  <minimizedAffinity>  (105) 
-7.22330

>  <CNNscore>  (105) 
0.7735883594

>  <CNNaffinity>  (105) 
4.5723009109

>  <CNN_VS>  (105) 
3.5370788574

>  <CNNaffinity_variance>  (105) 
0.0315087512

$$$$
106
     RDKit          3D

 43 45  0  0  0  0  0  0  0  0999 V2000
   21.2441   71.0171   -2.3745 P   0  0  2  0  0  0  0  0  0  0  0  0
   22.6034   70.1463   -2.4807 O   0  0  0  0  0  0  0  0  0  0  0  0
   20.4628   70.8206   -1.1086 O   0  0  0  0  0  0  0  0  0  0  0  0
   20.4565   70.6768   -3.7463 O   0  0  0  0  0  0  0  0  0  0  0  0
   19.5535   69.5848   -3.7544 C   0  0  0  0  0  0  0  0  0  0  0  0
   17.9596   71.0271   -4.8282 O   0  0  0  0  0  0  0  0  0  0  0  0
   15.8548   69.5083   -3.3268 O   0  0  0  0  0  0  0  0  0  0  0  0
   15.7198   68.4065   -5.8177 O   0  0  0  0  0  0  0  0  0  0  0  0
   17.0734   69.0355   -3.8985 C   0  0  1  0  0  0  0  0  0  0  0  0
   16.9527   68.9610   -5.4063 C   0  0  2  0  0  0  0  0  0  0  0  0
   18.1285   70.1197   -3.7171 C   0  0  1  0  0  0  0  0  0  0  0  0
   17.1007   70.4190   -5.8068 C   0  0  2  0  0  0  0  0  0  0  0  0
   15.1659   68.8326   -3.4303 H   0  0  0  0  0  0  0  0  0  0  0  0
   15.6737   67.4784   -5.5398 H   0  0  0  0  0  0  0  0  0  0  0  0
   16.3366   72.3852   -7.6851 O   0  0  0  0  0  0  0  0  0  0  0  0
   19.4378   70.9141  -10.7608 O   0  0  0  0  0  0  0  0  0  0  0  0
   17.6920   70.5728   -7.1060 N   0  0  0  0  0  0  0  0  0  0  0  0
   17.8815   71.6512   -9.2150 N   0  0  0  0  0  0  0  0  0  0  0  0
   17.2348   71.5918   -7.9739 C   0  0  0  0  0  0  0  0  0  0  0  0
   18.7136   69.7191   -7.5080 C   0  0  0  0  0  0  0  0  0  0  0  0
   19.3190   69.7882   -8.6954 C   0  0  0  0  0  0  0  0  0  0  0  0
   18.9007   70.8248   -9.6611 C   0  0  0  0  0  0  0  0  0  0  0  0
   17.5794   72.3530   -9.8362 H   0  0  0  0  0  0  0  0  0  0  0  0
   21.7611   72.5292   -2.6180 O   0  0  0  0  0  0  0  0  0  0  0  0
   23.2419   73.1119   -2.9024 P   0  0  2  0  0  0  0  0  0  0  0  0
   22.9598   74.6428   -3.3431 O   0  0  0  0  0  0  0  0  0  0  0  0
   24.0351   72.3168   -3.8987 O   0  0  0  0  0  0  0  0  0  0  0  0
   23.9229   73.2265   -1.4436 O   0  0  0  0  0  0  0  0  0  0  0  0
   22.9963   72.5564    0.6322 O   0  0  0  0  0  0  0  0  0  0  0  0
   25.2533   75.7646    1.9221 O   0  0  0  0  0  0  0  0  0  0  0  0
   26.1034   73.0924    2.5420 O   0  0  0  0  0  0  0  0  0  0  0  0
   23.8588   75.9055   -0.6107 O   0  0  0  0  0  0  0  0  0  0  0  0
   24.9522   74.6253    1.1117 C   0  0  1  0  0  0  0  0  0  0  0  0
   24.8124   73.4083    2.0284 C   0  0  1  0  0  0  0  0  0  0  0  0
   23.6500   74.8809    0.3552 C   0  0  2  0  0  0  0  0  0  0  0  0
   24.2304   72.2077    1.2702 C   0  0  1  0  0  0  0  0  0  0  0  0
   23.1317   73.6111   -0.3223 C   0  0  1  0  0  0  0  0  0  0  0  0
   26.0793   75.6090    2.4047 H   0  0  0  0  0  0  0  0  0  0  0  0
   26.4599   73.8589    3.0180 H   0  0  0  0  0  0  0  0  0  0  0  0
   24.1865   76.7040   -0.1693 H   0  0  0  0  0  0  0  0  0  0  0  0
   24.6313   69.8960    1.7222 O   0  0  0  0  0  0  0  0  0  0  0  0
   23.9355   71.0326    2.1999 C   0  0  0  0  0  0  0  0  0  0  0  0
   24.4532   69.1403    2.3044 H   0  0  0  0  0  0  0  0  0  0  0  0
 25 28  1  0
 25 24  1  0
 25 26  1  6
 25 27  2  0
  1  4  1  0
  1 24  1  0
  1  2  1  1
  1  3  2  0
  6 11  1  0
  6 12  1  0
 29 36  1  0
 29 37  1  0
  9  7  1  1
  7 13  1  0
 10  8  1  1
  8 14  1  0
 37 28  1  6
  4  5  1  0
 33 30  1  1
 30 38  1  0
 34 31  1  6
 31 39  1  0
 35 32  1  6
 32 40  1  0
 41 42  1  0
 41 43  1  0
 15 19  2  0
 16 22  2  0
 12 17  1  6
 17 19  1  0
 17 20  1  0
 18 19  1  0
 18 22  1  0
 18 23  1  0
  9 10  1  0
  9 11  1  0
 10 12  1  0
 11  5  1  6
 33 34  1  0
 33 35  1  0
 34 36  1  0
 35 37  1  0
 36 42  1  1
 20 21  2  0
 21 22  1  0
M  CHG  2   2  -1  26  -1
M  END
>  <COMPND>  (106) 
    8629 

>  <AUTHOR>  (106) 
    GENERATED BY OPEN BABEL 3.1.1

>  <MASTER>  (106) 
        0    0    0    0    0    0    0    0   58    0   58    0

>  <minimizedAffinity>  (106) 
-6.65841

>  <CNNscore>  (106) 
0.7648960352

>  <CNNaffinity>  (106) 
4.6061363220

>  <CNN_VS>  (106) 
3.5232152939

>  <CNNaffinity_variance>  (106) 
0.0310680009

$$$$
107
     RDKit          3D

 43 45  0  0  0  0  0  0  0  0999 V2000
   22.7505   72.1796   -3.6119 P   0  0  2  0  0  0  0  0  0  0  0  0
   22.0919   70.7036   -3.6825 O   0  0  0  0  0  0  0  0  0  0  0  0
   24.1462   72.2774   -4.1541 O   0  0  0  0  0  0  0  0  0  0  0  0
   22.5659   72.6136   -2.0642 O   0  0  0  0  0  0  0  0  0  0  0  0
   22.6844   71.6172   -1.0638 C   0  0  0  0  0  0  0  0  0  0  0  0
   24.2569   72.5681    0.4844 O   0  0  0  0  0  0  0  0  0  0  0  0
   25.9324   70.1311   -0.0100 O   0  0  0  0  0  0  0  0  0  0  0  0
   24.7492   69.5639    2.3806 O   0  0  0  0  0  0  0  0  0  0  0  0
   24.5125   70.2506    0.0603 C   0  0  1  0  0  0  0  0  0  0  0  0
   24.0708   70.4336    1.4973 C   0  0  2  0  0  0  0  0  0  0  0  0
   24.1224   71.5843   -0.5646 C   0  0  1  0  0  0  0  0  0  0  0  0
   24.4033   71.8951    1.7455 C   0  0  2  0  0  0  0  0  0  0  0  0
   26.2055   69.2867    0.3829 H   0  0  0  0  0  0  0  0  0  0  0  0
   24.5046   68.6465    2.1826 H   0  0  0  0  0  0  0  0  0  0  0  0
   21.6583   71.2811    2.0024 O   0  0  0  0  0  0  0  0  0  0  0  0
   21.1210   74.2880    5.4536 O   0  0  0  0  0  0  0  0  0  0  0  0
   23.5225   72.5022    2.7031 N   0  0  0  0  0  0  0  0  0  0  0  0
   21.3931   72.7787    3.7207 N   0  0  0  0  0  0  0  0  0  0  0  0
   22.1604   72.1239    2.7489 C   0  0  0  0  0  0  0  0  0  0  0  0
   24.0112   73.4610    3.5838 C   0  0  0  0  0  0  0  0  0  0  0  0
   23.2661   74.0769    4.5039 C   0  0  0  0  0  0  0  0  0  0  0  0
   21.8326   73.7392    4.6179 C   0  0  0  0  0  0  0  0  0  0  0  0
   20.4411   72.5315    3.7709 H   0  0  0  0  0  0  0  0  0  0  0  0
   21.6648   73.0991   -4.3792 O   0  0  0  0  0  0  0  0  0  0  0  0
   20.0594   72.9617   -4.5086 P   0  0  2  0  0  0  0  0  0  0  0  0
   19.5497   74.4960   -4.4490 O   0  0  0  0  0  0  0  0  0  0  0  0
   19.4342   72.0611   -3.4829 O   0  0  0  0  0  0  0  0  0  0  0  0
   19.8102   72.5085   -6.0375 O   0  0  0  0  0  0  0  0  0  0  0  0
   19.1096   70.2449   -5.9932 O   0  0  0  0  0  0  0  0  0  0  0  0
   19.2302   70.8184  -10.0807 O   0  0  0  0  0  0  0  0  0  0  0  0
   16.6924   70.6183   -8.7512 O   0  0  0  0  0  0  0  0  0  0  0  0
   21.2534   72.0188   -8.3938 O   0  0  0  0  0  0  0  0  0  0  0  0
   19.0135   71.1947   -8.7180 C   0  0  1  0  0  0  0  0  0  0  0  0
   17.9324   70.2826   -8.1348 C   0  0  1  0  0  0  0  0  0  0  0  0
   20.3214   71.0414   -7.9438 C   0  0  2  0  0  0  0  0  0  0  0  0
   17.8332   70.4447   -6.6120 C   0  0  1  0  0  0  0  0  0  0  0  0
   20.1033   71.1717   -6.4353 C   0  0  1  0  0  0  0  0  0  0  0  0
   18.4037   70.9139  -10.5779 H   0  0  0  0  0  0  0  0  0  0  0  0
   16.7687   70.5123   -9.7126 H   0  0  0  0  0  0  0  0  0  0  0  0
   21.3830   71.9256   -9.3501 H   0  0  0  0  0  0  0  0  0  0  0  0
   16.0800   70.0998   -5.0257 O   0  0  0  0  0  0  0  0  0  0  0  0
   16.8730   69.4329   -5.9905 C   0  0  0  0  0  0  0  0  0  0  0  0
   15.4638   69.4681   -4.6220 H   0  0  0  0  0  0  0  0  0  0  0  0
 25 28  1  0
 25 24  1  0
 25 26  1  6
 25 27  2  0
  1  4  1  0
  1 24  1  0
  1  2  1  1
  1  3  2  0
  6 11  1  0
  6 12  1  0
 29 36  1  0
 29 37  1  0
  9  7  1  1
  7 13  1  0
 10  8  1  1
  8 14  1  0
 37 28  1  6
  4  5  1  0
 33 30  1  6
 30 38  1  0
 34 31  1  6
 31 39  1  0
 35 32  1  6
 32 40  1  0
 41 42  1  0
 41 43  1  0
 15 19  2  0
 16 22  2  0
 12 17  1  1
 17 19  1  0
 17 20  1  0
 18 19  1  0
 18 22  1  0
 18 23  1  0
  9 10  1  0
  9 11  1  0
 10 12  1  0
 11  5  1  1
 33 34  1  0
 33 35  1  0
 34 36  1  0
 35 37  1  0
 36 42  1  1
 20 21  2  0
 21 22  1  0
M  CHG  2   2  -1  26  -1
M  END
>  <COMPND>  (107) 
    8629 

>  <AUTHOR>  (107) 
    GENERATED BY OPEN BABEL 3.1.1

>  <MASTER>  (107) 
        0    0    0    0    0    0    0    0   58    0   58    0

>  <minimizedAffinity>  (107) 
-7.50294

>  <CNNscore>  (107) 
0.7043805718

>  <CNNaffinity>  (107) 
4.3386740685

>  <CNN_VS>  (107) 
3.0560777187

>  <CNNaffinity_variance>  (107) 
0.0359326415

$$$$
108
     RDKit          3D

 43 45  0  0  0  0  0  0  0  0999 V2000
   21.1838   72.4903   -5.2702 P   0  0  2  0  0  0  0  0  0  0  0  0
   20.2437   71.9363   -4.0758 O   0  0  0  0  0  0  0  0  0  0  0  0
   20.9389   73.9187   -5.6588 O   0  0  0  0  0  0  0  0  0  0  0  0
   20.9963   71.3991   -6.4500 O   0  0  0  0  0  0  0  0  0  0  0  0
   20.2826   71.7778   -7.6140 C   0  0  0  0  0  0  0  0  0  0  0  0
   18.9106   69.9025   -7.0017 O   0  0  0  0  0  0  0  0  0  0  0  0
   18.0558   69.8286   -9.8748 O   0  0  0  0  0  0  0  0  0  0  0  0
   15.9529   71.0698   -8.6608 O   0  0  0  0  0  0  0  0  0  0  0  0
   18.3501   70.9547   -9.0498 C   0  0  1  0  0  0  0  0  0  0  0  0
   17.2269   71.1904   -8.0616 C   0  0  2  0  0  0  0  0  0  0  0  0
   19.5061   70.5751   -8.1327 C   0  0  1  0  0  0  0  0  0  0  0  0
   17.4892   70.1126   -7.0235 C   0  0  2  0  0  0  0  0  0  0  0  0
   17.3207   70.0471  -10.4696 H   0  0  0  0  0  0  0  0  0  0  0  0
   15.8339   71.7775   -9.3133 H   0  0  0  0  0  0  0  0  0  0  0  0
   16.6028   68.3078   -5.0398 O   0  0  0  0  0  0  0  0  0  0  0  0
   15.8451   71.7094   -2.0238 O   0  0  0  0  0  0  0  0  0  0  0  0
   17.0548   70.4993   -5.7108 N   0  0  0  0  0  0  0  0  0  0  0  0
   16.2264   70.0030   -3.5397 N   0  0  0  0  0  0  0  0  0  0  0  0
   16.6280   69.5146   -4.7896 C   0  0  0  0  0  0  0  0  0  0  0  0
   17.0552   71.8418   -5.3482 C   0  0  0  0  0  0  0  0  0  0  0  0
   16.6680   72.2913   -4.1527 C   0  0  0  0  0  0  0  0  0  0  0  0
   16.2076   71.3275   -3.1323 C   0  0  0  0  0  0  0  0  0  0  0  0
   15.9247   69.3353   -2.8818 H   0  0  0  0  0  0  0  0  0  0  0  0
   22.6763   72.1869   -4.7285 O   0  0  0  0  0  0  0  0  0  0  0  0
   23.5967   72.9724   -3.6567 P   0  0  2  0  0  0  0  0  0  0  0  0
   22.5813   74.0609   -3.0229 O   0  0  0  0  0  0  0  0  0  0  0  0
   24.8510   73.5596   -4.2362 O   0  0  0  0  0  0  0  0  0  0  0  0
   23.8433   71.9059   -2.4707 O   0  0  0  0  0  0  0  0  0  0  0  0
   24.0519   69.5454   -2.4393 O   0  0  0  0  0  0  0  0  0  0  0  0
   21.7477   70.0494    0.9501 O   0  0  0  0  0  0  0  0  0  0  0  0
   24.5151   69.3273    1.2113 O   0  0  0  0  0  0  0  0  0  0  0  0
   21.2656   71.6956   -1.3817 O   0  0  0  0  0  0  0  0  0  0  0  0
   22.7546   70.3965   -0.0045 C   0  0  1  0  0  0  0  0  0  0  0  0
   23.8031   69.2825   -0.0221 C   0  0  1  0  0  0  0  0  0  0  0  0
   22.1075   70.5477   -1.3799 C   0  0  2  0  0  0  0  0  0  0  0  0
   24.7689   69.4495   -1.2030 C   0  0  1  0  0  0  0  0  0  0  0  0
   23.1560   70.6575   -2.4884 C   0  0  1  0  0  0  0  0  0  0  0  0
   22.1519   69.9523    1.8257 H   0  0  0  0  0  0  0  0  0  0  0  0
   23.8937   69.2212    1.9488 H   0  0  0  0  0  0  0  0  0  0  0  0
   20.6061   71.6138   -0.6758 H   0  0  0  0  0  0  0  0  0  0  0  0
   25.2261   67.1980   -0.5469 O   0  0  0  0  0  0  0  0  0  0  0  0
   25.7245   68.2653   -1.3322 C   0  0  0  0  0  0  0  0  0  0  0  0
   25.8241   66.4372   -0.6197 H   0  0  0  0  0  0  0  0  0  0  0  0
 25 28  1  0
 25 24  1  0
 25 26  1  1
 25 27  2  0
  1  4  1  0
  1 24  1  0
  1  2  1  1
  1  3  2  0
  6 11  1  0
  6 12  1  0
 29 36  1  0
 29 37  1  0
  9  7  1  6
  7 13  1  0
 10  8  1  6
  8 14  1  0
 37 28  1  1
  4  5  1  0
 33 30  1  1
 30 38  1  0
 34 31  1  1
 31 39  1  0
 35 32  1  1
 32 40  1  0
 41 42  1  0
 41 43  1  0
 15 19  2  0
 16 22  2  0
 12 17  1  1
 17 19  1  0
 17 20  1  0
 18 19  1  0
 18 22  1  0
 18 23  1  0
  9 10  1  0
  9 11  1  0
 10 12  1  0
 11  5  1  1
 33 34  1  0
 33 35  1  0
 34 36  1  0
 35 37  1  0
 36 42  1  6
 20 21  2  0
 21 22  1  0
M  CHG  2   2  -1  26  -1
M  END
>  <COMPND>  (108) 
    8629 

>  <AUTHOR>  (108) 
    GENERATED BY OPEN BABEL 3.1.1

>  <MASTER>  (108) 
        0    0    0    0    0    0    0    0   58    0   58    0

>  <minimizedAffinity>  (108) 
-8.36901

>  <CNNscore>  (108) 
0.6662057638

>  <CNNaffinity>  (108) 
4.3881478310

>  <CNN_VS>  (108) 
2.9234094620

>  <CNNaffinity_variance>  (108) 
0.5436472893

$$$$
109
     RDKit          3D

 43 45  0  0  0  0  0  0  0  0999 V2000
   20.8937   73.8072   -2.4017 P   0  0  2  0  0  0  0  0  0  0  0  0
   20.9009   75.3577   -2.8633 O   0  0  0  0  0  0  0  0  0  0  0  0
   22.0849   73.0089   -2.8435 O   0  0  0  0  0  0  0  0  0  0  0  0
   19.4559   73.2595   -2.9024 O   0  0  0  0  0  0  0  0  0  0  0  0
   19.0563   73.5294   -4.2348 C   0  0  0  0  0  0  0  0  0  0  0  0
   17.2208   73.2024   -5.7507 O   0  0  0  0  0  0  0  0  0  0  0  0
   15.6763   72.2243   -3.3741 O   0  0  0  0  0  0  0  0  0  0  0  0
   16.4005   69.9031   -4.6086 O   0  0  0  0  0  0  0  0  0  0  0  0
   17.0582   72.0536   -3.6845 C   0  0  1  0  0  0  0  0  0  0  0  0
   17.2264   71.0349   -4.7924 C   0  0  2  0  0  0  0  0  0  0  0  0
   17.5510   73.3322   -4.3506 C   0  0  1  0  0  0  0  0  0  0  0  0
   16.8472   71.8418   -6.0226 C   0  0  2  0  0  0  0  0  0  0  0  0
   15.3392   71.4204   -2.9474 H   0  0  0  0  0  0  0  0  0  0  0  0
   16.6815   69.4232   -3.8140 H   0  0  0  0  0  0  0  0  0  0  0  0
   15.6280   70.4204   -8.1371 O   0  0  0  0  0  0  0  0  0  0  0  0
   19.5783   70.1835  -10.4992 O   0  0  0  0  0  0  0  0  0  0  0  0
   17.5334   71.3966   -7.2025 N   0  0  0  0  0  0  0  0  0  0  0  0
   17.5959   70.3038   -9.3116 N   0  0  0  0  0  0  0  0  0  0  0  0
   16.8291   70.6895   -8.2047 C   0  0  0  0  0  0  0  0  0  0  0  0
   18.8897   71.6622   -7.3572 C   0  0  0  0  0  0  0  0  0  0  0  0
   19.6067   71.2863   -8.4182 C   0  0  0  0  0  0  0  0  0  0  0  0
   18.9464   70.5431   -9.5107 C   0  0  0  0  0  0  0  0  0  0  0  0
   17.1264   69.8096  -10.0223 H   0  0  0  0  0  0  0  0  0  0  0  0
   20.7068   73.9059   -0.7991 O   0  0  0  0  0  0  0  0  0  0  0  0
   21.7435   74.3303    0.3663 P   0  0  2  0  0  0  0  0  0  0  0  0
   20.8505   74.2298    1.7118 O   0  0  0  0  0  0  0  0  0  0  0  0
   22.3951   75.6660    0.1539 O   0  0  0  0  0  0  0  0  0  0  0  0
   22.7737   73.0920    0.4674 O   0  0  0  0  0  0  0  0  0  0  0  0
   22.4241   70.9286   -0.4348 O   0  0  0  0  0  0  0  0  0  0  0  0
   24.8196   69.9254    2.7755 O   0  0  0  0  0  0  0  0  0  0  0  0
   25.8915   69.8038    0.1139 O   0  0  0  0  0  0  0  0  0  0  0  0
   22.8279   72.0073    3.0550 O   0  0  0  0  0  0  0  0  0  0  0  0
   24.3641   70.7450    1.6956 C   0  0  1  0  0  0  0  0  0  0  0  0
   24.5025   69.9478    0.3971 C   0  0  1  0  0  0  0  0  0  0  0  0
   22.9051   71.1264    1.9395 C   0  0  2  0  0  0  0  0  0  0  0  0
   23.7906   70.6537   -0.7648 C   0  0  1  0  0  0  0  0  0  0  0  0
   22.2777   71.7773    0.7054 C   0  0  1  0  0  0  0  0  0  0  0  0
   25.7455   69.6802    2.6271 H   0  0  0  0  0  0  0  0  0  0  0  0
   26.3293   69.3571    0.8555 H   0  0  0  0  0  0  0  0  0  0  0  0
   23.2280   71.5837    3.8297 H   0  0  0  0  0  0  0  0  0  0  0  0
   24.6243   70.4121   -2.9909 O   0  0  0  0  0  0  0  0  0  0  0  0
   23.7807   69.8014   -2.0319 C   0  0  0  0  0  0  0  0  0  0  0  0
   24.6281   69.8803   -3.8026 H   0  0  0  0  0  0  0  0  0  0  0  0
 25 28  1  0
 25 24  1  0
 25 26  1  1
 25 27  2  0
  1  4  1  0
  1 24  1  0
  1  2  1  6
  1  3  2  0
  6 11  1  0
  6 12  1  0
 29 36  1  0
 29 37  1  0
  9  7  1  6
  7 13  1  0
 10  8  1  1
  8 14  1  0
 37 28  1  6
  4  5  1  0
 33 30  1  1
 30 38  1  0
 34 31  1  6
 31 39  1  0
 35 32  1  1
 32 40  1  0
 41 42  1  0
 41 43  1  0
 15 19  2  0
 16 22  2  0
 12 17  1  6
 17 19  1  0
 17 20  1  0
 18 19  1  0
 18 22  1  0
 18 23  1  0
  9 10  1  0
  9 11  1  0
 10 12  1  0
 11  5  1  6
 33 34  1  0
 33 35  1  0
 34 36  1  0
 35 37  1  0
 36 42  1  6
 20 21  2  0
 21 22  1  0
M  CHG  2   2  -1  26  -1
M  END
>  <COMPND>  (109) 
    8629 

>  <AUTHOR>  (109) 
    GENERATED BY OPEN BABEL 3.1.1

>  <MASTER>  (109) 
        0    0    0    0    0    0    0    0   58    0   58    0

>  <minimizedAffinity>  (109) 
-6.61034

>  <CNNscore>  (109) 
0.6226994395

>  <CNNaffinity>  (109) 
4.2846460342

>  <CNN_VS>  (109) 
2.6680467129

>  <CNNaffinity_variance>  (109) 
0.0295467023

$$$$
110
     RDKit          3D

 43 45  0  0  0  0  0  0  0  0999 V2000
   21.8432   72.4030   -5.4267 P   0  0  2  0  0  0  0  0  0  0  0  0
   21.0643   73.7643   -5.0300 O   0  0  0  0  0  0  0  0  0  0  0  0
   23.3372   72.4689   -5.3039 O   0  0  0  0  0  0  0  0  0  0  0  0
   21.2743   72.0448   -6.8984 O   0  0  0  0  0  0  0  0  0  0  0  0
   19.8891   72.2101   -7.1464 C   0  0  0  0  0  0  0  0  0  0  0  0
   18.6856   70.1971   -6.6234 O   0  0  0  0  0  0  0  0  0  0  0  0
   18.1899   69.9504   -9.5703 O   0  0  0  0  0  0  0  0  0  0  0  0
   15.8269   70.9552   -8.6522 O   0  0  0  0  0  0  0  0  0  0  0  0
   18.2499   71.1235   -8.7607 C   0  0  1  0  0  0  0  0  0  0  0  0
   16.9983   71.2445   -7.9167 C   0  0  2  0  0  0  0  0  0  0  0  0
   19.3266   70.9097   -7.7040 C   0  0  1  0  0  0  0  0  0  0  0  0
   17.2619   70.2320   -6.8151 C   0  0  2  0  0  0  0  0  0  0  0  0
   17.5093   70.0633  -10.2529 H   0  0  0  0  0  0  0  0  0  0  0  0
   15.7028   71.6273   -9.3405 H   0  0  0  0  0  0  0  0  0  0  0  0
   16.8531   68.4593   -4.6545 O   0  0  0  0  0  0  0  0  0  0  0  0
   14.8384   71.7327   -2.1115 O   0  0  0  0  0  0  0  0  0  0  0  0
   16.6334   70.5945   -5.5762 N   0  0  0  0  0  0  0  0  0  0  0  0
   15.8504   70.0907   -3.3900 N   0  0  0  0  0  0  0  0  0  0  0  0
   16.4757   69.6286   -4.5551 C   0  0  0  0  0  0  0  0  0  0  0  0
   16.1813   71.8954   -5.3831 C   0  0  0  0  0  0  0  0  0  0  0  0
   15.5859   72.3197   -4.2665 C   0  0  0  0  0  0  0  0  0  0  0  0
   15.3826   71.3731   -3.1509 C   0  0  0  0  0  0  0  0  0  0  0  0
   15.7294   69.4351   -2.6651 H   0  0  0  0  0  0  0  0  0  0  0  0
   21.1392   71.2937   -4.4850 O   0  0  0  0  0  0  0  0  0  0  0  0
   20.1209   71.4505   -3.2395 P   0  0  2  0  0  0  0  0  0  0  0  0
   19.6119   69.9362   -2.9834 O   0  0  0  0  0  0  0  0  0  0  0  0
   19.0186   72.4441   -3.4671 O   0  0  0  0  0  0  0  0  0  0  0  0
   21.0690   71.7811   -1.9758 O   0  0  0  0  0  0  0  0  0  0  0  0
   21.7280   70.1586   -0.3790 O   0  0  0  0  0  0  0  0  0  0  0  0
   21.9872   73.5425    1.9731 O   0  0  0  0  0  0  0  0  0  0  0  0
   24.3907   72.2405    1.0922 O   0  0  0  0  0  0  0  0  0  0  0  0
   19.8380   73.2807    0.0517 O   0  0  0  0  0  0  0  0  0  0  0  0
   22.0852   72.7859    0.7634 C   0  0  1  0  0  0  0  0  0  0  0  0
   23.0949   71.6578    0.9838 C   0  0  1  0  0  0  0  0  0  0  0  0
   20.7103   72.2170    0.4177 C   0  0  2  0  0  0  0  0  0  0  0  0
   23.0580   70.6479   -0.1711 C   0  0  1  0  0  0  0  0  0  0  0  0
   20.7927   71.1869   -0.7102 C   0  0  1  0  0  0  0  0  0  0  0  0
   22.8567   73.9069    2.1980 H   0  0  0  0  0  0  0  0  0  0  0  0
   24.4003   72.8765    1.8248 H   0  0  0  0  0  0  0  0  0  0  0  0
   19.7942   73.9259    0.7740 H   0  0  0  0  0  0  0  0  0  0  0  0
   25.2935   69.8076   -0.0949 O   0  0  0  0  0  0  0  0  0  0  0  0
   23.9424   69.4334    0.1027 C   0  0  0  0  0  0  0  0  0  0  0  0
   25.8680   69.0445    0.0762 H   0  0  0  0  0  0  0  0  0  0  0  0
 25 28  1  0
 25 24  1  0
 25 26  1  1
 25 27  2  0
  1  4  1  0
  1 24  1  0
  1  2  1  1
  1  3  2  0
  6 11  1  0
  6 12  1  0
 29 36  1  0
 29 37  1  0
  9  7  1  6
  7 13  1  0
 10  8  1  6
  8 14  1  0
 37 28  1  6
  4  5  1  0
 33 30  1  1
 30 38  1  0
 34 31  1  6
 31 39  1  0
 35 32  1  6
 32 40  1  0
 41 42  1  0
 41 43  1  0
 15 19  2  0
 16 22  2  0
 12 17  1  1
 17 19  1  0
 17 20  1  0
 18 19  1  0
 18 22  1  0
 18 23  1  0
  9 10  1  0
  9 11  1  0
 10 12  1  0
 11  5  1  1
 33 34  1  0
 33 35  1  0
 34 36  1  0
 35 37  1  0
 36 42  1  1
 20 21  2  0
 21 22  1  0
M  CHG  2   2  -1  26  -1
M  END
>  <COMPND>  (110) 
    8629 

>  <AUTHOR>  (110) 
    GENERATED BY OPEN BABEL 3.1.1

>  <MASTER>  (110) 
        0    0    0    0    0    0    0    0   58    0   58    0

>  <minimizedAffinity>  (110) 
-6.88343

>  <CNNscore>  (110) 
0.5911955237

>  <CNNaffinity>  (110) 
4.2754969597

>  <CNN_VS>  (110) 
2.5276546478

>  <CNNaffinity_variance>  (110) 
0.2173320502

$$$$
111
     RDKit          3D

 43 45  0  0  0  0  0  0  0  0999 V2000
   20.9321   74.8361   -3.5637 P   0  0  2  0  0  0  0  0  0  0  0  0
   22.4453   75.3486   -3.8187 O   0  0  0  0  0  0  0  0  0  0  0  0
   19.8696   75.8786   -3.7524 O   0  0  0  0  0  0  0  0  0  0  0  0
   20.9948   74.1541   -2.0978 O   0  0  0  0  0  0  0  0  0  0  0  0
   22.1664   74.3290   -1.3203 C   0  0  0  0  0  0  0  0  0  0  0  0
   23.4666   72.9054    0.1139 O   0  0  0  0  0  0  0  0  0  0  0  0
   22.7474   70.6767   -1.7586 O   0  0  0  0  0  0  0  0  0  0  0  0
   21.0264   70.2852    0.3201 O   0  0  0  0  0  0  0  0  0  0  0  0
   21.9631   71.7930   -1.3413 C   0  0  1  0  0  0  0  0  0  0  0  0
   21.4893   71.5992    0.0840 C   0  0  2  0  0  0  0  0  0  0  0  0
   22.8905   72.9944   -1.2077 C   0  0  1  0  0  0  0  0  0  0  0  0
   22.7405   71.9301    0.8797 C   0  0  2  0  0  0  0  0  0  0  0  0
   22.1766   69.8972   -1.8512 H   0  0  0  0  0  0  0  0  0  0  0  0
   20.2294   70.1231   -0.2083 H   0  0  0  0  0  0  0  0  0  0  0  0
   23.6883   70.8797    3.3243 O   0  0  0  0  0  0  0  0  0  0  0  0
   21.5175   74.1262    5.7716 O   0  0  0  0  0  0  0  0  0  0  0  0
   22.4388   72.4812    2.1706 N   0  0  0  0  0  0  0  0  0  0  0  0
   22.6068   72.4972    4.5409 N   0  0  0  0  0  0  0  0  0  0  0  0
   22.9643   71.8773    3.3367 C   0  0  0  0  0  0  0  0  0  0  0  0
   21.6306   73.6084    2.2712 C   0  0  0  0  0  0  0  0  0  0  0  0
   21.2979   74.1865    3.4273 C   0  0  0  0  0  0  0  0  0  0  0  0
   21.8055   73.6177    4.6925 C   0  0  0  0  0  0  0  0  0  0  0  0
   22.9609   72.0936    5.3664 H   0  0  0  0  0  0  0  0  0  0  0  0
   20.8083   73.5628   -4.5518 O   0  0  0  0  0  0  0  0  0  0  0  0
   20.9781   73.4426   -6.1549 P   0  0  2  0  0  0  0  0  0  0  0  0
   22.2315   72.4332   -6.3206 O   0  0  0  0  0  0  0  0  0  0  0  0
   21.1464   74.7593   -6.8562 O   0  0  0  0  0  0  0  0  0  0  0  0
   19.6983   72.5861   -6.6381 O   0  0  0  0  0  0  0  0  0  0  0  0
   18.8598   70.4604   -6.0100 O   0  0  0  0  0  0  0  0  0  0  0  0
   18.2255   70.2421  -10.0844 O   0  0  0  0  0  0  0  0  0  0  0  0
   15.9863   70.5707   -8.3164 O   0  0  0  0  0  0  0  0  0  0  0  0
   20.6180   71.5105   -9.0614 O   0  0  0  0  0  0  0  0  0  0  0  0
   18.3048   70.8880   -8.8108 C   0  0  1  0  0  0  0  0  0  0  0  0
   17.2951   70.2239   -7.8726 C   0  0  1  0  0  0  0  0  0  0  0  0
   19.7237   70.7415   -8.2644 C   0  0  2  0  0  0  0  0  0  0  0  0
   17.5052   70.6779   -6.4218 C   0  0  1  0  0  0  0  0  0  0  0  0
   19.8125   71.1747   -6.7999 C   0  0  1  0  0  0  0  0  0  0  0  0
   17.3272   70.3319  -10.4372 H   0  0  0  0  0  0  0  0  0  0  0  0
   15.8667   70.2789   -9.2339 H   0  0  0  0  0  0  0  0  0  0  0  0
   20.5526   71.2265   -9.9860 H   0  0  0  0  0  0  0  0  0  0  0  0
   16.0373   68.8148   -6.1340 O   0  0  0  0  0  0  0  0  0  0  0  0
   16.6141   69.9105   -5.4476 C   0  0  0  0  0  0  0  0  0  0  0  0
   15.4677   68.3169   -5.5262 H   0  0  0  0  0  0  0  0  0  0  0  0
 25 28  1  0
 25 24  1  0
 25 26  1  1
 25 27  2  0
  1  4  1  0
  1 24  1  0
  1  2  1  6
  1  3  2  0
  6 11  1  0
  6 12  1  0
 29 36  1  0
 29 37  1  0
  9  7  1  1
  7 13  1  0
 10  8  1  6
  8 14  1  0
 37 28  1  6
  4  5  1  0
 33 30  1  6
 30 38  1  0
 34 31  1  6
 31 39  1  0
 35 32  1  6
 32 40  1  0
 41 42  1  0
 41 43  1  0
 15 19  2  0
 16 22  2  0
 12 17  1  1
 17 19  1  0
 17 20  1  0
 18 19  1  0
 18 22  1  0
 18 23  1  0
  9 10  1  0
  9 11  1  0
 10 12  1  0
 11  5  1  1
 33 34  1  0
 33 35  1  0
 34 36  1  0
 35 37  1  0
 36 42  1  1
 20 21  2  0
 21 22  1  0
M  CHG  2   2  -1  26  -1
M  END
>  <COMPND>  (111) 
    8629 

>  <AUTHOR>  (111) 
    GENERATED BY OPEN BABEL 3.1.1

>  <MASTER>  (111) 
        0    0    0    0    0    0    0    0   58    0   58    0

>  <minimizedAffinity>  (111) 
-6.59619

>  <CNNscore>  (111) 
0.5655596256

>  <CNNaffinity>  (111) 
4.0592145920

>  <CNN_VS>  (111) 
2.2957279682

>  <CNNaffinity_variance>  (111) 
0.0937919170

$$$$
112
     RDKit          3D

 43 45  0  0  0  0  0  0  0  0999 V2000
   22.1852   72.7186   -3.7510 P   0  0  2  0  0  0  0  0  0  0  0  0
   23.6257   72.0298   -4.0109 O   0  0  0  0  0  0  0  0  0  0  0  0
   21.8530   73.8587   -4.6683 O   0  0  0  0  0  0  0  0  0  0  0  0
   22.2017   73.0695   -2.1716 O   0  0  0  0  0  0  0  0  0  0  0  0
   23.1932   72.4696   -1.3561 C   0  0  0  0  0  0  0  0  0  0  0  0
   22.5867   70.2232   -0.7567 O   0  0  0  0  0  0  0  0  0  0  0  0
   22.2470   71.2595    2.0364 O   0  0  0  0  0  0  0  0  0  0  0  0
   24.6887   70.0498    2.1441 O   0  0  0  0  0  0  0  0  0  0  0  0
   23.2042   71.6317    1.0462 C   0  0  1  0  0  0  0  0  0  0  0  0
   24.2534   70.5499    0.8962 C   0  0  2  0  0  0  0  0  0  0  0  0
   22.5134   71.5952   -0.3114 C   0  0  1  0  0  0  0  0  0  0  0  0
   23.5155   69.5072    0.0737 C   0  0  2  0  0  0  0  0  0  0  0  0
   22.6650   71.2758    2.9121 H   0  0  0  0  0  0  0  0  0  0  0  0
   25.1520   70.7502    2.6294 H   0  0  0  0  0  0  0  0  0  0  0  0
   24.2792   66.8345    0.5751 O   0  0  0  0  0  0  0  0  0  0  0  0
   26.9086   66.6836   -3.2071 O   0  0  0  0  0  0  0  0  0  0  0  0
   24.3982   68.7451   -0.7638 N   0  0  0  0  0  0  0  0  0  0  0  0
   25.5877   66.7615   -1.3086 N   0  0  0  0  0  0  0  0  0  0  0  0
   24.7189   67.4106   -0.4221 C   0  0  0  0  0  0  0  0  0  0  0  0
   24.9357   69.3213   -1.9097 C   0  0  0  0  0  0  0  0  0  0  0  0
   25.7637   68.6892   -2.7439 C   0  0  0  0  0  0  0  0  0  0  0  0
   26.1491   67.2919   -2.4594 C   0  0  0  0  0  0  0  0  0  0  0  0
   25.8255   65.8311   -1.0907 H   0  0  0  0  0  0  0  0  0  0  0  0
   21.1640   71.4684   -3.8347 O   0  0  0  0  0  0  0  0  0  0  0  0
   19.6017   71.3454   -3.4384 P   0  0  2  0  0  0  0  0  0  0  0  0
   19.2335   72.8314   -2.9152 O   0  0  0  0  0  0  0  0  0  0  0  0
   19.3004   70.2507   -2.4561 O   0  0  0  0  0  0  0  0  0  0  0  0
   18.8317   71.2078   -4.8502 O   0  0  0  0  0  0  0  0  0  0  0  0
   19.3501   71.9443   -7.0423 O   0  0  0  0  0  0  0  0  0  0  0  0
   15.3043   72.7696   -7.0084 O   0  0  0  0  0  0  0  0  0  0  0  0
   16.2884   70.5634   -8.5615 O   0  0  0  0  0  0  0  0  0  0  0  0
   16.8902   73.2220   -4.6294 O   0  0  0  0  0  0  0  0  0  0  0  0
   16.4865   72.0328   -6.6847 C   0  0  1  0  0  0  0  0  0  0  0  0
   17.1301   71.5610   -7.9901 C   0  0  1  0  0  0  0  0  0  0  0  0
   17.4426   72.9381   -5.9104 C   0  0  2  0  0  0  0  0  0  0  0  0
   18.5355   70.9967   -7.7425 C   0  0  1  0  0  0  0  0  0  0  0  0
   18.8263   72.3031   -5.7621 C   0  0  1  0  0  0  0  0  0  0  0  0
   14.6928   72.2003   -7.4998 H   0  0  0  0  0  0  0  0  0  0  0  0
   15.4040   70.9324   -8.7124 H   0  0  0  0  0  0  0  0  0  0  0  0
   16.0145   73.6239   -4.7369 H   0  0  0  0  0  0  0  0  0  0  0  0
   18.6104   71.3506  -10.1043 O   0  0  0  0  0  0  0  0  0  0  0  0
   19.2571   70.6661   -9.0471 C   0  0  0  0  0  0  0  0  0  0  0  0
   19.0592   71.1499  -10.9410 H   0  0  0  0  0  0  0  0  0  0  0  0
 25 28  1  0
 25 24  1  0
 25 26  1  1
 25 27  2  0
  1  4  1  0
  1 24  1  0
  1  2  1  6
  1  3  2  0
  6 11  1  0
  6 12  1  0
 29 36  1  0
 29 37  1  0
  9  7  1  1
  7 13  1  0
 10  8  1  1
  8 14  1  0
 37 28  1  1
  4  5  1  0
 33 30  1  6
 30 38  1  0
 34 31  1  1
 31 39  1  0
 35 32  1  1
 32 40  1  0
 41 42  1  0
 41 43  1  0
 15 19  2  0
 16 22  2  0
 12 17  1  6
 17 19  1  0
 17 20  1  0
 18 19  1  0
 18 22  1  0
 18 23  1  0
  9 10  1  0
  9 11  1  0
 10 12  1  0
 11  5  1  6
 33 34  1  0
 33 35  1  0
 34 36  1  0
 35 37  1  0
 36 42  1  6
 20 21  2  0
 21 22  1  0
M  CHG  2   2  -1  26  -1
M  END
>  <COMPND>  (112) 
    8629 

>  <AUTHOR>  (112) 
    GENERATED BY OPEN BABEL 3.1.1

>  <MASTER>  (112) 
        0    0    0    0    0    0    0    0   58    0   58    0

>  <minimizedAffinity>  (112) 
-8.06501

>  <CNNscore>  (112) 
0.5030871630

>  <CNNaffinity>  (112) 
4.4007992744

>  <CNN_VS>  (112) 
2.2139856815

>  <CNNaffinity_variance>  (112) 
0.1525809020

$$$$
113
     RDKit          3D

 43 45  0  0  0  0  0  0  0  0999 V2000
   20.5676   73.5213   -0.6826 P   0  0  2  0  0  0  0  0  0  0  0  0
   19.0616   72.9582   -0.5030 O   0  0  0  0  0  0  0  0  0  0  0  0
   20.8265   74.8538   -0.0432 O   0  0  0  0  0  0  0  0  0  0  0  0
   20.8226   73.4464   -2.2786 O   0  0  0  0  0  0  0  0  0  0  0  0
   20.3503   72.3132   -2.9863 C   0  0  0  0  0  0  0  0  0  0  0  0
   20.8890   70.8104   -4.7821 O   0  0  0  0  0  0  0  0  0  0  0  0
   23.3528   72.4715   -5.1837 O   0  0  0  0  0  0  0  0  0  0  0  0
   21.7005   73.3720   -7.1575 O   0  0  0  0  0  0  0  0  0  0  0  0
   22.0410   72.8812   -4.8007 C   0  0  1  0  0  0  0  0  0  0  0  0
   21.1073   72.8364   -5.9922 C   0  0  2  0  0  0  0  0  0  0  0  0
   21.4570   71.8015   -3.8981 C   0  0  1  0  0  0  0  0  0  0  0  0
   20.8211   71.3492   -6.1125 C   0  0  2  0  0  0  0  0  0  0  0  0
   23.7464   73.1456   -5.7605 H   0  0  0  0  0  0  0  0  0  0  0  0
   21.8629   74.3199   -7.0314 H   0  0  0  0  0  0  0  0  0  0  0  0
   20.2424   71.2201   -8.8741 O   0  0  0  0  0  0  0  0  0  0  0  0
   15.7901   70.3274   -8.0860 O   0  0  0  0  0  0  0  0  0  0  0  0
   19.5193   71.0842   -6.6570 N   0  0  0  0  0  0  0  0  0  0  0  0
   18.0260   70.7755   -8.4794 N   0  0  0  0  0  0  0  0  0  0  0  0
   19.3353   71.0419   -8.0587 C   0  0  0  0  0  0  0  0  0  0  0  0
   18.4420   70.8695   -5.8041 C   0  0  0  0  0  0  0  0  0  0  0  0
   17.1995   70.6180   -6.2213 C   0  0  0  0  0  0  0  0  0  0  0  0
   16.9220   70.5565   -7.6709 C   0  0  0  0  0  0  0  0  0  0  0  0
   17.8739   70.7416   -9.4518 H   0  0  0  0  0  0  0  0  0  0  0  0
   21.4777   72.3133   -0.1122 O   0  0  0  0  0  0  0  0  0  0  0  0
   21.5705   71.6593    1.3632 P   0  0  2  0  0  0  0  0  0  0  0  0
   21.6324   70.0710    1.0617 O   0  0  0  0  0  0  0  0  0  0  0  0
   20.4632   72.0711    2.2895 O   0  0  0  0  0  0  0  0  0  0  0  0
   23.0518   72.0335    1.8834 O   0  0  0  0  0  0  0  0  0  0  0  0
   24.6550   73.4446    0.8562 O   0  0  0  0  0  0  0  0  0  0  0  0
   27.2064   70.6972    2.5862 O   0  0  0  0  0  0  0  0  0  0  0  0
   27.0126   73.3422    3.6882 O   0  0  0  0  0  0  0  0  0  0  0  0
   24.7066   69.8141    1.4239 O   0  0  0  0  0  0  0  0  0  0  0  0
   26.0343   71.5121    2.4989 C   0  0  1  0  0  0  0  0  0  0  0  0
   26.4726   72.9759    2.4215 C   0  0  1  0  0  0  0  0  0  0  0  0
   25.2458   71.1202    1.2507 C   0  0  2  0  0  0  0  0  0  0  0  0
   25.2934   73.8887    2.0591 C   0  0  1  0  0  0  0  0  0  0  0  0
   24.1273   72.1202    0.9522 C   0  0  1  0  0  0  0  0  0  0  0  0
   27.7114   70.9407    3.3769 H   0  0  0  0  0  0  0  0  0  0  0  0
   27.7560   72.7579    3.9053 H   0  0  0  0  0  0  0  0  0  0  0  0
   25.4246   69.1904    1.6120 H   0  0  0  0  0  0  0  0  0  0  0  0
   26.1700   75.8759    3.0550 O   0  0  0  0  0  0  0  0  0  0  0  0
   25.7380   75.3304    1.8221 C   0  0  0  0  0  0  0  0  0  0  0  0
   26.4563   76.7932    2.9194 H   0  0  0  0  0  0  0  0  0  0  0  0
 25 28  1  0
 25 24  1  0
 25 26  1  6
 25 27  2  0
  1  4  1  0
  1 24  1  0
  1  2  1  6
  1  3  2  0
  6 11  1  0
  6 12  1  0
 29 36  1  0
 29 37  1  0
  9  7  1  6
  7 13  1  0
 10  8  1  6
  8 14  1  0
 37 28  1  1
  4  5  1  0
 33 30  1  6
 30 38  1  0
 34 31  1  1
 31 39  1  0
 35 32  1  1
 32 40  1  0
 41 42  1  0
 41 43  1  0
 15 19  2  0
 16 22  2  0
 12 17  1  1
 17 19  1  0
 17 20  1  0
 18 19  1  0
 18 22  1  0
 18 23  1  0
  9 10  1  0
  9 11  1  0
 10 12  1  0
 11  5  1  1
 33 34  1  0
 33 35  1  0
 34 36  1  0
 35 37  1  0
 36 42  1  6
 20 21  2  0
 21 22  1  0
M  CHG  2   2  -1  26  -1
M  END
>  <COMPND>  (113) 
    8629 

>  <AUTHOR>  (113) 
    GENERATED BY OPEN BABEL 3.1.1

>  <MASTER>  (113) 
        0    0    0    0    0    0    0    0   58    0   58    0

>  <minimizedAffinity>  (113) 
-6.73362

>  <CNNscore>  (113) 
0.4742703736

>  <CNNaffinity>  (113) 
4.2831139565

>  <CNN_VS>  (113) 
2.0313539505

>  <CNNaffinity_variance>  (113) 
0.0664350837

$$$$
114
     RDKit          3D

 43 45  0  0  0  0  0  0  0  0999 V2000
   23.1043   72.1399   -3.4683 P   0  0  2  0  0  0  0  0  0  0  0  0
   23.2873   70.6254   -2.9296 O   0  0  0  0  0  0  0  0  0  0  0  0
   24.2895   72.7005   -4.1981 O   0  0  0  0  0  0  0  0  0  0  0  0
   22.6316   72.9637   -2.1584 O   0  0  0  0  0  0  0  0  0  0  0  0
   23.6108   73.3364   -1.2044 C   0  0  0  0  0  0  0  0  0  0  0  0
   21.5926   73.4383    0.0958 O   0  0  0  0  0  0  0  0  0  0  0  0
   23.1024   71.9437    2.2118 O   0  0  0  0  0  0  0  0  0  0  0  0
   21.6091   69.9807    1.0485 O   0  0  0  0  0  0  0  0  0  0  0  0
   23.1779   71.8205    0.7925 C   0  0  1  0  0  0  0  0  0  0  0  0
   21.9550   71.1021    0.2613 C   0  0  2  0  0  0  0  0  0  0  0  0
   23.0159   73.2112    0.1915 C   0  0  1  0  0  0  0  0  0  0  0  0
   20.9019   72.1962    0.3076 C   0  0  2  0  0  0  0  0  0  0  0  0
   23.2036   71.0681    2.6180 H   0  0  0  0  0  0  0  0  0  0  0  0
   22.3099   69.3131    0.9861 H   0  0  0  0  0  0  0  0  0  0  0  0
   18.7863   74.0113   -0.1479 O   0  0  0  0  0  0  0  0  0  0  0  0
   17.1277   71.4880   -3.6297 O   0  0  0  0  0  0  0  0  0  0  0  0
   19.9031   72.0384   -0.7116 N   0  0  0  0  0  0  0  0  0  0  0  0
   17.9622   72.7535   -1.8813 N   0  0  0  0  0  0  0  0  0  0  0  0
   18.8825   73.0069   -0.8561 C   0  0  0  0  0  0  0  0  0  0  0  0
   19.9419   70.9332   -1.5547 C   0  0  0  0  0  0  0  0  0  0  0  0
   19.0560   70.7055   -2.5266 C   0  0  0  0  0  0  0  0  0  0  0  0
   17.9579   71.6692   -2.7444 C   0  0  0  0  0  0  0  0  0  0  0  0
   17.2421   73.4145   -2.0004 H   0  0  0  0  0  0  0  0  0  0  0  0
   21.7520   72.0514   -4.3494 O   0  0  0  0  0  0  0  0  0  0  0  0
   20.8264   73.2100   -4.9928 P   0  0  2  0  0  0  0  0  0  0  0  0
   21.8505   74.0110   -5.9556 O   0  0  0  0  0  0  0  0  0  0  0  0
   20.1259   74.0704   -3.9815 O   0  0  0  0  0  0  0  0  0  0  0  0
   19.8406   72.4302   -6.0052 O   0  0  0  0  0  0  0  0  0  0  0  0
   19.2141   70.1465   -6.0986 O   0  0  0  0  0  0  0  0  0  0  0  0
   19.4132   70.9422  -10.1456 O   0  0  0  0  0  0  0  0  0  0  0  0
   16.8524   70.5907   -8.8939 O   0  0  0  0  0  0  0  0  0  0  0  0
   21.3549   72.1137   -8.3465 O   0  0  0  0  0  0  0  0  0  0  0  0
   19.1518   71.2377   -8.7709 C   0  0  1  0  0  0  0  0  0  0  0  0
   18.0877   70.2618   -8.2646 C   0  0  1  0  0  0  0  0  0  0  0  0
   20.4451   71.0845   -7.9728 C   0  0  2  0  0  0  0  0  0  0  0  0
   17.9470   70.3386   -6.7384 C   0  0  1  0  0  0  0  0  0  0  0  0
   20.1870   71.1266   -6.4655 C   0  0  1  0  0  0  0  0  0  0  0  0
   18.5961   71.0381  -10.6581 H   0  0  0  0  0  0  0  0  0  0  0  0
   16.9550   70.5389   -9.8573 H   0  0  0  0  0  0  0  0  0  0  0  0
   21.5103   72.0762   -9.3027 H   0  0  0  0  0  0  0  0  0  0  0  0
   15.7143   69.4878   -6.7308 O   0  0  0  0  0  0  0  0  0  0  0  0
   17.0061   69.2650   -6.1960 C   0  0  0  0  0  0  0  0  0  0  0  0
   15.1048   68.8117   -6.3944 H   0  0  0  0  0  0  0  0  0  0  0  0
 25 28  1  0
 25 24  1  0
 25 26  1  6
 25 27  2  0
  1  4  1  0
  1 24  1  0
  1  2  1  1
  1  3  2  0
  6 11  1  0
  6 12  1  0
 29 36  1  0
 29 37  1  0
  9  7  1  1
  7 13  1  0
 10  8  1  1
  8 14  1  0
 37 28  1  6
  4  5  1  0
 33 30  1  6
 30 38  1  0
 34 31  1  6
 31 39  1  0
 35 32  1  6
 32 40  1  0
 41 42  1  0
 41 43  1  0
 15 19  2  0
 16 22  2  0
 12 17  1  6
 17 19  1  0
 17 20  1  0
 18 19  1  0
 18 22  1  0
 18 23  1  0
  9 10  1  0
  9 11  1  0
 10 12  1  0
 11  5  1  6
 33 34  1  0
 33 35  1  0
 34 36  1  0
 35 37  1  0
 36 42  1  1
 20 21  2  0
 21 22  1  0
M  CHG  2   2  -1  26  -1
M  END
>  <COMPND>  (114) 
    8629 

>  <AUTHOR>  (114) 
    GENERATED BY OPEN BABEL 3.1.1

>  <MASTER>  (114) 
        0    0    0    0    0    0    0    0   58    0   58    0

>  <minimizedAffinity>  (114) 
-7.28250

>  <CNNscore>  (114) 
0.4623074532

>  <CNNaffinity>  (114) 
3.9410052299

>  <CNN_VS>  (114) 
1.8219560385

>  <CNNaffinity_variance>  (114) 
0.5335677862

$$$$
115
     RDKit          3D

 43 45  0  0  0  0  0  0  0  0999 V2000
   20.4503   72.5978   -0.9867 P   0  0  2  0  0  0  0  0  0  0  0  0
   18.9344   72.1564   -1.3400 O   0  0  0  0  0  0  0  0  0  0  0  0
   20.5962   73.4243    0.2571 O   0  0  0  0  0  0  0  0  0  0  0  0
   20.9836   73.2828   -2.3521 O   0  0  0  0  0  0  0  0  0  0  0  0
   20.3946   72.8911   -3.5798 C   0  0  0  0  0  0  0  0  0  0  0  0
   20.7745   71.0908   -5.1253 O   0  0  0  0  0  0  0  0  0  0  0  0
   23.3345   72.4842   -5.8293 O   0  0  0  0  0  0  0  0  0  0  0  0
   21.6910   73.1836   -7.8899 O   0  0  0  0  0  0  0  0  0  0  0  0
   22.0662   73.0435   -5.4918 C   0  0  1  0  0  0  0  0  0  0  0  0
   21.0967   72.8815   -6.6440 C   0  0  2  0  0  0  0  0  0  0  0  0
   21.4357   72.1637   -4.4195 C   0  0  1  0  0  0  0  0  0  0  0  0
   20.7048   71.4187   -6.5226 C   0  0  2  0  0  0  0  0  0  0  0  0
   23.7566   73.0293   -6.5124 H   0  0  0  0  0  0  0  0  0  0  0  0
   21.9223   74.1251   -7.9182 H   0  0  0  0  0  0  0  0  0  0  0  0
   20.0194   71.0283   -9.2348 O   0  0  0  0  0  0  0  0  0  0  0  0
   15.5598   70.4651   -8.2166 O   0  0  0  0  0  0  0  0  0  0  0  0
   19.3722   71.1678   -6.9945 N   0  0  0  0  0  0  0  0  0  0  0  0
   17.7994   70.7480   -8.7256 N   0  0  0  0  0  0  0  0  0  0  0  0
   19.1349   70.9867   -8.3770 C   0  0  0  0  0  0  0  0  0  0  0  0
   18.3176   71.1031   -6.0904 C   0  0  0  0  0  0  0  0  0  0  0  0
   17.0495   70.8759   -6.4391 C   0  0  0  0  0  0  0  0  0  0  0  0
   16.7162   70.6758   -7.8642 C   0  0  0  0  0  0  0  0  0  0  0  0
   17.6102   70.6191   -9.6834 H   0  0  0  0  0  0  0  0  0  0  0  0
   21.2410   71.1883   -0.9544 O   0  0  0  0  0  0  0  0  0  0  0  0
   22.5060   70.7007   -0.0740 P   0  0  2  0  0  0  0  0  0  0  0  0
   21.8174   69.9162    1.1621 O   0  0  0  0  0  0  0  0  0  0  0  0
   23.4343   71.8075    0.3350 O   0  0  0  0  0  0  0  0  0  0  0  0
   23.1968   69.5410   -0.9587 O   0  0  0  0  0  0  0  0  0  0  0  0
   24.5207   67.9843    0.2415 O   0  0  0  0  0  0  0  0  0  0  0  0
   25.8315   67.1532   -3.5850 O   0  0  0  0  0  0  0  0  0  0  0  0
   24.1289   65.2782   -2.2308 O   0  0  0  0  0  0  0  0  0  0  0  0
   25.2768   69.8867   -2.8105 O   0  0  0  0  0  0  0  0  0  0  0  0
   24.8767   67.5222   -2.5861 C   0  0  1  0  0  0  0  0  0  0  0  0
   24.7665   66.3742   -1.5808 C   0  0  1  0  0  0  0  0  0  0  0  0
   25.3472   68.7999   -1.8937 C   0  0  2  0  0  0  0  0  0  0  0  0
   23.9676   66.7983   -0.3410 C   0  0  1  0  0  0  0  0  0  0  0  0
   24.5169   69.1045   -0.6456 C   0  0  1  0  0  0  0  0  0  0  0  0
   25.5384   66.3428   -4.0288 H   0  0  0  0  0  0  0  0  0  0  0  0
   24.6430   65.0206   -3.0122 H   0  0  0  0  0  0  0  0  0  0  0  0
   25.8067   69.6817   -3.5960 H   0  0  0  0  0  0  0  0  0  0  0  0
   24.6476   66.2362    1.8794 O   0  0  0  0  0  0  0  0  0  0  0  0
   23.9789   65.7221    0.7424 C   0  0  0  0  0  0  0  0  0  0  0  0
   24.6622   65.5621    2.5774 H   0  0  0  0  0  0  0  0  0  0  0  0
 25 28  1  0
 25 24  1  0
 25 26  1  1
 25 27  2  0
  1  4  1  0
  1 24  1  0
  1  2  1  6
  1  3  2  0
  6 11  1  0
  6 12  1  0
 29 36  1  0
 29 37  1  0
  9  7  1  6
  7 13  1  0
 10  8  1  6
  8 14  1  0
 37 28  1  6
  4  5  1  0
 33 30  1  6
 30 38  1  0
 34 31  1  6
 31 39  1  0
 35 32  1  6
 32 40  1  0
 41 42  1  0
 41 43  1  0
 15 19  2  0
 16 22  2  0
 12 17  1  1
 17 19  1  0
 17 20  1  0
 18 19  1  0
 18 22  1  0
 18 23  1  0
  9 10  1  0
  9 11  1  0
 10 12  1  0
 11  5  1  6
 33 34  1  0
 33 35  1  0
 34 36  1  0
 35 37  1  0
 36 42  1  1
 20 21  2  0
 21 22  1  0
M  CHG  2   2  -1  26  -1
M  END
>  <COMPND>  (115) 
    8629 

>  <AUTHOR>  (115) 
    GENERATED BY OPEN BABEL 3.1.1

>  <MASTER>  (115) 
        0    0    0    0    0    0    0    0   58    0   58    0

>  <minimizedAffinity>  (115) 
-8.89629

>  <CNNscore>  (115) 
0.4564299881

>  <CNNaffinity>  (115) 
4.5645308495

>  <CNN_VS>  (115) 
2.0833888054

>  <CNNaffinity_variance>  (115) 
0.2088886797

$$$$
116
     RDKit          3D

 43 45  0  0  0  0  0  0  0  0999 V2000
   20.2577   73.5379   -2.3164 P   0  0  2  0  0  0  0  0  0  0  0  0
   21.8693   73.6728   -2.2714 O   0  0  0  0  0  0  0  0  0  0  0  0
   19.5428   74.6908   -2.9576 O   0  0  0  0  0  0  0  0  0  0  0  0
   19.8511   73.2247   -0.7820 O   0  0  0  0  0  0  0  0  0  0  0  0
   20.7196   73.6595    0.2498 C   0  0  0  0  0  0  0  0  0  0  0  0
   21.0431   71.3808    0.9402 O   0  0  0  0  0  0  0  0  0  0  0  0
   21.0625   72.4310    3.7486 O   0  0  0  0  0  0  0  0  0  0  0  0
   23.7160   72.0788    3.2274 O   0  0  0  0  0  0  0  0  0  0  0  0
   21.5788   73.0262    2.5593 C   0  0  1  0  0  0  0  0  0  0  0  0
   22.8558   72.3311    2.1351 C   0  0  2  0  0  0  0  0  0  0  0  0
   20.6342   72.6824    1.4143 C   0  0  1  0  0  0  0  0  0  0  0  0
   22.3252   71.0560    1.5021 C   0  0  2  0  0  0  0  0  0  0  0  0
   21.6490   72.6371    4.4940 H   0  0  0  0  0  0  0  0  0  0  0  0
   24.0268   72.9206    3.5955 H   0  0  0  0  0  0  0  0  0  0  0  0
   24.7753   69.7216    1.9430 O   0  0  0  0  0  0  0  0  0  0  0  0
   25.5252   69.2190   -2.5765 O   0  0  0  0  0  0  0  0  0  0  0  0
   23.1808   70.5654    0.4588 N   0  0  0  0  0  0  0  0  0  0  0  0
   25.1466   69.4723   -0.3077 N   0  0  0  0  0  0  0  0  0  0  0  0
   24.3904   69.9100    0.7872 C   0  0  0  0  0  0  0  0  0  0  0  0
   22.8176   70.7355   -0.8728 C   0  0  0  0  0  0  0  0  0  0  0  0
   23.5505   70.3134   -1.9052 C   0  0  0  0  0  0  0  0  0  0  0  0
   24.8287   69.6190   -1.6486 C   0  0  0  0  0  0  0  0  0  0  0  0
   25.9935   69.0133   -0.1031 H   0  0  0  0  0  0  0  0  0  0  0  0
   20.0325   72.1150   -3.0496 O   0  0  0  0  0  0  0  0  0  0  0  0
   20.7396   71.4677   -4.3511 P   0  0  2  0  0  0  0  0  0  0  0  0
   20.7405   69.8833   -4.0236 O   0  0  0  0  0  0  0  0  0  0  0  0
   22.0937   72.0364   -4.6624 O   0  0  0  0  0  0  0  0  0  0  0  0
   19.6543   71.6389   -5.5334 O   0  0  0  0  0  0  0  0  0  0  0  0
   17.8000   70.4673   -6.4308 O   0  0  0  0  0  0  0  0  0  0  0  0
   19.9283   71.1003   -9.9123 O   0  0  0  0  0  0  0  0  0  0  0  0
   17.5200   72.5895   -9.4320 O   0  0  0  0  0  0  0  0  0  0  0  0
   21.3284   70.4698   -7.4584 O   0  0  0  0  0  0  0  0  0  0  0  0
   19.4383   71.4225   -8.6079 C   0  0  1  0  0  0  0  0  0  0  0  0
   17.9097   71.4542   -8.6641 C   0  0  1  0  0  0  0  0  0  0  0  0
   19.9180   70.3621   -7.6185 C   0  0  2  0  0  0  0  0  0  0  0  0
   17.3050   71.5286   -7.2556 C   0  0  1  0  0  0  0  0  0  0  0  0
   19.2190   70.4956   -6.2644 C   0  0  1  0  0  0  0  0  0  0  0  0
   19.6276   71.7700  -10.5452 H   0  0  0  0  0  0  0  0  0  0  0  0
   17.9089   72.5304  -10.3188 H   0  0  0  0  0  0  0  0  0  0  0  0
   21.7594   70.3834   -8.3225 H   0  0  0  0  0  0  0  0  0  0  0  0
   15.2498   72.5248   -7.9576 O   0  0  0  0  0  0  0  0  0  0  0  0
   15.7832   71.4026   -7.2792 C   0  0  0  0  0  0  0  0  0  0  0  0
   14.2820   72.4580   -7.9806 H   0  0  0  0  0  0  0  0  0  0  0  0
 25 28  1  0
 25 24  1  0
 25 26  1  1
 25 27  2  0
  1  4  1  0
  1 24  1  0
  1  2  1  1
  1  3  2  0
  6 11  1  0
  6 12  1  0
 29 36  1  0
 29 37  1  0
  9  7  1  1
  7 13  1  0
 10  8  1  1
  8 14  1  0
 37 28  1  6
  4  5  1  0
 33 30  1  6
 30 38  1  0
 34 31  1  6
 31 39  1  0
 35 32  1  1
 32 40  1  0
 41 42  1  0
 41 43  1  0
 15 19  2  0
 16 22  2  0
 12 17  1  6
 17 19  1  0
 17 20  1  0
 18 19  1  0
 18 22  1  0
 18 23  1  0
  9 10  1  0
  9 11  1  0
 10 12  1  0
 11  5  1  6
 33 34  1  0
 33 35  1  0
 34 36  1  0
 35 37  1  0
 36 42  1  6
 20 21  2  0
 21 22  1  0
M  CHG  2   2  -1  26  -1
M  END
>  <COMPND>  (116) 
    8629 

>  <AUTHOR>  (116) 
    GENERATED BY OPEN BABEL 3.1.1

>  <MASTER>  (116) 
        0    0    0    0    0    0    0    0   58    0   58    0

>  <minimizedAffinity>  (116) 
-6.96005

>  <CNNscore>  (116) 
0.4441322982

>  <CNNaffinity>  (116) 
4.0523223877

>  <CNN_VS>  (116) 
1.7997672558

>  <CNNaffinity_variance>  (116) 
0.1831021160

$$$$
117
     RDKit          3D

 43 45  0  0  0  0  0  0  0  0999 V2000
   22.9000   72.9767   -4.4924 P   0  0  2  0  0  0  0  0  0  0  0  0
   23.3502   73.6313   -5.9017 O   0  0  0  0  0  0  0  0  0  0  0  0
   23.9053   72.0500   -3.8742 O   0  0  0  0  0  0  0  0  0  0  0  0
   21.4509   72.3307   -4.8094 O   0  0  0  0  0  0  0  0  0  0  0  0
   20.8908   72.5254   -6.0964 C   0  0  0  0  0  0  0  0  0  0  0  0
   19.7842   70.4212   -5.7476 O   0  0  0  0  0  0  0  0  0  0  0  0
   19.9116   70.0738   -8.7231 O   0  0  0  0  0  0  0  0  0  0  0  0
   17.3353   70.8758   -8.3281 O   0  0  0  0  0  0  0  0  0  0  0  0
   19.7075   71.2628   -7.9615 C   0  0  1  0  0  0  0  0  0  0  0  0
   18.3065   71.2850   -7.3868 C   0  0  2  0  0  0  0  0  0  0  0  0
   20.5651   71.1686   -6.7057 C   0  0  1  0  0  0  0  0  0  0  0  0
   18.4301   70.3222   -6.2181 C   0  0  2  0  0  0  0  0  0  0  0  0
   19.3743   70.1110   -9.5305 H   0  0  0  0  0  0  0  0  0  0  0  0
   17.2944   71.5204   -9.0517 H   0  0  0  0  0  0  0  0  0  0  0  0
   16.5188   68.5471   -5.1346 O   0  0  0  0  0  0  0  0  0  0  0  0
   15.0582   71.6864   -2.0928 O   0  0  0  0  0  0  0  0  0  0  0  0
   17.5375   70.6493   -5.1422 N   0  0  0  0  0  0  0  0  0  0  0  0
   15.7932   70.1117   -3.6208 N   0  0  0  0  0  0  0  0  0  0  0  0
   16.6144   69.6861   -4.6727 C   0  0  0  0  0  0  0  0  0  0  0  0
   17.5831   71.9132   -4.5639 C   0  0  0  0  0  0  0  0  0  0  0  0
   16.7922   72.3038   -3.5623 C   0  0  0  0  0  0  0  0  0  0  0  0
   15.7998   71.3574   -3.0134 C   0  0  0  0  0  0  0  0  0  0  0  0
   15.1420   69.4575   -3.2776 H   0  0  0  0  0  0  0  0  0  0  0  0
   22.5331   74.2683   -3.5923 O   0  0  0  0  0  0  0  0  0  0  0  0
   22.9753   74.6773   -2.0923 P   0  0  2  0  0  0  0  0  0  0  0  0
   21.9918   75.9124   -1.7392 O   0  0  0  0  0  0  0  0  0  0  0  0
   24.4368   74.9876   -1.9447 O   0  0  0  0  0  0  0  0  0  0  0  0
   22.4527   73.4626   -1.1669 O   0  0  0  0  0  0  0  0  0  0  0  0
   23.6647   73.2829    0.8618 O   0  0  0  0  0  0  0  0  0  0  0  0
   21.5749   69.7253    1.0245 O   0  0  0  0  0  0  0  0  0  0  0  0
   20.8466   71.8791    2.7791 O   0  0  0  0  0  0  0  0  0  0  0  0
   22.6036   70.6811   -1.5068 O   0  0  0  0  0  0  0  0  0  0  0  0
   21.7727   71.1071    0.7134 C   0  0  1  0  0  0  0  0  0  0  0  0
   22.0507   71.8572    2.0175 C   0  0  1  0  0  0  0  0  0  0  0  0
   22.9549   71.2387   -0.2450 C   0  0  2  0  0  0  0  0  0  0  0  0
   22.5346   73.2873    1.7418 C   0  0  1  0  0  0  0  0  0  0  0  0
   23.3875   72.6965   -0.4115 C   0  0  1  0  0  0  0  0  0  0  0  0
   20.8253   69.6347    1.6323 H   0  0  0  0  0  0  0  0  0  0  0  0
   20.5516   70.9701    2.9459 H   0  0  0  0  0  0  0  0  0  0  0  0
   22.3320   69.7581   -1.3880 H   0  0  0  0  0  0  0  0  0  0  0  0
   23.2666   73.0246    4.0010 O   0  0  0  0  0  0  0  0  0  0  0  0
   22.9677   74.0011    3.0205 C   0  0  0  0  0  0  0  0  0  0  0  0
   23.5441   73.4644    4.8203 H   0  0  0  0  0  0  0  0  0  0  0  0
 25 28  1  0
 25 24  1  0
 25 26  1  1
 25 27  2  0
  1  4  1  0
  1 24  1  0
  1  2  1  6
  1  3  2  0
  6 11  1  0
  6 12  1  0
 29 36  1  0
 29 37  1  0
  9  7  1  6
  7 13  1  0
 10  8  1  6
  8 14  1  0
 37 28  1  1
  4  5  1  0
 33 30  1  1
 30 38  1  0
 34 31  1  1
 31 39  1  0
 35 32  1  6
 32 40  1  0
 41 42  1  0
 41 43  1  0
 15 19  2  0
 16 22  2  0
 12 17  1  1
 17 19  1  0
 17 20  1  0
 18 19  1  0
 18 22  1  0
 18 23  1  0
  9 10  1  0
  9 11  1  0
 10 12  1  0
 11  5  1  1
 33 34  1  0
 33 35  1  0
 34 36  1  0
 35 37  1  0
 36 42  1  1
 20 21  2  0
 21 22  1  0
M  CHG  2   2  -1  26  -1
M  END
>  <COMPND>  (117) 
    8629 

>  <AUTHOR>  (117) 
    GENERATED BY OPEN BABEL 3.1.1

>  <MASTER>  (117) 
        0    0    0    0    0    0    0    0   58    0   58    0

>  <minimizedAffinity>  (117) 
-6.60527

>  <CNNscore>  (117) 
0.4282429814

>  <CNNaffinity>  (117) 
4.0953969955

>  <CNN_VS>  (117) 
1.7538250685

>  <CNNaffinity_variance>  (117) 
0.2480326891

$$$$
118
     RDKit          3D

 43 45  0  0  0  0  0  0  0  0999 V2000
   19.6458   70.5893   -3.2193 P   0  0  2  0  0  0  0  0  0  0  0  0
   19.0819   70.1941   -1.7553 O   0  0  0  0  0  0  0  0  0  0  0  0
   19.9155   69.4273   -4.1295 O   0  0  0  0  0  0  0  0  0  0  0  0
   20.9139   71.5430   -2.9027 O   0  0  0  0  0  0  0  0  0  0  0  0
   21.4513   71.5401   -1.5915 C   0  0  0  0  0  0  0  0  0  0  0  0
   23.5315   72.2919   -0.6527 O   0  0  0  0  0  0  0  0  0  0  0  0
   24.7833   69.9312   -2.0132 O   0  0  0  0  0  0  0  0  0  0  0  0
   24.5531   69.0774    0.5664 O   0  0  0  0  0  0  0  0  0  0  0  0
   23.4998   70.0434   -1.4005 C   0  0  1  0  0  0  0  0  0  0  0  0
   23.6360   70.0497    0.1078 C   0  0  2  0  0  0  0  0  0  0  0  0
   22.9684   71.4442   -1.6777 C   0  0  1  0  0  0  0  0  0  0  0  0
   24.1062   71.4693    0.3759 C   0  0  2  0  0  0  0  0  0  0  0  0
   25.1429   69.0446   -1.8501 H   0  0  0  0  0  0  0  0  0  0  0  0
   24.2090   68.1914    0.3729 H   0  0  0  0  0  0  0  0  0  0  0  0
   25.7594   72.8717    2.1864 O   0  0  0  0  0  0  0  0  0  0  0  0
   22.3513   73.2870    5.2611 O   0  0  0  0  0  0  0  0  0  0  0  0
   23.6767   71.9559    1.6565 N   0  0  0  0  0  0  0  0  0  0  0  0
   24.0610   73.0775    3.7158 N   0  0  0  0  0  0  0  0  0  0  0  0
   24.5860   72.6474    2.4905 C   0  0  0  0  0  0  0  0  0  0  0  0
   22.3668   71.7462    2.0738 C   0  0  0  0  0  0  0  0  0  0  0  0
   21.8822   72.1616    3.2459 C   0  0  0  0  0  0  0  0  0  0  0  0
   22.7670   72.8922    4.1761 C   0  0  0  0  0  0  0  0  0  0  0  0
   24.6763   73.5612    4.3135 H   0  0  0  0  0  0  0  0  0  0  0  0
   18.5367   71.6298   -3.7673 O   0  0  0  0  0  0  0  0  0  0  0  0
   17.0417   71.3877   -4.3324 P   0  0  2  0  0  0  0  0  0  0  0  0
   16.4733   72.8891   -4.5333 O   0  0  0  0  0  0  0  0  0  0  0  0
   16.1879   70.5140   -3.4597 O   0  0  0  0  0  0  0  0  0  0  0  0
   17.2570   70.8293   -5.8314 O   0  0  0  0  0  0  0  0  0  0  0  0
   18.8598   72.2385   -6.8617 O   0  0  0  0  0  0  0  0  0  0  0  0
   18.0269   69.7470  -10.0475 O   0  0  0  0  0  0  0  0  0  0  0  0
   20.5421   69.5097   -8.6817 O   0  0  0  0  0  0  0  0  0  0  0  0
   15.8976   70.5844   -8.2742 O   0  0  0  0  0  0  0  0  0  0  0  0
   18.2195   70.0810   -8.6703 C   0  0  1  0  0  0  0  0  0  0  0  0
   19.6473   70.6034   -8.4987 C   0  0  1  0  0  0  0  0  0  0  0  0
   17.2042   71.1495   -8.2691 C   0  0  2  0  0  0  0  0  0  0  0  0
   19.8451   71.2294   -7.1116 C   0  0  1  0  0  0  0  0  0  0  0  0
   17.5206   71.7413   -6.8944 C   0  0  1  0  0  0  0  0  0  0  0  0
   18.6681   69.0686  -10.3085 H   0  0  0  0  0  0  0  0  0  0  0  0
   20.4065   69.1231   -9.5611 H   0  0  0  0  0  0  0  0  0  0  0  0
   15.7093   70.2134   -9.1498 H   0  0  0  0  0  0  0  0  0  0  0  0
   21.6377   72.3156   -8.2586 O   0  0  0  0  0  0  0  0  0  0  0  0
   21.2119   71.8968   -6.9750 C   0  0  0  0  0  0  0  0  0  0  0  0
   22.5062   72.7425   -8.1872 H   0  0  0  0  0  0  0  0  0  0  0  0
 25 28  1  0
 25 24  1  0
 25 26  1  6
 25 27  2  0
  1  4  1  0
  1 24  1  0
  1  2  1  1
  1  3  2  0
  6 11  1  0
  6 12  1  0
 29 36  1  0
 29 37  1  0
  9  7  1  6
  7 13  1  0
 10  8  1  6
  8 14  1  0
 37 28  1  1
  4  5  1  0
 33 30  1  6
 30 38  1  0
 34 31  1  1
 31 39  1  0
 35 32  1  1
 32 40  1  0
 41 42  1  0
 41 43  1  0
 15 19  2  0
 16 22  2  0
 12 17  1  1
 17 19  1  0
 17 20  1  0
 18 19  1  0
 18 22  1  0
 18 23  1  0
  9 10  1  0
  9 11  1  0
 10 12  1  0
 11  5  1  1
 33 34  1  0
 33 35  1  0
 34 36  1  0
 35 37  1  0
 36 42  1  6
 20 21  2  0
 21 22  1  0
M  CHG  2   2  -1  26  -1
M  END
>  <COMPND>  (118) 
    8629 

>  <AUTHOR>  (118) 
    GENERATED BY OPEN BABEL 3.1.1

>  <MASTER>  (118) 
        0    0    0    0    0    0    0    0   58    0   58    0

>  <minimizedAffinity>  (118) 
-7.58537

>  <CNNscore>  (118) 
0.4034810960

>  <CNNaffinity>  (118) 
3.9550311565

>  <CNN_VS>  (118) 
1.5957802534

>  <CNNaffinity_variance>  (118) 
0.1632697284

$$$$
119
     RDKit          3D

 43 45  0  0  0  0  0  0  0  0999 V2000
   18.6867   70.0843   -3.2525 P   0  0  2  0  0  0  0  0  0  0  0  0
   18.3070   69.9267   -1.6877 O   0  0  0  0  0  0  0  0  0  0  0  0
   18.1924   68.9791   -4.1389 O   0  0  0  0  0  0  0  0  0  0  0  0
   20.2883   70.3139   -3.2424 O   0  0  0  0  0  0  0  0  0  0  0  0
   20.8174   71.3519   -2.4359 C   0  0  0  0  0  0  0  0  0  0  0  0
   22.9586   71.2874   -1.3473 O   0  0  0  0  0  0  0  0  0  0  0  0
   21.5251   70.0712    0.9887 O   0  0  0  0  0  0  0  0  0  0  0  0
   21.8192   72.6704    1.7594 O   0  0  0  0  0  0  0  0  0  0  0  0
   21.0786   71.0762    0.0798 C   0  0  1  0  0  0  0  0  0  0  0  0
   21.7642   72.3940    0.3748 C   0  0  2  0  0  0  0  0  0  0  0  0
   21.6244   70.7358   -1.3013 C   0  0  1  0  0  0  0  0  0  0  0  0
   23.1394   72.1766   -0.2331 C   0  0  2  0  0  0  0  0  0  0  0  0
   21.1886   70.2670    1.8777 H   0  0  0  0  0  0  0  0  0  0  0  0
   20.9202   72.8008    2.0993 H   0  0  0  0  0  0  0  0  0  0  0  0
   24.6262   73.9540    1.3819 O   0  0  0  0  0  0  0  0  0  0  0  0
   25.3568   76.8340   -2.1414 O   0  0  0  0  0  0  0  0  0  0  0  0
   23.7300   73.3982   -0.7026 N   0  0  0  0  0  0  0  0  0  0  0  0
   24.9889   75.3865   -0.3738 N   0  0  0  0  0  0  0  0  0  0  0  0
   24.4563   74.2203    0.1903 C   0  0  0  0  0  0  0  0  0  0  0  0
   23.5865   73.7700   -2.0349 C   0  0  0  0  0  0  0  0  0  0  0  0
   24.0996   74.8861   -2.5568 C   0  0  0  0  0  0  0  0  0  0  0  0
   24.8725   75.8002   -1.6914 C   0  0  0  0  0  0  0  0  0  0  0  0
   25.4985   75.9749    0.2295 H   0  0  0  0  0  0  0  0  0  0  0  0
   18.1119   71.5496   -3.6202 O   0  0  0  0  0  0  0  0  0  0  0  0
   16.8490   71.9985   -4.5239 P   0  0  2  0  0  0  0  0  0  0  0  0
   17.1309   73.5671   -4.8025 O   0  0  0  0  0  0  0  0  0  0  0  0
   15.5135   71.7103   -3.9016 O   0  0  0  0  0  0  0  0  0  0  0  0
   17.0914   71.2814   -5.9494 O   0  0  0  0  0  0  0  0  0  0  0  0
   18.8500   72.4678   -7.0059 O   0  0  0  0  0  0  0  0  0  0  0  0
   18.0179   69.7312   -9.9841 O   0  0  0  0  0  0  0  0  0  0  0  0
   20.4268   69.4620   -8.4439 O   0  0  0  0  0  0  0  0  0  0  0  0
   15.8589   70.8853   -8.4392 O   0  0  0  0  0  0  0  0  0  0  0  0
   18.1560   70.1880   -8.6359 C   0  0  1  0  0  0  0  0  0  0  0  0
   19.6063   70.6268   -8.4244 C   0  0  1  0  0  0  0  0  0  0  0  0
   17.2013   71.3579   -8.4050 C   0  0  2  0  0  0  0  0  0  0  0  0
   19.7707   71.3740   -7.0941 C   0  0  1  0  0  0  0  0  0  0  0  0
   17.4817   72.0620   -7.0762 C   0  0  1  0  0  0  0  0  0  0  0  0
   18.6210   68.9881  -10.1372 H   0  0  0  0  0  0  0  0  0  0  0  0
   20.3134   68.9991   -9.2889 H   0  0  0  0  0  0  0  0  0  0  0  0
   15.6938   70.4419   -9.2854 H   0  0  0  0  0  0  0  0  0  0  0  0
   21.6292   72.3831   -8.2062 O   0  0  0  0  0  0  0  0  0  0  0  0
   21.1730   71.9574   -6.9353 C   0  0  0  0  0  0  0  0  0  0  0  0
   22.5206   72.7570   -8.1204 H   0  0  0  0  0  0  0  0  0  0  0  0
 25 28  1  0
 25 24  1  0
 25 26  1  6
 25 27  2  0
  1  4  1  0
  1 24  1  0
  1  2  1  1
  1  3  2  0
  6 11  1  0
  6 12  1  0
 29 36  1  0
 29 37  1  0
  9  7  1  1
  7 13  1  0
 10  8  1  1
  8 14  1  0
 37 28  1  1
  4  5  1  0
 33 30  1  6
 30 38  1  0
 34 31  1  1
 31 39  1  0
 35 32  1  1
 32 40  1  0
 41 42  1  0
 41 43  1  0
 15 19  2  0
 16 22  2  0
 12 17  1  6
 17 19  1  0
 17 20  1  0
 18 19  1  0
 18 22  1  0
 18 23  1  0
  9 10  1  0
  9 11  1  0
 10 12  1  0
 11  5  1  6
 33 34  1  0
 33 35  1  0
 34 36  1  0
 35 37  1  0
 36 42  1  6
 20 21  2  0
 21 22  1  0
M  CHG  2   2  -1  26  -1
M  END
>  <COMPND>  (119) 
    8629 

>  <AUTHOR>  (119) 
    GENERATED BY OPEN BABEL 3.1.1

>  <MASTER>  (119) 
        0    0    0    0    0    0    0    0   58    0   58    0

>  <minimizedAffinity>  (119) 
-7.02455

>  <CNNscore>  (119) 
0.4008811712

>  <CNNaffinity>  (119) 
4.0418157578

>  <CNN_VS>  (119) 
1.6202877760

>  <CNNaffinity_variance>  (119) 
0.2026903629

$$$$
120
     RDKit          3D

 43 45  0  0  0  0  0  0  0  0999 V2000
   19.9164   70.9331   -2.1709 P   0  0  2  0  0  0  0  0  0  0  0  0
   20.4666   70.5717   -0.6931 O   0  0  0  0  0  0  0  0  0  0  0  0
   20.8403   70.5724   -3.2969 O   0  0  0  0  0  0  0  0  0  0  0  0
   19.5154   72.4970   -2.0645 O   0  0  0  0  0  0  0  0  0  0  0  0
   20.5418   73.4430   -1.8206 C   0  0  0  0  0  0  0  0  0  0  0  0
   20.3809   73.5439    0.5747 O   0  0  0  0  0  0  0  0  0  0  0  0
   20.2384   76.5217    0.2526 O   0  0  0  0  0  0  0  0  0  0  0  0
   22.8348   76.1268    0.9869 O   0  0  0  0  0  0  0  0  0  0  0  0
   20.9907   75.5682   -0.4959 C   0  0  1  0  0  0  0  0  0  0  0  0
   22.1707   75.0755    0.3156 C   0  0  2  0  0  0  0  0  0  0  0  0
   20.1478   74.3061   -0.6299 C   0  0  1  0  0  0  0  0  0  0  0  0
   21.5094   74.0971    1.2713 C   0  0  2  0  0  0  0  0  0  0  0  0
   20.7563   77.3366    0.3511 H   0  0  0  0  0  0  0  0  0  0  0  0
   23.2389   76.7218    0.3363 H   0  0  0  0  0  0  0  0  0  0  0  0
   21.7023   73.0560    3.8899 O   0  0  0  0  0  0  0  0  0  0  0  0
   24.9174   70.0014    2.6353 O   0  0  0  0  0  0  0  0  0  0  0  0
   22.3884   73.0294    1.6570 N   0  0  0  0  0  0  0  0  0  0  0  0
   23.3029   71.5358    3.2630 N   0  0  0  0  0  0  0  0  0  0  0  0
   22.4092   72.5814    2.9984 C   0  0  0  0  0  0  0  0  0  0  0  0
   23.2173   72.4378    0.7100 C   0  0  0  0  0  0  0  0  0  0  0  0
   24.0648   71.4424    0.9788 C   0  0  0  0  0  0  0  0  0  0  0  0
   24.1481   70.9158    2.3564 C   0  0  0  0  0  0  0  0  0  0  0  0
   23.3349   71.2076    4.1909 H   0  0  0  0  0  0  0  0  0  0  0  0
   18.4804   70.1921   -2.2154 O   0  0  0  0  0  0  0  0  0  0  0  0
   17.7977   69.2676   -3.3522 P   0  0  2  0  0  0  0  0  0  0  0  0
   16.2275   69.6412   -3.2405 O   0  0  0  0  0  0  0  0  0  0  0  0
   18.0969   67.8028   -3.2157 O   0  0  0  0  0  0  0  0  0  0  0  0
   18.2735   69.9202   -4.7495 O   0  0  0  0  0  0  0  0  0  0  0  0
   18.3981   72.1650   -5.4991 O   0  0  0  0  0  0  0  0  0  0  0  0
   17.0257   70.3875   -8.9643 O   0  0  0  0  0  0  0  0  0  0  0  0
   19.7435   71.3044   -8.8215 O   0  0  0  0  0  0  0  0  0  0  0  0
   16.0403   69.4920   -6.3940 O   0  0  0  0  0  0  0  0  0  0  0  0
   17.7763   70.4666   -7.7496 C   0  0  1  0  0  0  0  0  0  0  0  0
   18.7469   71.6440   -7.8614 C   0  0  1  0  0  0  0  0  0  0  0  0
   16.8144   70.6719   -6.5808 C   0  0  2  0  0  0  0  0  0  0  0  0
   19.3953   71.9580   -6.5064 C   0  0  1  0  0  0  0  0  0  0  0  0
   17.5587   71.0272   -5.2925 C   0  0  1  0  0  0  0  0  0  0  0  0
   17.6305   70.2567   -9.7104 H   0  0  0  0  0  0  0  0  0  0  0  0
   19.3209   71.1079   -9.6724 H   0  0  0  0  0  0  0  0  0  0  0  0
   15.5738   69.2778   -7.2165 H   0  0  0  0  0  0  0  0  0  0  0  0
   20.5013   73.6507   -5.2334 O   0  0  0  0  0  0  0  0  0  0  0  0
   20.2456   73.2254   -6.5593 C   0  0  0  0  0  0  0  0  0  0  0  0
   21.0420   74.4563   -5.2515 H   0  0  0  0  0  0  0  0  0  0  0  0
 25 28  1  0
 25 24  1  0
 25 26  1  1
 25 27  2  0
  1  4  1  0
  1 24  1  0
  1  2  1  1
  1  3  2  0
  6 11  1  0
  6 12  1  0
 29 36  1  0
 29 37  1  0
  9  7  1  1
  7 13  1  0
 10  8  1  1
  8 14  1  0
 37 28  1  6
  4  5  1  0
 33 30  1  6
 30 38  1  0
 34 31  1  6
 31 39  1  0
 35 32  1  1
 32 40  1  0
 41 42  1  0
 41 43  1  0
 15 19  2  0
 16 22  2  0
 12 17  1  6
 17 19  1  0
 17 20  1  0
 18 19  1  0
 18 22  1  0
 18 23  1  0
  9 10  1  0
  9 11  1  0
 10 12  1  0
 11  5  1  6
 33 34  1  0
 33 35  1  0
 34 36  1  0
 35 37  1  0
 36 42  1  6
 20 21  2  0
 21 22  1  0
M  CHG  2   2  -1  26  -1
M  END
>  <COMPND>  (120) 
    8629 

>  <AUTHOR>  (120) 
    GENERATED BY OPEN BABEL 3.1.1

>  <MASTER>  (120) 
        0    0    0    0    0    0    0    0   58    0   58    0

>  <minimizedAffinity>  (120) 
-6.32354

>  <CNNscore>  (120) 
0.4000596702

>  <CNNaffinity>  (120) 
4.0242762566

>  <CNN_VS>  (120) 
1.6099506617

>  <CNNaffinity_variance>  (120) 
0.1204140186

$$$$
121
     RDKit          3D

 43 45  0  0  0  0  0  0  0  0999 V2000
   22.5160   71.5175   -2.8965 P   0  0  2  0  0  0  0  0  0  0  0  0
   22.1253   73.0477   -2.5453 O   0  0  0  0  0  0  0  0  0  0  0  0
   23.9463   71.3045   -3.2967 O   0  0  0  0  0  0  0  0  0  0  0  0
   21.4074   71.0744   -3.9886 O   0  0  0  0  0  0  0  0  0  0  0  0
   20.4619   70.0825   -3.6281 C   0  0  0  0  0  0  0  0  0  0  0  0
   18.7896   71.4662   -4.6587 O   0  0  0  0  0  0  0  0  0  0  0  0
   16.8985   70.3960   -2.5925 O   0  0  0  0  0  0  0  0  0  0  0  0
   16.2629   68.9248   -4.7988 O   0  0  0  0  0  0  0  0  0  0  0  0
   17.9678   69.7340   -3.2660 C   0  0  1  0  0  0  0  0  0  0  0  0
   17.5790   69.4292   -4.6976 C   0  0  2  0  0  0  0  0  0  0  0  0
   19.0991   70.7377   -3.4505 C   0  0  1  0  0  0  0  0  0  0  0  0
   17.7380   70.7857   -5.3629 C   0  0  2  0  0  0  0  0  0  0  0  0
   16.1643   69.7747   -2.4630 H   0  0  0  0  0  0  0  0  0  0  0  0
   16.2130   68.0608   -4.3608 H   0  0  0  0  0  0  0  0  0  0  0  0
   15.9018   70.3210   -7.4583 O   0  0  0  0  0  0  0  0  0  0  0  0
   19.2356   70.3868  -10.6400 O   0  0  0  0  0  0  0  0  0  0  0  0
   18.0987   70.6773   -6.7484 N   0  0  0  0  0  0  0  0  0  0  0  0
   17.5632   70.3543   -9.0408 N   0  0  0  0  0  0  0  0  0  0  0  0
   17.1000   70.4420   -7.7218 C   0  0  0  0  0  0  0  0  0  0  0  0
   19.4300   70.8043   -7.1298 C   0  0  0  0  0  0  0  0  0  0  0  0
   19.8555   70.7169   -8.3918 C   0  0  0  0  0  0  0  0  0  0  0  0
   18.8758   70.4724   -9.4699 C   0  0  0  0  0  0  0  0  0  0  0  0
   16.8854   70.1904   -9.7361 H   0  0  0  0  0  0  0  0  0  0  0  0
   22.0615   70.7128   -1.5703 O   0  0  0  0  0  0  0  0  0  0  0  0
   21.5448   71.2413   -0.1328 P   0  0  2  0  0  0  0  0  0  0  0  0
   21.5637   69.9070    0.7819 O   0  0  0  0  0  0  0  0  0  0  0  0
   20.2187   71.9439   -0.1757 O   0  0  0  0  0  0  0  0  0  0  0  0
   22.7601   72.1404    0.4328 O   0  0  0  0  0  0  0  0  0  0  0  0
   22.2113   73.4873    2.3040 O   0  0  0  0  0  0  0  0  0  0  0  0
   25.8019   75.2393    1.2602 O   0  0  0  0  0  0  0  0  0  0  0  0
   25.6539   73.6048    3.6170 O   0  0  0  0  0  0  0  0  0  0  0  0
   23.9771   74.3469   -0.8022 O   0  0  0  0  0  0  0  0  0  0  0  0
   24.8775   74.1603    1.4240 C   0  0  1  0  0  0  0  0  0  0  0  0
   24.5085   74.0657    2.9057 C   0  0  1  0  0  0  0  0  0  0  0  0
   23.6360   74.4338    0.5771 C   0  0  2  0  0  0  0  0  0  0  0  0
   23.3256   73.1123    3.1223 C   0  0  1  0  0  0  0  0  0  0  0  0
   22.5027   73.4602    0.9053 C   0  0  1  0  0  0  0  0  0  0  0  0
   26.5927   75.0716    1.7950 H   0  0  0  0  0  0  0  0  0  0  0  0
   26.3937   74.2153    3.4715 H   0  0  0  0  0  0  0  0  0  0  0  0
   24.6953   74.9682   -0.9973 H   0  0  0  0  0  0  0  0  0  0  0  0
   21.4241   73.0986    4.5690 O   0  0  0  0  0  0  0  0  0  0  0  0
   22.8397   73.1234    4.5700 C   0  0  0  0  0  0  0  0  0  0  0  0
   21.1007   73.1051    5.4839 H   0  0  0  0  0  0  0  0  0  0  0  0
 25 28  1  0
 25 24  1  0
 25 26  1  1
 25 27  2  0
  1  4  1  0
  1 24  1  0
  1  2  1  1
  1  3  2  0
  6 11  1  0
  6 12  1  0
 29 36  1  0
 29 37  1  0
  9  7  1  1
  7 13  1  0
 10  8  1  1
  8 14  1  0
 37 28  1  1
  4  5  1  0
 33 30  1  1
 30 38  1  0
 34 31  1  1
 31 39  1  0
 35 32  1  6
 32 40  1  0
 41 42  1  0
 41 43  1  0
 15 19  2  0
 16 22  2  0
 12 17  1  6
 17 19  1  0
 17 20  1  0
 18 19  1  0
 18 22  1  0
 18 23  1  0
  9 10  1  0
  9 11  1  0
 10 12  1  0
 11  5  1  6
 33 34  1  0
 33 35  1  0
 34 36  1  0
 35 37  1  0
 36 42  1  1
 20 21  2  0
 21 22  1  0
M  CHG  2   2  -1  26  -1
M  END
>  <COMPND>  (121) 
    8629 

>  <AUTHOR>  (121) 
    GENERATED BY OPEN BABEL 3.1.1

>  <MASTER>  (121) 
        0    0    0    0    0    0    0    0   58    0   58    0

>  <minimizedAffinity>  (121) 
-7.43871

>  <CNNscore>  (121) 
0.9332451224

>  <CNNaffinity>  (121) 
4.7559051514

>  <CNN_VS>  (121) 
4.4384250641

>  <CNNaffinity_variance>  (121) 
0.0275170263

$$$$
122
     RDKit          3D

 43 45  0  0  0  0  0  0  0  0999 V2000
   21.9859   72.7825   -5.7901 P   0  0  2  0  0  0  0  0  0  0  0  0
   21.5528   74.3396   -5.8629 O   0  0  0  0  0  0  0  0  0  0  0  0
   23.2050   72.4258   -6.5890 O   0  0  0  0  0  0  0  0  0  0  0  0
   20.6331   71.9845   -6.1785 O   0  0  0  0  0  0  0  0  0  0  0  0
   20.0293   72.2478   -7.4331 C   0  0  0  0  0  0  0  0  0  0  0  0
   18.9714   70.1558   -6.9059 O   0  0  0  0  0  0  0  0  0  0  0  0
   18.2289   70.0141   -9.8075 O   0  0  0  0  0  0  0  0  0  0  0  0
   15.9124   70.8574   -8.6418 O   0  0  0  0  0  0  0  0  0  0  0  0
   18.3060   71.1520   -8.9505 C   0  0  1  0  0  0  0  0  0  0  0  0
   17.1296   71.1727   -7.9970 C   0  0  2  0  0  0  0  0  0  0  0  0
   19.4806   70.9465   -8.0021 C   0  0  1  0  0  0  0  0  0  0  0  0
   17.5362   70.1274   -6.9722 C   0  0  2  0  0  0  0  0  0  0  0  0
   17.4861   70.1225  -10.4227 H   0  0  0  0  0  0  0  0  0  0  0  0
   15.6970   71.5519   -9.2836 H   0  0  0  0  0  0  0  0  0  0  0  0
   16.4171   68.1786   -5.2611 O   0  0  0  0  0  0  0  0  0  0  0  0
   15.5223   71.3001   -1.9904 O   0  0  0  0  0  0  0  0  0  0  0  0
   17.0036   70.4030   -5.6677 N   0  0  0  0  0  0  0  0  0  0  0  0
   15.9726   69.7344   -3.6339 N   0  0  0  0  0  0  0  0  0  0  0  0
   16.4635   69.3530   -4.8891 C   0  0  0  0  0  0  0  0  0  0  0  0
   17.0204   71.7025   -5.1727 C   0  0  0  0  0  0  0  0  0  0  0  0
   16.5471   72.0499   -3.9741 C   0  0  0  0  0  0  0  0  0  0  0  0
   15.9658   71.0125   -3.0979 C   0  0  0  0  0  0  0  0  0  0  0  0
   15.5913   69.0197   -3.0740 H   0  0  0  0  0  0  0  0  0  0  0  0
   22.1211   72.5167   -4.2014 O   0  0  0  0  0  0  0  0  0  0  0  0
   23.3831   72.6705   -3.2030 P   0  0  2  0  0  0  0  0  0  0  0  0
   24.0843   71.2138   -3.2641 O   0  0  0  0  0  0  0  0  0  0  0  0
   23.0208   73.1258   -1.8190 O   0  0  0  0  0  0  0  0  0  0  0  0
   24.4042   73.6474   -3.9827 O   0  0  0  0  0  0  0  0  0  0  0  0
   26.2268   75.1017   -3.5588 O   0  0  0  0  0  0  0  0  0  0  0  0
   23.7367   77.7271   -5.5483 O   0  0  0  0  0  0  0  0  0  0  0  0
   26.0904   76.7346   -6.8609 O   0  0  0  0  0  0  0  0  0  0  0  0
   22.6208   75.7960   -3.7029 O   0  0  0  0  0  0  0  0  0  0  0  0
   24.3320   76.4583   -5.2633 C   0  0  1  0  0  0  0  0  0  0  0  0
   25.8435   76.5813   -5.4660 C   0  0  1  0  0  0  0  0  0  0  0  0
   24.0128   76.0699   -3.8208 C   0  0  2  0  0  0  0  0  0  0  0  0
   26.5771   75.3463   -4.9260 C   0  0  1  0  0  0  0  0  0  0  0  0
   24.8315   74.8598   -3.3674 C   0  0  1  0  0  0  0  0  0  0  0  0
   23.9352   77.9793   -6.4629 H   0  0  0  0  0  0  0  0  0  0  0  0
   25.6212   77.5175   -7.1895 H   0  0  0  0  0  0  0  0  0  0  0  0
   22.1135   76.5697   -3.9927 H   0  0  0  0  0  0  0  0  0  0  0  0
   28.5820   74.8666   -6.1340 O   0  0  0  0  0  0  0  0  0  0  0  0
   28.0941   75.5157   -4.9743 C   0  0  0  0  0  0  0  0  0  0  0  0
   29.5463   74.9664   -6.1781 H   0  0  0  0  0  0  0  0  0  0  0  0
 25 28  1  0
 25 24  1  0
 25 26  1  1
 25 27  2  0
  1  4  1  0
  1 24  1  0
  1  2  1  1
  1  3  2  0
  6 11  1  0
  6 12  1  0
 29 36  1  0
 29 37  1  0
  9  7  1  6
  7 13  1  0
 10  8  1  6
  8 14  1  0
 37 28  1  6
  4  5  1  0
 33 30  1  1
 30 38  1  0
 34 31  1  6
 31 39  1  0
 35 32  1  6
 32 40  1  0
 41 42  1  0
 41 43  1  0
 15 19  2  0
 16 22  2  0
 12 17  1  1
 17 19  1  0
 17 20  1  0
 18 19  1  0
 18 22  1  0
 18 23  1  0
  9 10  1  0
  9 11  1  0
 10 12  1  0
 11  5  1  1
 33 34  1  0
 33 35  1  0
 34 36  1  0
 35 37  1  0
 36 42  1  1
 20 21  2  0
 21 22  1  0
M  CHG  2   2  -1  26  -1
M  END
>  <COMPND>  (122) 
    8629 

>  <AUTHOR>  (122) 
    GENERATED BY OPEN BABEL 3.1.1

>  <MASTER>  (122) 
        0    0    0    0    0    0    0    0   58    0   58    0

>  <minimizedAffinity>  (122) 
-6.72444

>  <CNNscore>  (122) 
0.8811900020

>  <CNNaffinity>  (122) 
4.6747369766

>  <CNN_VS>  (122) 
4.1193313599

>  <CNNaffinity_variance>  (122) 
0.2151312083

$$$$
123
     RDKit          3D

 43 45  0  0  0  0  0  0  0  0999 V2000
   22.6350   72.1213   -2.7893 P   0  0  2  0  0  0  0  0  0  0  0  0
   22.6156   73.7186   -2.5330 O   0  0  0  0  0  0  0  0  0  0  0  0
   23.9400   71.5755   -3.2897 O   0  0  0  0  0  0  0  0  0  0  0  0
   21.3541   71.8655   -3.7441 O   0  0  0  0  0  0  0  0  0  0  0  0
   20.6003   70.6797   -3.5608 C   0  0  0  0  0  0  0  0  0  0  0  0
   18.6645   71.6674   -4.5861 O   0  0  0  0  0  0  0  0  0  0  0  0
   17.0648   70.2875   -2.4583 O   0  0  0  0  0  0  0  0  0  0  0  0
   16.7076   68.6621   -4.6186 O   0  0  0  0  0  0  0  0  0  0  0  0
   18.2358   69.8401   -3.1395 C   0  0  1  0  0  0  0  0  0  0  0  0
   17.8945   69.4262   -4.5557 C   0  0  2  0  0  0  0  0  0  0  0  0
   19.1354   71.0481   -3.3691 C   0  0  1  0  0  0  0  0  0  0  0  0
   17.7628   70.7694   -5.2534 C   0  0  2  0  0  0  0  0  0  0  0  0
   16.4749   69.5332   -2.3002 H   0  0  0  0  0  0  0  0  0  0  0  0
   16.8420   67.8175   -4.1611 H   0  0  0  0  0  0  0  0  0  0  0  0
   15.9812   70.0344   -7.3183 O   0  0  0  0  0  0  0  0  0  0  0  0
   19.2280   70.5421  -10.5497 O   0  0  0  0  0  0  0  0  0  0  0  0
   18.1158   70.7015   -6.6434 N   0  0  0  0  0  0  0  0  0  0  0  0
   17.5993   70.2880   -8.9256 N   0  0  0  0  0  0  0  0  0  0  0  0
   17.1467   70.3204   -7.6004 C   0  0  0  0  0  0  0  0  0  0  0  0
   19.4106   71.0112   -7.0454 C   0  0  0  0  0  0  0  0  0  0  0  0
   19.8266   70.9742   -8.3130 C   0  0  0  0  0  0  0  0  0  0  0  0
   18.8760   70.5858   -9.3749 C   0  0  0  0  0  0  0  0  0  0  0  0
   16.9415   70.0248   -9.6097 H   0  0  0  0  0  0  0  0  0  0  0  0
   22.1547   71.5193   -1.3680 O   0  0  0  0  0  0  0  0  0  0  0  0
   22.9460   70.6415   -0.2651 P   0  0  2  0  0  0  0  0  0  0  0  0
   21.7590   70.0627    0.6695 O   0  0  0  0  0  0  0  0  0  0  0  0
   24.0065   71.3998    0.4794 O   0  0  0  0  0  0  0  0  0  0  0  0
   23.4882   69.3568   -1.0778 O   0  0  0  0  0  0  0  0  0  0  0  0
   24.6365   67.6776    0.1380 O   0  0  0  0  0  0  0  0  0  0  0  0
   25.9164   66.7264   -3.6710 O   0  0  0  0  0  0  0  0  0  0  0  0
   24.0196   65.0248   -2.3462 O   0  0  0  0  0  0  0  0  0  0  0  0
   25.6191   69.5002   -2.8982 O   0  0  0  0  0  0  0  0  0  0  0  0
   24.9875   67.1856   -2.6853 C   0  0  1  0  0  0  0  0  0  0  0  0
   24.7512   66.0529   -1.6843 C   0  0  1  0  0  0  0  0  0  0  0  0
   25.5698   68.4109   -1.9831 C   0  0  2  0  0  0  0  0  0  0  0  0
   23.9792   66.5516   -0.4554 C   0  0  1  0  0  0  0  0  0  0  0  0
   24.7548   68.7937   -0.7464 C   0  0  1  0  0  0  0  0  0  0  0  0
   25.5525   65.9488   -4.1209 H   0  0  0  0  0  0  0  0  0  0  0  0
   24.5178   64.7190   -3.1206 H   0  0  0  0  0  0  0  0  0  0  0  0
   26.1380   69.2453   -3.6764 H   0  0  0  0  0  0  0  0  0  0  0  0
   24.5585   65.9290    1.7775 O   0  0  0  0  0  0  0  0  0  0  0  0
   23.8697   65.4784    0.6255 C   0  0  0  0  0  0  0  0  0  0  0  0
   24.4970   65.2561    2.4740 H   0  0  0  0  0  0  0  0  0  0  0  0
 25 28  1  0
 25 24  1  0
 25 26  1  1
 25 27  2  0
  1  4  1  0
  1 24  1  0
  1  2  1  1
  1  3  2  0
  6 11  1  0
  6 12  1  0
 29 36  1  0
 29 37  1  0
  9  7  1  1
  7 13  1  0
 10  8  1  1
  8 14  1  0
 37 28  1  6
  4  5  1  0
 33 30  1  6
 30 38  1  0
 34 31  1  6
 31 39  1  0
 35 32  1  6
 32 40  1  0
 41 42  1  0
 41 43  1  0
 15 19  2  0
 16 22  2  0
 12 17  1  6
 17 19  1  0
 17 20  1  0
 18 19  1  0
 18 22  1  0
 18 23  1  0
  9 10  1  0
  9 11  1  0
 10 12  1  0
 11  5  1  6
 33 34  1  0
 33 35  1  0
 34 36  1  0
 35 37  1  0
 36 42  1  1
 20 21  2  0
 21 22  1  0
M  CHG  2   2  -1  26  -1
M  END
>  <COMPND>  (123) 
    8629 

>  <AUTHOR>  (123) 
    GENERATED BY OPEN BABEL 3.1.1

>  <MASTER>  (123) 
        0    0    0    0    0    0    0    0   58    0   58    0

>  <minimizedAffinity>  (123) 
-9.46257

>  <CNNscore>  (123) 
0.7939246893

>  <CNNaffinity>  (123) 
5.0409746170

>  <CNN_VS>  (123) 
4.0021543503

>  <CNNaffinity_variance>  (123) 
0.0872139707

$$$$
124
     RDKit          3D

 43 45  0  0  0  0  0  0  0  0999 V2000
   23.3253   73.3970   -3.9564 P   0  0  2  0  0  0  0  0  0  0  0  0
   23.2736   74.0317   -5.4437 O   0  0  0  0  0  0  0  0  0  0  0  0
   24.1869   72.1764   -3.8179 O   0  0  0  0  0  0  0  0  0  0  0  0
   21.7680   73.2063   -3.5611 O   0  0  0  0  0  0  0  0  0  0  0  0
   20.7846   73.4452   -4.5528 C   0  0  0  0  0  0  0  0  0  0  0  0
   18.5367   72.8383   -5.1466 O   0  0  0  0  0  0  0  0  0  0  0  0
   18.3541   71.5910   -2.4260 O   0  0  0  0  0  0  0  0  0  0  0  0
   18.7836   69.4356   -4.0404 O   0  0  0  0  0  0  0  0  0  0  0  0
   19.4667   71.6540   -3.3168 C   0  0  1  0  0  0  0  0  0  0  0  0
   19.2732   70.6901   -4.4687 C   0  0  2  0  0  0  0  0  0  0  0  0
   19.4275   73.0041   -4.0218 C   0  0  1  0  0  0  0  0  0  0  0  0
   18.2801   71.4380   -5.3420 C   0  0  2  0  0  0  0  0  0  0  0  0
   18.3580   70.7376   -1.9638 H   0  0  0  0  0  0  0  0  0  0  0  0
   19.4512   68.9992   -3.4885 H   0  0  0  0  0  0  0  0  0  0  0  0
   16.1321   71.0794   -7.1407 O   0  0  0  0  0  0  0  0  0  0  0  0
   18.9827   70.2421  -10.6641 O   0  0  0  0  0  0  0  0  0  0  0  0
   18.4322   71.1260   -6.7351 N   0  0  0  0  0  0  0  0  0  0  0  0
   17.5532   70.6629   -8.8937 N   0  0  0  0  0  0  0  0  0  0  0  0
   17.2887   70.9653   -7.5518 C   0  0  0  0  0  0  0  0  0  0  0  0
   19.7043   70.9827   -7.2783 C   0  0  0  0  0  0  0  0  0  0  0  0
   19.9395   70.6930   -8.5597 C   0  0  0  0  0  0  0  0  0  0  0  0
   18.7993   70.5091   -9.4805 C   0  0  0  0  0  0  0  0  0  0  0  0
   16.7718   70.5462   -9.4815 H   0  0  0  0  0  0  0  0  0  0  0  0
   23.7815   74.6497   -3.0423 O   0  0  0  0  0  0  0  0  0  0  0  0
   23.7369   74.8674   -1.4412 P   0  0  2  0  0  0  0  0  0  0  0  0
   22.6150   76.0180   -1.2543 O   0  0  0  0  0  0  0  0  0  0  0  0
   25.0674   75.1942   -0.8273 O   0  0  0  0  0  0  0  0  0  0  0  0
   23.0460   73.5270   -0.8658 O   0  0  0  0  0  0  0  0  0  0  0  0
   24.0048   73.1021    1.2594 O   0  0  0  0  0  0  0  0  0  0  0  0
   21.5587   69.7884    0.9648 O   0  0  0  0  0  0  0  0  0  0  0  0
   20.8663   71.9053    2.7779 O   0  0  0  0  0  0  0  0  0  0  0  0
   22.9494   70.7694   -1.3769 O   0  0  0  0  0  0  0  0  0  0  0  0
   21.9289   71.1561    0.7703 C   0  0  1  0  0  0  0  0  0  0  0  0
   22.1378   71.7964    2.1441 C   0  0  1  0  0  0  0  0  0  0  0  0
   23.2158   71.2130   -0.0507 C   0  0  2  0  0  0  0  0  0  0  0  0
   22.7918   73.1789    2.0172 C   0  0  1  0  0  0  0  0  0  0  0  0
   23.8100   72.6225   -0.0724 C   0  0  1  0  0  0  0  0  0  0  0  0
   20.7420   69.7452    1.4850 H   0  0  0  0  0  0  0  0  0  0  0  0
   20.4639   71.0256    2.8514 H   0  0  0  0  0  0  0  0  0  0  0  0
   22.5739   69.8760   -1.3495 H   0  0  0  0  0  0  0  0  0  0  0  0
   21.9936   74.3611    3.9341 O   0  0  0  0  0  0  0  0  0  0  0  0
   23.1531   73.7678    3.3791 C   0  0  0  0  0  0  0  0  0  0  0  0
   22.2085   74.7399    4.8013 H   0  0  0  0  0  0  0  0  0  0  0  0
 25 28  1  0
 25 24  1  0
 25 26  1  6
 25 27  2  0
  1  4  1  0
  1 24  1  0
  1  2  1  6
  1  3  2  0
  6 11  1  0
  6 12  1  0
 29 36  1  0
 29 37  1  0
  9  7  1  1
  7 13  1  0
 10  8  1  1
  8 14  1  0
 37 28  1  6
  4  5  1  0
 33 30  1  1
 30 38  1  0
 34 31  1  6
 31 39  1  0
 35 32  1  6
 32 40  1  0
 41 42  1  0
 41 43  1  0
 15 19  2  0
 16 22  2  0
 12 17  1  6
 17 19  1  0
 17 20  1  0
 18 19  1  0
 18 22  1  0
 18 23  1  0
  9 10  1  0
  9 11  1  0
 10 12  1  0
 11  5  1  6
 33 34  1  0
 33 35  1  0
 34 36  1  0
 35 37  1  0
 36 42  1  1
 20 21  2  0
 21 22  1  0
M  CHG  2   2  -1  26  -1
M  END
>  <COMPND>  (124) 
    8629 

>  <AUTHOR>  (124) 
    GENERATED BY OPEN BABEL 3.1.1

>  <MASTER>  (124) 
        0    0    0    0    0    0    0    0   58    0   58    0

>  <minimizedAffinity>  (124) 
-6.90062

>  <CNNscore>  (124) 
0.7340805531

>  <CNNaffinity>  (124) 
4.4733452797

>  <CNN_VS>  (124) 
3.2837958336

>  <CNNaffinity_variance>  (124) 
0.1034102440

$$$$
125
     RDKit          3D

 43 45  0  0  0  0  0  0  0  0999 V2000
   20.8055   75.4133   -3.8685 P   0  0  2  0  0  0  0  0  0  0  0  0
   21.8293   75.7022   -5.0874 O   0  0  0  0  0  0  0  0  0  0  0  0
   19.9657   76.5859   -3.4547 O   0  0  0  0  0  0  0  0  0  0  0  0
   21.7454   74.7799   -2.7137 O   0  0  0  0  0  0  0  0  0  0  0  0
   21.4772   75.1163   -1.3636 C   0  0  0  0  0  0  0  0  0  0  0  0
   20.9407   72.8918   -0.6303 O   0  0  0  0  0  0  0  0  0  0  0  0
   18.5201   74.1024    0.6603 O   0  0  0  0  0  0  0  0  0  0  0  0
   20.2272   73.7997    2.7652 O   0  0  0  0  0  0  0  0  0  0  0  0
   19.8328   74.6430    0.5192 C   0  0  1  0  0  0  0  0  0  0  0  0
   20.7874   73.9629    1.4783 C   0  0  2  0  0  0  0  0  0  0  0  0
   20.3772   74.2059   -0.8350 C   0  0  1  0  0  0  0  0  0  0  0  0
   21.0447   72.6382    0.7803 C   0  0  2  0  0  0  0  0  0  0  0  0
   18.1515   74.3685    1.5178 H   0  0  0  0  0  0  0  0  0  0  0  0
   20.0824   74.6702    3.1677 H   0  0  0  0  0  0  0  0  0  0  0  0
   21.6503   69.8868    0.9817 O   0  0  0  0  0  0  0  0  0  0  0  0
   26.0895   70.7422    1.8775 O   0  0  0  0  0  0  0  0  0  0  0  0
   22.3506   72.1138    1.0649 N   0  0  0  0  0  0  0  0  0  0  0  0
   23.8602   70.3149    1.4274 N   0  0  0  0  0  0  0  0  0  0  0  0
   22.5480   70.7156    1.1454 C   0  0  0  0  0  0  0  0  0  0  0  0
   23.4187   72.9826    1.2604 C   0  0  0  0  0  0  0  0  0  0  0  0
   24.6638   72.5845    1.5297 C   0  0  0  0  0  0  0  0  0  0  0  0
   24.9551   71.1399    1.6310 C   0  0  0  0  0  0  0  0  0  0  0  0
   24.0215   69.3454    1.4886 H   0  0  0  0  0  0  0  0  0  0  0  0
   19.9655   74.1363   -4.3943 O   0  0  0  0  0  0  0  0  0  0  0  0
   20.4171   72.6088   -4.6696 P   0  0  2  0  0  0  0  0  0  0  0  0
   19.7404   71.7955   -3.4456 O   0  0  0  0  0  0  0  0  0  0  0  0
   21.9011   72.4188   -4.7939 O   0  0  0  0  0  0  0  0  0  0  0  0
   19.5742   72.1619   -5.9714 O   0  0  0  0  0  0  0  0  0  0  0  0
   18.7844   69.9323   -6.1192 O   0  0  0  0  0  0  0  0  0  0  0  0
   18.6101   70.9604  -10.1147 O   0  0  0  0  0  0  0  0  0  0  0  0
   16.1775   70.6954   -8.6114 O   0  0  0  0  0  0  0  0  0  0  0  0
   20.8074   71.8944   -8.4779 O   0  0  0  0  0  0  0  0  0  0  0  0
   18.5163   71.1870   -8.7057 C   0  0  1  0  0  0  0  0  0  0  0  0
   17.4465   70.2512   -8.1396 C   0  0  1  0  0  0  0  0  0  0  0  0
   19.8729   70.9038   -8.0632 C   0  0  2  0  0  0  0  0  0  0  0  0
   17.4733   70.2430   -6.6053 C   0  0  1  0  0  0  0  0  0  0  0  0
   19.7788   70.8697   -6.5367 C   0  0  1  0  0  0  0  0  0  0  0  0
   17.7521   71.1389  -10.5288 H   0  0  0  0  0  0  0  0  0  0  0  0
   16.1740   70.6963   -9.5815 H   0  0  0  0  0  0  0  0  0  0  0  0
   20.8581   71.9058   -9.4460 H   0  0  0  0  0  0  0  0  0  0  0  0
   17.0173   68.7977   -4.7581 O   0  0  0  0  0  0  0  0  0  0  0  0
   16.5226   69.1998   -6.0222 C   0  0  0  0  0  0  0  0  0  0  0  0
   16.4221   68.1339   -4.3749 H   0  0  0  0  0  0  0  0  0  0  0  0
 25 28  1  0
 25 24  1  0
 25 26  1  1
 25 27  2  0
  1  4  1  0
  1 24  1  0
  1  2  1  6
  1  3  2  0
  6 11  1  0
  6 12  1  0
 29 36  1  0
 29 37  1  0
  9  7  1  1
  7 13  1  0
 10  8  1  1
  8 14  1  0
 37 28  1  6
  4  5  1  0
 33 30  1  6
 30 38  1  0
 34 31  1  1
 31 39  1  0
 35 32  1  1
 32 40  1  0
 41 42  1  0
 41 43  1  0
 15 19  2  0
 16 22  2  0
 12 17  1  6
 17 19  1  0
 17 20  1  0
 18 19  1  0
 18 22  1  0
 18 23  1  0
  9 10  1  0
  9 11  1  0
 10 12  1  0
 11  5  1  1
 33 34  1  0
 33 35  1  0
 34 36  1  0
 35 37  1  0
 36 42  1  6
 20 21  2  0
 21 22  1  0
M  CHG  2   2  -1  26  -1
M  END
>  <COMPND>  (125) 
    8629 

>  <AUTHOR>  (125) 
    GENERATED BY OPEN BABEL 3.1.1

>  <MASTER>  (125) 
        0    0    0    0    0    0    0    0   58    0   58    0

>  <minimizedAffinity>  (125) 
-6.76927

>  <CNNscore>  (125) 
0.6619659066

>  <CNNaffinity>  (125) 
4.4369606972

>  <CNN_VS>  (125) 
2.9371166229

>  <CNNaffinity_variance>  (125) 
0.1766656190

$$$$
126
     RDKit          3D

 43 45  0  0  0  0  0  0  0  0999 V2000
   23.1607   71.6911   -2.5923 P   0  0  2  0  0  0  0  0  0  0  0  0
   23.3434   73.2643   -2.2621 O   0  0  0  0  0  0  0  0  0  0  0  0
   24.3668   71.0237   -3.1850 O   0  0  0  0  0  0  0  0  0  0  0  0
   21.8153   71.6361   -3.4893 O   0  0  0  0  0  0  0  0  0  0  0  0
   21.6535   72.5900   -4.5245 C   0  0  0  0  0  0  0  0  0  0  0  0
   20.7900   70.6660   -5.6761 O   0  0  0  0  0  0  0  0  0  0  0  0
   21.3074   72.1833   -8.2101 O   0  0  0  0  0  0  0  0  0  0  0  0
   18.6217   72.5045   -7.8628 O   0  0  0  0  0  0  0  0  0  0  0  0
   20.8663   72.6675   -6.9427 C   0  0  1  0  0  0  0  0  0  0  0  0
   19.4163   72.2952   -6.7132 C   0  0  2  0  0  0  0  0  0  0  0  0
   21.5762   71.8636   -5.8604 C   0  0  1  0  0  0  0  0  0  0  0  0
   19.5238   70.8274   -6.3360 C   0  0  2  0  0  0  0  0  0  0  0  0
   20.8678   72.6819   -8.9173 H   0  0  0  0  0  0  0  0  0  0  0  0
   18.5841   73.4530   -8.0617 H   0  0  0  0  0  0  0  0  0  0  0  0
   16.9980   69.8791   -7.1721 O   0  0  0  0  0  0  0  0  0  0  0  0
   15.5859   69.2668   -2.8279 O   0  0  0  0  0  0  0  0  0  0  0  0
   18.4772   70.4130   -5.4447 N   0  0  0  0  0  0  0  0  0  0  0  0
   16.2970   69.5749   -5.0084 N   0  0  0  0  0  0  0  0  0  0  0  0
   17.2456   69.9536   -5.9668 C   0  0  0  0  0  0  0  0  0  0  0  0
   18.6776   70.4640   -4.0695 C   0  0  0  0  0  0  0  0  0  0  0  0
   17.7623   70.1003   -3.1688 C   0  0  0  0  0  0  0  0  0  0  0  0
   16.4483   69.6086   -3.6312 C   0  0  0  0  0  0  0  0  0  0  0  0
   15.4312   69.2519   -5.3488 H   0  0  0  0  0  0  0  0  0  0  0  0
   22.6792   71.0762   -1.1770 O   0  0  0  0  0  0  0  0  0  0  0  0
   21.7111   71.6798   -0.0317 P   0  0  2  0  0  0  0  0  0  0  0  0
   21.0682   70.3583    0.6450 O   0  0  0  0  0  0  0  0  0  0  0  0
   20.7022   72.6697   -0.5377 O   0  0  0  0  0  0  0  0  0  0  0  0
   22.7170   72.2627    1.0878 O   0  0  0  0  0  0  0  0  0  0  0  0
   21.3808   73.9760    2.0343 O   0  0  0  0  0  0  0  0  0  0  0  0
   24.5607   74.0897    4.6659 O   0  0  0  0  0  0  0  0  0  0  0  0
   22.0488   72.9932    5.5238 O   0  0  0  0  0  0  0  0  0  0  0  0
   25.0363   73.6495    1.8447 O   0  0  0  0  0  0  0  0  0  0  0  0
   23.6203   73.4697    3.7847 C   0  0  1  0  0  0  0  0  0  0  0  0
   22.2124   73.7381    4.3202 C   0  0  1  0  0  0  0  0  0  0  0  0
   23.7845   74.0588    2.3849 C   0  0  2  0  0  0  0  0  0  0  0  0
   21.1438   73.3372    3.2942 C   0  0  1  0  0  0  0  0  0  0  0  0
   22.6434   73.6373    1.4573 C   0  0  1  0  0  0  0  0  0  0  0  0
   24.4621   73.7198    5.5564 H   0  0  0  0  0  0  0  0  0  0  0  0
   22.7299   73.2555    6.1629 H   0  0  0  0  0  0  0  0  0  0  0  0
   25.7504   73.9224    2.4409 H   0  0  0  0  0  0  0  0  0  0  0  0
   19.0147   74.1765    2.6076 O   0  0  0  0  0  0  0  0  0  0  0  0
   19.7409   73.7411    3.7422 C   0  0  0  0  0  0  0  0  0  0  0  0
   18.1196   74.4364    2.8775 H   0  0  0  0  0  0  0  0  0  0  0  0
 25 28  1  0
 25 24  1  0
 25 26  1  1
 25 27  2  0
  1  4  1  0
  1 24  1  0
  1  2  1  1
  1  3  2  0
  6 11  1  0
  6 12  1  0
 29 36  1  0
 29 37  1  0
  9  7  1  6
  7 13  1  0
 10  8  1  6
  8 14  1  0
 37 28  1  1
  4  5  1  0
 33 30  1  1
 30 38  1  0
 34 31  1  1
 31 39  1  0
 35 32  1  6
 32 40  1  0
 41 42  1  0
 41 43  1  0
 15 19  2  0
 16 22  2  0
 12 17  1  1
 17 19  1  0
 17 20  1  0
 18 19  1  0
 18 22  1  0
 18 23  1  0
  9 10  1  0
  9 11  1  0
 10 12  1  0
 11  5  1  1
 33 34  1  0
 33 35  1  0
 34 36  1  0
 35 37  1  0
 36 42  1  1
 20 21  2  0
 21 22  1  0
M  CHG  2   2  -1  26  -1
M  END
>  <COMPND>  (126) 
    8629 

>  <AUTHOR>  (126) 
    GENERATED BY OPEN BABEL 3.1.1

>  <MASTER>  (126) 
        0    0    0    0    0    0    0    0   58    0   58    0

>  <minimizedAffinity>  (126) 
-6.77069

>  <CNNscore>  (126) 
0.6427847147

>  <CNNaffinity>  (126) 
4.3137273788

>  <CNN_VS>  (126) 
2.7727980614

>  <CNNaffinity_variance>  (126) 
0.0619626269

$$$$
127
     RDKit          3D

 43 45  0  0  0  0  0  0  0  0999 V2000
   21.2558   72.5629   -5.3469 P   0  0  2  0  0  0  0  0  0  0  0  0
   20.2856   71.8803   -4.2469 O   0  0  0  0  0  0  0  0  0  0  0  0
   20.9780   74.0109   -5.6254 O   0  0  0  0  0  0  0  0  0  0  0  0
   21.1569   71.5707   -6.6211 O   0  0  0  0  0  0  0  0  0  0  0  0
   20.2743   71.9110   -7.6761 C   0  0  0  0  0  0  0  0  0  0  0  0
   18.9771   70.0152   -6.9709 O   0  0  0  0  0  0  0  0  0  0  0  0
   18.1174   69.7751   -9.8335 O   0  0  0  0  0  0  0  0  0  0  0  0
   15.9719   70.9900   -8.6684 O   0  0  0  0  0  0  0  0  0  0  0  0
   18.3707   70.9487   -9.0630 C   0  0  1  0  0  0  0  0  0  0  0  0
   17.2421   71.1871   -8.0815 C   0  0  2  0  0  0  0  0  0  0  0  0
   19.5431   70.6568   -8.1348 C   0  0  1  0  0  0  0  0  0  0  0  0
   17.5487   70.1696   -6.9957 C   0  0  2  0  0  0  0  0  0  0  0  0
   17.3726   69.9374  -10.4343 H   0  0  0  0  0  0  0  0  0  0  0  0
   15.8239   71.6616   -9.3524 H   0  0  0  0  0  0  0  0  0  0  0  0
   16.6383   68.4329   -4.9628 O   0  0  0  0  0  0  0  0  0  0  0  0
   15.8643   71.9330   -2.0660 O   0  0  0  0  0  0  0  0  0  0  0  0
   17.1036   70.6000   -5.7004 N   0  0  0  0  0  0  0  0  0  0  0  0
   16.2538   70.1771   -3.5220 N   0  0  0  0  0  0  0  0  0  0  0  0
   16.6651   69.6471   -4.7516 C   0  0  0  0  0  0  0  0  0  0  0  0
   17.1051   71.9537   -5.3816 C   0  0  0  0  0  0  0  0  0  0  0  0
   16.7085   72.4429   -4.2049 C   0  0  0  0  0  0  0  0  0  0  0  0
   16.2356   71.5142   -3.1580 C   0  0  0  0  0  0  0  0  0  0  0  0
   15.9438   69.5320   -2.8456 H   0  0  0  0  0  0  0  0  0  0  0  0
   22.7336   72.2612   -4.7653 O   0  0  0  0  0  0  0  0  0  0  0  0
   23.6241   73.0479   -3.6694 P   0  0  2  0  0  0  0  0  0  0  0  0
   22.5935   74.1415   -3.0697 O   0  0  0  0  0  0  0  0  0  0  0  0
   24.8968   73.6294   -4.2134 O   0  0  0  0  0  0  0  0  0  0  0  0
   23.8322   71.9849   -2.4729 O   0  0  0  0  0  0  0  0  0  0  0  0
   24.0960   69.6300   -2.5107 O   0  0  0  0  0  0  0  0  0  0  0  0
   21.7835   69.9802    0.8923 O   0  0  0  0  0  0  0  0  0  0  0  0
   24.5672   69.3158    1.1318 O   0  0  0  0  0  0  0  0  0  0  0  0
   21.2610   71.6824   -1.3901 O   0  0  0  0  0  0  0  0  0  0  0  0
   22.7811   70.3787   -0.0518 C   0  0  1  0  0  0  0  0  0  0  0  0
   23.8555   69.2906   -0.1023 C   0  0  1  0  0  0  0  0  0  0  0  0
   22.1295   70.5550   -1.4221 C   0  0  2  0  0  0  0  0  0  0  0  0
   24.8161   69.5147   -1.2779 C   0  0  1  0  0  0  0  0  0  0  0  0
   23.1742   70.7218   -2.5270 C   0  0  1  0  0  0  0  0  0  0  0  0
   22.1906   69.8671    1.7646 H   0  0  0  0  0  0  0  0  0  0  0  0
   23.9491   69.1736    1.8659 H   0  0  0  0  0  0  0  0  0  0  0  0
   20.6042   71.5645   -0.6868 H   0  0  0  0  0  0  0  0  0  0  0  0
   26.6208   68.6215   -2.5641 O   0  0  0  0  0  0  0  0  0  0  0  0
   25.7990   68.3575   -1.4419 C   0  0  0  0  0  0  0  0  0  0  0  0
   27.2516   67.8934   -2.6806 H   0  0  0  0  0  0  0  0  0  0  0  0
 25 28  1  0
 25 24  1  0
 25 26  1  1
 25 27  2  0
  1  4  1  0
  1 24  1  0
  1  2  1  1
  1  3  2  0
  6 11  1  0
  6 12  1  0
 29 36  1  0
 29 37  1  0
  9  7  1  6
  7 13  1  0
 10  8  1  6
  8 14  1  0
 37 28  1  1
  4  5  1  0
 33 30  1  1
 30 38  1  0
 34 31  1  1
 31 39  1  0
 35 32  1  1
 32 40  1  0
 41 42  1  0
 41 43  1  0
 15 19  2  0
 16 22  2  0
 12 17  1  1
 17 19  1  0
 17 20  1  0
 18 19  1  0
 18 22  1  0
 18 23  1  0
  9 10  1  0
  9 11  1  0
 10 12  1  0
 11  5  1  1
 33 34  1  0
 33 35  1  0
 34 36  1  0
 35 37  1  0
 36 42  1  6
 20 21  2  0
 21 22  1  0
M  CHG  2   2  -1  26  -1
M  END
>  <COMPND>  (127) 
    8629 

>  <AUTHOR>  (127) 
    GENERATED BY OPEN BABEL 3.1.1

>  <MASTER>  (127) 
        0    0    0    0    0    0    0    0   58    0   58    0

>  <minimizedAffinity>  (127) 
-8.54833

>  <CNNscore>  (127) 
0.6318011284

>  <CNNaffinity>  (127) 
4.3765196800

>  <CNN_VS>  (127) 
2.7650899887

>  <CNNaffinity_variance>  (127) 
0.5267271996

$$$$
128
     RDKit          3D

 43 45  0  0  0  0  0  0  0  0999 V2000
   21.1637   74.8212   -3.0600 P   0  0  2  0  0  0  0  0  0  0  0  0
   21.3636   74.7663   -1.4555 O   0  0  0  0  0  0  0  0  0  0  0  0
   20.6843   76.1389   -3.5942 O   0  0  0  0  0  0  0  0  0  0  0  0
   20.2170   73.5481   -3.3773 O   0  0  0  0  0  0  0  0  0  0  0  0
   19.2992   73.6394   -4.4530 C   0  0  0  0  0  0  0  0  0  0  0  0
   17.4147   72.4601   -5.3650 O   0  0  0  0  0  0  0  0  0  0  0  0
   17.2366   71.0732   -2.7125 O   0  0  0  0  0  0  0  0  0  0  0  0
   18.4690   69.2096   -4.2761 O   0  0  0  0  0  0  0  0  0  0  0  0
   18.3929   71.4902   -3.4367 C   0  0  1  0  0  0  0  0  0  0  0  0
   18.6344   70.5712   -4.6160 C   0  0  2  0  0  0  0  0  0  0  0  0
   18.0655   72.8100   -4.1239 C   0  0  1  0  0  0  0  0  0  0  0  0
   17.5940   71.0558   -5.6114 C   0  0  2  0  0  0  0  0  0  0  0  0
   17.4216   70.2322   -2.2647 H   0  0  0  0  0  0  0  0  0  0  0  0
   19.1542   68.9492   -3.6409 H   0  0  0  0  0  0  0  0  0  0  0  0
   15.9072   70.1477   -7.6870 O   0  0  0  0  0  0  0  0  0  0  0  0
   19.3013   70.3822  -10.7960 O   0  0  0  0  0  0  0  0  0  0  0  0
   18.0106   70.8708   -6.9729 N   0  0  0  0  0  0  0  0  0  0  0  0
   17.5986   70.2654   -9.2334 N   0  0  0  0  0  0  0  0  0  0  0  0
   17.0854   70.4095   -7.9380 C   0  0  0  0  0  0  0  0  0  0  0  0
   19.3236   71.1462   -7.3393 C   0  0  0  0  0  0  0  0  0  0  0  0
   19.7975   71.0023   -8.5786 C   0  0  0  0  0  0  0  0  0  0  0  0
   18.8957   70.5248   -9.6467 C   0  0  0  0  0  0  0  0  0  0  0  0
   16.9722   69.9449   -9.9224 H   0  0  0  0  0  0  0  0  0  0  0  0
   22.6047   74.3515   -3.6221 O   0  0  0  0  0  0  0  0  0  0  0  0
   23.1975   72.8783   -3.9240 P   0  0  2  0  0  0  0  0  0  0  0  0
   24.7739   73.1543   -4.1618 O   0  0  0  0  0  0  0  0  0  0  0  0
   22.5171   72.1609   -5.0538 O   0  0  0  0  0  0  0  0  0  0  0  0
   23.1273   72.1112   -2.5057 O   0  0  0  0  0  0  0  0  0  0  0  0
   23.3867   69.7557   -2.5382 O   0  0  0  0  0  0  0  0  0  0  0  0
   21.7029   70.1825    1.2080 O   0  0  0  0  0  0  0  0  0  0  0  0
   24.4875   69.5203    0.9720 O   0  0  0  0  0  0  0  0  0  0  0  0
   20.7854   71.8353   -0.9843 O   0  0  0  0  0  0  0  0  0  0  0  0
   22.5193   70.5593    0.0958 C   0  0  1  0  0  0  0  0  0  0  0  0
   23.5712   69.4690   -0.1180 C   0  0  1  0  0  0  0  0  0  0  0  0
   21.6381   70.7064   -1.1432 C   0  0  2  0  0  0  0  0  0  0  0  0
   24.3113   69.6664   -1.4478 C   0  0  1  0  0  0  0  0  0  0  0  0
   22.4734   70.8479   -2.4169 C   0  0  1  0  0  0  0  0  0  0  0  0
   22.2564   70.0879    1.9980 H   0  0  0  0  0  0  0  0  0  0  0  0
   24.0074   69.3948    1.8057 H   0  0  0  0  0  0  0  0  0  0  0  0
   20.2618   71.7335   -0.1748 H   0  0  0  0  0  0  0  0  0  0  0  0
   26.5165   68.7861   -1.1813 O   0  0  0  0  0  0  0  0  0  0  0  0
   25.2535   68.5048   -1.7559 C   0  0  0  0  0  0  0  0  0  0  0  0
   27.1265   68.0550   -1.3691 H   0  0  0  0  0  0  0  0  0  0  0  0
 25 28  1  0
 25 24  1  0
 25 26  1  6
 25 27  2  0
  1  4  1  0
  1 24  1  0
  1  2  1  1
  1  3  2  0
  6 11  1  0
  6 12  1  0
 29 36  1  0
 29 37  1  0
  9  7  1  6
  7 13  1  0
 10  8  1  1
  8 14  1  0
 37 28  1  1
  4  5  1  0
 33 30  1  1
 30 38  1  0
 34 31  1  1
 31 39  1  0
 35 32  1  1
 32 40  1  0
 41 42  1  0
 41 43  1  0
 15 19  2  0
 16 22  2  0
 12 17  1  6
 17 19  1  0
 17 20  1  0
 18 19  1  0
 18 22  1  0
 18 23  1  0
  9 10  1  0
  9 11  1  0
 10 12  1  0
 11  5  1  6
 33 34  1  0
 33 35  1  0
 34 36  1  0
 35 37  1  0
 36 42  1  6
 20 21  2  0
 21 22  1  0
M  CHG  2   2  -1  26  -1
M  END
>  <COMPND>  (128) 
    8629 

>  <AUTHOR>  (128) 
    GENERATED BY OPEN BABEL 3.1.1

>  <MASTER>  (128) 
        0    0    0    0    0    0    0    0   58    0   58    0

>  <minimizedAffinity>  (128) 
-7.96460

>  <CNNscore>  (128) 
0.6138853431

>  <CNNaffinity>  (128) 
4.5195794106

>  <CNN_VS>  (128) 
2.7745034695

>  <CNNaffinity_variance>  (128) 
0.0581605248

$$$$
129
     RDKit          3D

 43 45  0  0  0  0  0  0  0  0999 V2000
   21.5562   74.6774   -3.3989 P   0  0  2  0  0  0  0  0  0  0  0  0
   20.2411   75.5077   -2.9534 O   0  0  0  0  0  0  0  0  0  0  0  0
   22.7169   75.5187   -3.8421 O   0  0  0  0  0  0  0  0  0  0  0  0
   20.9975   73.6206   -4.4893 O   0  0  0  0  0  0  0  0  0  0  0  0
   20.6167   72.3296   -4.0462 C   0  0  0  0  0  0  0  0  0  0  0  0
   18.4606   72.5150   -5.0906 O   0  0  0  0  0  0  0  0  0  0  0  0
   17.3630   71.2013   -2.6288 O   0  0  0  0  0  0  0  0  0  0  0  0
   17.4473   69.1418   -4.4143 O   0  0  0  0  0  0  0  0  0  0  0  0
   18.6004   70.9692   -3.2998 C   0  0  1  0  0  0  0  0  0  0  0  0
   18.3662   70.2017   -4.5842 C   0  0  2  0  0  0  0  0  0  0  0  0
   19.1115   72.3078   -3.8179 C   0  0  1  0  0  0  0  0  0  0  0  0
   17.8422   71.2872   -5.5089 C   0  0  2  0  0  0  0  0  0  0  0  0
   17.0172   70.3607   -2.2888 H   0  0  0  0  0  0  0  0  0  0  0  0
   17.8266   68.4772   -3.8182 H   0  0  0  0  0  0  0  0  0  0  0  0
   15.9488   70.7729   -7.5408 O   0  0  0  0  0  0  0  0  0  0  0  0
   19.2317   70.3617  -10.7493 O   0  0  0  0  0  0  0  0  0  0  0  0
   18.1744   71.0427   -6.8841 N   0  0  0  0  0  0  0  0  0  0  0  0
   17.5850   70.5687   -9.1368 N   0  0  0  0  0  0  0  0  0  0  0  0
   17.1481   70.7939   -7.8251 C   0  0  0  0  0  0  0  0  0  0  0  0
   19.5051   71.0514   -7.2877 C   0  0  0  0  0  0  0  0  0  0  0  0
   19.9052   70.8336   -8.5422 C   0  0  0  0  0  0  0  0  0  0  0  0
   18.8957   70.5658   -9.5869 C   0  0  0  0  0  0  0  0  0  0  0  0
   16.8876   70.3928   -9.8095 H   0  0  0  0  0  0  0  0  0  0  0  0
   21.8527   73.7474   -2.1104 O   0  0  0  0  0  0  0  0  0  0  0  0
   21.7391   74.0583   -0.5282 P   0  0  2  0  0  0  0  0  0  0  0  0
   20.2534   73.5385   -0.1537 O   0  0  0  0  0  0  0  0  0  0  0  0
   22.0050   75.4897   -0.1616 O   0  0  0  0  0  0  0  0  0  0  0  0
   22.7314   72.9937    0.1696 O   0  0  0  0  0  0  0  0  0  0  0  0
   22.4468   70.7785   -0.6232 O   0  0  0  0  0  0  0  0  0  0  0  0
   24.8154   70.0018    2.6688 O   0  0  0  0  0  0  0  0  0  0  0  0
   25.9308   69.7683    0.0326 O   0  0  0  0  0  0  0  0  0  0  0  0
   22.7711   72.0463    2.8109 O   0  0  0  0  0  0  0  0  0  0  0  0
   24.3574   70.7529    1.5412 C   0  0  1  0  0  0  0  0  0  0  0  0
   24.5346   69.8931    0.2882 C   0  0  1  0  0  0  0  0  0  0  0  0
   22.8863   71.1109    1.7440 C   0  0  2  0  0  0  0  0  0  0  0  0
   23.8243   70.5202   -0.9190 C   0  0  1  0  0  0  0  0  0  0  0  0
   22.2628   71.6814    0.4689 C   0  0  1  0  0  0  0  0  0  0  0  0
   25.7490   69.7718    2.5465 H   0  0  0  0  0  0  0  0  0  0  0  0
   26.3675   69.3716    0.8027 H   0  0  0  0  0  0  0  0  0  0  0  0
   23.1691   71.6733    3.6123 H   0  0  0  0  0  0  0  0  0  0  0  0
   25.0915   69.7800   -2.8045 O   0  0  0  0  0  0  0  0  0  0  0  0
   23.8541   69.6033   -2.1399 C   0  0  0  0  0  0  0  0  0  0  0  0
   25.1248   69.2024   -3.5836 H   0  0  0  0  0  0  0  0  0  0  0  0
 25 28  1  0
 25 24  1  0
 25 26  1  1
 25 27  2  0
  1  4  1  0
  1 24  1  0
  1  2  1  1
  1  3  2  0
  6 11  1  0
  6 12  1  0
 29 36  1  0
 29 37  1  0
  9  7  1  6
  7 13  1  0
 10  8  1  1
  8 14  1  0
 37 28  1  6
  4  5  1  0
 33 30  1  1
 30 38  1  0
 34 31  1  6
 31 39  1  0
 35 32  1  1
 32 40  1  0
 41 42  1  0
 41 43  1  0
 15 19  2  0
 16 22  2  0
 12 17  1  6
 17 19  1  0
 17 20  1  0
 18 19  1  0
 18 22  1  0
 18 23  1  0
  9 10  1  0
  9 11  1  0
 10 12  1  0
 11  5  1  6
 33 34  1  0
 33 35  1  0
 34 36  1  0
 35 37  1  0
 36 42  1  6
 20 21  2  0
 21 22  1  0
M  CHG  2   2  -1  26  -1
M  END
>  <COMPND>  (129) 
    8629 

>  <AUTHOR>  (129) 
    GENERATED BY OPEN BABEL 3.1.1

>  <MASTER>  (129) 
        0    0    0    0    0    0    0    0   58    0   58    0

>  <minimizedAffinity>  (129) 
-7.00891

>  <CNNscore>  (129) 
0.5551834106

>  <CNNaffinity>  (129) 
4.2477264404

>  <CNN_VS>  (129) 
2.3582673073

>  <CNNaffinity_variance>  (129) 
0.1541082710

$$$$
130
     RDKit          3D

 43 45  0  0  0  0  0  0  0  0999 V2000
   22.9846   71.4581   -3.0250 P   0  0  2  0  0  0  0  0  0  0  0  0
   22.8366   69.8775   -2.7130 O   0  0  0  0  0  0  0  0  0  0  0  0
   24.3390   71.8842   -3.5103 O   0  0  0  0  0  0  0  0  0  0  0  0
   22.4679   72.1719   -1.6680 O   0  0  0  0  0  0  0  0  0  0  0  0
   22.1397   71.3555   -0.5573 C   0  0  0  0  0  0  0  0  0  0  0  0
   24.1007   72.4874    0.2472 O   0  0  0  0  0  0  0  0  0  0  0  0
   24.0769   70.5230    2.5124 O   0  0  0  0  0  0  0  0  0  0  0  0
   22.9887   72.7514    3.6467 O   0  0  0  0  0  0  0  0  0  0  0  0
   22.9790   71.1311    1.8340 C   0  0  1  0  0  0  0  0  0  0  0  0
   22.8401   72.5801    2.2519 C   0  0  2  0  0  0  0  0  0  0  0  0
   23.3498   71.2589    0.3617 C   0  0  1  0  0  0  0  0  0  0  0  0
   23.9529   73.2447    1.4594 C   0  0  2  0  0  0  0  0  0  0  0  0
   23.8634   70.4305    3.4546 H   0  0  0  0  0  0  0  0  0  0  0  0
   22.2570   72.3110    4.1065 H   0  0  0  0  0  0  0  0  0  0  0  0
   25.8677   75.3148    1.2970 O   0  0  0  0  0  0  0  0  0  0  0  0
   22.6688   78.4337    0.1654 O   0  0  0  0  0  0  0  0  0  0  0  0
   23.6482   74.6070    1.1240 N   0  0  0  0  0  0  0  0  0  0  0  0
   24.2734   76.8660    0.7335 N   0  0  0  0  0  0  0  0  0  0  0  0
   24.6830   75.5697    1.0706 C   0  0  0  0  0  0  0  0  0  0  0  0
   22.3355   74.9767    0.8520 C   0  0  0  0  0  0  0  0  0  0  0  0
   21.9611   76.2175    0.5334 C   0  0  0  0  0  0  0  0  0  0  0  0
   22.9812   77.2831    0.4558 C   0  0  0  0  0  0  0  0  0  0  0  0
   24.9772   77.5535    0.6906 H   0  0  0  0  0  0  0  0  0  0  0  0
   21.7788   71.7378   -4.0645 O   0  0  0  0  0  0  0  0  0  0  0  0
   21.6440   72.8041   -5.2719 P   0  0  2  0  0  0  0  0  0  0  0  0
   22.8661   72.4077   -6.2552 O   0  0  0  0  0  0  0  0  0  0  0  0
   21.6459   74.2386   -4.8290 O   0  0  0  0  0  0  0  0  0  0  0  0
   20.3158   72.3522   -6.0697 O   0  0  0  0  0  0  0  0  0  0  0  0
   19.1356   70.2978   -6.0102 O   0  0  0  0  0  0  0  0  0  0  0  0
   18.6477   71.2237  -10.0047 O   0  0  0  0  0  0  0  0  0  0  0  0
   16.4127   71.4447   -8.2146 O   0  0  0  0  0  0  0  0  0  0  0  0
   21.1611   71.7942   -8.6868 O   0  0  0  0  0  0  0  0  0  0  0  0
   18.7713   71.5044   -8.6078 C   0  0  1  0  0  0  0  0  0  0  0  0
   17.6331   70.7933   -7.8732 C   0  0  1  0  0  0  0  0  0  0  0  0
   20.1266   71.0005   -8.1154 C   0  0  2  0  0  0  0  0  0  0  0  0
   17.8490   70.8251   -6.3541 C   0  0  1  0  0  0  0  0  0  0  0  0
   20.2189   71.0283   -6.5887 C   0  0  1  0  0  0  0  0  0  0  0  0
   17.7894   71.5416  -10.3237 H   0  0  0  0  0  0  0  0  0  0  0  0
   16.2887   71.4180   -9.1764 H   0  0  0  0  0  0  0  0  0  0  0  0
   21.0919   71.7681   -9.6534 H   0  0  0  0  0  0  0  0  0  0  0  0
   16.0345   69.2849   -6.5643 O   0  0  0  0  0  0  0  0  0  0  0  0
   16.8105   69.9875   -5.6112 C   0  0  0  0  0  0  0  0  0  0  0  0
   15.3695   68.7471   -6.1058 H   0  0  0  0  0  0  0  0  0  0  0  0
 25 28  1  0
 25 24  1  0
 25 26  1  6
 25 27  2  0
  1  4  1  0
  1 24  1  0
  1  2  1  1
  1  3  2  0
  6 11  1  0
  6 12  1  0
 29 36  1  0
 29 37  1  0
  9  7  1  1
  7 13  1  0
 10  8  1  1
  8 14  1  0
 37 28  1  1
  4  5  1  0
 33 30  1  6
 30 38  1  0
 34 31  1  1
 31 39  1  0
 35 32  1  6
 32 40  1  0
 41 42  1  0
 41 43  1  0
 15 19  2  0
 16 22  2  0
 12 17  1  6
 17 19  1  0
 17 20  1  0
 18 19  1  0
 18 22  1  0
 18 23  1  0
  9 10  1  0
  9 11  1  0
 10 12  1  0
 11  5  1  6
 33 34  1  0
 33 35  1  0
 34 36  1  0
 35 37  1  0
 36 42  1  1
 20 21  2  0
 21 22  1  0
M  CHG  2   2  -1  26  -1
M  END
>  <COMPND>  (130) 
    8629 

>  <AUTHOR>  (130) 
    GENERATED BY OPEN BABEL 3.1.1

>  <MASTER>  (130) 
        0    0    0    0    0    0    0    0   58    0   58    0

>  <minimizedAffinity>  (130) 
-6.55334

>  <CNNscore>  (130) 
0.5525446534

>  <CNNaffinity>  (130) 
4.1954517365

>  <CNN_VS>  (130) 
2.3181743622

>  <CNNaffinity_variance>  (130) 
0.0139136221

$$$$
131
     RDKit          3D

 43 45  0  0  0  0  0  0  0  0999 V2000
   22.7395   72.6326   -3.6533 P   0  0  2  0  0  0  0  0  0  0  0  0
   24.0473   72.6093   -4.6054 O   0  0  0  0  0  0  0  0  0  0  0  0
   22.2283   74.0014   -3.3121 O   0  0  0  0  0  0  0  0  0  0  0  0
   23.1582   71.7051   -2.3954 O   0  0  0  0  0  0  0  0  0  0  0  0
   23.3170   72.3173   -1.1273 C   0  0  0  0  0  0  0  0  0  0  0  0
   22.6951   70.0739   -0.5321 O   0  0  0  0  0  0  0  0  0  0  0  0
   22.4757   71.0814    2.2835 O   0  0  0  0  0  0  0  0  0  0  0  0
   24.8989   69.8306    2.2869 O   0  0  0  0  0  0  0  0  0  0  0  0
   23.4021   71.4499    1.2630 C   0  0  1  0  0  0  0  0  0  0  0  0
   24.4266   70.3530    1.0618 C   0  0  2  0  0  0  0  0  0  0  0  0
   22.6614   71.4414   -0.0684 C   0  0  1  0  0  0  0  0  0  0  0  0
   23.6416   69.3327    0.2551 C   0  0  2  0  0  0  0  0  0  0  0  0
   22.9258   71.0802    3.1434 H   0  0  0  0  0  0  0  0  0  0  0  0
   25.3916   70.5173    2.7629 H   0  0  0  0  0  0  0  0  0  0  0  0
   24.1017   66.5573    0.5069 O   0  0  0  0  0  0  0  0  0  0  0  0
   26.8782   66.4983   -3.1713 O   0  0  0  0  0  0  0  0  0  0  0  0
   24.4800   68.5665   -0.6232 N   0  0  0  0  0  0  0  0  0  0  0  0
   25.4836   66.5301   -1.3249 N   0  0  0  0  0  0  0  0  0  0  0  0
   24.6451   67.1782   -0.4090 C   0  0  0  0  0  0  0  0  0  0  0  0
   25.1277   69.1917   -1.6832 C   0  0  0  0  0  0  0  0  0  0  0  0
   25.9250   68.5596   -2.5469 C   0  0  0  0  0  0  0  0  0  0  0  0
   26.1506   67.1079   -2.3935 C   0  0  0  0  0  0  0  0  0  0  0  0
   25.6139   65.5627   -1.1951 H   0  0  0  0  0  0  0  0  0  0  0  0
   21.6888   71.7029   -4.4563 O   0  0  0  0  0  0  0  0  0  0  0  0
   20.4638   70.7881   -3.9313 P   0  0  2  0  0  0  0  0  0  0  0  0
   19.8231   71.6747   -2.7392 O   0  0  0  0  0  0  0  0  0  0  0  0
   20.8633   69.3994   -3.5243 O   0  0  0  0  0  0  0  0  0  0  0  0
   19.3709   70.8492   -5.1174 O   0  0  0  0  0  0  0  0  0  0  0  0
   19.6131   71.7603   -7.2917 O   0  0  0  0  0  0  0  0  0  0  0  0
   15.6286   72.6340   -6.6503 O   0  0  0  0  0  0  0  0  0  0  0  0
   16.3447   70.5532   -8.4956 O   0  0  0  0  0  0  0  0  0  0  0  0
   17.5254   72.8635   -4.4757 O   0  0  0  0  0  0  0  0  0  0  0  0
   16.8248   71.8568   -6.5486 C   0  0  1  0  0  0  0  0  0  0  0  0
   17.2786   71.4879   -7.9624 C   0  0  1  0  0  0  0  0  0  0  0  0
   17.8967   72.6810   -5.8378 C   0  0  2  0  0  0  0  0  0  0  0  0
   18.6902   70.8859   -7.9517 C   0  0  1  0  0  0  0  0  0  0  0  0
   19.2719   72.0172   -5.9281 C   0  0  1  0  0  0  0  0  0  0  0  0
   14.9438   72.1163   -7.1003 H   0  0  0  0  0  0  0  0  0  0  0  0
   15.4574   70.9454   -8.4963 H   0  0  0  0  0  0  0  0  0  0  0  0
   16.6533   73.2847   -4.4320 H   0  0  0  0  0  0  0  0  0  0  0  0
   18.4999   71.4804  -10.2580 O   0  0  0  0  0  0  0  0  0  0  0  0
   19.2249   70.6566   -9.3636 C   0  0  0  0  0  0  0  0  0  0  0  0
   18.8296   71.3452  -11.1606 H   0  0  0  0  0  0  0  0  0  0  0  0
 25 28  1  0
 25 24  1  0
 25 26  1  1
 25 27  2  0
  1  4  1  0
  1 24  1  0
  1  2  1  6
  1  3  2  0
  6 11  1  0
  6 12  1  0
 29 36  1  0
 29 37  1  0
  9  7  1  1
  7 13  1  0
 10  8  1  1
  8 14  1  0
 37 28  1  1
  4  5  1  0
 33 30  1  6
 30 38  1  0
 34 31  1  1
 31 39  1  0
 35 32  1  1
 32 40  1  0
 41 42  1  0
 41 43  1  0
 15 19  2  0
 16 22  2  0
 12 17  1  6
 17 19  1  0
 17 20  1  0
 18 19  1  0
 18 22  1  0
 18 23  1  0
  9 10  1  0
  9 11  1  0
 10 12  1  0
 11  5  1  6
 33 34  1  0
 33 35  1  0
 34 36  1  0
 35 37  1  0
 36 42  1  6
 20 21  2  0
 21 22  1  0
M  CHG  2   2  -1  26  -1
M  END
>  <COMPND>  (131) 
    8629 

>  <AUTHOR>  (131) 
    GENERATED BY OPEN BABEL 3.1.1

>  <MASTER>  (131) 
        0    0    0    0    0    0    0    0   58    0   58    0

>  <minimizedAffinity>  (131) 
-8.39182

>  <CNNscore>  (131) 
0.5079174638

>  <CNNaffinity>  (131) 
4.4555773735

>  <CNN_VS>  (131) 
2.2630655766

>  <CNNaffinity_variance>  (131) 
0.1715402901

$$$$
132
     RDKit          3D

 43 45  0  0  0  0  0  0  0  0999 V2000
   20.9438   72.1432   -0.9820 P   0  0  2  0  0  0  0  0  0  0  0  0
   20.0780   70.8761   -1.4940 O   0  0  0  0  0  0  0  0  0  0  0  0
   20.5328   72.6945    0.3516 O   0  0  0  0  0  0  0  0  0  0  0  0
   20.8820   73.1819   -2.2210 O   0  0  0  0  0  0  0  0  0  0  0  0
   20.2847   72.7543   -3.4327 C   0  0  0  0  0  0  0  0  0  0  0  0
   20.7214   71.0540   -5.0735 O   0  0  0  0  0  0  0  0  0  0  0  0
   23.2378   72.5620   -5.6934 O   0  0  0  0  0  0  0  0  0  0  0  0
   21.5754   73.3225   -7.7169 O   0  0  0  0  0  0  0  0  0  0  0  0
   21.9526   73.0626   -5.3291 C   0  0  1  0  0  0  0  0  0  0  0  0
   20.9896   72.9343   -6.4909 C   0  0  2  0  0  0  0  0  0  0  0  0
   21.3485   72.1064   -4.3083 C   0  0  1  0  0  0  0  0  0  0  0  0
   20.6428   71.4557   -6.4509 C   0  0  2  0  0  0  0  0  0  0  0  0
   23.6436   73.1565   -6.3445 H   0  0  0  0  0  0  0  0  0  0  0  0
   21.7776   74.2708   -7.6929 H   0  0  0  0  0  0  0  0  0  0  0  0
   19.9880   71.1036   -9.1758 O   0  0  0  0  0  0  0  0  0  0  0  0
   15.5305   70.4434   -8.2084 O   0  0  0  0  0  0  0  0  0  0  0  0
   19.3190   71.1902   -6.9393 N   0  0  0  0  0  0  0  0  0  0  0  0
   17.7691   70.7750   -8.6919 N   0  0  0  0  0  0  0  0  0  0  0  0
   19.0971   71.0306   -8.3270 C   0  0  0  0  0  0  0  0  0  0  0  0
   18.2579   71.0903   -6.0460 C   0  0  0  0  0  0  0  0  0  0  0  0
   16.9971   70.8474   -6.4102 C   0  0  0  0  0  0  0  0  0  0  0  0
   16.6799   70.6679   -7.8417 C   0  0  0  0  0  0  0  0  0  0  0  0
   17.5905   70.6606   -9.6536 H   0  0  0  0  0  0  0  0  0  0  0  0
   22.4629   71.5941   -1.0437 O   0  0  0  0  0  0  0  0  0  0  0  0
   23.2571   70.5590   -0.0893 P   0  0  2  0  0  0  0  0  0  0  0  0
   22.0701   69.8143    0.7193 O   0  0  0  0  0  0  0  0  0  0  0  0
   24.2945   71.2009    0.7858 O   0  0  0  0  0  0  0  0  0  0  0  0
   23.8326   69.4354   -1.0949 O   0  0  0  0  0  0  0  0  0  0  0  0
   24.8155   67.6473    0.1106 O   0  0  0  0  0  0  0  0  0  0  0  0
   25.9749   66.5850   -3.7075 O   0  0  0  0  0  0  0  0  0  0  0  0
   23.9261   65.0757   -2.3762 O   0  0  0  0  0  0  0  0  0  0  0  0
   25.9576   69.3724   -2.9267 O   0  0  0  0  0  0  0  0  0  0  0  0
   25.1012   67.1311   -2.7156 C   0  0  1  0  0  0  0  0  0  0  0  0
   24.7593   66.0244   -1.7160 C   0  0  1  0  0  0  0  0  0  0  0  0
   25.8057   68.2907   -2.0139 C   0  0  2  0  0  0  0  0  0  0  0  0
   24.0470   66.5936   -0.4817 C   0  0  1  0  0  0  0  0  0  0  0  0
   25.0391   68.7487   -0.7719 C   0  0  1  0  0  0  0  0  0  0  0  0
   25.5334   65.8485   -4.1572 H   0  0  0  0  0  0  0  0  0  0  0  0
   24.3874   64.7243   -3.1540 H   0  0  0  0  0  0  0  0  0  0  0  0
   26.4446   69.0696   -3.7084 H   0  0  0  0  0  0  0  0  0  0  0  0
   24.6158   65.8826    1.7274 O   0  0  0  0  0  0  0  0  0  0  0  0
   23.8376   65.5335    0.5974 C   0  0  0  0  0  0  0  0  0  0  0  0
   24.4922   65.2168    2.4225 H   0  0  0  0  0  0  0  0  0  0  0  0
 25 28  1  0
 25 24  1  0
 25 26  1  1
 25 27  2  0
  1  4  1  0
  1 24  1  0
  1  2  1  6
  1  3  2  0
  6 11  1  0
  6 12  1  0
 29 36  1  0
 29 37  1  0
  9  7  1  6
  7 13  1  0
 10  8  1  6
  8 14  1  0
 37 28  1  6
  4  5  1  0
 33 30  1  6
 30 38  1  0
 34 31  1  6
 31 39  1  0
 35 32  1  6
 32 40  1  0
 41 42  1  0
 41 43  1  0
 15 19  2  0
 16 22  2  0
 12 17  1  1
 17 19  1  0
 17 20  1  0
 18 19  1  0
 18 22  1  0
 18 23  1  0
  9 10  1  0
  9 11  1  0
 10 12  1  0
 11  5  1  6
 33 34  1  0
 33 35  1  0
 34 36  1  0
 35 37  1  0
 36 42  1  1
 20 21  2  0
 21 22  1  0
M  CHG  2   2  -1  26  -1
M  END
>  <COMPND>  (132) 
    8629 

>  <AUTHOR>  (132) 
    GENERATED BY OPEN BABEL 3.1.1

>  <MASTER>  (132) 
        0    0    0    0    0    0    0    0   58    0   58    0

>  <minimizedAffinity>  (132) 
-8.94660

>  <CNNscore>  (132) 
0.5014777184

>  <CNNaffinity>  (132) 
4.6790952682

>  <CNN_VS>  (132) 
2.3464620113

>  <CNNaffinity_variance>  (132) 
0.1629634798

$$$$
133
     RDKit          3D

 43 45  0  0  0  0  0  0  0  0999 V2000
   22.1865   73.3614   -4.7348 P   0  0  2  0  0  0  0  0  0  0  0  0
   21.4704   74.8003   -4.5499 O   0  0  0  0  0  0  0  0  0  0  0  0
   23.4738   73.3885   -5.5052 O   0  0  0  0  0  0  0  0  0  0  0  0
   21.0200   72.4229   -5.3484 O   0  0  0  0  0  0  0  0  0  0  0  0
   20.9335   72.2852   -6.7560 C   0  0  0  0  0  0  0  0  0  0  0  0
   19.6952   70.3477   -6.0588 O   0  0  0  0  0  0  0  0  0  0  0  0
   19.9899   69.3753   -8.8799 O   0  0  0  0  0  0  0  0  0  0  0  0
   17.4410   70.3442   -8.8483 O   0  0  0  0  0  0  0  0  0  0  0  0
   19.8030   70.7054   -8.3989 C   0  0  1  0  0  0  0  0  0  0  0  0
   18.3720   70.9040   -7.9446 C   0  0  2  0  0  0  0  0  0  0  0  0
   20.5738   70.8445   -7.0920 C   0  0  1  0  0  0  0  0  0  0  0  0
   18.3699   70.2053   -6.5955 C   0  0  2  0  0  0  0  0  0  0  0  0
   19.5071   69.2625   -9.7142 H   0  0  0  0  0  0  0  0  0  0  0  0
   17.4804   70.8227   -9.6911 H   0  0  0  0  0  0  0  0  0  0  0  0
   16.8052   68.7311   -4.7634 O   0  0  0  0  0  0  0  0  0  0  0  0
   14.7984   72.5441   -3.1280 O   0  0  0  0  0  0  0  0  0  0  0  0
   17.4305   70.7874   -5.6788 N   0  0  0  0  0  0  0  0  0  0  0  0
   15.8074   70.6309   -3.9505 N   0  0  0  0  0  0  0  0  0  0  0  0
   16.6940   69.9583   -4.8010 C   0  0  0  0  0  0  0  0  0  0  0  0
   17.2475   72.1657   -5.6562 C   0  0  0  0  0  0  0  0  0  0  0  0
   16.3970   72.7915   -4.8399 C   0  0  0  0  0  0  0  0  0  0  0  0
   15.5891   71.9982   -3.8913 C   0  0  0  0  0  0  0  0  0  0  0  0
   15.2832   70.0737   -3.3304 H   0  0  0  0  0  0  0  0  0  0  0  0
   22.3227   72.8253   -3.2159 O   0  0  0  0  0  0  0  0  0  0  0  0
   22.7796   71.3879   -2.6344 P   0  0  2  0  0  0  0  0  0  0  0  0
   24.2340   71.1614   -3.3058 O   0  0  0  0  0  0  0  0  0  0  0  0
   21.7994   70.2802   -2.8917 O   0  0  0  0  0  0  0  0  0  0  0  0
   23.0888   71.6583   -1.0735 O   0  0  0  0  0  0  0  0  0  0  0  0
   24.1939   70.4494    0.6394 O   0  0  0  0  0  0  0  0  0  0  0  0
   20.8859   71.7214    2.7584 O   0  0  0  0  0  0  0  0  0  0  0  0
   23.4477   72.9097    3.2811 O   0  0  0  0  0  0  0  0  0  0  0  0
   20.6049   70.9071   -0.0052 O   0  0  0  0  0  0  0  0  0  0  0  0
   21.9288   71.8250    1.7853 C   0  0  1  0  0  0  0  0  0  0  0  0
   23.2725   71.7244    2.5099 C   0  0  1  0  0  0  0  0  0  0  0  0
   21.7791   70.6930    0.7706 C   0  0  2  0  0  0  0  0  0  0  0  0
   24.4282   71.5595    1.5138 C   0  0  1  0  0  0  0  0  0  0  0  0
   23.0037   70.5849   -0.1398 C   0  0  1  0  0  0  0  0  0  0  0  0
   20.9749   72.4376    3.4054 H   0  0  0  0  0  0  0  0  0  0  0  0
   22.7111   73.0022    3.9058 H   0  0  0  0  0  0  0  0  0  0  0  0
   19.8368   70.9735    0.5825 H   0  0  0  0  0  0  0  0  0  0  0  0
   26.2825   72.5382    2.6594 O   0  0  0  0  0  0  0  0  0  0  0  0
   25.7579   71.2994    2.2183 C   0  0  0  0  0  0  0  0  0  0  0  0
   27.1288   72.3881    3.1100 H   0  0  0  0  0  0  0  0  0  0  0  0
 25 28  1  0
 25 24  1  0
 25 26  1  6
 25 27  2  0
  1  4  1  0
  1 24  1  0
  1  2  1  1
  1  3  2  0
  6 11  1  0
  6 12  1  0
 29 36  1  0
 29 37  1  0
  9  7  1  1
  7 13  1  0
 10  8  1  6
  8 14  1  0
 37 28  1  1
  4  5  1  0
 33 30  1  1
 30 38  1  0
 34 31  1  6
 31 39  1  0
 35 32  1  6
 32 40  1  0
 41 42  1  0
 41 43  1  0
 15 19  2  0
 16 22  2  0
 12 17  1  1
 17 19  1  0
 17 20  1  0
 18 19  1  0
 18 22  1  0
 18 23  1  0
  9 10  1  0
  9 11  1  0
 10 12  1  0
 11  5  1  1
 33 34  1  0
 33 35  1  0
 34 36  1  0
 35 37  1  0
 36 42  1  1
 20 21  2  0
 21 22  1  0
M  CHG  2   2  -1  26  -1
M  END
>  <COMPND>  (133) 
    8629 

>  <AUTHOR>  (133) 
    GENERATED BY OPEN BABEL 3.1.1

>  <MASTER>  (133) 
        0    0    0    0    0    0    0    0   58    0   58    0

>  <minimizedAffinity>  (133) 
-7.23249

>  <CNNscore>  (133) 
0.4964206815

>  <CNNaffinity>  (133) 
4.1504178047

>  <CNN_VS>  (133) 
2.0603532791

>  <CNNaffinity_variance>  (133) 
0.2112850398

$$$$
134
     RDKit          3D

 43 45  0  0  0  0  0  0  0  0999 V2000
   20.9212   73.5925   -3.0018 P   0  0  2  0  0  0  0  0  0  0  0  0
   22.0600   74.7250   -3.1963 O   0  0  0  0  0  0  0  0  0  0  0  0
   19.6189   74.0917   -2.4482 O   0  0  0  0  0  0  0  0  0  0  0  0
   21.6596   72.4441   -2.1335 O   0  0  0  0  0  0  0  0  0  0  0  0
   22.5603   72.8413   -1.1143 C   0  0  0  0  0  0  0  0  0  0  0  0
   23.6105   72.1370    0.9290 O   0  0  0  0  0  0  0  0  0  0  0  0
   21.5167   69.9939    1.0471 O   0  0  0  0  0  0  0  0  0  0  0  0
   20.5701   71.8474    2.8092 O   0  0  0  0  0  0  0  0  0  0  0  0
   21.4061   71.3386    0.5836 C   0  0  1  0  0  0  0  0  0  0  0  0
   21.3948   72.2991    1.7544 C   0  0  2  0  0  0  0  0  0  0  0  0
   22.7106   71.7031   -0.1143 C   0  0  1  0  0  0  0  0  0  0  0  0
   22.8639   72.3443    2.1391 C   0  0  2  0  0  0  0  0  0  0  0  0
   20.6951   69.7383    1.4961 H   0  0  0  0  0  0  0  0  0  0  0  0
   19.6459   71.8364    2.5153 H   0  0  0  0  0  0  0  0  0  0  0  0
   22.6950   72.9664    4.8891 O   0  0  0  0  0  0  0  0  0  0  0  0
   24.3412   77.2182    4.2156 O   0  0  0  0  0  0  0  0  0  0  0  0
   23.2420   73.6062    2.7100 N   0  0  0  0  0  0  0  0  0  0  0  0
   23.5150   75.0829    4.5515 N   0  0  0  0  0  0  0  0  0  0  0  0
   23.1173   73.8169    4.1030 C   0  0  0  0  0  0  0  0  0  0  0  0
   23.7306   74.6186    1.8913 C   0  0  0  0  0  0  0  0  0  0  0  0
   24.1043   75.8208    2.3344 C   0  0  0  0  0  0  0  0  0  0  0  0
   24.0056   76.1223    3.7771 C   0  0  0  0  0  0  0  0  0  0  0  0
   23.4366   75.2527    5.5184 H   0  0  0  0  0  0  0  0  0  0  0  0
   20.8164   72.9263   -4.4708 O   0  0  0  0  0  0  0  0  0  0  0  0
   20.5989   73.5947   -5.9265 P   0  0  2  0  0  0  0  0  0  0  0  0
   22.0032   73.3114   -6.6784 O   0  0  0  0  0  0  0  0  0  0  0  0
   20.1991   75.0413   -5.8859 O   0  0  0  0  0  0  0  0  0  0  0  0
   19.5385   72.6282   -6.6656 O   0  0  0  0  0  0  0  0  0  0  0  0
   19.1131   70.4669   -5.7913 O   0  0  0  0  0  0  0  0  0  0  0  0
   17.8171   69.8775   -9.6674 O   0  0  0  0  0  0  0  0  0  0  0  0
   15.8947   70.0565   -7.5412 O   0  0  0  0  0  0  0  0  0  0  0  0
   20.1596   71.5004   -9.1591 O   0  0  0  0  0  0  0  0  0  0  0  0
   18.0290   70.6190   -8.4629 C   0  0  1  0  0  0  0  0  0  0  0  0
   17.2951   69.9059   -7.3254 C   0  0  1  0  0  0  0  0  0  0  0  0
   19.5278   70.6875   -8.1760 C   0  0  2  0  0  0  0  0  0  0  0  0
   17.6909   70.4863   -5.9611 C   0  0  1  0  0  0  0  0  0  0  0  0
   19.8104   71.2334   -6.7752 C   0  0  1  0  0  0  0  0  0  0  0  0
   16.8674   69.8307   -9.8555 H   0  0  0  0  0  0  0  0  0  0  0  0
   15.6580   69.6865   -8.4063 H   0  0  0  0  0  0  0  0  0  0  0  0
   19.9734   71.1443  -10.0413 H   0  0  0  0  0  0  0  0  0  0  0  0
   15.8944   70.3206   -4.3946 O   0  0  0  0  0  0  0  0  0  0  0  0
   17.0927   69.6881   -4.8047 C   0  0  0  0  0  0  0  0  0  0  0  0
   15.5023   69.8234   -3.6592 H   0  0  0  0  0  0  0  0  0  0  0  0
 25 28  1  0
 25 24  1  0
 25 26  1  6
 25 27  2  0
  1  4  1  0
  1 24  1  0
  1  2  1  6
  1  3  2  0
  6 11  1  0
  6 12  1  0
 29 36  1  0
 29 37  1  0
  9  7  1  1
  7 13  1  0
 10  8  1  1
  8 14  1  0
 37 28  1  6
  4  5  1  0
 33 30  1  6
 30 38  1  0
 34 31  1  6
 31 39  1  0
 35 32  1  6
 32 40  1  0
 41 42  1  0
 41 43  1  0
 15 19  2  0
 16 22  2  0
 12 17  1  6
 17 19  1  0
 17 20  1  0
 18 19  1  0
 18 22  1  0
 18 23  1  0
  9 10  1  0
  9 11  1  0
 10 12  1  0
 11  5  1  6
 33 34  1  0
 33 35  1  0
 34 36  1  0
 35 37  1  0
 36 42  1  1
 20 21  2  0
 21 22  1  0
M  CHG  2   2  -1  26  -1
M  END
>  <COMPND>  (134) 
    8629 

>  <AUTHOR>  (134) 
    GENERATED BY OPEN BABEL 3.1.1

>  <MASTER>  (134) 
        0    0    0    0    0    0    0    0   58    0   58    0

>  <minimizedAffinity>  (134) 
-6.56158

>  <CNNscore>  (134) 
0.4397845268

>  <CNNaffinity>  (134) 
4.0926756859

>  <CNN_VS>  (134) 
1.7998954058

>  <CNNaffinity_variance>  (134) 
0.2952383757

$$$$
135
     RDKit          3D

 43 45  0  0  0  0  0  0  0  0999 V2000
   22.9128   73.3954   -3.8182 P   0  0  2  0  0  0  0  0  0  0  0  0
   24.1878   72.5886   -4.4020 O   0  0  0  0  0  0  0  0  0  0  0  0
   23.0638   74.8881   -3.7951 O   0  0  0  0  0  0  0  0  0  0  0  0
   22.6325   72.6954   -2.3867 O   0  0  0  0  0  0  0  0  0  0  0  0
   23.1120   73.3340   -1.2162 C   0  0  0  0  0  0  0  0  0  0  0  0
   23.5853   72.6956    1.0514 O   0  0  0  0  0  0  0  0  0  0  0  0
   24.1383   69.9553   -0.0330 O   0  0  0  0  0  0  0  0  0  0  0  0
   21.6247   69.6930    0.9915 O   0  0  0  0  0  0  0  0  0  0  0  0
   23.1617   70.9093   -0.4471 C   0  0  1  0  0  0  0  0  0  0  0  0
   22.0314   70.9753    0.5588 C   0  0  2  0  0  0  0  0  0  0  0  0
   23.7790   72.2968   -0.3232 C   0  0  1  0  0  0  0  0  0  0  0  0
   22.6504   71.7998    1.6747 C   0  0  2  0  0  0  0  0  0  0  0  0
   23.7670   69.0614   -0.1037 H   0  0  0  0  0  0  0  0  0  0  0  0
   21.2377   69.2078    0.2462 H   0  0  0  0  0  0  0  0  0  0  0  0
   22.7555   72.3215    4.4486 O   0  0  0  0  0  0  0  0  0  0  0  0
   18.8499   74.7653    4.3225 O   0  0  0  0  0  0  0  0  0  0  0  0
   21.6744   72.5699    2.3927 N   0  0  0  0  0  0  0  0  0  0  0  0
   20.8108   73.5380    4.3835 N   0  0  0  0  0  0  0  0  0  0  0  0
   21.8194   72.7722    3.7850 C   0  0  0  0  0  0  0  0  0  0  0  0
   20.5884   73.1156    1.7169 C   0  0  0  0  0  0  0  0  0  0  0  0
   19.6345   73.8425    2.3025 C   0  0  0  0  0  0  0  0  0  0  0  0
   19.7113   74.1007    3.7549 C   0  0  0  0  0  0  0  0  0  0  0  0
   20.8907   73.6918    5.3529 H   0  0  0  0  0  0  0  0  0  0  0  0
   21.6926   72.8568   -4.7312 O   0  0  0  0  0  0  0  0  0  0  0  0
   21.1483   73.3468   -6.1722 P   0  0  2  0  0  0  0  0  0  0  0  0
   22.2530   72.7678   -7.2027 O   0  0  0  0  0  0  0  0  0  0  0  0
   20.9229   74.8277   -6.2738 O   0  0  0  0  0  0  0  0  0  0  0  0
   19.8329   72.4502   -6.4386 O   0  0  0  0  0  0  0  0  0  0  0  0
   19.2460   70.2823   -5.6822 O   0  0  0  0  0  0  0  0  0  0  0  0
   17.7148   70.0820   -9.5119 O   0  0  0  0  0  0  0  0  0  0  0  0
   15.9227   70.2906   -7.2774 O   0  0  0  0  0  0  0  0  0  0  0  0
   20.2230   71.4440   -9.0290 O   0  0  0  0  0  0  0  0  0  0  0  0
   18.0540   70.7164   -8.2758 C   0  0  1  0  0  0  0  0  0  0  0  0
   17.3111   69.9974   -7.1480 C   0  0  1  0  0  0  0  0  0  0  0  0
   19.5646   70.6271   -8.0670 C   0  0  2  0  0  0  0  0  0  0  0  0
   17.8256   70.4440   -5.7729 C   0  0  1  0  0  0  0  0  0  0  0  0
   19.9650   71.0472   -6.6516 C   0  0  1  0  0  0  0  0  0  0  0  0
   16.7570   70.1356   -9.6507 H   0  0  0  0  0  0  0  0  0  0  0  0
   15.6105   70.0041   -8.1501 H   0  0  0  0  0  0  0  0  0  0  0  0
   19.9615   71.1679   -9.9208 H   0  0  0  0  0  0  0  0  0  0  0  0
   17.5524   70.2370   -3.4083 O   0  0  0  0  0  0  0  0  0  0  0  0
   17.2104   69.6267   -4.6390 C   0  0  0  0  0  0  0  0  0  0  0  0
   17.1673   69.7277   -2.6775 H   0  0  0  0  0  0  0  0  0  0  0  0
 25 28  1  0
 25 24  1  0
 25 26  1  6
 25 27  2  0
  1  4  1  0
  1 24  1  0
  1  2  1  6
  1  3  2  0
  6 11  1  0
  6 12  1  0
 29 36  1  0
 29 37  1  0
  9  7  1  1
  7 13  1  0
 10  8  1  1
  8 14  1  0
 37 28  1  1
  4  5  1  0
 33 30  1  6
 30 38  1  0
 34 31  1  1
 31 39  1  0
 35 32  1  6
 32 40  1  0
 41 42  1  0
 41 43  1  0
 15 19  2  0
 16 22  2  0
 12 17  1  6
 17 19  1  0
 17 20  1  0
 18 19  1  0
 18 22  1  0
 18 23  1  0
  9 10  1  0
  9 11  1  0
 10 12  1  0
 11  5  1  6
 33 34  1  0
 33 35  1  0
 34 36  1  0
 35 37  1  0
 36 42  1  1
 20 21  2  0
 21 22  1  0
M  CHG  2   2  -1  26  -1
M  END
>  <COMPND>  (135) 
    8629 

>  <AUTHOR>  (135) 
    GENERATED BY OPEN BABEL 3.1.1

>  <MASTER>  (135) 
        0    0    0    0    0    0    0    0   58    0   58    0

>  <minimizedAffinity>  (135) 
-7.17187

>  <CNNscore>  (135) 
0.4317502081

>  <CNNaffinity>  (135) 
4.0184164047

>  <CNN_VS>  (135) 
1.7349520922

>  <CNNaffinity_variance>  (135) 
0.1035454422

$$$$
136
     RDKit          3D

 43 45  0  0  0  0  0  0  0  0999 V2000
   20.1965   72.8799   -3.0361 P   0  0  2  0  0  0  0  0  0  0  0  0
   20.9673   71.9442   -4.1075 O   0  0  0  0  0  0  0  0  0  0  0  0
   20.3867   74.3554   -3.2309 O   0  0  0  0  0  0  0  0  0  0  0  0
   20.6639   72.2944   -1.6020 O   0  0  0  0  0  0  0  0  0  0  0  0
   20.4281   73.0755   -0.4435 C   0  0  0  0  0  0  0  0  0  0  0  0
   20.9297   70.8822    0.3999 O   0  0  0  0  0  0  0  0  0  0  0  0
   20.6399   72.0725    3.1366 O   0  0  0  0  0  0  0  0  0  0  0  0
   23.3461   71.9742    2.8147 O   0  0  0  0  0  0  0  0  0  0  0  0
   21.1779   72.6562    1.9513 C   0  0  1  0  0  0  0  0  0  0  0  0
   22.5459   72.0780    1.6546 C   0  0  2  0  0  0  0  0  0  0  0  0
   20.3581   72.1565    0.7683 C   0  0  1  0  0  0  0  0  0  0  0  0
   22.1940   70.7232    1.0640 C   0  0  2  0  0  0  0  0  0  0  0  0
   21.1472   72.3773    3.9059 H   0  0  0  0  0  0  0  0  0  0  0  0
   23.5428   72.8619    3.1524 H   0  0  0  0  0  0  0  0  0  0  0  0
   24.6422   69.4904    1.7456 O   0  0  0  0  0  0  0  0  0  0  0  0
   25.8540   69.0334   -2.6774 O   0  0  0  0  0  0  0  0  0  0  0  0
   23.1680   70.2718    0.1106 N   0  0  0  0  0  0  0  0  0  0  0  0
   25.2435   69.2637   -0.4573 N   0  0  0  0  0  0  0  0  0  0  0  0
   24.3656   69.6662    0.5573 C   0  0  0  0  0  0  0  0  0  0  0  0
   22.9310   70.4308   -1.2505 C   0  0  0  0  0  0  0  0  0  0  0  0
   23.7790   70.0427   -2.2052 C   0  0  0  0  0  0  0  0  0  0  0  0
   25.0535   69.4012   -1.8232 C   0  0  0  0  0  0  0  0  0  0  0  0
   26.0845   68.8397   -0.1698 H   0  0  0  0  0  0  0  0  0  0  0  0
   18.6642   72.3780   -3.1515 O   0  0  0  0  0  0  0  0  0  0  0  0
   18.0459   70.9105   -3.4289 P   0  0  2  0  0  0  0  0  0  0  0  0
   16.4709   71.1060   -3.1145 O   0  0  0  0  0  0  0  0  0  0  0  0
   18.7012   69.8088   -2.6473 O   0  0  0  0  0  0  0  0  0  0  0  0
   18.1225   70.7310   -5.0310 O   0  0  0  0  0  0  0  0  0  0  0  0
   19.0995   72.0607   -6.7322 O   0  0  0  0  0  0  0  0  0  0  0  0
   15.6389   70.9326   -8.6822 O   0  0  0  0  0  0  0  0  0  0  0  0
   18.1512   69.7909   -9.4777 O   0  0  0  0  0  0  0  0  0  0  0  0
   15.5677   71.5492   -5.8548 O   0  0  0  0  0  0  0  0  0  0  0  0
   16.7515   70.7634   -7.7996 C   0  0  1  0  0  0  0  0  0  0  0  0
   18.0374   70.9184   -8.6139 C   0  0  1  0  0  0  0  0  0  0  0  0
   16.6811   71.8205   -6.6992 C   0  0  2  0  0  0  0  0  0  0  0  0
   19.2648   71.0157   -7.6978 C   0  0  1  0  0  0  0  0  0  0  0  0
   17.9707   71.8674   -5.8777 C   0  0  1  0  0  0  0  0  0  0  0  0
   15.6774   70.2641   -9.3830 H   0  0  0  0  0  0  0  0  0  0  0  0
   17.3697   69.7407  -10.0504 H   0  0  0  0  0  0  0  0  0  0  0  0
   14.7576   71.5224   -6.3866 H   0  0  0  0  0  0  0  0  0  0  0  0
   21.5678   71.6365   -7.5577 O   0  0  0  0  0  0  0  0  0  0  0  0
   20.5388   71.3283   -8.4798 C   0  0  0  0  0  0  0  0  0  0  0  0
   22.3849   71.8373   -8.0412 H   0  0  0  0  0  0  0  0  0  0  0  0
 25 28  1  0
 25 24  1  0
 25 26  1  1
 25 27  2  0
  1  4  1  0
  1 24  1  0
  1  2  1  6
  1  3  2  0
  6 11  1  0
  6 12  1  0
 29 36  1  0
 29 37  1  0
  9  7  1  1
  7 13  1  0
 10  8  1  1
  8 14  1  0
 37 28  1  6
  4  5  1  0
 33 30  1  6
 30 38  1  0
 34 31  1  6
 31 39  1  0
 35 32  1  1
 32 40  1  0
 41 42  1  0
 41 43  1  0
 15 19  2  0
 16 22  2  0
 12 17  1  6
 17 19  1  0
 17 20  1  0
 18 19  1  0
 18 22  1  0
 18 23  1  0
  9 10  1  0
  9 11  1  0
 10 12  1  0
 11  5  1  6
 33 34  1  0
 33 35  1  0
 34 36  1  0
 35 37  1  0
 36 42  1  6
 20 21  2  0
 21 22  1  0
M  CHG  2   2  -1  26  -1
M  END
>  <COMPND>  (136) 
    8629 

>  <AUTHOR>  (136) 
    GENERATED BY OPEN BABEL 3.1.1

>  <MASTER>  (136) 
        0    0    0    0    0    0    0    0   58    0   58    0

>  <minimizedAffinity>  (136) 
-8.05933

>  <CNNscore>  (136) 
0.4225968122

>  <CNNaffinity>  (136) 
4.0703516006

>  <CNN_VS>  (136) 
1.7201175690

>  <CNNaffinity_variance>  (136) 
0.2953490615

$$$$
137
     RDKit          3D

 43 45  0  0  0  0  0  0  0  0999 V2000
   21.9479   72.7936   -5.6654 P   0  0  2  0  0  0  0  0  0  0  0  0
   20.7357   73.7587   -5.2000 O   0  0  0  0  0  0  0  0  0  0  0  0
   23.1541   73.5057   -6.2035 O   0  0  0  0  0  0  0  0  0  0  0  0
   21.2430   71.7440   -6.6750 O   0  0  0  0  0  0  0  0  0  0  0  0
   19.9761   72.0740   -7.2170 C   0  0  0  0  0  0  0  0  0  0  0  0
   18.6936   70.1024   -6.7252 O   0  0  0  0  0  0  0  0  0  0  0  0
   18.1245   69.9661   -9.6660 O   0  0  0  0  0  0  0  0  0  0  0  0
   15.8298   71.0482   -8.6660 O   0  0  0  0  0  0  0  0  0  0  0  0
   18.2552   71.1107   -8.8244 C   0  0  1  0  0  0  0  0  0  0  0  0
   17.0286   71.2626   -7.9492 C   0  0  2  0  0  0  0  0  0  0  0  0
   19.3432   70.8174   -7.7990 C   0  0  1  0  0  0  0  0  0  0  0  0
   17.2693   70.2069   -6.8835 C   0  0  2  0  0  0  0  0  0  0  0  0
   17.4354   70.1298  -10.3295 H   0  0  0  0  0  0  0  0  0  0  0  0
   15.7219   71.7453   -9.3317 H   0  0  0  0  0  0  0  0  0  0  0  0
   16.7586   68.3766   -4.7936 O   0  0  0  0  0  0  0  0  0  0  0  0
   15.0208   71.6746   -2.0835 O   0  0  0  0  0  0  0  0  0  0  0  0
   16.6844   70.5601   -5.6207 N   0  0  0  0  0  0  0  0  0  0  0  0
   15.8939   70.0203   -3.4459 N   0  0  0  0  0  0  0  0  0  0  0  0
   16.4691   69.5649   -4.6391 C   0  0  0  0  0  0  0  0  0  0  0  0
   16.3312   71.8808   -5.3658 C   0  0  0  0  0  0  0  0  0  0  0  0
   15.7824   72.2985   -4.2232 C   0  0  0  0  0  0  0  0  0  0  0  0
   15.5243   71.3218   -3.1456 C   0  0  0  0  0  0  0  0  0  0  0  0
   15.7342   69.3446   -2.7475 H   0  0  0  0  0  0  0  0  0  0  0  0
   22.2267   71.8993   -4.3480 O   0  0  0  0  0  0  0  0  0  0  0  0
   21.2090   71.1861   -3.3142 P   0  0  2  0  0  0  0  0  0  0  0  0
   20.7298   69.8656   -4.1167 O   0  0  0  0  0  0  0  0  0  0  0  0
   20.0874   72.0683   -2.8476 O   0  0  0  0  0  0  0  0  0  0  0  0
   22.1541   70.6245   -2.1325 O   0  0  0  0  0  0  0  0  0  0  0  0
   23.9938   71.8635   -1.2976 O   0  0  0  0  0  0  0  0  0  0  0  0
   25.2446   68.0610   -0.2838 O   0  0  0  0  0  0  0  0  0  0  0  0
   24.3483   69.8543    1.7726 O   0  0  0  0  0  0  0  0  0  0  0  0
   23.8753   68.5093   -2.7946 O   0  0  0  0  0  0  0  0  0  0  0  0
   24.2910   69.1051   -0.4982 C   0  0  1  0  0  0  0  0  0  0  0  0
   24.6323   70.2659    0.4383 C   0  0  1  0  0  0  0  0  0  0  0  0
   24.3606   69.5530   -1.9569 C   0  0  2  0  0  0  0  0  0  0  0  0
   23.8236   71.5207    0.0827 C   0  0  1  0  0  0  0  0  0  0  0  0
   23.5622   70.8364   -2.1925 C   0  0  1  0  0  0  0  0  0  0  0  0
   25.2052   67.7718    0.6404 H   0  0  0  0  0  0  0  0  0  0  0  0
   24.8649   69.0608    1.9844 H   0  0  0  0  0  0  0  0  0  0  0  0
   24.3890   67.7025   -2.6362 H   0  0  0  0  0  0  0  0  0  0  0  0
   23.6513   72.6592    2.1763 O   0  0  0  0  0  0  0  0  0  0  0  0
   24.2610   72.7338    0.9007 C   0  0  0  0  0  0  0  0  0  0  0  0
   23.9209   73.4248    2.7082 H   0  0  0  0  0  0  0  0  0  0  0  0
 25 28  1  0
 25 24  1  0
 25 26  1  6
 25 27  2  0
  1  4  1  0
  1 24  1  0
  1  2  1  1
  1  3  2  0
  6 11  1  0
  6 12  1  0
 29 36  1  0
 29 37  1  0
  9  7  1  6
  7 13  1  0
 10  8  1  6
  8 14  1  0
 37 28  1  1
  4  5  1  0
 33 30  1  6
 30 38  1  0
 34 31  1  1
 31 39  1  0
 35 32  1  6
 32 40  1  0
 41 42  1  0
 41 43  1  0
 15 19  2  0
 16 22  2  0
 12 17  1  1
 17 19  1  0
 17 20  1  0
 18 19  1  0
 18 22  1  0
 18 23  1  0
  9 10  1  0
  9 11  1  0
 10 12  1  0
 11  5  1  1
 33 34  1  0
 33 35  1  0
 34 36  1  0
 35 37  1  0
 36 42  1  1
 20 21  2  0
 21 22  1  0
M  CHG  2   2  -1  26  -1
M  END
>  <COMPND>  (137) 
    8629 

>  <AUTHOR>  (137) 
    GENERATED BY OPEN BABEL 3.1.1

>  <MASTER>  (137) 
        0    0    0    0    0    0    0    0   58    0   58    0

>  <minimizedAffinity>  (137) 
-7.69448

>  <CNNscore>  (137) 
0.4112293124

>  <CNNaffinity>  (137) 
4.1647210121

>  <CNN_VS>  (137) 
1.7126553059

>  <CNNaffinity_variance>  (137) 
0.1978723258

$$$$
138
     RDKit          3D

 43 45  0  0  0  0  0  0  0  0999 V2000
   22.8485   71.9951   -2.8389 P   0  0  2  0  0  0  0  0  0  0  0  0
   22.6697   73.5958   -2.6876 O   0  0  0  0  0  0  0  0  0  0  0  0
   24.1969   71.5511   -3.3251 O   0  0  0  0  0  0  0  0  0  0  0  0
   21.5901   71.5483   -3.7525 O   0  0  0  0  0  0  0  0  0  0  0  0
   20.7695   70.4855   -3.2998 C   0  0  0  0  0  0  0  0  0  0  0  0
   18.3980   70.2962   -3.6377 O   0  0  0  0  0  0  0  0  0  0  0  0
   18.9667   70.7337   -6.5490 O   0  0  0  0  0  0  0  0  0  0  0  0
   18.1061   73.1902   -5.7358 O   0  0  0  0  0  0  0  0  0  0  0  0
   19.6064   71.3051   -5.4090 C   0  0  1  0  0  0  0  0  0  0  0  0
   18.7139   72.3514   -4.7747 C   0  0  2  0  0  0  0  0  0  0  0  0
   19.6686   70.2390   -4.3223 C   0  0  1  0  0  0  0  0  0  0  0  0
   17.7071   71.4948   -4.0260 C   0  0  2  0  0  0  0  0  0  0  0  0
   18.9157   71.3959   -7.2567 H   0  0  0  0  0  0  0  0  0  0  0  0
   18.7874   73.7146   -6.1847 H   0  0  0  0  0  0  0  0  0  0  0  0
   15.2638   70.8447   -2.7667 O   0  0  0  0  0  0  0  0  0  0  0  0
   15.8736   74.0553    0.4831 O   0  0  0  0  0  0  0  0  0  0  0  0
   17.2030   72.1445   -2.8490 N   0  0  0  0  0  0  0  0  0  0  0  0
   15.5695   72.4437   -1.1495 N   0  0  0  0  0  0  0  0  0  0  0  0
   15.9645   71.7432   -2.2964 C   0  0  0  0  0  0  0  0  0  0  0  0
   17.9346   73.1672   -2.2549 C   0  0  0  0  0  0  0  0  0  0  0  0
   17.5433   73.8260   -1.1622 C   0  0  0  0  0  0  0  0  0  0  0  0
   16.2609   73.4682   -0.5224 C   0  0  0  0  0  0  0  0  0  0  0  0
   14.7097   72.1816   -0.7472 H   0  0  0  0  0  0  0  0  0  0  0  0
   22.4471   71.4443   -1.3732 O   0  0  0  0  0  0  0  0  0  0  0  0
   23.2638   70.5246   -0.3244 P   0  0  2  0  0  0  0  0  0  0  0  0
   22.1015   69.9298    0.6311 O   0  0  0  0  0  0  0  0  0  0  0  0
   24.3570   71.2481    0.4073 O   0  0  0  0  0  0  0  0  0  0  0  0
   23.7640   69.2598   -1.1934 O   0  0  0  0  0  0  0  0  0  0  0  0
   24.7459   67.4307   -0.0503 O   0  0  0  0  0  0  0  0  0  0  0  0
   26.1662   66.6718   -3.8527 O   0  0  0  0  0  0  0  0  0  0  0  0
   24.1055   65.0031   -2.7495 O   0  0  0  0  0  0  0  0  0  0  0  0
   25.9925   69.3975   -2.8935 O   0  0  0  0  0  0  0  0  0  0  0  0
   25.2154   67.1177   -2.8818 C   0  0  1  0  0  0  0  0  0  0  0  0
   24.8606   65.9343   -1.9794 C   0  0  1  0  0  0  0  0  0  0  0  0
   25.8311   68.2517   -2.0643 C   0  0  2  0  0  0  0  0  0  0  0  0
   24.0557   66.3926   -0.7558 C   0  0  1  0  0  0  0  0  0  0  0  0
   24.9761   68.5967   -0.8436 C   0  0  1  0  0  0  0  0  0  0  0  0
   25.7813   65.9521   -4.3755 H   0  0  0  0  0  0  0  0  0  0  0  0
   24.6249   64.7221   -3.5193 H   0  0  0  0  0  0  0  0  0  0  0  0
   26.5357   69.1661   -3.6624 H   0  0  0  0  0  0  0  0  0  0  0  0
   22.8346   64.3926   -0.2892 O   0  0  0  0  0  0  0  0  0  0  0  0
   23.8265   65.2549    0.2369 C   0  0  0  0  0  0  0  0  0  0  0  0
   22.6785   63.6634    0.3319 H   0  0  0  0  0  0  0  0  0  0  0  0
 25 28  1  0
 25 24  1  0
 25 26  1  1
 25 27  2  0
  1  4  1  0
  1 24  1  0
  1  2  1  1
  1  3  2  0
  6 11  1  0
  6 12  1  0
 29 36  1  0
 29 37  1  0
  9  7  1  6
  7 13  1  0
 10  8  1  6
  8 14  1  0
 37 28  1  6
  4  5  1  0
 33 30  1  6
 30 38  1  0
 34 31  1  6
 31 39  1  0
 35 32  1  6
 32 40  1  0
 41 42  1  0
 41 43  1  0
 15 19  2  0
 16 22  2  0
 12 17  1  1
 17 19  1  0
 17 20  1  0
 18 19  1  0
 18 22  1  0
 18 23  1  0
  9 10  1  0
  9 11  1  0
 10 12  1  0
 11  5  1  1
 33 34  1  0
 33 35  1  0
 34 36  1  0
 35 37  1  0
 36 42  1  1
 20 21  2  0
 21 22  1  0
M  CHG  2   2  -1  26  -1
M  END
>  <COMPND>  (138) 
    8629 

>  <AUTHOR>  (138) 
    GENERATED BY OPEN BABEL 3.1.1

>  <MASTER>  (138) 
        0    0    0    0    0    0    0    0   58    0   58    0

>  <minimizedAffinity>  (138) 
-7.10642

>  <CNNscore>  (138) 
0.4092853665

>  <CNNaffinity>  (138) 
4.2743916512

>  <CNN_VS>  (138) 
1.7494459152

>  <CNNaffinity_variance>  (138) 
0.0974416062

$$$$
139
     RDKit          3D

 43 45  0  0  0  0  0  0  0  0999 V2000
   23.3604   73.5271    0.0104 P   0  0  2  0  0  0  0  0  0  0  0  0
   24.0552   74.0404   -1.3574 O   0  0  0  0  0  0  0  0  0  0  0  0
   21.9603   74.0185    0.2333 O   0  0  0  0  0  0  0  0  0  0  0  0
   24.4320   73.9139    1.1593 O   0  0  0  0  0  0  0  0  0  0  0  0
   23.9499   74.4346    2.3858 C   0  0  0  0  0  0  0  0  0  0  0  0
   24.4247   73.6944    4.6220 O   0  0  0  0  0  0  0  0  0  0  0  0
   22.2842   71.6384    4.1956 O   0  0  0  0  0  0  0  0  0  0  0  0
   21.0008   73.5341    5.6775 O   0  0  0  0  0  0  0  0  0  0  0  0
   22.3474   72.9851    3.7290 C   0  0  1  0  0  0  0  0  0  0  0  0
   22.0812   73.9488    4.8666 C   0  0  2  0  0  0  0  0  0  0  0  0
   23.7987   73.2943    3.3833 C   0  0  1  0  0  0  0  0  0  0  0  0
   23.4073   73.9355    5.6077 C   0  0  2  0  0  0  0  0  0  0  0  0
   21.3667   71.4177    4.4223 H   0  0  0  0  0  0  0  0  0  0  0  0
   20.1802   73.5598    5.1610 H   0  0  0  0  0  0  0  0  0  0  0  0
   22.6181   74.5552    8.2480 O   0  0  0  0  0  0  0  0  0  0  0  0
   24.5083   78.7526    8.0228 O   0  0  0  0  0  0  0  0  0  0  0  0
   23.6804   75.1827    6.2643 N   0  0  0  0  0  0  0  0  0  0  0  0
   23.5601   76.6446    8.1338 N   0  0  0  0  0  0  0  0  0  0  0  0
   23.2393   75.3936    7.5915 C   0  0  0  0  0  0  0  0  0  0  0  0
   24.3786   76.1808    5.5933 C   0  0  0  0  0  0  0  0  0  0  0  0
   24.6754   77.3688    6.1241 C   0  0  0  0  0  0  0  0  0  0  0  0
   24.2507   77.6695    7.5066 C   0  0  0  0  0  0  0  0  0  0  0  0
   23.2626   76.8141    9.0571 H   0  0  0  0  0  0  0  0  0  0  0  0
   23.5011   71.9200   -0.0913 O   0  0  0  0  0  0  0  0  0  0  0  0
   22.4040   70.7453    0.0803 P   0  0  2  0  0  0  0  0  0  0  0  0
   21.2109   71.2041   -0.9115 O   0  0  0  0  0  0  0  0  0  0  0  0
   21.9733   70.5080    1.4988 O   0  0  0  0  0  0  0  0  0  0  0  0
   23.0636   69.4616   -0.6421 O   0  0  0  0  0  0  0  0  0  0  0  0
   24.5856   67.9733    0.3996 O   0  0  0  0  0  0  0  0  0  0  0  0
   25.8128   67.5364   -3.5189 O   0  0  0  0  0  0  0  0  0  0  0  0
   24.3645   65.4108   -2.2412 O   0  0  0  0  0  0  0  0  0  0  0  0
   25.0197   70.1411   -2.5361 O   0  0  0  0  0  0  0  0  0  0  0  0
   24.8682   67.7383   -2.4641 C   0  0  1  0  0  0  0  0  0  0  0  0
   24.9155   66.5211   -1.5384 C   0  0  1  0  0  0  0  0  0  0  0  0
   25.2367   69.0091   -1.7007 C   0  0  2  0  0  0  0  0  0  0  0  0
   24.1304   66.7779   -0.2451 C   0  0  1  0  0  0  0  0  0  0  0  0
   24.4327   69.1434   -0.4062 C   0  0  1  0  0  0  0  0  0  0  0  0
   25.5842   66.7313   -4.0079 H   0  0  0  0  0  0  0  0  0  0  0  0
   24.8689   65.2596   -3.0560 H   0  0  0  0  0  0  0  0  0  0  0  0
   25.5343   70.0441   -3.3520 H   0  0  0  0  0  0  0  0  0  0  0  0
   24.6688   66.1919    2.0078 O   0  0  0  0  0  0  0  0  0  0  0  0
   24.2945   65.6393    0.7592 C   0  0  0  0  0  0  0  0  0  0  0  0
   24.7765   65.4787    2.6571 H   0  0  0  0  0  0  0  0  0  0  0  0
 25 28  1  0
 25 24  1  0
 25 26  1  6
 25 27  2  0
  1  4  1  0
  1 24  1  0
  1  2  1  6
  1  3  2  0
  6 11  1  0
  6 12  1  0
 29 36  1  0
 29 37  1  0
  9  7  1  1
  7 13  1  0
 10  8  1  1
  8 14  1  0
 37 28  1  6
  4  5  1  0
 33 30  1  6
 30 38  1  0
 34 31  1  6
 31 39  1  0
 35 32  1  6
 32 40  1  0
 41 42  1  0
 41 43  1  0
 15 19  2  0
 16 22  2  0
 12 17  1  6
 17 19  1  0
 17 20  1  0
 18 19  1  0
 18 22  1  0
 18 23  1  0
  9 10  1  0
  9 11  1  0
 10 12  1  0
 11  5  1  6
 33 34  1  0
 33 35  1  0
 34 36  1  0
 35 37  1  0
 36 42  1  1
 20 21  2  0
 21 22  1  0
M  CHG  2   2  -1  26  -1
M  END
>  <COMPND>  (139) 
    8629 

>  <AUTHOR>  (139) 
    GENERATED BY OPEN BABEL 3.1.1

>  <MASTER>  (139) 
        0    0    0    0    0    0    0    0   58    0   58    0

>  <minimizedAffinity>  (139) 
-6.74068

>  <CNNscore>  (139) 
0.3945904672

>  <CNNaffinity>  (139) 
4.2773923874

>  <CNN_VS>  (139) 
1.6878182888

>  <CNNaffinity_variance>  (139) 
0.1762081236

$$$$
140
     RDKit          3D

 43 45  0  0  0  0  0  0  0  0999 V2000
   23.2056   74.9290   -1.4435 P   0  0  2  0  0  0  0  0  0  0  0  0
   24.5134   74.8829   -0.4923 O   0  0  0  0  0  0  0  0  0  0  0  0
   23.1683   76.0722   -2.4147 O   0  0  0  0  0  0  0  0  0  0  0  0
   21.9672   74.8484   -0.4054 O   0  0  0  0  0  0  0  0  0  0  0  0
   22.2497   74.6691    0.9715 C   0  0  0  0  0  0  0  0  0  0  0  0
   22.7298   72.3396    1.3133 O   0  0  0  0  0  0  0  0  0  0  0  0
   20.2866   72.2833    3.0507 O   0  0  0  0  0  0  0  0  0  0  0  0
   22.3101   72.4094    4.8745 O   0  0  0  0  0  0  0  0  0  0  0  0
   21.2517   73.3208    2.8844 C   0  0  1  0  0  0  0  0  0  0  0  0
   22.5402   72.9588    3.5931 C   0  0  2  0  0  0  0  0  0  0  0  0
   21.6839   73.3297    1.4234 C   0  0  1  0  0  0  0  0  0  0  0  0
   23.1589   71.9591    2.6308 C   0  0  2  0  0  0  0  0  0  0  0  0
   19.9952   72.2583    3.9761 H   0  0  0  0  0  0  0  0  0  0  0  0
   21.9160   73.0837    5.4495 H   0  0  0  0  0  0  0  0  0  0  0  0
   24.7930   69.7268    2.0611 O   0  0  0  0  0  0  0  0  0  0  0  0
   28.6526   72.1236    2.8361 O   0  0  0  0  0  0  0  0  0  0  0  0
   24.5939   71.9717    2.6757 N   0  0  0  0  0  0  0  0  0  0  0  0
   26.7135   70.9221    2.4473 N   0  0  0  0  0  0  0  0  0  0  0  0
   25.3204   70.7966    2.3729 C   0  0  0  0  0  0  0  0  0  0  0  0
   25.2663   73.1403    3.0165 C   0  0  0  0  0  0  0  0  0  0  0  0
   26.5952   73.2432    3.0842 C   0  0  0  0  0  0  0  0  0  0  0  0
   27.4282   72.0611    2.7826 C   0  0  0  0  0  0  0  0  0  0  0  0
   27.2403   70.1161    2.2408 H   0  0  0  0  0  0  0  0  0  0  0  0
   23.2020   73.4645   -2.1278 O   0  0  0  0  0  0  0  0  0  0  0  0
   23.7089   72.9706   -3.5811 P   0  0  2  0  0  0  0  0  0  0  0  0
   24.0698   71.4123   -3.3384 O   0  0  0  0  0  0  0  0  0  0  0  0
   24.8341   73.7856   -4.1501 O   0  0  0  0  0  0  0  0  0  0  0  0
   22.3761   72.9434   -4.4910 O   0  0  0  0  0  0  0  0  0  0  0  0
   20.8090   71.2191   -4.0579 O   0  0  0  0  0  0  0  0  0  0  0  0
   19.5164   72.3580   -7.8106 O   0  0  0  0  0  0  0  0  0  0  0  0
   17.9462   73.0366   -5.5036 O   0  0  0  0  0  0  0  0  0  0  0  0
   22.3492   72.2865   -7.2192 O   0  0  0  0  0  0  0  0  0  0  0  0
   20.0650   72.5583   -6.5051 C   0  0  1  0  0  0  0  0  0  0  0  0
   19.0272   72.1087   -5.4747 C   0  0  1  0  0  0  0  0  0  0  0  0
   21.3464   71.7377   -6.3708 C   0  0  2  0  0  0  0  0  0  0  0  0
   19.6365   72.0418   -4.0678 C   0  0  1  0  0  0  0  0  0  0  0  0
   21.8410   71.6954   -4.9239 C   0  0  1  0  0  0  0  0  0  0  0  0
   18.7028   72.8766   -7.9026 H   0  0  0  0  0  0  0  0  0  0  0  0
   17.5708   73.0696   -6.3976 H   0  0  0  0  0  0  0  0  0  0  0  0
   22.0240   72.3076   -8.1323 H   0  0  0  0  0  0  0  0  0  0  0  0
   19.4143   70.8641   -2.0007 O   0  0  0  0  0  0  0  0  0  0  0  0
   18.6648   71.4458   -3.0515 C   0  0  0  0  0  0  0  0  0  0  0  0
   18.8089   70.4810   -1.3462 H   0  0  0  0  0  0  0  0  0  0  0  0
 25 28  1  0
 25 24  1  0
 25 26  1  1
 25 27  2  0
  1  4  1  0
  1 24  1  0
  1  2  1  1
  1  3  2  0
  6 11  1  0
  6 12  1  0
 29 36  1  0
 29 37  1  0
  9  7  1  6
  7 13  1  0
 10  8  1  1
  8 14  1  0
 37 28  1  1
  4  5  1  0
 33 30  1  6
 30 38  1  0
 34 31  1  1
 31 39  1  0
 35 32  1  6
 32 40  1  0
 41 42  1  0
 41 43  1  0
 15 19  2  0
 16 22  2  0
 12 17  1  6
 17 19  1  0
 17 20  1  0
 18 19  1  0
 18 22  1  0
 18 23  1  0
  9 10  1  0
  9 11  1  0
 10 12  1  0
 11  5  1  1
 33 34  1  0
 33 35  1  0
 34 36  1  0
 35 37  1  0
 36 42  1  1
 20 21  2  0
 21 22  1  0
M  CHG  2   2  -1  26  -1
M  END
>  <COMPND>  (140) 
    8629 

>  <AUTHOR>  (140) 
    GENERATED BY OPEN BABEL 3.1.1

>  <MASTER>  (140) 
        0    0    0    0    0    0    0    0   58    0   58    0

>  <minimizedAffinity>  (140) 
-6.52587

>  <CNNscore>  (140) 
0.3887842596

>  <CNNaffinity>  (140) 
3.8704419136

>  <CNN_VS>  (140) 
1.5047669411

>  <CNNaffinity_variance>  (140) 
0.2133992612

$$$$
141
     RDKit          3D

 43 45  0  0  0  0  0  0  0  0999 V2000
   21.9423   72.5526   -5.7285 P   0  0  2  0  0  0  0  0  0  0  0  0
   21.0741   73.9176   -5.7046 O   0  0  0  0  0  0  0  0  0  0  0  0
   23.3037   72.6782   -6.3467 O   0  0  0  0  0  0  0  0  0  0  0  0
   20.9531   71.4752   -6.4203 O   0  0  0  0  0  0  0  0  0  0  0  0
   20.1716   71.8885   -7.5277 C   0  0  0  0  0  0  0  0  0  0  0  0
   18.9191   69.9003   -7.0256 O   0  0  0  0  0  0  0  0  0  0  0  0
   18.0475   69.9501   -9.8941 O   0  0  0  0  0  0  0  0  0  0  0  0
   15.8838   70.9862   -8.5974 O   0  0  0  0  0  0  0  0  0  0  0  0
   18.2805   71.0395   -9.0029 C   0  0  1  0  0  0  0  0  0  0  0  0
   17.1531   71.1466   -7.9974 C   0  0  2  0  0  0  0  0  0  0  0  0
   19.4644   70.6751   -8.1158 C   0  0  1  0  0  0  0  0  0  0  0  0
   17.4876   70.0254   -7.0284 C   0  0  2  0  0  0  0  0  0  0  0  0
   17.2959   70.1598  -10.4713 H   0  0  0  0  0  0  0  0  0  0  0  0
   15.7176   71.7240   -9.2047 H   0  0  0  0  0  0  0  0  0  0  0  0
   16.1713   68.1617   -5.3635 O   0  0  0  0  0  0  0  0  0  0  0  0
   15.8196   71.2076   -1.9226 O   0  0  0  0  0  0  0  0  0  0  0  0
   17.0413   70.3045   -5.6926 N   0  0  0  0  0  0  0  0  0  0  0  0
   15.9974   69.6798   -3.6514 N   0  0  0  0  0  0  0  0  0  0  0  0
   16.3896   69.2990   -4.9411 C   0  0  0  0  0  0  0  0  0  0  0  0
   17.2514   71.5635   -5.1407 C   0  0  0  0  0  0  0  0  0  0  0  0
   16.8702   71.9110   -3.9098 C   0  0  0  0  0  0  0  0  0  0  0  0
   16.1825   70.9187   -3.0586 C   0  0  0  0  0  0  0  0  0  0  0  0
   15.5412   68.9957   -3.1096 H   0  0  0  0  0  0  0  0  0  0  0  0
   21.9472   72.0977   -4.1774 O   0  0  0  0  0  0  0  0  0  0  0  0
   23.0899   72.2155   -3.0402 P   0  0  2  0  0  0  0  0  0  0  0  0
   23.5513   73.7632   -3.1368 O   0  0  0  0  0  0  0  0  0  0  0  0
   24.2088   71.2254   -3.1872 O   0  0  0  0  0  0  0  0  0  0  0  0
   22.2878   72.1158   -1.6432 O   0  0  0  0  0  0  0  0  0  0  0  0
   23.9697   72.2153    0.0235 O   0  0  0  0  0  0  0  0  0  0  0  0
   20.6448   71.9423    2.4569 O   0  0  0  0  0  0  0  0  0  0  0  0
   22.0556   74.4359    2.2583 O   0  0  0  0  0  0  0  0  0  0  0  0
   20.7606   70.4245   -0.0053 O   0  0  0  0  0  0  0  0  0  0  0  0
   21.3846   72.3486    1.3024 C   0  0  1  0  0  0  0  0  0  0  0  0
   22.5677   73.2006    1.7663 C   0  0  1  0  0  0  0  0  0  0  0  0
   21.8747   71.1062    0.5609 C   0  0  2  0  0  0  0  0  0  0  0  0
   23.5543   73.4506    0.6177 C   0  0  1  0  0  0  0  0  0  0  0  0
   22.8883   71.4617   -0.5283 C   0  0  1  0  0  0  0  0  0  0  0  0
   20.3303   72.7264    2.9320 H   0  0  0  0  0  0  0  0  0  0  0  0
   21.4336   74.2639    2.9826 H   0  0  0  0  0  0  0  0  0  0  0  0
   20.1265   70.2048    0.6943 H   0  0  0  0  0  0  0  0  0  0  0  0
   24.9603   73.9436    2.4856 O   0  0  0  0  0  0  0  0  0  0  0  0
   24.8180   74.1635    1.0943 C   0  0  0  0  0  0  0  0  0  0  0  0
   25.7608   74.3913    2.8028 H   0  0  0  0  0  0  0  0  0  0  0  0
 25 28  1  0
 25 24  1  0
 25 26  1  1
 25 27  2  0
  1  4  1  0
  1 24  1  0
  1  2  1  1
  1  3  2  0
  6 11  1  0
  6 12  1  0
 29 36  1  0
 29 37  1  0
  9  7  1  6
  7 13  1  0
 10  8  1  6
  8 14  1  0
 37 28  1  6
  4  5  1  0
 33 30  1  1
 30 38  1  0
 34 31  1  6
 31 39  1  0
 35 32  1  6
 32 40  1  0
 41 42  1  0
 41 43  1  0
 15 19  2  0
 16 22  2  0
 12 17  1  1
 17 19  1  0
 17 20  1  0
 18 19  1  0
 18 22  1  0
 18 23  1  0
  9 10  1  0
  9 11  1  0
 10 12  1  0
 11  5  1  1
 33 34  1  0
 33 35  1  0
 34 36  1  0
 35 37  1  0
 36 42  1  1
 20 21  2  0
 21 22  1  0
M  CHG  2   2  -1  26  -1
M  END
>  <COMPND>  (141) 
    8629 

>  <AUTHOR>  (141) 
    GENERATED BY OPEN BABEL 3.1.1

>  <MASTER>  (141) 
        0    0    0    0    0    0    0    0   58    0   58    0

>  <minimizedAffinity>  (141) 
-7.40790

>  <CNNscore>  (141) 
0.8241430521

>  <CNNaffinity>  (141) 
4.5784034729

>  <CNN_VS>  (141) 
3.7732594013

>  <CNNaffinity_variance>  (141) 
0.1346927583

$$$$
142
     RDKit          3D

 43 45  0  0  0  0  0  0  0  0999 V2000
   22.3843   71.8197   -2.3173 P   0  0  2  0  0  0  0  0  0  0  0  0
   21.7647   73.3055   -2.4786 O   0  0  0  0  0  0  0  0  0  0  0  0
   23.5525   71.5199   -3.2099 O   0  0  0  0  0  0  0  0  0  0  0  0
   21.1040   70.8447   -2.4843 O   0  0  0  0  0  0  0  0  0  0  0  0
   20.4773   70.7629   -3.7525 C   0  0  0  0  0  0  0  0  0  0  0  0
   18.5904   71.7600   -4.8566 O   0  0  0  0  0  0  0  0  0  0  0  0
   16.9068   70.4757   -2.7336 O   0  0  0  0  0  0  0  0  0  0  0  0
   16.5712   68.7960   -4.8555 O   0  0  0  0  0  0  0  0  0  0  0  0
   18.0853   69.9847   -3.3704 C   0  0  1  0  0  0  0  0  0  0  0  0
   17.7721   69.5370   -4.7828 C   0  0  2  0  0  0  0  0  0  0  0  0
   19.0161   71.1668   -3.6104 C   0  0  1  0  0  0  0  0  0  0  0  0
   17.6873   70.8618   -5.5217 C   0  0  2  0  0  0  0  0  0  0  0  0
   16.2970   69.7387   -2.5698 H   0  0  0  0  0  0  0  0  0  0  0  0
   16.6756   67.9624   -4.3707 H   0  0  0  0  0  0  0  0  0  0  0  0
   15.9487   70.0882   -7.6091 O   0  0  0  0  0  0  0  0  0  0  0  0
   19.2843   70.4515  -10.7687 O   0  0  0  0  0  0  0  0  0  0  0  0
   18.0748   70.7463   -6.8994 N   0  0  0  0  0  0  0  0  0  0  0  0
   17.6109   70.2699   -9.1806 N   0  0  0  0  0  0  0  0  0  0  0  0
   17.1251   70.3493   -7.8693 C   0  0  0  0  0  0  0  0  0  0  0  0
   19.3838   71.0257   -7.2768 C   0  0  0  0  0  0  0  0  0  0  0  0
   19.8316   70.9440   -8.5314 C   0  0  0  0  0  0  0  0  0  0  0  0
   18.9030   70.5361   -9.6054 C   0  0  0  0  0  0  0  0  0  0  0  0
   16.9672   69.9949   -9.8733 H   0  0  0  0  0  0  0  0  0  0  0  0
   22.7057   71.7298   -0.7356 O   0  0  0  0  0  0  0  0  0  0  0  0
   23.1639   70.4827    0.1852 P   0  0  2  0  0  0  0  0  0  0  0  0
   21.7664   69.9328    0.7870 O   0  0  0  0  0  0  0  0  0  0  0  0
   24.1915   70.8292    1.2234 O   0  0  0  0  0  0  0  0  0  0  0  0
   23.6298   69.3490   -0.8648 O   0  0  0  0  0  0  0  0  0  0  0  0
   24.8208   67.5846    0.1770 O   0  0  0  0  0  0  0  0  0  0  0  0
   25.5639   66.6400   -3.7735 O   0  0  0  0  0  0  0  0  0  0  0  0
   23.7504   65.0203   -2.2453 O   0  0  0  0  0  0  0  0  0  0  0  0
   25.5244   69.4101   -2.9340 O   0  0  0  0  0  0  0  0  0  0  0  0
   24.7917   67.1304   -2.6741 C   0  0  1  0  0  0  0  0  0  0  0  0
   24.6160   65.9928   -1.6663 C   0  0  1  0  0  0  0  0  0  0  0  0
   25.5259   68.3071   -2.0340 C   0  0  2  0  0  0  0  0  0  0  0  0
   24.0316   66.5090   -0.3445 C   0  0  1  0  0  0  0  0  0  0  0  0
   24.8931   68.7099   -0.7008 C   0  0  1  0  0  0  0  0  0  0  0  0
   25.1031   65.8930   -4.1847 H   0  0  0  0  0  0  0  0  0  0  0  0
   24.1307   64.7029   -3.0794 H   0  0  0  0  0  0  0  0  0  0  0  0
   25.9278   69.1424   -3.7740 H   0  0  0  0  0  0  0  0  0  0  0  0
   24.6098   65.9257    1.8992 O   0  0  0  0  0  0  0  0  0  0  0  0
   23.9948   65.4222    0.7277 C   0  0  0  0  0  0  0  0  0  0  0  0
   24.5933   65.2448    2.5905 H   0  0  0  0  0  0  0  0  0  0  0  0
 25 28  1  0
 25 24  1  0
 25 26  1  1
 25 27  2  0
  1  4  1  0
  1 24  1  0
  1  2  1  1
  1  3  2  0
  6 11  1  0
  6 12  1  0
 29 36  1  0
 29 37  1  0
  9  7  1  6
  7 13  1  0
 10  8  1  1
  8 14  1  0
 37 28  1  6
  4  5  1  0
 33 30  1  6
 30 38  1  0
 34 31  1  6
 31 39  1  0
 35 32  1  6
 32 40  1  0
 41 42  1  0
 41 43  1  0
 15 19  2  0
 16 22  2  0
 12 17  1  6
 17 19  1  0
 17 20  1  0
 18 19  1  0
 18 22  1  0
 18 23  1  0
  9 10  1  0
  9 11  1  0
 10 12  1  0
 11  5  1  6
 33 34  1  0
 33 35  1  0
 34 36  1  0
 35 37  1  0
 36 42  1  1
 20 21  2  0
 21 22  1  0
M  CHG  2   2  -1  26  -1
M  END
>  <COMPND>  (142) 
    8629 

>  <AUTHOR>  (142) 
    GENERATED BY OPEN BABEL 3.1.1

>  <MASTER>  (142) 
        0    0    0    0    0    0    0    0   58    0   58    0

>  <minimizedAffinity>  (142) 
-9.69821

>  <CNNscore>  (142) 
0.7784472108

>  <CNNaffinity>  (142) 
5.0297970772

>  <CNN_VS>  (142) 
3.9154314995

>  <CNNaffinity_variance>  (142) 
0.0460933819

$$$$
143
     RDKit          3D

 43 45  0  0  0  0  0  0  0  0999 V2000
   21.3957   73.6167   -5.0366 P   0  0  2  0  0  0  0  0  0  0  0  0
   21.4302   75.2291   -5.1648 O   0  0  0  0  0  0  0  0  0  0  0  0
   21.9998   72.8758   -6.1931 O   0  0  0  0  0  0  0  0  0  0  0  0
   19.8433   73.2851   -4.7235 O   0  0  0  0  0  0  0  0  0  0  0  0
   19.5451   72.3194   -3.7304 C   0  0  0  0  0  0  0  0  0  0  0  0
   17.5593   72.2211   -5.0797 O   0  0  0  0  0  0  0  0  0  0  0  0
   16.3432   70.6378   -2.8425 O   0  0  0  0  0  0  0  0  0  0  0  0
   17.0091   68.7037   -4.6459 O   0  0  0  0  0  0  0  0  0  0  0  0
   17.6850   70.6311   -3.3270 C   0  0  1  0  0  0  0  0  0  0  0  0
   17.7625   69.8992   -4.6505 C   0  0  2  0  0  0  0  0  0  0  0  0
   18.0456   72.0556   -3.7297 C   0  0  1  0  0  0  0  0  0  0  0  0
   17.2104   70.9343   -5.6158 C   0  0  2  0  0  0  0  0  0  0  0  0
   16.0903   69.7387   -2.5788 H   0  0  0  0  0  0  0  0  0  0  0  0
   17.3998   68.0775   -4.0166 H   0  0  0  0  0  0  0  0  0  0  0  0
   15.7244   70.2857   -7.9286 O   0  0  0  0  0  0  0  0  0  0  0  0
   19.4668   70.4829  -10.6113 O   0  0  0  0  0  0  0  0  0  0  0  0
   17.7710   70.8099   -6.9318 N   0  0  0  0  0  0  0  0  0  0  0  0
   17.5890   70.3846   -9.2625 N   0  0  0  0  0  0  0  0  0  0  0  0
   16.9379   70.4794   -8.0259 C   0  0  0  0  0  0  0  0  0  0  0  0
   19.1324   71.0152   -7.1273 C   0  0  0  0  0  0  0  0  0  0  0  0
   19.7381   70.9198   -8.3128 C   0  0  0  0  0  0  0  0  0  0  0  0
   18.9392   70.5782   -9.5075 C   0  0  0  0  0  0  0  0  0  0  0  0
   17.0287   70.1550  -10.0392 H   0  0  0  0  0  0  0  0  0  0  0  0
   22.1180   73.3496   -3.6153 O   0  0  0  0  0  0  0  0  0  0  0  0
   23.6805   73.3550   -3.2011 P   0  0  2  0  0  0  0  0  0  0  0  0
   23.8454   74.7470   -2.3933 O   0  0  0  0  0  0  0  0  0  0  0  0
   24.6243   73.1946   -4.3575 O   0  0  0  0  0  0  0  0  0  0  0  0
   23.8073   72.2101   -2.0705 O   0  0  0  0  0  0  0  0  0  0  0  0
   24.0060   69.8643   -2.3430 O   0  0  0  0  0  0  0  0  0  0  0  0
   21.7660   69.9382    1.1251 O   0  0  0  0  0  0  0  0  0  0  0  0
   24.5345   69.1832    1.2411 O   0  0  0  0  0  0  0  0  0  0  0  0
   21.2488   71.8684   -0.9693 O   0  0  0  0  0  0  0  0  0  0  0  0
   22.7569   70.4018    0.2039 C   0  0  1  0  0  0  0  0  0  0  0  0
   23.8001   69.2970    0.0254 C   0  0  1  0  0  0  0  0  0  0  0  0
   22.0856   70.7279   -1.1290 C   0  0  2  0  0  0  0  0  0  0  0  0
   24.7450   69.6107   -1.1424 C   0  0  1  0  0  0  0  0  0  0  0  0
   23.1143   70.9755   -2.2338 C   0  0  1  0  0  0  0  0  0  0  0  0
   22.1856   69.7299    1.9737 H   0  0  0  0  0  0  0  0  0  0  0  0
   23.9262   68.9855    1.9705 H   0  0  0  0  0  0  0  0  0  0  0  0
   20.6019   71.6989   -0.2674 H   0  0  0  0  0  0  0  0  0  0  0  0
   25.3222   67.3495   -0.6296 O   0  0  0  0  0  0  0  0  0  0  0  0
   25.6928   68.4505   -1.4387 C   0  0  0  0  0  0  0  0  0  0  0  0
   25.9167   66.6035   -0.8077 H   0  0  0  0  0  0  0  0  0  0  0  0
 25 28  1  0
 25 24  1  0
 25 26  1  1
 25 27  2  0
  1  4  1  0
  1 24  1  0
  1  2  1  6
  1  3  2  0
  6 11  1  0
  6 12  1  0
 29 36  1  0
 29 37  1  0
  9  7  1  6
  7 13  1  0
 10  8  1  1
  8 14  1  0
 37 28  1  1
  4  5  1  0
 33 30  1  1
 30 38  1  0
 34 31  1  1
 31 39  1  0
 35 32  1  1
 32 40  1  0
 41 42  1  0
 41 43  1  0
 15 19  2  0
 16 22  2  0
 12 17  1  6
 17 19  1  0
 17 20  1  0
 18 19  1  0
 18 22  1  0
 18 23  1  0
  9 10  1  0
  9 11  1  0
 10 12  1  0
 11  5  1  6
 33 34  1  0
 33 35  1  0
 34 36  1  0
 35 37  1  0
 36 42  1  6
 20 21  2  0
 21 22  1  0
M  CHG  2   2  -1  26  -1
M  END
>  <COMPND>  (143) 
    8629 

>  <AUTHOR>  (143) 
    GENERATED BY OPEN BABEL 3.1.1

>  <MASTER>  (143) 
        0    0    0    0    0    0    0    0   58    0   58    0

>  <minimizedAffinity>  (143) 
-8.24157

>  <CNNscore>  (143) 
0.7011150718

>  <CNNaffinity>  (143) 
4.5667891502

>  <CNN_VS>  (143) 
3.2018446922

>  <CNNaffinity_variance>  (143) 
0.0898860842

$$$$
144
     RDKit          3D

 43 45  0  0  0  0  0  0  0  0999 V2000
   21.2228   72.2986   -5.2893 P   0  0  2  0  0  0  0  0  0  0  0  0
   20.3760   71.3539   -4.2854 O   0  0  0  0  0  0  0  0  0  0  0  0
   20.7535   73.7216   -5.3674 O   0  0  0  0  0  0  0  0  0  0  0  0
   21.2220   71.4808   -6.6855 O   0  0  0  0  0  0  0  0  0  0  0  0
   20.3096   71.8710   -7.6970 C   0  0  0  0  0  0  0  0  0  0  0  0
   19.0091   69.9576   -7.0478 O   0  0  0  0  0  0  0  0  0  0  0  0
   18.1096   69.8335   -9.9055 O   0  0  0  0  0  0  0  0  0  0  0  0
   15.9882   71.0161   -8.6653 O   0  0  0  0  0  0  0  0  0  0  0  0
   18.3811   70.9750   -9.0938 C   0  0  1  0  0  0  0  0  0  0  0  0
   17.2675   71.1823   -8.0886 C   0  0  2  0  0  0  0  0  0  0  0  0
   19.5638   70.6400   -8.1936 C   0  0  1  0  0  0  0  0  0  0  0  0
   17.5816   70.1218   -7.0472 C   0  0  2  0  0  0  0  0  0  0  0  0
   17.3580   70.0236  -10.4893 H   0  0  0  0  0  0  0  0  0  0  0  0
   15.8357   71.7145   -9.3209 H   0  0  0  0  0  0  0  0  0  0  0  0
   16.5150   68.3393   -5.1332 O   0  0  0  0  0  0  0  0  0  0  0  0
   15.9843   71.7029   -2.0274 O   0  0  0  0  0  0  0  0  0  0  0  0
   17.1568   70.5047   -5.7302 N   0  0  0  0  0  0  0  0  0  0  0  0
   16.2518   70.0155   -3.5882 N   0  0  0  0  0  0  0  0  0  0  0  0
   16.6344   69.5322   -4.8460 C   0  0  0  0  0  0  0  0  0  0  0  0
   17.2606   71.8316   -5.3270 C   0  0  0  0  0  0  0  0  0  0  0  0
   16.8901   72.2765   -4.1246 C   0  0  0  0  0  0  0  0  0  0  0  0
   16.3341   71.3248   -3.1412 C   0  0  0  0  0  0  0  0  0  0  0  0
   15.8846   69.3561   -2.9557 H   0  0  0  0  0  0  0  0  0  0  0  0
   22.7409   72.1187   -4.7638 O   0  0  0  0  0  0  0  0  0  0  0  0
   23.5855   72.9403   -3.6573 P   0  0  2  0  0  0  0  0  0  0  0  0
   22.4908   73.9548   -3.0329 O   0  0  0  0  0  0  0  0  0  0  0  0
   24.8156   73.6117   -4.1958 O   0  0  0  0  0  0  0  0  0  0  0  0
   23.8675   71.8710   -2.4817 O   0  0  0  0  0  0  0  0  0  0  0  0
   24.0914   69.5123   -2.4237 O   0  0  0  0  0  0  0  0  0  0  0  0
   21.7718   70.0381    0.9518 O   0  0  0  0  0  0  0  0  0  0  0  0
   24.5430   69.3372    1.2307 O   0  0  0  0  0  0  0  0  0  0  0  0
   21.2873   71.6555   -1.3995 O   0  0  0  0  0  0  0  0  0  0  0  0
   22.7798   70.3814   -0.0029 C   0  0  1  0  0  0  0  0  0  0  0  0
   23.8357   69.2743   -0.0047 C   0  0  1  0  0  0  0  0  0  0  0  0
   22.1367   70.5133   -1.3822 C   0  0  2  0  0  0  0  0  0  0  0  0
   24.8047   69.4348   -1.1839 C   0  0  1  0  0  0  0  0  0  0  0  0
   23.1884   70.6179   -2.4881 C   0  0  1  0  0  0  0  0  0  0  0  0
   22.1735   69.9533    1.8298 H   0  0  0  0  0  0  0  0  0  0  0  0
   23.9196   69.2351    1.9670 H   0  0  0  0  0  0  0  0  0  0  0  0
   20.6258   71.5771   -0.6951 H   0  0  0  0  0  0  0  0  0  0  0  0
   25.2322   67.1657   -0.5694 O   0  0  0  0  0  0  0  0  0  0  0  0
   25.7684   68.2556   -1.2968 C   0  0  0  0  0  0  0  0  0  0  0  0
   25.8349   66.4078   -0.6326 H   0  0  0  0  0  0  0  0  0  0  0  0
 25 28  1  0
 25 24  1  0
 25 26  1  1
 25 27  2  0
  1  4  1  0
  1 24  1  0
  1  2  1  1
  1  3  2  0
  6 11  1  0
  6 12  1  0
 29 36  1  0
 29 37  1  0
  9  7  1  6
  7 13  1  0
 10  8  1  6
  8 14  1  0
 37 28  1  1
  4  5  1  0
 33 30  1  1
 30 38  1  0
 34 31  1  1
 31 39  1  0
 35 32  1  1
 32 40  1  0
 41 42  1  0
 41 43  1  0
 15 19  2  0
 16 22  2  0
 12 17  1  1
 17 19  1  0
 17 20  1  0
 18 19  1  0
 18 22  1  0
 18 23  1  0
  9 10  1  0
  9 11  1  0
 10 12  1  0
 11  5  1  1
 33 34  1  0
 33 35  1  0
 34 36  1  0
 35 37  1  0
 36 42  1  6
 20 21  2  0
 21 22  1  0
M  CHG  2   2  -1  26  -1
M  END
>  <COMPND>  (144) 
    8629 

>  <AUTHOR>  (144) 
    GENERATED BY OPEN BABEL 3.1.1

>  <MASTER>  (144) 
        0    0    0    0    0    0    0    0   58    0   58    0

>  <minimizedAffinity>  (144) 
-8.42243

>  <CNNscore>  (144) 
0.6696672440

>  <CNNaffinity>  (144) 
4.4030556679

>  <CNN_VS>  (144) 
2.9485821724

>  <CNNaffinity_variance>  (144) 
0.5117179155

$$$$
145
     RDKit          3D

 43 45  0  0  0  0  0  0  0  0999 V2000
   22.0573   72.8443   -6.0142 P   0  0  2  0  0  0  0  0  0  0  0  0
   21.9680   74.0865   -7.0469 O   0  0  0  0  0  0  0  0  0  0  0  0
   23.4434   72.5025   -5.5524 O   0  0  0  0  0  0  0  0  0  0  0  0
   21.2539   71.6570   -6.7644 O   0  0  0  0  0  0  0  0  0  0  0  0
   20.3447   72.0021   -7.7950 C   0  0  0  0  0  0  0  0  0  0  0  0
   19.2459   69.9592   -7.1679 O   0  0  0  0  0  0  0  0  0  0  0  0
   18.1897   69.8854   -9.9732 O   0  0  0  0  0  0  0  0  0  0  0  0
   16.0571   70.8293   -8.5598 O   0  0  0  0  0  0  0  0  0  0  0  0
   18.4154   71.0089   -9.1234 C   0  0  1  0  0  0  0  0  0  0  0  0
   17.3509   71.0773   -8.0483 C   0  0  2  0  0  0  0  0  0  0  0  0
   19.6734   70.7356   -8.3084 C   0  0  1  0  0  0  0  0  0  0  0  0
   17.8124   70.0023   -7.0791 C   0  0  2  0  0  0  0  0  0  0  0  0
   17.3914   70.0369  -10.5040 H   0  0  0  0  0  0  0  0  0  0  0  0
   15.8091   71.5405   -9.1709 H   0  0  0  0  0  0  0  0  0  0  0  0
   16.2868   68.2760   -5.4449 O   0  0  0  0  0  0  0  0  0  0  0  0
   16.4331   71.2101   -1.8937 O   0  0  0  0  0  0  0  0  0  0  0  0
   17.4376   70.2898   -5.7233 N   0  0  0  0  0  0  0  0  0  0  0  0
   16.3610   69.7383   -3.6780 N   0  0  0  0  0  0  0  0  0  0  0  0
   16.6692   69.3559   -4.9898 C   0  0  0  0  0  0  0  0  0  0  0  0
   17.8315   71.4864   -5.1343 C   0  0  0  0  0  0  0  0  0  0  0  0
   17.5283   71.8365   -3.8826 C   0  0  0  0  0  0  0  0  0  0  0  0
   16.7283   70.9169   -3.0481 C   0  0  0  0  0  0  0  0  0  0  0  0
   15.8262   69.1035   -3.1480 H   0  0  0  0  0  0  0  0  0  0  0  0
   21.0430   73.2798   -4.8333 O   0  0  0  0  0  0  0  0  0  0  0  0
   21.3200   73.9573   -3.3921 P   0  0  2  0  0  0  0  0  0  0  0  0
   19.8438   74.4006   -2.9006 O   0  0  0  0  0  0  0  0  0  0  0  0
   22.3245   75.0727   -3.4194 O   0  0  0  0  0  0  0  0  0  0  0  0
   21.7166   72.7234   -2.4301 O   0  0  0  0  0  0  0  0  0  0  0  0
   22.6424   73.1298   -0.2867 O   0  0  0  0  0  0  0  0  0  0  0  0
   23.9907   69.2703   -0.8669 O   0  0  0  0  0  0  0  0  0  0  0  0
   21.8817   69.7671    1.0182 O   0  0  0  0  0  0  0  0  0  0  0  0
   23.9294   71.1273   -3.0866 O   0  0  0  0  0  0  0  0  0  0  0  0
   23.0681   70.3579   -0.9729 C   0  0  1  0  0  0  0  0  0  0  0  0
   22.6795   70.7967    0.4403 C   0  0  1  0  0  0  0  0  0  0  0  0
   23.7348   71.5061   -1.7282 C   0  0  2  0  0  0  0  0  0  0  0  0
   21.9060   72.1219    0.4159 C   0  0  1  0  0  0  0  0  0  0  0  0
   22.9069   72.7901   -1.6492 C   0  0  1  0  0  0  0  0  0  0  0  0
   23.5734   68.5376   -0.3887 H   0  0  0  0  0  0  0  0  0  0  0  0
   22.3816   68.9357    1.0271 H   0  0  0  0  0  0  0  0  0  0  0  0
   24.4550   70.3135   -3.1230 H   0  0  0  0  0  0  0  0  0  0  0  0
   20.5343   71.9709    2.3664 O   0  0  0  0  0  0  0  0  0  0  0  0
   21.6458   72.6582    1.8219 C   0  0  0  0  0  0  0  0  0  0  0  0
   20.3571   72.3016    3.2613 H   0  0  0  0  0  0  0  0  0  0  0  0
 25 28  1  0
 25 24  1  0
 25 26  1  1
 25 27  2  0
  1  4  1  0
  1 24  1  0
  1  2  1  6
  1  3  2  0
  6 11  1  0
  6 12  1  0
 29 36  1  0
 29 37  1  0
  9  7  1  6
  7 13  1  0
 10  8  1  6
  8 14  1  0
 37 28  1  6
  4  5  1  0
 33 30  1  1
 30 38  1  0
 34 31  1  6
 31 39  1  0
 35 32  1  6
 32 40  1  0
 41 42  1  0
 41 43  1  0
 15 19  2  0
 16 22  2  0
 12 17  1  1
 17 19  1  0
 17 20  1  0
 18 19  1  0
 18 22  1  0
 18 23  1  0
  9 10  1  0
  9 11  1  0
 10 12  1  0
 11  5  1  1
 33 34  1  0
 33 35  1  0
 34 36  1  0
 35 37  1  0
 36 42  1  1
 20 21  2  0
 21 22  1  0
M  CHG  2   2  -1  26  -1
M  END
>  <COMPND>  (145) 
    8629 

>  <AUTHOR>  (145) 
    GENERATED BY OPEN BABEL 3.1.1

>  <MASTER>  (145) 
        0    0    0    0    0    0    0    0   58    0   58    0

>  <minimizedAffinity>  (145) 
-7.54846

>  <CNNscore>  (145) 
0.6440952420

>  <CNNaffinity>  (145) 
4.4099206924

>  <CNN_VS>  (145) 
2.8404090405

>  <CNNaffinity_variance>  (145) 
0.3613762259

$$$$
146
     RDKit          3D

 43 45  0  0  0  0  0  0  0  0999 V2000
   23.1081   73.8867   -4.6990 P   0  0  2  0  0  0  0  0  0  0  0  0
   24.2456   72.7610   -4.4619 O   0  0  0  0  0  0  0  0  0  0  0  0
   23.5080   75.0097   -5.6102 O   0  0  0  0  0  0  0  0  0  0  0  0
   22.6708   74.3183   -3.2022 O   0  0  0  0  0  0  0  0  0  0  0  0
   23.3134   73.6949   -2.1039 C   0  0  0  0  0  0  0  0  0  0  0  0
   23.2915   71.6300   -0.8753 O   0  0  0  0  0  0  0  0  0  0  0  0
   20.3225   71.9983   -0.6740 O   0  0  0  0  0  0  0  0  0  0  0  0
   21.1907   72.8176    1.7778 O   0  0  0  0  0  0  0  0  0  0  0  0
   21.3576   72.9796   -0.6423 C   0  0  1  0  0  0  0  0  0  0  0  0
   22.0813   72.9378    0.6873 C   0  0  2  0  0  0  0  0  0  0  0  0
   22.4484   72.5425   -1.6121 C   0  0  1  0  0  0  0  0  0  0  0  0
   22.9722   71.7182    0.5229 C   0  0  2  0  0  0  0  0  0  0  0  0
   19.6142   72.2559   -0.0626 H   0  0  0  0  0  0  0  0  0  0  0  0
   20.6462   73.6179    1.8405 H   0  0  0  0  0  0  0  0  0  0  0  0
   24.6198   69.5296    1.2111 O   0  0  0  0  0  0  0  0  0  0  0  0
   27.6251   72.2474    3.4074 O   0  0  0  0  0  0  0  0  0  0  0  0
   24.1913   71.8252    1.2738 N   0  0  0  0  0  0  0  0  0  0  0  0
   26.1149   70.8847    2.3040 N   0  0  0  0  0  0  0  0  0  0  0  0
   24.9443   70.6644    1.5670 C   0  0  0  0  0  0  0  0  0  0  0  0
   24.6289   73.0707    1.7108 C   0  0  0  0  0  0  0  0  0  0  0  0
   25.7469   73.2636    2.4137 C   0  0  0  0  0  0  0  0  0  0  0  0
   26.5914   72.1028    2.7621 C   0  0  0  0  0  0  0  0  0  0  0  0
   26.6555   70.0905    2.5203 H   0  0  0  0  0  0  0  0  0  0  0  0
   21.8424   73.0221   -5.2122 O   0  0  0  0  0  0  0  0  0  0  0  0
   20.2531   73.2606   -5.0380 P   0  0  2  0  0  0  0  0  0  0  0  0
   20.0849   74.8478   -5.3026 O   0  0  0  0  0  0  0  0  0  0  0  0
   19.7007   72.7898   -3.7238 O   0  0  0  0  0  0  0  0  0  0  0  0
   19.5906   72.5591   -6.3318 O   0  0  0  0  0  0  0  0  0  0  0  0
   18.7457   70.3832   -5.9216 O   0  0  0  0  0  0  0  0  0  0  0  0
   18.6397   70.3648  -10.0495 O   0  0  0  0  0  0  0  0  0  0  0  0
   16.1854   70.5445   -8.5689 O   0  0  0  0  0  0  0  0  0  0  0  0
   20.8428   71.6358   -8.6673 O   0  0  0  0  0  0  0  0  0  0  0  0
   18.5370   70.9444   -8.7460 C   0  0  1  0  0  0  0  0  0  0  0  0
   17.4377   70.2071   -7.9787 C   0  0  1  0  0  0  0  0  0  0  0  0
   19.8791   70.8041   -8.0302 C   0  0  2  0  0  0  0  0  0  0  0  0
   17.4481   70.5889   -6.4924 C   0  0  1  0  0  0  0  0  0  0  0  0
   19.7681   71.1615   -6.5469 C   0  0  1  0  0  0  0  0  0  0  0  0
   17.7910   70.4510  -10.5096 H   0  0  0  0  0  0  0  0  0  0  0  0
   16.1922   70.2988   -9.5074 H   0  0  0  0  0  0  0  0  0  0  0  0
   20.9039   71.3995   -9.6055 H   0  0  0  0  0  0  0  0  0  0  0  0
   17.0739   68.5062   -5.3827 O   0  0  0  0  0  0  0  0  0  0  0  0
   16.4650   69.7495   -5.6793 C   0  0  0  0  0  0  0  0  0  0  0  0
   16.4598   67.9615   -4.8652 H   0  0  0  0  0  0  0  0  0  0  0  0
 25 28  1  0
 25 24  1  0
 25 26  1  6
 25 27  2  0
  1  4  1  0
  1 24  1  0
  1  2  1  1
  1  3  2  0
  6 11  1  0
  6 12  1  0
 29 36  1  0
 29 37  1  0
  9  7  1  1
  7 13  1  0
 10  8  1  1
  8 14  1  0
 37 28  1  6
  4  5  1  0
 33 30  1  6
 30 38  1  0
 34 31  1  6
 31 39  1  0
 35 32  1  6
 32 40  1  0
 41 42  1  0
 41 43  1  0
 15 19  2  0
 16 22  2  0
 12 17  1  1
 17 19  1  0
 17 20  1  0
 18 19  1  0
 18 22  1  0
 18 23  1  0
  9 10  1  0
  9 11  1  0
 10 12  1  0
 11  5  1  1
 33 34  1  0
 33 35  1  0
 34 36  1  0
 35 37  1  0
 36 42  1  1
 20 21  2  0
 21 22  1  0
M  CHG  2   2  -1  26  -1
M  END
>  <COMPND>  (146) 
    8629 

>  <AUTHOR>  (146) 
    GENERATED BY OPEN BABEL 3.1.1

>  <MASTER>  (146) 
        0    0    0    0    0    0    0    0   58    0   58    0

>  <minimizedAffinity>  (146) 
-7.17877

>  <CNNscore>  (146) 
0.6274170280

>  <CNNaffinity>  (146) 
4.3962707520

>  <CNN_VS>  (146) 
2.7582950592

>  <CNNaffinity_variance>  (146) 
0.0527237765

$$$$
147
     RDKit          3D

 43 45  0  0  0  0  0  0  0  0999 V2000
   21.1811   71.2501   -2.6223 P   0  0  2  0  0  0  0  0  0  0  0  0
   19.7594   70.5365   -2.3273 O   0  0  0  0  0  0  0  0  0  0  0  0
   22.3764   70.3491   -2.5175 O   0  0  0  0  0  0  0  0  0  0  0  0
   21.1818   72.5356   -1.6397 O   0  0  0  0  0  0  0  0  0  0  0  0
   20.2176   72.5947   -0.6030 C   0  0  0  0  0  0  0  0  0  0  0  0
   22.2727   72.3629    0.6203 O   0  0  0  0  0  0  0  0  0  0  0  0
   20.5638   72.0216    3.0603 O   0  0  0  0  0  0  0  0  0  0  0  0
   21.3716   74.6187    3.2589 O   0  0  0  0  0  0  0  0  0  0  0  0
   20.3566   72.8585    1.9237 C   0  0  1  0  0  0  0  0  0  0  0  0
   21.2931   74.0478    1.9687 C   0  0  2  0  0  0  0  0  0  0  0  0
   20.8525   72.1096    0.6930 C   0  0  1  0  0  0  0  0  0  0  0  0
   22.6075   73.4311    1.5213 C   0  0  2  0  0  0  0  0  0  0  0  0
   20.2543   72.4785    3.8587 H   0  0  0  0  0  0  0  0  0  0  0  0
   20.5113   74.9976    3.4979 H   0  0  0  0  0  0  0  0  0  0  0  0
   25.3324   73.8669    2.1239 O   0  0  0  0  0  0  0  0  0  0  0  0
   25.7377   77.0664   -1.1686 O   0  0  0  0  0  0  0  0  0  0  0  0
   23.4491   74.3717    0.8372 N   0  0  0  0  0  0  0  0  0  0  0  0
   25.5320   75.4595    0.4839 N   0  0  0  0  0  0  0  0  0  0  0  0
   24.8038   74.5146    1.2179 C   0  0  0  0  0  0  0  0  0  0  0  0
   22.9300   75.1403   -0.1991 C   0  0  0  0  0  0  0  0  0  0  0  0
   23.6374   76.0379   -0.8883 C   0  0  0  0  0  0  0  0  0  0  0  0
   25.0606   76.2484   -0.5535 C   0  0  0  0  0  0  0  0  0  0  0  0
   26.4779   75.5764    0.7318 H   0  0  0  0  0  0  0  0  0  0  0  0
   20.9612   71.9088   -4.0820 O   0  0  0  0  0  0  0  0  0  0  0  0
   19.8325   72.9298   -4.6268 P   0  0  2  0  0  0  0  0  0  0  0  0
   20.6808   74.2562   -4.9992 O   0  0  0  0  0  0  0  0  0  0  0  0
   18.7024   73.1666   -3.6674 O   0  0  0  0  0  0  0  0  0  0  0  0
   19.3834   72.3196   -6.0519 O   0  0  0  0  0  0  0  0  0  0  0  0
   18.7244   70.1040   -5.5292 O   0  0  0  0  0  0  0  0  0  0  0  0
   17.8509   70.1175   -9.5650 O   0  0  0  0  0  0  0  0  0  0  0  0
   15.7106   70.1721   -7.6508 O   0  0  0  0  0  0  0  0  0  0  0  0
   20.2164   71.4751   -8.5951 O   0  0  0  0  0  0  0  0  0  0  0  0
   17.9683   70.6801   -8.2554 C   0  0  1  0  0  0  0  0  0  0  0  0
   17.0643   69.8868   -7.3098 C   0  0  1  0  0  0  0  0  0  0  0  0
   19.4252   70.5947   -7.8042 C   0  0  2  0  0  0  0  0  0  0  0  0
   17.3355   70.2554   -5.8450 C   0  0  1  0  0  0  0  0  0  0  0  0
   19.5777   70.9335   -6.3203 C   0  0  1  0  0  0  0  0  0  0  0  0
   16.9283   70.1690   -9.8576 H   0  0  0  0  0  0  0  0  0  0  0  0
   15.5527   69.9353   -8.5783 H   0  0  0  0  0  0  0  0  0  0  0  0
   20.1115   71.2501   -9.5322 H   0  0  0  0  0  0  0  0  0  0  0  0
   15.9526   68.3204   -5.6168 O   0  0  0  0  0  0  0  0  0  0  0  0
   16.5585   69.3650   -4.8778 C   0  0  0  0  0  0  0  0  0  0  0  0
   15.4547   67.7454   -5.0141 H   0  0  0  0  0  0  0  0  0  0  0  0
 25 28  1  0
 25 24  1  0
 25 26  1  6
 25 27  2  0
  1  4  1  0
  1 24  1  0
  1  2  1  1
  1  3  2  0
  6 11  1  0
  6 12  1  0
 29 36  1  0
 29 37  1  0
  9  7  1  1
  7 13  1  0
 10  8  1  1
  8 14  1  0
 37 28  1  6
  4  5  1  0
 33 30  1  6
 30 38  1  0
 34 31  1  6
 31 39  1  0
 35 32  1  6
 32 40  1  0
 41 42  1  0
 41 43  1  0
 15 19  2  0
 16 22  2  0
 12 17  1  6
 17 19  1  0
 17 20  1  0
 18 19  1  0
 18 22  1  0
 18 23  1  0
  9 10  1  0
  9 11  1  0
 10 12  1  0
 11  5  1  6
 33 34  1  0
 33 35  1  0
 34 36  1  0
 35 37  1  0
 36 42  1  1
 20 21  2  0
 21 22  1  0
M  CHG  2   2  -1  26  -1
M  END
>  <COMPND>  (147) 
    8629 

>  <AUTHOR>  (147) 
    GENERATED BY OPEN BABEL 3.1.1

>  <MASTER>  (147) 
        0    0    0    0    0    0    0    0   58    0   58    0

>  <minimizedAffinity>  (147) 
-6.26285

>  <CNNscore>  (147) 
0.6250773072

>  <CNNaffinity>  (147) 
4.1271314621

>  <CNN_VS>  (147) 
2.5797762871

>  <CNNaffinity_variance>  (147) 
0.1592433155

$$$$
148
     RDKit          3D

 43 45  0  0  0  0  0  0  0  0999 V2000
   22.2465   72.7721   -6.1162 P   0  0  2  0  0  0  0  0  0  0  0  0
   22.7437   73.6161   -7.4038 O   0  0  0  0  0  0  0  0  0  0  0  0
   23.3415   72.3079   -5.2013 O   0  0  0  0  0  0  0  0  0  0  0  0
   21.3192   71.6073   -6.7497 O   0  0  0  0  0  0  0  0  0  0  0  0
   20.4873   71.9293   -7.8507 C   0  0  0  0  0  0  0  0  0  0  0  0
   19.2314   70.0213   -7.1048 O   0  0  0  0  0  0  0  0  0  0  0  0
   18.2301   69.8133   -9.9235 O   0  0  0  0  0  0  0  0  0  0  0  0
   16.1428   71.0079   -8.6379 O   0  0  0  0  0  0  0  0  0  0  0  0
   18.5189   70.9783   -9.1523 C   0  0  1  0  0  0  0  0  0  0  0  0
   17.4404   71.2015   -8.1128 C   0  0  2  0  0  0  0  0  0  0  0  0
   19.7370   70.6785   -8.2875 C   0  0  1  0  0  0  0  0  0  0  0  0
   17.8032   70.1718   -7.0563 C   0  0  2  0  0  0  0  0  0  0  0  0
   17.4559   69.9807  -10.4842 H   0  0  0  0  0  0  0  0  0  0  0  0
   15.9593   71.6872   -9.3054 H   0  0  0  0  0  0  0  0  0  0  0  0
   16.5329   68.5018   -5.1655 O   0  0  0  0  0  0  0  0  0  0  0  0
   16.3878   71.8662   -2.0189 O   0  0  0  0  0  0  0  0  0  0  0  0
   17.4225   70.5853   -5.7351 N   0  0  0  0  0  0  0  0  0  0  0  0
   16.4618   70.1783   -3.6002 N   0  0  0  0  0  0  0  0  0  0  0  0
   16.7889   69.6692   -4.8635 C   0  0  0  0  0  0  0  0  0  0  0  0
   17.6782   71.8863   -5.3155 C   0  0  0  0  0  0  0  0  0  0  0  0
   17.3588   72.3565   -4.1080 C   0  0  0  0  0  0  0  0  0  0  0  0
   16.6941   71.4636   -3.1369 C   0  0  0  0  0  0  0  0  0  0  0  0
   16.0193   69.5581   -2.9762 H   0  0  0  0  0  0  0  0  0  0  0  0
   21.1685   73.7606   -5.4279 O   0  0  0  0  0  0  0  0  0  0  0  0
   21.3561   74.9500   -4.3494 P   0  0  2  0  0  0  0  0  0  0  0  0
   19.8987   75.6516   -4.3136 O   0  0  0  0  0  0  0  0  0  0  0  0
   22.4873   75.8876   -4.6579 O   0  0  0  0  0  0  0  0  0  0  0  0
   21.4807   74.1964   -2.9276 O   0  0  0  0  0  0  0  0  0  0  0  0
   21.3582   71.8757   -2.4628 O   0  0  0  0  0  0  0  0  0  0  0  0
   19.6001   73.3316    0.9782 O   0  0  0  0  0  0  0  0  0  0  0  0
   22.2492   72.2288    1.0968 O   0  0  0  0  0  0  0  0  0  0  0  0
   19.0596   74.5997   -1.5673 O   0  0  0  0  0  0  0  0  0  0  0  0
   20.5153   73.3387   -0.1208 C   0  0  1  0  0  0  0  0  0  0  0  0
   21.3861   72.0843   -0.0278 C   0  0  1  0  0  0  0  0  0  0  0  0
   19.7253   73.3491   -1.4282 C   0  0  2  0  0  0  0  0  0  0  0  0
   22.2068   71.8834   -1.3089 C   0  0  1  0  0  0  0  0  0  0  0  0
   20.6284   73.0920   -2.6358 C   0  0  1  0  0  0  0  0  0  0  0  0
   20.0953   73.3255    1.8114 H   0  0  0  0  0  0  0  0  0  0  0  0
   21.7185   72.3554    1.8990 H   0  0  0  0  0  0  0  0  0  0  0  0
   18.4909   74.7506   -0.7968 H   0  0  0  0  0  0  0  0  0  0  0  0
   24.1621   70.7259   -0.5700 O   0  0  0  0  0  0  0  0  0  0  0  0
   22.9622   70.5562   -1.3019 C   0  0  0  0  0  0  0  0  0  0  0  0
   24.6533   69.8891   -0.5568 H   0  0  0  0  0  0  0  0  0  0  0  0
 25 28  1  0
 25 24  1  0
 25 26  1  1
 25 27  2  0
  1  4  1  0
  1 24  1  0
  1  2  1  6
  1  3  2  0
  6 11  1  0
  6 12  1  0
 29 36  1  0
 29 37  1  0
  9  7  1  6
  7 13  1  0
 10  8  1  6
  8 14  1  0
 37 28  1  1
  4  5  1  0
 33 30  1  1
 30 38  1  0
 34 31  1  1
 31 39  1  0
 35 32  1  6
 32 40  1  0
 41 42  1  0
 41 43  1  0
 15 19  2  0
 16 22  2  0
 12 17  1  1
 17 19  1  0
 17 20  1  0
 18 19  1  0
 18 22  1  0
 18 23  1  0
  9 10  1  0
  9 11  1  0
 10 12  1  0
 11  5  1  1
 33 34  1  0
 33 35  1  0
 34 36  1  0
 35 37  1  0
 36 42  1  1
 20 21  2  0
 21 22  1  0
M  CHG  2   2  -1  26  -1
M  END
>  <COMPND>  (148) 
    8629 

>  <AUTHOR>  (148) 
    GENERATED BY OPEN BABEL 3.1.1

>  <MASTER>  (148) 
        0    0    0    0    0    0    0    0   58    0   58    0

>  <minimizedAffinity>  (148) 
-6.09193

>  <CNNscore>  (148) 
0.6169759035

>  <CNNaffinity>  (148) 
4.3433141708

>  <CNN_VS>  (148) 
2.6797201633

>  <CNNaffinity_variance>  (148) 
0.2092378139

$$$$
149
     RDKit          3D

 43 45  0  0  0  0  0  0  0  0999 V2000
   23.1082   70.9017   -2.7148 P   0  0  2  0  0  0  0  0  0  0  0  0
   24.1997   71.9149   -3.3468 O   0  0  0  0  0  0  0  0  0  0  0  0
   23.5588   69.4750   -2.6016 O   0  0  0  0  0  0  0  0  0  0  0  0
   21.7830   71.1512   -3.6090 O   0  0  0  0  0  0  0  0  0  0  0  0
   21.4255   72.4841   -3.9307 C   0  0  0  0  0  0  0  0  0  0  0  0
   20.9659   71.5308   -6.0879 O   0  0  0  0  0  0  0  0  0  0  0  0
   21.3619   74.2930   -7.1852 O   0  0  0  0  0  0  0  0  0  0  0  0
   18.6453   74.0672   -7.1098 O   0  0  0  0  0  0  0  0  0  0  0  0
   20.7745   73.8887   -5.9496 C   0  0  1  0  0  0  0  0  0  0  0  0
   19.3976   73.3048   -6.1881 C   0  0  2  0  0  0  0  0  0  0  0  0
   21.5476   72.6807   -5.4355 C   0  0  1  0  0  0  0  0  0  0  0  0
   19.7299   71.9175   -6.7106 C   0  0  2  0  0  0  0  0  0  0  0  0
   20.8851   75.0635   -7.5329 H   0  0  0  0  0  0  0  0  0  0  0  0
   18.4594   74.9407   -6.7314 H   0  0  0  0  0  0  0  0  0  0  0  0
   17.8652   70.8671   -8.5539 O   0  0  0  0  0  0  0  0  0  0  0  0
   15.8988   68.2190   -5.3349 O   0  0  0  0  0  0  0  0  0  0  0  0
   18.7198   70.9518   -6.3814 N   0  0  0  0  0  0  0  0  0  0  0  0
   16.8877   69.5493   -6.9496 N   0  0  0  0  0  0  0  0  0  0  0  0
   17.8321   70.4896   -7.3808 C   0  0  0  0  0  0  0  0  0  0  0  0
   18.6169   70.4728   -5.0799 C   0  0  0  0  0  0  0  0  0  0  0  0
   17.7099   69.5771   -4.6846 C   0  0  0  0  0  0  0  0  0  0  0  0
   16.7447   69.0434   -5.6673 C   0  0  0  0  0  0  0  0  0  0  0  0
   16.2585   69.2133   -7.6286 H   0  0  0  0  0  0  0  0  0  0  0  0
   22.7339   71.6027   -1.3071 O   0  0  0  0  0  0  0  0  0  0  0  0
   21.8513   71.0749   -0.0599 P   0  0  2  0  0  0  0  0  0  0  0  0
   22.7532   69.8798    0.5534 O   0  0  0  0  0  0  0  0  0  0  0  0
   20.4520   70.6705   -0.4237 O   0  0  0  0  0  0  0  0  0  0  0  0
   21.9427   72.2574    1.0347 O   0  0  0  0  0  0  0  0  0  0  0  0
   21.4309   72.5374    3.3317 O   0  0  0  0  0  0  0  0  0  0  0  0
   19.6259   75.9361    1.8346 O   0  0  0  0  0  0  0  0  0  0  0  0
   22.0575   76.1700    3.3447 O   0  0  0  0  0  0  0  0  0  0  0  0
   19.5032   73.4591    0.3417 O   0  0  0  0  0  0  0  0  0  0  0  0
   20.6222   74.9123    1.9029 C   0  0  1  0  0  0  0  0  0  0  0  0
   21.2819   74.9764    3.2818 C   0  0  1  0  0  0  0  0  0  0  0  0
   19.9576   73.5539    1.6874 C   0  0  2  0  0  0  0  0  0  0  0  0
   22.1692   73.7489    3.5290 C   0  0  1  0  0  0  0  0  0  0  0  0
   20.9112   72.4014    2.0076 C   0  0  1  0  0  0  0  0  0  0  0  0
   20.0414   76.8013    1.9701 H   0  0  0  0  0  0  0  0  0  0  0  0
   21.4855   76.9375    3.1865 H   0  0  0  0  0  0  0  0  0  0  0  0
   18.9002   74.1939    0.1516 H   0  0  0  0  0  0  0  0  0  0  0  0
   22.3957   72.4563    5.5257 O   0  0  0  0  0  0  0  0  0  0  0  0
   22.7115   73.7133    4.9562 C   0  0  0  0  0  0  0  0  0  0  0  0
   22.7351   72.4192    6.4341 H   0  0  0  0  0  0  0  0  0  0  0  0
 25 28  1  0
 25 24  1  0
 25 26  1  1
 25 27  2  0
  1  4  1  0
  1 24  1  0
  1  2  1  6
  1  3  2  0
  6 11  1  0
  6 12  1  0
 29 36  1  0
 29 37  1  0
  9  7  1  6
  7 13  1  0
 10  8  1  6
  8 14  1  0
 37 28  1  6
  4  5  1  0
 33 30  1  1
 30 38  1  0
 34 31  1  6
 31 39  1  0
 35 32  1  6
 32 40  1  0
 41 42  1  0
 41 43  1  0
 15 19  2  0
 16 22  2  0
 12 17  1  1
 17 19  1  0
 17 20  1  0
 18 19  1  0
 18 22  1  0
 18 23  1  0
  9 10  1  0
  9 11  1  0
 10 12  1  0
 11  5  1  1
 33 34  1  0
 33 35  1  0
 34 36  1  0
 35 37  1  0
 36 42  1  1
 20 21  2  0
 21 22  1  0
M  CHG  2   2  -1  26  -1
M  END
>  <COMPND>  (149) 
    8629 

>  <AUTHOR>  (149) 
    GENERATED BY OPEN BABEL 3.1.1

>  <MASTER>  (149) 
        0    0    0    0    0    0    0    0   58    0   58    0

>  <minimizedAffinity>  (149) 
-6.49011

>  <CNNscore>  (149) 
0.6012336016

>  <CNNaffinity>  (149) 
4.1195602417

>  <CNN_VS>  (149) 
2.4768180847

>  <CNNaffinity_variance>  (149) 
0.0789639503

$$$$
150
     RDKit          3D

 43 45  0  0  0  0  0  0  0  0999 V2000
   23.0744   71.2575   -2.8544 P   0  0  2  0  0  0  0  0  0  0  0  0
   24.1785   72.1448   -3.6362 O   0  0  0  0  0  0  0  0  0  0  0  0
   23.5857   69.9665   -2.2860 O   0  0  0  0  0  0  0  0  0  0  0  0
   21.8598   71.1260   -3.9152 O   0  0  0  0  0  0  0  0  0  0  0  0
   21.6919   72.1492   -4.8810 C   0  0  0  0  0  0  0  0  0  0  0  0
   20.5326   70.3759   -6.0147 O   0  0  0  0  0  0  0  0  0  0  0  0
   20.8925   71.9916   -8.5148 O   0  0  0  0  0  0  0  0  0  0  0  0
   18.3039   72.5159   -7.8357 O   0  0  0  0  0  0  0  0  0  0  0  0
   20.6443   72.4353   -7.1818 C   0  0  1  0  0  0  0  0  0  0  0  0
   19.2023   72.1730   -6.8003 C   0  0  2  0  0  0  0  0  0  0  0  0
   21.3975   71.5122   -6.2322 C   0  0  1  0  0  0  0  0  0  0  0  0
   19.2192   70.6817   -6.5108 C   0  0  2  0  0  0  0  0  0  0  0  0
   20.4219   72.5663   -9.1396 H   0  0  0  0  0  0  0  0  0  0  0  0
   18.3296   73.4743   -7.9821 H   0  0  0  0  0  0  0  0  0  0  0  0
   16.5950   69.8194   -7.1006 O   0  0  0  0  0  0  0  0  0  0  0  0
   15.5795   69.2615   -2.6398 O   0  0  0  0  0  0  0  0  0  0  0  0
   18.2480   70.3045   -5.5229 N   0  0  0  0  0  0  0  0  0  0  0  0
   16.0915   69.5421   -4.8790 N   0  0  0  0  0  0  0  0  0  0  0  0
   16.9577   69.8869   -5.9244 C   0  0  0  0  0  0  0  0  0  0  0  0
   18.5789   70.3504   -4.1730 C   0  0  0  0  0  0  0  0  0  0  0  0
   17.7410   70.0195   -3.1883 C   0  0  0  0  0  0  0  0  0  0  0  0
   16.3733   69.5724   -3.5224 C   0  0  0  0  0  0  0  0  0  0  0  0
   15.1870   69.2485   -5.1348 H   0  0  0  0  0  0  0  0  0  0  0  0
   22.4885   72.2903   -1.7575 O   0  0  0  0  0  0  0  0  0  0  0  0
   21.0760   72.3163   -0.9720 P   0  0  2  0  0  0  0  0  0  0  0  0
   20.7966   70.7537   -0.6592 O   0  0  0  0  0  0  0  0  0  0  0  0
   19.9701   73.0060   -1.7172 O   0  0  0  0  0  0  0  0  0  0  0  0
   21.4198   72.9647    0.4654 O   0  0  0  0  0  0  0  0  0  0  0  0
   23.3491   74.1311    1.1962 O   0  0  0  0  0  0  0  0  0  0  0  0
   22.4680   72.0739    4.6664 O   0  0  0  0  0  0  0  0  0  0  0  0
   21.9936   74.9033    4.5361 O   0  0  0  0  0  0  0  0  0  0  0  0
   22.1136   70.7892    2.0966 O   0  0  0  0  0  0  0  0  0  0  0  0
   22.1700   72.7762    3.4567 C   0  0  1  0  0  0  0  0  0  0  0  0
   22.7520   74.1870    3.5655 C   0  0  1  0  0  0  0  0  0  0  0  0
   22.7913   72.0277    2.2789 C   0  0  2  0  0  0  0  0  0  0  0  0
   22.7079   74.9103    2.2128 C   0  0  1  0  0  0  0  0  0  0  0  0
   22.7391   72.8549    0.9932 C   0  0  1  0  0  0  0  0  0  0  0  0
   22.0759   72.5437    5.4181 H   0  0  0  0  0  0  0  0  0  0  0  0
   22.0292   74.4359    5.3854 H   0  0  0  0  0  0  0  0  0  0  0  0
   22.1540   70.2748    2.9174 H   0  0  0  0  0  0  0  0  0  0  0  0
   22.5318   77.2239    2.7829 O   0  0  0  0  0  0  0  0  0  0  0  0
   23.4252   76.2576    2.2610 C   0  0  0  0  0  0  0  0  0  0  0  0
   22.9749   78.0865    2.8197 H   0  0  0  0  0  0  0  0  0  0  0  0
 25 28  1  0
 25 24  1  0
 25 26  1  1
 25 27  2  0
  1  4  1  0
  1 24  1  0
  1  2  1  6
  1  3  2  0
  6 11  1  0
  6 12  1  0
 29 36  1  0
 29 37  1  0
  9  7  1  6
  7 13  1  0
 10  8  1  6
  8 14  1  0
 37 28  1  1
  4  5  1  0
 33 30  1  1
 30 38  1  0
 34 31  1  1
 31 39  1  0
 35 32  1  6
 32 40  1  0
 41 42  1  0
 41 43  1  0
 15 19  2  0
 16 22  2  0
 12 17  1  1
 17 19  1  0
 17 20  1  0
 18 19  1  0
 18 22  1  0
 18 23  1  0
  9 10  1  0
  9 11  1  0
 10 12  1  0
 11  5  1  1
 33 34  1  0
 33 35  1  0
 34 36  1  0
 35 37  1  0
 36 42  1  1
 20 21  2  0
 21 22  1  0
M  CHG  2   2  -1  26  -1
M  END
>  <COMPND>  (150) 
    8629 

>  <AUTHOR>  (150) 
    GENERATED BY OPEN BABEL 3.1.1

>  <MASTER>  (150) 
        0    0    0    0    0    0    0    0   58    0   58    0

>  <minimizedAffinity>  (150) 
-6.53664

>  <CNNscore>  (150) 
0.5820153952

>  <CNNaffinity>  (150) 
4.2271790504

>  <CNN_VS>  (150) 
2.4602832794

>  <CNNaffinity_variance>  (150) 
0.0886411890

$$$$
151
     RDKit          3D

 43 45  0  0  0  0  0  0  0  0999 V2000
   18.4883   73.7999   -0.9419 P   0  0  2  0  0  0  0  0  0  0  0  0
   17.8721   74.3661    0.4427 O   0  0  0  0  0  0  0  0  0  0  0  0
   19.1551   74.8290   -1.8065 O   0  0  0  0  0  0  0  0  0  0  0  0
   17.2529   73.0055   -1.6207 O   0  0  0  0  0  0  0  0  0  0  0  0
   17.4536   72.3958   -2.8839 C   0  0  0  0  0  0  0  0  0  0  0  0
   16.1924   71.0511   -4.4250 O   0  0  0  0  0  0  0  0  0  0  0  0
   16.0308   69.0174   -2.2276 O   0  0  0  0  0  0  0  0  0  0  0  0
   18.0079   68.0182   -3.8180 O   0  0  0  0  0  0  0  0  0  0  0  0
   17.1025   69.8960   -2.5667 C   0  0  1  0  0  0  0  0  0  0  0  0
   17.7986   69.4157   -3.8231 C   0  0  2  0  0  0  0  0  0  0  0  0
   16.4987   71.2182   -3.0234 C   0  0  1  0  0  0  0  0  0  0  0  0
   16.8313   69.8580   -4.9079 C   0  0  2  0  0  0  0  0  0  0  0  0
   16.3918   68.1662   -1.9326 H   0  0  0  0  0  0  0  0  0  0  0  0
   18.6300   67.7869   -3.1108 H   0  0  0  0  0  0  0  0  0  0  0  0
   15.5910   69.7687   -7.4439 O   0  0  0  0  0  0  0  0  0  0  0  0
   19.4762   71.0083   -9.5910 O   0  0  0  0  0  0  0  0  0  0  0  0
   17.4951   70.1531   -6.1464 N   0  0  0  0  0  0  0  0  0  0  0  0
   17.5265   70.3862   -8.5109 N   0  0  0  0  0  0  0  0  0  0  0  0
   16.7817   70.0779   -7.3654 C   0  0  0  0  0  0  0  0  0  0  0  0
   18.8384   70.5127   -6.1441 C   0  0  0  0  0  0  0  0  0  0  0  0
   19.5345   70.8024   -7.2454 C   0  0  0  0  0  0  0  0  0  0  0  0
   18.8635   70.7476   -8.5602 C   0  0  0  0  0  0  0  0  0  0  0  0
   17.0504   70.3401   -9.3717 H   0  0  0  0  0  0  0  0  0  0  0  0
   19.4593   72.6063   -0.4463 O   0  0  0  0  0  0  0  0  0  0  0  0
   20.9206   72.6440    0.2437 P   0  0  2  0  0  0  0  0  0  0  0  0
   20.7389   71.7054    1.5490 O   0  0  0  0  0  0  0  0  0  0  0  0
   21.4256   74.0263    0.5404 O   0  0  0  0  0  0  0  0  0  0  0  0
   21.8625   71.7862   -0.7472 O   0  0  0  0  0  0  0  0  0  0  0  0
   24.0224   72.1834    0.1436 O   0  0  0  0  0  0  0  0  0  0  0  0
   25.0095   69.4427   -2.7829 O   0  0  0  0  0  0  0  0  0  0  0  0
   25.0759   68.6548   -0.0220 O   0  0  0  0  0  0  0  0  0  0  0  0
   22.9760   71.4371   -3.2993 O   0  0  0  0  0  0  0  0  0  0  0  0
   24.1877   70.0265   -1.7685 C   0  0  1  0  0  0  0  0  0  0  0  0
   24.9662   70.0089   -0.4516 C   0  0  1  0  0  0  0  0  0  0  0  0
   23.8418   71.4593   -2.1696 C   0  0  2  0  0  0  0  0  0  0  0  0
   24.2628   70.8538    0.6191 C   0  0  1  0  0  0  0  0  0  0  0  0
   23.1907   72.2267   -1.0175 C   0  0  1  0  0  0  0  0  0  0  0  0
   25.2323   68.5326   -2.5346 H   0  0  0  0  0  0  0  0  0  0  0  0
   25.5213   68.1320   -0.7072 H   0  0  0  0  0  0  0  0  0  0  0  0
   23.3998   70.9488   -4.0217 H   0  0  0  0  0  0  0  0  0  0  0  0
   24.8497   69.8500    2.7064 O   0  0  0  0  0  0  0  0  0  0  0  0
   25.1002   70.9792    1.8900 C   0  0  0  0  0  0  0  0  0  0  0  0
   25.3763   69.9161    3.5189 H   0  0  0  0  0  0  0  0  0  0  0  0
 25 28  1  0
 25 24  1  0
 25 26  1  1
 25 27  2  0
  1  4  1  0
  1 24  1  0
  1  2  1  1
  1  3  2  0
  6 11  1  0
  6 12  1  0
 29 36  1  0
 29 37  1  0
  9  7  1  6
  7 13  1  0
 10  8  1  1
  8 14  1  0
 37 28  1  1
  4  5  1  0
 33 30  1  6
 30 38  1  0
 34 31  1  1
 31 39  1  0
 35 32  1  6
 32 40  1  0
 41 42  1  0
 41 43  1  0
 15 19  2  0
 16 22  2  0
 12 17  1  6
 17 19  1  0
 17 20  1  0
 18 19  1  0
 18 22  1  0
 18 23  1  0
  9 10  1  0
  9 11  1  0
 10 12  1  0
 11  5  1  6
 33 34  1  0
 33 35  1  0
 34 36  1  0
 35 37  1  0
 36 42  1  1
 20 21  2  0
 21 22  1  0
M  CHG  2   2  -1  26  -1
M  END
>  <COMPND>  (151) 
    8629 

>  <AUTHOR>  (151) 
    GENERATED BY OPEN BABEL 3.1.1

>  <MASTER>  (151) 
        0    0    0    0    0    0    0    0   58    0   58    0

>  <minimizedAffinity>  (151) 
-7.04649

>  <CNNscore>  (151) 
0.5406210423

>  <CNNaffinity>  (151) 
4.3852829933

>  <CNN_VS>  (151) 
2.3707761765

>  <CNNaffinity_variance>  (151) 
0.1166974530

$$$$
152
     RDKit          3D

 43 45  0  0  0  0  0  0  0  0999 V2000
   21.2767   72.0188   -5.2881 P   0  0  2  0  0  0  0  0  0  0  0  0
   21.1664   70.6679   -4.4047 O   0  0  0  0  0  0  0  0  0  0  0  0
   20.2669   73.0776   -4.9557 O   0  0  0  0  0  0  0  0  0  0  0  0
   21.2595   71.4863   -6.8159 O   0  0  0  0  0  0  0  0  0  0  0  0
   20.1934   71.8862   -7.6593 C   0  0  0  0  0  0  0  0  0  0  0  0
   18.9130   69.9548   -7.0237 O   0  0  0  0  0  0  0  0  0  0  0  0
   18.0396   69.8227   -9.8891 O   0  0  0  0  0  0  0  0  0  0  0  0
   15.8922   70.9751   -8.6656 O   0  0  0  0  0  0  0  0  0  0  0  0
   18.2890   70.9665   -9.0737 C   0  0  1  0  0  0  0  0  0  0  0  0
   17.1641   71.1576   -8.0778 C   0  0  2  0  0  0  0  0  0  0  0  0
   19.4683   70.6461   -8.1638 C   0  0  1  0  0  0  0  0  0  0  0  0
   17.4835   70.0999   -7.0350 C   0  0  2  0  0  0  0  0  0  0  0  0
   17.2906   70.0035  -10.4791 H   0  0  0  0  0  0  0  0  0  0  0  0
   15.7359   71.6723   -9.3216 H   0  0  0  0  0  0  0  0  0  0  0  0
   16.6082   68.2761   -5.0638 O   0  0  0  0  0  0  0  0  0  0  0  0
   15.8129   71.6537   -2.0306 O   0  0  0  0  0  0  0  0  0  0  0  0
   17.0424   70.4753   -5.7213 N   0  0  0  0  0  0  0  0  0  0  0  0
   16.2131   69.9594   -3.5551 N   0  0  0  0  0  0  0  0  0  0  0  0
   16.6221   69.4817   -4.8067 C   0  0  0  0  0  0  0  0  0  0  0  0
   17.0300   71.8157   -5.3511 C   0  0  0  0  0  0  0  0  0  0  0  0
   16.6359   72.2549   -4.1540 C   0  0  0  0  0  0  0  0  0  0  0  0
   16.1815   71.2814   -3.1403 C   0  0  0  0  0  0  0  0  0  0  0  0
   15.9156   69.2853   -2.9017 H   0  0  0  0  0  0  0  0  0  0  0  0
   22.8154   72.4666   -5.0768 O   0  0  0  0  0  0  0  0  0  0  0  0
   23.5113   73.3646   -3.9269 P   0  0  2  0  0  0  0  0  0  0  0  0
   22.6480   74.7327   -3.9512 O   0  0  0  0  0  0  0  0  0  0  0  0
   24.9885   73.5612   -4.1093 O   0  0  0  0  0  0  0  0  0  0  0  0
   23.0981   72.6464   -2.5418 O   0  0  0  0  0  0  0  0  0  0  0  0
   20.9202   72.7745   -1.6162 O   0  0  0  0  0  0  0  0  0  0  0  0
   23.0719   72.1244    1.8477 O   0  0  0  0  0  0  0  0  0  0  0  0
   21.4409   70.0178    0.7751 O   0  0  0  0  0  0  0  0  0  0  0  0
   24.1547   73.8288   -0.2264 O   0  0  0  0  0  0  0  0  0  0  0  0
   22.7665   71.9832    0.4576 C   0  0  1  0  0  0  0  0  0  0  0  0
   21.3701   71.3706    0.3332 C   0  0  1  0  0  0  0  0  0  0  0  0
   22.8113   73.3586   -0.2055 C   0  0  2  0  0  0  0  0  0  0  0  0
   20.8643   71.4341   -1.1143 C   0  0  1  0  0  0  0  0  0  0  0  0
   22.2407   73.3204   -1.6243 C   0  0  1  0  0  0  0  0  0  0  0  0
   23.0456   71.2545    2.2745 H   0  0  0  0  0  0  0  0  0  0  0  0
   21.7621   69.9917    1.6902 H   0  0  0  0  0  0  0  0  0  0  0  0
   24.5044   73.8486    0.6776 H   0  0  0  0  0  0  0  0  0  0  0  0
   19.2863   70.1874   -2.4046 O   0  0  0  0  0  0  0  0  0  0  0  0
   19.4133   70.9732   -1.2338 C   0  0  0  0  0  0  0  0  0  0  0  0
   18.3680   69.8868   -2.4935 H   0  0  0  0  0  0  0  0  0  0  0  0
 25 28  1  0
 25 24  1  0
 25 26  1  1
 25 27  2  0
  1  4  1  0
  1 24  1  0
  1  2  1  1
  1  3  2  0
  6 11  1  0
  6 12  1  0
 29 36  1  0
 29 37  1  0
  9  7  1  6
  7 13  1  0
 10  8  1  6
  8 14  1  0
 37 28  1  6
  4  5  1  0
 33 30  1  1
 30 38  1  0
 34 31  1  6
 31 39  1  0
 35 32  1  6
 32 40  1  0
 41 42  1  0
 41 43  1  0
 15 19  2  0
 16 22  2  0
 12 17  1  1
 17 19  1  0
 17 20  1  0
 18 19  1  0
 18 22  1  0
 18 23  1  0
  9 10  1  0
  9 11  1  0
 10 12  1  0
 11  5  1  1
 33 34  1  0
 33 35  1  0
 34 36  1  0
 35 37  1  0
 36 42  1  1
 20 21  2  0
 21 22  1  0
M  CHG  2   2  -1  26  -1
M  END
>  <COMPND>  (152) 
    8629 

>  <AUTHOR>  (152) 
    GENERATED BY OPEN BABEL 3.1.1

>  <MASTER>  (152) 
        0    0    0    0    0    0    0    0   58    0   58    0

>  <minimizedAffinity>  (152) 
-7.02130

>  <CNNscore>  (152) 
0.5364241004

>  <CNNaffinity>  (152) 
4.2440786362

>  <CNN_VS>  (152) 
2.2766261101

>  <CNNaffinity_variance>  (152) 
0.3845174909

$$$$
153
     RDKit          3D

 43 45  0  0  0  0  0  0  0  0999 V2000
   22.8554   73.0931   -3.5738 P   0  0  2  0  0  0  0  0  0  0  0  0
   23.9337   71.9079   -3.7973 O   0  0  0  0  0  0  0  0  0  0  0  0
   23.3089   74.4538   -4.0145 O   0  0  0  0  0  0  0  0  0  0  0  0
   22.4488   72.9591   -2.0135 O   0  0  0  0  0  0  0  0  0  0  0  0
   23.4254   72.4951   -1.0977 C   0  0  0  0  0  0  0  0  0  0  0  0
   22.7190   70.2759   -0.5063 O   0  0  0  0  0  0  0  0  0  0  0  0
   22.5647   71.2788    2.3152 O   0  0  0  0  0  0  0  0  0  0  0  0
   24.9355   69.9316    2.2921 O   0  0  0  0  0  0  0  0  0  0  0  0
   23.4962   71.6143    1.2881 C   0  0  1  0  0  0  0  0  0  0  0  0
   24.4740   70.4780    1.0734 C   0  0  2  0  0  0  0  0  0  0  0  0
   22.7443   71.6416   -0.0367 C   0  0  1  0  0  0  0  0  0  0  0  0
   23.6416   69.4937    0.2694 C   0  0  2  0  0  0  0  0  0  0  0  0
   23.0217   71.2556    3.1711 H   0  0  0  0  0  0  0  0  0  0  0  0
   25.4595   70.5957    2.7666 H   0  0  0  0  0  0  0  0  0  0  0  0
   24.2543   66.7675    0.6822 O   0  0  0  0  0  0  0  0  0  0  0  0
   26.7182   66.5436   -3.2063 O   0  0  0  0  0  0  0  0  0  0  0  0
   24.4409   68.6983   -0.6194 N   0  0  0  0  0  0  0  0  0  0  0  0
   25.4805   66.6581   -1.2544 N   0  0  0  0  0  0  0  0  0  0  0  0
   24.6899   67.3387   -0.3196 C   0  0  0  0  0  0  0  0  0  0  0  0
   24.9682   69.2672   -1.7736 C   0  0  0  0  0  0  0  0  0  0  0  0
   25.7213   68.6049   -2.6542 C   0  0  0  0  0  0  0  0  0  0  0  0
   26.0286   67.1799   -2.4155 C   0  0  0  0  0  0  0  0  0  0  0  0
   25.6675   65.7098   -1.0662 H   0  0  0  0  0  0  0  0  0  0  0  0
   21.5437   72.5403   -4.3399 O   0  0  0  0  0  0  0  0  0  0  0  0
   20.4945   71.3763   -3.9433 P   0  0  2  0  0  0  0  0  0  0  0  0
   19.5019   72.1116   -2.8986 O   0  0  0  0  0  0  0  0  0  0  0  0
   21.1342   70.1254   -3.4141 O   0  0  0  0  0  0  0  0  0  0  0  0
   19.6022   71.1610   -5.2709 O   0  0  0  0  0  0  0  0  0  0  0  0
   19.9281   71.5556   -7.5849 O   0  0  0  0  0  0  0  0  0  0  0  0
   16.0874   73.0224   -7.2000 O   0  0  0  0  0  0  0  0  0  0  0  0
   16.5233   70.5272   -8.5536 O   0  0  0  0  0  0  0  0  0  0  0  0
   18.0233   73.4743   -5.0958 O   0  0  0  0  0  0  0  0  0  0  0  0
   17.1812   72.1448   -6.9192 C   0  0  1  0  0  0  0  0  0  0  0  0
   17.5702   71.4331   -8.2164 C   0  0  1  0  0  0  0  0  0  0  0  0
   18.3537   72.9643   -6.3832 C   0  0  2  0  0  0  0  0  0  0  0  0
   18.8981   70.6801   -8.0585 C   0  0  1  0  0  0  0  0  0  0  0  0
   19.6367   72.1344   -6.3114 C   0  0  1  0  0  0  0  0  0  0  0  0
   15.3395   72.5083   -7.5403 H   0  0  0  0  0  0  0  0  0  0  0  0
   15.6904   71.0153   -8.6500 H   0  0  0  0  0  0  0  0  0  0  0  0
   17.2096   73.9980   -5.1547 H   0  0  0  0  0  0  0  0  0  0  0  0
   18.6764   70.7189  -10.4372 O   0  0  0  0  0  0  0  0  0  0  0  0
   19.3843   70.0942   -9.3823 C   0  0  0  0  0  0  0  0  0  0  0  0
   18.9757   70.3561  -11.2860 H   0  0  0  0  0  0  0  0  0  0  0  0
 25 28  1  0
 25 24  1  0
 25 26  1  1
 25 27  2  0
  1  4  1  0
  1 24  1  0
  1  2  1  1
  1  3  2  0
  6 11  1  0
  6 12  1  0
 29 36  1  0
 29 37  1  0
  9  7  1  1
  7 13  1  0
 10  8  1  1
  8 14  1  0
 37 28  1  1
  4  5  1  0
 33 30  1  6
 30 38  1  0
 34 31  1  1
 31 39  1  0
 35 32  1  1
 32 40  1  0
 41 42  1  0
 41 43  1  0
 15 19  2  0
 16 22  2  0
 12 17  1  6
 17 19  1  0
 17 20  1  0
 18 19  1  0
 18 22  1  0
 18 23  1  0
  9 10  1  0
  9 11  1  0
 10 12  1  0
 11  5  1  6
 33 34  1  0
 33 35  1  0
 34 36  1  0
 35 37  1  0
 36 42  1  6
 20 21  2  0
 21 22  1  0
M  CHG  2   2  -1  26  -1
M  END
>  <COMPND>  (153) 
    8629 

>  <AUTHOR>  (153) 
    GENERATED BY OPEN BABEL 3.1.1

>  <MASTER>  (153) 
        0    0    0    0    0    0    0    0   58    0   58    0

>  <minimizedAffinity>  (153) 
-8.21610

>  <CNNscore>  (153) 
0.5193091631

>  <CNNaffinity>  (153) 
4.4041538239

>  <CNN_VS>  (153) 
2.2871174812

>  <CNNaffinity_variance>  (153) 
0.2109930962

$$$$
154
     RDKit          3D

 43 45  0  0  0  0  0  0  0  0999 V2000
   15.3916   70.9297   -1.8909 P   0  0  2  0  0  0  0  0  0  0  0  0
   16.3713   71.9700   -1.1323 O   0  0  0  0  0  0  0  0  0  0  0  0
   14.5875   71.5190   -3.0123 O   0  0  0  0  0  0  0  0  0  0  0  0
   14.5381   70.2559   -0.6928 O   0  0  0  0  0  0  0  0  0  0  0  0
   13.2929   69.6558   -1.0043 C   0  0  0  0  0  0  0  0  0  0  0  0
   10.9413   69.7821   -0.5268 O   0  0  0  0  0  0  0  0  0  0  0  0
   11.7383   70.3935    2.2984 O   0  0  0  0  0  0  0  0  0  0  0  0
   11.0695   67.7530    2.4277 O   0  0  0  0  0  0  0  0  0  0  0  0
   12.3549   69.5170    1.3566 C   0  0  1  0  0  0  0  0  0  0  0  0
   11.5289   68.2585    1.1908 C   0  0  2  0  0  0  0  0  0  0  0  0
   12.2422   70.1554   -0.0222 C   0  0  1  0  0  0  0  0  0  0  0  0
   10.3970   68.7397    0.2991 C   0  0  2  0  0  0  0  0  0  0  0  0
   11.7981   70.0072    3.1867 H   0  0  0  0  0  0  0  0  0  0  0  0
   11.8264   67.4598    2.9586 H   0  0  0  0  0  0  0  0  0  0  0  0
    8.2986   66.9924    1.0213 O   0  0  0  0  0  0  0  0  0  0  0  0
    8.5083   64.7775   -3.0150 O   0  0  0  0  0  0  0  0  0  0  0  0
    9.8829   67.6974   -0.5440 N   0  0  0  0  0  0  0  0  0  0  0  0
    8.4046   65.8911   -0.9891 N   0  0  0  0  0  0  0  0  0  0  0  0
    8.8277   66.8745   -0.0859 C   0  0  0  0  0  0  0  0  0  0  0  0
   10.4238   67.4999   -1.8098 C   0  0  0  0  0  0  0  0  0  0  0  0
   10.0099   66.5568   -2.6586 C   0  0  0  0  0  0  0  0  0  0  0  0
    8.9113   65.6545   -2.2572 C   0  0  0  0  0  0  0  0  0  0  0  0
    7.6708   65.3056   -0.6915 H   0  0  0  0  0  0  0  0  0  0  0  0
   16.3952   69.7426   -2.3341 O   0  0  0  0  0  0  0  0  0  0  0  0
   17.6850   69.7513   -3.3086 P   0  0  2  0  0  0  0  0  0  0  0  0
   18.0214   68.1796   -3.4930 O   0  0  0  0  0  0  0  0  0  0  0  0
   18.8333   70.5751   -2.8021 O   0  0  0  0  0  0  0  0  0  0  0  0
   17.1099   70.2161   -4.7432 O   0  0  0  0  0  0  0  0  0  0  0  0
   18.7932   71.3572   -5.9602 O   0  0  0  0  0  0  0  0  0  0  0  0
   15.5928   72.0154   -8.4850 O   0  0  0  0  0  0  0  0  0  0  0  0
   17.6498   70.1655   -9.2558 O   0  0  0  0  0  0  0  0  0  0  0  0
   15.2074   72.0849   -5.6169 O   0  0  0  0  0  0  0  0  0  0  0  0
   16.3874   71.2754   -7.5543 C   0  0  1  0  0  0  0  0  0  0  0  0
   17.7758   71.0724   -8.1641 C   0  0  1  0  0  0  0  0  0  0  0  0
   16.4838   72.0589   -6.2466 C   0  0  2  0  0  0  0  0  0  0  0  0
   18.7626   70.5238   -7.1247 C   0  0  1  0  0  0  0  0  0  0  0  0
   17.5279   71.4580   -5.3038 C   0  0  1  0  0  0  0  0  0  0  0  0
   15.5272   71.5232   -9.3174 H   0  0  0  0  0  0  0  0  0  0  0  0
   17.0237   70.5235   -9.9046 H   0  0  0  0  0  0  0  0  0  0  0  0
   14.5554   72.4677   -6.2237 H   0  0  0  0  0  0  0  0  0  0  0  0
   20.3046   69.3229   -8.4992 O   0  0  0  0  0  0  0  0  0  0  0  0
   20.1889   70.4623   -7.6669 C   0  0  0  0  0  0  0  0  0  0  0  0
   21.2072   69.2710   -8.8517 H   0  0  0  0  0  0  0  0  0  0  0  0
 25 28  1  0
 25 24  1  0
 25 26  1  6
 25 27  2  0
  1  4  1  0
  1 24  1  0
  1  2  1  1
  1  3  2  0
  6 11  1  0
  6 12  1  0
 29 36  1  0
 29 37  1  0
  9  7  1  1
  7 13  1  0
 10  8  1  1
  8 14  1  0
 37 28  1  6
  4  5  1  0
 33 30  1  6
 30 38  1  0
 34 31  1  6
 31 39  1  0
 35 32  1  1
 32 40  1  0
 41 42  1  0
 41 43  1  0
 15 19  2  0
 16 22  2  0
 12 17  1  6
 17 19  1  0
 17 20  1  0
 18 19  1  0
 18 22  1  0
 18 23  1  0
  9 10  1  0
  9 11  1  0
 10 12  1  0
 11  5  1  6
 33 34  1  0
 33 35  1  0
 34 36  1  0
 35 37  1  0
 36 42  1  6
 20 21  2  0
 21 22  1  0
M  CHG  2   2  -1  26  -1
M  END
>  <COMPND>  (154) 
    8629 

>  <AUTHOR>  (154) 
    GENERATED BY OPEN BABEL 3.1.1

>  <MASTER>  (154) 
        0    0    0    0    0    0    0    0   58    0   58    0

>  <minimizedAffinity>  (154) 
-6.32621

>  <CNNscore>  (154) 
0.4881985486

>  <CNNaffinity>  (154) 
4.0221414566

>  <CNN_VS>  (154) 
1.9636036158

>  <CNNaffinity_variance>  (154) 
0.1952839792

$$$$
155
     RDKit          3D

 43 45  0  0  0  0  0  0  0  0999 V2000
   23.5677   72.6288   -3.3875 P   0  0  2  0  0  0  0  0  0  0  0  0
   23.1444   73.2951   -1.9754 O   0  0  0  0  0  0  0  0  0  0  0  0
   24.1975   71.2708   -3.2841 O   0  0  0  0  0  0  0  0  0  0  0  0
   24.4682   73.7685   -4.1003 O   0  0  0  0  0  0  0  0  0  0  0  0
   24.5424   75.0479   -3.4957 C   0  0  0  0  0  0  0  0  0  0  0  0
   26.4318   75.3474   -4.9497 O   0  0  0  0  0  0  0  0  0  0  0  0
   27.4303   77.3313   -2.9353 O   0  0  0  0  0  0  0  0  0  0  0  0
   26.3738   78.9326   -4.8734 O   0  0  0  0  0  0  0  0  0  0  0  0
   26.0918   77.0605   -3.3480 C   0  0  1  0  0  0  0  0  0  0  0  0
   25.8412   77.6318   -4.7279 C   0  0  2  0  0  0  0  0  0  0  0  0
   25.9718   75.5622   -3.5974 C   0  0  1  0  0  0  0  0  0  0  0  0
   26.5314   76.6143   -5.6204 C   0  0  2  0  0  0  0  0  0  0  0  0
   27.5313   78.2823   -2.7697 H   0  0  0  0  0  0  0  0  0  0  0  0
   25.9019   79.5429   -4.2855 H   0  0  0  0  0  0  0  0  0  0  0  0
   27.9447   76.3579   -8.0524 O   0  0  0  0  0  0  0  0  0  0  0  0
   24.0500   76.2178  -10.5127 O   0  0  0  0  0  0  0  0  0  0  0  0
   25.9119   76.5085   -6.9113 N   0  0  0  0  0  0  0  0  0  0  0  0
   26.0042   76.2881   -9.2754 N   0  0  0  0  0  0  0  0  0  0  0  0
   26.7123   76.3844   -8.0707 C   0  0  0  0  0  0  0  0  0  0  0  0
   24.5255   76.5279   -7.0182 C   0  0  0  0  0  0  0  0  0  0  0  0
   23.8657   76.4364   -8.1747 C   0  0  0  0  0  0  0  0  0  0  0  0
   24.6275   76.3040   -9.4334 C   0  0  0  0  0  0  0  0  0  0  0  0
   26.5411   76.2013  -10.0965 H   0  0  0  0  0  0  0  0  0  0  0  0
   22.1921   72.6696   -4.2355 O   0  0  0  0  0  0  0  0  0  0  0  0
   21.8728   73.2410   -5.7135 P   0  0  2  0  0  0  0  0  0  0  0  0
   23.0113   72.5504   -6.6324 O   0  0  0  0  0  0  0  0  0  0  0  0
   21.8330   74.7393   -5.7987 O   0  0  0  0  0  0  0  0  0  0  0  0
   20.5006   72.5097   -6.1465 O   0  0  0  0  0  0  0  0  0  0  0  0
   19.6077   70.3370   -5.8327 O   0  0  0  0  0  0  0  0  0  0  0  0
   18.6262   70.8861   -9.8058 O   0  0  0  0  0  0  0  0  0  0  0  0
   16.5619   70.9687   -7.8109 O   0  0  0  0  0  0  0  0  0  0  0  0
   21.1583   71.8599   -8.7961 O   0  0  0  0  0  0  0  0  0  0  0  0
   18.8447   71.2865   -8.4503 C   0  0  1  0  0  0  0  0  0  0  0  0
   17.8833   70.4999   -7.5571 C   0  0  1  0  0  0  0  0  0  0  0  0
   20.2946   70.9918   -8.0703 C   0  0  2  0  0  0  0  0  0  0  0  0
   18.2367   70.6747   -6.0740 C   0  0  1  0  0  0  0  0  0  0  0  0
   20.5272   71.1480   -6.5665 C   0  0  1  0  0  0  0  0  0  0  0  0
   17.7075   71.0710  -10.0536 H   0  0  0  0  0  0  0  0  0  0  0  0
   16.3515   70.8532   -8.7508 H   0  0  0  0  0  0  0  0  0  0  0  0
   21.0016   71.7513   -9.7466 H   0  0  0  0  0  0  0  0  0  0  0  0
   16.0992   70.3434   -5.0591 O   0  0  0  0  0  0  0  0  0  0  0  0
   17.3910   69.7758   -5.1747 C   0  0  0  0  0  0  0  0  0  0  0  0
   15.5496   69.7817   -4.4897 H   0  0  0  0  0  0  0  0  0  0  0  0
 25 28  1  0
 25 24  1  0
 25 26  1  6
 25 27  2  0
  1  4  1  0
  1 24  1  0
  1  2  1  1
  1  3  2  0
  6 11  1  0
  6 12  1  0
 29 36  1  0
 29 37  1  0
  9  7  1  6
  7 13  1  0
 10  8  1  1
  8 14  1  0
 37 28  1  1
  4  5  1  0
 33 30  1  6
 30 38  1  0
 34 31  1  1
 31 39  1  0
 35 32  1  6
 32 40  1  0
 41 42  1  0
 41 43  1  0
 15 19  2  0
 16 22  2  0
 12 17  1  6
 17 19  1  0
 17 20  1  0
 18 19  1  0
 18 22  1  0
 18 23  1  0
  9 10  1  0
  9 11  1  0
 10 12  1  0
 11  5  1  6
 33 34  1  0
 33 35  1  0
 34 36  1  0
 35 37  1  0
 36 42  1  1
 20 21  2  0
 21 22  1  0
M  CHG  2   2  -1  26  -1
M  END
>  <COMPND>  (155) 
    8629 

>  <AUTHOR>  (155) 
    GENERATED BY OPEN BABEL 3.1.1

>  <MASTER>  (155) 
        0    0    0    0    0    0    0    0   58    0   58    0

>  <minimizedAffinity>  (155) 
-6.16437

>  <CNNscore>  (155) 
0.4199201763

>  <CNNaffinity>  (155) 
4.1374897957

>  <CNN_VS>  (155) 
1.7374154329

>  <CNNaffinity_variance>  (155) 
0.0190005787

$$$$
156
     RDKit          3D

 43 45  0  0  0  0  0  0  0  0999 V2000
   23.5797   69.7668    0.0443 P   0  0  2  0  0  0  0  0  0  0  0  0
   22.0641   69.8762    0.5995 O   0  0  0  0  0  0  0  0  0  0  0  0
   24.2932   68.4945    0.3959 O   0  0  0  0  0  0  0  0  0  0  0  0
   24.2813   71.1311    0.5586 O   0  0  0  0  0  0  0  0  0  0  0  0
   24.4301   71.3305    1.9535 C   0  0  0  0  0  0  0  0  0  0  0  0
   24.5127   73.1361    3.5368 O   0  0  0  0  0  0  0  0  0  0  0  0
   23.1845   74.8002    1.4255 O   0  0  0  0  0  0  0  0  0  0  0  0
   25.7939   75.5691    1.2342 O   0  0  0  0  0  0  0  0  0  0  0  0
   24.1600   73.7692    1.2806 C   0  0  1  0  0  0  0  0  0  0  0  0
   25.5217   74.2689    1.7160 C   0  0  2  0  0  0  0  0  0  0  0  0
   23.8670   72.6963    2.3219 C   0  0  1  0  0  0  0  0  0  0  0  0
   25.4065   74.2186    3.2300 C   0  0  2  0  0  0  0  0  0  0  0  0
   23.3509   75.4968    0.7706 H   0  0  0  0  0  0  0  0  0  0  0  0
   25.8579   75.5487    0.2666 H   0  0  0  0  0  0  0  0  0  0  0  0
   26.2118   75.3851    5.6731 O   0  0  0  0  0  0  0  0  0  0  0  0
   30.2759   73.2136    5.5813 O   0  0  0  0  0  0  0  0  0  0  0  0
   26.6697   73.9753    3.8676 N   0  0  0  0  0  0  0  0  0  0  0  0
   28.2347   74.3028    5.6255 N   0  0  0  0  0  0  0  0  0  0  0  0
   26.9767   74.6120    5.0928 C   0  0  0  0  0  0  0  0  0  0  0  0
   27.5886   73.1135    3.2787 C   0  0  0  0  0  0  0  0  0  0  0  0
   28.7846   72.8302    3.7990 C   0  0  0  0  0  0  0  0  0  0  0  0
   29.1831   73.4538    5.0774 C   0  0  0  0  0  0  0  0  0  0  0  0
   28.4704   74.7350    6.4784 H   0  0  0  0  0  0  0  0  0  0  0  0
   23.4051   70.0238   -1.5421 O   0  0  0  0  0  0  0  0  0  0  0  0
   22.9741   71.3487   -2.3617 P   0  0  2  0  0  0  0  0  0  0  0  0
   24.1901   71.5484   -3.4100 O   0  0  0  0  0  0  0  0  0  0  0  0
   22.6991   72.5449   -1.4971 O   0  0  0  0  0  0  0  0  0  0  0  0
   21.7256   70.8789   -3.2703 O   0  0  0  0  0  0  0  0  0  0  0  0
   20.8992   72.6335   -4.6323 O   0  0  0  0  0  0  0  0  0  0  0  0
   17.8852   69.8715   -5.2136 O   0  0  0  0  0  0  0  0  0  0  0  0
   19.7462   70.4068   -7.3344 O   0  0  0  0  0  0  0  0  0  0  0  0
   19.0978   70.1571   -2.6006 O   0  0  0  0  0  0  0  0  0  0  0  0
   19.2311   70.3060   -5.0009 C   0  0  1  0  0  0  0  0  0  0  0  0
   19.6317   71.2137   -6.1656 C   0  0  1  0  0  0  0  0  0  0  0  0
   19.3074   71.0646   -3.6772 C   0  0  2  0  0  0  0  0  0  0  0  0
   20.9582   71.9301   -5.8787 C   0  0  1  0  0  0  0  0  0  0  0  0
   20.6492   71.7808   -3.5133 C   0  0  1  0  0  0  0  0  0  0  0  0
   17.8299   69.3887   -6.0522 H   0  0  0  0  0  0  0  0  0  0  0  0
   18.9021   69.9597   -7.5041 H   0  0  0  0  0  0  0  0  0  0  0  0
   18.2451   69.7104   -2.7158 H   0  0  0  0  0  0  0  0  0  0  0  0
   21.7625   72.2710   -8.1026 O   0  0  0  0  0  0  0  0  0  0  0  0
   21.2974   72.9583   -6.9556 C   0  0  0  0  0  0  0  0  0  0  0  0
   21.9819   72.9128   -8.7966 H   0  0  0  0  0  0  0  0  0  0  0  0
 25 28  1  0
 25 24  1  0
 25 26  1  6
 25 27  2  0
  1  4  1  0
  1 24  1  0
  1  2  1  1
  1  3  2  0
  6 11  1  0
  6 12  1  0
 29 36  1  0
 29 37  1  0
  9  7  1  1
  7 13  1  0
 10  8  1  1
  8 14  1  0
 37 28  1  6
  4  5  1  0
 33 30  1  6
 30 38  1  0
 34 31  1  6
 31 39  1  0
 35 32  1  1
 32 40  1  0
 41 42  1  0
 41 43  1  0
 15 19  2  0
 16 22  2  0
 12 17  1  1
 17 19  1  0
 17 20  1  0
 18 19  1  0
 18 22  1  0
 18 23  1  0
  9 10  1  0
  9 11  1  0
 10 12  1  0
 11  5  1  6
 33 34  1  0
 33 35  1  0
 34 36  1  0
 35 37  1  0
 36 42  1  6
 20 21  2  0
 21 22  1  0
M  CHG  2   2  -1  26  -1
M  END
>  <COMPND>  (156) 
    8629 

>  <AUTHOR>  (156) 
    GENERATED BY OPEN BABEL 3.1.1

>  <MASTER>  (156) 
        0    0    0    0    0    0    0    0   58    0   58    0

>  <minimizedAffinity>  (156) 
-6.37815

>  <CNNscore>  (156) 
0.4129201770

>  <CNNaffinity>  (156) 
4.0941514969

>  <CNN_VS>  (156) 
1.6905577183

>  <CNNaffinity_variance>  (156) 
0.0339704640

$$$$
157
     RDKit          3D

 43 45  0  0  0  0  0  0  0  0999 V2000
   23.1556   70.7581   -2.6239 P   0  0  2  0  0  0  0  0  0  0  0  0
   24.2522   71.7061   -3.3424 O   0  0  0  0  0  0  0  0  0  0  0  0
   23.5215   69.3045   -2.5565 O   0  0  0  0  0  0  0  0  0  0  0  0
   21.7779   71.1006   -3.4002 O   0  0  0  0  0  0  0  0  0  0  0  0
   21.7312   72.2584   -4.2158 C   0  0  0  0  0  0  0  0  0  0  0  0
   20.5861   70.7066   -5.6490 O   0  0  0  0  0  0  0  0  0  0  0  0
   21.0866   72.6685   -7.8606 O   0  0  0  0  0  0  0  0  0  0  0  0
   18.4824   73.1540   -7.2134 O   0  0  0  0  0  0  0  0  0  0  0  0
   20.7901   72.9139   -6.4869 C   0  0  1  0  0  0  0  0  0  0  0  0
   19.3280   72.6360   -6.2067 C   0  0  2  0  0  0  0  0  0  0  0  0
   21.4826   71.8391   -5.6582 C   0  0  1  0  0  0  0  0  0  0  0  0
   19.3018   71.1182   -6.1451 C   0  0  2  0  0  0  0  0  0  0  0  0
   20.6553   73.3426   -8.4097 H   0  0  0  0  0  0  0  0  0  0  0  0
   18.5340   74.1226   -7.2125 H   0  0  0  0  0  0  0  0  0  0  0  0
   17.0532   69.6300   -6.9857 O   0  0  0  0  0  0  0  0  0  0  0  0
   15.4507   69.2728   -2.6792 O   0  0  0  0  0  0  0  0  0  0  0  0
   18.2814   70.6234   -5.2647 N   0  0  0  0  0  0  0  0  0  0  0  0
   16.2572   69.4532   -4.8407 N   0  0  0  0  0  0  0  0  0  0  0  0
   17.1929   69.8874   -5.7882 C   0  0  0  0  0  0  0  0  0  0  0  0
   18.3661   70.8688   -3.8985 C   0  0  0  0  0  0  0  0  0  0  0  0
   17.4647   70.4488   -3.0083 C   0  0  0  0  0  0  0  0  0  0  0  0
   16.2968   69.6729   -3.4729 C   0  0  0  0  0  0  0  0  0  0  0  0
   15.4901   68.9389   -5.1824 H   0  0  0  0  0  0  0  0  0  0  0  0
   22.9484   71.4671   -1.1861 O   0  0  0  0  0  0  0  0  0  0  0  0
   22.3774   70.8877    0.2107 P   0  0  2  0  0  0  0  0  0  0  0  0
   23.4151   69.7000    0.5716 O   0  0  0  0  0  0  0  0  0  0  0  0
   20.9397   70.4589    0.1573 O   0  0  0  0  0  0  0  0  0  0  0  0
   22.6905   72.0448    1.2915 O   0  0  0  0  0  0  0  0  0  0  0  0
   24.4333   71.9474    2.8945 O   0  0  0  0  0  0  0  0  0  0  0  0
   21.7925   74.3768    4.9378 O   0  0  0  0  0  0  0  0  0  0  0  0
   24.1894   75.5050    3.8288 O   0  0  0  0  0  0  0  0  0  0  0  0
   20.7941   72.1673    3.3563 O   0  0  0  0  0  0  0  0  0  0  0  0
   22.4577   73.8557    3.7839 C   0  0  1  0  0  0  0  0  0  0  0  0
   23.9591   74.1035    3.9432 C   0  0  1  0  0  0  0  0  0  0  0  0
   22.1684   72.3599    3.6738 C   0  0  2  0  0  0  0  0  0  0  0  0
   24.7621   73.3415    2.8804 C   0  0  1  0  0  0  0  0  0  0  0  0
   23.0545   71.6890    2.6227 C   0  0  1  0  0  0  0  0  0  0  0  0
   21.9717   75.3263    5.0132 H   0  0  0  0  0  0  0  0  0  0  0  0
   23.6763   75.9745    4.5052 H   0  0  0  0  0  0  0  0  0  0  0  0
   20.2437   72.5963    4.0293 H   0  0  0  0  0  0  0  0  0  0  0  0
   26.8444   72.1702    2.9151 O   0  0  0  0  0  0  0  0  0  0  0  0
   26.2672   73.4472    3.1161 C   0  0  0  0  0  0  0  0  0  0  0  0
   27.8023   72.2223    3.0614 H   0  0  0  0  0  0  0  0  0  0  0  0
 25 28  1  0
 25 24  1  0
 25 26  1  1
 25 27  2  0
  1  4  1  0
  1 24  1  0
  1  2  1  6
  1  3  2  0
  6 11  1  0
  6 12  1  0
 29 36  1  0
 29 37  1  0
  9  7  1  6
  7 13  1  0
 10  8  1  6
  8 14  1  0
 37 28  1  6
  4  5  1  0
 33 30  1  1
 30 38  1  0
 34 31  1  6
 31 39  1  0
 35 32  1  6
 32 40  1  0
 41 42  1  0
 41 43  1  0
 15 19  2  0
 16 22  2  0
 12 17  1  1
 17 19  1  0
 17 20  1  0
 18 19  1  0
 18 22  1  0
 18 23  1  0
  9 10  1  0
  9 11  1  0
 10 12  1  0
 11  5  1  1
 33 34  1  0
 33 35  1  0
 34 36  1  0
 35 37  1  0
 36 42  1  1
 20 21  2  0
 21 22  1  0
M  CHG  2   2  -1  26  -1
M  END
>  <COMPND>  (157) 
    8629 

>  <AUTHOR>  (157) 
    GENERATED BY OPEN BABEL 3.1.1

>  <MASTER>  (157) 
        0    0    0    0    0    0    0    0   58    0   58    0

>  <minimizedAffinity>  (157) 
-7.14787

>  <CNNscore>  (157) 
0.4118667245

>  <CNNaffinity>  (157) 
4.0390086174

>  <CNN_VS>  (157) 
1.6635332108

>  <CNNaffinity_variance>  (157) 
0.0689932778

$$$$
158
     RDKit          3D

 43 45  0  0  0  0  0  0  0  0999 V2000
   20.8953   73.8868   -2.4775 P   0  0  2  0  0  0  0  0  0  0  0  0
   21.3643   74.9450   -3.6078 O   0  0  0  0  0  0  0  0  0  0  0  0
   19.9279   74.4273   -1.4658 O   0  0  0  0  0  0  0  0  0  0  0  0
   22.2859   73.3120   -1.8827 O   0  0  0  0  0  0  0  0  0  0  0  0
   22.5903   73.5550   -0.5203 C   0  0  0  0  0  0  0  0  0  0  0  0
   23.5099   72.3347    1.3341 O   0  0  0  0  0  0  0  0  0  0  0  0
   21.1625   70.4918    1.0440 O   0  0  0  0  0  0  0  0  0  0  0  0
   20.4265   72.0655    3.1460 O   0  0  0  0  0  0  0  0  0  0  0  0
   21.2290   71.9046    0.8566 C   0  0  1  0  0  0  0  0  0  0  0  0
   21.3187   72.6088    2.1944 C   0  0  2  0  0  0  0  0  0  0  0  0
   22.5802   72.2322    0.2335 C   0  0  1  0  0  0  0  0  0  0  0  0
   22.7752   72.3916    2.5678 C   0  0  2  0  0  0  0  0  0  0  0  0
   20.3081   70.2583    1.4406 H   0  0  0  0  0  0  0  0  0  0  0  0
   19.5132   72.2293    2.8637 H   0  0  0  0  0  0  0  0  0  0  0  0
   22.5065   72.5505    5.3750 O   0  0  0  0  0  0  0  0  0  0  0  0
   24.8237   76.5303    5.5551 O   0  0  0  0  0  0  0  0  0  0  0  0
   23.2989   73.4582    3.3737 N   0  0  0  0  0  0  0  0  0  0  0  0
   23.6606   74.5319    5.4624 N   0  0  0  0  0  0  0  0  0  0  0  0
   23.1083   73.4435    4.7751 C   0  0  0  0  0  0  0  0  0  0  0  0
   23.9930   74.5033    2.7740 C   0  0  0  0  0  0  0  0  0  0  0  0
   24.5124   75.5345    3.4434 C   0  0  0  0  0  0  0  0  0  0  0  0
   24.3577   75.5954    4.9112 C   0  0  0  0  0  0  0  0  0  0  0  0
   23.5399   74.5432    6.4397 H   0  0  0  0  0  0  0  0  0  0  0  0
   20.3336   72.6477   -3.3503 O   0  0  0  0  0  0  0  0  0  0  0  0
   20.2764   71.0640   -3.0312 P   0  0  2  0  0  0  0  0  0  0  0  0
   19.5259   71.0010   -1.5993 O   0  0  0  0  0  0  0  0  0  0  0  0
   21.6135   70.3818   -3.0601 O   0  0  0  0  0  0  0  0  0  0  0  0
   19.2018   70.4743   -4.0811 O   0  0  0  0  0  0  0  0  0  0  0  0
   17.4743   71.9065   -4.8435 O   0  0  0  0  0  0  0  0  0  0  0  0
   15.7821   68.2638   -5.8013 O   0  0  0  0  0  0  0  0  0  0  0  0
   16.7835   69.9562   -7.8944 O   0  0  0  0  0  0  0  0  0  0  0  0
   17.2906   68.5546   -3.3479 O   0  0  0  0  0  0  0  0  0  0  0  0
   16.8503   69.1986   -5.6267 C   0  0  1  0  0  0  0  0  0  0  0  0
   16.5989   70.3920   -6.5504 C   0  0  1  0  0  0  0  0  0  0  0  0
   16.8875   69.6470   -4.1669 C   0  0  2  0  0  0  0  0  0  0  0  0
   17.5515   71.5515   -6.2290 C   0  0  1  0  0  0  0  0  0  0  0  0
   17.8282   70.8363   -3.9652 C   0  0  1  0  0  0  0  0  0  0  0  0
   15.7532   67.9747   -6.7260 H   0  0  0  0  0  0  0  0  0  0  0  0
   16.1765   69.2236   -8.0842 H   0  0  0  0  0  0  0  0  0  0  0  0
   16.6871   67.8083   -3.4845 H   0  0  0  0  0  0  0  0  0  0  0  0
   17.7246   72.6527   -8.3424 O   0  0  0  0  0  0  0  0  0  0  0  0
   17.2150   72.8071   -7.0306 C   0  0  0  0  0  0  0  0  0  0  0  0
   17.5176   73.4443   -8.8642 H   0  0  0  0  0  0  0  0  0  0  0  0
 25 28  1  0
 25 24  1  0
 25 26  1  1
 25 27  2  0
  1  4  1  0
  1 24  1  0
  1  2  1  6
  1  3  2  0
  6 11  1  0
  6 12  1  0
 29 36  1  0
 29 37  1  0
  9  7  1  1
  7 13  1  0
 10  8  1  1
  8 14  1  0
 37 28  1  6
  4  5  1  0
 33 30  1  1
 30 38  1  0
 34 31  1  6
 31 39  1  0
 35 32  1  1
 32 40  1  0
 41 42  1  0
 41 43  1  0
 15 19  2  0
 16 22  2  0
 12 17  1  1
 17 19  1  0
 17 20  1  0
 18 19  1  0
 18 22  1  0
 18 23  1  0
  9 10  1  0
  9 11  1  0
 10 12  1  0
 11  5  1  1
 33 34  1  0
 33 35  1  0
 34 36  1  0
 35 37  1  0
 36 42  1  6
 20 21  2  0
 21 22  1  0
M  CHG  2   2  -1  26  -1
M  END
>  <COMPND>  (158) 
    8629 

>  <AUTHOR>  (158) 
    GENERATED BY OPEN BABEL 3.1.1

>  <MASTER>  (158) 
        0    0    0    0    0    0    0    0   58    0   58    0

>  <minimizedAffinity>  (158) 
-6.20899

>  <CNNscore>  (158) 
0.3876577020

>  <CNNaffinity>  (158) 
3.9199943542

>  <CNN_VS>  (158) 
1.5196160078

>  <CNNaffinity_variance>  (158) 
0.1403277814

$$$$
159
     RDKit          3D

 43 45  0  0  0  0  0  0  0  0999 V2000
   22.6385   71.3745   -2.6249 P   0  0  2  0  0  0  0  0  0  0  0  0
   24.1632   71.2552   -3.1528 O   0  0  0  0  0  0  0  0  0  0  0  0
   21.7196   70.2834   -3.0902 O   0  0  0  0  0  0  0  0  0  0  0  0
   22.2039   72.8795   -3.0298 O   0  0  0  0  0  0  0  0  0  0  0  0
   20.9494   73.0747   -3.6591 C   0  0  0  0  0  0  0  0  0  0  0  0
   20.7695   72.1223   -5.8577 O   0  0  0  0  0  0  0  0  0  0  0  0
   20.9618   74.9320   -6.8869 O   0  0  0  0  0  0  0  0  0  0  0  0
   18.2868   74.4247   -7.0401 O   0  0  0  0  0  0  0  0  0  0  0  0
   20.3213   74.4445   -5.7090 C   0  0  1  0  0  0  0  0  0  0  0  0
   19.0373   73.7260   -6.0678 C   0  0  2  0  0  0  0  0  0  0  0  0
   21.1724   73.3130   -5.1462 C   0  0  1  0  0  0  0  0  0  0  0  0
   19.5547   72.3913   -6.5766 C   0  0  2  0  0  0  0  0  0  0  0  0
   20.4368   75.6558   -7.2643 H   0  0  0  0  0  0  0  0  0  0  0  0
   17.9801   75.2665   -6.6686 H   0  0  0  0  0  0  0  0  0  0  0  0
   18.6565   70.5973   -8.5648 O   0  0  0  0  0  0  0  0  0  0  0  0
   15.9974   68.3198   -5.5676 O   0  0  0  0  0  0  0  0  0  0  0  0
   18.6279   71.3197   -6.3435 N   0  0  0  0  0  0  0  0  0  0  0  0
   17.3333   69.4646   -7.0708 N   0  0  0  0  0  0  0  0  0  0  0  0
   18.2406   70.4762   -7.4107 C   0  0  0  0  0  0  0  0  0  0  0  0
   18.1134   71.1137   -5.0680 C   0  0  0  0  0  0  0  0  0  0  0  0
   17.2480   70.1453   -4.7607 C   0  0  0  0  0  0  0  0  0  0  0  0
   16.7925   69.2202   -5.8184 C   0  0  0  0  0  0  0  0  0  0  0  0
   17.0490   68.8650   -7.7983 H   0  0  0  0  0  0  0  0  0  0  0  0
   22.8154   71.4665   -1.0208 O   0  0  0  0  0  0  0  0  0  0  0  0
   23.1798   70.3342    0.0737 P   0  0  2  0  0  0  0  0  0  0  0  0
   21.7453   69.9804    0.7331 O   0  0  0  0  0  0  0  0  0  0  0  0
   24.2303   70.7495    1.0625 O   0  0  0  0  0  0  0  0  0  0  0  0
   23.5602   69.0305   -0.7984 O   0  0  0  0  0  0  0  0  0  0  0  0
   24.4271   66.8374   -0.5624 O   0  0  0  0  0  0  0  0  0  0  0  0
   27.1706   68.3452   -3.2551 O   0  0  0  0  0  0  0  0  0  0  0  0
   25.2181   66.4340   -4.1402 O   0  0  0  0  0  0  0  0  0  0  0  0
   26.1630   70.0272   -1.1256 O   0  0  0  0  0  0  0  0  0  0  0  0
   25.8801   68.1909   -2.6583 C   0  0  1  0  0  0  0  0  0  0  0  0
   25.4738   66.7200   -2.7679 C   0  0  1  0  0  0  0  0  0  0  0  0
   25.9525   68.6210   -1.1944 C   0  0  2  0  0  0  0  0  0  0  0  0
   24.2296   66.4242   -1.9196 C   0  0  1  0  0  0  0  0  0  0  0  0
   24.6849   68.2366   -0.4293 C   0  0  1  0  0  0  0  0  0  0  0  0
   27.1314   68.0742   -4.1850 H   0  0  0  0  0  0  0  0  0  0  0  0
   26.0114   66.6254   -4.6649 H   0  0  0  0  0  0  0  0  0  0  0  0
   26.9685   70.2577   -1.6134 H   0  0  0  0  0  0  0  0  0  0  0  0
   23.4958   64.5355   -3.1858 O   0  0  0  0  0  0  0  0  0  0  0  0
   23.8996   64.9335   -1.8886 C   0  0  0  0  0  0  0  0  0  0  0  0
   23.2830   63.5887   -3.1813 H   0  0  0  0  0  0  0  0  0  0  0  0
 25 28  1  0
 25 24  1  0
 25 26  1  1
 25 27  2  0
  1  4  1  0
  1 24  1  0
  1  2  1  6
  1  3  2  0
  6 11  1  0
  6 12  1  0
 29 36  1  0
 29 37  1  0
  9  7  1  6
  7 13  1  0
 10  8  1  6
  8 14  1  0
 37 28  1  6
  4  5  1  0
 33 30  1  1
 30 38  1  0
 34 31  1  6
 31 39  1  0
 35 32  1  6
 32 40  1  0
 41 42  1  0
 41 43  1  0
 15 19  2  0
 16 22  2  0
 12 17  1  1
 17 19  1  0
 17 20  1  0
 18 19  1  0
 18 22  1  0
 18 23  1  0
  9 10  1  0
  9 11  1  0
 10 12  1  0
 11  5  1  1
 33 34  1  0
 33 35  1  0
 34 36  1  0
 35 37  1  0
 36 42  1  1
 20 21  2  0
 21 22  1  0
M  CHG  2   2  -1  26  -1
M  END
>  <COMPND>  (159) 
    8629 

>  <AUTHOR>  (159) 
    GENERATED BY OPEN BABEL 3.1.1

>  <MASTER>  (159) 
        0    0    0    0    0    0    0    0   58    0   58    0

>  <minimizedAffinity>  (159) 
-8.08988

>  <CNNscore>  (159) 
0.3820011616

>  <CNNaffinity>  (159) 
4.4216551781

>  <CNN_VS>  (159) 
1.6890773773

>  <CNNaffinity_variance>  (159) 
0.2469711602

$$$$
160
     RDKit          3D

 43 45  0  0  0  0  0  0  0  0999 V2000
   19.3636   71.0903   -2.3859 P   0  0  2  0  0  0  0  0  0  0  0  0
   18.7851   72.5263   -1.9160 O   0  0  0  0  0  0  0  0  0  0  0  0
   18.3336   70.1320   -2.9074 O   0  0  0  0  0  0  0  0  0  0  0  0
   20.2169   70.5789   -1.1098 O   0  0  0  0  0  0  0  0  0  0  0  0
   21.4155   71.2595   -0.7812 C   0  0  0  0  0  0  0  0  0  0  0  0
   22.4103   69.4652    0.4695 O   0  0  0  0  0  0  0  0  0  0  0  0
   23.0093   71.5145    2.5749 O   0  0  0  0  0  0  0  0  0  0  0  0
   25.4106   71.2404    1.3120 O   0  0  0  0  0  0  0  0  0  0  0  0
   23.0193   71.6504    1.1548 C   0  0  1  0  0  0  0  0  0  0  0  0
   24.2390   70.9694    0.5699 C   0  0  2  0  0  0  0  0  0  0  0  0
   21.8830   70.8041    0.5943 C   0  0  1  0  0  0  0  0  0  0  0  0
   23.8384   69.5049    0.6240 C   0  0  2  0  0  0  0  0  0  0  0  0
   23.7262   72.0465    2.9555 H   0  0  0  0  0  0  0  0  0  0  0  0
   25.6239   72.1843    1.2464 H   0  0  0  0  0  0  0  0  0  0  0  0
   24.3064   66.7226    0.7576 O   0  0  0  0  0  0  0  0  0  0  0  0
   26.1640   66.6476   -3.4597 O   0  0  0  0  0  0  0  0  0  0  0  0
   24.4425   68.7327   -0.4248 N   0  0  0  0  0  0  0  0  0  0  0  0
   25.2308   66.6875   -1.3425 N   0  0  0  0  0  0  0  0  0  0  0  0
   24.6336   67.3414   -0.2572 C   0  0  0  0  0  0  0  0  0  0  0  0
   24.8382   69.3552   -1.6038 C   0  0  0  0  0  0  0  0  0  0  0  0
   25.4074   68.7176   -2.6288 C   0  0  0  0  0  0  0  0  0  0  0  0
   25.6426   67.2623   -2.5344 C   0  0  0  0  0  0  0  0  0  0  0  0
   25.3743   65.7178   -1.2481 H   0  0  0  0  0  0  0  0  0  0  0  0
   20.5101   71.4917   -3.4524 O   0  0  0  0  0  0  0  0  0  0  0  0
   20.5288   72.6083   -4.6210 P   0  0  2  0  0  0  0  0  0  0  0  0
   21.9663   72.3815   -5.3279 O   0  0  0  0  0  0  0  0  0  0  0  0
   20.2907   74.0094   -4.1373 O   0  0  0  0  0  0  0  0  0  0  0  0
   19.4543   72.0832   -5.7049 O   0  0  0  0  0  0  0  0  0  0  0  0
   18.6951   69.8709   -6.0870 O   0  0  0  0  0  0  0  0  0  0  0  0
   18.5765   71.2880   -9.9637 O   0  0  0  0  0  0  0  0  0  0  0  0
   16.1220   70.8492   -8.5387 O   0  0  0  0  0  0  0  0  0  0  0  0
   20.7336   72.0788   -8.2026 O   0  0  0  0  0  0  0  0  0  0  0  0
   18.4558   71.3729   -8.5411 C   0  0  1  0  0  0  0  0  0  0  0  0
   17.3882   70.3741   -8.0901 C   0  0  1  0  0  0  0  0  0  0  0  0
   19.8046   71.0420   -7.9051 C   0  0  2  0  0  0  0  0  0  0  0  0
   17.3887   70.2141   -6.5638 C   0  0  1  0  0  0  0  0  0  0  0  0
   19.6847   70.8557   -6.3914 C   0  0  1  0  0  0  0  0  0  0  0  0
   17.7236   71.4975  -10.3737 H   0  0  0  0  0  0  0  0  0  0  0  0
   16.1351   70.9463   -9.5039 H   0  0  0  0  0  0  0  0  0  0  0  0
   20.8007   72.1866   -9.1637 H   0  0  0  0  0  0  0  0  0  0  0  0
   16.9111   68.5980   -4.8700 O   0  0  0  0  0  0  0  0  0  0  0  0
   16.4413   69.1081   -6.1043 C   0  0  0  0  0  0  0  0  0  0  0  0
   16.3176   67.8933   -4.5652 H   0  0  0  0  0  0  0  0  0  0  0  0
 25 28  1  0
 25 24  1  0
 25 26  1  6
 25 27  2  0
  1  4  1  0
  1 24  1  0
  1  2  1  1
  1  3  2  0
  6 11  1  0
  6 12  1  0
 29 36  1  0
 29 37  1  0
  9  7  1  1
  7 13  1  0
 10  8  1  1
  8 14  1  0
 37 28  1  1
  4  5  1  0
 33 30  1  6
 30 38  1  0
 34 31  1  1
 31 39  1  0
 35 32  1  1
 32 40  1  0
 41 42  1  0
 41 43  1  0
 15 19  2  0
 16 22  2  0
 12 17  1  6
 17 19  1  0
 17 20  1  0
 18 19  1  0
 18 22  1  0
 18 23  1  0
  9 10  1  0
  9 11  1  0
 10 12  1  0
 11  5  1  6
 33 34  1  0
 33 35  1  0
 34 36  1  0
 35 37  1  0
 36 42  1  6
 20 21  2  0
 21 22  1  0
M  CHG  2   2  -1  26  -1
M  END
>  <COMPND>  (160) 
    8629 

>  <AUTHOR>  (160) 
    GENERATED BY OPEN BABEL 3.1.1

>  <MASTER>  (160) 
        0    0    0    0    0    0    0    0   58    0   58    0

>  <minimizedAffinity>  (160) 
-8.66194

>  <CNNscore>  (160) 
0.3773925304

>  <CNNaffinity>  (160) 
4.2320060730

>  <CNN_VS>  (160) 
1.5971274376

>  <CNNaffinity_variance>  (160) 
0.3206757605

$$$$
161
     RDKit          3D

 43 45  0  0  0  0  0  0  0  0999 V2000
   22.8432   72.7049   -4.1919 P   0  0  2  0  0  0  0  0  0  0  0  0
   23.1281   73.7846   -5.3626 O   0  0  0  0  0  0  0  0  0  0  0  0
   24.0354   71.8967   -3.7713 O   0  0  0  0  0  0  0  0  0  0  0  0
   21.5795   71.8583   -4.7435 O   0  0  0  0  0  0  0  0  0  0  0  0
   20.9880   70.8935   -3.8908 C   0  0  0  0  0  0  0  0  0  0  0  0
   18.9961   71.8408   -4.8439 O   0  0  0  0  0  0  0  0  0  0  0  0
   17.5289   70.5975   -2.5434 O   0  0  0  0  0  0  0  0  0  0  0  0
   17.0231   68.8573   -4.5812 O   0  0  0  0  0  0  0  0  0  0  0  0
   18.6508   70.1015   -3.2719 C   0  0  1  0  0  0  0  0  0  0  0  0
   18.2162   69.6124   -4.6378 C   0  0  2  0  0  0  0  0  0  0  0  0
   19.5409   71.2861   -3.6266 C   0  0  1  0  0  0  0  0  0  0  0  0
   18.0477   70.9156   -5.4002 C   0  0  2  0  0  0  0  0  0  0  0  0
   16.9459   69.8589   -2.3055 H   0  0  0  0  0  0  0  0  0  0  0  0
   17.1818   68.0384   -4.0864 H   0  0  0  0  0  0  0  0  0  0  0  0
   16.1392   70.0589   -7.2980 O   0  0  0  0  0  0  0  0  0  0  0  0
   19.1662   70.3799  -10.7585 O   0  0  0  0  0  0  0  0  0  0  0  0
   18.3099   70.7668   -6.8040 N   0  0  0  0  0  0  0  0  0  0  0  0
   17.6479   70.2196   -9.0195 N   0  0  0  0  0  0  0  0  0  0  0  0
   17.2824   70.3291   -7.6718 C   0  0  0  0  0  0  0  0  0  0  0  0
   19.5742   71.0538   -7.3071 C   0  0  0  0  0  0  0  0  0  0  0  0
   19.9070   70.9430   -8.5948 C   0  0  0  0  0  0  0  0  0  0  0  0
   18.8912   70.4919   -9.5679 C   0  0  0  0  0  0  0  0  0  0  0  0
   16.9484   69.9160   -9.6426 H   0  0  0  0  0  0  0  0  0  0  0  0
   22.1926   73.6053   -3.0176 O   0  0  0  0  0  0  0  0  0  0  0  0
   22.8813   74.5020   -1.8624 P   0  0  2  0  0  0  0  0  0  0  0  0
   22.2044   75.9569   -2.0690 O   0  0  0  0  0  0  0  0  0  0  0  0
   24.3821   74.5064   -1.8995 O   0  0  0  0  0  0  0  0  0  0  0  0
   22.2479   73.9497   -0.4845 O   0  0  0  0  0  0  0  0  0  0  0  0
   21.4058   75.0957    1.4114 O   0  0  0  0  0  0  0  0  0  0  0  0
   23.2375   71.9236    3.3176 O   0  0  0  0  0  0  0  0  0  0  0  0
   20.3707   72.0344    3.1851 O   0  0  0  0  0  0  0  0  0  0  0  0
   24.4838   73.1304    1.0003 O   0  0  0  0  0  0  0  0  0  0  0  0
   22.5135   72.5706    2.2676 C   0  0  1  0  0  0  0  0  0  0  0  0
   21.2169   73.1321    2.8543 C   0  0  1  0  0  0  0  0  0  0  0  0
   23.3717   73.6935    1.6879 C   0  0  2  0  0  0  0  0  0  0  0  0
   20.5163   74.0654    1.8577 C   0  0  1  0  0  0  0  0  0  0  0  0
   22.5664   74.5919    0.7474 C   0  0  1  0  0  0  0  0  0  0  0  0
   22.6982   71.2092    3.6897 H   0  0  0  0  0  0  0  0  0  0  0  0
   20.8250   71.4525    3.8146 H   0  0  0  0  0  0  0  0  0  0  0  0
   24.9856   72.5641    1.6064 H   0  0  0  0  0  0  0  0  0  0  0  0
   18.8975   75.8062    1.6167 O   0  0  0  0  0  0  0  0  0  0  0  0
   19.3055   74.7593    2.4780 C   0  0  0  0  0  0  0  0  0  0  0  0
   18.1275   76.2566    1.9986 H   0  0  0  0  0  0  0  0  0  0  0  0
 25 28  1  0
 25 24  1  0
 25 26  1  6
 25 27  2  0
  1  4  1  0
  1 24  1  0
  1  2  1  6
  1  3  2  0
  6 11  1  0
  6 12  1  0
 29 36  1  0
 29 37  1  0
  9  7  1  1
  7 13  1  0
 10  8  1  1
  8 14  1  0
 37 28  1  6
  4  5  1  0
 33 30  1  1
 30 38  1  0
 34 31  1  6
 31 39  1  0
 35 32  1  6
 32 40  1  0
 41 42  1  0
 41 43  1  0
 15 19  2  0
 16 22  2  0
 12 17  1  6
 17 19  1  0
 17 20  1  0
 18 19  1  0
 18 22  1  0
 18 23  1  0
  9 10  1  0
  9 11  1  0
 10 12  1  0
 11  5  1  6
 33 34  1  0
 33 35  1  0
 34 36  1  0
 35 37  1  0
 36 42  1  1
 20 21  2  0
 21 22  1  0
M  CHG  2   2  -1  26  -1
M  END
>  <COMPND>  (161) 
    8629 

>  <AUTHOR>  (161) 
    GENERATED BY OPEN BABEL 3.1.1

>  <MASTER>  (161) 
        0    0    0    0    0    0    0    0   58    0   58    0

>  <minimizedAffinity>  (161) 
-6.64083

>  <CNNscore>  (161) 
0.8353497386

>  <CNNaffinity>  (161) 
4.5675077438

>  <CNN_VS>  (161) 
3.8154664040

>  <CNNaffinity_variance>  (161) 
0.0174477715

$$$$
162
     RDKit          3D

 43 45  0  0  0  0  0  0  0  0999 V2000
   21.8848   71.6685   -2.2950 P   0  0  2  0  0  0  0  0  0  0  0  0
   21.2037   73.1073   -2.5842 O   0  0  0  0  0  0  0  0  0  0  0  0
   23.0107   71.3034   -3.2172 O   0  0  0  0  0  0  0  0  0  0  0  0
   20.6331   70.6435   -2.2740 O   0  0  0  0  0  0  0  0  0  0  0  0
   19.9949   70.3306   -3.4998 C   0  0  0  0  0  0  0  0  0  0  0  0
   18.2545   71.5143   -4.6590 O   0  0  0  0  0  0  0  0  0  0  0  0
   16.3428   70.1521   -2.7933 O   0  0  0  0  0  0  0  0  0  0  0  0
   16.1061   68.6722   -5.0716 O   0  0  0  0  0  0  0  0  0  0  0  0
   17.5458   69.6526   -3.3753 C   0  0  1  0  0  0  0  0  0  0  0  0
   17.3302   69.3396   -4.8413 C   0  0  2  0  0  0  0  0  0  0  0  0
   18.5474   70.7989   -3.4388 C   0  0  1  0  0  0  0  0  0  0  0  0
   17.3687   70.7231   -5.4678 C   0  0  2  0  0  0  0  0  0  0  0  0
   15.6878   69.4377   -2.7419 H   0  0  0  0  0  0  0  0  0  0  0  0
   16.1310   67.7973   -4.6536 H   0  0  0  0  0  0  0  0  0  0  0  0
   15.7796   70.1934   -7.7421 O   0  0  0  0  0  0  0  0  0  0  0  0
   19.3738   70.6608  -10.5889 O   0  0  0  0  0  0  0  0  0  0  0  0
   17.8632   70.7004   -6.8155 N   0  0  0  0  0  0  0  0  0  0  0  0
   17.5704   70.4267   -9.1577 N   0  0  0  0  0  0  0  0  0  0  0  0
   16.9821   70.4230   -7.8866 C   0  0  0  0  0  0  0  0  0  0  0  0
   19.2081   70.9517   -7.0645 C   0  0  0  0  0  0  0  0  0  0  0  0
   19.7538   70.9503   -8.2825 C   0  0  0  0  0  0  0  0  0  0  0  0
   18.9019   70.6694   -9.4561 C   0  0  0  0  0  0  0  0  0  0  0  0
   16.9759   70.2356   -9.9191 H   0  0  0  0  0  0  0  0  0  0  0  0
   22.2982   71.7691   -0.7355 O   0  0  0  0  0  0  0  0  0  0  0  0
   22.8998   70.6617    0.2768 P   0  0  2  0  0  0  0  0  0  0  0  0
   21.5842   70.0880    1.0235 O   0  0  0  0  0  0  0  0  0  0  0  0
   23.9588   71.1855    1.2031 O   0  0  0  0  0  0  0  0  0  0  0  0
   23.3846   69.4550   -0.6792 O   0  0  0  0  0  0  0  0  0  0  0  0
   24.7190   67.7746    0.3270 O   0  0  0  0  0  0  0  0  0  0  0  0
   25.5227   66.9669   -3.6420 O   0  0  0  0  0  0  0  0  0  0  0  0
   23.8525   65.1768   -2.1407 O   0  0  0  0  0  0  0  0  0  0  0  0
   25.2607   69.7085   -2.7507 O   0  0  0  0  0  0  0  0  0  0  0  0
   24.7171   67.3723   -2.5320 C   0  0  1  0  0  0  0  0  0  0  0  0
   24.6381   66.2057   -1.5453 C   0  0  1  0  0  0  0  0  0  0  0  0
   25.3551   68.5929   -1.8715 C   0  0  2  0  0  0  0  0  0  0  0  0
   24.0182   66.6480   -0.2130 C   0  0  1  0  0  0  0  0  0  0  0  0
   24.6963   68.9180   -0.5297 C   0  0  1  0  0  0  0  0  0  0  0  0
   25.1228   66.1925   -4.0661 H   0  0  0  0  0  0  0  0  0  0  0  0
   24.2545   64.9069   -2.9814 H   0  0  0  0  0  0  0  0  0  0  0  0
   25.6816   69.4902   -3.5963 H   0  0  0  0  0  0  0  0  0  0  0  0
   24.6780   66.0639    2.0079 O   0  0  0  0  0  0  0  0  0  0  0  0
   24.0738   65.5422    0.8388 C   0  0  0  0  0  0  0  0  0  0  0  0
   24.7198   65.3712    2.6862 H   0  0  0  0  0  0  0  0  0  0  0  0
 25 28  1  0
 25 24  1  0
 25 26  1  1
 25 27  2  0
  1  4  1  0
  1 24  1  0
  1  2  1  6
  1  3  2  0
  6 11  1  0
  6 12  1  0
 29 36  1  0
 29 37  1  0
  9  7  1  6
  7 13  1  0
 10  8  1  1
  8 14  1  0
 37 28  1  6
  4  5  1  0
 33 30  1  6
 30 38  1  0
 34 31  1  6
 31 39  1  0
 35 32  1  6
 32 40  1  0
 41 42  1  0
 41 43  1  0
 15 19  2  0
 16 22  2  0
 12 17  1  6
 17 19  1  0
 17 20  1  0
 18 19  1  0
 18 22  1  0
 18 23  1  0
  9 10  1  0
  9 11  1  0
 10 12  1  0
 11  5  1  6
 33 34  1  0
 33 35  1  0
 34 36  1  0
 35 37  1  0
 36 42  1  1
 20 21  2  0
 21 22  1  0
M  CHG  2   2  -1  26  -1
M  END
>  <COMPND>  (162) 
    8629 

>  <AUTHOR>  (162) 
    GENERATED BY OPEN BABEL 3.1.1

>  <MASTER>  (162) 
        0    0    0    0    0    0    0    0   58    0   58    0

>  <minimizedAffinity>  (162) 
-9.84929

>  <CNNscore>  (162) 
0.8261665702

>  <CNNaffinity>  (162) 
5.0483832359

>  <CNN_VS>  (162) 
4.1708054543

>  <CNNaffinity_variance>  (162) 
0.1037807837

$$$$
163
     RDKit          3D

 43 45  0  0  0  0  0  0  0  0999 V2000
   22.8475   72.7691   -4.2751 P   0  0  2  0  0  0  0  0  0  0  0  0
   23.1872   73.6845   -5.5651 O   0  0  0  0  0  0  0  0  0  0  0  0
   24.0240   72.0555   -3.6769 O   0  0  0  0  0  0  0  0  0  0  0  0
   21.6340   71.8244   -4.7780 O   0  0  0  0  0  0  0  0  0  0  0  0
   21.0574   70.9162   -3.8557 C   0  0  0  0  0  0  0  0  0  0  0  0
   19.0708   71.8852   -4.7981 O   0  0  0  0  0  0  0  0  0  0  0  0
   17.6085   70.6902   -2.4691 O   0  0  0  0  0  0  0  0  0  0  0  0
   17.0534   68.9368   -4.4826 O   0  0  0  0  0  0  0  0  0  0  0  0
   18.7145   70.1685   -3.2039 C   0  0  1  0  0  0  0  0  0  0  0  0
   18.2577   69.6719   -4.5598 C   0  0  2  0  0  0  0  0  0  0  0  0
   19.6196   71.3348   -3.5807 C   0  0  1  0  0  0  0  0  0  0  0  0
   18.1020   70.9695   -5.3345 C   0  0  2  0  0  0  0  0  0  0  0  0
   17.0164   69.9636   -2.2171 H   0  0  0  0  0  0  0  0  0  0  0  0
   17.2042   68.1207   -3.9806 H   0  0  0  0  0  0  0  0  0  0  0  0
   16.1765   70.0660   -7.1930 O   0  0  0  0  0  0  0  0  0  0  0  0
   19.1538   70.3619  -10.6986 O   0  0  0  0  0  0  0  0  0  0  0  0
   18.3468   70.8015   -6.7392 N   0  0  0  0  0  0  0  0  0  0  0  0
   17.6605   70.2142   -8.9370 N   0  0  0  0  0  0  0  0  0  0  0  0
   17.3120   70.3410   -7.5863 C   0  0  0  0  0  0  0  0  0  0  0  0
   19.6015   71.0925   -7.2636 C   0  0  0  0  0  0  0  0  0  0  0  0
   19.9181   70.9650   -8.5539 C   0  0  0  0  0  0  0  0  0  0  0  0
   18.8938   70.4896   -9.5062 C   0  0  0  0  0  0  0  0  0  0  0  0
   16.9556   69.8946   -9.5459 H   0  0  0  0  0  0  0  0  0  0  0  0
   22.1111   73.8061   -3.2774 O   0  0  0  0  0  0  0  0  0  0  0  0
   22.7109   74.8370   -2.1864 P   0  0  2  0  0  0  0  0  0  0  0  0
   21.8633   76.1898   -2.4490 O   0  0  0  0  0  0  0  0  0  0  0  0
   24.1998   75.0148   -2.2612 O   0  0  0  0  0  0  0  0  0  0  0  0
   22.1733   74.2882   -0.7670 O   0  0  0  0  0  0  0  0  0  0  0  0
   21.2537   72.1337   -0.4080 O   0  0  0  0  0  0  0  0  0  0  0  0
   19.2560   74.2054    2.5531 O   0  0  0  0  0  0  0  0  0  0  0  0
   21.3455   72.3701    3.2695 O   0  0  0  0  0  0  0  0  0  0  0  0
   19.7363   75.4574   -0.0124 O   0  0  0  0  0  0  0  0  0  0  0  0
   20.3627   73.8885    1.7045 C   0  0  1  0  0  0  0  0  0  0  0  0
   20.7690   72.4372    1.9682 C   0  0  1  0  0  0  0  0  0  0  0  0
   19.9433   74.0731    0.2473 C   0  0  2  0  0  0  0  0  0  0  0  0
   21.7688   71.9417    0.9146 C   0  0  1  0  0  0  0  0  0  0  0  0
   20.9851   73.5028   -0.7169 C   0  0  1  0  0  0  0  0  0  0  0  0
   19.5158   74.0907    3.4798 H   0  0  0  0  0  0  0  0  0  0  0  0
   20.7042   72.6862    3.9253 H   0  0  0  0  0  0  0  0  0  0  0  0
   19.0746   75.8064    0.6042 H   0  0  0  0  0  0  0  0  0  0  0  0
   22.7629   70.0137   -0.0871 O   0  0  0  0  0  0  0  0  0  0  0  0
   22.0669   70.4515    1.0653 C   0  0  0  0  0  0  0  0  0  0  0  0
   22.9596   69.0669   -0.0051 H   0  0  0  0  0  0  0  0  0  0  0  0
 25 28  1  0
 25 24  1  0
 25 26  1  6
 25 27  2  0
  1  4  1  0
  1 24  1  0
  1  2  1  6
  1  3  2  0
  6 11  1  0
  6 12  1  0
 29 36  1  0
 29 37  1  0
  9  7  1  1
  7 13  1  0
 10  8  1  1
  8 14  1  0
 37 28  1  1
  4  5  1  0
 33 30  1  1
 30 38  1  0
 34 31  1  1
 31 39  1  0
 35 32  1  6
 32 40  1  0
 41 42  1  0
 41 43  1  0
 15 19  2  0
 16 22  2  0
 12 17  1  6
 17 19  1  0
 17 20  1  0
 18 19  1  0
 18 22  1  0
 18 23  1  0
  9 10  1  0
  9 11  1  0
 10 12  1  0
 11  5  1  6
 33 34  1  0
 33 35  1  0
 34 36  1  0
 35 37  1  0
 36 42  1  1
 20 21  2  0
 21 22  1  0
M  CHG  2   2  -1  26  -1
M  END
>  <COMPND>  (163) 
    8629 

>  <AUTHOR>  (163) 
    GENERATED BY OPEN BABEL 3.1.1

>  <MASTER>  (163) 
        0    0    0    0    0    0    0    0   58    0   58    0

>  <minimizedAffinity>  (163) 
-6.52149

>  <CNNscore>  (163) 
0.7855616212

>  <CNNaffinity>  (163) 
4.4347877502

>  <CNN_VS>  (163) 
3.4837989807

>  <CNNaffinity_variance>  (163) 
0.0424007289

$$$$
164
     RDKit          3D

 43 45  0  0  0  0  0  0  0  0999 V2000
   23.0828   72.0815   -2.6905 P   0  0  2  0  0  0  0  0  0  0  0  0
   23.3109   73.5074   -3.4200 O   0  0  0  0  0  0  0  0  0  0  0  0
   23.7711   70.9186   -3.3426 O   0  0  0  0  0  0  0  0  0  0  0  0
   21.4742   71.9640   -2.5620 O   0  0  0  0  0  0  0  0  0  0  0  0
   20.7700   71.2222   -3.5427 C   0  0  0  0  0  0  0  0  0  0  0  0
   18.6760   71.8729   -4.5253 O   0  0  0  0  0  0  0  0  0  0  0  0
   17.3706   70.3686   -2.2839 O   0  0  0  0  0  0  0  0  0  0  0  0
   17.1815   68.6166   -4.3651 O   0  0  0  0  0  0  0  0  0  0  0  0
   18.5704   70.0670   -2.9945 C   0  0  1  0  0  0  0  0  0  0  0  0
   18.2449   69.5471   -4.3792 C   0  0  2  0  0  0  0  0  0  0  0  0
   19.2745   71.3818   -3.3059 C   0  0  1  0  0  0  0  0  0  0  0  0
   17.8934   70.8254   -5.1212 C   0  0  2  0  0  0  0  0  0  0  0  0
   16.9037   69.5442   -2.0737 H   0  0  0  0  0  0  0  0  0  0  0  0
   17.4541   67.8211   -3.8819 H   0  0  0  0  0  0  0  0  0  0  0  0
   16.1497   69.7947   -7.0897 O   0  0  0  0  0  0  0  0  0  0  0  0
   19.1934   70.5822  -10.4597 O   0  0  0  0  0  0  0  0  0  0  0  0
   18.2044   70.7494   -6.5208 N   0  0  0  0  0  0  0  0  0  0  0  0
   17.6665   70.1878   -8.7661 N   0  0  0  0  0  0  0  0  0  0  0  0
   17.2591   70.2136   -7.4262 C   0  0  0  0  0  0  0  0  0  0  0  0
   19.4349   71.2035   -6.9828 C   0  0  0  0  0  0  0  0  0  0  0  0
   19.8086   71.1707   -8.2637 C   0  0  0  0  0  0  0  0  0  0  0  0
   18.8791   70.6260   -9.2743 C   0  0  0  0  0  0  0  0  0  0  0  0
   17.0244   69.8184   -9.4150 H   0  0  0  0  0  0  0  0  0  0  0  0
   23.5484   72.3725   -1.1701 O   0  0  0  0  0  0  0  0  0  0  0  0
   23.2770   71.5555    0.1980 P   0  0  2  0  0  0  0  0  0  0  0  0
   24.7541   71.4079    0.8413 O   0  0  0  0  0  0  0  0  0  0  0  0
   22.5529   70.2547    0.0046 O   0  0  0  0  0  0  0  0  0  0  0  0
   22.5175   72.6074    1.1581 O   0  0  0  0  0  0  0  0  0  0  0  0
   21.9270   72.1824    3.4137 O   0  0  0  0  0  0  0  0  0  0  0  0
   18.9695   74.9011    2.4584 O   0  0  0  0  0  0  0  0  0  0  0  0
   21.1212   75.6956    4.1866 O   0  0  0  0  0  0  0  0  0  0  0  0
   19.8074   72.9339    0.5071 O   0  0  0  0  0  0  0  0  0  0  0  0
   20.2805   74.3316    2.4107 C   0  0  1  0  0  0  0  0  0  0  0  0
   20.8596   74.3419    3.8268 C   0  0  1  0  0  0  0  0  0  0  0  0
   20.1850   72.9027    1.8793 C   0  0  2  0  0  0  0  0  0  0  0  0
   22.1467   73.5098    3.9051 C   0  0  1  0  0  0  0  0  0  0  0  0
   21.5045   72.1476    2.0491 C   0  0  1  0  0  0  0  0  0  0  0  0
   19.0231   75.8086    2.7945 H   0  0  0  0  0  0  0  0  0  0  0  0
   20.3006   76.2102    4.1326 H   0  0  0  0  0  0  0  0  0  0  0  0
   18.9706   73.4143    0.4130 H   0  0  0  0  0  0  0  0  0  0  0  0
   21.5485   73.4621    6.2179 O   0  0  0  0  0  0  0  0  0  0  0  0
   22.6550   73.3762    5.3389 C   0  0  0  0  0  0  0  0  0  0  0  0
   21.8570   73.3783    7.1341 H   0  0  0  0  0  0  0  0  0  0  0  0
 25 28  1  0
 25 24  1  0
 25 26  1  1
 25 27  2  0
  1  4  1  0
  1 24  1  0
  1  2  1  6
  1  3  2  0
  6 11  1  0
  6 12  1  0
 29 36  1  0
 29 37  1  0
  9  7  1  1
  7 13  1  0
 10  8  1  1
  8 14  1  0
 37 28  1  6
  4  5  1  0
 33 30  1  1
 30 38  1  0
 34 31  1  6
 31 39  1  0
 35 32  1  6
 32 40  1  0
 41 42  1  0
 41 43  1  0
 15 19  2  0
 16 22  2  0
 12 17  1  6
 17 19  1  0
 17 20  1  0
 18 19  1  0
 18 22  1  0
 18 23  1  0
  9 10  1  0
  9 11  1  0
 10 12  1  0
 11  5  1  6
 33 34  1  0
 33 35  1  0
 34 36  1  0
 35 37  1  0
 36 42  1  1
 20 21  2  0
 21 22  1  0
M  CHG  2   2  -1  26  -1
M  END
>  <COMPND>  (164) 
    8629 

>  <AUTHOR>  (164) 
    GENERATED BY OPEN BABEL 3.1.1

>  <MASTER>  (164) 
        0    0    0    0    0    0    0    0   58    0   58    0

>  <minimizedAffinity>  (164) 
-6.49947

>  <CNNscore>  (164) 
0.7785180211

>  <CNNaffinity>  (164) 
4.5570821762

>  <CNN_VS>  (164) 
3.5477705002

>  <CNNaffinity_variance>  (164) 
0.0746896043

$$$$
165
     RDKit          3D

 43 45  0  0  0  0  0  0  0  0999 V2000
   23.3528   72.0408   -3.3284 P   0  0  2  0  0  0  0  0  0  0  0  0
   24.2677   72.7863   -4.4350 O   0  0  0  0  0  0  0  0  0  0  0  0
   23.8502   70.6917   -2.8995 O   0  0  0  0  0  0  0  0  0  0  0  0
   21.8671   72.0710   -3.9683 O   0  0  0  0  0  0  0  0  0  0  0  0
   21.0555   70.9157   -3.8482 C   0  0  0  0  0  0  0  0  0  0  0  0
   19.0750   71.8958   -4.7921 O   0  0  0  0  0  0  0  0  0  0  0  0
   17.6056   70.7151   -2.4602 O   0  0  0  0  0  0  0  0  0  0  0  0
   17.0385   68.9612   -4.4700 O   0  0  0  0  0  0  0  0  0  0  0  0
   18.7080   70.1847   -3.1943 C   0  0  1  0  0  0  0  0  0  0  0  0
   18.2476   69.6883   -4.5490 C   0  0  2  0  0  0  0  0  0  0  0  0
   19.6205   71.3443   -3.5737 C   0  0  1  0  0  0  0  0  0  0  0  0
   18.1001   70.9853   -5.3263 C   0  0  2  0  0  0  0  0  0  0  0  0
   17.0088   69.9930   -2.2066 H   0  0  0  0  0  0  0  0  0  0  0  0
   17.1841   68.1452   -3.9663 H   0  0  0  0  0  0  0  0  0  0  0  0
   16.1719   70.0785   -7.1803 O   0  0  0  0  0  0  0  0  0  0  0  0
   19.1463   70.3604  -10.6895 O   0  0  0  0  0  0  0  0  0  0  0  0
   18.3434   70.8129   -6.7307 N   0  0  0  0  0  0  0  0  0  0  0  0
   17.6544   70.2198   -8.9262 N   0  0  0  0  0  0  0  0  0  0  0  0
   17.3073   70.3510   -7.5755 C   0  0  0  0  0  0  0  0  0  0  0  0
   19.5979   71.1009   -7.2572 C   0  0  0  0  0  0  0  0  0  0  0  0
   19.9132   70.9692   -8.5473 C   0  0  0  0  0  0  0  0  0  0  0  0
   18.8875   70.4921   -9.4972 C   0  0  0  0  0  0  0  0  0  0  0  0
   16.9486   69.8992   -9.5335 H   0  0  0  0  0  0  0  0  0  0  0  0
   23.2587   73.1321   -2.1396 O   0  0  0  0  0  0  0  0  0  0  0  0
   22.5747   74.5961   -2.0943 P   0  0  2  0  0  0  0  0  0  0  0  0
   22.6310   75.0798   -3.6371 O   0  0  0  0  0  0  0  0  0  0  0  0
   23.2162   75.5452   -1.1239 O   0  0  0  0  0  0  0  0  0  0  0  0
   21.0115   74.3081   -1.8141 O   0  0  0  0  0  0  0  0  0  0  0  0
   19.0186   75.4310   -2.4339 O   0  0  0  0  0  0  0  0  0  0  0  0
   18.0547   74.4809    1.4672 O   0  0  0  0  0  0  0  0  0  0  0  0
   16.7840   73.0742   -0.6902 O   0  0  0  0  0  0  0  0  0  0  0  0
   20.7538   75.2888    0.8025 O   0  0  0  0  0  0  0  0  0  0  0  0
   18.6576   74.2747    0.1868 C   0  0  1  0  0  0  0  0  0  0  0  0
   17.5499   74.2624   -0.8684 C   0  0  1  0  0  0  0  0  0  0  0  0
   19.6480   75.4051   -0.0864 C   0  0  2  0  0  0  0  0  0  0  0  0
   18.1349   74.3134   -2.2863 C   0  0  1  0  0  0  0  0  0  0  0  0
   20.1311   75.3943   -1.5378 C   0  0  1  0  0  0  0  0  0  0  0  0
   17.4251   73.7663    1.6471 H   0  0  0  0  0  0  0  0  0  0  0  0
   16.4207   73.0541    0.2091 H   0  0  0  0  0  0  0  0  0  0  0  0
   20.4348   75.2972    1.7180 H   0  0  0  0  0  0  0  0  0  0  0  0
   16.4545   73.1936   -3.5635 O   0  0  0  0  0  0  0  0  0  0  0  0
   17.0478   74.4610   -3.3486 C   0  0  0  0  0  0  0  0  0  0  0  0
   15.7604   73.2723   -4.2371 H   0  0  0  0  0  0  0  0  0  0  0  0
 25 28  1  0
 25 24  1  0
 25 26  1  6
 25 27  2  0
  1  4  1  0
  1 24  1  0
  1  2  1  6
  1  3  2  0
  6 11  1  0
  6 12  1  0
 29 36  1  0
 29 37  1  0
  9  7  1  1
  7 13  1  0
 10  8  1  1
  8 14  1  0
 37 28  1  6
  4  5  1  0
 33 30  1  1
 30 38  1  0
 34 31  1  6
 31 39  1  0
 35 32  1  1
 32 40  1  0
 41 42  1  0
 41 43  1  0
 15 19  2  0
 16 22  2  0
 12 17  1  6
 17 19  1  0
 17 20  1  0
 18 19  1  0
 18 22  1  0
 18 23  1  0
  9 10  1  0
  9 11  1  0
 10 12  1  0
 11  5  1  6
 33 34  1  0
 33 35  1  0
 34 36  1  0
 35 37  1  0
 36 42  1  6
 20 21  2  0
 21 22  1  0
M  CHG  2   2  -1  26  -1
M  END
>  <COMPND>  (165) 
    8629 

>  <AUTHOR>  (165) 
    GENERATED BY OPEN BABEL 3.1.1

>  <MASTER>  (165) 
        0    0    0    0    0    0    0    0   58    0   58    0

>  <minimizedAffinity>  (165) 
-5.82545

>  <CNNscore>  (165) 
0.7726653814

>  <CNNaffinity>  (165) 
4.3460245132

>  <CNN_VS>  (165) 
3.3580226898

>  <CNNaffinity_variance>  (165) 
0.1877674907

$$$$
166
     RDKit          3D

 43 45  0  0  0  0  0  0  0  0999 V2000
   20.0082   70.8933   -2.8203 P   0  0  2  0  0  0  0  0  0  0  0  0
   20.9574   69.9177   -3.6948 O   0  0  0  0  0  0  0  0  0  0  0  0
   19.3220   70.2358   -1.6591 O   0  0  0  0  0  0  0  0  0  0  0  0
   19.0342   71.5741   -3.9183 O   0  0  0  0  0  0  0  0  0  0  0  0
   18.2663   72.7014   -3.5344 C   0  0  0  0  0  0  0  0  0  0  0  0
   16.5569   72.5991   -5.2201 O   0  0  0  0  0  0  0  0  0  0  0  0
   14.9870   70.9577   -3.2625 O   0  0  0  0  0  0  0  0  0  0  0  0
   15.9995   69.0668   -4.9465 O   0  0  0  0  0  0  0  0  0  0  0  0
   16.3939   70.9793   -3.4980 C   0  0  1  0  0  0  0  0  0  0  0  0
   16.7204   70.2729   -4.7973 C   0  0  2  0  0  0  0  0  0  0  0  0
   16.7959   72.4160   -3.8074 C   0  0  1  0  0  0  0  0  0  0  0  0
   16.3325   71.3175   -5.8300 C   0  0  2  0  0  0  0  0  0  0  0  0
   14.7067   70.0503   -3.0625 H   0  0  0  0  0  0  0  0  0  0  0  0
   16.2819   68.4349   -4.2670 H   0  0  0  0  0  0  0  0  0  0  0  0
   15.9879   72.9614   -8.1008 O   0  0  0  0  0  0  0  0  0  0  0  0
   19.4193   70.8732  -10.3603 O   0  0  0  0  0  0  0  0  0  0  0  0
   17.1223   71.2254   -7.0255 N   0  0  0  0  0  0  0  0  0  0  0  0
   17.6968   71.9204   -9.2239 N   0  0  0  0  0  0  0  0  0  0  0  0
   16.8673   72.0976   -8.1093 C   0  0  0  0  0  0  0  0  0  0  0  0
   18.1367   70.2783   -7.1147 C   0  0  0  0  0  0  0  0  0  0  0  0
   18.9180   70.1213   -8.1852 C   0  0  0  0  0  0  0  0  0  0  0  0
   18.7174   70.9928   -9.3609 C   0  0  0  0  0  0  0  0  0  0  0  0
   17.5374   72.5167   -9.9912 H   0  0  0  0  0  0  0  0  0  0  0  0
   21.0026   72.1023   -2.4173 O   0  0  0  0  0  0  0  0  0  0  0  0
   21.0952   72.9980   -1.0749 P   0  0  2  0  0  0  0  0  0  0  0  0
   19.6681   72.7403   -0.3577 O   0  0  0  0  0  0  0  0  0  0  0  0
   21.4124   74.4446   -1.3210 O   0  0  0  0  0  0  0  0  0  0  0  0
   22.1647   72.2279   -0.1430 O   0  0  0  0  0  0  0  0  0  0  0  0
   24.3615   72.8531    0.4891 O   0  0  0  0  0  0  0  0  0  0  0  0
   24.9143   68.7772    0.1255 O   0  0  0  0  0  0  0  0  0  0  0  0
   24.8649   69.9742    2.7357 O   0  0  0  0  0  0  0  0  0  0  0  0
   23.2074   70.1757   -1.7481 O   0  0  0  0  0  0  0  0  0  0  0  0
   24.1928   69.9713    0.4402 C   0  0  1  0  0  0  0  0  0  0  0  0
   24.9620   70.7238    1.5278 C   0  0  1  0  0  0  0  0  0  0  0  0
   24.0685   70.8261   -0.8197 C   0  0  2  0  0  0  0  0  0  0  0  0
   24.3974   72.1366    1.7289 C   0  0  1  0  0  0  0  0  0  0  0  0
   23.5440   72.2275   -0.5019 C   0  0  1  0  0  0  0  0  0  0  0  0
   24.9963   68.2298    0.9211 H   0  0  0  0  0  0  0  0  0  0  0  0
   25.2243   69.0841    2.5950 H   0  0  0  0  0  0  0  0  0  0  0  0
   23.5505   69.2898   -1.9413 H   0  0  0  0  0  0  0  0  0  0  0  0
   26.5149   72.3426    2.8165 O   0  0  0  0  0  0  0  0  0  0  0  0
   25.2464   72.9596    2.6953 C   0  0  0  0  0  0  0  0  0  0  0  0
   27.0662   72.8558    3.4284 H   0  0  0  0  0  0  0  0  0  0  0  0
 25 28  1  0
 25 24  1  0
 25 26  1  1
 25 27  2  0
  1  4  1  0
  1 24  1  0
  1  2  1  6
  1  3  2  0
  6 11  1  0
  6 12  1  0
 29 36  1  0
 29 37  1  0
  9  7  1  6
  7 13  1  0
 10  8  1  6
  8 14  1  0
 37 28  1  1
  4  5  1  0
 33 30  1  6
 30 38  1  0
 34 31  1  1
 31 39  1  0
 35 32  1  6
 32 40  1  0
 41 42  1  0
 41 43  1  0
 15 19  2  0
 16 22  2  0
 12 17  1  6
 17 19  1  0
 17 20  1  0
 18 19  1  0
 18 22  1  0
 18 23  1  0
  9 10  1  0
  9 11  1  0
 10 12  1  0
 11  5  1  6
 33 34  1  0
 33 35  1  0
 34 36  1  0
 35 37  1  0
 36 42  1  1
 20 21  2  0
 21 22  1  0
M  CHG  2   2  -1  26  -1
M  END
>  <COMPND>  (166) 
    8629 

>  <AUTHOR>  (166) 
    GENERATED BY OPEN BABEL 3.1.1

>  <MASTER>  (166) 
        0    0    0    0    0    0    0    0   58    0   58    0

>  <minimizedAffinity>  (166) 
-7.04679

>  <CNNscore>  (166) 
0.6878572702

>  <CNNaffinity>  (166) 
4.3368902206

>  <CNN_VS>  (166) 
2.9831614494

>  <CNNaffinity_variance>  (166) 
0.1443410218

$$$$
167
     RDKit          3D

 43 45  0  0  0  0  0  0  0  0999 V2000
   21.1303   72.4763   -5.2401 P   0  0  2  0  0  0  0  0  0  0  0  0
   20.2261   71.9641   -4.0001 O   0  0  0  0  0  0  0  0  0  0  0  0
   20.8622   73.8854   -5.6805 O   0  0  0  0  0  0  0  0  0  0  0  0
   20.9229   71.3359   -6.3691 O   0  0  0  0  0  0  0  0  0  0  0  0
   20.3184   71.7022   -7.5971 C   0  0  0  0  0  0  0  0  0  0  0  0
   18.8942   69.8625   -6.9963 O   0  0  0  0  0  0  0  0  0  0  0  0
   18.0440   69.8253   -9.8715 O   0  0  0  0  0  0  0  0  0  0  0  0
   15.9732   71.1180   -8.6560 O   0  0  0  0  0  0  0  0  0  0  0  0
   18.3673   70.9391   -9.0406 C   0  0  1  0  0  0  0  0  0  0  0  0
   17.2488   71.2010   -8.0537 C   0  0  2  0  0  0  0  0  0  0  0  0
   19.5105   70.5238   -8.1230 C   0  0  1  0  0  0  0  0  0  0  0  0
   17.4792   70.1116   -7.0201 C   0  0  2  0  0  0  0  0  0  0  0  0
   17.3164   70.0666  -10.4667 H   0  0  0  0  0  0  0  0  0  0  0  0
   15.8751   71.8318   -9.3054 H   0  0  0  0  0  0  0  0  0  0  0  0
   16.6261   68.3136   -5.0158 O   0  0  0  0  0  0  0  0  0  0  0  0
   15.8642   71.7303   -2.0180 O   0  0  0  0  0  0  0  0  0  0  0  0
   17.0527   70.5040   -5.7065 N   0  0  0  0  0  0  0  0  0  0  0  0
   16.2476   70.0163   -3.5247 N   0  0  0  0  0  0  0  0  0  0  0  0
   16.6427   69.5224   -4.7744 C   0  0  0  0  0  0  0  0  0  0  0  0
   17.0443   71.8491   -5.3536 C   0  0  0  0  0  0  0  0  0  0  0  0
   16.6634   72.3039   -4.1580 C   0  0  0  0  0  0  0  0  0  0  0  0
   16.2204   71.3435   -3.1267 C   0  0  0  0  0  0  0  0  0  0  0  0
   15.9575   69.3507   -2.8594 H   0  0  0  0  0  0  0  0  0  0  0  0
   22.6388   72.2078   -4.7253 O   0  0  0  0  0  0  0  0  0  0  0  0
   23.5568   73.0101   -3.6639 P   0  0  2  0  0  0  0  0  0  0  0  0
   22.5460   74.1227   -3.0655 O   0  0  0  0  0  0  0  0  0  0  0  0
   24.8219   73.5717   -4.2453 O   0  0  0  0  0  0  0  0  0  0  0  0
   23.7824   71.9698   -2.4506 O   0  0  0  0  0  0  0  0  0  0  0  0
   24.1049   69.6221   -2.4770 O   0  0  0  0  0  0  0  0  0  0  0  0
   21.8176   69.9354    0.9465 O   0  0  0  0  0  0  0  0  0  0  0  0
   24.6193   69.3425    1.1625 O   0  0  0  0  0  0  0  0  0  0  0  0
   21.2303   71.6097   -1.3407 O   0  0  0  0  0  0  0  0  0  0  0  0
   22.7957   70.3530   -0.0097 C   0  0  1  0  0  0  0  0  0  0  0  0
   23.8965   69.2918   -0.0643 C   0  0  1  0  0  0  0  0  0  0  0  0
   22.1265   70.5043   -1.3746 C   0  0  2  0  0  0  0  0  0  0  0  0
   24.8397   69.5326   -1.2507 C   0  0  1  0  0  0  0  0  0  0  0  0
   23.1559   70.6903   -2.4907 C   0  0  1  0  0  0  0  0  0  0  0  0
   22.2359   69.8379    1.8155 H   0  0  0  0  0  0  0  0  0  0  0  0
   24.0122   69.1894    1.9035 H   0  0  0  0  0  0  0  0  0  0  0  0
   20.5835   71.4798   -0.6302 H   0  0  0  0  0  0  0  0  0  0  0  0
   26.5484   68.5955   -2.6331 O   0  0  0  0  0  0  0  0  0  0  0  0
   25.8497   68.3994   -1.4175 C   0  0  0  0  0  0  0  0  0  0  0  0
   27.1950   67.8818   -2.7525 H   0  0  0  0  0  0  0  0  0  0  0  0
 25 28  1  0
 25 24  1  0
 25 26  1  1
 25 27  2  0
  1  4  1  0
  1 24  1  0
  1  2  1  1
  1  3  2  0
  6 11  1  0
  6 12  1  0
 29 36  1  0
 29 37  1  0
  9  7  1  6
  7 13  1  0
 10  8  1  6
  8 14  1  0
 37 28  1  1
  4  5  1  0
 33 30  1  1
 30 38  1  0
 34 31  1  1
 31 39  1  0
 35 32  1  1
 32 40  1  0
 41 42  1  0
 41 43  1  0
 15 19  2  0
 16 22  2  0
 12 17  1  1
 17 19  1  0
 17 20  1  0
 18 19  1  0
 18 22  1  0
 18 23  1  0
  9 10  1  0
  9 11  1  0
 10 12  1  0
 11  5  1  1
 33 34  1  0
 33 35  1  0
 34 36  1  0
 35 37  1  0
 36 42  1  6
 20 21  2  0
 21 22  1  0
M  CHG  2   2  -1  26  -1
M  END
>  <COMPND>  (167) 
    8629 

>  <AUTHOR>  (167) 
    GENERATED BY OPEN BABEL 3.1.1

>  <MASTER>  (167) 
        0    0    0    0    0    0    0    0   58    0   58    0

>  <minimizedAffinity>  (167) 
-8.53532

>  <CNNscore>  (167) 
0.6788215041

>  <CNNaffinity>  (167) 
4.4170384407

>  <CNN_VS>  (167) 
2.9983806610

>  <CNNaffinity_variance>  (167) 
0.5573390126

$$$$
168
     RDKit          3D

 43 45  0  0  0  0  0  0  0  0999 V2000
   19.2037   70.9993   -2.3534 P   0  0  2  0  0  0  0  0  0  0  0  0
   18.3741   72.3484   -2.0229 O   0  0  0  0  0  0  0  0  0  0  0  0
   18.3923   69.8861   -2.9482 O   0  0  0  0  0  0  0  0  0  0  0  0
   19.9556   70.6551   -0.9627 O   0  0  0  0  0  0  0  0  0  0  0  0
   21.3683   70.7546   -0.9153 C   0  0  0  0  0  0  0  0  0  0  0  0
   23.0734   71.7831    0.4295 O   0  0  0  0  0  0  0  0  0  0  0  0
   21.0000   71.9626    2.5881 O   0  0  0  0  0  0  0  0  0  0  0  0
   21.0297   74.4964    1.5802 O   0  0  0  0  0  0  0  0  0  0  0  0
   20.8478   72.1057    1.1768 C   0  0  1  0  0  0  0  0  0  0  0  0
   21.4029   73.4388    0.7205 C   0  0  2  0  0  0  0  0  0  0  0  0
   21.7924   71.1197    0.5007 C   0  0  1  0  0  0  0  0  0  0  0  0
   22.8994   73.1773    0.7310 C   0  0  2  0  0  0  0  0  0  0  0  0
   20.4063   72.5822    3.0416 H   0  0  0  0  0  0  0  0  0  0  0  0
   20.0691   74.6237    1.5382 H   0  0  0  0  0  0  0  0  0  0  0  0
   25.0170   74.9525    1.3164 O   0  0  0  0  0  0  0  0  0  0  0  0
   25.5070   76.1194   -3.1152 O   0  0  0  0  0  0  0  0  0  0  0  0
   23.5987   73.9575   -0.2506 N   0  0  0  0  0  0  0  0  0  0  0  0
   25.2593   75.5320   -0.8907 N   0  0  0  0  0  0  0  0  0  0  0  0
   24.6467   74.8195    0.1481 C   0  0  0  0  0  0  0  0  0  0  0  0
   23.2437   73.8633   -1.5919 C   0  0  0  0  0  0  0  0  0  0  0  0
   23.8369   74.5505   -2.5702 C   0  0  0  0  0  0  0  0  0  0  0  0
   24.9415   75.4735   -2.2384 C   0  0  0  0  0  0  0  0  0  0  0  0
   25.9919   76.1390   -0.6366 H   0  0  0  0  0  0  0  0  0  0  0  0
   20.4053   71.5327   -3.2938 O   0  0  0  0  0  0  0  0  0  0  0  0
   20.4169   72.6284   -4.4822 P   0  0  2  0  0  0  0  0  0  0  0  0
   21.8625   72.4094   -5.1747 O   0  0  0  0  0  0  0  0  0  0  0  0
   20.1557   74.0345   -4.0253 O   0  0  0  0  0  0  0  0  0  0  0  0
   19.3577   72.0690   -5.5640 O   0  0  0  0  0  0  0  0  0  0  0  0
   18.7383   69.8294   -6.0300 O   0  0  0  0  0  0  0  0  0  0  0  0
   18.4828   71.3918   -9.8437 O   0  0  0  0  0  0  0  0  0  0  0  0
   16.0787   70.7371   -8.4156 O   0  0  0  0  0  0  0  0  0  0  0  0
   20.6050   72.2489   -8.0713 O   0  0  0  0  0  0  0  0  0  0  0  0
   18.3736   71.4109   -8.4178 C   0  0  1  0  0  0  0  0  0  0  0  0
   17.3781   70.3274   -7.9986 C   0  0  1  0  0  0  0  0  0  0  0  0
   19.7484   71.1427   -7.8083 C   0  0  2  0  0  0  0  0  0  0  0  0
   17.4070   70.1061   -6.4802 C   0  0  1  0  0  0  0  0  0  0  0  0
   19.6587   70.8879   -6.3026 C   0  0  1  0  0  0  0  0  0  0  0  0
   17.6134   71.5619  -10.2369 H   0  0  0  0  0  0  0  0  0  0  0  0
   16.0742   70.8739   -9.3760 H   0  0  0  0  0  0  0  0  0  0  0  0
   20.6537   72.3998   -9.0278 H   0  0  0  0  0  0  0  0  0  0  0  0
   16.1103   69.1331   -4.7250 O   0  0  0  0  0  0  0  0  0  0  0  0
   16.5384   68.9232   -6.0581 C   0  0  0  0  0  0  0  0  0  0  0  0
   15.5562   68.3881   -4.4429 H   0  0  0  0  0  0  0  0  0  0  0  0
 25 28  1  0
 25 24  1  0
 25 26  1  6
 25 27  2  0
  1  4  1  0
  1 24  1  0
  1  2  1  1
  1  3  2  0
  6 11  1  0
  6 12  1  0
 29 36  1  0
 29 37  1  0
  9  7  1  1
  7 13  1  0
 10  8  1  1
  8 14  1  0
 37 28  1  1
  4  5  1  0
 33 30  1  6
 30 38  1  0
 34 31  1  1
 31 39  1  0
 35 32  1  1
 32 40  1  0
 41 42  1  0
 41 43  1  0
 15 19  2  0
 16 22  2  0
 12 17  1  6
 17 19  1  0
 17 20  1  0
 18 19  1  0
 18 22  1  0
 18 23  1  0
  9 10  1  0
  9 11  1  0
 10 12  1  0
 11  5  1  6
 33 34  1  0
 33 35  1  0
 34 36  1  0
 35 37  1  0
 36 42  1  6
 20 21  2  0
 21 22  1  0
M  CHG  2   2  -1  26  -1
M  END
>  <COMPND>  (168) 
    8629 

>  <AUTHOR>  (168) 
    GENERATED BY OPEN BABEL 3.1.1

>  <MASTER>  (168) 
        0    0    0    0    0    0    0    0   58    0   58    0

>  <minimizedAffinity>  (168) 
-6.37455

>  <CNNscore>  (168) 
0.6641520858

>  <CNNaffinity>  (168) 
4.1367959976

>  <CNN_VS>  (168) 
2.7474617958

>  <CNNaffinity_variance>  (168) 
0.0202995297

$$$$
169
     RDKit          3D

 43 45  0  0  0  0  0  0  0  0999 V2000
   21.2144   74.4518   -4.5199 P   0  0  2  0  0  0  0  0  0  0  0  0
   21.0227   75.8658   -3.7574 O   0  0  0  0  0  0  0  0  0  0  0  0
   21.8553   74.5435   -5.8735 O   0  0  0  0  0  0  0  0  0  0  0  0
   19.7391   73.7884   -4.4845 O   0  0  0  0  0  0  0  0  0  0  0  0
   19.5833   72.5184   -3.8755 C   0  0  0  0  0  0  0  0  0  0  0  0
   17.5872   72.2370   -5.1834 O   0  0  0  0  0  0  0  0  0  0  0  0
   16.5024   70.6933   -2.8529 O   0  0  0  0  0  0  0  0  0  0  0  0
   17.2572   68.7180   -4.5748 O   0  0  0  0  0  0  0  0  0  0  0  0
   17.8349   70.7434   -3.3603 C   0  0  1  0  0  0  0  0  0  0  0  0
   17.9368   69.9547   -4.6491 C   0  0  2  0  0  0  0  0  0  0  0  0
   18.1026   72.1659   -3.8359 C   0  0  1  0  0  0  0  0  0  0  0  0
   17.3089   70.9075   -5.6521 C   0  0  2  0  0  0  0  0  0  0  0  0
   16.3083   69.7944   -2.5428 H   0  0  0  0  0  0  0  0  0  0  0  0
   17.6945   68.1472   -3.9238 H   0  0  0  0  0  0  0  0  0  0  0  0
   15.7844   70.3080   -7.9531 O   0  0  0  0  0  0  0  0  0  0  0  0
   19.5163   70.3392  -10.6575 O   0  0  0  0  0  0  0  0  0  0  0  0
   17.8564   70.7537   -6.9705 N   0  0  0  0  0  0  0  0  0  0  0  0
   17.6438   70.3242   -9.2979 N   0  0  0  0  0  0  0  0  0  0  0  0
   17.0043   70.4517   -8.0582 C   0  0  0  0  0  0  0  0  0  0  0  0
   19.2239   70.9025   -7.1746 C   0  0  0  0  0  0  0  0  0  0  0  0
   19.8183   70.7764   -8.3629 C   0  0  0  0  0  0  0  0  0  0  0  0
   18.9994   70.4616   -9.5513 C   0  0  0  0  0  0  0  0  0  0  0  0
   17.0702   70.1137  -10.0701 H   0  0  0  0  0  0  0  0  0  0  0  0
   22.0363   73.5676   -3.4449 O   0  0  0  0  0  0  0  0  0  0  0  0
   23.6194   73.2754   -3.2994 P   0  0  2  0  0  0  0  0  0  0  0  0
   24.1921   74.6456   -2.6573 O   0  0  0  0  0  0  0  0  0  0  0  0
   24.2892   72.8636   -4.5783 O   0  0  0  0  0  0  0  0  0  0  0  0
   23.7270   72.1912   -2.1087 O   0  0  0  0  0  0  0  0  0  0  0  0
   24.0083   69.8468   -2.3124 O   0  0  0  0  0  0  0  0  0  0  0  0
   21.7411   69.9419    1.1374 O   0  0  0  0  0  0  0  0  0  0  0  0
   24.5329   69.2867    1.2931 O   0  0  0  0  0  0  0  0  0  0  0  0
   21.1736   71.7927   -1.0149 O   0  0  0  0  0  0  0  0  0  0  0  0
   22.7223   70.4131    0.2097 C   0  0  1  0  0  0  0  0  0  0  0  0
   23.8041   69.3404    0.0699 C   0  0  1  0  0  0  0  0  0  0  0  0
   22.0503   70.6777   -1.1363 C   0  0  2  0  0  0  0  0  0  0  0  0
   24.7465   69.6532   -1.1003 C   0  0  1  0  0  0  0  0  0  0  0  0
   23.0781   70.9292   -2.2410 C   0  0  1  0  0  0  0  0  0  0  0  0
   22.1612   69.7725    1.9943 H   0  0  0  0  0  0  0  0  0  0  0  0
   23.9263   69.0889    2.0239 H   0  0  0  0  0  0  0  0  0  0  0  0
   20.5276   71.6210   -0.3127 H   0  0  0  0  0  0  0  0  0  0  0  0
   25.2855   67.3656   -0.6697 O   0  0  0  0  0  0  0  0  0  0  0  0
   25.7359   68.5186   -1.3569 C   0  0  0  0  0  0  0  0  0  0  0  0
   25.9054   66.6351   -0.8242 H   0  0  0  0  0  0  0  0  0  0  0  0
 25 28  1  0
 25 24  1  0
 25 26  1  1
 25 27  2  0
  1  4  1  0
  1 24  1  0
  1  2  1  1
  1  3  2  0
  6 11  1  0
  6 12  1  0
 29 36  1  0
 29 37  1  0
  9  7  1  6
  7 13  1  0
 10  8  1  1
  8 14  1  0
 37 28  1  1
  4  5  1  0
 33 30  1  1
 30 38  1  0
 34 31  1  1
 31 39  1  0
 35 32  1  1
 32 40  1  0
 41 42  1  0
 41 43  1  0
 15 19  2  0
 16 22  2  0
 12 17  1  6
 17 19  1  0
 17 20  1  0
 18 19  1  0
 18 22  1  0
 18 23  1  0
  9 10  1  0
  9 11  1  0
 10 12  1  0
 11  5  1  6
 33 34  1  0
 33 35  1  0
 34 36  1  0
 35 37  1  0
 36 42  1  6
 20 21  2  0
 21 22  1  0
M  CHG  2   2  -1  26  -1
M  END
>  <COMPND>  (169) 
    8629 

>  <AUTHOR>  (169) 
    GENERATED BY OPEN BABEL 3.1.1

>  <MASTER>  (169) 
        0    0    0    0    0    0    0    0   58    0   58    0

>  <minimizedAffinity>  (169) 
-8.18428

>  <CNNscore>  (169) 
0.6427630782

>  <CNNaffinity>  (169) 
4.5460767746

>  <CNN_VS>  (169) 
2.9220502377

>  <CNNaffinity_variance>  (169) 
0.0893948898

$$$$
170
     RDKit          3D

 43 45  0  0  0  0  0  0  0  0999 V2000
   20.6776   73.3341   -3.0912 P   0  0  2  0  0  0  0  0  0  0  0  0
   19.8733   74.5244   -2.3471 O   0  0  0  0  0  0  0  0  0  0  0  0
   19.9517   72.0225   -3.1556 O   0  0  0  0  0  0  0  0  0  0  0  0
   22.1118   73.3075   -2.3428 O   0  0  0  0  0  0  0  0  0  0  0  0
   22.1519   73.5589   -0.9489 C   0  0  0  0  0  0  0  0  0  0  0  0
   23.3398   72.3965    0.7865 O   0  0  0  0  0  0  0  0  0  0  0  0
   21.0990   70.4050    0.7283 O   0  0  0  0  0  0  0  0  0  0  0  0
   20.4897   71.9217    2.9112 O   0  0  0  0  0  0  0  0  0  0  0  0
   21.0537   71.8195    0.5484 C   0  0  1  0  0  0  0  0  0  0  0  0
   21.2389   72.5246    1.8758 C   0  0  2  0  0  0  0  0  0  0  0  0
   22.3072   72.2363   -0.2108 C   0  0  1  0  0  0  0  0  0  0  0  0
   22.7378   72.4020    2.0913 C   0  0  2  0  0  0  0  0  0  0  0  0
   20.3083   70.1151    1.2107 H   0  0  0  0  0  0  0  0  0  0  0  0
   19.5429   72.0262    2.7284 H   0  0  0  0  0  0  0  0  0  0  0  0
   22.6626   72.5851    4.9088 O   0  0  0  0  0  0  0  0  0  0  0  0
   24.8244   76.6554    4.8849 O   0  0  0  0  0  0  0  0  0  0  0  0
   23.2739   73.4984    2.8475 N   0  0  0  0  0  0  0  0  0  0  0  0
   23.7392   74.6115    4.8947 N   0  0  0  0  0  0  0  0  0  0  0  0
   23.1839   73.4937    4.2590 C   0  0  0  0  0  0  0  0  0  0  0  0
   23.8810   74.5627    2.1897 C   0  0  0  0  0  0  0  0  0  0  0  0
   24.4046   75.6218    2.8105 C   0  0  0  0  0  0  0  0  0  0  0  0
   24.3519   75.6948    4.2849 C   0  0  0  0  0  0  0  0  0  0  0  0
   23.6877   74.6302    5.8779 H   0  0  0  0  0  0  0  0  0  0  0  0
   21.0309   73.9789   -4.5308 O   0  0  0  0  0  0  0  0  0  0  0  0
   21.3696   73.2844   -5.9506 P   0  0  2  0  0  0  0  0  0  0  0  0
   22.4840   72.1766   -5.5654 O   0  0  0  0  0  0  0  0  0  0  0  0
   21.7974   74.2473   -7.0201 O   0  0  0  0  0  0  0  0  0  0  0  0
   20.0504   72.4272   -6.3111 O   0  0  0  0  0  0  0  0  0  0  0  0
   19.1977   70.2275   -6.0858 O   0  0  0  0  0  0  0  0  0  0  0  0
   18.7375   70.6992  -10.1622 O   0  0  0  0  0  0  0  0  0  0  0  0
   16.4237   70.7293   -8.4611 O   0  0  0  0  0  0  0  0  0  0  0  0
   21.0776   71.7732   -8.8394 O   0  0  0  0  0  0  0  0  0  0  0  0
   18.7593   71.1214   -8.7959 C   0  0  1  0  0  0  0  0  0  0  0  0
   17.7145   70.3106   -8.0266 C   0  0  1  0  0  0  0  0  0  0  0  0
   20.1546   70.8826   -8.2219 C   0  0  2  0  0  0  0  0  0  0  0  0
   17.8606   70.5135   -6.5125 C   0  0  1  0  0  0  0  0  0  0  0  0
   20.1790   71.0630   -6.7030 C   0  0  1  0  0  0  0  0  0  0  0  0
   17.8544   70.8486  -10.5327 H   0  0  0  0  0  0  0  0  0  0  0  0
   16.3447   70.5964   -9.4188 H   0  0  0  0  0  0  0  0  0  0  0  0
   21.0529   71.6490   -9.8006 H   0  0  0  0  0  0  0  0  0  0  0  0
   17.3365   69.6110   -4.3632 O   0  0  0  0  0  0  0  0  0  0  0  0
   16.9333   69.5946   -5.7202 C   0  0  0  0  0  0  0  0  0  0  0  0
   16.7550   69.0307   -3.8467 H   0  0  0  0  0  0  0  0  0  0  0  0
 25 28  1  0
 25 24  1  0
 25 26  1  1
 25 27  2  0
  1  4  1  0
  1 24  1  0
  1  2  1  1
  1  3  2  0
  6 11  1  0
  6 12  1  0
 29 36  1  0
 29 37  1  0
  9  7  1  1
  7 13  1  0
 10  8  1  1
  8 14  1  0
 37 28  1  6
  4  5  1  0
 33 30  1  6
 30 38  1  0
 34 31  1  6
 31 39  1  0
 35 32  1  6
 32 40  1  0
 41 42  1  0
 41 43  1  0
 15 19  2  0
 16 22  2  0
 12 17  1  1
 17 19  1  0
 17 20  1  0
 18 19  1  0
 18 22  1  0
 18 23  1  0
  9 10  1  0
  9 11  1  0
 10 12  1  0
 11  5  1  1
 33 34  1  0
 33 35  1  0
 34 36  1  0
 35 37  1  0
 36 42  1  1
 20 21  2  0
 21 22  1  0
M  CHG  2   2  -1  26  -1
M  END
>  <COMPND>  (170) 
    8629 

>  <AUTHOR>  (170) 
    GENERATED BY OPEN BABEL 3.1.1

>  <MASTER>  (170) 
        0    0    0    0    0    0    0    0   58    0   58    0

>  <minimizedAffinity>  (170) 
-6.64395

>  <CNNscore>  (170) 
0.5288593769

>  <CNNaffinity>  (170) 
4.0745239258

>  <CNN_VS>  (170) 
2.1548502445

>  <CNNaffinity_variance>  (170) 
0.1921398193

$$$$
171
     RDKit          3D

 43 45  0  0  0  0  0  0  0  0999 V2000
   19.9694   71.0673   -2.1794 P   0  0  2  0  0  0  0  0  0  0  0  0
   20.2895   70.6046   -0.6625 O   0  0  0  0  0  0  0  0  0  0  0  0
   20.8007   70.3988   -3.2347 O   0  0  0  0  0  0  0  0  0  0  0  0
   20.0708   72.6811   -2.1228 O   0  0  0  0  0  0  0  0  0  0  0  0
   20.4286   73.3779   -3.3037 C   0  0  0  0  0  0  0  0  0  0  0  0
   22.1520   73.9795   -1.7411 O   0  0  0  0  0  0  0  0  0  0  0  0
   23.2572   75.7212   -3.9173 O   0  0  0  0  0  0  0  0  0  0  0  0
   24.8777   73.5307   -4.0284 O   0  0  0  0  0  0  0  0  0  0  0  0
   22.6252   74.4459   -4.0158 C   0  0  1  0  0  0  0  0  0  0  0  0
   23.5632   73.3561   -3.5401 C   0  0  2  0  0  0  0  0  0  0  0  0
   21.5169   74.3896   -2.9719 C   0  0  1  0  0  0  0  0  0  0  0  0
   23.4761   73.5023   -2.0304 C   0  0  2  0  0  0  0  0  0  0  0  0
   23.9686   75.7809   -4.5748 H   0  0  0  0  0  0  0  0  0  0  0  0
   24.8807   73.4282   -4.9929 H   0  0  0  0  0  0  0  0  0  0  0  0
   24.0671   71.0565   -3.3137 O   0  0  0  0  0  0  0  0  0  0  0  0
   24.2467   68.7868    0.6935 O   0  0  0  0  0  0  0  0  0  0  0  0
   23.6826   72.2567   -1.3468 N   0  0  0  0  0  0  0  0  0  0  0  0
   24.1562   69.9284   -1.3173 N   0  0  0  0  0  0  0  0  0  0  0  0
   23.9732   71.0858   -2.0848 C   0  0  0  0  0  0  0  0  0  0  0  0
   23.5965   72.2050    0.0402 C   0  0  0  0  0  0  0  0  0  0  0  0
   23.7724   71.0930    0.7571 C   0  0  0  0  0  0  0  0  0  0  0  0
   24.0796   69.8260    0.0626 C   0  0  0  0  0  0  0  0  0  0  0  0
   24.3593   69.1003   -1.8101 H   0  0  0  0  0  0  0  0  0  0  0  0
   18.3794   70.8075   -2.3108 O   0  0  0  0  0  0  0  0  0  0  0  0
   17.5474   69.7444   -3.2000 P   0  0  2  0  0  0  0  0  0  0  0  0
   16.0768   70.4120   -3.2965 O   0  0  0  0  0  0  0  0  0  0  0  0
   17.5578   68.3453   -2.6557 O   0  0  0  0  0  0  0  0  0  0  0  0
   18.1588   69.8884   -4.6868 O   0  0  0  0  0  0  0  0  0  0  0  0
   19.2088   71.7165   -5.7693 O   0  0  0  0  0  0  0  0  0  0  0  0
   17.0653   70.2040   -8.9582 O   0  0  0  0  0  0  0  0  0  0  0  0
   19.9162   69.8664   -8.8783 O   0  0  0  0  0  0  0  0  0  0  0  0
   15.8948   70.2233   -6.3107 O   0  0  0  0  0  0  0  0  0  0  0  0
   17.8251   70.1341   -7.7485 C   0  0  1  0  0  0  0  0  0  0  0  0
   19.2031   70.7444   -8.0118 C   0  0  1  0  0  0  0  0  0  0  0  0
   17.0938   70.9094   -6.6542 C   0  0  2  0  0  0  0  0  0  0  0  0
   19.9776   70.9489   -6.7028 C   0  0  1  0  0  0  0  0  0  0  0  0
   17.9699   71.0991   -5.4147 C   0  0  1  0  0  0  0  0  0  0  0  0
   17.5239   69.7132   -9.6569 H   0  0  0  0  0  0  0  0  0  0  0  0
   19.4162   69.7453   -9.7008 H   0  0  0  0  0  0  0  0  0  0  0  0
   15.3488   70.1098   -7.1037 H   0  0  0  0  0  0  0  0  0  0  0  0
   21.3257   72.1515   -8.2667 O   0  0  0  0  0  0  0  0  0  0  0  0
   21.2885   71.7001   -6.9253 C   0  0  0  0  0  0  0  0  0  0  0  0
   22.1544   72.6317   -8.4227 H   0  0  0  0  0  0  0  0  0  0  0  0
 25 28  1  0
 25 24  1  0
 25 26  1  6
 25 27  2  0
  1  4  1  0
  1 24  1  0
  1  2  1  1
  1  3  2  0
  6 11  1  0
  6 12  1  0
 29 36  1  0
 29 37  1  0
  9  7  1  1
  7 13  1  0
 10  8  1  6
  8 14  1  0
 37 28  1  6
  4  5  1  0
 33 30  1  6
 30 38  1  0
 34 31  1  6
 31 39  1  0
 35 32  1  1
 32 40  1  0
 41 42  1  0
 41 43  1  0
 15 19  2  0
 16 22  2  0
 12 17  1  1
 17 19  1  0
 17 20  1  0
 18 19  1  0
 18 22  1  0
 18 23  1  0
  9 10  1  0
  9 11  1  0
 10 12  1  0
 11  5  1  6
 33 34  1  0
 33 35  1  0
 34 36  1  0
 35 37  1  0
 36 42  1  6
 20 21  2  0
 21 22  1  0
M  CHG  2   2  -1  26  -1
M  END
>  <COMPND>  (171) 
    8629 

>  <AUTHOR>  (171) 
    GENERATED BY OPEN BABEL 3.1.1

>  <MASTER>  (171) 
        0    0    0    0    0    0    0    0   58    0   58    0

>  <minimizedAffinity>  (171) 
-7.65724

>  <CNNscore>  (171) 
0.5063409805

>  <CNNaffinity>  (171) 
4.1912293434

>  <CNN_VS>  (171) 
2.1221911907

>  <CNNaffinity_variance>  (171) 
0.3446554542

$$$$
172
     RDKit          3D

 43 45  0  0  0  0  0  0  0  0999 V2000
   21.8409   72.6452   -5.7190 P   0  0  2  0  0  0  0  0  0  0  0  0
   21.5421   74.2131   -5.4549 O   0  0  0  0  0  0  0  0  0  0  0  0
   22.9802   72.3660   -6.6546 O   0  0  0  0  0  0  0  0  0  0  0  0
   20.4049   72.0455   -6.1619 O   0  0  0  0  0  0  0  0  0  0  0  0
   19.9656   72.2559   -7.4926 C   0  0  0  0  0  0  0  0  0  0  0  0
   18.9380   70.1516   -6.9543 O   0  0  0  0  0  0  0  0  0  0  0  0
   18.2078   69.9786   -9.8574 O   0  0  0  0  0  0  0  0  0  0  0  0
   15.8746   70.7943   -8.7052 O   0  0  0  0  0  0  0  0  0  0  0  0
   18.2644   71.1234   -9.0080 C   0  0  1  0  0  0  0  0  0  0  0  0
   17.0846   71.1326   -8.0586 C   0  0  2  0  0  0  0  0  0  0  0  0
   19.4388   70.9425   -8.0543 C   0  0  1  0  0  0  0  0  0  0  0  0
   17.5037   70.1008   -7.0252 C   0  0  2  0  0  0  0  0  0  0  0  0
   17.4655   70.0713  -10.4757 H   0  0  0  0  0  0  0  0  0  0  0  0
   15.6508   71.4810   -9.3526 H   0  0  0  0  0  0  0  0  0  0  0  0
   16.4427   68.1417   -5.2891 O   0  0  0  0  0  0  0  0  0  0  0  0
   15.4532   71.2770   -2.0592 O   0  0  0  0  0  0  0  0  0  0  0  0
   16.9624   70.3772   -5.7245 N   0  0  0  0  0  0  0  0  0  0  0  0
   15.9510   69.7044   -3.6822 N   0  0  0  0  0  0  0  0  0  0  0  0
   16.4537   69.3216   -4.9323 C   0  0  0  0  0  0  0  0  0  0  0  0
   16.9400   71.6828   -5.2463 C   0  0  0  0  0  0  0  0  0  0  0  0
   16.4560   72.0314   -4.0524 C   0  0  0  0  0  0  0  0  0  0  0  0
   15.9056   70.9885   -3.1628 C   0  0  0  0  0  0  0  0  0  0  0  0
   15.5910   68.9858   -3.1131 H   0  0  0  0  0  0  0  0  0  0  0  0
   22.0360   72.0559   -4.2265 O   0  0  0  0  0  0  0  0  0  0  0  0
   21.0292   71.2247   -3.2734 P   0  0  2  0  0  0  0  0  0  0  0  0
   20.7231   69.8885   -4.1326 O   0  0  0  0  0  0  0  0  0  0  0  0
   19.8049   71.9877   -2.8577 O   0  0  0  0  0  0  0  0  0  0  0  0
   21.9504   70.7194   -2.0482 O   0  0  0  0  0  0  0  0  0  0  0  0
   23.7021   72.0699   -1.1970 O   0  0  0  0  0  0  0  0  0  0  0  0
   25.0560   68.3724    0.0464 O   0  0  0  0  0  0  0  0  0  0  0  0
   24.0015   70.2189    1.9768 O   0  0  0  0  0  0  0  0  0  0  0  0
   23.7805   68.6490   -2.5374 O   0  0  0  0  0  0  0  0  0  0  0  0
   24.0724   69.3654   -0.2565 C   0  0  1  0  0  0  0  0  0  0  0  0
   24.3268   70.5807    0.6375 C   0  0  1  0  0  0  0  0  0  0  0  0
   24.1876   69.7489   -1.7306 C   0  0  2  0  0  0  0  0  0  0  0  0
   23.4857   71.7836    0.1897 C   0  0  1  0  0  0  0  0  0  0  0  0
   23.3504   70.9862   -2.0595 C   0  0  1  0  0  0  0  0  0  0  0  0
   24.9878   68.1241    0.9809 H   0  0  0  0  0  0  0  0  0  0  0  0
   24.5391   69.4579    2.2471 H   0  0  0  0  0  0  0  0  0  0  0  0
   24.3182   67.8721   -2.3200 H   0  0  0  0  0  0  0  0  0  0  0  0
   25.0849   72.8498    1.6091 O   0  0  0  0  0  0  0  0  0  0  0  0
   23.8391   73.0497    0.9670 C   0  0  0  0  0  0  0  0  0  0  0  0
   25.3228   73.6478    2.1075 H   0  0  0  0  0  0  0  0  0  0  0  0
 25 28  1  0
 25 24  1  0
 25 26  1  6
 25 27  2  0
  1  4  1  0
  1 24  1  0
  1  2  1  1
  1  3  2  0
  6 11  1  0
  6 12  1  0
 29 36  1  0
 29 37  1  0
  9  7  1  6
  7 13  1  0
 10  8  1  6
  8 14  1  0
 37 28  1  1
  4  5  1  0
 33 30  1  1
 30 38  1  0
 34 31  1  1
 31 39  1  0
 35 32  1  6
 32 40  1  0
 41 42  1  0
 41 43  1  0
 15 19  2  0
 16 22  2  0
 12 17  1  1
 17 19  1  0
 17 20  1  0
 18 19  1  0
 18 22  1  0
 18 23  1  0
  9 10  1  0
  9 11  1  0
 10 12  1  0
 11  5  1  1
 33 34  1  0
 33 35  1  0
 34 36  1  0
 35 37  1  0
 36 42  1  1
 20 21  2  0
 21 22  1  0
M  CHG  2   2  -1  26  -1
M  END
>  <COMPND>  (172) 
    8629 

>  <AUTHOR>  (172) 
    GENERATED BY OPEN BABEL 3.1.1

>  <MASTER>  (172) 
        0    0    0    0    0    0    0    0   58    0   58    0

>  <minimizedAffinity>  (172) 
-7.64206

>  <CNNscore>  (172) 
0.5027626753

>  <CNNaffinity>  (172) 
4.2201595306

>  <CNN_VS>  (172) 
2.1217386723

>  <CNNaffinity_variance>  (172) 
0.2006228715

$$$$
173
     RDKit          3D

 43 45  0  0  0  0  0  0  0  0999 V2000
   22.0063   72.4795   -5.6547 P   0  0  2  0  0  0  0  0  0  0  0  0
   21.4779   73.7983   -4.8808 O   0  0  0  0  0  0  0  0  0  0  0  0
   23.0539   72.7341   -6.6983 O   0  0  0  0  0  0  0  0  0  0  0  0
   20.6512   71.7674   -6.1784 O   0  0  0  0  0  0  0  0  0  0  0  0
   20.2373   72.0007   -7.5134 C   0  0  0  0  0  0  0  0  0  0  0  0
   18.9688   70.0479   -6.9206 O   0  0  0  0  0  0  0  0  0  0  0  0
   18.1721   69.9183   -9.8084 O   0  0  0  0  0  0  0  0  0  0  0  0
   15.9772   71.0336   -8.6358 O   0  0  0  0  0  0  0  0  0  0  0  0
   18.3837   71.0613   -8.9813 C   0  0  1  0  0  0  0  0  0  0  0  0
   17.2307   71.2312   -8.0142 C   0  0  2  0  0  0  0  0  0  0  0  0
   19.5435   70.7530   -8.0426 C   0  0  1  0  0  0  0  0  0  0  0  0
   17.5380   70.1727   -6.9685 C   0  0  2  0  0  0  0  0  0  0  0  0
   17.4361   70.0914  -10.4169 H   0  0  0  0  0  0  0  0  0  0  0  0
   15.8281   71.7319   -9.2922 H   0  0  0  0  0  0  0  0  0  0  0  0
   16.5976   68.3300   -5.0455 O   0  0  0  0  0  0  0  0  0  0  0  0
   15.7180   71.6766   -2.0011 O   0  0  0  0  0  0  0  0  0  0  0  0
   17.0577   70.5350   -5.6649 N   0  0  0  0  0  0  0  0  0  0  0  0
   16.1605   69.9978   -3.5311 N   0  0  0  0  0  0  0  0  0  0  0  0
   16.6067   69.5327   -4.7747 C   0  0  0  0  0  0  0  0  0  0  0  0
   17.0374   71.8713   -5.2805 C   0  0  0  0  0  0  0  0  0  0  0  0
   16.6076   72.2985   -4.0914 C   0  0  0  0  0  0  0  0  0  0  0  0
   16.1196   71.3153   -3.1029 C   0  0  0  0  0  0  0  0  0  0  0  0
   15.8412   69.3175   -2.8948 H   0  0  0  0  0  0  0  0  0  0  0  0
   22.4802   71.5150   -4.4471 O   0  0  0  0  0  0  0  0  0  0  0  0
   23.4500   71.7935   -3.1842 P   0  0  2  0  0  0  0  0  0  0  0  0
   24.2530   73.1286   -3.6204 O   0  0  0  0  0  0  0  0  0  0  0  0
   24.3298   70.6340   -2.8164 O   0  0  0  0  0  0  0  0  0  0  0  0
   22.4584   72.2804   -2.0074 O   0  0  0  0  0  0  0  0  0  0  0  0
   21.7855   71.1803   -0.0191 O   0  0  0  0  0  0  0  0  0  0  0  0
   18.2434   73.0882   -0.9486 O   0  0  0  0  0  0  0  0  0  0  0  0
   19.8235   74.0279    1.2577 O   0  0  0  0  0  0  0  0  0  0  0  0
   19.8759   71.9655   -3.0592 O   0  0  0  0  0  0  0  0  0  0  0  0
   19.6641   72.9448   -0.8688 C   0  0  1  0  0  0  0  0  0  0  0  0
   20.0478   72.7822    0.6033 C   0  0  1  0  0  0  0  0  0  0  0  0
   20.0879   71.7175   -1.6735 C   0  0  2  0  0  0  0  0  0  0  0  0
   21.5154   72.3582    0.7498 C   0  0  1  0  0  0  0  0  0  0  0  0
   21.5514   71.3524   -1.4182 C   0  0  1  0  0  0  0  0  0  0  0  0
   17.9678   73.8660   -0.4401 H   0  0  0  0  0  0  0  0  0  0  0  0
   18.8933   74.2845    1.1573 H   0  0  0  0  0  0  0  0  0  0  0  0
   18.9458   72.1953   -3.2078 H   0  0  0  0  0  0  0  0  0  0  0  0
   20.6819   71.9782    2.9566 O   0  0  0  0  0  0  0  0  0  0  0  0
   21.8762   72.0377    2.1986 C   0  0  0  0  0  0  0  0  0  0  0  0
   20.8962   71.7747    3.8809 H   0  0  0  0  0  0  0  0  0  0  0  0
 25 28  1  0
 25 24  1  0
 25 26  1  6
 25 27  2  0
  1  4  1  0
  1 24  1  0
  1  2  1  1
  1  3  2  0
  6 11  1  0
  6 12  1  0
 29 36  1  0
 29 37  1  0
  9  7  1  6
  7 13  1  0
 10  8  1  6
  8 14  1  0
 37 28  1  1
  4  5  1  0
 33 30  1  1
 30 38  1  0
 34 31  1  1
 31 39  1  0
 35 32  1  6
 32 40  1  0
 41 42  1  0
 41 43  1  0
 15 19  2  0
 16 22  2  0
 12 17  1  1
 17 19  1  0
 17 20  1  0
 18 19  1  0
 18 22  1  0
 18 23  1  0
  9 10  1  0
  9 11  1  0
 10 12  1  0
 11  5  1  1
 33 34  1  0
 33 35  1  0
 34 36  1  0
 35 37  1  0
 36 42  1  1
 20 21  2  0
 21 22  1  0
M  CHG  2   2  -1  26  -1
M  END
>  <COMPND>  (173) 
    8629 

>  <AUTHOR>  (173) 
    GENERATED BY OPEN BABEL 3.1.1

>  <MASTER>  (173) 
        0    0    0    0    0    0    0    0   58    0   58    0

>  <minimizedAffinity>  (173) 
-7.04387

>  <CNNscore>  (173) 
0.4884404838

>  <CNNaffinity>  (173) 
4.0887136459

>  <CNN_VS>  (173) 
1.9970933199

>  <CNNaffinity_variance>  (173) 
0.4995473921

$$$$
174
     RDKit          3D

 43 45  0  0  0  0  0  0  0  0999 V2000
   22.5541   72.7040   -3.8119 P   0  0  2  0  0  0  0  0  0  0  0  0
   23.8656   72.5699   -4.7497 O   0  0  0  0  0  0  0  0  0  0  0  0
   22.1447   74.1117   -3.4924 O   0  0  0  0  0  0  0  0  0  0  0  0
   22.8894   71.7635   -2.5387 O   0  0  0  0  0  0  0  0  0  0  0  0
   23.1327   72.3816   -1.2870 C   0  0  0  0  0  0  0  0  0  0  0  0
   22.5980   70.1428   -0.5975 O   0  0  0  0  0  0  0  0  0  0  0  0
   22.3909   71.2484    2.1820 O   0  0  0  0  0  0  0  0  0  0  0  0
   24.8553   70.0808    2.1889 O   0  0  0  0  0  0  0  0  0  0  0  0
   23.2870   71.6089    1.1321 C   0  0  1  0  0  0  0  0  0  0  0  0
   24.3451   70.5402    0.9537 C   0  0  2  0  0  0  0  0  0  0  0  0
   22.5251   71.5250   -0.1846 C   0  0  1  0  0  0  0  0  0  0  0  0
   23.5822   69.4642    0.1998 C   0  0  2  0  0  0  0  0  0  0  0  0
   22.8550   71.2949    3.0332 H   0  0  0  0  0  0  0  0  0  0  0  0
   25.3319   70.8012    2.6300 H   0  0  0  0  0  0  0  0  0  0  0  0
   24.2525   66.7534    0.6240 O   0  0  0  0  0  0  0  0  0  0  0  0
   26.8511   66.6106   -3.1797 O   0  0  0  0  0  0  0  0  0  0  0  0
   24.4318   68.6939   -0.6641 N   0  0  0  0  0  0  0  0  0  0  0  0
   25.5457   66.6845   -1.2704 N   0  0  0  0  0  0  0  0  0  0  0  0
   24.7064   67.3401   -0.3606 C   0  0  0  0  0  0  0  0  0  0  0  0
   24.9824   69.2812   -1.7980 C   0  0  0  0  0  0  0  0  0  0  0  0
   25.7820   68.6427   -2.6548 C   0  0  0  0  0  0  0  0  0  0  0  0
   26.1186   67.2253   -2.4105 C   0  0  0  0  0  0  0  0  0  0  0  0
   25.7513   65.7406   -1.0791 H   0  0  0  0  0  0  0  0  0  0  0  0
   21.4439   71.8462   -4.6148 O   0  0  0  0  0  0  0  0  0  0  0  0
   20.2079   70.9494   -4.0848 P   0  0  2  0  0  0  0  0  0  0  0  0
   19.7712   71.6919   -2.7154 O   0  0  0  0  0  0  0  0  0  0  0  0
   20.5298   69.4919   -3.9235 O   0  0  0  0  0  0  0  0  0  0  0  0
   19.0065   71.2588   -5.1173 O   0  0  0  0  0  0  0  0  0  0  0  0
   19.5455   71.2940   -7.4248 O   0  0  0  0  0  0  0  0  0  0  0  0
   15.9321   73.2878   -7.5609 O   0  0  0  0  0  0  0  0  0  0  0  0
   16.1059   70.5985   -8.5536 O   0  0  0  0  0  0  0  0  0  0  0  0
   17.7605   73.7609   -5.3672 O   0  0  0  0  0  0  0  0  0  0  0  0
   16.8692   72.3206   -7.0796 C   0  0  1  0  0  0  0  0  0  0  0  0
   17.2438   71.3968   -8.2403 C   0  0  1  0  0  0  0  0  0  0  0  0
   18.1049   73.0443   -6.5480 C   0  0  2  0  0  0  0  0  0  0  0  0
   18.4381   70.5050   -7.8752 C   0  0  1  0  0  0  0  0  0  0  0  0
   19.2503   72.0712   -6.2626 C   0  0  1  0  0  0  0  0  0  0  0  0
   15.1449   72.8348   -7.8994 H   0  0  0  0  0  0  0  0  0  0  0  0
   15.3588   71.1737   -8.7818 H   0  0  0  0  0  0  0  0  0  0  0  0
   17.0347   74.3736   -5.5611 H   0  0  0  0  0  0  0  0  0  0  0  0
   18.2003   70.0879  -10.2158 O   0  0  0  0  0  0  0  0  0  0  0  0
   18.9284   69.6887   -9.0692 C   0  0  0  0  0  0  0  0  0  0  0  0
   18.5019   69.5769  -10.9837 H   0  0  0  0  0  0  0  0  0  0  0  0
 25 28  1  0
 25 24  1  0
 25 26  1  1
 25 27  2  0
  1  4  1  0
  1 24  1  0
  1  2  1  6
  1  3  2  0
  6 11  1  0
  6 12  1  0
 29 36  1  0
 29 37  1  0
  9  7  1  1
  7 13  1  0
 10  8  1  1
  8 14  1  0
 37 28  1  1
  4  5  1  0
 33 30  1  6
 30 38  1  0
 34 31  1  1
 31 39  1  0
 35 32  1  1
 32 40  1  0
 41 42  1  0
 41 43  1  0
 15 19  2  0
 16 22  2  0
 12 17  1  6
 17 19  1  0
 17 20  1  0
 18 19  1  0
 18 22  1  0
 18 23  1  0
  9 10  1  0
  9 11  1  0
 10 12  1  0
 11  5  1  6
 33 34  1  0
 33 35  1  0
 34 36  1  0
 35 37  1  0
 36 42  1  6
 20 21  2  0
 21 22  1  0
M  CHG  2   2  -1  26  -1
M  END
>  <COMPND>  (174) 
    8629 

>  <AUTHOR>  (174) 
    GENERATED BY OPEN BABEL 3.1.1

>  <MASTER>  (174) 
        0    0    0    0    0    0    0    0   58    0   58    0

>  <minimizedAffinity>  (174) 
-8.47606

>  <CNNscore>  (174) 
0.4834286273

>  <CNNaffinity>  (174) 
4.3934555054

>  <CNN_VS>  (174) 
2.1239221096

>  <CNNaffinity_variance>  (174) 
0.1664947122

$$$$
175
     RDKit          3D

 43 45  0  0  0  0  0  0  0  0999 V2000
   20.4028   71.0113   -2.8938 P   0  0  2  0  0  0  0  0  0  0  0  0
   20.6960   69.6547   -3.7250 O   0  0  0  0  0  0  0  0  0  0  0  0
   21.0276   72.2511   -3.4631 O   0  0  0  0  0  0  0  0  0  0  0  0
   20.8334   70.6395   -1.3791 O   0  0  0  0  0  0  0  0  0  0  0  0
   21.7612   71.4793   -0.7145 C   0  0  0  0  0  0  0  0  0  0  0  0
   22.4889   69.4890    0.4181 O   0  0  0  0  0  0  0  0  0  0  0  0
   23.2072   71.2818    2.7117 O   0  0  0  0  0  0  0  0  0  0  0  0
   25.6224   70.8366    1.5263 O   0  0  0  0  0  0  0  0  0  0  0  0
   23.3017   71.5286    1.3098 C   0  0  1  0  0  0  0  0  0  0  0  0
   24.4657   70.7613    0.7181 C   0  0  2  0  0  0  0  0  0  0  0  0
   22.1076   70.8652    0.6350 C   0  0  1  0  0  0  0  0  0  0  0  0
   23.9033   69.3527    0.6319 C   0  0  2  0  0  0  0  0  0  0  0  0
   23.9591   71.6963    3.1642 H   0  0  0  0  0  0  0  0  0  0  0  0
   25.9418   71.7521    1.5495 H   0  0  0  0  0  0  0  0  0  0  0  0
   24.3450   66.5633    0.6788 O   0  0  0  0  0  0  0  0  0  0  0  0
   26.0804   66.5817   -3.5908 O   0  0  0  0  0  0  0  0  0  0  0  0
   24.4689   68.6026   -0.4538 N   0  0  0  0  0  0  0  0  0  0  0  0
   25.2086   66.5747   -1.4472 N   0  0  0  0  0  0  0  0  0  0  0  0
   24.6497   67.2055   -0.3284 C   0  0  0  0  0  0  0  0  0  0  0  0
   24.8374   69.2522   -1.6269 C   0  0  0  0  0  0  0  0  0  0  0  0
   25.3702   68.6364   -2.6843 C   0  0  0  0  0  0  0  0  0  0  0  0
   25.5923   67.1768   -2.6350 C   0  0  0  0  0  0  0  0  0  0  0  0
   25.3442   65.6014   -1.3826 H   0  0  0  0  0  0  0  0  0  0  0  0
   18.7887   71.0471   -2.8142 O   0  0  0  0  0  0  0  0  0  0  0  0
   17.6749   70.0230   -3.3829 P   0  0  2  0  0  0  0  0  0  0  0  0
   16.2781   70.7493   -3.0100 O   0  0  0  0  0  0  0  0  0  0  0  0
   17.8031   68.6217   -2.8596 O   0  0  0  0  0  0  0  0  0  0  0  0
   17.7846   70.1502   -4.9881 O   0  0  0  0  0  0  0  0  0  0  0  0
   19.1286   71.5537   -6.3447 O   0  0  0  0  0  0  0  0  0  0  0  0
   15.6715   71.5673   -8.6029 O   0  0  0  0  0  0  0  0  0  0  0  0
   17.9646   70.1074   -9.5294 O   0  0  0  0  0  0  0  0  0  0  0  0
   15.5089   71.6234   -5.7133 O   0  0  0  0  0  0  0  0  0  0  0  0
   16.6595   71.0032   -7.7363 C   0  0  1  0  0  0  0  0  0  0  0  0
   18.0087   71.0440   -8.4565 C   0  0  1  0  0  0  0  0  0  0  0  0
   16.7144   71.8174   -6.4451 C   0  0  2  0  0  0  0  0  0  0  0  0
   19.1586   70.7053   -7.4984 C   0  0  1  0  0  0  0  0  0  0  0  0
   17.9224   71.4358   -5.5876 C   0  0  1  0  0  0  0  0  0  0  0  0
   15.6312   71.0546   -9.4245 H   0  0  0  0  0  0  0  0  0  0  0  0
   17.2340   70.3323  -10.1268 H   0  0  0  0  0  0  0  0  0  0  0  0
   14.7518   71.8688   -6.2668 H   0  0  0  0  0  0  0  0  0  0  0  0
   20.8911   72.2566   -8.0469 O   0  0  0  0  0  0  0  0  0  0  0  0
   20.5245   70.8934   -8.1551 C   0  0  0  0  0  0  0  0  0  0  0  0
   21.7587   72.3912   -8.4603 H   0  0  0  0  0  0  0  0  0  0  0  0
 25 28  1  0
 25 24  1  0
 25 26  1  1
 25 27  2  0
  1  4  1  0
  1 24  1  0
  1  2  1  6
  1  3  2  0
  6 11  1  0
  6 12  1  0
 29 36  1  0
 29 37  1  0
  9  7  1  1
  7 13  1  0
 10  8  1  1
  8 14  1  0
 37 28  1  6
  4  5  1  0
 33 30  1  6
 30 38  1  0
 34 31  1  6
 31 39  1  0
 35 32  1  1
 32 40  1  0
 41 42  1  0
 41 43  1  0
 15 19  2  0
 16 22  2  0
 12 17  1  6
 17 19  1  0
 17 20  1  0
 18 19  1  0
 18 22  1  0
 18 23  1  0
  9 10  1  0
  9 11  1  0
 10 12  1  0
 11  5  1  6
 33 34  1  0
 33 35  1  0
 34 36  1  0
 35 37  1  0
 36 42  1  6
 20 21  2  0
 21 22  1  0
M  CHG  2   2  -1  26  -1
M  END
>  <COMPND>  (175) 
    8629 

>  <AUTHOR>  (175) 
    GENERATED BY OPEN BABEL 3.1.1

>  <MASTER>  (175) 
        0    0    0    0    0    0    0    0   58    0   58    0

>  <minimizedAffinity>  (175) 
-8.74770

>  <CNNscore>  (175) 
0.4566188753

>  <CNNaffinity>  (175) 
4.3782744408

>  <CNN_VS>  (175) 
1.9992027283

>  <CNNaffinity_variance>  (175) 
0.3120941520

$$$$
176
     RDKit          3D

 43 45  0  0  0  0  0  0  0  0999 V2000
   20.0046   71.6124   -1.8606 P   0  0  2  0  0  0  0  0  0  0  0  0
   18.8079   72.6597   -2.1583 O   0  0  0  0  0  0  0  0  0  0  0  0
   19.5606   70.2643   -1.3741 O   0  0  0  0  0  0  0  0  0  0  0  0
   20.9949   72.4249   -0.8723 O   0  0  0  0  0  0  0  0  0  0  0  0
   22.3351   71.9827   -0.7447 C   0  0  0  0  0  0  0  0  0  0  0  0
   22.6440   69.8303    0.2777 O   0  0  0  0  0  0  0  0  0  0  0  0
   23.5082   71.3265    2.7283 O   0  0  0  0  0  0  0  0  0  0  0  0
   25.8836   70.5459    1.6399 O   0  0  0  0  0  0  0  0  0  0  0  0
   23.7311   71.6398    1.3545 C   0  0  1  0  0  0  0  0  0  0  0  0
   24.7841   70.7215    0.7699 C   0  0  2  0  0  0  0  0  0  0  0  0
   22.4872   71.2354    0.5731 C   0  0  1  0  0  0  0  0  0  0  0  0
   23.9988   69.4390    0.5538 C   0  0  2  0  0  0  0  0  0  0  0  0
   24.2892   71.5762    3.2476 H   0  0  0  0  0  0  0  0  0  0  0  0
   26.3507   71.3893    1.7453 H   0  0  0  0  0  0  0  0  0  0  0  0
   24.7356   70.5328   -1.9440 O   0  0  0  0  0  0  0  0  0  0  0  0
   25.8965   66.3987   -3.6181 O   0  0  0  0  0  0  0  0  0  0  0  0
   24.4972   68.6716   -0.5526 N   0  0  0  0  0  0  0  0  0  0  0  0
   25.3132   68.4735   -2.7755 N   0  0  0  0  0  0  0  0  0  0  0  0
   24.8375   69.3176   -1.7639 C   0  0  0  0  0  0  0  0  0  0  0  0
   24.6443   67.2942   -0.4301 C   0  0  0  0  0  0  0  0  0  0  0  0
   25.0981   66.5033   -1.4047 C   0  0  0  0  0  0  0  0  0  0  0  0
   25.4760   67.0991   -2.7024 C   0  0  0  0  0  0  0  0  0  0  0  0
   25.5562   68.9014   -3.6285 H   0  0  0  0  0  0  0  0  0  0  0  0
   20.8220   71.5887   -3.2550 O   0  0  0  0  0  0  0  0  0  0  0  0
   20.6931   72.5102   -4.5769 P   0  0  2  0  0  0  0  0  0  0  0  0
   21.9889   72.0902   -5.4497 O   0  0  0  0  0  0  0  0  0  0  0  0
   20.5871   73.9808   -4.2939 O   0  0  0  0  0  0  0  0  0  0  0  0
   19.4398   71.8925   -5.3848 O   0  0  0  0  0  0  0  0  0  0  0  0
   18.6854   72.1009   -7.6217 O   0  0  0  0  0  0  0  0  0  0  0  0
   15.0492   72.3139   -5.6766 O   0  0  0  0  0  0  0  0  0  0  0  0
   15.7319   69.9459   -7.1511 O   0  0  0  0  0  0  0  0  0  0  0  0
   17.3783   73.5928   -4.5280 O   0  0  0  0  0  0  0  0  0  0  0  0
   16.3910   71.8651   -5.8850 C   0  0  1  0  0  0  0  0  0  0  0  0
   16.4578   71.1684   -7.2455 C   0  0  1  0  0  0  0  0  0  0  0  0
   17.3310   73.0687   -5.8507 C   0  0  2  0  0  0  0  0  0  0  0  0
   17.9107   70.8966   -7.6581 C   0  0  1  0  0  0  0  0  0  0  0  0
   18.7377   72.7005   -6.3257 C   0  0  1  0  0  0  0  0  0  0  0  0
   14.4473   71.5544   -5.6968 H   0  0  0  0  0  0  0  0  0  0  0  0
   14.8163   70.1314   -6.8895 H   0  0  0  0  0  0  0  0  0  0  0  0
   16.4818   73.8223   -4.2390 H   0  0  0  0  0  0  0  0  0  0  0  0
   18.7215   71.2762   -9.8733 O   0  0  0  0  0  0  0  0  0  0  0  0
   18.0083   70.3462   -9.0792 C   0  0  0  0  0  0  0  0  0  0  0  0
   18.7917   70.9389  -10.7806 H   0  0  0  0  0  0  0  0  0  0  0  0
 25 28  1  0
 25 24  1  0
 25 26  1  6
 25 27  2  0
  1  4  1  0
  1 24  1  0
  1  2  1  6
  1  3  2  0
  6 11  1  0
  6 12  1  0
 29 36  1  0
 29 37  1  0
  9  7  1  1
  7 13  1  0
 10  8  1  1
  8 14  1  0
 37 28  1  1
  4  5  1  0
 33 30  1  6
 30 38  1  0
 34 31  1  1
 31 39  1  0
 35 32  1  1
 32 40  1  0
 41 42  1  0
 41 43  1  0
 15 19  2  0
 16 22  2  0
 12 17  1  6
 17 19  1  0
 17 20  1  0
 18 19  1  0
 18 22  1  0
 18 23  1  0
  9 10  1  0
  9 11  1  0
 10 12  1  0
 11  5  1  6
 33 34  1  0
 33 35  1  0
 34 36  1  0
 35 37  1  0
 36 42  1  6
 20 21  2  0
 21 22  1  0
M  CHG  2   2  -1  26  -1
M  END
>  <COMPND>  (176) 
    8629 

>  <AUTHOR>  (176) 
    GENERATED BY OPEN BABEL 3.1.1

>  <MASTER>  (176) 
        0    0    0    0    0    0    0    0   58    0   58    0

>  <minimizedAffinity>  (176) 
-7.46424

>  <CNNscore>  (176) 
0.4328750372

>  <CNNaffinity>  (176) 
4.2485380173

>  <CNN_VS>  (176) 
1.8390860558

>  <CNNaffinity_variance>  (176) 
0.2059580386

$$$$
177
     RDKit          3D

 43 45  0  0  0  0  0  0  0  0999 V2000
   21.1991   74.8651   -4.3420 P   0  0  2  0  0  0  0  0  0  0  0  0
   20.5346   75.0249   -2.8756 O   0  0  0  0  0  0  0  0  0  0  0  0
   21.7741   76.1257   -4.9180 O   0  0  0  0  0  0  0  0  0  0  0  0
   20.0385   74.1573   -5.2194 O   0  0  0  0  0  0  0  0  0  0  0  0
   19.1294   73.2901   -4.5640 C   0  0  0  0  0  0  0  0  0  0  0  0
   19.0289   70.9899   -3.8764 O   0  0  0  0  0  0  0  0  0  0  0  0
   19.3982   70.3031   -6.7717 O   0  0  0  0  0  0  0  0  0  0  0  0
   16.7161   69.9607   -6.4170 O   0  0  0  0  0  0  0  0  0  0  0  0
   18.6739   71.3838   -6.1861 C   0  0  1  0  0  0  0  0  0  0  0  0
   17.3815   70.8816   -5.5768 C   0  0  2  0  0  0  0  0  0  0  0  0
   19.4433   71.8533   -4.9577 C   0  0  1  0  0  0  0  0  0  0  0  0
   17.8678   70.2480   -4.2844 C   0  0  2  0  0  0  0  0  0  0  0  0
   18.9262   69.9865   -7.5585 H   0  0  0  0  0  0  0  0  0  0  0  0
   16.4262   70.4115   -7.2254 H   0  0  0  0  0  0  0  0  0  0  0  0
   17.3898   68.1824   -2.4182 O   0  0  0  0  0  0  0  0  0  0  0  0
   14.0684   70.5946   -0.3229 O   0  0  0  0  0  0  0  0  0  0  0  0
   16.8843   70.3098   -3.2402 N   0  0  0  0  0  0  0  0  0  0  0  0
   15.7365   69.3853   -1.3763 N   0  0  0  0  0  0  0  0  0  0  0  0
   16.7233   69.2176   -2.3562 C   0  0  0  0  0  0  0  0  0  0  0  0
   16.0924   71.4443   -3.1005 C   0  0  0  0  0  0  0  0  0  0  0  0
   15.1548   71.5880   -2.1615 C   0  0  0  0  0  0  0  0  0  0  0  0
   14.9230   70.4930   -1.1976 C   0  0  0  0  0  0  0  0  0  0  0  0
   15.6063   68.6371   -0.7494 H   0  0  0  0  0  0  0  0  0  0  0  0
   22.2703   73.6737   -4.1277 O   0  0  0  0  0  0  0  0  0  0  0  0
   23.7216   73.6663   -3.4159 P   0  0  2  0  0  0  0  0  0  0  0  0
   23.7943   75.1185   -2.7065 O   0  0  0  0  0  0  0  0  0  0  0  0
   24.8623   73.3743   -4.3473 O   0  0  0  0  0  0  0  0  0  0  0  0
   23.5719   72.6226   -2.1939 O   0  0  0  0  0  0  0  0  0  0  0  0
   23.9473   70.2859   -2.3194 O   0  0  0  0  0  0  0  0  0  0  0  0
   21.1040   70.3376    0.6746 O   0  0  0  0  0  0  0  0  0  0  0  0
   23.8408   69.7622    1.3280 O   0  0  0  0  0  0  0  0  0  0  0  0
   20.8769   72.1588   -1.5640 O   0  0  0  0  0  0  0  0  0  0  0  0
   22.2209   70.8307   -0.0702 C   0  0  1  0  0  0  0  0  0  0  0  0
   23.3387   69.7881   -0.0052 C   0  0  1  0  0  0  0  0  0  0  0  0
   21.7906   71.0683   -1.5165 C   0  0  2  0  0  0  0  0  0  0  0  0
   24.4644   70.1204   -0.9939 C   0  0  1  0  0  0  0  0  0  0  0  0
   22.9905   71.3420   -2.4251 C   0  0  1  0  0  0  0  0  0  0  0  0
   21.3703   70.1852    1.5940 H   0  0  0  0  0  0  0  0  0  0  0  0
   23.1200   69.5518    1.9423 H   0  0  0  0  0  0  0  0  0  0  0  0
   20.1217   71.9732   -0.9850 H   0  0  0  0  0  0  0  0  0  0  0  0
   25.0209   67.8852   -0.3589 O   0  0  0  0  0  0  0  0  0  0  0  0
   25.5135   69.0126   -1.0595 C   0  0  0  0  0  0  0  0  0  0  0  0
   25.6781   67.1720   -0.3925 H   0  0  0  0  0  0  0  0  0  0  0  0
 25 28  1  0
 25 24  1  0
 25 26  1  1
 25 27  2  0
  1  4  1  0
  1 24  1  0
  1  2  1  1
  1  3  2  0
  6 11  1  0
  6 12  1  0
 29 36  1  0
 29 37  1  0
  9  7  1  1
  7 13  1  0
 10  8  1  6
  8 14  1  0
 37 28  1  1
  4  5  1  0
 33 30  1  1
 30 38  1  0
 34 31  1  1
 31 39  1  0
 35 32  1  1
 32 40  1  0
 41 42  1  0
 41 43  1  0
 15 19  2  0
 16 22  2  0
 12 17  1  1
 17 19  1  0
 17 20  1  0
 18 19  1  0
 18 22  1  0
 18 23  1  0
  9 10  1  0
  9 11  1  0
 10 12  1  0
 11  5  1  1
 33 34  1  0
 33 35  1  0
 34 36  1  0
 35 37  1  0
 36 42  1  6
 20 21  2  0
 21 22  1  0
M  CHG  2   2  -1  26  -1
M  END
>  <COMPND>  (177) 
    8629 

>  <AUTHOR>  (177) 
    GENERATED BY OPEN BABEL 3.1.1

>  <MASTER>  (177) 
        0    0    0    0    0    0    0    0   58    0   58    0

>  <minimizedAffinity>  (177) 
-6.39204

>  <CNNscore>  (177) 
0.4273588955

>  <CNNaffinity>  (177) 
3.8877692223

>  <CNN_VS>  (177) 
1.6614727974

>  <CNNaffinity_variance>  (177) 
0.5772012472

$$$$
178
     RDKit          3D

 43 45  0  0  0  0  0  0  0  0999 V2000
   22.7148   72.2919   -3.2692 P   0  0  2  0  0  0  0  0  0  0  0  0
   21.8447   70.9357   -3.4143 O   0  0  0  0  0  0  0  0  0  0  0  0
   24.1843   72.1327   -3.5279 O   0  0  0  0  0  0  0  0  0  0  0  0
   22.3160   72.8546   -1.8057 O   0  0  0  0  0  0  0  0  0  0  0  0
   23.2953   72.8301   -0.7819 C   0  0  0  0  0  0  0  0  0  0  0  0
   24.4733   71.2841    0.6310 O   0  0  0  0  0  0  0  0  0  0  0  0
   21.7922   70.0878    1.2403 O   0  0  0  0  0  0  0  0  0  0  0  0
   22.2719   71.6238    3.4419 O   0  0  0  0  0  0  0  0  0  0  0  0
   22.1418   71.4533    1.0201 C   0  0  1  0  0  0  0  0  0  0  0  0
   22.8746   72.0090    2.2233 C   0  0  2  0  0  0  0  0  0  0  0  0
   23.2200   71.4940   -0.0557 C   0  0  1  0  0  0  0  0  0  0  0  0
   24.2637   71.4197    2.0461 C   0  0  2  0  0  0  0  0  0  0  0  0
   21.1047   70.0364    1.9234 H   0  0  0  0  0  0  0  0  0  0  0  0
   21.3908   72.0238    3.5077 H   0  0  0  0  0  0  0  0  0  0  0  0
   26.9689   70.6596    2.3320 O   0  0  0  0  0  0  0  0  0  0  0  0
   28.1130   74.7373    4.1500 O   0  0  0  0  0  0  0  0  0  0  0  0
   25.2900   72.2632    2.5908 N   0  0  0  0  0  0  0  0  0  0  0  0
   27.5364   72.6906    3.2368 N   0  0  0  0  0  0  0  0  0  0  0  0
   26.6173   71.7851    2.6916 C   0  0  0  0  0  0  0  0  0  0  0  0
   24.9763   73.5489    3.0177 C   0  0  0  0  0  0  0  0  0  0  0  0
   25.8641   74.3996    3.5366 C   0  0  0  0  0  0  0  0  0  0  0  0
   27.2729   73.9782    3.6767 C   0  0  0  0  0  0  0  0  0  0  0  0
   28.4672   72.3793    3.3172 H   0  0  0  0  0  0  0  0  0  0  0  0
   21.9626   73.3151   -4.2693 O   0  0  0  0  0  0  0  0  0  0  0  0
   21.6429   73.2116   -5.8505 P   0  0  2  0  0  0  0  0  0  0  0  0
   22.7968   72.2185   -6.3982 O   0  0  0  0  0  0  0  0  0  0  0  0
   21.5811   74.5366   -6.5538 O   0  0  0  0  0  0  0  0  0  0  0  0
   20.2843   72.3447   -5.9366 O   0  0  0  0  0  0  0  0  0  0  0  0
   19.2266   71.8235   -7.9925 O   0  0  0  0  0  0  0  0  0  0  0  0
   15.9507   71.5966   -5.4890 O   0  0  0  0  0  0  0  0  0  0  0  0
   17.0774   69.1870   -6.5716 O   0  0  0  0  0  0  0  0  0  0  0  0
   17.9542   73.6422   -5.0635 O   0  0  0  0  0  0  0  0  0  0  0  0
   17.3272   71.4536   -5.8498 C   0  0  1  0  0  0  0  0  0  0  0  0
   17.4145   70.4912   -7.0360 C   0  0  1  0  0  0  0  0  0  0  0  0
   17.8895   72.8231   -6.2260 C   0  0  2  0  0  0  0  0  0  0  0  0
   18.8216   70.4933   -7.6485 C   0  0  1  0  0  0  0  0  0  0  0  0
   19.2717   72.7083   -6.8713 C   0  0  1  0  0  0  0  0  0  0  0  0
   15.5877   70.7306   -5.2485 H   0  0  0  0  0  0  0  0  0  0  0  0
   16.1870   69.1996   -6.1868 H   0  0  0  0  0  0  0  0  0  0  0  0
   17.0731   73.7072   -4.6644 H   0  0  0  0  0  0  0  0  0  0  0  0
   17.7179   69.9037   -9.6841 O   0  0  0  0  0  0  0  0  0  0  0  0
   18.8898   69.6615   -8.9275 C   0  0  0  0  0  0  0  0  0  0  0  0
   17.7476   69.3811  -10.5012 H   0  0  0  0  0  0  0  0  0  0  0  0
 25 28  1  0
 25 24  1  0
 25 26  1  6
 25 27  2  0
  1  4  1  0
  1 24  1  0
  1  2  1  1
  1  3  2  0
  6 11  1  0
  6 12  1  0
 29 36  1  0
 29 37  1  0
  9  7  1  1
  7 13  1  0
 10  8  1  1
  8 14  1  0
 37 28  1  1
  4  5  1  0
 33 30  1  6
 30 38  1  0
 34 31  1  1
 31 39  1  0
 35 32  1  1
 32 40  1  0
 41 42  1  0
 41 43  1  0
 15 19  2  0
 16 22  2  0
 12 17  1  6
 17 19  1  0
 17 20  1  0
 18 19  1  0
 18 22  1  0
 18 23  1  0
  9 10  1  0
  9 11  1  0
 10 12  1  0
 11  5  1  1
 33 34  1  0
 33 35  1  0
 34 36  1  0
 35 37  1  0
 36 42  1  6
 20 21  2  0
 21 22  1  0
M  CHG  2   2  -1  26  -1
M  END
>  <COMPND>  (178) 
    8629 

>  <AUTHOR>  (178) 
    GENERATED BY OPEN BABEL 3.1.1

>  <MASTER>  (178) 
        0    0    0    0    0    0    0    0   58    0   58    0

>  <minimizedAffinity>  (178) 
-6.96440

>  <CNNscore>  (178) 
0.4104570150

>  <CNNaffinity>  (178) 
4.0444307327

>  <CNN_VS>  (178) 
1.6600649357

>  <CNNaffinity_variance>  (178) 
0.1608871967

$$$$
179
     RDKit          3D

 43 45  0  0  0  0  0  0  0  0999 V2000
   22.8431   73.4914   -4.4783 P   0  0  2  0  0  0  0  0  0  0  0  0
   23.6667   72.1401   -4.1417 O   0  0  0  0  0  0  0  0  0  0  0  0
   23.5622   74.4686   -5.3610 O   0  0  0  0  0  0  0  0  0  0  0  0
   22.4022   74.0496   -3.0251 O   0  0  0  0  0  0  0  0  0  0  0  0
   23.4111   74.2984   -2.0618 C   0  0  0  0  0  0  0  0  0  0  0  0
   22.4063   72.9132   -0.3750 O   0  0  0  0  0  0  0  0  0  0  0  0
   22.9857   75.1473    1.5392 O   0  0  0  0  0  0  0  0  0  0  0  0
   24.9979   73.3819    2.0595 O   0  0  0  0  0  0  0  0  0  0  0  0
   23.7549   74.6884    0.4288 C   0  0  1  0  0  0  0  0  0  0  0  0
   24.4320   73.3760    0.7647 C   0  0  2  0  0  0  0  0  0  0  0  0
   22.7875   74.2742   -0.6730 C   0  0  1  0  0  0  0  0  0  0  0  0
   23.2863   72.3872    0.6319 C   0  0  2  0  0  0  0  0  0  0  0  0
   23.5819   75.4178    2.2557 H   0  0  0  0  0  0  0  0  0  0  0  0
   25.7219   74.0265    2.0932 H   0  0  0  0  0  0  0  0  0  0  0  0
   24.2304   70.4014    2.4048 O   0  0  0  0  0  0  0  0  0  0  0  0
   24.9711   67.4238   -1.0342 O   0  0  0  0  0  0  0  0  0  0  0  0
   23.7319   71.0838    0.2270 N   0  0  0  0  0  0  0  0  0  0  0  0
   24.5983   68.9204    0.6910 N   0  0  0  0  0  0  0  0  0  0  0  0
   24.1881   70.1606    1.1965 C   0  0  0  0  0  0  0  0  0  0  0  0
   23.7135   70.7321   -1.1183 C   0  0  0  0  0  0  0  0  0  0  0  0
   24.1093   69.5457   -1.5843 C   0  0  0  0  0  0  0  0  0  0  0  0
   24.6001   68.5240   -0.6370 C   0  0  0  0  0  0  0  0  0  0  0  0
   24.9204   68.2613    1.3481 H   0  0  0  0  0  0  0  0  0  0  0  0
   21.4555   72.9290   -5.0877 O   0  0  0  0  0  0  0  0  0  0  0  0
   20.4378   71.7978   -4.5424 P   0  0  2  0  0  0  0  0  0  0  0  0
   20.2710   72.1722   -2.9773 O   0  0  0  0  0  0  0  0  0  0  0  0
   20.8896   70.3890   -4.7974 O   0  0  0  0  0  0  0  0  0  0  0  0
   19.0152   72.1743   -5.2054 O   0  0  0  0  0  0  0  0  0  0  0  0
   19.4083   72.1532   -7.5424 O   0  0  0  0  0  0  0  0  0  0  0  0
   15.3929   73.1161   -7.5575 O   0  0  0  0  0  0  0  0  0  0  0  0
   16.2247   70.4912   -8.3736 O   0  0  0  0  0  0  0  0  0  0  0  0
   17.1383   74.2341   -5.5368 O   0  0  0  0  0  0  0  0  0  0  0  0
   16.5764   72.4713   -7.0789 C   0  0  1  0  0  0  0  0  0  0  0  0
   17.1239   71.5824   -8.1973 C   0  0  1  0  0  0  0  0  0  0  0  0
   17.6006   73.5347   -6.6873 C   0  0  2  0  0  0  0  0  0  0  0  0
   18.5291   71.0673   -7.8579 C   0  0  1  0  0  0  0  0  0  0  0  0
   18.9762   72.9220   -6.4181 C   0  0  1  0  0  0  0  0  0  0  0  0
   14.7383   72.4464   -7.8074 H   0  0  0  0  0  0  0  0  0  0  0  0
   15.3410   70.8300   -8.5870 H   0  0  0  0  0  0  0  0  0  0  0  0
   16.2670   74.6175   -5.7200 H   0  0  0  0  0  0  0  0  0  0  0  0
   18.6192   70.8158  -10.2323 O   0  0  0  0  0  0  0  0  0  0  0  0
   19.1576   70.3090   -9.0250 C   0  0  0  0  0  0  0  0  0  0  0  0
   19.0104   70.3427  -10.9838 H   0  0  0  0  0  0  0  0  0  0  0  0
 25 28  1  0
 25 24  1  0
 25 26  1  1
 25 27  2  0
  1  4  1  0
  1 24  1  0
  1  2  1  1
  1  3  2  0
  6 11  1  0
  6 12  1  0
 29 36  1  0
 29 37  1  0
  9  7  1  1
  7 13  1  0
 10  8  1  1
  8 14  1  0
 37 28  1  1
  4  5  1  0
 33 30  1  6
 30 38  1  0
 34 31  1  1
 31 39  1  0
 35 32  1  1
 32 40  1  0
 41 42  1  0
 41 43  1  0
 15 19  2  0
 16 22  2  0
 12 17  1  6
 17 19  1  0
 17 20  1  0
 18 19  1  0
 18 22  1  0
 18 23  1  0
  9 10  1  0
  9 11  1  0
 10 12  1  0
 11  5  1  6
 33 34  1  0
 33 35  1  0
 34 36  1  0
 35 37  1  0
 36 42  1  6
 20 21  2  0
 21 22  1  0
M  CHG  2   2  -1  26  -1
M  END
>  <COMPND>  (179) 
    8629 

>  <AUTHOR>  (179) 
    GENERATED BY OPEN BABEL 3.1.1

>  <MASTER>  (179) 
        0    0    0    0    0    0    0    0   58    0   58    0

>  <minimizedAffinity>  (179) 
-6.74985

>  <CNNscore>  (179) 
0.4099175036

>  <CNNaffinity>  (179) 
4.1157283783

>  <CNN_VS>  (179) 
1.6871091127

>  <CNNaffinity_variance>  (179) 
0.0336108021

$$$$
180
     RDKit          3D

 43 45  0  0  0  0  0  0  0  0999 V2000
   18.7893   71.6614   -2.6686 P   0  0  2  0  0  0  0  0  0  0  0  0
   17.7505   72.4650   -3.6133 O   0  0  0  0  0  0  0  0  0  0  0  0
   18.4006   70.2452   -2.3606 O   0  0  0  0  0  0  0  0  0  0  0  0
   18.9807   72.6319   -1.3882 O   0  0  0  0  0  0  0  0  0  0  0  0
   20.2620   72.7160   -0.7891 C   0  0  0  0  0  0  0  0  0  0  0  0
   20.9338   70.6439    0.2254 O   0  0  0  0  0  0  0  0  0  0  0  0
   20.5527   72.0259    2.8589 O   0  0  0  0  0  0  0  0  0  0  0  0
   23.2581   72.1131    2.5280 O   0  0  0  0  0  0  0  0  0  0  0  0
   21.0430   72.5518    1.6268 C   0  0  1  0  0  0  0  0  0  0  0  0
   22.4519   72.0599    1.3687 C   0  0  2  0  0  0  0  0  0  0  0  0
   20.2644   71.8954    0.4935 C   0  0  1  0  0  0  0  0  0  0  0  0
   22.2069   70.6384    0.8917 C   0  0  2  0  0  0  0  0  0  0  0  0
   21.0347   72.4306    3.5977 H   0  0  0  0  0  0  0  0  0  0  0  0
   23.3849   73.0379    2.7917 H   0  0  0  0  0  0  0  0  0  0  0  0
   24.6910   69.5335    1.6578 O   0  0  0  0  0  0  0  0  0  0  0  0
   25.9896   68.9479   -2.7253 O   0  0  0  0  0  0  0  0  0  0  0  0
   23.2130   70.1884   -0.0285 N   0  0  0  0  0  0  0  0  0  0  0  0
   25.3355   69.2427   -0.5252 N   0  0  0  0  0  0  0  0  0  0  0  0
   24.4264   69.6500    0.4595 C   0  0  0  0  0  0  0  0  0  0  0  0
   22.9914   70.2829   -1.3981 C   0  0  0  0  0  0  0  0  0  0  0  0
   23.8690   69.8911   -2.3241 C   0  0  0  0  0  0  0  0  0  0  0  0
   25.1618   69.3173   -1.8982 C   0  0  0  0  0  0  0  0  0  0  0  0
   26.1880   68.8647   -0.2088 H   0  0  0  0  0  0  0  0  0  0  0  0
   20.1924   71.8178   -3.4560 O   0  0  0  0  0  0  0  0  0  0  0  0
   20.6147   72.7671   -4.6943 P   0  0  2  0  0  0  0  0  0  0  0  0
   22.1189   72.2810   -5.0384 O   0  0  0  0  0  0  0  0  0  0  0  0
   20.4876   74.2366   -4.4144 O   0  0  0  0  0  0  0  0  0  0  0  0
   19.7234   72.2427   -5.9335 O   0  0  0  0  0  0  0  0  0  0  0  0
   18.9145   70.0156   -5.9831 O   0  0  0  0  0  0  0  0  0  0  0  0
   18.7721   70.8595  -10.0227 O   0  0  0  0  0  0  0  0  0  0  0  0
   16.3287   70.6854   -8.5236 O   0  0  0  0  0  0  0  0  0  0  0  0
   20.9683   71.8490   -8.4175 O   0  0  0  0  0  0  0  0  0  0  0  0
   18.6723   71.1518   -8.6263 C   0  0  1  0  0  0  0  0  0  0  0  0
   17.5910   70.2524   -8.0242 C   0  0  1  0  0  0  0  0  0  0  0  0
   20.0227   70.8868   -7.9632 C   0  0  2  0  0  0  0  0  0  0  0  0
   17.6090   70.3149   -6.4909 C   0  0  1  0  0  0  0  0  0  0  0  0
   19.9196   70.9240   -6.4374 C   0  0  1  0  0  0  0  0  0  0  0  0
   17.9181   71.0262  -10.4498 H   0  0  0  0  0  0  0  0  0  0  0  0
   16.3307   70.6415   -9.4927 H   0  0  0  0  0  0  0  0  0  0  0  0
   21.0246   71.8152   -9.3847 H   0  0  0  0  0  0  0  0  0  0  0  0
   17.1966   68.8593   -4.6416 O   0  0  0  0  0  0  0  0  0  0  0  0
   16.6457   69.3080   -5.8661 C   0  0  0  0  0  0  0  0  0  0  0  0
   16.5940   68.2180   -4.2324 H   0  0  0  0  0  0  0  0  0  0  0  0
 25 28  1  0
 25 24  1  0
 25 26  1  6
 25 27  2  0
  1  4  1  0
  1 24  1  0
  1  2  1  6
  1  3  2  0
  6 11  1  0
  6 12  1  0
 29 36  1  0
 29 37  1  0
  9  7  1  1
  7 13  1  0
 10  8  1  1
  8 14  1  0
 37 28  1  6
  4  5  1  0
 33 30  1  6
 30 38  1  0
 34 31  1  6
 31 39  1  0
 35 32  1  6
 32 40  1  0
 41 42  1  0
 41 43  1  0
 15 19  2  0
 16 22  2  0
 12 17  1  6
 17 19  1  0
 17 20  1  0
 18 19  1  0
 18 22  1  0
 18 23  1  0
  9 10  1  0
  9 11  1  0
 10 12  1  0
 11  5  1  6
 33 34  1  0
 33 35  1  0
 34 36  1  0
 35 37  1  0
 36 42  1  1
 20 21  2  0
 21 22  1  0
M  CHG  2   2  -1  26  -1
M  END
>  <COMPND>  (180) 
    8629 

>  <AUTHOR>  (180) 
    GENERATED BY OPEN BABEL 3.1.1

>  <MASTER>  (180) 
        0    0    0    0    0    0    0    0   58    0   58    0

>  <minimizedAffinity>  (180) 
-8.33595

>  <CNNscore>  (180) 
0.4060713947

>  <CNNaffinity>  (180) 
4.0867271423

>  <CNN_VS>  (180) 
1.6595029831

>  <CNNaffinity_variance>  (180) 
0.2461259663

$$$$
181
     RDKit          3D

 43 45  0  0  0  0  0  0  0  0999 V2000
   22.0992   71.2442   -3.0132 P   0  0  2  0  0  0  0  0  0  0  0  0
   23.0909   72.1105   -3.9531 O   0  0  0  0  0  0  0  0  0  0  0  0
   22.7328   70.0587   -2.3465 O   0  0  0  0  0  0  0  0  0  0  0  0
   20.8386   70.9194   -3.9741 O   0  0  0  0  0  0  0  0  0  0  0  0
   19.9429   69.8909   -3.5899 C   0  0  0  0  0  0  0  0  0  0  0  0
   18.3026   71.2355   -4.7189 O   0  0  0  0  0  0  0  0  0  0  0  0
   16.2820   69.9562   -2.9102 O   0  0  0  0  0  0  0  0  0  0  0  0
   15.9567   68.5727   -5.2376 O   0  0  0  0  0  0  0  0  0  0  0  0
   17.4501   69.3896   -3.5017 C   0  0  1  0  0  0  0  0  0  0  0  0
   17.2241   69.1412   -4.9784 C   0  0  2  0  0  0  0  0  0  0  0  0
   18.5329   70.4613   -3.5215 C   0  0  1  0  0  0  0  0  0  0  0  0
   17.3681   70.5379   -5.5586 C   0  0  2  0  0  0  0  0  0  0  0  0
   15.5764   69.2902   -2.8863 H   0  0  0  0  0  0  0  0  0  0  0  0
   15.9146   67.6852   -4.8488 H   0  0  0  0  0  0  0  0  0  0  0  0
   15.7566   70.2551   -7.8610 O   0  0  0  0  0  0  0  0  0  0  0  0
   19.4047   70.4940  -10.6674 O   0  0  0  0  0  0  0  0  0  0  0  0
   17.8705   70.5232   -6.9035 N   0  0  0  0  0  0  0  0  0  0  0  0
   17.5743   70.3745   -9.2565 N   0  0  0  0  0  0  0  0  0  0  0  0
   16.9768   70.3749   -7.9896 C   0  0  0  0  0  0  0  0  0  0  0  0
   19.2354   70.6553   -7.1349 C   0  0  0  0  0  0  0  0  0  0  0  0
   19.7895   70.6516   -8.3490 C   0  0  0  0  0  0  0  0  0  0  0  0
   18.9255   70.5013   -9.5377 C   0  0  0  0  0  0  0  0  0  0  0  0
   16.9713   70.2721  -10.0282 H   0  0  0  0  0  0  0  0  0  0  0  0
   21.5047   72.3503   -1.9954 O   0  0  0  0  0  0  0  0  0  0  0  0
   20.8969   72.2032   -0.5047 P   0  0  2  0  0  0  0  0  0  0  0  0
   20.6631   70.6093   -0.3550 O   0  0  0  0  0  0  0  0  0  0  0  0
   19.6723   73.0350   -0.2547 O   0  0  0  0  0  0  0  0  0  0  0  0
   22.1372   72.5271    0.4759 O   0  0  0  0  0  0  0  0  0  0  0  0
   24.1816   73.6692    0.1118 O   0  0  0  0  0  0  0  0  0  0  0  0
   25.5483   70.6316    2.5523 O   0  0  0  0  0  0  0  0  0  0  0  0
   25.3593   73.3044    3.5858 O   0  0  0  0  0  0  0  0  0  0  0  0
   23.5148   70.0839    0.5663 O   0  0  0  0  0  0  0  0  0  0  0  0
   24.6094   71.6025    2.0819 C   0  0  1  0  0  0  0  0  0  0  0  0
   25.2504   72.9866    2.2011 C   0  0  1  0  0  0  0  0  0  0  0  0
   24.2602   71.2952    0.6269 C   0  0  2  0  0  0  0  0  0  0  0  0
   24.4151   74.0484    1.4732 C   0  0  1  0  0  0  0  0  0  0  0  0
   23.4712   72.4362   -0.0177 C   0  0  1  0  0  0  0  0  0  0  0  0
   25.7739   70.8207    3.4758 H   0  0  0  0  0  0  0  0  0  0  0  0
   25.8886   72.6260    4.0339 H   0  0  0  0  0  0  0  0  0  0  0  0
   24.0251   69.3694    0.9772 H   0  0  0  0  0  0  0  0  0  0  0  0
   26.3804   75.2719    2.0645 O   0  0  0  0  0  0  0  0  0  0  0  0
   25.1146   75.4056    1.4446 C   0  0  0  0  0  0  0  0  0  0  0  0
   26.8373   76.1280    2.0533 H   0  0  0  0  0  0  0  0  0  0  0  0
 25 28  1  0
 25 24  1  0
 25 26  1  1
 25 27  2  0
  1  4  1  0
  1 24  1  0
  1  2  1  6
  1  3  2  0
  6 11  1  0
  6 12  1  0
 29 36  1  0
 29 37  1  0
  9  7  1  6
  7 13  1  0
 10  8  1  1
  8 14  1  0
 37 28  1  1
  4  5  1  0
 33 30  1  6
 30 38  1  0
 34 31  1  1
 31 39  1  0
 35 32  1  1
 32 40  1  0
 41 42  1  0
 41 43  1  0
 15 19  2  0
 16 22  2  0
 12 17  1  6
 17 19  1  0
 17 20  1  0
 18 19  1  0
 18 22  1  0
 18 23  1  0
  9 10  1  0
  9 11  1  0
 10 12  1  0
 11  5  1  6
 33 34  1  0
 33 35  1  0
 34 36  1  0
 35 37  1  0
 36 42  1  6
 20 21  2  0
 21 22  1  0
M  CHG  2   2  -1  26  -1
M  END
>  <COMPND>  (181) 
    8629 

>  <AUTHOR>  (181) 
    GENERATED BY OPEN BABEL 3.1.1

>  <MASTER>  (181) 
        0    0    0    0    0    0    0    0   58    0   58    0

>  <minimizedAffinity>  (181) 
-7.28904

>  <CNNscore>  (181) 
0.8947852850

>  <CNNaffinity>  (181) 
4.8040022850

>  <CNN_VS>  (181) 
4.2985506058

>  <CNNaffinity_variance>  (181) 
0.0421296917

$$$$
182
     RDKit          3D

 43 45  0  0  0  0  0  0  0  0999 V2000
   22.5449   70.9232   -2.5575 P   0  0  2  0  0  0  0  0  0  0  0  0
   23.4028   72.2855   -2.7167 O   0  0  0  0  0  0  0  0  0  0  0  0
   23.3490   69.6576   -2.6142 O   0  0  0  0  0  0  0  0  0  0  0  0
   21.3794   71.0656   -3.6707 O   0  0  0  0  0  0  0  0  0  0  0  0
   20.3896   70.0546   -3.7465 C   0  0  0  0  0  0  0  0  0  0  0  0
   18.7167   71.4280   -4.7901 O   0  0  0  0  0  0  0  0  0  0  0  0
   16.8072   70.3160   -2.7633 O   0  0  0  0  0  0  0  0  0  0  0  0
   16.2232   68.8581   -4.9926 O   0  0  0  0  0  0  0  0  0  0  0  0
   17.8946   69.6731   -3.4262 C   0  0  1  0  0  0  0  0  0  0  0  0
   17.5314   69.3771   -4.8664 C   0  0  2  0  0  0  0  0  0  0  0  0
   19.0164   70.6919   -3.5839 C   0  0  1  0  0  0  0  0  0  0  0  0
   17.6843   70.7417   -5.5166 C   0  0  2  0  0  0  0  0  0  0  0  0
   16.0785   69.6848   -2.6509 H   0  0  0  0  0  0  0  0  0  0  0  0
   16.1770   67.9895   -4.5635 H   0  0  0  0  0  0  0  0  0  0  0  0
   15.9002   70.1856   -7.6346 O   0  0  0  0  0  0  0  0  0  0  0  0
   19.2667   70.4149  -10.7739 O   0  0  0  0  0  0  0  0  0  0  0  0
   18.0675   70.6506   -6.8973 N   0  0  0  0  0  0  0  0  0  0  0  0
   17.5779   70.3004   -9.1960 N   0  0  0  0  0  0  0  0  0  0  0  0
   17.0942   70.3656   -7.8831 C   0  0  0  0  0  0  0  0  0  0  0  0
   19.3956   70.8432   -7.2620 C   0  0  0  0  0  0  0  0  0  0  0  0
   19.8410   70.7764   -8.5184 C   0  0  0  0  0  0  0  0  0  0  0  0
   18.8883   70.4831   -9.6086 C   0  0  0  0  0  0  0  0  0  0  0  0
   16.9178   70.1028   -9.8996 H   0  0  0  0  0  0  0  0  0  0  0  0
   21.7509   71.1539   -1.1685 O   0  0  0  0  0  0  0  0  0  0  0  0
   22.2289   70.9919    0.3671 P   0  0  2  0  0  0  0  0  0  0  0  0
   23.8428   71.0245    0.2587 O   0  0  0  0  0  0  0  0  0  0  0  0
   21.6790   69.7777    1.0580 O   0  0  0  0  0  0  0  0  0  0  0  0
   21.8390   72.3934    1.0664 O   0  0  0  0  0  0  0  0  0  0  0  0
   19.7285   73.3126    1.6300 O   0  0  0  0  0  0  0  0  0  0  0  0
   21.6501   76.7627    0.4236 O   0  0  0  0  0  0  0  0  0  0  0  0
   21.1238   76.3346    3.2142 O   0  0  0  0  0  0  0  0  0  0  0  0
   22.1147   74.2808   -0.9920 O   0  0  0  0  0  0  0  0  0  0  0  0
   21.5505   75.4692    1.0256 C   0  0  1  0  0  0  0  0  0  0  0  0
   20.5438   75.5514    2.1748 C   0  0  1  0  0  0  0  0  0  0  0  0
   21.0852   74.4637   -0.0260 C   0  0  2  0  0  0  0  0  0  0  0  0
   20.1833   74.1539    2.6964 C   0  0  1  0  0  0  0  0  0  0  0  0
   20.7050   73.1226    0.6042 C   0  0  1  0  0  0  0  0  0  0  0  0
   21.9455   77.4058    1.0859 H   0  0  0  0  0  0  0  0  0  0  0  0
   21.3472   77.2143    2.8716 H   0  0  0  0  0  0  0  0  0  0  0  0
   22.3461   75.1368   -1.3837 H   0  0  0  0  0  0  0  0  0  0  0  0
   18.4385   75.4697    3.6624 O   0  0  0  0  0  0  0  0  0  0  0  0
   19.0645   74.2020    3.7347 C   0  0  0  0  0  0  0  0  0  0  0  0
   17.7240   75.5147    4.3175 H   0  0  0  0  0  0  0  0  0  0  0  0
 25 28  1  0
 25 24  1  0
 25 26  1  6
 25 27  2  0
  1  4  1  0
  1 24  1  0
  1  2  1  6
  1  3  2  0
  6 11  1  0
  6 12  1  0
 29 36  1  0
 29 37  1  0
  9  7  1  1
  7 13  1  0
 10  8  1  1
  8 14  1  0
 37 28  1  1
  4  5  1  0
 33 30  1  6
 30 38  1  0
 34 31  1  1
 31 39  1  0
 35 32  1  6
 32 40  1  0
 41 42  1  0
 41 43  1  0
 15 19  2  0
 16 22  2  0
 12 17  1  6
 17 19  1  0
 17 20  1  0
 18 19  1  0
 18 22  1  0
 18 23  1  0
  9 10  1  0
  9 11  1  0
 10 12  1  0
 11  5  1  6
 33 34  1  0
 33 35  1  0
 34 36  1  0
 35 37  1  0
 36 42  1  1
 20 21  2  0
 21 22  1  0
M  CHG  2   2  -1  26  -1
M  END
>  <COMPND>  (182) 
    8629 

>  <AUTHOR>  (182) 
    GENERATED BY OPEN BABEL 3.1.1

>  <MASTER>  (182) 
        0    0    0    0    0    0    0    0   58    0   58    0

>  <minimizedAffinity>  (182) 
-6.75699

>  <CNNscore>  (182) 
0.8677781224

>  <CNNaffinity>  (182) 
4.5851507187

>  <CNN_VS>  (182) 
3.9788935184

>  <CNNaffinity_variance>  (182) 
0.0223173425

$$$$
183
     RDKit          3D

 43 45  0  0  0  0  0  0  0  0999 V2000
   20.9309   71.3559   -1.6094 P   0  0  2  0  0  0  0  0  0  0  0  0
   22.5310   71.1559   -1.4789 O   0  0  0  0  0  0  0  0  0  0  0  0
   20.1123   70.5797   -0.6200 O   0  0  0  0  0  0  0  0  0  0  0  0
   20.6267   71.0477   -3.1684 O   0  0  0  0  0  0  0  0  0  0  0  0
   19.7564   69.9763   -3.4885 C   0  0  0  0  0  0  0  0  0  0  0  0
   18.1099   71.2778   -4.6584 O   0  0  0  0  0  0  0  0  0  0  0  0
   16.0692   69.8618   -2.9787 O   0  0  0  0  0  0  0  0  0  0  0  0
   15.9128   68.5294   -5.3529 O   0  0  0  0  0  0  0  0  0  0  0  0
   17.2874   69.3636   -3.5292 C   0  0  1  0  0  0  0  0  0  0  0  0
   17.1402   69.1458   -5.0207 C   0  0  2  0  0  0  0  0  0  0  0  0
   18.3204   70.4820   -3.4715 C   0  0  1  0  0  0  0  0  0  0  0  0
   17.2470   70.5629   -5.5580 C   0  0  2  0  0  0  0  0  0  0  0  0
   15.3941   69.1649   -3.0044 H   0  0  0  0  0  0  0  0  0  0  0  0
   15.8933   67.6306   -4.9889 H   0  0  0  0  0  0  0  0  0  0  0  0
   15.7599   70.2476   -7.9386 O   0  0  0  0  0  0  0  0  0  0  0  0
   19.5131   70.7495  -10.5659 O   0  0  0  0  0  0  0  0  0  0  0  0
   17.8101   70.6071   -6.8780 N   0  0  0  0  0  0  0  0  0  0  0  0
   17.6299   70.4980   -9.2449 N   0  0  0  0  0  0  0  0  0  0  0  0
   16.9762   70.4362   -8.0076 C   0  0  0  0  0  0  0  0  0  0  0  0
   19.1747   70.8182   -7.0426 C   0  0  0  0  0  0  0  0  0  0  0  0
   19.7828   70.8731   -8.2294 C   0  0  0  0  0  0  0  0  0  0  0  0
   18.9834   70.7043   -9.4600 C   0  0  0  0  0  0  0  0  0  0  0  0
   17.0691   70.3813  -10.0459 H   0  0  0  0  0  0  0  0  0  0  0  0
   20.7563   72.9602   -1.5154 O   0  0  0  0  0  0  0  0  0  0  0  0
   19.6130   73.9398   -2.1037 P   0  0  2  0  0  0  0  0  0  0  0  0
   20.0146   75.3850   -1.4972 O   0  0  0  0  0  0  0  0  0  0  0  0
   18.2102   73.5055   -1.7916 O   0  0  0  0  0  0  0  0  0  0  0  0
   19.9431   74.0530   -3.6795 O   0  0  0  0  0  0  0  0  0  0  0  0
   22.2345   74.6535   -3.7559 O   0  0  0  0  0  0  0  0  0  0  0  0
   21.4785   74.4184   -7.8086 O   0  0  0  0  0  0  0  0  0  0  0  0
   23.0543   72.3801   -6.5396 O   0  0  0  0  0  0  0  0  0  0  0  0
   19.4781   75.5172   -6.0279 O   0  0  0  0  0  0  0  0  0  0  0  0
   21.3425   74.0473   -6.4341 C   0  0  1  0  0  0  0  0  0  0  0  0
   22.7157   73.6156   -5.9157 C   0  0  1  0  0  0  0  0  0  0  0  0
   20.8214   75.2455   -5.6428 C   0  0  2  0  0  0  0  0  0  0  0  0
   22.7074   73.4588   -4.3892 C   0  0  1  0  0  0  0  0  0  0  0  0
   20.9020   75.0044   -4.1343 C   0  0  1  0  0  0  0  0  0  0  0  0
   21.8086   73.6618   -8.3167 H   0  0  0  0  0  0  0  0  0  0  0  0
   23.0555   72.4927   -7.5032 H   0  0  0  0  0  0  0  0  0  0  0  0
   19.4405   75.6683   -6.9848 H   0  0  0  0  0  0  0  0  0  0  0  0
   24.2575   71.7838   -3.6819 O   0  0  0  0  0  0  0  0  0  0  0  0
   24.1034   73.1828   -3.8350 C   0  0  0  0  0  0  0  0  0  0  0  0
   25.1417   71.5932   -3.3301 H   0  0  0  0  0  0  0  0  0  0  0  0
 25 28  1  0
 25 24  1  0
 25 26  1  1
 25 27  2  0
  1  4  1  0
  1 24  1  0
  1  2  1  1
  1  3  2  0
  6 11  1  0
  6 12  1  0
 29 36  1  0
 29 37  1  0
  9  7  1  6
  7 13  1  0
 10  8  1  1
  8 14  1  0
 37 28  1  6
  4  5  1  0
 33 30  1  6
 30 38  1  0
 34 31  1  6
 31 39  1  0
 35 32  1  6
 32 40  1  0
 41 42  1  0
 41 43  1  0
 15 19  2  0
 16 22  2  0
 12 17  1  6
 17 19  1  0
 17 20  1  0
 18 19  1  0
 18 22  1  0
 18 23  1  0
  9 10  1  0
  9 11  1  0
 10 12  1  0
 11  5  1  6
 33 34  1  0
 33 35  1  0
 34 36  1  0
 35 37  1  0
 36 42  1  1
 20 21  2  0
 21 22  1  0
M  CHG  2   2  -1  26  -1
M  END
>  <COMPND>  (183) 
    8629 

>  <AUTHOR>  (183) 
    GENERATED BY OPEN BABEL 3.1.1

>  <MASTER>  (183) 
        0    0    0    0    0    0    0    0   58    0   58    0

>  <minimizedAffinity>  (183) 
-7.24344

>  <CNNscore>  (183) 
0.8289905787

>  <CNNaffinity>  (183) 
4.4616403580

>  <CNN_VS>  (183) 
3.6986577511

>  <CNNaffinity_variance>  (183) 
0.6714830399

$$$$
184
     RDKit          3D

 43 45  0  0  0  0  0  0  0  0999 V2000
   22.6531   72.1327   -2.8950 P   0  0  2  0  0  0  0  0  0  0  0  0
   22.5295   73.7300   -2.6692 O   0  0  0  0  0  0  0  0  0  0  0  0
   23.9892   71.6645   -3.3919 O   0  0  0  0  0  0  0  0  0  0  0  0
   21.3879   71.7746   -3.8378 O   0  0  0  0  0  0  0  0  0  0  0  0
   20.6483   70.5986   -3.5588 C   0  0  0  0  0  0  0  0  0  0  0  0
   18.7122   71.6191   -4.5509 O   0  0  0  0  0  0  0  0  0  0  0  0
   17.1168   70.1994   -2.4462 O   0  0  0  0  0  0  0  0  0  0  0  0
   16.7395   68.6253   -4.6408 O   0  0  0  0  0  0  0  0  0  0  0  0
   18.2818   69.7617   -3.1437 C   0  0  1  0  0  0  0  0  0  0  0  0
   17.9307   69.3818   -4.5671 C   0  0  2  0  0  0  0  0  0  0  0  0
   19.1864   70.9700   -3.3508 C   0  0  1  0  0  0  0  0  0  0  0  0
   17.8022   70.7411   -5.2334 C   0  0  2  0  0  0  0  0  0  0  0  0
   16.5238   69.4448   -2.3019 H   0  0  0  0  0  0  0  0  0  0  0  0
   16.8720   67.7699   -4.2033 H   0  0  0  0  0  0  0  0  0  0  0  0
   16.0151   70.0289   -7.3014 O   0  0  0  0  0  0  0  0  0  0  0  0
   19.2375   70.6284  -10.5416 O   0  0  0  0  0  0  0  0  0  0  0  0
   18.1475   70.7030   -6.6265 N   0  0  0  0  0  0  0  0  0  0  0  0
   17.6210   70.3282   -8.9131 N   0  0  0  0  0  0  0  0  0  0  0  0
   17.1762   70.3311   -7.5849 C   0  0  0  0  0  0  0  0  0  0  0  0
   19.4369   71.0324   -7.0301 C   0  0  0  0  0  0  0  0  0  0  0  0
   19.8455   71.0234   -8.3006 C   0  0  0  0  0  0  0  0  0  0  0  0
   18.8922   70.6464   -9.3641 C   0  0  0  0  0  0  0  0  0  0  0  0
   16.9616   70.0719   -9.5982 H   0  0  0  0  0  0  0  0  0  0  0  0
   22.2195   71.5281   -1.4599 O   0  0  0  0  0  0  0  0  0  0  0  0
   23.0496   70.6575   -0.3802 P   0  0  2  0  0  0  0  0  0  0  0  0
   21.8937   70.0549    0.5780 O   0  0  0  0  0  0  0  0  0  0  0  0
   24.1147   71.4288    0.3442 O   0  0  0  0  0  0  0  0  0  0  0  0
   23.5935   69.3859   -1.2121 O   0  0  0  0  0  0  0  0  0  0  0  0
   24.7075   67.7036    0.0311 O   0  0  0  0  0  0  0  0  0  0  0  0
   25.9670   66.6643   -3.7615 O   0  0  0  0  0  0  0  0  0  0  0  0
   24.0361   65.0237   -2.4094 O   0  0  0  0  0  0  0  0  0  0  0  0
   25.7265   69.4558   -3.0343 O   0  0  0  0  0  0  0  0  0  0  0  0
   25.0478   67.1585   -2.7836 C   0  0  1  0  0  0  0  0  0  0  0  0
   24.7887   66.0473   -1.7643 C   0  0  1  0  0  0  0  0  0  0  0  0
   25.6552   68.3829   -2.1015 C   0  0  2  0  0  0  0  0  0  0  0  0
   24.0273   66.5818   -0.5438 C   0  0  1  0  0  0  0  0  0  0  0  0
   24.8484   68.8025   -0.8714 C   0  0  1  0  0  0  0  0  0  0  0  0
   25.5871   65.8870   -4.1987 H   0  0  0  0  0  0  0  0  0  0  0  0
   24.5277   64.6952   -3.1785 H   0  0  0  0  0  0  0  0  0  0  0  0
   26.2400   69.1777   -3.8082 H   0  0  0  0  0  0  0  0  0  0  0  0
   24.5799   65.9916    1.7046 O   0  0  0  0  0  0  0  0  0  0  0  0
   23.8961   65.5289    0.5545 C   0  0  0  0  0  0  0  0  0  0  0  0
   24.5047   65.3317    2.4121 H   0  0  0  0  0  0  0  0  0  0  0  0
 25 28  1  0
 25 24  1  0
 25 26  1  1
 25 27  2  0
  1  4  1  0
  1 24  1  0
  1  2  1  1
  1  3  2  0
  6 11  1  0
  6 12  1  0
 29 36  1  0
 29 37  1  0
  9  7  1  1
  7 13  1  0
 10  8  1  1
  8 14  1  0
 37 28  1  6
  4  5  1  0
 33 30  1  6
 30 38  1  0
 34 31  1  6
 31 39  1  0
 35 32  1  6
 32 40  1  0
 41 42  1  0
 41 43  1  0
 15 19  2  0
 16 22  2  0
 12 17  1  6
 17 19  1  0
 17 20  1  0
 18 19  1  0
 18 22  1  0
 18 23  1  0
  9 10  1  0
  9 11  1  0
 10 12  1  0
 11  5  1  6
 33 34  1  0
 33 35  1  0
 34 36  1  0
 35 37  1  0
 36 42  1  1
 20 21  2  0
 21 22  1  0
M  CHG  2   2  -1  26  -1
M  END
>  <COMPND>  (184) 
    8629 

>  <AUTHOR>  (184) 
    GENERATED BY OPEN BABEL 3.1.1

>  <MASTER>  (184) 
        0    0    0    0    0    0    0    0   58    0   58    0

>  <minimizedAffinity>  (184) 
-9.40949

>  <CNNscore>  (184) 
0.8008180261

>  <CNNaffinity>  (184) 
5.0199441910

>  <CNN_VS>  (184) 
4.0200619698

>  <CNNaffinity_variance>  (184) 
0.0825579390

$$$$
185
     RDKit          3D

 43 45  0  0  0  0  0  0  0  0999 V2000
   21.0122   73.3108   -4.2847 P   0  0  2  0  0  0  0  0  0  0  0  0
   20.3391   74.6948   -4.7834 O   0  0  0  0  0  0  0  0  0  0  0  0
   21.4634   72.3936   -5.3831 O   0  0  0  0  0  0  0  0  0  0  0  0
   19.9219   72.6960   -3.2594 O   0  0  0  0  0  0  0  0  0  0  0  0
   19.3825   71.4149   -3.5342 C   0  0  0  0  0  0  0  0  0  0  0  0
   17.5819   71.9426   -5.0352 O   0  0  0  0  0  0  0  0  0  0  0  0
   15.7969   70.5073   -3.1001 O   0  0  0  0  0  0  0  0  0  0  0  0
   16.1642   68.6483   -5.0612 O   0  0  0  0  0  0  0  0  0  0  0  0
   17.1410   70.2126   -3.4769 C   0  0  1  0  0  0  0  0  0  0  0  0
   17.1780   69.6134   -4.8672 C   0  0  2  0  0  0  0  0  0  0  0  0
   17.8717   71.5340   -3.6804 C   0  0  1  0  0  0  0  0  0  0  0  0
   16.9929   70.8402   -5.7441 C   0  0  2  0  0  0  0  0  0  0  0  0
   15.3103   69.6786   -2.9641 H   0  0  0  0  0  0  0  0  0  0  0  0
   16.3263   67.8878   -4.4815 H   0  0  0  0  0  0  0  0  0  0  0  0
   15.6359   70.4630   -8.1924 O   0  0  0  0  0  0  0  0  0  0  0  0
   19.5820   70.3347  -10.5701 O   0  0  0  0  0  0  0  0  0  0  0  0
   17.6408   70.7055   -7.0182 N   0  0  0  0  0  0  0  0  0  0  0  0
   17.6018   70.3996   -9.3743 N   0  0  0  0  0  0  0  0  0  0  0  0
   16.8674   70.5186   -8.1876 C   0  0  0  0  0  0  0  0  0  0  0  0
   19.0280   70.7595   -7.0994 C   0  0  0  0  0  0  0  0  0  0  0  0
   19.7133   70.6430   -8.2387 C   0  0  0  0  0  0  0  0  0  0  0  0
   18.9807   70.4454   -9.5061 C   0  0  0  0  0  0  0  0  0  0  0  0
   17.0842   70.2684  -10.2017 H   0  0  0  0  0  0  0  0  0  0  0  0
   22.1922   73.8142   -3.3014 O   0  0  0  0  0  0  0  0  0  0  0  0
   23.7449   73.3772   -3.1960 P   0  0  2  0  0  0  0  0  0  0  0  0
   24.4540   74.6800   -2.5499 O   0  0  0  0  0  0  0  0  0  0  0  0
   24.3465   72.9250   -4.4951 O   0  0  0  0  0  0  0  0  0  0  0  0
   23.7790   72.2702   -2.0220 O   0  0  0  0  0  0  0  0  0  0  0  0
   24.0300   69.9363   -2.3484 O   0  0  0  0  0  0  0  0  0  0  0  0
   21.8226   69.8808    1.1409 O   0  0  0  0  0  0  0  0  0  0  0  0
   24.6090   69.1890    1.2146 O   0  0  0  0  0  0  0  0  0  0  0  0
   21.2401   71.8439   -0.9052 O   0  0  0  0  0  0  0  0  0  0  0  0
   22.7933   70.3879    0.2211 C   0  0  1  0  0  0  0  0  0  0  0  0
   23.8603   69.3122    0.0085 C   0  0  1  0  0  0  0  0  0  0  0  0
   22.1017   70.7273   -1.0979 C   0  0  2  0  0  0  0  0  0  0  0  0
   24.7863   69.6738   -1.1606 C   0  0  1  0  0  0  0  0  0  0  0  0
   23.1136   71.0235   -2.2064 C   0  0  1  0  0  0  0  0  0  0  0  0
   22.2552   69.6638    1.9807 H   0  0  0  0  0  0  0  0  0  0  0  0
   24.0125   68.9610    1.9450 H   0  0  0  0  0  0  0  0  0  0  0  0
   20.6041   71.6438   -0.2014 H   0  0  0  0  0  0  0  0  0  0  0  0
   26.3683   68.8252   -2.7373 O   0  0  0  0  0  0  0  0  0  0  0  0
   25.7581   68.5432   -1.4914 C   0  0  0  0  0  0  0  0  0  0  0  0
   26.9898   68.1141   -2.9606 H   0  0  0  0  0  0  0  0  0  0  0  0
 25 28  1  0
 25 24  1  0
 25 26  1  1
 25 27  2  0
  1  4  1  0
  1 24  1  0
  1  2  1  6
  1  3  2  0
  6 11  1  0
  6 12  1  0
 29 36  1  0
 29 37  1  0
  9  7  1  6
  7 13  1  0
 10  8  1  1
  8 14  1  0
 37 28  1  1
  4  5  1  0
 33 30  1  1
 30 38  1  0
 34 31  1  1
 31 39  1  0
 35 32  1  1
 32 40  1  0
 41 42  1  0
 41 43  1  0
 15 19  2  0
 16 22  2  0
 12 17  1  6
 17 19  1  0
 17 20  1  0
 18 19  1  0
 18 22  1  0
 18 23  1  0
  9 10  1  0
  9 11  1  0
 10 12  1  0
 11  5  1  6
 33 34  1  0
 33 35  1  0
 34 36  1  0
 35 37  1  0
 36 42  1  6
 20 21  2  0
 21 22  1  0
M  CHG  2   2  -1  26  -1
M  END
>  <COMPND>  (185) 
    8629 

>  <AUTHOR>  (185) 
    GENERATED BY OPEN BABEL 3.1.1

>  <MASTER>  (185) 
        0    0    0    0    0    0    0    0   58    0   58    0

>  <minimizedAffinity>  (185) 
-8.59223

>  <CNNscore>  (185) 
0.7612405419

>  <CNNaffinity>  (185) 
4.6370291710

>  <CNN_VS>  (185) 
3.5298945904

>  <CNNaffinity_variance>  (185) 
0.0941192880

$$$$
186
     RDKit          3D

 43 45  0  0  0  0  0  0  0  0999 V2000
   20.9464   74.6692   -3.2739 P   0  0  2  0  0  0  0  0  0  0  0  0
   21.3014   75.2178   -1.7939 O   0  0  0  0  0  0  0  0  0  0  0  0
   21.1132   75.6713   -4.3781 O   0  0  0  0  0  0  0  0  0  0  0  0
   19.4631   74.0437   -3.1108 O   0  0  0  0  0  0  0  0  0  0  0  0
   18.7234   73.7436   -4.2815 C   0  0  0  0  0  0  0  0  0  0  0  0
   17.1250   72.2012   -5.1980 O   0  0  0  0  0  0  0  0  0  0  0  0
   17.2571   70.7860   -2.5578 O   0  0  0  0  0  0  0  0  0  0  0  0
   18.8463   69.2371   -4.1426 O   0  0  0  0  0  0  0  0  0  0  0  0
   18.2957   71.4433   -3.2820 C   0  0  1  0  0  0  0  0  0  0  0  0
   18.7193   70.6057   -4.4705 C   0  0  2  0  0  0  0  0  0  0  0  0
   17.6939   72.6702   -3.9559 C   0  0  1  0  0  0  0  0  0  0  0  0
   17.5950   70.8684   -5.4579 C   0  0  2  0  0  0  0  0  0  0  0  0
   17.6175   69.9992   -2.1184 H   0  0  0  0  0  0  0  0  0  0  0  0
   19.5743   69.1217   -3.5121 H   0  0  0  0  0  0  0  0  0  0  0  0
   15.9480   70.1033   -7.6213 O   0  0  0  0  0  0  0  0  0  0  0  0
   19.3879   70.5887  -10.6499 O   0  0  0  0  0  0  0  0  0  0  0  0
   18.0342   70.7866   -6.8224 N   0  0  0  0  0  0  0  0  0  0  0  0
   17.6621   70.3458   -9.1276 N   0  0  0  0  0  0  0  0  0  0  0  0
   17.1278   70.3910   -7.8336 C   0  0  0  0  0  0  0  0  0  0  0  0
   19.3504   71.0972   -7.1466 C   0  0  0  0  0  0  0  0  0  0  0  0
   19.8446   71.0479   -8.3853 C   0  0  0  0  0  0  0  0  0  0  0  0
   18.9634   70.6438   -9.4999 C   0  0  0  0  0  0  0  0  0  0  0  0
   17.0492   70.0724   -9.8482 H   0  0  0  0  0  0  0  0  0  0  0  0
   21.8810   73.3573   -3.4091 O   0  0  0  0  0  0  0  0  0  0  0  0
   23.4237   73.1058   -2.9968 P   0  0  2  0  0  0  0  0  0  0  0  0
   24.0908   74.5724   -3.1439 O   0  0  0  0  0  0  0  0  0  0  0  0
   24.1064   72.0322   -3.7937 O   0  0  0  0  0  0  0  0  0  0  0  0
   23.3824   72.8344   -1.4063 O   0  0  0  0  0  0  0  0  0  0  0  0
   24.0425   70.9419   -0.1417 O   0  0  0  0  0  0  0  0  0  0  0  0
   20.6948   72.0396    2.0121 O   0  0  0  0  0  0  0  0  0  0  0  0
   23.3050   72.4836    3.1245 O   0  0  0  0  0  0  0  0  0  0  0  0
   20.6888   72.2537   -0.8747 O   0  0  0  0  0  0  0  0  0  0  0  0
   21.8684   72.2612    1.2252 C   0  0  1  0  0  0  0  0  0  0  0  0
   23.0663   71.6756    1.9755 C   0  0  1  0  0  0  0  0  0  0  0  0
   21.6967   71.5782   -0.1303 C   0  0  2  0  0  0  0  0  0  0  0  0
   24.3135   71.6352    1.0821 C   0  0  1  0  0  0  0  0  0  0  0  0
   23.0078   71.5489   -0.9180 C   0  0  1  0  0  0  0  0  0  0  0  0
   20.7971   72.4712    2.8739 H   0  0  0  0  0  0  0  0  0  0  0  0
   22.5097   72.5011    3.6799 H   0  0  0  0  0  0  0  0  0  0  0  0
   19.8639   72.2652   -0.3655 H   0  0  0  0  0  0  0  0  0  0  0  0
   24.9495   69.9567    2.6592 O   0  0  0  0  0  0  0  0  0  0  0  0
   25.4769   70.9114    1.7566 C   0  0  0  0  0  0  0  0  0  0  0  0
   25.6786   69.4881    3.0957 H   0  0  0  0  0  0  0  0  0  0  0  0
 25 28  1  0
 25 24  1  0
 25 26  1  1
 25 27  2  0
  1  4  1  0
  1 24  1  0
  1  2  1  1
  1  3  2  0
  6 11  1  0
  6 12  1  0
 29 36  1  0
 29 37  1  0
  9  7  1  6
  7 13  1  0
 10  8  1  1
  8 14  1  0
 37 28  1  1
  4  5  1  0
 33 30  1  1
 30 38  1  0
 34 31  1  1
 31 39  1  0
 35 32  1  6
 32 40  1  0
 41 42  1  0
 41 43  1  0
 15 19  2  0
 16 22  2  0
 12 17  1  6
 17 19  1  0
 17 20  1  0
 18 19  1  0
 18 22  1  0
 18 23  1  0
  9 10  1  0
  9 11  1  0
 10 12  1  0
 11  5  1  6
 33 34  1  0
 33 35  1  0
 34 36  1  0
 35 37  1  0
 36 42  1  1
 20 21  2  0
 21 22  1  0
M  CHG  2   2  -1  26  -1
M  END
>  <COMPND>  (186) 
    8629 

>  <AUTHOR>  (186) 
    GENERATED BY OPEN BABEL 3.1.1

>  <MASTER>  (186) 
        0    0    0    0    0    0    0    0   58    0   58    0

>  <minimizedAffinity>  (186) 
-6.78819

>  <CNNscore>  (186) 
0.7235711813

>  <CNNaffinity>  (186) 
4.3692312241

>  <CNN_VS>  (186) 
3.1614499092

>  <CNNaffinity_variance>  (186) 
0.0361763835

$$$$
187
     RDKit          3D

 43 45  0  0  0  0  0  0  0  0999 V2000
   18.8635   71.4602   -2.2353 P   0  0  2  0  0  0  0  0  0  0  0  0
   18.0691   72.3702   -1.1590 O   0  0  0  0  0  0  0  0  0  0  0  0
   18.0104   70.4874   -2.9951 O   0  0  0  0  0  0  0  0  0  0  0  0
   20.0741   70.8133   -1.3787 O   0  0  0  0  0  0  0  0  0  0  0  0
   20.7976   71.6495   -0.4926 C   0  0  0  0  0  0  0  0  0  0  0  0
   22.9542   72.6312   -0.0939 O   0  0  0  0  0  0  0  0  0  0  0  0
   24.0955   70.2331   -1.4859 O   0  0  0  0  0  0  0  0  0  0  0  0
   24.4850   69.6341    1.1459 O   0  0  0  0  0  0  0  0  0  0  0  0
   22.9636   70.3210   -0.6219 C   0  0  1  0  0  0  0  0  0  0  0  0
   23.4109   70.4906    0.8151 C   0  0  2  0  0  0  0  0  0  0  0  0
   22.2656   71.6472   -0.8964 C   0  0  1  0  0  0  0  0  0  0  0  0
   23.8008   71.9585    0.8525 C   0  0  2  0  0  0  0  0  0  0  0  0
   24.5573   69.3940   -1.3291 H   0  0  0  0  0  0  0  0  0  0  0  0
   24.1868   68.7119    1.1079 H   0  0  0  0  0  0  0  0  0  0  0  0
   25.5935   73.7712    2.0685 O   0  0  0  0  0  0  0  0  0  0  0  0
   22.9574   74.1380    5.8312 O   0  0  0  0  0  0  0  0  0  0  0  0
   23.6076   72.5436    2.1493 N   0  0  0  0  0  0  0  0  0  0  0  0
   24.2794   73.9525    3.9410 N   0  0  0  0  0  0  0  0  0  0  0  0
   24.5685   73.4418    2.6691 C   0  0  0  0  0  0  0  0  0  0  0  0
   22.4751   72.2257    2.8912 C   0  0  0  0  0  0  0  0  0  0  0  0
   22.2148   72.7203    4.1032 C   0  0  0  0  0  0  0  0  0  0  0  0
   23.1684   73.6659    4.7184 C   0  0  0  0  0  0  0  0  0  0  0  0
   24.9349   74.5800    4.3235 H   0  0  0  0  0  0  0  0  0  0  0  0
   19.6147   72.5572   -3.1546 O   0  0  0  0  0  0  0  0  0  0  0  0
   20.5033   72.3900   -4.4945 P   0  0  2  0  0  0  0  0  0  0  0  0
   21.3543   71.0437   -4.2097 O   0  0  0  0  0  0  0  0  0  0  0  0
   21.3387   73.5906   -4.8327 O   0  0  0  0  0  0  0  0  0  0  0  0
   19.4442   71.9686   -5.6372 O   0  0  0  0  0  0  0  0  0  0  0  0
   18.6515   69.7845   -6.1038 O   0  0  0  0  0  0  0  0  0  0  0  0
   18.4797   71.3760   -9.9102 O   0  0  0  0  0  0  0  0  0  0  0  0
   16.0463   70.9011   -8.4607 O   0  0  0  0  0  0  0  0  0  0  0  0
   20.6778   72.0623   -8.1561 O   0  0  0  0  0  0  0  0  0  0  0  0
   18.3858   71.3980   -8.4833 C   0  0  1  0  0  0  0  0  0  0  0  0
   17.3146   70.3920   -8.0576 C   0  0  1  0  0  0  0  0  0  0  0  0
   19.7419   71.0237   -7.8880 C   0  0  2  0  0  0  0  0  0  0  0  0
   17.3409   70.1636   -6.5403 C   0  0  1  0  0  0  0  0  0  0  0  0
   19.6473   70.7708   -6.3823 C   0  0  1  0  0  0  0  0  0  0  0  0
   17.6221   71.6133  -10.2944 H   0  0  0  0  0  0  0  0  0  0  0  0
   16.0431   71.0414   -9.4207 H   0  0  0  0  0  0  0  0  0  0  0  0
   20.7287   72.2125   -9.1125 H   0  0  0  0  0  0  0  0  0  0  0  0
   16.2363   69.1021   -4.7067 O   0  0  0  0  0  0  0  0  0  0  0  0
   16.3887   69.0487   -6.1132 C   0  0  0  0  0  0  0  0  0  0  0  0
   15.6325   68.3984   -4.4205 H   0  0  0  0  0  0  0  0  0  0  0  0
 25 28  1  0
 25 24  1  0
 25 26  1  1
 25 27  2  0
  1  4  1  0
  1 24  1  0
  1  2  1  1
  1  3  2  0
  6 11  1  0
  6 12  1  0
 29 36  1  0
 29 37  1  0
  9  7  1  6
  7 13  1  0
 10  8  1  6
  8 14  1  0
 37 28  1  1
  4  5  1  0
 33 30  1  6
 30 38  1  0
 34 31  1  1
 31 39  1  0
 35 32  1  1
 32 40  1  0
 41 42  1  0
 41 43  1  0
 15 19  2  0
 16 22  2  0
 12 17  1  1
 17 19  1  0
 17 20  1  0
 18 19  1  0
 18 22  1  0
 18 23  1  0
  9 10  1  0
  9 11  1  0
 10 12  1  0
 11  5  1  1
 33 34  1  0
 33 35  1  0
 34 36  1  0
 35 37  1  0
 36 42  1  6
 20 21  2  0
 21 22  1  0
M  CHG  2   2  -1  26  -1
M  END
>  <COMPND>  (187) 
    8629 

>  <AUTHOR>  (187) 
    GENERATED BY OPEN BABEL 3.1.1

>  <MASTER>  (187) 
        0    0    0    0    0    0    0    0   58    0   58    0

>  <minimizedAffinity>  (187) 
-6.81759

>  <CNNscore>  (187) 
0.6663637161

>  <CNNaffinity>  (187) 
4.1961083412

>  <CNN_VS>  (187) 
2.7961342335

>  <CNNaffinity_variance>  (187) 
0.0109574553

$$$$
188
     RDKit          3D

 43 45  0  0  0  0  0  0  0  0999 V2000
   14.6959   70.9503   -1.5738 P   0  0  2  0  0  0  0  0  0  0  0  0
   15.5730   72.1245   -0.8885 O   0  0  0  0  0  0  0  0  0  0  0  0
   13.2475   71.2814   -1.7834 O   0  0  0  0  0  0  0  0  0  0  0  0
   14.9942   69.6544   -0.6521 O   0  0  0  0  0  0  0  0  0  0  0  0
   14.0005   68.6488   -0.5576 C   0  0  0  0  0  0  0  0  0  0  0  0
   11.9351   68.6295    0.6702 O   0  0  0  0  0  0  0  0  0  0  0  0
   13.5862   67.9245    3.0718 O   0  0  0  0  0  0  0  0  0  0  0  0
   12.5431   65.5138    2.3391 O   0  0  0  0  0  0  0  0  0  0  0  0
   13.7550   67.5262    1.7124 C   0  0  1  0  0  0  0  0  0  0  0  0
   12.7149   66.4923    1.3343 C   0  0  2  0  0  0  0  0  0  0  0  0
   13.3690   68.7043    0.8267 C   0  0  1  0  0  0  0  0  0  0  0  0
   11.4765   67.3496    1.1353 C   0  0  2  0  0  0  0  0  0  0  0  0
   13.8270   67.1883    3.6566 H   0  0  0  0  0  0  0  0  0  0  0  0
   13.3577   64.9948    2.4279 H   0  0  0  0  0  0  0  0  0  0  0  0
    8.6719   67.6810    1.1842 O   0  0  0  0  0  0  0  0  0  0  0  0
    8.1253   65.1758   -2.6455 O   0  0  0  0  0  0  0  0  0  0  0  0
   10.5771   66.7951    0.1631 N   0  0  0  0  0  0  0  0  0  0  0  0
    8.4020   66.4335   -0.7228 N   0  0  0  0  0  0  0  0  0  0  0  0
    9.1855   67.0199    0.2794 C   0  0  0  0  0  0  0  0  0  0  0  0
   11.0768   66.0383   -0.8911 C   0  0  0  0  0  0  0  0  0  0  0  0
   10.3162   65.4850   -1.8379 C   0  0  0  0  0  0  0  0  0  0  0  0
    8.8517   65.6719   -1.7898 C   0  0  0  0  0  0  0  0  0  0  0  0
    7.4296   66.5764   -0.6622 H   0  0  0  0  0  0  0  0  0  0  0  0
   15.5155   70.6285   -2.9294 O   0  0  0  0  0  0  0  0  0  0  0  0
   17.0534   70.1878   -3.1608 P   0  0  2  0  0  0  0  0  0  0  0  0
   17.0378   68.6027   -2.8371 O   0  0  0  0  0  0  0  0  0  0  0  0
   18.0468   70.9745   -2.3558 O   0  0  0  0  0  0  0  0  0  0  0  0
   17.2675   70.2755   -4.7581 O   0  0  0  0  0  0  0  0  0  0  0  0
   18.8830   71.4666   -6.0183 O   0  0  0  0  0  0  0  0  0  0  0  0
   15.6406   71.8825   -8.5411 O   0  0  0  0  0  0  0  0  0  0  0  0
   17.7880   70.1206   -9.2707 O   0  0  0  0  0  0  0  0  0  0  0  0
   15.2657   72.0160   -5.6738 O   0  0  0  0  0  0  0  0  0  0  0  0
   16.4773   71.2125   -7.5942 C   0  0  1  0  0  0  0  0  0  0  0  0
   17.8715   71.0645   -8.2066 C   0  0  1  0  0  0  0  0  0  0  0  0
   16.5388   72.0381   -6.3105 C   0  0  2  0  0  0  0  0  0  0  0  0
   18.8906   70.5989   -7.1579 C   0  0  1  0  0  0  0  0  0  0  0  0
   17.6174   71.5205   -5.3572 C   0  0  1  0  0  0  0  0  0  0  0  0
   15.5969   71.3632   -9.3584 H   0  0  0  0  0  0  0  0  0  0  0  0
   17.1409   70.4262   -9.9256 H   0  0  0  0  0  0  0  0  0  0  0  0
   14.5917   72.3462   -6.2874 H   0  0  0  0  0  0  0  0  0  0  0  0
   20.4168   71.6007   -8.6993 O   0  0  0  0  0  0  0  0  0  0  0  0
   20.3156   70.5960   -7.7069 C   0  0  0  0  0  0  0  0  0  0  0  0
   21.3187   71.6107   -9.0575 H   0  0  0  0  0  0  0  0  0  0  0  0
 25 28  1  0
 25 24  1  0
 25 26  1  1
 25 27  2  0
  1  4  1  0
  1 24  1  0
  1  2  1  1
  1  3  2  0
  6 11  1  0
  6 12  1  0
 29 36  1  0
 29 37  1  0
  9  7  1  1
  7 13  1  0
 10  8  1  1
  8 14  1  0
 37 28  1  6
  4  5  1  0
 33 30  1  6
 30 38  1  0
 34 31  1  6
 31 39  1  0
 35 32  1  1
 32 40  1  0
 41 42  1  0
 41 43  1  0
 15 19  2  0
 16 22  2  0
 12 17  1  6
 17 19  1  0
 17 20  1  0
 18 19  1  0
 18 22  1  0
 18 23  1  0
  9 10  1  0
  9 11  1  0
 10 12  1  0
 11  5  1  6
 33 34  1  0
 33 35  1  0
 34 36  1  0
 35 37  1  0
 36 42  1  6
 20 21  2  0
 21 22  1  0
M  CHG  2   2  -1  26  -1
M  END
>  <COMPND>  (188) 
    8629 

>  <AUTHOR>  (188) 
    GENERATED BY OPEN BABEL 3.1.1

>  <MASTER>  (188) 
        0    0    0    0    0    0    0    0   58    0   58    0

>  <minimizedAffinity>  (188) 
-7.13574

>  <CNNscore>  (188) 
0.6548153162

>  <CNNaffinity>  (188) 
4.3817157745

>  <CNN_VS>  (188) 
2.8692145348

>  <CNNaffinity_variance>  (188) 
0.0889042392

$$$$
189
     RDKit          3D

 43 45  0  0  0  0  0  0  0  0999 V2000
   23.4959   70.7107   -2.4794 P   0  0  2  0  0  0  0  0  0  0  0  0
   23.9612   71.8345   -3.5462 O   0  0  0  0  0  0  0  0  0  0  0  0
   24.3861   69.5054   -2.3997 O   0  0  0  0  0  0  0  0  0  0  0  0
   21.9528   70.4199   -2.8697 O   0  0  0  0  0  0  0  0  0  0  0  0
   21.3502   71.2106   -3.8794 C   0  0  0  0  0  0  0  0  0  0  0  0
   19.2074   71.9392   -4.6864 O   0  0  0  0  0  0  0  0  0  0  0  0
   18.0497   70.6006   -2.2659 O   0  0  0  0  0  0  0  0  0  0  0  0
   17.5671   68.7813   -4.2392 O   0  0  0  0  0  0  0  0  0  0  0  0
   19.1571   70.2040   -3.0733 C   0  0  1  0  0  0  0  0  0  0  0  0
   18.6713   69.6490   -4.3960 C   0  0  2  0  0  0  0  0  0  0  0  0
   19.8953   71.4636   -3.5087 C   0  0  1  0  0  0  0  0  0  0  0  0
   18.3166   70.9149   -5.1576 C   0  0  2  0  0  0  0  0  0  0  0  0
   17.5629   69.8128   -1.9755 H   0  0  0  0  0  0  0  0  0  0  0  0
   17.8435   67.9914   -3.7490 H   0  0  0  0  0  0  0  0  0  0  0  0
   16.3512   69.8726   -6.8979 O   0  0  0  0  0  0  0  0  0  0  0  0
   19.0749   70.3901  -10.5797 O   0  0  0  0  0  0  0  0  0  0  0  0
   18.4853   70.7663   -6.5757 N   0  0  0  0  0  0  0  0  0  0  0  0
   17.7089   70.1313   -8.7298 N   0  0  0  0  0  0  0  0  0  0  0  0
   17.4367   70.2311   -7.3594 C   0  0  0  0  0  0  0  0  0  0  0  0
   19.6801   71.1497   -7.1753 C   0  0  0  0  0  0  0  0  0  0  0  0
   19.9244   71.0467   -8.4833 C   0  0  0  0  0  0  0  0  0  0  0  0
   18.8807   70.4975   -9.3728 C   0  0  0  0  0  0  0  0  0  0  0  0
   16.9930   69.7608   -9.2955 H   0  0  0  0  0  0  0  0  0  0  0  0
   23.3708   71.5469   -1.1017 O   0  0  0  0  0  0  0  0  0  0  0  0
   23.2791   71.0537    0.4349 P   0  0  2  0  0  0  0  0  0  0  0  0
   24.6199   71.6661    1.1018 O   0  0  0  0  0  0  0  0  0  0  0  0
   23.1298   69.5686    0.5966 O   0  0  0  0  0  0  0  0  0  0  0  0
   22.0752   71.9202    1.0709 O   0  0  0  0  0  0  0  0  0  0  0  0
   21.9857   74.2860    0.9644 O   0  0  0  0  0  0  0  0  0  0  0  0
   19.7217   73.6927    4.3663 O   0  0  0  0  0  0  0  0  0  0  0  0
   18.4346   74.5022    1.9299 O   0  0  0  0  0  0  0  0  0  0  0  0
   22.0486   72.0425    3.8744 O   0  0  0  0  0  0  0  0  0  0  0  0
   20.2194   73.3824    3.0620 C   0  0  1  0  0  0  0  0  0  0  0  0
   19.8464   74.5296    2.1209 C   0  0  1  0  0  0  0  0  0  0  0  0
   21.7363   73.2168    3.1329 C   0  0  2  0  0  0  0  0  0  0  0  0
   20.5705   74.3992    0.7742 C   0  0  1  0  0  0  0  0  0  0  0  0
   22.3625   73.1459    1.7390 C   0  0  1  0  0  0  0  0  0  0  0  0
   18.7590   73.7986    4.3284 H   0  0  0  0  0  0  0  0  0  0  0  0
   17.9894   74.5849    2.7878 H   0  0  0  0  0  0  0  0  0  0  0  0
   21.6468   72.0998    4.7548 H   0  0  0  0  0  0  0  0  0  0  0  0
   19.9419   76.7030    0.6933 O   0  0  0  0  0  0  0  0  0  0  0  0
   20.3365   75.6141   -0.1210 C   0  0  0  0  0  0  0  0  0  0  0  0
   19.7898   77.4834    0.1370 H   0  0  0  0  0  0  0  0  0  0  0  0
 25 28  1  0
 25 24  1  0
 25 26  1  1
 25 27  2  0
  1  4  1  0
  1 24  1  0
  1  2  1  6
  1  3  2  0
  6 11  1  0
  6 12  1  0
 29 36  1  0
 29 37  1  0
  9  7  1  1
  7 13  1  0
 10  8  1  1
  8 14  1  0
 37 28  1  6
  4  5  1  0
 33 30  1  1
 30 38  1  0
 34 31  1  6
 31 39  1  0
 35 32  1  1
 32 40  1  0
 41 42  1  0
 41 43  1  0
 15 19  2  0
 16 22  2  0
 12 17  1  6
 17 19  1  0
 17 20  1  0
 18 19  1  0
 18 22  1  0
 18 23  1  0
  9 10  1  0
  9 11  1  0
 10 12  1  0
 11  5  1  6
 33 34  1  0
 33 35  1  0
 34 36  1  0
 35 37  1  0
 36 42  1  6
 20 21  2  0
 21 22  1  0
M  CHG  2   2  -1  26  -1
M  END
>  <COMPND>  (189) 
    8629 

>  <AUTHOR>  (189) 
    GENERATED BY OPEN BABEL 3.1.1

>  <MASTER>  (189) 
        0    0    0    0    0    0    0    0   58    0   58    0

>  <minimizedAffinity>  (189) 
-6.89747

>  <CNNscore>  (189) 
0.6490172148

>  <CNNaffinity>  (189) 
4.4051642418

>  <CNN_VS>  (189) 
2.8590273857

>  <CNNaffinity_variance>  (189) 
0.0440780483

$$$$
190
     RDKit          3D

 43 45  0  0  0  0  0  0  0  0999 V2000
   21.2461   72.5501   -5.3342 P   0  0  2  0  0  0  0  0  0  0  0  0
   20.2896   71.8572   -4.2287 O   0  0  0  0  0  0  0  0  0  0  0  0
   20.9506   73.9948   -5.6119 O   0  0  0  0  0  0  0  0  0  0  0  0
   21.1515   71.5562   -6.6075 O   0  0  0  0  0  0  0  0  0  0  0  0
   20.2737   71.8961   -7.6667 C   0  0  0  0  0  0  0  0  0  0  0  0
   18.9748   70.0012   -6.9626 O   0  0  0  0  0  0  0  0  0  0  0  0
   18.1172   69.7616   -9.8259 O   0  0  0  0  0  0  0  0  0  0  0  0
   15.9716   70.9779   -8.6625 O   0  0  0  0  0  0  0  0  0  0  0  0
   18.3706   70.9351   -9.0551 C   0  0  1  0  0  0  0  0  0  0  0  0
   17.2415   71.1741   -8.0746 C   0  0  2  0  0  0  0  0  0  0  0  0
   19.5421   70.6424   -8.1260 C   0  0  1  0  0  0  0  0  0  0  0  0
   17.5465   70.1564   -6.9886 C   0  0  2  0  0  0  0  0  0  0  0  0
   17.3731   69.9244  -10.4272 H   0  0  0  0  0  0  0  0  0  0  0  0
   15.8246   71.6496   -9.3466 H   0  0  0  0  0  0  0  0  0  0  0  0
   16.6202   68.4215   -4.9613 O   0  0  0  0  0  0  0  0  0  0  0  0
   15.8600   71.9207   -2.0599 O   0  0  0  0  0  0  0  0  0  0  0  0
   17.1007   70.5871   -5.6935 N   0  0  0  0  0  0  0  0  0  0  0  0
   16.2426   70.1652   -3.5182 N   0  0  0  0  0  0  0  0  0  0  0  0
   16.6539   69.6351   -4.7478 C   0  0  0  0  0  0  0  0  0  0  0  0
   17.1096   71.9401   -5.3722 C   0  0  0  0  0  0  0  0  0  0  0  0
   16.7129   72.4295   -4.1956 C   0  0  0  0  0  0  0  0  0  0  0  0
   16.2316   71.5017   -3.1517 C   0  0  0  0  0  0  0  0  0  0  0  0
   15.9269   69.5207   -2.8439 H   0  0  0  0  0  0  0  0  0  0  0  0
   22.7303   72.2652   -4.7605 O   0  0  0  0  0  0  0  0  0  0  0  0
   23.6161   73.0598   -3.6665 P   0  0  2  0  0  0  0  0  0  0  0  0
   22.5796   74.1499   -3.0708 O   0  0  0  0  0  0  0  0  0  0  0  0
   24.8861   73.6462   -4.2115 O   0  0  0  0  0  0  0  0  0  0  0  0
   23.8290   72.0015   -2.4666 O   0  0  0  0  0  0  0  0  0  0  0  0
   24.1411   69.6525   -2.5056 O   0  0  0  0  0  0  0  0  0  0  0  0
   21.7888   69.9497    0.8752 O   0  0  0  0  0  0  0  0  0  0  0  0
   24.5831   69.3416    1.1409 O   0  0  0  0  0  0  0  0  0  0  0  0
   21.2540   71.6449   -1.4095 O   0  0  0  0  0  0  0  0  0  0  0  0
   22.7873   70.3700   -0.0585 C   0  0  1  0  0  0  0  0  0  0  0  0
   23.8840   69.3041   -0.1002 C   0  0  1  0  0  0  0  0  0  0  0  0
   22.1457   70.5354   -1.4348 C   0  0  2  0  0  0  0  0  0  0  0  0
   24.8513   69.5498   -1.2660 C   0  0  1  0  0  0  0  0  0  0  0  0
   23.1975   70.7254   -2.5292 C   0  0  1  0  0  0  0  0  0  0  0  0
   22.1896   69.8433    1.7513 H   0  0  0  0  0  0  0  0  0  0  0  0
   23.9609   69.1856    1.8687 H   0  0  0  0  0  0  0  0  0  0  0  0
   20.5930   71.5124   -0.7129 H   0  0  0  0  0  0  0  0  0  0  0  0
   26.5561   68.5948   -2.6410 O   0  0  0  0  0  0  0  0  0  0  0  0
   25.8591   68.4131   -1.4222 C   0  0  0  0  0  0  0  0  0  0  0  0
   27.2013   67.8788   -2.7537 H   0  0  0  0  0  0  0  0  0  0  0  0
 25 28  1  0
 25 24  1  0
 25 26  1  1
 25 27  2  0
  1  4  1  0
  1 24  1  0
  1  2  1  1
  1  3  2  0
  6 11  1  0
  6 12  1  0
 29 36  1  0
 29 37  1  0
  9  7  1  6
  7 13  1  0
 10  8  1  6
  8 14  1  0
 37 28  1  1
  4  5  1  0
 33 30  1  1
 30 38  1  0
 34 31  1  1
 31 39  1  0
 35 32  1  1
 32 40  1  0
 41 42  1  0
 41 43  1  0
 15 19  2  0
 16 22  2  0
 12 17  1  1
 17 19  1  0
 17 20  1  0
 18 19  1  0
 18 22  1  0
 18 23  1  0
  9 10  1  0
  9 11  1  0
 10 12  1  0
 11  5  1  1
 33 34  1  0
 33 35  1  0
 34 36  1  0
 35 37  1  0
 36 42  1  6
 20 21  2  0
 21 22  1  0
M  CHG  2   2  -1  26  -1
M  END
>  <COMPND>  (190) 
    8629 

>  <AUTHOR>  (190) 
    GENERATED BY OPEN BABEL 3.1.1

>  <MASTER>  (190) 
        0    0    0    0    0    0    0    0   58    0   58    0

>  <minimizedAffinity>  (190) 
-8.56649

>  <CNNscore>  (190) 
0.6452189088

>  <CNNaffinity>  (190) 
4.3881812096

>  <CNN_VS>  (190) 
2.8313374519

>  <CNNaffinity_variance>  (190) 
0.5333089232

$$$$
191
     RDKit          3D

 43 45  0  0  0  0  0  0  0  0999 V2000
   16.1677   72.4132   -1.7642 P   0  0  2  0  0  0  0  0  0  0  0  0
   17.5625   72.7267   -1.0070 O   0  0  0  0  0  0  0  0  0  0  0  0
   15.3074   73.6133   -2.0305 O   0  0  0  0  0  0  0  0  0  0  0  0
   15.4915   71.2492   -0.8665 O   0  0  0  0  0  0  0  0  0  0  0  0
   14.1824   71.4563   -0.3654 C   0  0  0  0  0  0  0  0  0  0  0  0
   13.1428   69.5014   -1.2988 O   0  0  0  0  0  0  0  0  0  0  0  0
   11.0253   71.3527   -2.3378 O   0  0  0  0  0  0  0  0  0  0  0  0
    9.8377   70.2673   -0.1360 O   0  0  0  0  0  0  0  0  0  0  0  0
   11.7501   71.4094   -1.1103 C   0  0  1  0  0  0  0  0  0  0  0  0
   11.2483   70.3479   -0.1538 C   0  0  2  0  0  0  0  0  0  0  0  0
   13.1744   70.9429   -1.3845 C   0  0  1  0  0  0  0  0  0  0  0  0
   11.8987   69.0916   -0.7079 C   0  0  2  0  0  0  0  0  0  0  0  0
   10.1125   71.6464   -2.1880 H   0  0  0  0  0  0  0  0  0  0  0  0
    9.4712   71.0897    0.2246 H   0  0  0  0  0  0  0  0  0  0  0  0
   10.0495   67.1399    0.1578 O   0  0  0  0  0  0  0  0  0  0  0  0
   13.0315   65.4065    3.2146 O   0  0  0  0  0  0  0  0  0  0  0  0
   12.1656   68.1174    0.3124 N   0  0  0  0  0  0  0  0  0  0  0  0
   11.5359   66.2783    1.6790 N   0  0  0  0  0  0  0  0  0  0  0  0
   11.1683   67.1820    0.6739 C   0  0  0  0  0  0  0  0  0  0  0  0
   13.4050   68.0959    0.9427 C   0  0  0  0  0  0  0  0  0  0  0  0
   13.7394   67.2284    1.9004 C   0  0  0  0  0  0  0  0  0  0  0  0
   12.7544   66.2177    2.3365 C   0  0  0  0  0  0  0  0  0  0  0  0
   10.8569   65.6175    1.9475 H   0  0  0  0  0  0  0  0  0  0  0  0
   16.6440   71.6195   -3.0894 O   0  0  0  0  0  0  0  0  0  0  0  0
   17.2218   70.1219   -3.2796 P   0  0  2  0  0  0  0  0  0  0  0  0
   15.8838   69.2198   -3.3957 O   0  0  0  0  0  0  0  0  0  0  0  0
   18.1704   69.6866   -2.2005 O   0  0  0  0  0  0  0  0  0  0  0  0
   17.8501   70.1122   -4.7663 O   0  0  0  0  0  0  0  0  0  0  0  0
   19.1721   71.4427   -6.2150 O   0  0  0  0  0  0  0  0  0  0  0  0
   15.8456   70.9607   -8.6136 O   0  0  0  0  0  0  0  0  0  0  0  0
   18.2728   69.5676   -9.2588 O   0  0  0  0  0  0  0  0  0  0  0  0
   15.5270   71.3326   -5.7606 O   0  0  0  0  0  0  0  0  0  0  0  0
   16.8202   70.5682   -7.6433 C   0  0  1  0  0  0  0  0  0  0  0  0
   18.2004   70.6206   -8.3016 C   0  0  1  0  0  0  0  0  0  0  0  0
   16.7548   71.5254   -6.4547 C   0  0  2  0  0  0  0  0  0  0  0  0
   19.3171   70.4731   -7.2594 C   0  0  1  0  0  0  0  0  0  0  0  0
   17.9375   71.3281   -5.5048 C   0  0  1  0  0  0  0  0  0  0  0  0
   15.8816   70.3566   -9.3708 H   0  0  0  0  0  0  0  0  0  0  0  0
   17.5620   69.6722   -9.9107 H   0  0  0  0  0  0  0  0  0  0  0  0
   14.7861   71.4605   -6.3727 H   0  0  0  0  0  0  0  0  0  0  0  0
   20.8157   72.0312   -8.2769 O   0  0  0  0  0  0  0  0  0  0  0  0
   20.7011   70.6798   -7.8709 C   0  0  0  0  0  0  0  0  0  0  0  0
   21.6917   72.1776   -8.6678 H   0  0  0  0  0  0  0  0  0  0  0  0
 25 28  1  0
 25 24  1  0
 25 26  1  6
 25 27  2  0
  1  4  1  0
  1 24  1  0
  1  2  1  1
  1  3  2  0
  6 11  1  0
  6 12  1  0
 29 36  1  0
 29 37  1  0
  9  7  1  6
  7 13  1  0
 10  8  1  6
  8 14  1  0
 37 28  1  6
  4  5  1  0
 33 30  1  6
 30 38  1  0
 34 31  1  6
 31 39  1  0
 35 32  1  1
 32 40  1  0
 41 42  1  0
 41 43  1  0
 15 19  2  0
 16 22  2  0
 12 17  1  1
 17 19  1  0
 17 20  1  0
 18 19  1  0
 18 22  1  0
 18 23  1  0
  9 10  1  0
  9 11  1  0
 10 12  1  0
 11  5  1  1
 33 34  1  0
 33 35  1  0
 34 36  1  0
 35 37  1  0
 36 42  1  6
 20 21  2  0
 21 22  1  0
M  CHG  2   2  -1  26  -1
M  END
>  <COMPND>  (191) 
    8629 

>  <AUTHOR>  (191) 
    GENERATED BY OPEN BABEL 3.1.1

>  <MASTER>  (191) 
        0    0    0    0    0    0    0    0   58    0   58    0

>  <minimizedAffinity>  (191) 
-6.88292

>  <CNNscore>  (191) 
0.6339372396

>  <CNNaffinity>  (191) 
4.1149163246

>  <CNN_VS>  (191) 
2.6085987091

>  <CNNaffinity_variance>  (191) 
0.3170095682

$$$$
192
     RDKit          3D

 43 45  0  0  0  0  0  0  0  0999 V2000
   22.4831   72.1579   -1.9764 P   0  0  2  0  0  0  0  0  0  0  0  0
   21.7049   73.5723   -2.0825 O   0  0  0  0  0  0  0  0  0  0  0  0
   23.8754   72.1571   -2.5359 O   0  0  0  0  0  0  0  0  0  0  0  0
   21.4573   71.0992   -2.6434 O   0  0  0  0  0  0  0  0  0  0  0  0
   20.7610   71.4801   -3.8172 C   0  0  0  0  0  0  0  0  0  0  0  0
   20.9565   70.5107   -6.0072 O   0  0  0  0  0  0  0  0  0  0  0  0
   23.2684   72.3746   -6.4214 O   0  0  0  0  0  0  0  0  0  0  0  0
   21.2465   73.6307   -7.7520 O   0  0  0  0  0  0  0  0  0  0  0  0
   22.0522   72.5904   -5.7075 C   0  0  1  0  0  0  0  0  0  0  0  0
   20.9025   72.7843   -6.6740 C   0  0  2  0  0  0  0  0  0  0  0  0
   21.6734   71.2844   -5.0204 C   0  0  1  0  0  0  0  0  0  0  0  0
   20.6197   71.3589   -7.1172 C   0  0  2  0  0  0  0  0  0  0  0  0
   23.5307   73.1952   -6.8684 H   0  0  0  0  0  0  0  0  0  0  0  0
   21.4169   74.5256   -7.4189 H   0  0  0  0  0  0  0  0  0  0  0  0
   19.7211   69.6483   -9.1773 O   0  0  0  0  0  0  0  0  0  0  0  0
   15.3029   70.6556   -8.3367 O   0  0  0  0  0  0  0  0  0  0  0  0
   19.2400   71.1549   -7.4581 N   0  0  0  0  0  0  0  0  0  0  0  0
   17.5219   70.1511   -8.7569 N   0  0  0  0  0  0  0  0  0  0  0  0
   18.8952   70.2750   -8.5104 C   0  0  0  0  0  0  0  0  0  0  0  0
   18.2456   71.8231   -6.7520 C   0  0  0  0  0  0  0  0  0  0  0  0
   16.9405   71.6949   -7.0003 C   0  0  0  0  0  0  0  0  0  0  0  0
   16.4956   70.7948   -8.0838 C   0  0  0  0  0  0  0  0  0  0  0  0
   17.2580   69.5438   -9.4859 H   0  0  0  0  0  0  0  0  0  0  0  0
   22.3911   71.8096   -0.4006 O   0  0  0  0  0  0  0  0  0  0  0  0
   22.9741   70.5626    0.4468 P   0  0  2  0  0  0  0  0  0  0  0  0
   21.6434   69.8759    1.0595 O   0  0  0  0  0  0  0  0  0  0  0  0
   24.0030   70.9426    1.4719 O   0  0  0  0  0  0  0  0  0  0  0  0
   23.4949   69.5187   -0.6685 O   0  0  0  0  0  0  0  0  0  0  0  0
   24.7652   67.7871    0.3338 O   0  0  0  0  0  0  0  0  0  0  0  0
   25.4730   66.9099   -3.6387 O   0  0  0  0  0  0  0  0  0  0  0  0
   23.7443   65.2113   -2.0977 O   0  0  0  0  0  0  0  0  0  0  0  0
   25.3502   69.6681   -2.7687 O   0  0  0  0  0  0  0  0  0  0  0  0
   24.7030   67.3613   -2.5212 C   0  0  1  0  0  0  0  0  0  0  0  0
   24.5850   66.2079   -1.5229 C   0  0  1  0  0  0  0  0  0  0  0  0
   25.4061   68.5567   -1.8808 C   0  0  2  0  0  0  0  0  0  0  0  0
   24.0056   66.6895   -0.1860 C   0  0  1  0  0  0  0  0  0  0  0  0
   24.7826   68.9231   -0.5328 C   0  0  1  0  0  0  0  0  0  0  0  0
   25.0318   66.1513   -4.0501 H   0  0  0  0  0  0  0  0  0  0  0  0
   24.1212   64.9162   -2.9416 H   0  0  0  0  0  0  0  0  0  0  0  0
   25.7482   69.4235   -3.6181 H   0  0  0  0  0  0  0  0  0  0  0  0
   24.7111   66.0787    2.0136 O   0  0  0  0  0  0  0  0  0  0  0  0
   24.0256   65.5912    0.8749 C   0  0  0  0  0  0  0  0  0  0  0  0
   24.7314   65.3903    2.6973 H   0  0  0  0  0  0  0  0  0  0  0  0
 25 28  1  0
 25 24  1  0
 25 26  1  1
 25 27  2  0
  1  4  1  0
  1 24  1  0
  1  2  1  1
  1  3  2  0
  6 11  1  0
  6 12  1  0
 29 36  1  0
 29 37  1  0
  9  7  1  6
  7 13  1  0
 10  8  1  6
  8 14  1  0
 37 28  1  6
  4  5  1  0
 33 30  1  6
 30 38  1  0
 34 31  1  6
 31 39  1  0
 35 32  1  6
 32 40  1  0
 41 42  1  0
 41 43  1  0
 15 19  2  0
 16 22  2  0
 12 17  1  1
 17 19  1  0
 17 20  1  0
 18 19  1  0
 18 22  1  0
 18 23  1  0
  9 10  1  0
  9 11  1  0
 10 12  1  0
 11  5  1  1
 33 34  1  0
 33 35  1  0
 34 36  1  0
 35 37  1  0
 36 42  1  1
 20 21  2  0
 21 22  1  0
M  CHG  2   2  -1  26  -1
M  END
>  <COMPND>  (192) 
    8629 

>  <AUTHOR>  (192) 
    GENERATED BY OPEN BABEL 3.1.1

>  <MASTER>  (192) 
        0    0    0    0    0    0    0    0   58    0   58    0

>  <minimizedAffinity>  (192) 
-8.93014

>  <CNNscore>  (192) 
0.6202895045

>  <CNNaffinity>  (192) 
4.6635546684

>  <CNN_VS>  (192) 
2.8927540779

>  <CNNaffinity_variance>  (192) 
0.0772693232

$$$$
193
     RDKit          3D

 43 45  0  0  0  0  0  0  0  0999 V2000
   20.8056   73.2001   -1.3988 P   0  0  2  0  0  0  0  0  0  0  0  0
   19.2421   73.4251   -1.7487 O   0  0  0  0  0  0  0  0  0  0  0  0
   21.4970   74.3868   -0.7946 O   0  0  0  0  0  0  0  0  0  0  0  0
   21.4375   72.6478   -2.7821 O   0  0  0  0  0  0  0  0  0  0  0  0
   20.5623   72.1099   -3.7581 C   0  0  0  0  0  0  0  0  0  0  0  0
   20.4694   71.1167   -5.9441 O   0  0  0  0  0  0  0  0  0  0  0  0
   23.2072   72.2609   -6.3754 O   0  0  0  0  0  0  0  0  0  0  0  0
   21.6091   74.0260   -7.7047 O   0  0  0  0  0  0  0  0  0  0  0  0
   22.1027   72.8097   -5.6582 C   0  0  1  0  0  0  0  0  0  0  0  0
   21.0480   73.3128   -6.6215 C   0  0  2  0  0  0  0  0  0  0  0  0
   21.3782   71.6635   -4.9635 C   0  0  1  0  0  0  0  0  0  0  0  0
   20.3770   72.0212   -7.0569 C   0  0  2  0  0  0  0  0  0  0  0  0
   23.6857   72.9742   -6.8272 H   0  0  0  0  0  0  0  0  0  0  0  0
   22.0237   74.8391   -7.3766 H   0  0  0  0  0  0  0  0  0  0  0  0
   18.9828   70.5028   -8.9878 O   0  0  0  0  0  0  0  0  0  0  0  0
   15.0715   72.8294   -8.2601 O   0  0  0  0  0  0  0  0  0  0  0  0
   18.9935   72.2086   -7.3918 N   0  0  0  0  0  0  0  0  0  0  0  0
   17.0364   71.6624   -8.6238 N   0  0  0  0  0  0  0  0  0  0  0  0
   18.3887   71.3935   -8.3769 C   0  0  0  0  0  0  0  0  0  0  0  0
   18.2512   73.1914   -6.7462 C   0  0  0  0  0  0  0  0  0  0  0  0
   16.9628   73.4360   -6.9941 C   0  0  0  0  0  0  0  0  0  0  0  0
   16.2559   72.6288   -8.0094 C   0  0  0  0  0  0  0  0  0  0  0  0
   16.5941   71.1072   -9.3064 H   0  0  0  0  0  0  0  0  0  0  0  0
   20.7821   71.8848   -0.4594 O   0  0  0  0  0  0  0  0  0  0  0  0
   21.9176   71.2411    0.4942 P   0  0  2  0  0  0  0  0  0  0  0  0
   23.2723   71.4139   -0.3732 O   0  0  0  0  0  0  0  0  0  0  0  0
   21.6331   69.8310    0.9241 O   0  0  0  0  0  0  0  0  0  0  0  0
   22.0746   72.2920    1.7091 O   0  0  0  0  0  0  0  0  0  0  0  0
   23.9882   71.5152    2.8716 O   0  0  0  0  0  0  0  0  0  0  0  0
   23.1801   74.8892    5.1109 O   0  0  0  0  0  0  0  0  0  0  0  0
   25.4430   74.8694    3.3426 O   0  0  0  0  0  0  0  0  0  0  0  0
   21.0032   73.2619    4.1146 O   0  0  0  0  0  0  0  0  0  0  0  0
   23.2515   74.1033    3.9182 C   0  0  1  0  0  0  0  0  0  0  0  0
   24.7105   73.6996    3.6965 C   0  0  1  0  0  0  0  0  0  0  0  0
   22.3703   72.8663    4.0819 C   0  0  2  0  0  0  0  0  0  0  0  0
   24.8305   72.6398    2.5931 C   0  0  1  0  0  0  0  0  0  0  0  0
   22.6028   71.8545    2.9584 C   0  0  1  0  0  0  0  0  0  0  0  0
   23.7371   75.6764    5.0133 H   0  0  0  0  0  0  0  0  0  0  0  0
   25.3586   75.5308    4.0474 H   0  0  0  0  0  0  0  0  0  0  0  0
   20.8690   73.9021    4.8301 H   0  0  0  0  0  0  0  0  0  0  0  0
   27.0507   72.7011    3.4741 O   0  0  0  0  0  0  0  0  0  0  0  0
   26.2562   72.1080    2.4636 C   0  0  0  0  0  0  0  0  0  0  0  0
   27.9608   72.3716    3.4042 H   0  0  0  0  0  0  0  0  0  0  0  0
 25 28  1  0
 25 24  1  0
 25 26  1  6
 25 27  2  0
  1  4  1  0
  1 24  1  0
  1  2  1  6
  1  3  2  0
  6 11  1  0
  6 12  1  0
 29 36  1  0
 29 37  1  0
  9  7  1  6
  7 13  1  0
 10  8  1  6
  8 14  1  0
 37 28  1  6
  4  5  1  0
 33 30  1  1
 30 38  1  0
 34 31  1  6
 31 39  1  0
 35 32  1  6
 32 40  1  0
 41 42  1  0
 41 43  1  0
 15 19  2  0
 16 22  2  0
 12 17  1  1
 17 19  1  0
 17 20  1  0
 18 19  1  0
 18 22  1  0
 18 23  1  0
  9 10  1  0
  9 11  1  0
 10 12  1  0
 11  5  1  1
 33 34  1  0
 33 35  1  0
 34 36  1  0
 35 37  1  0
 36 42  1  1
 20 21  2  0
 21 22  1  0
M  CHG  2   2  -1  26  -1
M  END
>  <COMPND>  (193) 
    8629 

>  <AUTHOR>  (193) 
    GENERATED BY OPEN BABEL 3.1.1

>  <MASTER>  (193) 
        0    0    0    0    0    0    0    0   58    0   58    0

>  <minimizedAffinity>  (193) 
-6.33613

>  <CNNscore>  (193) 
0.5951752067

>  <CNNaffinity>  (193) 
4.1696348190

>  <CNN_VS>  (193) 
2.4816632271

>  <CNNaffinity_variance>  (193) 
0.0780279487

$$$$
194
     RDKit          3D

 43 45  0  0  0  0  0  0  0  0999 V2000
   23.3080   70.5603    0.7464 P   0  0  2  0  0  0  0  0  0  0  0  0
   21.8288   69.9126    0.8456 O   0  0  0  0  0  0  0  0  0  0  0  0
   24.4336   69.6220    1.0687 O   0  0  0  0  0  0  0  0  0  0  0  0
   23.2136   71.8871    1.6676 O   0  0  0  0  0  0  0  0  0  0  0  0
   23.2527   73.1541    1.0342 C   0  0  0  0  0  0  0  0  0  0  0  0
   24.2112   73.7662    3.1509 O   0  0  0  0  0  0  0  0  0  0  0  0
   23.5194   76.5944    2.4347 O   0  0  0  0  0  0  0  0  0  0  0  0
   26.1860   76.4752    1.8764 O   0  0  0  0  0  0  0  0  0  0  0  0
   23.9629   75.5328    1.5911 C   0  0  1  0  0  0  0  0  0  0  0  0
   25.4408   75.2769    1.8010 C   0  0  2  0  0  0  0  0  0  0  0  0
   23.3406   74.2383    2.0995 C   0  0  1  0  0  0  0  0  0  0  0  0
   25.4440   74.5031    3.1084 C   0  0  2  0  0  0  0  0  0  0  0  0
   23.9036   77.4318    2.1295 H   0  0  0  0  0  0  0  0  0  0  0  0
   26.1534   76.9308    1.0208 H   0  0  0  0  0  0  0  0  0  0  0  0
   27.9593   75.1203    4.2354 O   0  0  0  0  0  0  0  0  0  0  0  0
   29.5803   70.8893    3.3918 O   0  0  0  0  0  0  0  0  0  0  0  0
   26.5415   73.5816    3.1967 N   0  0  0  0  0  0  0  0  0  0  0  0
   28.7644   73.0130    3.8146 N   0  0  0  0  0  0  0  0  0  0  0  0
   27.7628   73.9917    3.7802 C   0  0  0  0  0  0  0  0  0  0  0  0
   26.4005   72.2872    2.7082 C   0  0  0  0  0  0  0  0  0  0  0  0
   27.3657   71.3663    2.7474 C   0  0  0  0  0  0  0  0  0  0  0  0
   28.6729   71.7138    3.3411 C   0  0  0  0  0  0  0  0  0  0  0  0
   29.6241   73.2762    4.2164 H   0  0  0  0  0  0  0  0  0  0  0  0
   23.3417   71.1612   -0.7539 O   0  0  0  0  0  0  0  0  0  0  0  0
   23.4520   70.4265   -2.1895 P   0  0  2  0  0  0  0  0  0  0  0  0
   23.9203   68.9267   -1.8037 O   0  0  0  0  0  0  0  0  0  0  0  0
   24.3507   71.1230   -3.1698 O   0  0  0  0  0  0  0  0  0  0  0  0
   21.9240   70.2622   -2.6827 O   0  0  0  0  0  0  0  0  0  0  0  0
   20.8762   71.4526   -4.4438 O   0  0  0  0  0  0  0  0  0  0  0  0
   17.5950   70.8516   -2.0099 O   0  0  0  0  0  0  0  0  0  0  0  0
   17.8362   69.3675   -4.4568 O   0  0  0  0  0  0  0  0  0  0  0  0
   20.1735   71.4467   -0.8366 O   0  0  0  0  0  0  0  0  0  0  0  0
   18.8455   70.5161   -2.6175 C   0  0  1  0  0  0  0  0  0  0  0  0
   18.6502   70.4918   -4.1348 C   0  0  1  0  0  0  0  0  0  0  0  0
   19.8872   71.5626   -2.2262 C   0  0  2  0  0  0  0  0  0  0  0  0
   19.9969   70.4033   -4.8653 C   0  0  1  0  0  0  0  0  0  0  0  0
   21.1705   71.4161   -3.0460 C   0  0  1  0  0  0  0  0  0  0  0  0
   16.9292   70.1908   -2.2540 H   0  0  0  0  0  0  0  0  0  0  0  0
   16.9892   69.4354   -3.9887 H   0  0  0  0  0  0  0  0  0  0  0  0
   19.3533   71.5415   -0.3286 H   0  0  0  0  0  0  0  0  0  0  0  0
   18.6962   71.3330   -6.6410 O   0  0  0  0  0  0  0  0  0  0  0  0
   19.8367   70.5363   -6.3782 C   0  0  0  0  0  0  0  0  0  0  0  0
   18.5820   71.4265   -7.6001 H   0  0  0  0  0  0  0  0  0  0  0  0
 25 28  1  0
 25 24  1  0
 25 26  1  1
 25 27  2  0
  1  4  1  0
  1 24  1  0
  1  2  1  6
  1  3  2  0
  6 11  1  0
  6 12  1  0
 29 36  1  0
 29 37  1  0
  9  7  1  1
  7 13  1  0
 10  8  1  1
  8 14  1  0
 37 28  1  6
  4  5  1  0
 33 30  1  1
 30 38  1  0
 34 31  1  1
 31 39  1  0
 35 32  1  1
 32 40  1  0
 41 42  1  0
 41 43  1  0
 15 19  2  0
 16 22  2  0
 12 17  1  6
 17 19  1  0
 17 20  1  0
 18 19  1  0
 18 22  1  0
 18 23  1  0
  9 10  1  0
  9 11  1  0
 10 12  1  0
 11  5  1  6
 33 34  1  0
 33 35  1  0
 34 36  1  0
 35 37  1  0
 36 42  1  6
 20 21  2  0
 21 22  1  0
M  CHG  2   2  -1  26  -1
M  END
>  <COMPND>  (194) 
    8629 

>  <AUTHOR>  (194) 
    GENERATED BY OPEN BABEL 3.1.1

>  <MASTER>  (194) 
        0    0    0    0    0    0    0    0   58    0   58    0

>  <minimizedAffinity>  (194) 
-5.97879

>  <CNNscore>  (194) 
0.5372195244

>  <CNNaffinity>  (194) 
4.0831336975

>  <CNN_VS>  (194) 
2.1935391426

>  <CNNaffinity_variance>  (194) 
0.0186553653

$$$$
195
     RDKit          3D

 43 45  0  0  0  0  0  0  0  0999 V2000
   22.8409   72.3706   -3.5686 P   0  0  2  0  0  0  0  0  0  0  0  0
   22.2831   70.8520   -3.5570 O   0  0  0  0  0  0  0  0  0  0  0  0
   24.2577   72.5218   -4.0392 O   0  0  0  0  0  0  0  0  0  0  0  0
   22.5361   72.9079   -2.0732 O   0  0  0  0  0  0  0  0  0  0  0  0
   23.4432   72.5744   -1.0370 C   0  0  0  0  0  0  0  0  0  0  0  0
   22.7016   70.3496   -0.5135 O   0  0  0  0  0  0  0  0  0  0  0  0
   22.4856   71.2909    2.3252 O   0  0  0  0  0  0  0  0  0  0  0  0
   24.8437   69.9214    2.3310 O   0  0  0  0  0  0  0  0  0  0  0  0
   23.4458   71.6401    1.3295 C   0  0  1  0  0  0  0  0  0  0  0  0
   24.4181   70.4993    1.1137 C   0  0  2  0  0  0  0  0  0  0  0  0
   22.7277   71.7042   -0.0128 C   0  0  1  0  0  0  0  0  0  0  0  0
   23.5972   69.5414    0.2673 C   0  0  2  0  0  0  0  0  0  0  0  0
   22.9207   71.2442    3.1915 H   0  0  0  0  0  0  0  0  0  0  0  0
   25.3617   70.5697    2.8332 H   0  0  0  0  0  0  0  0  0  0  0  0
   24.2496   66.8247    0.6820 O   0  0  0  0  0  0  0  0  0  0  0  0
   26.7290   66.6382   -3.1986 O   0  0  0  0  0  0  0  0  0  0  0  0
   24.4112   68.7582   -0.6190 N   0  0  0  0  0  0  0  0  0  0  0  0
   25.4835   66.7340   -1.2507 N   0  0  0  0  0  0  0  0  0  0  0  0
   24.6798   67.4025   -0.3184 C   0  0  0  0  0  0  0  0  0  0  0  0
   24.9335   69.3350   -1.7715 C   0  0  0  0  0  0  0  0  0  0  0  0
   25.6993   68.6842   -2.6497 C   0  0  0  0  0  0  0  0  0  0  0  0
   26.0274   67.2640   -2.4100 C   0  0  0  0  0  0  0  0  0  0  0  0
   25.6842   65.7885   -1.0619 H   0  0  0  0  0  0  0  0  0  0  0  0
   21.7470   73.1528   -4.4657 O   0  0  0  0  0  0  0  0  0  0  0  0
   21.6319   73.3503   -6.0659 P   0  0  2  0  0  0  0  0  0  0  0  0
   22.7671   72.3538   -6.6454 O   0  0  0  0  0  0  0  0  0  0  0  0
   21.7669   74.7744   -6.5215 O   0  0  0  0  0  0  0  0  0  0  0  0
   20.2332   72.6503   -6.4643 O   0  0  0  0  0  0  0  0  0  0  0  0
   19.1542   70.5939   -5.9911 O   0  0  0  0  0  0  0  0  0  0  0  0
   18.5608   70.7260  -10.0754 O   0  0  0  0  0  0  0  0  0  0  0  0
   16.3457   71.1820   -8.3052 O   0  0  0  0  0  0  0  0  0  0  0  0
   21.0639   71.6460   -8.9495 O   0  0  0  0  0  0  0  0  0  0  0  0
   18.6923   71.2708   -8.7596 C   0  0  1  0  0  0  0  0  0  0  0  0
   17.6011   70.6615   -7.8771 C   0  0  1  0  0  0  0  0  0  0  0  0
   20.0777   70.9295   -8.2142 C   0  0  2  0  0  0  0  0  0  0  0  0
   17.8386   70.9893   -6.3968 C   0  0  1  0  0  0  0  0  0  0  0  0
   20.1921   71.2493   -6.7227 C   0  0  1  0  0  0  0  0  0  0  0  0
   17.6834   70.9396  -10.4276 H   0  0  0  0  0  0  0  0  0  0  0  0
   16.2082   70.9686   -9.2416 H   0  0  0  0  0  0  0  0  0  0  0  0
   20.9812   71.4347   -9.8921 H   0  0  0  0  0  0  0  0  0  0  0  0
   16.2529   69.2108   -6.2190 O   0  0  0  0  0  0  0  0  0  0  0  0
   16.8531   70.2619   -5.4847 C   0  0  0  0  0  0  0  0  0  0  0  0
   15.6234   68.7388   -5.6510 H   0  0  0  0  0  0  0  0  0  0  0  0
 25 28  1  0
 25 24  1  0
 25 26  1  6
 25 27  2  0
  1  4  1  0
  1 24  1  0
  1  2  1  1
  1  3  2  0
  6 11  1  0
  6 12  1  0
 29 36  1  0
 29 37  1  0
  9  7  1  1
  7 13  1  0
 10  8  1  1
  8 14  1  0
 37 28  1  6
  4  5  1  0
 33 30  1  6
 30 38  1  0
 34 31  1  6
 31 39  1  0
 35 32  1  6
 32 40  1  0
 41 42  1  0
 41 43  1  0
 15 19  2  0
 16 22  2  0
 12 17  1  6
 17 19  1  0
 17 20  1  0
 18 19  1  0
 18 22  1  0
 18 23  1  0
  9 10  1  0
  9 11  1  0
 10 12  1  0
 11  5  1  6
 33 34  1  0
 33 35  1  0
 34 36  1  0
 35 37  1  0
 36 42  1  1
 20 21  2  0
 21 22  1  0
M  CHG  2   2  -1  26  -1
M  END
>  <COMPND>  (195) 
    8629 

>  <AUTHOR>  (195) 
    GENERATED BY OPEN BABEL 3.1.1

>  <MASTER>  (195) 
        0    0    0    0    0    0    0    0   58    0   58    0

>  <minimizedAffinity>  (195) 
-8.94133

>  <CNNscore>  (195) 
0.4790645242

>  <CNNaffinity>  (195) 
4.3523216248

>  <CNN_VS>  (195) 
2.0850429535

>  <CNNaffinity_variance>  (195) 
0.2513561249

$$$$
196
     RDKit          3D

 43 45  0  0  0  0  0  0  0  0999 V2000
   20.8785   75.9120   -2.8823 P   0  0  2  0  0  0  0  0  0  0  0  0
   19.5084   76.2474   -2.0900 O   0  0  0  0  0  0  0  0  0  0  0  0
   21.0345   76.6093   -4.2018 O   0  0  0  0  0  0  0  0  0  0  0  0
   20.9117   74.2952   -2.9338 O   0  0  0  0  0  0  0  0  0  0  0  0
   20.3574   73.6432   -4.0631 C   0  0  0  0  0  0  0  0  0  0  0  0
   20.6430   71.4537   -5.0109 O   0  0  0  0  0  0  0  0  0  0  0  0
   23.3379   72.4033   -5.9199 O   0  0  0  0  0  0  0  0  0  0  0  0
   21.8419   72.5973   -8.1917 O   0  0  0  0  0  0  0  0  0  0  0  0
   22.1095   73.1236   -5.8332 C   0  0  1  0  0  0  0  0  0  0  0  0
   21.1757   72.7072   -6.9504 C   0  0  2  0  0  0  0  0  0  0  0  0
   21.3649   72.6343   -4.5972 C   0  0  1  0  0  0  0  0  0  0  0  0
   20.6562   71.3718   -6.4455 C   0  0  2  0  0  0  0  0  0  0  0  0
   23.8313   72.6988   -6.7017 H   0  0  0  0  0  0  0  0  0  0  0  0
   22.1535   73.4726   -8.4702 H   0  0  0  0  0  0  0  0  0  0  0  0
   20.0579   69.9036   -8.7831 O   0  0  0  0  0  0  0  0  0  0  0  0
   15.5187   70.3568   -8.1262 O   0  0  0  0  0  0  0  0  0  0  0  0
   19.3266   71.0908   -6.9088 N   0  0  0  0  0  0  0  0  0  0  0  0
   17.7982   70.1303   -8.4540 N   0  0  0  0  0  0  0  0  0  0  0  0
   19.1350   70.3457   -8.0956 C   0  0  0  0  0  0  0  0  0  0  0  0
   18.2299   71.5520   -6.1888 C   0  0  0  0  0  0  0  0  0  0  0  0
   16.9614   71.3392   -6.5447 C   0  0  0  0  0  0  0  0  0  0  0  0
   16.6743   70.5692   -7.7722 C   0  0  0  0  0  0  0  0  0  0  0  0
   17.6404   69.6139   -9.2775 H   0  0  0  0  0  0  0  0  0  0  0  0
   22.0223   76.2645   -1.7959 O   0  0  0  0  0  0  0  0  0  0  0  0
   23.2613   75.3896   -1.2370 P   0  0  2  0  0  0  0  0  0  0  0  0
   24.2135   76.4971   -0.5410 O   0  0  0  0  0  0  0  0  0  0  0  0
   23.9443   74.5535   -2.2803 O   0  0  0  0  0  0  0  0  0  0  0  0
   22.6450   74.5494   -0.0045 O   0  0  0  0  0  0  0  0  0  0  0  0
   23.5218   73.5115    1.9374 O   0  0  0  0  0  0  0  0  0  0  0  0
   21.0149   70.4931    0.6507 O   0  0  0  0  0  0  0  0  0  0  0  0
   20.3081   72.0308    2.9710 O   0  0  0  0  0  0  0  0  0  0  0  0
   22.5054   72.0532   -1.2791 O   0  0  0  0  0  0  0  0  0  0  0  0
   21.4214   71.8479    0.8620 C   0  0  1  0  0  0  0  0  0  0  0  0
   21.5976   72.0668    2.3659 C   0  0  1  0  0  0  0  0  0  0  0  0
   22.7363   72.0953    0.1249 C   0  0  2  0  0  0  0  0  0  0  0  0
   22.2857   73.4080    2.6537 C   0  0  1  0  0  0  0  0  0  0  0  0
   23.3617   73.4344    0.5195 C   0  0  1  0  0  0  0  0  0  0  0  0
   20.1803   70.3296    1.1157 H   0  0  0  0  0  0  0  0  0  0  0  0
   19.8842   71.1791    2.7813 H   0  0  0  0  0  0  0  0  0  0  0  0
   22.1096   71.2005   -1.5162 H   0  0  0  0  0  0  0  0  0  0  0  0
   22.5357   72.3079    4.7599 O   0  0  0  0  0  0  0  0  0  0  0  0
   22.6135   73.5762    4.1357 C   0  0  0  0  0  0  0  0  0  0  0  0
   22.7423   72.3995    5.7037 H   0  0  0  0  0  0  0  0  0  0  0  0
 25 28  1  0
 25 24  1  0
 25 26  1  1
 25 27  2  0
  1  4  1  0
  1 24  1  0
  1  2  1  1
  1  3  2  0
  6 11  1  0
  6 12  1  0
 29 36  1  0
 29 37  1  0
  9  7  1  6
  7 13  1  0
 10  8  1  6
  8 14  1  0
 37 28  1  1
  4  5  1  0
 33 30  1  1
 30 38  1  0
 34 31  1  1
 31 39  1  0
 35 32  1  6
 32 40  1  0
 41 42  1  0
 41 43  1  0
 15 19  2  0
 16 22  2  0
 12 17  1  6
 17 19  1  0
 17 20  1  0
 18 19  1  0
 18 22  1  0
 18 23  1  0
  9 10  1  0
  9 11  1  0
 10 12  1  0
 11  5  1  6
 33 34  1  0
 33 35  1  0
 34 36  1  0
 35 37  1  0
 36 42  1  1
 20 21  2  0
 21 22  1  0
M  CHG  2   2  -1  26  -1
M  END
>  <COMPND>  (196) 
    8629 

>  <AUTHOR>  (196) 
    GENERATED BY OPEN BABEL 3.1.1

>  <MASTER>  (196) 
        0    0    0    0    0    0    0    0   58    0   58    0

>  <minimizedAffinity>  (196) 
-6.32294

>  <CNNscore>  (196) 
0.4567896724

>  <CNNaffinity>  (196) 
4.1191263199

>  <CNN_VS>  (196) 
1.8815743923

>  <CNNaffinity_variance>  (196) 
0.0430494770

$$$$
197
     RDKit          3D

 43 45  0  0  0  0  0  0  0  0999 V2000
   20.8136   71.4265   -1.4708 P   0  0  2  0  0  0  0  0  0  0  0  0
   20.5504   70.4933   -0.1757 O   0  0  0  0  0  0  0  0  0  0  0  0
   21.4624   70.7314   -2.6315 O   0  0  0  0  0  0  0  0  0  0  0  0
   21.6165   72.6991   -0.8758 O   0  0  0  0  0  0  0  0  0  0  0  0
   22.2768   72.5596    0.3701 C   0  0  0  0  0  0  0  0  0  0  0  0
   24.6197   72.8898    0.7890 O   0  0  0  0  0  0  0  0  0  0  0  0
   24.9705   70.0110    0.0276 O   0  0  0  0  0  0  0  0  0  0  0  0
   25.0516   69.9193    2.7518 O   0  0  0  0  0  0  0  0  0  0  0  0
   23.8985   70.6332    0.7339 C   0  0  1  0  0  0  0  0  0  0  0  0
   24.3256   70.9701    2.1473 C   0  0  2  0  0  0  0  0  0  0  0  0
   23.6781   72.0147    0.1303 C   0  0  1  0  0  0  0  0  0  0  0  0
   25.1686   72.2157    1.9332 C   0  0  2  0  0  0  0  0  0  0  0  0
   25.1296   69.1269    0.3951 H   0  0  0  0  0  0  0  0  0  0  0  0
   24.4722   69.1500    2.8667 H   0  0  0  0  0  0  0  0  0  0  0  0
   27.4540   73.3012    3.1889 O   0  0  0  0  0  0  0  0  0  0  0  0
   24.8994   75.6105    6.2520 O   0  0  0  0  0  0  0  0  0  0  0  0
   25.1298   73.1038    3.0607 N   0  0  0  0  0  0  0  0  0  0  0  0
   26.1801   74.4503    4.7130 N   0  0  0  0  0  0  0  0  0  0  0  0
   26.3351   73.5916    3.6173 C   0  0  0  0  0  0  0  0  0  0  0  0
   23.9065   73.4825    3.6027 C   0  0  0  0  0  0  0  0  0  0  0  0
   23.7758   74.3012    4.6486 C   0  0  0  0  0  0  0  0  0  0  0  0
   24.9863   74.8552    5.2888 C   0  0  0  0  0  0  0  0  0  0  0  0
   27.0062   74.8023    5.1174 H   0  0  0  0  0  0  0  0  0  0  0  0
   19.3492   72.0350   -1.7840 O   0  0  0  0  0  0  0  0  0  0  0  0
   18.1474   71.4838   -2.7139 P   0  0  2  0  0  0  0  0  0  0  0  0
   16.9590   72.5509   -2.4555 O   0  0  0  0  0  0  0  0  0  0  0  0
   17.7670   70.0564   -2.4461 O   0  0  0  0  0  0  0  0  0  0  0  0
   18.6342   71.7740   -4.2252 O   0  0  0  0  0  0  0  0  0  0  0  0
   17.7872   70.2167   -5.7981 O   0  0  0  0  0  0  0  0  0  0  0  0
   20.6238   72.0655   -8.1617 O   0  0  0  0  0  0  0  0  0  0  0  0
   17.8368   72.5803   -8.6265 O   0  0  0  0  0  0  0  0  0  0  0  0
   21.1862   71.5468   -5.3700 O   0  0  0  0  0  0  0  0  0  0  0  0
   19.6207   71.9945   -7.1448 C   0  0  1  0  0  0  0  0  0  0  0  0
   18.3144   71.5293   -7.7912 C   0  0  1  0  0  0  0  0  0  0  0  0
   20.0696   71.0074   -6.0689 C   0  0  2  0  0  0  0  0  0  0  0  0
   17.2663   71.1733   -6.7283 C   0  0  1  0  0  0  0  0  0  0  0  0
   18.9381   70.6840   -5.0916 C   0  0  1  0  0  0  0  0  0  0  0  0
   20.3451   72.6910   -8.8477 H   0  0  0  0  0  0  0  0  0  0  0  0
   18.5082   72.7957   -9.2929 H   0  0  0  0  0  0  0  0  0  0  0  0
   21.8957   71.7470   -5.9996 H   0  0  0  0  0  0  0  0  0  0  0  0
   16.1940   70.4776   -8.7469 O   0  0  0  0  0  0  0  0  0  0  0  0
   16.0121   70.5583   -7.3453 C   0  0  0  0  0  0  0  0  0  0  0  0
   15.4036   70.0877   -9.1530 H   0  0  0  0  0  0  0  0  0  0  0  0
 25 28  1  0
 25 24  1  0
 25 26  1  1
 25 27  2  0
  1  4  1  0
  1 24  1  0
  1  2  1  1
  1  3  2  0
  6 11  1  0
  6 12  1  0
 29 36  1  0
 29 37  1  0
  9  7  1  6
  7 13  1  0
 10  8  1  6
  8 14  1  0
 37 28  1  6
  4  5  1  0
 33 30  1  6
 30 38  1  0
 34 31  1  6
 31 39  1  0
 35 32  1  1
 32 40  1  0
 41 42  1  0
 41 43  1  0
 15 19  2  0
 16 22  2  0
 12 17  1  1
 17 19  1  0
 17 20  1  0
 18 19  1  0
 18 22  1  0
 18 23  1  0
  9 10  1  0
  9 11  1  0
 10 12  1  0
 11  5  1  1
 33 34  1  0
 33 35  1  0
 34 36  1  0
 35 37  1  0
 36 42  1  6
 20 21  2  0
 21 22  1  0
M  CHG  2   2  -1  26  -1
M  END
>  <COMPND>  (197) 
    8629 

>  <AUTHOR>  (197) 
    GENERATED BY OPEN BABEL 3.1.1

>  <MASTER>  (197) 
        0    0    0    0    0    0    0    0   58    0   58    0

>  <minimizedAffinity>  (197) 
-6.62331

>  <CNNscore>  (197) 
0.4464116693

>  <CNNaffinity>  (197) 
3.9766917229

>  <CNN_VS>  (197) 
1.7752416134

>  <CNNaffinity_variance>  (197) 
0.0117636500

$$$$
198
     RDKit          3D

 43 45  0  0  0  0  0  0  0  0999 V2000
   19.5307   70.6479   -3.0704 P   0  0  2  0  0  0  0  0  0  0  0  0
   18.7908   69.9806   -1.7958 O   0  0  0  0  0  0  0  0  0  0  0  0
   20.0941   69.6704   -4.0595 O   0  0  0  0  0  0  0  0  0  0  0  0
   20.5955   71.6713   -2.4094 O   0  0  0  0  0  0  0  0  0  0  0  0
   21.2280   71.2993   -1.1973 C   0  0  0  0  0  0  0  0  0  0  0  0
   23.3106   72.2651   -0.4875 O   0  0  0  0  0  0  0  0  0  0  0  0
   24.6315   69.9070   -1.7857 O   0  0  0  0  0  0  0  0  0  0  0  0
   24.6699   69.2302    0.8557 O   0  0  0  0  0  0  0  0  0  0  0  0
   23.3949   69.9715   -1.0772 C   0  0  1  0  0  0  0  0  0  0  0  0
   23.6474   70.0980    0.4107 C   0  0  2  0  0  0  0  0  0  0  0  0
   22.7366   71.3064   -1.4027 C   0  0  1  0  0  0  0  0  0  0  0  0
   24.0257   71.5634    0.5426 C   0  0  2  0  0  0  0  0  0  0  0  0
   25.0703   69.0629   -1.5938 H   0  0  0  0  0  0  0  0  0  0  0  0
   24.3814   68.3100    0.7515 H   0  0  0  0  0  0  0  0  0  0  0  0
   25.7105   73.1898    2.1221 O   0  0  0  0  0  0  0  0  0  0  0  0
   22.5211   73.6046    5.4231 O   0  0  0  0  0  0  0  0  0  0  0  0
   23.6610   72.1105    1.8190 N   0  0  0  0  0  0  0  0  0  0  0  0
   24.1210   73.3952    3.7643 N   0  0  0  0  0  0  0  0  0  0  0  0
   24.5809   72.9142    2.5318 C   0  0  0  0  0  0  0  0  0  0  0  0
   22.4031   71.8489    2.3512 C   0  0  0  0  0  0  0  0  0  0  0  0
   21.9803   72.3140    3.5285 C   0  0  0  0  0  0  0  0  0  0  0  0
   22.8805   73.1618    4.3365 C   0  0  0  0  0  0  0  0  0  0  0  0
   24.7449   73.9570    4.2788 H   0  0  0  0  0  0  0  0  0  0  0  0
   18.4009   71.6363   -3.6701 O   0  0  0  0  0  0  0  0  0  0  0  0
   16.9605   71.3233   -4.3335 P   0  0  2  0  0  0  0  0  0  0  0  0
   16.3388   72.7960   -4.5825 O   0  0  0  0  0  0  0  0  0  0  0  0
   16.0904   70.4141   -3.5149 O   0  0  0  0  0  0  0  0  0  0  0  0
   17.3026   70.7702   -5.8107 O   0  0  0  0  0  0  0  0  0  0  0  0
   18.8834   72.1940   -6.8551 O   0  0  0  0  0  0  0  0  0  0  0  0
   18.0151   69.7199  -10.0450 O   0  0  0  0  0  0  0  0  0  0  0  0
   20.5514   69.4856   -8.7182 O   0  0  0  0  0  0  0  0  0  0  0  0
   15.9085   70.5351   -8.2348 O   0  0  0  0  0  0  0  0  0  0  0  0
   18.2266   70.0456   -8.6686 C   0  0  1  0  0  0  0  0  0  0  0  0
   19.6542   70.5737   -8.5146 C   0  0  1  0  0  0  0  0  0  0  0  0
   17.2123   71.1064   -8.2452 C   0  0  2  0  0  0  0  0  0  0  0  0
   19.8696   71.1913   -7.1263 C   0  0  1  0  0  0  0  0  0  0  0  0
   17.5461   71.6906   -6.8713 C   0  0  1  0  0  0  0  0  0  0  0  0
   18.6557   69.0464  -10.3201 H   0  0  0  0  0  0  0  0  0  0  0  0
   20.4047   69.1043   -9.5981 H   0  0  0  0  0  0  0  0  0  0  0  0
   15.7090   70.1691   -9.1101 H   0  0  0  0  0  0  0  0  0  0  0  0
   21.6335   72.3064   -8.2901 O   0  0  0  0  0  0  0  0  0  0  0  0
   21.2351   71.8645   -7.0055 C   0  0  0  0  0  0  0  0  0  0  0  0
   22.5009   72.7372   -8.2286 H   0  0  0  0  0  0  0  0  0  0  0  0
 25 28  1  0
 25 24  1  0
 25 26  1  6
 25 27  2  0
  1  4  1  0
  1 24  1  0
  1  2  1  1
  1  3  2  0
  6 11  1  0
  6 12  1  0
 29 36  1  0
 29 37  1  0
  9  7  1  6
  7 13  1  0
 10  8  1  6
  8 14  1  0
 37 28  1  1
  4  5  1  0
 33 30  1  6
 30 38  1  0
 34 31  1  1
 31 39  1  0
 35 32  1  1
 32 40  1  0
 41 42  1  0
 41 43  1  0
 15 19  2  0
 16 22  2  0
 12 17  1  1
 17 19  1  0
 17 20  1  0
 18 19  1  0
 18 22  1  0
 18 23  1  0
  9 10  1  0
  9 11  1  0
 10 12  1  0
 11  5  1  1
 33 34  1  0
 33 35  1  0
 34 36  1  0
 35 37  1  0
 36 42  1  6
 20 21  2  0
 21 22  1  0
M  CHG  2   2  -1  26  -1
M  END
>  <COMPND>  (198) 
    8629 

>  <AUTHOR>  (198) 
    GENERATED BY OPEN BABEL 3.1.1

>  <MASTER>  (198) 
        0    0    0    0    0    0    0    0   58    0   58    0

>  <minimizedAffinity>  (198) 
-7.51308

>  <CNNscore>  (198) 
0.4055684805

>  <CNNaffinity>  (198) 
3.9586634636

>  <CNN_VS>  (198) 
1.6055091619

>  <CNNaffinity_variance>  (198) 
0.1486174166

$$$$
199
     RDKit          3D

 43 45  0  0  0  0  0  0  0  0999 V2000
   20.1332   71.9238   -3.0014 P   0  0  2  0  0  0  0  0  0  0  0  0
   19.0156   73.0074   -3.4419 O   0  0  0  0  0  0  0  0  0  0  0  0
   19.6500   70.5046   -2.9389 O   0  0  0  0  0  0  0  0  0  0  0  0
   20.7333   72.5230   -1.6234 O   0  0  0  0  0  0  0  0  0  0  0  0
   20.1103   72.1645   -0.4023 C   0  0  0  0  0  0  0  0  0  0  0  0
   21.9408   71.4881    0.9997 O   0  0  0  0  0  0  0  0  0  0  0  0
   22.2405   74.3908    1.6892 O   0  0  0  0  0  0  0  0  0  0  0  0
   24.2183   74.0092   -0.1491 O   0  0  0  0  0  0  0  0  0  0  0  0
   21.8715   73.7917    0.4481 C   0  0  1  0  0  0  0  0  0  0  0  0
   23.0825   73.1713   -0.2168 C   0  0  2  0  0  0  0  0  0  0  0  0
   21.0151   72.5692    0.7535 C   0  0  1  0  0  0  0  0  0  0  0  0
   23.2548   71.8875    0.5771 C   0  0  2  0  0  0  0  0  0  0  0  0
   22.7879   75.1741    1.5198 H   0  0  0  0  0  0  0  0  0  0  0  0
   24.0595   74.8120   -0.6696 H   0  0  0  0  0  0  0  0  0  0  0  0
   24.6858   69.7025    1.6522 O   0  0  0  0  0  0  0  0  0  0  0  0
   25.4316   67.9005   -2.5236 O   0  0  0  0  0  0  0  0  0  0  0  0
   23.8335   70.8326   -0.2061 N   0  0  0  0  0  0  0  0  0  0  0  0
   25.0558   68.8069   -0.4279 N   0  0  0  0  0  0  0  0  0  0  0  0
   24.5333   69.7818    0.4315 C   0  0  0  0  0  0  0  0  0  0  0  0
   23.7041   70.8465   -1.5907 C   0  0  0  0  0  0  0  0  0  0  0  0
   24.2095   69.9100   -2.3962 C   0  0  0  0  0  0  0  0  0  0  0  0
   24.9548   68.7774   -1.8098 C   0  0  0  0  0  0  0  0  0  0  0  0
   25.5476   68.0654   -0.0060 H   0  0  0  0  0  0  0  0  0  0  0  0
   21.3270   72.1820   -4.0602 O   0  0  0  0  0  0  0  0  0  0  0  0
   21.3354   72.9445   -5.4854 P   0  0  2  0  0  0  0  0  0  0  0  0
   22.6287   72.3218   -6.2319 O   0  0  0  0  0  0  0  0  0  0  0  0
   21.3416   74.4422   -5.3820 O   0  0  0  0  0  0  0  0  0  0  0  0
   20.0716   72.3343   -6.2826 O   0  0  0  0  0  0  0  0  0  0  0  0
   19.0505   70.2088   -6.0453 O   0  0  0  0  0  0  0  0  0  0  0  0
   18.5364   70.7379  -10.1081 O   0  0  0  0  0  0  0  0  0  0  0  0
   16.2721   70.9442   -8.3536 O   0  0  0  0  0  0  0  0  0  0  0  0
   20.9849   71.6138   -8.8364 O   0  0  0  0  0  0  0  0  0  0  0  0
   18.6233   71.1496   -8.7413 C   0  0  1  0  0  0  0  0  0  0  0  0
   17.5347   70.4210   -7.9508 C   0  0  1  0  0  0  0  0  0  0  0  0
   20.0077   70.7967   -8.2007 C   0  0  2  0  0  0  0  0  0  0  0  0
   17.7313   70.6034   -6.4398 C   0  0  1  0  0  0  0  0  0  0  0  0
   20.0813   70.9663   -6.6822 C   0  0  1  0  0  0  0  0  0  0  0  0
   17.6599   70.9596  -10.4576 H   0  0  0  0  0  0  0  0  0  0  0  0
   16.1607   70.8231   -9.3097 H   0  0  0  0  0  0  0  0  0  0  0  0
   20.9283   71.4972   -9.7971 H   0  0  0  0  0  0  0  0  0  0  0  0
   15.9869   68.9729   -6.5260 O   0  0  0  0  0  0  0  0  0  0  0  0
   16.7516   69.7575   -5.6294 C   0  0  0  0  0  0  0  0  0  0  0  0
   15.3592   68.4290   -6.0242 H   0  0  0  0  0  0  0  0  0  0  0  0
 25 28  1  0
 25 24  1  0
 25 26  1  6
 25 27  2  0
  1  4  1  0
  1 24  1  0
  1  2  1  6
  1  3  2  0
  6 11  1  0
  6 12  1  0
 29 36  1  0
 29 37  1  0
  9  7  1  1
  7 13  1  0
 10  8  1  1
  8 14  1  0
 37 28  1  6
  4  5  1  0
 33 30  1  6
 30 38  1  0
 34 31  1  6
 31 39  1  0
 35 32  1  6
 32 40  1  0
 41 42  1  0
 41 43  1  0
 15 19  2  0
 16 22  2  0
 12 17  1  6
 17 19  1  0
 17 20  1  0
 18 19  1  0
 18 22  1  0
 18 23  1  0
  9 10  1  0
  9 11  1  0
 10 12  1  0
 11  5  1  6
 33 34  1  0
 33 35  1  0
 34 36  1  0
 35 37  1  0
 36 42  1  1
 20 21  2  0
 21 22  1  0
M  CHG  2   2  -1  26  -1
M  END
>  <COMPND>  (199) 
    8629 

>  <AUTHOR>  (199) 
    GENERATED BY OPEN BABEL 3.1.1

>  <MASTER>  (199) 
        0    0    0    0    0    0    0    0   58    0   58    0

>  <minimizedAffinity>  (199) 
-7.51304

>  <CNNscore>  (199) 
0.3699404597

>  <CNNaffinity>  (199) 
4.1081247330

>  <CNN_VS>  (199) 
1.5197615623

>  <CNNaffinity_variance>  (199) 
0.1221244559

$$$$
200
     RDKit          3D

 43 45  0  0  0  0  0  0  0  0999 V2000
   23.3436   73.4999   -3.9932 P   0  0  2  0  0  0  0  0  0  0  0  0
   24.0694   72.0540   -3.9836 O   0  0  0  0  0  0  0  0  0  0  0  0
   24.1085   74.5884   -4.6870 O   0  0  0  0  0  0  0  0  0  0  0  0
   22.9939   73.7692   -2.4365 O   0  0  0  0  0  0  0  0  0  0  0  0
   21.9847   74.7134   -2.1238 C   0  0  0  0  0  0  0  0  0  0  0  0
   21.2284   72.6907   -1.0701 O   0  0  0  0  0  0  0  0  0  0  0  0
   18.8193   74.2581   -0.2156 O   0  0  0  0  0  0  0  0  0  0  0  0
   20.3403   74.2251    2.0476 O   0  0  0  0  0  0  0  0  0  0  0  0
   20.1761   74.6826   -0.3347 C   0  0  1  0  0  0  0  0  0  0  0  0
   21.0037   74.1239    0.8040 C   0  0  2  0  0  0  0  0  0  0  0  0
   20.7830   73.9807   -1.5432 C   0  0  1  0  0  0  0  0  0  0  0  0
   21.2095   72.6835    0.3667 C   0  0  2  0  0  0  0  0  0  0  0  0
   18.4104   74.6935    0.5494 H   0  0  0  0  0  0  0  0  0  0  0  0
   20.2332   75.1602    2.2819 H   0  0  0  0  0  0  0  0  0  0  0  0
   21.6174   69.9579    0.9853 O   0  0  0  0  0  0  0  0  0  0  0  0
   26.0003   70.7008    2.2015 O   0  0  0  0  0  0  0  0  0  0  0  0
   22.4475   72.1371    0.8466 N   0  0  0  0  0  0  0  0  0  0  0  0
   23.7995   70.3300    1.5902 N   0  0  0  0  0  0  0  0  0  0  0  0
   22.5471   70.7547    1.1284 C   0  0  0  0  0  0  0  0  0  0  0  0
   23.5462   72.9690    1.0328 C   0  0  0  0  0  0  0  0  0  0  0  0
   24.7332   72.5486    1.4752 C   0  0  0  0  0  0  0  0  0  0  0  0
   24.9212   71.1183    1.7928 C   0  0  0  0  0  0  0  0  0  0  0  0
   23.8923   69.3709    1.7934 H   0  0  0  0  0  0  0  0  0  0  0  0
   21.8977   73.1765   -4.6396 O   0  0  0  0  0  0  0  0  0  0  0  0
   21.3119   73.4510   -6.1210 P   0  0  2  0  0  0  0  0  0  0  0  0
   22.3902   72.7279   -7.0863 O   0  0  0  0  0  0  0  0  0  0  0  0
   21.0776   74.9011   -6.4311 O   0  0  0  0  0  0  0  0  0  0  0  0
   19.9934   72.5250   -6.2169 O   0  0  0  0  0  0  0  0  0  0  0  0
   19.4874   70.3450   -5.4371 O   0  0  0  0  0  0  0  0  0  0  0  0
   17.6978   70.1484   -9.1532 O   0  0  0  0  0  0  0  0  0  0  0  0
   16.0620   70.3199   -6.7990 O   0  0  0  0  0  0  0  0  0  0  0  0
   20.2161   71.5400   -8.8351 O   0  0  0  0  0  0  0  0  0  0  0  0
   18.1137   70.7795   -7.9391 C   0  0  1  0  0  0  0  0  0  0  0  0
   17.4595   70.0440   -6.7678 C   0  0  1  0  0  0  0  0  0  0  0  0
   19.6361   70.7086   -7.8357 C   0  0  2  0  0  0  0  0  0  0  0  0
   18.0623   70.4887   -5.4284 C   0  0  1  0  0  0  0  0  0  0  0  0
   20.1280   71.1252   -6.4484 C   0  0  1  0  0  0  0  0  0  0  0  0
   16.7321   70.1905   -9.2253 H   0  0  0  0  0  0  0  0  0  0  0  0
   15.6938   70.0348   -7.6501 H   0  0  0  0  0  0  0  0  0  0  0  0
   19.8971   71.2659   -9.7086 H   0  0  0  0  0  0  0  0  0  0  0  0
   18.6275   68.9744   -3.6688 O   0  0  0  0  0  0  0  0  0  0  0  0
   17.5371   69.6565   -4.2606 C   0  0  0  0  0  0  0  0  0  0  0  0
   18.3083   68.4408   -2.9237 H   0  0  0  0  0  0  0  0  0  0  0  0
 25 28  1  0
 25 24  1  0
 25 26  1  6
 25 27  2  0
  1  4  1  0
  1 24  1  0
  1  2  1  1
  1  3  2  0
  6 11  1  0
  6 12  1  0
 29 36  1  0
 29 37  1  0
  9  7  1  1
  7 13  1  0
 10  8  1  1
  8 14  1  0
 37 28  1  1
  4  5  1  0
 33 30  1  6
 30 38  1  0
 34 31  1  1
 31 39  1  0
 35 32  1  6
 32 40  1  0
 41 42  1  0
 41 43  1  0
 15 19  2  0
 16 22  2  0
 12 17  1  1
 17 19  1  0
 17 20  1  0
 18 19  1  0
 18 22  1  0
 18 23  1  0
  9 10  1  0
  9 11  1  0
 10 12  1  0
 11  5  1  1
 33 34  1  0
 33 35  1  0
 34 36  1  0
 35 37  1  0
 36 42  1  1
 20 21  2  0
 21 22  1  0
M  CHG  2   2  -1  26  -1
M  END
