1
     RDKit          3D

 43 45  0  0  0  0  0  0  0  0999 V2000
   22.3737   71.4911   -2.9232 P   0  0  2  0  0  0  0  0  0  0  0  0
   21.9689   73.0298   -2.6278 O   0  0  0  0  0  0  0  0  0  0  0  0
   23.8213   71.2682   -3.2498 O   0  0  0  0  0  0  0  0  0  0  0  0
   21.3177   71.0222   -4.0559 O   0  0  0  0  0  0  0  0  0  0  0  0
   20.3660   70.0282   -3.7230 C   0  0  0  0  0  0  0  0  0  0  0  0
   18.7167   71.4177   -4.7845 O   0  0  0  0  0  0  0  0  0  0  0  0
   16.7771   70.3326   -2.7715 O   0  0  0  0  0  0  0  0  0  0  0  0
   16.1968   68.8766   -5.0030 O   0  0  0  0  0  0  0  0  0  0  0  0
   17.8642   69.6761   -3.4240 C   0  0  1  0  0  0  0  0  0  0  0  0
   17.5089   69.3810   -4.8659 C   0  0  2  0  0  0  0  0  0  0  0  0
   18.9978   70.6813   -3.5745 C   0  0  1  0  0  0  0  0  0  0  0  0
   17.6835   70.7417   -5.5185 C   0  0  2  0  0  0  0  0  0  0  0  0
   16.0405   69.7101   -2.6641 H   0  0  0  0  0  0  0  0  0  0  0  0
   16.1372   68.0093   -4.5715 H   0  0  0  0  0  0  0  0  0  0  0  0
   15.9080   70.2178   -7.6516 O   0  0  0  0  0  0  0  0  0  0  0  0
   19.3061   70.3829  -10.7612 O   0  0  0  0  0  0  0  0  0  0  0  0
   18.0775   70.6425   -6.8954 N   0  0  0  0  0  0  0  0  0  0  0  0
   17.6023   70.2995   -9.1982 N   0  0  0  0  0  0  0  0  0  0  0  0
   17.1069   70.3759   -7.8899 C   0  0  0  0  0  0  0  0  0  0  0  0
   19.4108   70.8101   -7.2491 C   0  0  0  0  0  0  0  0  0  0  0  0
   19.8679   70.7345   -8.5005 C   0  0  0  0  0  0  0  0  0  0  0  0
   18.9190   70.4583   -9.5990 C   0  0  0  0  0  0  0  0  0  0  0  0
   16.9457   70.1128   -9.9076 H   0  0  0  0  0  0  0  0  0  0  0  0
   21.8551   70.7191   -1.6011 O   0  0  0  0  0  0  0  0  0  0  0  0
   22.5085   70.5789   -0.1290 P   0  0  2  0  0  0  0  0  0  0  0  0
   23.9503   69.9060   -0.4269 O   0  0  0  0  0  0  0  0  0  0  0  0
   21.6619   69.8189    0.8506 O   0  0  0  0  0  0  0  0  0  0  0  0
   22.8492   72.0924    0.3135 O   0  0  0  0  0  0  0  0  0  0  0  0
   24.5584   73.7233    0.4800 O   0  0  0  0  0  0  0  0  0  0  0  0
   23.4514   73.2589    4.4331 O   0  0  0  0  0  0  0  0  0  0  0  0
   23.7187   70.9321    2.6870 O   0  0  0  0  0  0  0  0  0  0  0  0
   22.6025   75.6084    2.9464 O   0  0  0  0  0  0  0  0  0  0  0  0
   23.2541   73.2900    3.0196 C   0  0  2  0  0  0  0  0  0  0  0  0
   24.1516   72.2462    2.3545 C   0  0  2  0  0  0  0  0  0  0  0  0
   23.6109   74.6928    2.5230 C   0  0  1  0  0  0  0  0  0  0  0  0
   24.1403   72.4043    0.8334 C   0  0  1  0  0  0  0  0  0  0  0  0
   23.7027   74.7382    1.0005 C   0  0  1  0  0  0  0  0  0  0  0  0
   23.2309   72.3767    4.7713 H   0  0  0  0  0  0  0  0  0  0  0  0
   23.7232   70.8249    3.6508 H   0  0  0  0  0  0  0  0  0  0  0  0
   22.5339   75.5891    3.9138 H   0  0  0  0  0  0  0  0  0  0  0  0
   25.3549   75.7284   -0.3380 O   0  0  0  0  0  0  0  0  0  0  0  0
   24.0562   77.1234    0.9137 O   0  0  0  0  0  0  0  0  0  0  0  0
   24.3630   75.9992    0.5462 C   0  0  0  0  0  0  0  0  0  0  0  0
  1  4  1  0
  1 24  1  0
  1  2  1  1
  1  3  2  0
 25 28  1  0
 25 24  1  0
 25 26  1  6
 25 27  2  0
  6 11  1  0
  6 12  1  0
 29 36  1  0
 29 37  1  0
  9  7  1  1
  7 13  1  0
 10  8  1  1
  8 14  1  0
  4  5  1  0
 36 28  1  1
 33 30  1  1
 30 38  1  0
 34 31  1  6
 31 39  1  0
 35 32  1  6
 32 40  1  0
 41 43  1  0
 15 19  2  0
 42 43  2  0
 16 22  2  0
 12 17  1  6
 17 19  1  0
 17 20  1  0
 18 19  1  0
 18 22  1  0
 18 23  1  0
  9 10  1  0
  9 11  1  0
 10 12  1  0
 11  5  1  6
 33 34  1  0
 33 35  1  0
 34 36  1  0
 35 37  1  0
 37 43  1  1
 20 21  2  0
 21 22  1  0
M  CHG  3   2  -1  26  -1  41  -1
M  END
>  <COMPND>  (1) 
    udp_gluA.pdb 

>  <AUTHOR>  (1) 
    GENERATED BY OPEN BABEL 3.1.1

>  <MASTER>  (1) 
        0    0    0    0    0    0    0    0   56    0   56    0

>  <minimizedAffinity>  (1) 
-7.50153

>  <CNNscore>  (1) 
0.8882713318

>  <CNNaffinity>  (1) 
4.7769284248

>  <CNN_VS>  (1) 
4.2432084084

>  <CNNaffinity_variance>  (1) 
0.0324311443

$$$$
2
     RDKit          3D

 43 45  0  0  0  0  0  0  0  0999 V2000
   22.4208   71.7615   -2.9366 P   0  0  2  0  0  0  0  0  0  0  0  0
   22.2496   73.3665   -2.8201 O   0  0  0  0  0  0  0  0  0  0  0  0
   23.8157   71.2929   -3.2307 O   0  0  0  0  0  0  0  0  0  0  0  0
   21.2924   71.3275   -4.0119 O   0  0  0  0  0  0  0  0  0  0  0  0
   20.3839   70.2999   -3.6610 C   0  0  0  0  0  0  0  0  0  0  0  0
   18.6790   71.5872   -4.7629 O   0  0  0  0  0  0  0  0  0  0  0  0
   16.7807   70.4673   -2.7298 O   0  0  0  0  0  0  0  0  0  0  0  0
   16.2761   68.9313   -4.9257 O   0  0  0  0  0  0  0  0  0  0  0  0
   17.8989   69.8439   -3.3618 C   0  0  1  0  0  0  0  0  0  0  0  0
   17.5637   69.4971   -4.7969 C   0  0  2  0  0  0  0  0  0  0  0  0
   18.9873   70.8946   -3.5338 C   0  0  1  0  0  0  0  0  0  0  0  0
   17.6804   70.8474   -5.4832 C   0  0  2  0  0  0  0  0  0  0  0  0
   16.0721   69.8153   -2.6092 H   0  0  0  0  0  0  0  0  0  0  0  0
   16.2532   68.0733   -4.4727 H   0  0  0  0  0  0  0  0  0  0  0  0
   15.9368   70.2067   -7.6106 O   0  0  0  0  0  0  0  0  0  0  0  0
   19.3414   70.4294  -10.7094 O   0  0  0  0  0  0  0  0  0  0  0  0
   18.0847   70.7314   -6.8557 N   0  0  0  0  0  0  0  0  0  0  0  0
   17.6344   70.3172   -9.1518 N   0  0  0  0  0  0  0  0  0  0  0  0
   17.1299   70.4049   -7.8476 C   0  0  0  0  0  0  0  0  0  0  0  0
   19.4124   70.9417   -7.2078 C   0  0  0  0  0  0  0  0  0  0  0  0
   19.8783   70.8546   -8.4553 C   0  0  0  0  0  0  0  0  0  0  0  0
   18.9460   70.5169   -9.5509 C   0  0  0  0  0  0  0  0  0  0  0  0
   16.9888   70.0891   -9.8593 H   0  0  0  0  0  0  0  0  0  0  0  0
   21.8127   71.2292   -1.5367 O   0  0  0  0  0  0  0  0  0  0  0  0
   22.5411   70.6463   -0.2164 P   0  0  2  0  0  0  0  0  0  0  0  0
   23.6526   69.6374   -0.8221 O   0  0  0  0  0  0  0  0  0  0  0  0
   21.6065   70.0142    0.7741 O   0  0  0  0  0  0  0  0  0  0  0  0
   23.3916   71.8882    0.3639 O   0  0  0  0  0  0  0  0  0  0  0  0
   22.2134   73.1996    1.9455 O   0  0  0  0  0  0  0  0  0  0  0  0
   25.5984   75.4827    1.3152 O   0  0  0  0  0  0  0  0  0  0  0  0
   24.2378   74.2005   -0.9297 O   0  0  0  0  0  0  0  0  0  0  0  0
   25.3236   73.9227    3.7527 O   0  0  0  0  0  0  0  0  0  0  0  0
   24.8400   74.2777    1.4193 C   0  0  2  0  0  0  0  0  0  0  0  0
   23.7107   74.2931    0.3888 C   0  0  2  0  0  0  0  0  0  0  0  0
   24.2668   74.2006    2.8361 C   0  0  1  0  0  0  0  0  0  0  0  0
   22.7425   73.1322    0.6208 C   0  0  1  0  0  0  0  0  0  0  0  0
   23.2172   73.0991    2.9532 C   0  0  1  0  0  0  0  0  0  0  0  0
   25.9726   75.5534    0.4228 H   0  0  0  0  0  0  0  0  0  0  0  0
   24.8532   74.9340   -1.0836 H   0  0  0  0  0  0  0  0  0  0  0  0
   25.9985   74.6163    3.6881 H   0  0  0  0  0  0  0  0  0  0  0  0
   21.1205   73.4273    3.9520 O   0  0  0  0  0  0  0  0  0  0  0  0
   22.9114   73.1975    5.3445 O   0  0  0  0  0  0  0  0  0  0  0  0
   22.4370   73.2422    4.2193 C   0  0  0  0  0  0  0  0  0  0  0  0
  1  4  1  0
  1 24  1  0
  1  2  1  1
  1  3  2  0
 25 28  1  0
 25 24  1  0
 25 26  1  6
 25 27  2  0
  6 11  1  0
  6 12  1  0
 29 36  1  0
 29 37  1  0
  9  7  1  6
  7 13  1  0
 10  8  1  1
  8 14  1  0
  4  5  1  0
 36 28  1  1
 33 30  1  1
 30 38  1  0
 34 31  1  6
 31 39  1  0
 35 32  1  1
 32 40  1  0
 41 43  1  0
 15 19  2  0
 42 43  2  0
 16 22  2  0
 12 17  1  6
 17 19  1  0
 17 20  1  0
 18 19  1  0
 18 22  1  0
 18 23  1  0
  9 10  1  0
  9 11  1  0
 10 12  1  0
 11  5  1  6
 33 34  1  0
 33 35  1  0
 34 36  1  0
 35 37  1  0
 37 43  1  1
 20 21  2  0
 21 22  1  0
M  CHG  3   2  -1  26  -1  41  -1
M  END
>  <COMPND>  (2) 
    udp_gluA.pdb 

>  <AUTHOR>  (2) 
    GENERATED BY OPEN BABEL 3.1.1

>  <MASTER>  (2) 
        0    0    0    0    0    0    0    0   56    0   56    0

>  <minimizedAffinity>  (2) 
-7.37284

>  <CNNscore>  (2) 
0.8651649356

>  <CNNaffinity>  (2) 
4.6730523109

>  <CNN_VS>  (2) 
4.0429611206

>  <CNNaffinity_variance>  (2) 
0.0249617063

$$$$
3
     RDKit          3D

 43 45  0  0  0  0  0  0  0  0999 V2000
   22.5282   71.9771   -3.1635 P   0  0  2  0  0  0  0  0  0  0  0  0
   22.0497   73.5194   -3.0565 O   0  0  0  0  0  0  0  0  0  0  0  0
   23.9584   71.7846   -3.5752 O   0  0  0  0  0  0  0  0  0  0  0  0
   21.4219   71.2929   -4.1257 O   0  0  0  0  0  0  0  0  0  0  0  0
   20.5874   70.2846   -3.5860 C   0  0  0  0  0  0  0  0  0  0  0  0
   18.8088   71.5417   -4.6028 O   0  0  0  0  0  0  0  0  0  0  0  0
   17.0281   70.3768   -2.4902 O   0  0  0  0  0  0  0  0  0  0  0  0
   16.4537   68.8392   -4.6678 O   0  0  0  0  0  0  0  0  0  0  0  0
   18.1282   69.7781   -3.1755 C   0  0  1  0  0  0  0  0  0  0  0  0
   17.7345   69.4300   -4.5954 C   0  0  2  0  0  0  0  0  0  0  0  0
   19.1866   70.8509   -3.3923 C   0  0  1  0  0  0  0  0  0  0  0  0
   17.7929   70.7849   -5.2800 C   0  0  2  0  0  0  0  0  0  0  0  0
   16.3387   69.7104   -2.3403 H   0  0  0  0  0  0  0  0  0  0  0  0
   16.4686   67.9792   -4.2181 H   0  0  0  0  0  0  0  0  0  0  0  0
   15.9488   70.2062   -7.3393 O   0  0  0  0  0  0  0  0  0  0  0  0
   19.2214   70.4148  -10.5782 O   0  0  0  0  0  0  0  0  0  0  0  0
   18.1361   70.6821   -6.6702 N   0  0  0  0  0  0  0  0  0  0  0  0
   17.5807   70.3096   -8.9504 N   0  0  0  0  0  0  0  0  0  0  0  0
   17.1340   70.3870   -7.6246 C   0  0  0  0  0  0  0  0  0  0  0  0
   19.4511   70.8742   -7.0761 C   0  0  0  0  0  0  0  0  0  0  0  0
   19.8616   70.7974   -8.3435 C   0  0  0  0  0  0  0  0  0  0  0  0
   18.8775   70.4922   -9.4026 C   0  0  0  0  0  0  0  0  0  0  0  0
   16.9015   70.1033   -9.6326 H   0  0  0  0  0  0  0  0  0  0  0  0
   22.1609   71.3814   -1.7065 O   0  0  0  0  0  0  0  0  0  0  0  0
   23.0796   70.6454   -0.5983 P   0  0  2  0  0  0  0  0  0  0  0  0
   21.9930   69.9741    0.3962 O   0  0  0  0  0  0  0  0  0  0  0  0
   24.0658   71.5494    0.0829 O   0  0  0  0  0  0  0  0  0  0  0  0
   23.7423   69.3986   -1.3786 O   0  0  0  0  0  0  0  0  0  0  0  0
   24.7516   67.7741    0.0183 O   0  0  0  0  0  0  0  0  0  0  0  0
   26.0367   66.5815   -3.7226 O   0  0  0  0  0  0  0  0  0  0  0  0
   26.0006   69.4124   -3.0020 O   0  0  0  0  0  0  0  0  0  0  0  0
   23.9210   65.1161   -2.3707 O   0  0  0  0  0  0  0  0  0  0  0  0
   25.1359   67.1569   -2.7763 C   0  0  2  0  0  0  0  0  0  0  0  0
   25.8092   68.3422   -2.0840 C   0  0  2  0  0  0  0  0  0  0  0  0
   24.7731   66.0787   -1.7527 C   0  0  1  0  0  0  0  0  0  0  0  0
   24.9673   68.8393   -0.9081 C   0  0  1  0  0  0  0  0  0  0  0  0
   24.0453   66.6739   -0.5508 C   0  0  1  0  0  0  0  0  0  0  0  0
   26.2814   67.2485   -4.3833 H   0  0  0  0  0  0  0  0  0  0  0  0
   26.5339   69.1039   -3.7510 H   0  0  0  0  0  0  0  0  0  0  0  0
   24.3724   64.7298   -3.1374 H   0  0  0  0  0  0  0  0  0  0  0  0
   23.2507   64.6095    0.2290 O   0  0  0  0  0  0  0  0  0  0  0  0
   24.5333   65.8377    1.6592 O   0  0  0  0  0  0  0  0  0  0  0  0
   23.9894   65.6929    0.5747 C   0  0  0  0  0  0  0  0  0  0  0  0
  1  4  1  0
  1 24  1  0
  1  2  1  1
  1  3  2  0
 25 28  1  0
 25 24  1  0
 25 26  1  1
 25 27  2  0
  6 11  1  0
  6 12  1  0
 29 36  1  0
 29 37  1  0
  9  7  1  1
  7 13  1  0
 10  8  1  1
  8 14  1  0
  4  5  1  0
 36 28  1  6
 33 30  1  6
 30 38  1  0
 34 31  1  6
 31 39  1  0
 35 32  1  6
 32 40  1  0
 41 43  1  0
 15 19  2  0
 42 43  2  0
 16 22  2  0
 12 17  1  6
 17 19  1  0
 17 20  1  0
 18 19  1  0
 18 22  1  0
 18 23  1  0
  9 10  1  0
  9 11  1  0
 10 12  1  0
 11  5  1  6
 33 34  1  0
 33 35  1  0
 34 36  1  0
 35 37  1  0
 37 43  1  1
 20 21  2  0
 21 22  1  0
M  CHG  3   2  -1  26  -1  41  -1
M  END
>  <COMPND>  (3) 
    udp_gluA.pdb 

>  <AUTHOR>  (3) 
    GENERATED BY OPEN BABEL 3.1.1

>  <MASTER>  (3) 
        0    0    0    0    0    0    0    0   56    0   56    0

>  <minimizedAffinity>  (3) 
-9.61692

>  <CNNscore>  (3) 
0.8567024469

>  <CNNaffinity>  (3) 
5.0682916641

>  <CNN_VS>  (3) 
4.3420176506

>  <CNNaffinity_variance>  (3) 
0.0506544188

$$$$
4
     RDKit          3D

 43 45  0  0  0  0  0  0  0  0999 V2000
   22.6540   72.5838   -4.5774 P   0  0  2  0  0  0  0  0  0  0  0  0
   23.0837   72.4338   -6.1304 O   0  0  0  0  0  0  0  0  0  0  0  0
   23.4276   71.7253   -3.6202 O   0  0  0  0  0  0  0  0  0  0  0  0
   21.0528   72.3514   -4.5932 O   0  0  0  0  0  0  0  0  0  0  0  0
   20.5143   71.3012   -3.8112 C   0  0  0  0  0  0  0  0  0  0  0  0
   18.4948   71.9799   -4.9242 O   0  0  0  0  0  0  0  0  0  0  0  0
   17.0275   70.5986   -2.7037 O   0  0  0  0  0  0  0  0  0  0  0  0
   16.8887   68.7803   -4.7311 O   0  0  0  0  0  0  0  0  0  0  0  0
   18.2528   70.2353   -3.3402 C   0  0  1  0  0  0  0  0  0  0  0  0
   17.9805   69.6760   -4.7206 C   0  0  2  0  0  0  0  0  0  0  0  0
   19.0138   71.5149   -3.6593 C   0  0  1  0  0  0  0  0  0  0  0  0
   17.7104   70.9367   -5.5240 C   0  0  2  0  0  0  0  0  0  0  0  0
   16.5237   69.7972   -2.4901 H   0  0  0  0  0  0  0  0  0  0  0  0
   17.1103   67.9944   -4.2064 H   0  0  0  0  0  0  0  0  0  0  0  0
   15.9823   70.0502   -7.5745 O   0  0  0  0  0  0  0  0  0  0  0  0
   19.2753   70.4523  -10.7742 O   0  0  0  0  0  0  0  0  0  0  0  0
   18.0901   70.8004   -6.9017 N   0  0  0  0  0  0  0  0  0  0  0  0
   17.6243   70.2504   -9.1660 N   0  0  0  0  0  0  0  0  0  0  0  0
   17.1458   70.3465   -7.8526 C   0  0  0  0  0  0  0  0  0  0  0  0
   19.3837   71.1161   -7.2991 C   0  0  0  0  0  0  0  0  0  0  0  0
   19.8252   71.0195   -8.5547 C   0  0  0  0  0  0  0  0  0  0  0  0
   18.9018   70.5521   -9.6093 C   0  0  0  0  0  0  0  0  0  0  0  0
   16.9856   69.9346   -9.8454 H   0  0  0  0  0  0  0  0  0  0  0  0
   22.7879   74.1732   -4.3157 O   0  0  0  0  0  0  0  0  0  0  0  0
   24.0418   75.1772   -4.4990 P   0  0  2  0  0  0  0  0  0  0  0  0
   25.3186   74.2383   -4.1693 O   0  0  0  0  0  0  0  0  0  0  0  0
   23.9594   76.4237   -3.6664 O   0  0  0  0  0  0  0  0  0  0  0  0
   24.1281   75.4383   -6.0886 O   0  0  0  0  0  0  0  0  0  0  0  0
   23.7797   77.6643   -6.8186 O   0  0  0  0  0  0  0  0  0  0  0  0
   23.5519   75.5690  -10.3718 O   0  0  0  0  0  0  0  0  0  0  0  0
   22.2776   74.5313   -7.9565 O   0  0  0  0  0  0  0  0  0  0  0  0
   25.9343   77.1087   -9.7360 O   0  0  0  0  0  0  0  0  0  0  0  0
   24.0056   75.8403   -9.0458 C   0  0  2  0  0  0  0  0  0  0  0  0
   22.8142   75.8426   -8.0876 C   0  0  2  0  0  0  0  0  0  0  0  0
   24.6877   77.2102   -9.0503 C   0  0  1  0  0  0  0  0  0  0  0  0
   23.2245   76.3534   -6.7057 C   0  0  1  0  0  0  0  0  0  0  0  0
   24.9504   77.7065   -7.6314 C   0  0  1  0  0  0  0  0  0  0  0  0
   23.1149   74.7030  -10.3934 H   0  0  0  0  0  0  0  0  0  0  0  0
   22.0154   74.2009   -8.8297 H   0  0  0  0  0  0  0  0  0  0  0  0
   25.7811   76.7936  -10.6405 H   0  0  0  0  0  0  0  0  0  0  0  0
   24.7021   79.7958   -8.6680 O   0  0  0  0  0  0  0  0  0  0  0  0
   26.0341   79.7035   -6.8197 O   0  0  0  0  0  0  0  0  0  0  0  0
   25.3048   79.1579   -7.6342 C   0  0  0  0  0  0  0  0  0  0  0  0
  1  4  1  0
  1 24  1  0
  1  2  1  6
  1  3  2  0
 25 28  1  0
 25 24  1  0
 25 26  1  1
 25 27  2  0
  6 11  1  0
  6 12  1  0
 29 36  1  0
 29 37  1  0
  9  7  1  6
  7 13  1  0
 10  8  1  1
  8 14  1  0
  4  5  1  0
 36 28  1  6
 33 30  1  6
 30 38  1  0
 34 31  1  1
 31 39  1  0
 35 32  1  6
 32 40  1  0
 41 43  1  0
 15 19  2  0
 42 43  2  0
 16 22  2  0
 12 17  1  6
 17 19  1  0
 17 20  1  0
 18 19  1  0
 18 22  1  0
 18 23  1  0
  9 10  1  0
  9 11  1  0
 10 12  1  0
 11  5  1  6
 33 34  1  0
 33 35  1  0
 34 36  1  0
 35 37  1  0
 37 43  1  6
 20 21  2  0
 21 22  1  0
M  CHG  3   2  -1  26  -1  41  -1
M  END
>  <COMPND>  (4) 
    udp_gluA.pdb 

>  <AUTHOR>  (4) 
    GENERATED BY OPEN BABEL 3.1.1

>  <MASTER>  (4) 
        0    0    0    0    0    0    0    0   56    0   56    0

>  <minimizedAffinity>  (4) 
-6.86805

>  <CNNscore>  (4) 
0.8497682810

>  <CNNaffinity>  (4) 
4.6755504608

>  <CNN_VS>  (4) 
3.9731345177

>  <CNNaffinity_variance>  (4) 
0.1218726262

$$$$
5
     RDKit          3D

 43 45  0  0  0  0  0  0  0  0999 V2000
   21.6343   71.6224   -1.9655 P   0  0  2  0  0  0  0  0  0  0  0  0
   22.4219   70.2689   -2.3737 O   0  0  0  0  0  0  0  0  0  0  0  0
   21.8703   72.0934   -0.5604 O   0  0  0  0  0  0  0  0  0  0  0  0
   20.0950   71.3078   -2.3519 O   0  0  0  0  0  0  0  0  0  0  0  0
   19.5318   71.9635   -3.4732 C   0  0  0  0  0  0  0  0  0  0  0  0
   17.5338   72.0072   -4.8089 O   0  0  0  0  0  0  0  0  0  0  0  0
   16.3007   70.2840   -2.6872 O   0  0  0  0  0  0  0  0  0  0  0  0
   16.9136   68.4801   -4.6381 O   0  0  0  0  0  0  0  0  0  0  0  0
   17.6396   70.2878   -3.1830 C   0  0  1  0  0  0  0  0  0  0  0  0
   17.6910   69.6564   -4.5582 C   0  0  2  0  0  0  0  0  0  0  0  0
   18.0265   71.7301   -3.4800 C   0  0  1  0  0  0  0  0  0  0  0  0
   17.1546   70.7728   -5.4380 C   0  0  2  0  0  0  0  0  0  0  0  0
   16.0311   69.3728   -2.4902 H   0  0  0  0  0  0  0  0  0  0  0  0
   17.2959   67.8000   -4.0608 H   0  0  0  0  0  0  0  0  0  0  0  0
   15.6426   70.3047   -7.7770 O   0  0  0  0  0  0  0  0  0  0  0  0
   19.3643   70.6571  -10.4730 O   0  0  0  0  0  0  0  0  0  0  0  0
   17.7031   70.7368   -6.7642 N   0  0  0  0  0  0  0  0  0  0  0  0
   17.4978   70.4796   -9.1174 N   0  0  0  0  0  0  0  0  0  0  0  0
   16.8567   70.4937   -7.8717 C   0  0  0  0  0  0  0  0  0  0  0  0
   19.0637   70.9425   -6.9578 C   0  0  0  0  0  0  0  0  0  0  0  0
   19.6603   70.9262   -8.1514 C   0  0  0  0  0  0  0  0  0  0  0  0
   18.8474   70.6782   -9.3601 C   0  0  0  0  0  0  0  0  0  0  0  0
   16.9294   70.3103   -9.9033 H   0  0  0  0  0  0  0  0  0  0  0  0
   22.0904   72.6672   -3.1114 O   0  0  0  0  0  0  0  0  0  0  0  0
   22.4575   74.2395   -3.0289 P   0  0  2  0  0  0  0  0  0  0  0  0
   23.9654   74.2368   -2.4401 O   0  0  0  0  0  0  0  0  0  0  0  0
   21.4839   75.0583   -2.2317 O   0  0  0  0  0  0  0  0  0  0  0  0
   22.6213   74.7028   -4.5655 O   0  0  0  0  0  0  0  0  0  0  0  0
   21.0704   75.6804   -6.0648 O   0  0  0  0  0  0  0  0  0  0  0  0
   23.3573   73.3667   -8.6113 O   0  0  0  0  0  0  0  0  0  0  0  0
   22.5275   72.3278   -6.0100 O   0  0  0  0  0  0  0  0  0  0  0  0
   23.7241   76.2495   -8.5338 O   0  0  0  0  0  0  0  0  0  0  0  0
   23.1011   74.1810   -7.4670 C   0  0  2  0  0  0  0  0  0  0  0  0
   22.0277   73.5222   -6.6001 C   0  0  2  0  0  0  0  0  0  0  0  0
   22.6230   75.5493   -7.9578 C   0  0  1  0  0  0  0  0  0  0  0  0
   21.5626   74.4682   -5.4922 C   0  0  1  0  0  0  0  0  0  0  0  0
   22.0582   76.3856   -6.8132 C   0  0  1  0  0  0  0  0  0  0  0  0
   23.6624   72.4917   -8.3239 H   0  0  0  0  0  0  0  0  0  0  0  0
   22.8247   71.7230   -6.7073 H   0  0  0  0  0  0  0  0  0  0  0  0
   24.0929   75.7278   -9.2636 H   0  0  0  0  0  0  0  0  0  0  0  0
   22.1536   78.4832   -7.8584 O   0  0  0  0  0  0  0  0  0  0  0  0
   20.0884   77.6872   -7.3102 O   0  0  0  0  0  0  0  0  0  0  0  0
   21.3036   77.5632   -7.3386 C   0  0  0  0  0  0  0  0  0  0  0  0
  1  4  1  0
  1 24  1  0
  1  2  1  6
  1  3  2  0
 25 28  1  0
 25 24  1  0
 25 26  1  1
 25 27  2  0
  6 11  1  0
  6 12  1  0
 29 36  1  0
 29 37  1  0
  9  7  1  6
  7 13  1  0
 10  8  1  1
  8 14  1  0
  4  5  1  0
 36 28  1  1
 33 30  1  6
 30 38  1  0
 34 31  1  1
 31 39  1  0
 35 32  1  1
 32 40  1  0
 41 43  1  0
 15 19  2  0
 42 43  2  0
 16 22  2  0
 12 17  1  6
 17 19  1  0
 17 20  1  0
 18 19  1  0
 18 22  1  0
 18 23  1  0
  9 10  1  0
  9 11  1  0
 10 12  1  0
 11  5  1  6
 33 34  1  0
 33 35  1  0
 34 36  1  0
 35 37  1  0
 37 43  1  6
 20 21  2  0
 21 22  1  0
M  CHG  3   2  -1  26  -1  41  -1
M  END
>  <COMPND>  (5) 
    udp_gluA.pdb 

>  <AUTHOR>  (5) 
    GENERATED BY OPEN BABEL 3.1.1

>  <MASTER>  (5) 
        0    0    0    0    0    0    0    0   56    0   56    0

>  <minimizedAffinity>  (5) 
-6.01687

>  <CNNscore>  (5) 
0.8461019397

>  <CNNaffinity>  (5) 
4.6193399429

>  <CNN_VS>  (5) 
3.9084324837

>  <CNNaffinity_variance>  (5) 
0.1464764774

$$$$
6
     RDKit          3D

 43 45  0  0  0  0  0  0  0  0999 V2000
   22.9175   72.5942   -4.4542 P   0  0  2  0  0  0  0  0  0  0  0  0
   23.1273   72.4821   -6.0549 O   0  0  0  0  0  0  0  0  0  0  0  0
   23.7674   71.6657   -3.6372 O   0  0  0  0  0  0  0  0  0  0  0  0
   21.3188   72.4372   -4.2600 O   0  0  0  0  0  0  0  0  0  0  0  0
   20.8270   71.2787   -3.6117 C   0  0  0  0  0  0  0  0  0  0  0  0
   18.7273   71.9189   -4.5909 O   0  0  0  0  0  0  0  0  0  0  0  0
   17.4325   70.4453   -2.3229 O   0  0  0  0  0  0  0  0  0  0  0  0
   17.2301   68.6679   -4.3811 O   0  0  0  0  0  0  0  0  0  0  0  0
   18.6290   70.1337   -3.0370 C   0  0  1  0  0  0  0  0  0  0  0  0
   18.2938   69.5964   -4.4122 C   0  0  2  0  0  0  0  0  0  0  0  0
   19.3322   71.4427   -3.3691 C   0  0  1  0  0  0  0  0  0  0  0  0
   17.9404   70.8653   -5.1691 C   0  0  2  0  0  0  0  0  0  0  0  0
   16.9658   69.6243   -2.0997 H   0  0  0  0  0  0  0  0  0  0  0  0
   17.5047   67.8780   -3.8886 H   0  0  0  0  0  0  0  0  0  0  0  0
   16.1739   69.8355   -7.1172 O   0  0  0  0  0  0  0  0  0  0  0  0
   19.2093   70.5503  -10.5112 O   0  0  0  0  0  0  0  0  0  0  0  0
   18.2435   70.7707   -6.5691 N   0  0  0  0  0  0  0  0  0  0  0  0
   17.6878   70.1916   -8.8056 N   0  0  0  0  0  0  0  0  0  0  0  0
   17.2861   70.2375   -7.4641 C   0  0  0  0  0  0  0  0  0  0  0  0
   19.4758   71.2044   -7.0428 C   0  0  0  0  0  0  0  0  0  0  0  0
   19.8443   71.1544   -8.3244 C   0  0  0  0  0  0  0  0  0  0  0  0
   18.9023   70.6102   -9.3244 C   0  0  0  0  0  0  0  0  0  0  0  0
   17.0387   69.8224   -9.4473 H   0  0  0  0  0  0  0  0  0  0  0  0
   23.1662   74.1649   -4.1647 O   0  0  0  0  0  0  0  0  0  0  0  0
   22.9221   75.0507   -2.8345 P   0  0  2  0  0  0  0  0  0  0  0  0
   21.3254   75.3162   -2.8547 O   0  0  0  0  0  0  0  0  0  0  0  0
   23.7554   76.2975   -2.7634 O   0  0  0  0  0  0  0  0  0  0  0  0
   23.1486   74.0235   -1.6114 O   0  0  0  0  0  0  0  0  0  0  0  0
   21.8436   73.2247    0.1964 O   0  0  0  0  0  0  0  0  0  0  0  0
   25.5083   73.8265    2.0064 O   0  0  0  0  0  0  0  0  0  0  0  0
   24.4581   75.7786    0.1035 O   0  0  0  0  0  0  0  0  0  0  0  0
   24.6252   71.1335    1.3590 O   0  0  0  0  0  0  0  0  0  0  0  0
   24.6210   73.5053    0.9351 C   0  0  2  0  0  0  0  0  0  0  0  0
   23.7094   74.6991    0.6502 C   0  0  2  0  0  0  0  0  0  0  0  0
   23.7911   72.2905    1.3565 C   0  0  1  0  0  0  0  0  0  0  0  0
   22.5981   74.3176   -0.3287 C   0  0  1  0  0  0  0  0  0  0  0  0
   22.6278   72.0511    0.3985 C   0  0  1  0  0  0  0  0  0  0  0  0
   26.0462   74.5958    1.7613 H   0  0  0  0  0  0  0  0  0  0  0  0
   25.1652   76.0257    0.7194 H   0  0  0  0  0  0  0  0  0  0  0  0
   25.3698   71.2729    1.9649 H   0  0  0  0  0  0  0  0  0  0  0  0
   20.6440   71.7513    1.6135 O   0  0  0  0  0  0  0  0  0  0  0  0
   21.7279   69.8720    0.9116 O   0  0  0  0  0  0  0  0  0  0  0  0
   21.6468   71.0890    0.9852 C   0  0  0  0  0  0  0  0  0  0  0  0
  1  4  1  0
  1 24  1  0
  1  2  1  6
  1  3  2  0
 25 28  1  0
 25 24  1  0
 25 26  1  6
 25 27  2  0
  6 11  1  0
  6 12  1  0
 29 36  1  0
 29 37  1  0
  9  7  1  1
  7 13  1  0
 10  8  1  1
  8 14  1  0
  4  5  1  0
 36 28  1  6
 33 30  1  1
 30 38  1  0
 34 31  1  6
 31 39  1  0
 35 32  1  6
 32 40  1  0
 41 43  1  0
 15 19  2  0
 42 43  2  0
 16 22  2  0
 12 17  1  6
 17 19  1  0
 17 20  1  0
 18 19  1  0
 18 22  1  0
 18 23  1  0
  9 10  1  0
  9 11  1  0
 10 12  1  0
 11  5  1  6
 33 34  1  0
 33 35  1  0
 34 36  1  0
 35 37  1  0
 37 43  1  1
 20 21  2  0
 21 22  1  0
M  CHG  3   2  -1  26  -1  41  -1
M  END
>  <COMPND>  (6) 
    udp_gluA.pdb 

>  <AUTHOR>  (6) 
    GENERATED BY OPEN BABEL 3.1.1

>  <MASTER>  (6) 
        0    0    0    0    0    0    0    0   56    0   56    0

>  <minimizedAffinity>  (6) 
-7.26377

>  <CNNscore>  (6) 
0.8208839297

>  <CNNaffinity>  (6) 
4.6439704895

>  <CNN_VS>  (6) 
3.8121607304

>  <CNNaffinity_variance>  (6) 
0.0465634130

$$$$
7
     RDKit          3D

 43 45  0  0  0  0  0  0  0  0999 V2000
   22.9367   72.6267   -4.3610 P   0  0  2  0  0  0  0  0  0  0  0  0
   23.3394   72.9958   -5.8843 O   0  0  0  0  0  0  0  0  0  0  0  0
   23.8133   71.6007   -3.7048 O   0  0  0  0  0  0  0  0  0  0  0  0
   21.3654   72.2521   -4.4544 O   0  0  0  0  0  0  0  0  0  0  0  0
   20.8846   71.1588   -3.6941 C   0  0  0  0  0  0  0  0  0  0  0  0
   18.7845   71.8518   -4.6357 O   0  0  0  0  0  0  0  0  0  0  0  0
   17.4934   70.3988   -2.3524 O   0  0  0  0  0  0  0  0  0  0  0  0
   17.2157   68.6356   -4.4139 O   0  0  0  0  0  0  0  0  0  0  0  0
   18.6704   70.0627   -3.0875 C   0  0  1  0  0  0  0  0  0  0  0  0
   18.3001   69.5393   -4.4590 C   0  0  2  0  0  0  0  0  0  0  0  0
   19.3982   71.3565   -3.4260 C   0  0  1  0  0  0  0  0  0  0  0  0
   17.9639   70.8193   -5.2049 C   0  0  2  0  0  0  0  0  0  0  0  0
   17.0115   69.5879   -2.1246 H   0  0  0  0  0  0  0  0  0  0  0  0
   17.4800   67.8374   -3.9291 H   0  0  0  0  0  0  0  0  0  0  0  0
   16.1376   69.8504   -7.1291 O   0  0  0  0  0  0  0  0  0  0  0  0
   19.1368   70.4975  -10.5685 O   0  0  0  0  0  0  0  0  0  0  0  0
   18.2415   70.7237   -6.6101 N   0  0  0  0  0  0  0  0  0  0  0  0
   17.6335   70.1727   -8.8401 N   0  0  0  0  0  0  0  0  0  0  0  0
   17.2550   70.2227   -7.4921 C   0  0  0  0  0  0  0  0  0  0  0  0
   19.4777   71.1250   -7.1017 C   0  0  0  0  0  0  0  0  0  0  0  0
   19.8239   71.0714   -8.3894 C   0  0  0  0  0  0  0  0  0  0  0  0
   18.8509   70.5595   -9.3766 C   0  0  0  0  0  0  0  0  0  0  0  0
   16.9639   69.8255   -9.4730 H   0  0  0  0  0  0  0  0  0  0  0  0
   22.9238   74.0681   -3.6296 O   0  0  0  0  0  0  0  0  0  0  0  0
   23.2063   74.4809   -2.0923 P   0  0  2  0  0  0  0  0  0  0  0  0
   22.0700   75.5945   -1.7935 O   0  0  0  0  0  0  0  0  0  0  0  0
   24.6098   74.9429   -1.8266 O   0  0  0  0  0  0  0  0  0  0  0  0
   22.7510   73.1939   -1.2327 O   0  0  0  0  0  0  0  0  0  0  0  0
   23.6414   73.3519    0.9563 O   0  0  0  0  0  0  0  0  0  0  0  0
   21.7282   69.6926    1.0889 O   0  0  0  0  0  0  0  0  0  0  0  0
   23.2865   70.4647   -1.2584 O   0  0  0  0  0  0  0  0  0  0  0  0
   20.5381   72.0092    2.3805 O   0  0  0  0  0  0  0  0  0  0  0  0
   21.9323   71.0420    0.6700 C   0  0  2  0  0  0  0  0  0  0  0  0
   23.2916   71.1639   -0.0192 C   0  0  2  0  0  0  0  0  0  0  0  0
   21.8831   71.9352    1.9117 C   0  0  1  0  0  0  0  0  0  0  0  0
   23.6455   72.6294   -0.2756 C   0  0  1  0  0  0  0  0  0  0  0  0
   22.3699   73.3478    1.6014 C   0  0  1  0  0  0  0  0  0  0  0  0
   21.7554   69.1064    0.3163 H   0  0  0  0  0  0  0  0  0  0  0  0
   23.0624   69.5341   -1.1032 H   0  0  0  0  0  0  0  0  0  0  0  0
   20.2161   71.1165    2.5814 H   0  0  0  0  0  0  0  0  0  0  0  0
   22.5953   73.2806    3.9351 O   0  0  0  0  0  0  0  0  0  0  0  0
   22.8483   75.3084    2.9237 O   0  0  0  0  0  0  0  0  0  0  0  0
   22.6304   74.1078    2.8611 C   0  0  0  0  0  0  0  0  0  0  0  0
  1  4  1  0
  1 24  1  0
  1  2  1  6
  1  3  2  0
 25 28  1  0
 25 24  1  0
 25 26  1  1
 25 27  2  0
  6 11  1  0
  6 12  1  0
 29 36  1  0
 29 37  1  0
  9  7  1  1
  7 13  1  0
 10  8  1  1
  8 14  1  0
  4  5  1  0
 36 28  1  6
 33 30  1  1
 30 38  1  0
 34 31  1  6
 31 39  1  0
 35 32  1  6
 32 40  1  0
 41 43  1  0
 15 19  2  0
 42 43  2  0
 16 22  2  0
 12 17  1  6
 17 19  1  0
 17 20  1  0
 18 19  1  0
 18 22  1  0
 18 23  1  0
  9 10  1  0
  9 11  1  0
 10 12  1  0
 11  5  1  6
 33 34  1  0
 33 35  1  0
 34 36  1  0
 35 37  1  0
 37 43  1  1
 20 21  2  0
 21 22  1  0
M  CHG  3   2  -1  26  -1  41  -1
M  END
>  <COMPND>  (7) 
    udp_gluA.pdb 

>  <AUTHOR>  (7) 
    GENERATED BY OPEN BABEL 3.1.1

>  <MASTER>  (7) 
        0    0    0    0    0    0    0    0   56    0   56    0

>  <minimizedAffinity>  (7) 
-7.53059

>  <CNNscore>  (7) 
0.8024572730

>  <CNNaffinity>  (7) 
4.6501035690

>  <CNN_VS>  (7) 
3.7315094471

>  <CNNaffinity_variance>  (7) 
0.0526598319

$$$$
8
     RDKit          3D

 43 45  0  0  0  0  0  0  0  0999 V2000
   22.6183   73.3497   -4.1909 P   0  0  2  0  0  0  0  0  0  0  0  0
   22.4302   74.9222   -3.8580 O   0  0  0  0  0  0  0  0  0  0  0  0
   23.8369   73.0147   -4.9998 O   0  0  0  0  0  0  0  0  0  0  0  0
   21.2017   72.9185   -4.8430 O   0  0  0  0  0  0  0  0  0  0  0  0
   20.2016   73.9079   -5.0025 C   0  0  0  0  0  0  0  0  0  0  0  0
   18.0811   72.9975   -5.6747 O   0  0  0  0  0  0  0  0  0  0  0  0
   17.8571   71.9425   -2.8768 O   0  0  0  0  0  0  0  0  0  0  0  0
   18.6345   69.7397   -4.2837 O   0  0  0  0  0  0  0  0  0  0  0  0
   19.0135   72.0706   -3.7044 C   0  0  1  0  0  0  0  0  0  0  0  0
   19.0069   71.0075   -4.7823 C   0  0  2  0  0  0  0  0  0  0  0  0
   18.8698   73.3498   -4.5176 C   0  0  1  0  0  0  0  0  0  0  0  0
   17.9977   71.5667   -5.7706 C   0  0  2  0  0  0  0  0  0  0  0  0
   17.9260   71.1321   -2.3475 H   0  0  0  0  0  0  0  0  0  0  0  0
   19.3087   69.4271   -3.6595 H   0  0  0  0  0  0  0  0  0  0  0  0
   16.1059   70.4074   -7.5181 O   0  0  0  0  0  0  0  0  0  0  0  0
   19.1834   70.0925  -10.9347 O   0  0  0  0  0  0  0  0  0  0  0  0
   18.2777   71.1722   -7.1222 N   0  0  0  0  0  0  0  0  0  0  0  0
   17.6407   70.2507   -9.2178 N   0  0  0  0  0  0  0  0  0  0  0  0
   17.2565   70.5987   -7.9161 C   0  0  0  0  0  0  0  0  0  0  0  0
   19.5505   71.3558   -7.6487 C   0  0  0  0  0  0  0  0  0  0  0  0
   19.9017   71.0192   -8.8914 C   0  0  0  0  0  0  0  0  0  0  0  0
   18.8938   70.4132   -9.7860 C   0  0  0  0  0  0  0  0  0  0  0  0
   16.9473   69.8478   -9.7888 H   0  0  0  0  0  0  0  0  0  0  0  0
   22.5700   72.6611   -2.7292 O   0  0  0  0  0  0  0  0  0  0  0  0
   22.8122   71.1305   -2.2685 P   0  0  2  0  0  0  0  0  0  0  0  0
   24.2687   70.7849   -2.8845 O   0  0  0  0  0  0  0  0  0  0  0  0
   21.7243   70.1829   -2.6840 O   0  0  0  0  0  0  0  0  0  0  0  0
   23.0535   71.2158   -0.6757 O   0  0  0  0  0  0  0  0  0  0  0  0
   23.9559   73.0468    0.5252 O   0  0  0  0  0  0  0  0  0  0  0  0
   24.9883   69.8626    2.9465 O   0  0  0  0  0  0  0  0  0  0  0  0
   25.2434   69.6591    0.0434 O   0  0  0  0  0  0  0  0  0  0  0  0
   22.7946   71.6158    3.6979 O   0  0  0  0  0  0  0  0  0  0  0  0
   24.1799   70.5850    2.0177 C   0  0  2  0  0  0  0  0  0  0  0  0
   24.9857   70.8673    0.7495 C   0  0  2  0  0  0  0  0  0  0  0  0
   23.7547   71.8968    2.6812 C   0  0  1  0  0  0  0  0  0  0  0  0
   24.2369   71.8321   -0.1711 C   0  0  1  0  0  0  0  0  0  0  0  0
   23.1296   72.8549    1.6713 C   0  0  1  0  0  0  0  0  0  0  0  0
   25.2704   69.0248    2.5466 H   0  0  0  0  0  0  0  0  0  0  0  0
   25.7182   69.0422    0.6217 H   0  0  0  0  0  0  0  0  0  0  0  0
   23.1799   71.0068    4.3471 H   0  0  0  0  0  0  0  0  0  0  0  0
   21.7308   74.6439    2.2580 O   0  0  0  0  0  0  0  0  0  0  0  0
   23.9635   74.8995    2.6437 O   0  0  0  0  0  0  0  0  0  0  0  0
   23.0225   74.2315    2.2421 C   0  0  0  0  0  0  0  0  0  0  0  0
  1  4  1  0
  1 24  1  0
  1  2  1  1
  1  3  2  0
 25 28  1  0
 25 24  1  0
 25 26  1  6
 25 27  2  0
  6 11  1  0
  6 12  1  0
 29 36  1  0
 29 37  1  0
  9  7  1  1
  7 13  1  0
 10  8  1  1
  8 14  1  0
  4  5  1  0
 36 28  1  1
 33 30  1  1
 30 38  1  0
 34 31  1  6
 31 39  1  0
 35 32  1  1
 32 40  1  0
 41 43  1  0
 15 19  2  0
 42 43  2  0
 16 22  2  0
 12 17  1  6
 17 19  1  0
 17 20  1  0
 18 19  1  0
 18 22  1  0
 18 23  1  0
  9 10  1  0
  9 11  1  0
 10 12  1  0
 11  5  1  6
 33 34  1  0
 33 35  1  0
 34 36  1  0
 35 37  1  0
 37 43  1  1
 20 21  2  0
 21 22  1  0
M  CHG  3   2  -1  26  -1  41  -1
M  END
>  <COMPND>  (8) 
    udp_gluA.pdb 

>  <AUTHOR>  (8) 
    GENERATED BY OPEN BABEL 3.1.1

>  <MASTER>  (8) 
        0    0    0    0    0    0    0    0   56    0   56    0

>  <minimizedAffinity>  (8) 
-6.87213

>  <CNNscore>  (8) 
0.7629989982

>  <CNNaffinity>  (8) 
4.4658303261

>  <CNN_VS>  (8) 
3.4074239731

>  <CNNaffinity_variance>  (8) 
0.0767828599

$$$$
9
     RDKit          3D

 43 45  0  0  0  0  0  0  0  0999 V2000
   22.9345   72.6888   -4.6716 P   0  0  2  0  0  0  0  0  0  0  0  0
   23.1734   72.5117   -6.2623 O   0  0  0  0  0  0  0  0  0  0  0  0
   23.7737   71.7993   -3.8020 O   0  0  0  0  0  0  0  0  0  0  0  0
   21.3334   72.5321   -4.4993 O   0  0  0  0  0  0  0  0  0  0  0  0
   20.8367   71.4204   -3.7767 C   0  0  0  0  0  0  0  0  0  0  0  0
   18.7415   72.0448   -4.7756 O   0  0  0  0  0  0  0  0  0  0  0  0
   17.4368   70.6775   -2.4475 O   0  0  0  0  0  0  0  0  0  0  0  0
   17.2086   68.8220   -4.4327 O   0  0  0  0  0  0  0  0  0  0  0  0
   18.6277   70.3242   -3.1515 C   0  0  1  0  0  0  0  0  0  0  0  0
   18.2825   69.7364   -4.5034 C   0  0  2  0  0  0  0  0  0  0  0  0
   19.3445   71.6109   -3.5373 C   0  0  1  0  0  0  0  0  0  0  0  0
   17.9412   70.9781   -5.3094 C   0  0  2  0  0  0  0  0  0  0  0  0
   16.9615   69.8714   -2.1906 H   0  0  0  0  0  0  0  0  0  0  0  0
   17.4758   68.0492   -3.9098 H   0  0  0  0  0  0  0  0  0  0  0  0
   16.1369   69.9451   -7.2210 O   0  0  0  0  0  0  0  0  0  0  0  0
   19.1922   70.4334  -10.6373 O   0  0  0  0  0  0  0  0  0  0  0  0
   18.2392   70.8243   -6.7053 N   0  0  0  0  0  0  0  0  0  0  0  0
   17.6607   70.1883   -8.9205 N   0  0  0  0  0  0  0  0  0  0  0  0
   17.2624   70.2949   -7.5814 C   0  0  0  0  0  0  0  0  0  0  0  0
   19.4856   71.1972   -7.1936 C   0  0  0  0  0  0  0  0  0  0  0  0
   19.8506   71.0897   -8.4726 C   0  0  0  0  0  0  0  0  0  0  0  0
   18.8888   70.5452   -9.4533 C   0  0  0  0  0  0  0  0  0  0  0  0
   16.9982   69.8205   -9.5491 H   0  0  0  0  0  0  0  0  0  0  0  0
   23.1713   74.2714   -4.4431 O   0  0  0  0  0  0  0  0  0  0  0  0
   22.6949   75.2548   -3.2516 P   0  0  2  0  0  0  0  0  0  0  0  0
   21.3341   75.9097   -3.8344 O   0  0  0  0  0  0  0  0  0  0  0  0
   23.7307   76.2556   -2.8279 O   0  0  0  0  0  0  0  0  0  0  0  0
   22.2002   74.2654   -2.0774 O   0  0  0  0  0  0  0  0  0  0  0  0
   20.8358   75.5665   -0.6441 O   0  0  0  0  0  0  0  0  0  0  0  0
   20.5827   71.8358    1.1125 O   0  0  0  0  0  0  0  0  0  0  0  0
   23.1406   72.8311    0.1122 O   0  0  0  0  0  0  0  0  0  0  0  0
   18.3592   72.8663   -0.4512 O   0  0  0  0  0  0  0  0  0  0  0  0
   20.7167   72.7623    0.0348 C   0  0  2  0  0  0  0  0  0  0  0  0
   21.9642   73.6198    0.2492 C   0  0  2  0  0  0  0  0  0  0  0  0
   19.4645   73.6417    0.0086 C   0  0  1  0  0  0  0  0  0  0  0  0
   22.0164   74.7709   -0.7563 C   0  0  1  0  0  0  0  0  0  0  0  0
   19.6427   74.8372   -0.9228 C   0  0  1  0  0  0  0  0  0  0  0  0
   21.3672   71.2661    1.1489 H   0  0  0  0  0  0  0  0  0  0  0  0
   23.1141   72.0986    0.7472 H   0  0  0  0  0  0  0  0  0  0  0  0
   18.2351   72.1020    0.1331 H   0  0  0  0  0  0  0  0  0  0  0  0
   19.0575   76.9237   -0.0252 O   0  0  0  0  0  0  0  0  0  0  0  0
   17.4090   75.7384   -1.0629 O   0  0  0  0  0  0  0  0  0  0  0  0
   18.5690   75.8511   -0.6959 C   0  0  0  0  0  0  0  0  0  0  0  0
  1  4  1  0
  1 24  1  0
  1  2  1  6
  1  3  2  0
 25 28  1  0
 25 24  1  0
 25 26  1  6
 25 27  2  0
  6 11  1  0
  6 12  1  0
 29 36  1  0
 29 37  1  0
  9  7  1  1
  7 13  1  0
 10  8  1  1
  8 14  1  0
  4  5  1  0
 36 28  1  6
 33 30  1  1
 30 38  1  0
 34 31  1  6
 31 39  1  0
 35 32  1  6
 32 40  1  0
 41 43  1  0
 15 19  2  0
 42 43  2  0
 16 22  2  0
 12 17  1  6
 17 19  1  0
 17 20  1  0
 18 19  1  0
 18 22  1  0
 18 23  1  0
  9 10  1  0
  9 11  1  0
 10 12  1  0
 11  5  1  6
 33 34  1  0
 33 35  1  0
 34 36  1  0
 35 37  1  0
 37 43  1  1
 20 21  2  0
 21 22  1  0
M  CHG  3   2  -1  26  -1  41  -1
M  END
>  <COMPND>  (9) 
    udp_gluA.pdb 

>  <AUTHOR>  (9) 
    GENERATED BY OPEN BABEL 3.1.1

>  <MASTER>  (9) 
        0    0    0    0    0    0    0    0   56    0   56    0

>  <minimizedAffinity>  (9) 
-6.00235

>  <CNNscore>  (9) 
0.7208561301

>  <CNNaffinity>  (9) 
4.4742946625

>  <CNN_VS>  (9) 
3.2253227234

>  <CNNaffinity_variance>  (9) 
0.1159140915

$$$$
10
     RDKit          3D

 43 45  0  0  0  0  0  0  0  0999 V2000
   22.7969   72.4068   -4.0838 P   0  0  2  0  0  0  0  0  0  0  0  0
   23.2599   72.5352   -5.6291 O   0  0  0  0  0  0  0  0  0  0  0  0
   23.4557   71.2992   -3.3150 O   0  0  0  0  0  0  0  0  0  0  0  0
   21.1823   72.3412   -4.1661 O   0  0  0  0  0  0  0  0  0  0  0  0
   20.5333   71.1456   -3.7739 C   0  0  0  0  0  0  0  0  0  0  0  0
   18.5465   71.9214   -4.8822 O   0  0  0  0  0  0  0  0  0  0  0  0
   17.0173   70.5673   -2.6869 O   0  0  0  0  0  0  0  0  0  0  0  0
   16.8127   68.7864   -4.7418 O   0  0  0  0  0  0  0  0  0  0  0  0
   18.2292   70.1646   -3.3254 C   0  0  1  0  0  0  0  0  0  0  0  0
   17.9395   69.6373   -4.7147 C   0  0  2  0  0  0  0  0  0  0  0  0
   19.0420   71.4172   -3.6231 C   0  0  1  0  0  0  0  0  0  0  0  0
   17.7229   70.9197   -5.4999 C   0  0  2  0  0  0  0  0  0  0  0  0
   16.4810   69.7837   -2.4868 H   0  0  0  0  0  0  0  0  0  0  0  0
   17.0007   67.9845   -4.2284 H   0  0  0  0  0  0  0  0  0  0  0  0
   16.0007   70.0164   -7.5480 O   0  0  0  0  0  0  0  0  0  0  0  0
   19.2834   70.4571  -10.7533 O   0  0  0  0  0  0  0  0  0  0  0  0
   18.1016   70.7888   -6.8784 N   0  0  0  0  0  0  0  0  0  0  0  0
   17.6376   70.2358   -9.1423 N   0  0  0  0  0  0  0  0  0  0  0  0
   17.1604   70.3255   -7.8280 C   0  0  0  0  0  0  0  0  0  0  0  0
   19.3909   71.1188   -7.2778 C   0  0  0  0  0  0  0  0  0  0  0  0
   19.8311   71.0281   -8.5343 C   0  0  0  0  0  0  0  0  0  0  0  0
   18.9109   70.5518   -9.5877 C   0  0  0  0  0  0  0  0  0  0  0  0
   17.0011   69.9137   -9.8209 H   0  0  0  0  0  0  0  0  0  0  0  0
   23.0711   73.8884   -3.4986 O   0  0  0  0  0  0  0  0  0  0  0  0
   22.0996   74.9174   -2.7168 P   0  0  2  0  0  0  0  0  0  0  0  0
   20.6328   74.5551   -3.2978 O   0  0  0  0  0  0  0  0  0  0  0  0
   22.4843   76.3610   -2.8654 O   0  0  0  0  0  0  0  0  0  0  0  0
   22.0779   74.3836   -1.1947 O   0  0  0  0  0  0  0  0  0  0  0  0
   22.3518   72.1944   -0.3335 O   0  0  0  0  0  0  0  0  0  0  0  0
   19.7019   73.8382    2.3764 O   0  0  0  0  0  0  0  0  0  0  0  0
   19.3888   74.3307   -0.4861 O   0  0  0  0  0  0  0  0  0  0  0  0
   22.4981   73.4959    3.0939 O   0  0  0  0  0  0  0  0  0  0  0  0
   20.7802   73.8436    1.4408 C   0  0  2  0  0  0  0  0  0  0  0  0
   20.2764   73.3715    0.0767 C   0  0  2  0  0  0  0  0  0  0  0  0
   21.8647   72.8991    1.9638 C   0  0  1  0  0  0  0  0  0  0  0  0
   21.4412   73.1445   -0.8880 C   0  0  1  0  0  0  0  0  0  0  0  0
   22.9237   72.6236    0.9001 C   0  0  1  0  0  0  0  0  0  0  0  0
   19.0004   74.4317    2.0649 H   0  0  0  0  0  0  0  0  0  0  0  0
   18.6474   74.4798    0.1209 H   0  0  0  0  0  0  0  0  0  0  0  0
   21.8350   73.6765    3.7783 H   0  0  0  0  0  0  0  0  0  0  0  0
   23.1883   70.7417    2.2749 O   0  0  0  0  0  0  0  0  0  0  0  0
   24.8677   71.1979    0.8016 O   0  0  0  0  0  0  0  0  0  0  0  0
   23.7815   71.4652    1.2932 C   0  0  0  0  0  0  0  0  0  0  0  0
  1  4  1  0
  1 24  1  0
  1  2  1  6
  1  3  2  0
 25 28  1  0
 25 24  1  0
 25 26  1  6
 25 27  2  0
  6 11  1  0
  6 12  1  0
 29 36  1  0
 29 37  1  0
  9  7  1  6
  7 13  1  0
 10  8  1  1
  8 14  1  0
  4  5  1  0
 36 28  1  1
 33 30  1  1
 30 38  1  0
 34 31  1  6
 31 39  1  0
 35 32  1  1
 32 40  1  0
 41 43  1  0
 15 19  2  0
 42 43  2  0
 16 22  2  0
 12 17  1  6
 17 19  1  0
 17 20  1  0
 18 19  1  0
 18 22  1  0
 18 23  1  0
  9 10  1  0
  9 11  1  0
 10 12  1  0
 11  5  1  6
 33 34  1  0
 33 35  1  0
 34 36  1  0
 35 37  1  0
 37 43  1  1
 20 21  2  0
 21 22  1  0
M  CHG  3   2  -1  26  -1  41  -1
M  END
>  <COMPND>  (10) 
    udp_gluA.pdb 

>  <AUTHOR>  (10) 
    GENERATED BY OPEN BABEL 3.1.1

>  <MASTER>  (10) 
        0    0    0    0    0    0    0    0   56    0   56    0

>  <minimizedAffinity>  (10) 
-6.65774

>  <CNNscore>  (10) 
0.7154964805

>  <CNNaffinity>  (10) 
4.4509453773

>  <CNN_VS>  (10) 
3.1846356392

>  <CNNaffinity_variance>  (10) 
0.0134049673

$$$$
11
     RDKit          3D

 43 45  0  0  0  0  0  0  0  0999 V2000
   20.9962   72.8715   -5.2164 P   0  0  2  0  0  0  0  0  0  0  0  0
   20.0782   72.6771   -3.8979 O   0  0  0  0  0  0  0  0  0  0  0  0
   20.9524   74.2437   -5.8221 O   0  0  0  0  0  0  0  0  0  0  0  0
   20.5424   71.6598   -6.1879 O   0  0  0  0  0  0  0  0  0  0  0  0
   20.1198   71.9698   -7.5031 C   0  0  0  0  0  0  0  0  0  0  0  0
   18.8862   69.9613   -7.0324 O   0  0  0  0  0  0  0  0  0  0  0  0
   18.0804   70.0012   -9.9205 O   0  0  0  0  0  0  0  0  0  0  0  0
   15.8722   71.0016   -8.6718 O   0  0  0  0  0  0  0  0  0  0  0  0
   18.2766   71.0933   -9.0219 C   0  0  1  0  0  0  0  0  0  0  0  0
   17.1243   71.1806   -8.0436 C   0  0  2  0  0  0  0  0  0  0  0  0
   19.4443   70.7461   -8.1085 C   0  0  1  0  0  0  0  0  0  0  0  0
   17.4539   70.0641   -7.0676 C   0  0  2  0  0  0  0  0  0  0  0  0
   17.3391   70.1999  -10.5143 H   0  0  0  0  0  0  0  0  0  0  0  0
   15.7087   71.7378   -9.2827 H   0  0  0  0  0  0  0  0  0  0  0  0
   16.3743   68.1136   -5.3337 O   0  0  0  0  0  0  0  0  0  0  0  0
   15.6380   71.2163   -2.0057 O   0  0  0  0  0  0  0  0  0  0  0  0
   16.9725   70.3347   -5.7425 N   0  0  0  0  0  0  0  0  0  0  0  0
   16.0077   69.6609   -3.6782 N   0  0  0  0  0  0  0  0  0  0  0  0
   16.4490   69.2835   -4.9533 C   0  0  0  0  0  0  0  0  0  0  0  0
   17.0231   71.6281   -5.2369 C   0  0  0  0  0  0  0  0  0  0  0  0
   16.5987   71.9725   -4.0195 C   0  0  0  0  0  0  0  0  0  0  0  0
   16.0369   70.9337   -3.1315 C   0  0  0  0  0  0  0  0  0  0  0  0
   15.6372   68.9465   -3.1110 H   0  0  0  0  0  0  0  0  0  0  0  0
   22.4592   72.4044   -4.7120 O   0  0  0  0  0  0  0  0  0  0  0  0
   23.4788   73.0719   -3.6497 P   0  0  2  0  0  0  0  0  0  0  0  0
   22.6995   74.4107   -3.1800 O   0  0  0  0  0  0  0  0  0  0  0  0
   24.8580   73.3166   -4.1901 O   0  0  0  0  0  0  0  0  0  0  0  0
   23.4263   72.0981   -2.3646 O   0  0  0  0  0  0  0  0  0  0  0  0
   23.8103   69.7656   -2.5102 O   0  0  0  0  0  0  0  0  0  0  0  0
   21.6970   70.0505    1.0282 O   0  0  0  0  0  0  0  0  0  0  0  0
   20.9003   71.6206   -1.3029 O   0  0  0  0  0  0  0  0  0  0  0  0
   24.5694   69.6058    1.0759 O   0  0  0  0  0  0  0  0  0  0  0  0
   22.5966   70.4861    0.0090 C   0  0  2  0  0  0  0  0  0  0  0  0
   21.8566   70.5672   -1.3264 C   0  0  2  0  0  0  0  0  0  0  0  0
   23.7402   69.4727   -0.0770 C   0  0  1  0  0  0  0  0  0  0  0  0
   22.8326   70.8062   -2.4792 C   0  0  1  0  0  0  0  0  0  0  0  0
   24.5941   69.7006   -1.3209 C   0  0  1  0  0  0  0  0  0  0  0  0
   20.9617   70.6793    1.1010 H   0  0  0  0  0  0  0  0  0  0  0  0
   20.2779   71.4756   -0.5736 H   0  0  0  0  0  0  0  0  0  0  0  0
   24.0379   69.4632    1.8747 H   0  0  0  0  0  0  0  0  0  0  0  0
   26.1751   68.6926   -2.7302 O   0  0  0  0  0  0  0  0  0  0  0  0
   25.5945   67.5586   -0.8392 O   0  0  0  0  0  0  0  0  0  0  0  0
   25.4885   68.5304   -1.5721 C   0  0  0  0  0  0  0  0  0  0  0  0
  1  4  1  0
  1 24  1  0
  1  2  1  1
  1  3  2  0
 25 28  1  0
 25 24  1  0
 25 26  1  1
 25 27  2  0
  6 11  1  0
  6 12  1  0
 29 36  1  0
 29 37  1  0
  9  7  1  6
  7 13  1  0
 10  8  1  6
  8 14  1  0
  4  5  1  0
 36 28  1  1
 33 30  1  1
 30 38  1  0
 34 31  1  1
 31 39  1  0
 35 32  1  1
 32 40  1  0
 41 43  1  0
 15 19  2  0
 42 43  2  0
 16 22  2  0
 12 17  1  1
 17 19  1  0
 17 20  1  0
 18 19  1  0
 18 22  1  0
 18 23  1  0
  9 10  1  0
  9 11  1  0
 10 12  1  0
 11  5  1  1
 33 34  1  0
 33 35  1  0
 34 36  1  0
 35 37  1  0
 37 43  1  6
 20 21  2  0
 21 22  1  0
M  CHG  3   2  -1  26  -1  41  -1
M  END
>  <COMPND>  (11) 
    udp_gluA.pdb 

>  <AUTHOR>  (11) 
    GENERATED BY OPEN BABEL 3.1.1

>  <MASTER>  (11) 
        0    0    0    0    0    0    0    0   56    0   56    0

>  <minimizedAffinity>  (11) 
-8.77234

>  <CNNscore>  (11) 
0.6254686117

>  <CNNaffinity>  (11) 
4.3260908127

>  <CNN_VS>  (11) 
2.7058339119

>  <CNNaffinity_variance>  (11) 
0.5014982820

$$$$
12
     RDKit          3D

 43 45  0  0  0  0  0  0  0  0999 V2000
   21.6145   72.2923   -5.5552 P   0  0  2  0  0  0  0  0  0  0  0  0
   20.5953   73.5491   -5.5284 O   0  0  0  0  0  0  0  0  0  0  0  0
   23.0343   72.6201   -5.1967 O   0  0  0  0  0  0  0  0  0  0  0  0
   21.3917   71.6425   -7.0201 O   0  0  0  0  0  0  0  0  0  0  0  0
   20.2290   71.9957   -7.7467 C   0  0  0  0  0  0  0  0  0  0  0  0
   19.0176   70.0374   -7.0575 O   0  0  0  0  0  0  0  0  0  0  0  0
   18.1037   69.8277   -9.9057 O   0  0  0  0  0  0  0  0  0  0  0  0
   15.9422   70.9359   -8.6663 O   0  0  0  0  0  0  0  0  0  0  0  0
   18.3315   70.9933   -9.1132 C   0  0  1  0  0  0  0  0  0  0  0  0
   17.2167   71.1669   -8.1036 C   0  0  2  0  0  0  0  0  0  0  0  0
   19.5334   70.7250   -8.2178 C   0  0  1  0  0  0  0  0  0  0  0  0
   17.5848   70.1388   -7.0475 C   0  0  2  0  0  0  0  0  0  0  0  0
   17.3402   69.9752  -10.4862 H   0  0  0  0  0  0  0  0  0  0  0  0
   15.7545   71.6166   -9.3322 H   0  0  0  0  0  0  0  0  0  0  0  0
   16.4990   68.3611   -5.1403 O   0  0  0  0  0  0  0  0  0  0  0  0
   15.9624   71.7279   -2.0385 O   0  0  0  0  0  0  0  0  0  0  0  0
   17.1531   70.5241   -5.7337 N   0  0  0  0  0  0  0  0  0  0  0  0
   16.2319   70.0398   -3.5976 N   0  0  0  0  0  0  0  0  0  0  0  0
   16.6218   69.5531   -4.8522 C   0  0  0  0  0  0  0  0  0  0  0  0
   17.2595   71.8494   -5.3296 C   0  0  0  0  0  0  0  0  0  0  0  0
   16.8837   72.2982   -4.1304 C   0  0  0  0  0  0  0  0  0  0  0  0
   16.3174   71.3483   -3.1503 C   0  0  0  0  0  0  0  0  0  0  0  0
   15.8570   69.3828   -2.9674 H   0  0  0  0  0  0  0  0  0  0  0  0
   20.9010   71.2256   -4.5723 O   0  0  0  0  0  0  0  0  0  0  0  0
   20.5261   71.3146   -3.0022 P   0  0  2  0  0  0  0  0  0  0  0  0
   19.3979   70.1673   -2.8257 O   0  0  0  0  0  0  0  0  0  0  0  0
   20.0963   72.6795   -2.5481 O   0  0  0  0  0  0  0  0  0  0  0  0
   21.8221   70.7322   -2.2383 O   0  0  0  0  0  0  0  0  0  0  0  0
   22.6187   71.7698   -0.2639 O   0  0  0  0  0  0  0  0  0  0  0  0
   25.9019   69.5500   -1.4306 O   0  0  0  0  0  0  0  0  0  0  0  0
   24.3299   71.0193   -3.4064 O   0  0  0  0  0  0  0  0  0  0  0  0
   24.2490   68.6553    0.7871 O   0  0  0  0  0  0  0  0  0  0  0  0
   24.5126   69.8467   -1.2904 C   0  0  2  0  0  0  0  0  0  0  0  0
   24.1970   71.1652   -1.9973 C   0  0  2  0  0  0  0  0  0  0  0  0
   24.2008   69.9560    0.2039 C   0  0  1  0  0  0  0  0  0  0  0  0
   22.7763   71.6315   -1.6766 C   0  0  1  0  0  0  0  0  0  0  0  0
   22.8139   70.5463    0.4418 C   0  0  1  0  0  0  0  0  0  0  0  0
   26.1235   69.4759   -2.3722 H   0  0  0  0  0  0  0  0  0  0  0  0
   25.2290   70.7234   -3.6171 H   0  0  0  0  0  0  0  0  0  0  0  0
   25.1266   68.2684    0.6425 H   0  0  0  0  0  0  0  0  0  0  0  0
   21.3880   71.3986    2.0977 O   0  0  0  0  0  0  0  0  0  0  0  0
   23.5217   70.8925    2.7223 O   0  0  0  0  0  0  0  0  0  0  0  0
   22.6483   70.9527    1.8700 C   0  0  0  0  0  0  0  0  0  0  0  0
  1  4  1  0
  1 24  1  0
  1  2  1  6
  1  3  2  0
 25 28  1  0
 25 24  1  0
 25 26  1  6
 25 27  2  0
  6 11  1  0
  6 12  1  0
 29 36  1  0
 29 37  1  0
  9  7  1  6
  7 13  1  0
 10  8  1  6
  8 14  1  0
  4  5  1  0
 36 28  1  1
 33 30  1  1
 30 38  1  0
 34 31  1  6
 31 39  1  0
 35 32  1  6
 32 40  1  0
 41 43  1  0
 15 19  2  0
 42 43  2  0
 16 22  2  0
 12 17  1  1
 17 19  1  0
 17 20  1  0
 18 19  1  0
 18 22  1  0
 18 23  1  0
  9 10  1  0
  9 11  1  0
 10 12  1  0
 11  5  1  1
 33 34  1  0
 33 35  1  0
 34 36  1  0
 35 37  1  0
 37 43  1  1
 20 21  2  0
 21 22  1  0
M  CHG  3   2  -1  26  -1  41  -1
M  END
>  <COMPND>  (12) 
    udp_gluA.pdb 

>  <AUTHOR>  (12) 
    GENERATED BY OPEN BABEL 3.1.1

>  <MASTER>  (12) 
        0    0    0    0    0    0    0    0   56    0   56    0

>  <minimizedAffinity>  (12) 
-7.83414

>  <CNNscore>  (12) 
0.6187965870

>  <CNNaffinity>  (12) 
4.3955421448

>  <CNN_VS>  (12) 
2.7199463844

>  <CNNaffinity_variance>  (12) 
0.2260135412

$$$$
13
     RDKit          3D

 43 45  0  0  0  0  0  0  0  0999 V2000
   21.6964   72.6318   -5.4450 P   0  0  2  0  0  0  0  0  0  0  0  0
   21.2890   74.1971   -5.3904 O   0  0  0  0  0  0  0  0  0  0  0  0
   22.9889   72.3377   -6.1483 O   0  0  0  0  0  0  0  0  0  0  0  0
   20.3837   71.9098   -6.0561 O   0  0  0  0  0  0  0  0  0  0  0  0
   20.1537   71.9932   -7.4506 C   0  0  0  0  0  0  0  0  0  0  0  0
   18.8281   70.1079   -6.7680 O   0  0  0  0  0  0  0  0  0  0  0  0
   18.1306   69.7851   -9.6664 O   0  0  0  0  0  0  0  0  0  0  0  0
   15.9179   71.0164   -8.6546 O   0  0  0  0  0  0  0  0  0  0  0  0
   18.3353   70.9812   -8.9140 C   0  0  1  0  0  0  0  0  0  0  0  0
   17.1521   71.2372   -8.0046 C   0  0  2  0  0  0  0  0  0  0  0  0
   19.4547   70.7220   -7.9150 C   0  0  1  0  0  0  0  0  0  0  0  0
   17.4030   70.2520   -6.8758 C   0  0  2  0  0  0  0  0  0  0  0  0
   17.4197   69.9263  -10.3116 H   0  0  0  0  0  0  0  0  0  0  0  0
   15.8050   71.6687   -9.3644 H   0  0  0  0  0  0  0  0  0  0  0  0
   16.9066   68.5901   -4.6468 O   0  0  0  0  0  0  0  0  0  0  0  0
   15.4114   72.1340   -2.1072 O   0  0  0  0  0  0  0  0  0  0  0  0
   16.8841   70.7142   -5.6196 N   0  0  0  0  0  0  0  0  0  0  0  0
   16.1614   70.3566   -3.3844 N   0  0  0  0  0  0  0  0  0  0  0  0
   16.6709   69.7969   -4.5635 C   0  0  0  0  0  0  0  0  0  0  0  0
   16.5938   72.0615   -5.4427 C   0  0  0  0  0  0  0  0  0  0  0  0
   16.1087   72.5801   -4.3128 C   0  0  0  0  0  0  0  0  0  0  0  0
   15.8566   71.6895   -3.1611 C   0  0  0  0  0  0  0  0  0  0  0  0
   16.0028   69.7372   -2.6357 H   0  0  0  0  0  0  0  0  0  0  0  0
   21.6613   72.1933   -3.8895 O   0  0  0  0  0  0  0  0  0  0  0  0
   20.6626   71.2074   -3.0870 P   0  0  2  0  0  0  0  0  0  0  0  0
   20.8999   69.7761   -3.8050 O   0  0  0  0  0  0  0  0  0  0  0  0
   19.2315   71.6610   -3.0700 O   0  0  0  0  0  0  0  0  0  0  0  0
   21.3313   71.0467   -1.6277 O   0  0  0  0  0  0  0  0  0  0  0  0
   21.5458   73.1869   -0.6364 O   0  0  0  0  0  0  0  0  0  0  0  0
   23.2410   70.7542    2.2405 O   0  0  0  0  0  0  0  0  0  0  0  0
   23.8063   70.3138   -0.5917 O   0  0  0  0  0  0  0  0  0  0  0  0
   20.5717   71.8367    2.6332 O   0  0  0  0  0  0  0  0  0  0  0  0
   22.3442   71.0905    1.1818 C   0  0  2  0  0  0  0  0  0  0  0  0
   23.1435   71.4590   -0.0683 C   0  0  2  0  0  0  0  0  0  0  0  0
   21.4956   72.2785    1.6404 C   0  0  1  0  0  0  0  0  0  0  0  0
   22.2318   72.0436   -1.1480 C   0  0  1  0  0  0  0  0  0  0  0  0
   20.7117   72.8842    0.4797 C   0  0  1  0  0  0  0  0  0  0  0  0
   23.7909   70.0014    1.9718 H   0  0  0  0  0  0  0  0  0  0  0  0
   24.3863   69.9375    0.0883 H   0  0  0  0  0  0  0  0  0  0  0  0
   21.0579   71.4489    3.3775 H   0  0  0  0  0  0  0  0  0  0  0  0
   19.2510   74.0963    1.8576 O   0  0  0  0  0  0  0  0  0  0  0  0
   20.4682   75.2803    0.3359 O   0  0  0  0  0  0  0  0  0  0  0  0
   20.1553   74.2191    0.8546 C   0  0  0  0  0  0  0  0  0  0  0  0
  1  4  1  0
  1 24  1  0
  1  2  1  1
  1  3  2  0
 25 28  1  0
 25 24  1  0
 25 26  1  6
 25 27  2  0
  6 11  1  0
  6 12  1  0
 29 36  1  0
 29 37  1  0
  9  7  1  6
  7 13  1  0
 10  8  1  6
  8 14  1  0
  4  5  1  0
 36 28  1  1
 33 30  1  1
 30 38  1  0
 34 31  1  6
 31 39  1  0
 35 32  1  1
 32 40  1  0
 41 43  1  0
 15 19  2  0
 42 43  2  0
 16 22  2  0
 12 17  1  1
 17 19  1  0
 17 20  1  0
 18 19  1  0
 18 22  1  0
 18 23  1  0
  9 10  1  0
  9 11  1  0
 10 12  1  0
 11  5  1  1
 33 34  1  0
 33 35  1  0
 34 36  1  0
 35 37  1  0
 37 43  1  1
 20 21  2  0
 21 22  1  0
M  CHG  3   2  -1  26  -1  41  -1
M  END
>  <COMPND>  (13) 
    udp_gluA.pdb 

>  <AUTHOR>  (13) 
    GENERATED BY OPEN BABEL 3.1.1

>  <MASTER>  (13) 
        0    0    0    0    0    0    0    0   56    0   56    0

>  <minimizedAffinity>  (13) 
-6.93191

>  <CNNscore>  (13) 
0.5399013758

>  <CNNaffinity>  (13) 
4.3181176186

>  <CNN_VS>  (13) 
2.3313577175

>  <CNNaffinity_variance>  (13) 
0.2967361808

$$$$
14
     RDKit          3D

 43 45  0  0  0  0  0  0  0  0999 V2000
   23.2754   73.1572   -3.8829 P   0  0  2  0  0  0  0  0  0  0  0  0
   23.9656   71.7050   -3.6999 O   0  0  0  0  0  0  0  0  0  0  0  0
   24.0976   74.1587   -4.6398 O   0  0  0  0  0  0  0  0  0  0  0  0
   22.8605   73.5826   -2.3779 O   0  0  0  0  0  0  0  0  0  0  0  0
   21.8172   74.5238   -2.2046 C   0  0  0  0  0  0  0  0  0  0  0  0
   21.1068   72.5808   -0.9807 O   0  0  0  0  0  0  0  0  0  0  0  0
   18.7634   74.2269   -0.0917 O   0  0  0  0  0  0  0  0  0  0  0  0
   20.4136   74.3193    2.0772 O   0  0  0  0  0  0  0  0  0  0  0  0
   20.1155   74.6269   -0.3162 C   0  0  1  0  0  0  0  0  0  0  0  0
   21.0019   74.1321    0.8070 C   0  0  2  0  0  0  0  0  0  0  0  0
   20.6453   73.8431   -1.5091 C   0  0  1  0  0  0  0  0  0  0  0  0
   21.1717   72.6648    0.4518 C   0  0  2  0  0  0  0  0  0  0  0  0
   18.4032   74.7145    0.6661 H   0  0  0  0  0  0  0  0  0  0  0  0
   20.3274   75.2692    2.2567 H   0  0  0  0  0  0  0  0  0  0  0  0
   21.6380   69.9438    1.0476 O   0  0  0  0  0  0  0  0  0  0  0  0
   26.0428   70.7492    2.1401 O   0  0  0  0  0  0  0  0  0  0  0  0
   22.4309   72.1361    0.8939 N   0  0  0  0  0  0  0  0  0  0  0  0
   23.8311   70.3477    1.5921 N   0  0  0  0  0  0  0  0  0  0  0  0
   22.5594   70.7536    1.1666 C   0  0  0  0  0  0  0  0  0  0  0  0
   23.5216   72.9826    1.0517 C   0  0  0  0  0  0  0  0  0  0  0  0
   24.7276   72.5810    1.4581 C   0  0  0  0  0  0  0  0  0  0  0  0
   24.9459   71.1521    1.7646 C   0  0  0  0  0  0  0  0  0  0  0  0
   23.9444   69.3899    1.7900 H   0  0  0  0  0  0  0  0  0  0  0  0
   21.8539   72.8002   -4.5645 O   0  0  0  0  0  0  0  0  0  0  0  0
   21.1832   73.3037   -5.9467 P   0  0  2  0  0  0  0  0  0  0  0  0
   22.2281   72.7925   -7.0724 O   0  0  0  0  0  0  0  0  0  0  0  0
   20.8974   74.7768   -5.9917 O   0  0  0  0  0  0  0  0  0  0  0  0
   19.8861   72.3638   -6.1384 O   0  0  0  0  0  0  0  0  0  0  0  0
   19.4059   70.1679   -5.3924 O   0  0  0  0  0  0  0  0  0  0  0  0
   17.5166   70.2399   -9.0658 O   0  0  0  0  0  0  0  0  0  0  0  0
   20.1678   71.4231   -8.7406 O   0  0  0  0  0  0  0  0  0  0  0  0
   15.9588   70.4400   -6.6195 O   0  0  0  0  0  0  0  0  0  0  0  0
   18.0063   70.7865   -7.8413 C   0  0  2  0  0  0  0  0  0  0  0  0
   19.5229   70.6060   -7.7705 C   0  0  2  0  0  0  0  0  0  0  0  0
   17.3277   70.0449   -6.6874 C   0  0  1  0  0  0  0  0  0  0  0  0
   20.0528   70.9684   -6.3825 C   0  0  1  0  0  0  0  0  0  0  0  0
   17.9941   70.3631   -5.3521 C   0  0  1  0  0  0  0  0  0  0  0  0
   17.9341   70.6959   -9.8134 H   0  0  0  0  0  0  0  0  0  0  0  0
   19.8361   71.1988   -9.6238 H   0  0  0  0  0  0  0  0  0  0  0  0
   15.5232   70.2430   -7.4634 H   0  0  0  0  0  0  0  0  0  0  0  0
   18.6000   69.0299   -3.5198 O   0  0  0  0  0  0  0  0  0  0  0  0
   16.4075   69.0035   -4.1456 O   0  0  0  0  0  0  0  0  0  0  0  0
   17.5526   69.4022   -4.2966 C   0  0  0  0  0  0  0  0  0  0  0  0
  1  4  1  0
  1 24  1  0
  1  2  1  1
  1  3  2  0
 25 28  1  0
 25 24  1  0
 25 26  1  6
 25 27  2  0
  6 11  1  0
  6 12  1  0
 29 36  1  0
 29 37  1  0
  9  7  1  1
  7 13  1  0
 10  8  1  1
  8 14  1  0
  4  5  1  0
 36 28  1  1
 33 30  1  6
 30 38  1  0
 34 31  1  6
 31 39  1  0
 35 32  1  1
 32 40  1  0
 41 43  1  0
 15 19  2  0
 42 43  2  0
 16 22  2  0
 12 17  1  6
 17 19  1  0
 17 20  1  0
 18 19  1  0
 18 22  1  0
 18 23  1  0
  9 10  1  0
  9 11  1  0
 10 12  1  0
 11  5  1  1
 33 34  1  0
 33 35  1  0
 34 36  1  0
 35 37  1  0
 37 43  1  1
 20 21  2  0
 21 22  1  0
M  CHG  3   2  -1  26  -1  41  -1
M  END
>  <COMPND>  (14) 
    udp_gluA.pdb 

>  <AUTHOR>  (14) 
    GENERATED BY OPEN BABEL 3.1.1

>  <MASTER>  (14) 
        0    0    0    0    0    0    0    0   56    0   56    0

>  <minimizedAffinity>  (14) 
-7.48712

>  <CNNscore>  (14) 
0.5127231479

>  <CNNaffinity>  (14) 
4.3456263542

>  <CNN_VS>  (14) 
2.2281031609

>  <CNNaffinity_variance>  (14) 
0.1027278751

$$$$
15
     RDKit          3D

 43 45  0  0  0  0  0  0  0  0999 V2000
   21.2057   74.2181   -4.7690 P   0  0  2  0  0  0  0  0  0  0  0  0
   20.8737   75.7207   -4.2680 O   0  0  0  0  0  0  0  0  0  0  0  0
   21.9577   74.1340   -6.0648 O   0  0  0  0  0  0  0  0  0  0  0  0
   19.7698   73.4730   -4.7403 O   0  0  0  0  0  0  0  0  0  0  0  0
   19.5414   72.4829   -3.7543 C   0  0  0  0  0  0  0  0  0  0  0  0
   17.5384   72.2695   -5.0660 O   0  0  0  0  0  0  0  0  0  0  0  0
   16.4389   70.6624   -2.7857 O   0  0  0  0  0  0  0  0  0  0  0  0
   17.1656   68.7376   -4.5754 O   0  0  0  0  0  0  0  0  0  0  0  0
   17.7717   70.7138   -3.2950 C   0  0  1  0  0  0  0  0  0  0  0  0
   17.8598   69.9670   -4.6091 C   0  0  2  0  0  0  0  0  0  0  0  0
   18.0559   72.1470   -3.7234 C   0  0  1  0  0  0  0  0  0  0  0  0
   17.2427   70.9606   -5.5785 C   0  0  2  0  0  0  0  0  0  0  0  0
   16.2342   69.7561   -2.5055 H   0  0  0  0  0  0  0  0  0  0  0  0
   17.5972   68.1398   -3.9442 H   0  0  0  0  0  0  0  0  0  0  0  0
   15.7297   70.3010   -7.8703 O   0  0  0  0  0  0  0  0  0  0  0  0
   19.4307   70.5409  -10.6069 O   0  0  0  0  0  0  0  0  0  0  0  0
   17.7856   70.8440   -6.9024 N   0  0  0  0  0  0  0  0  0  0  0  0
   17.5746   70.4201   -9.2309 N   0  0  0  0  0  0  0  0  0  0  0  0
   16.9392   70.5076   -7.9852 C   0  0  0  0  0  0  0  0  0  0  0  0
   19.1407   71.0632   -7.1181 C   0  0  0  0  0  0  0  0  0  0  0  0
   19.7319   70.9763   -8.3113 C   0  0  0  0  0  0  0  0  0  0  0  0
   18.9186   70.6286   -9.4950 C   0  0  0  0  0  0  0  0  0  0  0  0
   17.0062   70.1852   -9.9997 H   0  0  0  0  0  0  0  0  0  0  0  0
   21.9745   73.5744   -3.5012 O   0  0  0  0  0  0  0  0  0  0  0  0
   23.5495   73.3389   -3.2226 P   0  0  2  0  0  0  0  0  0  0  0  0
   23.9971   74.6949   -2.4602 O   0  0  0  0  0  0  0  0  0  0  0  0
   24.3524   73.0270   -4.4522 O   0  0  0  0  0  0  0  0  0  0  0  0
   23.5975   72.1970   -2.0841 O   0  0  0  0  0  0  0  0  0  0  0  0
   23.8979   69.8728   -2.4263 O   0  0  0  0  0  0  0  0  0  0  0  0
   21.7629   69.9328    1.1101 O   0  0  0  0  0  0  0  0  0  0  0  0
   21.0458   71.7243   -1.0833 O   0  0  0  0  0  0  0  0  0  0  0  0
   24.6167   69.3797    1.1378 O   0  0  0  0  0  0  0  0  0  0  0  0
   22.6874   70.4201    0.1376 C   0  0  2  0  0  0  0  0  0  0  0  0
   21.9634   70.6422   -1.1906 C   0  0  2  0  0  0  0  0  0  0  0  0
   23.7942   69.3762   -0.0275 C   0  0  1  0  0  0  0  0  0  0  0  0
   22.9584   70.9423   -2.3126 C   0  0  1  0  0  0  0  0  0  0  0  0
   24.6676   69.6777   -1.2420 C   0  0  1  0  0  0  0  0  0  0  0  0
   21.0502   70.5798    1.2317 H   0  0  0  0  0  0  0  0  0  0  0  0
   20.4117   71.5407   -0.3730 H   0  0  0  0  0  0  0  0  0  0  0  0
   24.0728   69.1893    1.9180 H   0  0  0  0  0  0  0  0  0  0  0  0
   26.1771   68.7112   -2.7548 O   0  0  0  0  0  0  0  0  0  0  0  0
   25.6221   67.4863   -0.9134 O   0  0  0  0  0  0  0  0  0  0  0  0
   25.5212   68.5009   -1.5867 C   0  0  0  0  0  0  0  0  0  0  0  0
  1  4  1  0
  1 24  1  0
  1  2  1  1
  1  3  2  0
 25 28  1  0
 25 24  1  0
 25 26  1  1
 25 27  2  0
  6 11  1  0
  6 12  1  0
 29 36  1  0
 29 37  1  0
  9  7  1  6
  7 13  1  0
 10  8  1  1
  8 14  1  0
  4  5  1  0
 36 28  1  1
 33 30  1  1
 30 38  1  0
 34 31  1  1
 31 39  1  0
 35 32  1  1
 32 40  1  0
 41 43  1  0
 15 19  2  0
 42 43  2  0
 16 22  2  0
 12 17  1  6
 17 19  1  0
 17 20  1  0
 18 19  1  0
 18 22  1  0
 18 23  1  0
  9 10  1  0
  9 11  1  0
 10 12  1  0
 11  5  1  6
 33 34  1  0
 33 35  1  0
 34 36  1  0
 35 37  1  0
 37 43  1  6
 20 21  2  0
 21 22  1  0
M  CHG  3   2  -1  26  -1  41  -1
M  END
>  <COMPND>  (15) 
    udp_gluA.pdb 

>  <AUTHOR>  (15) 
    GENERATED BY OPEN BABEL 3.1.1

>  <MASTER>  (15) 
        0    0    0    0    0    0    0    0   56    0   56    0

>  <minimizedAffinity>  (15) 
-8.64150

>  <CNNscore>  (15) 
0.5115452409

>  <CNNaffinity>  (15) 
4.5060334206

>  <CNN_VS>  (15) 
2.3050398827

>  <CNNaffinity_variance>  (15) 
0.0844915286

$$$$
16
     RDKit          3D

 43 45  0  0  0  0  0  0  0  0999 V2000
   21.8665   74.5994   -1.8021 P   0  0  2  0  0  0  0  0  0  0  0  0
   23.0454   75.0527   -2.8138 O   0  0  0  0  0  0  0  0  0  0  0  0
   20.7532   75.5926   -1.6411 O   0  0  0  0  0  0  0  0  0  0  0  0
   22.6516   74.1980   -0.4455 O   0  0  0  0  0  0  0  0  0  0  0  0
   22.0230   74.4469    0.7984 C   0  0  0  0  0  0  0  0  0  0  0  0
   22.5773   72.1676    1.3233 O   0  0  0  0  0  0  0  0  0  0  0  0
   20.1495   72.1779    3.0831 O   0  0  0  0  0  0  0  0  0  0  0  0
   22.1821   72.5122    4.8700 O   0  0  0  0  0  0  0  0  0  0  0  0
   21.0816   73.2277    2.8232 C   0  0  1  0  0  0  0  0  0  0  0  0
   22.3848   72.9626    3.5469 C   0  0  2  0  0  0  0  0  0  0  0  0
   21.5026   73.1314    1.3632 C   0  0  1  0  0  0  0  0  0  0  0  0
   23.0279   71.9082    2.6623 C   0  0  2  0  0  0  0  0  0  0  0  0
   19.8660   72.2190    4.0103 H   0  0  0  0  0  0  0  0  0  0  0  0
   21.7710   73.2191    5.3927 H   0  0  0  0  0  0  0  0  0  0  0  0
   24.7274   69.7204    2.1128 O   0  0  0  0  0  0  0  0  0  0  0  0
   28.5149   72.2536    2.8069 O   0  0  0  0  0  0  0  0  0  0  0  0
   24.4619   71.9682    2.6922 N   0  0  0  0  0  0  0  0  0  0  0  0
   26.6122   70.9839    2.4600 N   0  0  0  0  0  0  0  0  0  0  0  0
   25.2230   70.8115    2.4005 C   0  0  0  0  0  0  0  0  0  0  0  0
   25.0998   73.1622    3.0059 C   0  0  0  0  0  0  0  0  0  0  0  0
   26.4248   73.3111    3.0586 C   0  0  0  0  0  0  0  0  0  0  0  0
   27.2926   72.1509    2.7679 C   0  0  0  0  0  0  0  0  0  0  0  0
   27.1630   70.1921    2.2628 H   0  0  0  0  0  0  0  0  0  0  0  0
   21.4101   73.1667   -2.3953 O   0  0  0  0  0  0  0  0  0  0  0  0
   21.1125   72.6918   -3.9117 P   0  0  2  0  0  0  0  0  0  0  0  0
   22.4604   71.8943   -4.3208 O   0  0  0  0  0  0  0  0  0  0  0  0
   20.7470   73.8086   -4.8462 O   0  0  0  0  0  0  0  0  0  0  0  0
   19.9880   71.5440   -3.7680 O   0  0  0  0  0  0  0  0  0  0  0  0
   17.7082   72.1274   -4.0350 O   0  0  0  0  0  0  0  0  0  0  0  0
   17.4224   68.4402   -2.1936 O   0  0  0  0  0  0  0  0  0  0  0  0
   19.4087   70.3893   -1.3049 O   0  0  0  0  0  0  0  0  0  0  0  0
   16.8853   68.6957   -5.0392 O   0  0  0  0  0  0  0  0  0  0  0  0
   18.0045   69.4338   -3.0373 C   0  0  2  0  0  0  0  0  0  0  0  0
   18.3467   70.6722   -2.2085 C   0  0  2  0  0  0  0  0  0  0  0  0
   16.9871   69.7858   -4.1250 C   0  0  1  0  0  0  0  0  0  0  0  0
   18.7569   71.8375   -3.1100 C   0  0  1  0  0  0  0  0  0  0  0  0
   17.4066   71.0329   -4.8977 C   0  0  1  0  0  0  0  0  0  0  0  0
   18.0510   68.2007   -1.4945 H   0  0  0  0  0  0  0  0  0  0  0  0
   19.1554   69.6506   -0.7300 H   0  0  0  0  0  0  0  0  0  0  0  0
   16.6190   67.8955   -4.5599 H   0  0  0  0  0  0  0  0  0  0  0  0
   16.1670   70.8670   -6.8819 O   0  0  0  0  0  0  0  0  0  0  0  0
   15.5353   72.4734   -5.3921 O   0  0  0  0  0  0  0  0  0  0  0  0
   16.2725   71.5551   -5.7182 C   0  0  0  0  0  0  0  0  0  0  0  0
  1  4  1  0
  1 24  1  0
  1  2  1  6
  1  3  2  0
 25 28  1  0
 25 24  1  0
 25 26  1  6
 25 27  2  0
  6 11  1  0
  6 12  1  0
 29 36  1  0
 29 37  1  0
  9  7  1  1
  7 13  1  0
 10  8  1  1
  8 14  1  0
  4  5  1  0
 36 28  1  6
 33 30  1  1
 30 38  1  0
 34 31  1  1
 31 39  1  0
 35 32  1  6
 32 40  1  0
 41 43  1  0
 15 19  2  0
 42 43  2  0
 16 22  2  0
 12 17  1  6
 17 19  1  0
 17 20  1  0
 18 19  1  0
 18 22  1  0
 18 23  1  0
  9 10  1  0
  9 11  1  0
 10 12  1  0
 11  5  1  1
 33 34  1  0
 33 35  1  0
 34 36  1  0
 35 37  1  0
 37 43  1  6
 20 21  2  0
 21 22  1  0
M  CHG  3   2  -1  26  -1  41  -1
M  END
>  <COMPND>  (16) 
    udp_gluA.pdb 

>  <AUTHOR>  (16) 
    GENERATED BY OPEN BABEL 3.1.1

>  <MASTER>  (16) 
        0    0    0    0    0    0    0    0   56    0   56    0

>  <minimizedAffinity>  (16) 
-6.33292

>  <CNNscore>  (16) 
0.5081723332

>  <CNNaffinity>  (16) 
4.1061773300

>  <CNN_VS>  (16) 
2.0866456032

>  <CNNaffinity_variance>  (16) 
0.0565377250

$$$$
17
     RDKit          3D

 43 45  0  0  0  0  0  0  0  0999 V2000
   22.8523   73.2223   -3.7416 P   0  0  2  0  0  0  0  0  0  0  0  0
   24.1969   72.7198   -4.4888 O   0  0  0  0  0  0  0  0  0  0  0  0
   22.8480   74.6713   -3.3515 O   0  0  0  0  0  0  0  0  0  0  0  0
   22.6644   72.1677   -2.5290 O   0  0  0  0  0  0  0  0  0  0  0  0
   23.2178   72.4851   -1.2651 C   0  0  0  0  0  0  0  0  0  0  0  0
   22.5975   70.2473   -0.6447 O   0  0  0  0  0  0  0  0  0  0  0  0
   22.3394   71.2937    2.1535 O   0  0  0  0  0  0  0  0  0  0  0  0
   24.7669   70.0524    2.2031 O   0  0  0  0  0  0  0  0  0  0  0  0
   23.2768   71.6515    1.1379 C   0  0  1  0  0  0  0  0  0  0  0  0
   24.3074   70.5557    0.9661 C   0  0  2  0  0  0  0  0  0  0  0  0
   22.5530   71.6209   -0.2013 C   0  0  1  0  0  0  0  0  0  0  0  0
   23.5368   69.5211    0.1638 C   0  0  2  0  0  0  0  0  0  0  0  0
   22.7789   71.3063    3.0186 H   0  0  0  0  0  0  0  0  0  0  0  0
   25.2510   70.7484    2.6756 H   0  0  0  0  0  0  0  0  0  0  0  0
   24.2847   66.8428    0.6579 O   0  0  0  0  0  0  0  0  0  0  0  0
   26.8115   66.6463   -3.1919 O   0  0  0  0  0  0  0  0  0  0  0  0
   24.3891   68.7462   -0.6930 N   0  0  0  0  0  0  0  0  0  0  0  0
   25.5433   66.7479   -1.2594 N   0  0  0  0  0  0  0  0  0  0  0  0
   24.7036   67.4091   -0.3534 C   0  0  0  0  0  0  0  0  0  0  0  0
   24.9021   69.3100   -1.8548 C   0  0  0  0  0  0  0  0  0  0  0  0
   25.7011   68.6672   -2.7087 C   0  0  0  0  0  0  0  0  0  0  0  0
   26.0788   67.2666   -2.4272 C   0  0  0  0  0  0  0  0  0  0  0  0
   25.7779   65.8164   -1.0433 H   0  0  0  0  0  0  0  0  0  0  0  0
   21.6834   72.7998   -4.7751 O   0  0  0  0  0  0  0  0  0  0  0  0
   21.0304   73.5952   -6.0219 P   0  0  2  0  0  0  0  0  0  0  0  0
   22.1731   73.4946   -7.1641 O   0  0  0  0  0  0  0  0  0  0  0  0
   20.5992   74.9969   -5.7004 O   0  0  0  0  0  0  0  0  0  0  0  0
   19.8456   72.6337   -6.5456 O   0  0  0  0  0  0  0  0  0  0  0  0
   19.1437   70.4288   -6.0408 O   0  0  0  0  0  0  0  0  0  0  0  0
   18.6657   70.5449  -10.1427 O   0  0  0  0  0  0  0  0  0  0  0  0
   21.0281   71.7247   -8.8932 O   0  0  0  0  0  0  0  0  0  0  0  0
   16.3466   70.7150   -8.3980 O   0  0  0  0  0  0  0  0  0  0  0  0
   18.6913   71.0767   -8.8182 C   0  0  2  0  0  0  0  0  0  0  0  0
   20.0871   70.8957   -8.2210 C   0  0  2  0  0  0  0  0  0  0  0  0
   17.6538   70.3210   -7.9849 C   0  0  1  0  0  0  0  0  0  0  0  0
   20.0937   71.2413   -6.7312 C   0  0  1  0  0  0  0  0  0  0  0  0
   17.8069   70.6231   -6.4971 C   0  0  1  0  0  0  0  0  0  0  0  0
   19.3173   71.0100  -10.6908 H   0  0  0  0  0  0  0  0  0  0  0  0
   21.0290   71.5110   -9.8391 H   0  0  0  0  0  0  0  0  0  0  0  0
   16.2362   70.5281   -9.3434 H   0  0  0  0  0  0  0  0  0  0  0  0
   17.1917   69.8996   -4.3524 O   0  0  0  0  0  0  0  0  0  0  0  0
   16.3321   68.7504   -6.1243 O   0  0  0  0  0  0  0  0  0  0  0  0
   17.0269   69.6494   -5.6750 C   0  0  0  0  0  0  0  0  0  0  0  0
  1  4  1  0
  1 24  1  0
  1  2  1  6
  1  3  2  0
 25 28  1  0
 25 24  1  0
 25 26  1  6
 25 27  2  0
  6 11  1  0
  6 12  1  0
 29 36  1  0
 29 37  1  0
  9  7  1  1
  7 13  1  0
 10  8  1  1
  8 14  1  0
  4  5  1  0
 36 28  1  6
 33 30  1  6
 30 38  1  0
 34 31  1  6
 31 39  1  0
 35 32  1  6
 32 40  1  0
 41 43  1  0
 15 19  2  0
 42 43  2  0
 16 22  2  0
 12 17  1  6
 17 19  1  0
 17 20  1  0
 18 19  1  0
 18 22  1  0
 18 23  1  0
  9 10  1  0
  9 11  1  0
 10 12  1  0
 11  5  1  6
 33 34  1  0
 33 35  1  0
 34 36  1  0
 35 37  1  0
 37 43  1  1
 20 21  2  0
 21 22  1  0
M  CHG  3   2  -1  26  -1  41  -1
M  END
>  <COMPND>  (17) 
    udp_gluA.pdb 

>  <AUTHOR>  (17) 
    GENERATED BY OPEN BABEL 3.1.1

>  <MASTER>  (17) 
        0    0    0    0    0    0    0    0   56    0   56    0

>  <minimizedAffinity>  (17) 
-9.05830

>  <CNNscore>  (17) 
0.5021335483

>  <CNNaffinity>  (17) 
4.5048885345

>  <CNN_VS>  (17) 
2.2620556355

>  <CNNaffinity_variance>  (17) 
0.1867487133

$$$$
18
     RDKit          3D

 43 45  0  0  0  0  0  0  0  0999 V2000
   22.7167   71.9661   -3.1502 P   0  0  2  0  0  0  0  0  0  0  0  0
   22.1538   70.4532   -3.0355 O   0  0  0  0  0  0  0  0  0  0  0  0
   24.1159   72.0830   -3.6797 O   0  0  0  0  0  0  0  0  0  0  0  0
   22.4692   72.5855   -1.6761 O   0  0  0  0  0  0  0  0  0  0  0  0
   23.5243   72.5302   -0.7336 C   0  0  0  0  0  0  0  0  0  0  0  0
   24.0396   71.6076    1.4253 O   0  0  0  0  0  0  0  0  0  0  0  0
   21.5895   69.9137    1.0798 O   0  0  0  0  0  0  0  0  0  0  0  0
   20.7157   71.8943    2.7381 O   0  0  0  0  0  0  0  0  0  0  0  0
   21.8223   71.2608    0.6678 C   0  0  1  0  0  0  0  0  0  0  0  0
   21.7849   72.1886    1.8636 C   0  0  2  0  0  0  0  0  0  0  0  0
   23.2743   71.3719    0.2236 C   0  0  1  0  0  0  0  0  0  0  0  0
   23.1434   71.9416    2.4970 C   0  0  2  0  0  0  0  0  0  0  0  0
   20.6679   69.8181    1.3682 H   0  0  0  0  0  0  0  0  0  0  0  0
   19.8732   72.0679    2.2887 H   0  0  0  0  0  0  0  0  0  0  0  0
   22.4801   72.6336    5.1537 O   0  0  0  0  0  0  0  0  0  0  0  0
   25.1329   76.4007    5.0280 O   0  0  0  0  0  0  0  0  0  0  0  0
   23.6465   73.0978    3.1832 N   0  0  0  0  0  0  0  0  0  0  0  0
   23.8012   74.5097    5.0882 N   0  0  0  0  0  0  0  0  0  0  0  0
   23.2507   73.3547    4.5172 C   0  0  0  0  0  0  0  0  0  0  0  0
   24.5223   73.9615    2.5368 C   0  0  0  0  0  0  0  0  0  0  0  0
   25.0388   75.0585    3.0942 C   0  0  0  0  0  0  0  0  0  0  0  0
   24.6755   75.3995    4.4853 C   0  0  0  0  0  0  0  0  0  0  0  0
   23.5387   74.7105    6.0156 H   0  0  0  0  0  0  0  0  0  0  0  0
   21.5932   72.7042   -4.0478 O   0  0  0  0  0  0  0  0  0  0  0  0
   21.5757   73.0942   -5.6166 P   0  0  2  0  0  0  0  0  0  0  0  0
   22.8251   72.2598   -6.2192 O   0  0  0  0  0  0  0  0  0  0  0  0
   21.6310   74.5704   -5.8848 O   0  0  0  0  0  0  0  0  0  0  0  0
   20.2693   72.3549   -6.2077 O   0  0  0  0  0  0  0  0  0  0  0  0
   19.6981   70.1719   -5.4886 O   0  0  0  0  0  0  0  0  0  0  0  0
   17.5328   70.4964   -8.9920 O   0  0  0  0  0  0  0  0  0  0  0  0
   20.2774   71.4873   -8.8502 O   0  0  0  0  0  0  0  0  0  0  0  0
   16.1918   70.7165   -6.4222 O   0  0  0  0  0  0  0  0  0  0  0  0
   18.1551   70.9666   -7.7963 C   0  0  2  0  0  0  0  0  0  0  0  0
   19.6562   70.6824   -7.8547 C   0  0  2  0  0  0  0  0  0  0  0  0
   17.5201   70.2330   -6.6128 C   0  0  1  0  0  0  0  0  0  0  0  0
   20.3186   70.9606   -6.5046 C   0  0  1  0  0  0  0  0  0  0  0  0
   18.3109   70.4598   -5.3276 C   0  0  1  0  0  0  0  0  0  0  0  0
   17.9204   70.9487   -9.7578 H   0  0  0  0  0  0  0  0  0  0  0  0
   19.8618   71.3161   -9.7095 H   0  0  0  0  0  0  0  0  0  0  0  0
   15.6779   70.5783   -7.2331 H   0  0  0  0  0  0  0  0  0  0  0  0
   18.9456   69.1388   -3.4963 O   0  0  0  0  0  0  0  0  0  0  0  0
   16.7502   69.0810   -4.1094 O   0  0  0  0  0  0  0  0  0  0  0  0
   17.8888   69.4951   -4.2678 C   0  0  0  0  0  0  0  0  0  0  0  0
  1  4  1  0
  1 24  1  0
  1  2  1  1
  1  3  2  0
 25 28  1  0
 25 24  1  0
 25 26  1  6
 25 27  2  0
  6 11  1  0
  6 12  1  0
 29 36  1  0
 29 37  1  0
  9  7  1  1
  7 13  1  0
 10  8  1  1
  8 14  1  0
  4  5  1  0
 36 28  1  1
 33 30  1  6
 30 38  1  0
 34 31  1  6
 31 39  1  0
 35 32  1  1
 32 40  1  0
 41 43  1  0
 15 19  2  0
 42 43  2  0
 16 22  2  0
 12 17  1  6
 17 19  1  0
 17 20  1  0
 18 19  1  0
 18 22  1  0
 18 23  1  0
  9 10  1  0
  9 11  1  0
 10 12  1  0
 11  5  1  6
 33 34  1  0
 33 35  1  0
 34 36  1  0
 35 37  1  0
 37 43  1  1
 20 21  2  0
 21 22  1  0
M  CHG  3   2  -1  26  -1  41  -1
M  END
>  <COMPND>  (18) 
    udp_gluA.pdb 

>  <AUTHOR>  (18) 
    GENERATED BY OPEN BABEL 3.1.1

>  <MASTER>  (18) 
        0    0    0    0    0    0    0    0   56    0   56    0

>  <minimizedAffinity>  (18) 
-7.59801

>  <CNNscore>  (18) 
0.4455913007

>  <CNNaffinity>  (18) 
4.0662722588

>  <CNN_VS>  (18) 
1.8118954897

>  <CNNaffinity_variance>  (18) 
0.1220023036

$$$$
19
     RDKit          3D

 43 45  0  0  0  0  0  0  0  0999 V2000
   18.6940   71.8040   -2.2407 P   0  0  2  0  0  0  0  0  0  0  0  0
   17.3526   72.3757   -2.9427 O   0  0  0  0  0  0  0  0  0  0  0  0
   18.6272   70.3636   -1.8255 O   0  0  0  0  0  0  0  0  0  0  0  0
   18.9940   72.8638   -1.0554 O   0  0  0  0  0  0  0  0  0  0  0  0
   20.2959   72.9072   -0.5008 C   0  0  0  0  0  0  0  0  0  0  0  0
   20.9522   70.8011    0.4539 O   0  0  0  0  0  0  0  0  0  0  0  0
   20.6964   72.1430    3.1232 O   0  0  0  0  0  0  0  0  0  0  0  0
   23.3898   72.1709    2.6979 O   0  0  0  0  0  0  0  0  0  0  0  0
   21.1563   72.6794    1.8825 C   0  0  1  0  0  0  0  0  0  0  0  0
   22.5426   72.1585    1.5680 C   0  0  2  0  0  0  0  0  0  0  0  0
   20.3236   72.0629    0.7668 C   0  0  1  0  0  0  0  0  0  0  0  0
   22.2468   70.7526    1.0742 C   0  0  2  0  0  0  0  0  0  0  0  0
   21.2137   72.5222    3.8514 H   0  0  0  0  0  0  0  0  0  0  0  0
   23.5480   73.0880    2.9733 H   0  0  0  0  0  0  0  0  0  0  0  0
   24.7473   69.6173    1.7338 O   0  0  0  0  0  0  0  0  0  0  0  0
   25.8588   69.0364   -2.7014 O   0  0  0  0  0  0  0  0  0  0  0  0
   23.2090   70.2961    0.1117 N   0  0  0  0  0  0  0  0  0  0  0  0
   25.2990   69.3300   -0.4758 N   0  0  0  0  0  0  0  0  0  0  0  0
   24.4354   69.7413    0.5480 C   0  0  0  0  0  0  0  0  0  0  0  0
   22.9336   70.3983   -1.2465 C   0  0  0  0  0  0  0  0  0  0  0  0
   23.7667   70.0018   -2.2107 C   0  0  0  0  0  0  0  0  0  0  0  0
   25.0696   69.4118   -1.8397 C   0  0  0  0  0  0  0  0  0  0  0  0
   26.1599   68.9424   -0.1966 H   0  0  0  0  0  0  0  0  0  0  0  0
   19.8431   72.1391   -3.3271 O   0  0  0  0  0  0  0  0  0  0  0  0
   19.8410   73.1331   -4.6020 P   0  0  2  0  0  0  0  0  0  0  0  0
   21.3870   73.1228   -5.0816 O   0  0  0  0  0  0  0  0  0  0  0  0
   19.2915   74.5006   -4.3158 O   0  0  0  0  0  0  0  0  0  0  0  0
   19.0524   72.3221   -5.7522 O   0  0  0  0  0  0  0  0  0  0  0  0
   18.5474   70.0424   -5.3555 O   0  0  0  0  0  0  0  0  0  0  0  0
   17.8981   70.3517   -9.4237 O   0  0  0  0  0  0  0  0  0  0  0  0
   20.2081   71.6464   -8.1902 O   0  0  0  0  0  0  0  0  0  0  0  0
   15.6444   70.2341   -7.5912 O   0  0  0  0  0  0  0  0  0  0  0  0
   17.9346   70.8080   -8.0715 C   0  0  2  0  0  0  0  0  0  0  0  0
   19.3630   70.7071   -7.5358 C   0  0  2  0  0  0  0  0  0  0  0  0
   16.9940   69.9246   -7.2488 C   0  0  1  0  0  0  0  0  0  0  0  0
   19.4020   70.9672   -6.0293 C   0  0  1  0  0  0  0  0  0  0  0  0
   17.1822   70.1533   -5.7519 C   0  0  1  0  0  0  0  0  0  0  0  0
   18.4885   70.8985   -9.9657 H   0  0  0  0  0  0  0  0  0  0  0  0
   20.1880   71.4875   -9.1466 H   0  0  0  0  0  0  0  0  0  0  0  0
   15.5114   70.0928   -8.5416 H   0  0  0  0  0  0  0  0  0  0  0  0
   16.3287   67.9688   -5.7250 O   0  0  0  0  0  0  0  0  0  0  0  0
   16.1820   69.1667   -3.7904 O   0  0  0  0  0  0  0  0  0  0  0  0
   16.5150   69.0745   -4.9624 C   0  0  0  0  0  0  0  0  0  0  0  0
  1  4  1  0
  1 24  1  0
  1  2  1  6
  1  3  2  0
 25 28  1  0
 25 24  1  0
 25 26  1  6
 25 27  2  0
  6 11  1  0
  6 12  1  0
 29 36  1  0
 29 37  1  0
  9  7  1  1
  7 13  1  0
 10  8  1  1
  8 14  1  0
  4  5  1  0
 36 28  1  6
 33 30  1  6
 30 38  1  0
 34 31  1  6
 31 39  1  0
 35 32  1  6
 32 40  1  0
 41 43  1  0
 15 19  2  0
 42 43  2  0
 16 22  2  0
 12 17  1  6
 17 19  1  0
 17 20  1  0
 18 19  1  0
 18 22  1  0
 18 23  1  0
  9 10  1  0
  9 11  1  0
 10 12  1  0
 11  5  1  6
 33 34  1  0
 33 35  1  0
 34 36  1  0
 35 37  1  0
 37 43  1  1
 20 21  2  0
 21 22  1  0
M  CHG  3   2  -1  26  -1  41  -1
M  END
>  <COMPND>  (19) 
    udp_gluA.pdb 

>  <AUTHOR>  (19) 
    GENERATED BY OPEN BABEL 3.1.1

>  <MASTER>  (19) 
        0    0    0    0    0    0    0    0   56    0   56    0

>  <minimizedAffinity>  (19) 
-8.42039

>  <CNNscore>  (19) 
0.4294540882

>  <CNNaffinity>  (19) 
4.0710949898

>  <CNN_VS>  (19) 
1.7483483553

>  <CNNaffinity_variance>  (19) 
0.3338441849

$$$$
20
     RDKit          3D

 43 45  0  0  0  0  0  0  0  0999 V2000
   22.9984   73.3491   -3.7247 P   0  0  2  0  0  0  0  0  0  0  0  0
   24.4719   72.7439   -4.0104 O   0  0  0  0  0  0  0  0  0  0  0  0
   22.9197   74.8476   -3.7157 O   0  0  0  0  0  0  0  0  0  0  0  0
   22.5337   72.6128   -2.3609 O   0  0  0  0  0  0  0  0  0  0  0  0
   23.4795   72.4614   -1.3183 C   0  0  0  0  0  0  0  0  0  0  0  0
   24.1648   71.0069    0.4685 O   0  0  0  0  0  0  0  0  0  0  0  0
   21.2873   70.1839    0.6527 O   0  0  0  0  0  0  0  0  0  0  0  0
   21.5368   71.9450    2.7197 O   0  0  0  0  0  0  0  0  0  0  0  0
   21.8435   71.4649    0.3559 C   0  0  1  0  0  0  0  0  0  0  0  0
   22.4007   72.0985    1.6130 C   0  0  2  0  0  0  0  0  0  0  0  0
   23.1002   71.2499   -0.4765 C   0  0  1  0  0  0  0  0  0  0  0  0
   23.7126   71.3525    1.7873 C   0  0  2  0  0  0  0  0  0  0  0  0
   20.4830   70.2955    1.1841 H   0  0  0  0  0  0  0  0  0  0  0  0
   20.7164   72.4384    2.5603 H   0  0  0  0  0  0  0  0  0  0  0  0
   26.4376   70.6367    1.9839 O   0  0  0  0  0  0  0  0  0  0  0  0
   27.4748   74.4978    4.2775 O   0  0  0  0  0  0  0  0  0  0  0  0
   24.7164   72.1522    2.4305 N   0  0  0  0  0  0  0  0  0  0  0  0
   26.9514   72.5600    3.1269 N   0  0  0  0  0  0  0  0  0  0  0  0
   26.0569   71.7013    2.4744 C   0  0  0  0  0  0  0  0  0  0  0  0
   24.3701   73.3681    3.0072 C   0  0  0  0  0  0  0  0  0  0  0  0
   25.2339   74.1757    3.6256 C   0  0  0  0  0  0  0  0  0  0  0  0
   26.6542   73.7782    3.7162 C   0  0  0  0  0  0  0  0  0  0  0  0
   27.8901   72.2665    3.1720 H   0  0  0  0  0  0  0  0  0  0  0  0
   22.0875   72.6337   -4.8523 O   0  0  0  0  0  0  0  0  0  0  0  0
   20.7387   71.7516   -4.7247 P   0  0  2  0  0  0  0  0  0  0  0  0
   19.6639   72.8038   -4.1263 O   0  0  0  0  0  0  0  0  0  0  0  0
   20.8965   70.4993   -3.9119 O   0  0  0  0  0  0  0  0  0  0  0  0
   20.2644   71.5065   -6.2470 O   0  0  0  0  0  0  0  0  0  0  0  0
   18.0272   70.7396   -6.3726 O   0  0  0  0  0  0  0  0  0  0  0  0
   19.2372   70.4510  -10.3122 O   0  0  0  0  0  0  0  0  0  0  0  0
   21.0209   69.6254   -8.1510 O   0  0  0  0  0  0  0  0  0  0  0  0
   17.4928   72.6213   -9.4768 O   0  0  0  0  0  0  0  0  0  0  0  0
   19.2085   70.9999   -8.9947 C   0  0  2  0  0  0  0  0  0  0  0  0
   19.6418   69.9347   -7.9871 C   0  0  2  0  0  0  0  0  0  0  0  0
   17.7772   71.4568   -8.7038 C   0  0  1  0  0  0  0  0  0  0  0  0
   19.4050   70.4099   -6.5528 C   0  0  1  0  0  0  0  0  0  0  0  0
   17.5890   71.7934   -7.2274 C   0  0  1  0  0  0  0  0  0  0  0  0
   20.1372   70.1537  -10.5193 H   0  0  0  0  0  0  0  0  0  0  0  0
   21.1784   69.3234   -9.0589 H   0  0  0  0  0  0  0  0  0  0  0  0
   17.6090   72.4206  -10.4186 H   0  0  0  0  0  0  0  0  0  0  0  0
   15.3714   71.4294   -7.8989 O   0  0  0  0  0  0  0  0  0  0  0  0
   15.6954   72.3866   -5.8549 O   0  0  0  0  0  0  0  0  0  0  0  0
   16.1383   71.9162   -6.8920 C   0  0  0  0  0  0  0  0  0  0  0  0
  1  4  1  0
  1 24  1  0
  1  2  1  6
  1  3  2  0
 25 28  1  0
 25 24  1  0
 25 26  1  1
 25 27  2  0
  6 11  1  0
  6 12  1  0
 29 36  1  0
 29 37  1  0
  9  7  1  1
  7 13  1  0
 10  8  1  1
  8 14  1  0
  4  5  1  0
 36 28  1  6
 33 30  1  6
 30 38  1  0
 34 31  1  1
 31 39  1  0
 35 32  1  6
 32 40  1  0
 41 43  1  0
 15 19  2  0
 42 43  2  0
 16 22  2  0
 12 17  1  6
 17 19  1  0
 17 20  1  0
 18 19  1  0
 18 22  1  0
 18 23  1  0
  9 10  1  0
  9 11  1  0
 10 12  1  0
 11  5  1  1
 33 34  1  0
 33 35  1  0
 34 36  1  0
 35 37  1  0
 37 43  1  6
 20 21  2  0
 21 22  1  0
M  CHG  3   2  -1  26  -1  41  -1
M  END
>  <COMPND>  (20) 
    udp_gluA.pdb 

>  <AUTHOR>  (20) 
    GENERATED BY OPEN BABEL 3.1.1

>  <MASTER>  (20) 
        0    0    0    0    0    0    0    0   56    0   56    0

>  <minimizedAffinity>  (20) 
-7.19906

>  <CNNscore>  (20) 
0.3894808292

>  <CNNaffinity>  (20) 
4.0445399284

>  <CNN_VS>  (20) 
1.5752707720

>  <CNNaffinity_variance>  (20) 
0.1185571179

$$$$
21
     RDKit          3D

 43 45  0  0  0  0  0  0  0  0999 V2000
   21.2762   74.4906   -4.5079 P   0  0  2  0  0  0  0  0  0  0  0  0
   20.1090   75.3384   -3.7745 O   0  0  0  0  0  0  0  0  0  0  0  0
   21.9617   75.2020   -5.6373 O   0  0  0  0  0  0  0  0  0  0  0  0
   20.5582   73.0921   -4.8911 O   0  0  0  0  0  0  0  0  0  0  0  0
   20.3096   72.1548   -3.8595 C   0  0  0  0  0  0  0  0  0  0  0  0
   18.1717   72.2146   -4.9564 O   0  0  0  0  0  0  0  0  0  0  0  0
   17.1180   70.7233   -2.5779 O   0  0  0  0  0  0  0  0  0  0  0  0
   17.4078   68.7503   -4.4378 O   0  0  0  0  0  0  0  0  0  0  0  0
   18.3872   70.6149   -3.2228 C   0  0  1  0  0  0  0  0  0  0  0  0
   18.2447   69.8832   -4.5406 C   0  0  2  0  0  0  0  0  0  0  0  0
   18.8047   72.0075   -3.6752 C   0  0  1  0  0  0  0  0  0  0  0  0
   17.6618   70.9612   -5.4385 C   0  0  2  0  0  0  0  0  0  0  0  0
   16.8303   69.8458   -2.2800 H   0  0  0  0  0  0  0  0  0  0  0  0
   17.8229   68.0934   -3.8562 H   0  0  0  0  0  0  0  0  0  0  0  0
   15.8608   70.4213   -7.5460 O   0  0  0  0  0  0  0  0  0  0  0  0
   19.2502   70.3532  -10.6687 O   0  0  0  0  0  0  0  0  0  0  0  0
   18.0467   70.7977   -6.8118 N   0  0  0  0  0  0  0  0  0  0  0  0
   17.5508   70.3869   -9.0991 N   0  0  0  0  0  0  0  0  0  0  0  0
   17.0634   70.5286   -7.7931 C   0  0  0  0  0  0  0  0  0  0  0  0
   19.3836   70.9056   -7.1750 C   0  0  0  0  0  0  0  0  0  0  0  0
   19.8329   70.7681   -8.4240 C   0  0  0  0  0  0  0  0  0  0  0  0
   18.8706   70.4849   -9.5090 C   0  0  0  0  0  0  0  0  0  0  0  0
   16.8852   70.1972   -9.7993 H   0  0  0  0  0  0  0  0  0  0  0  0
   22.2478   74.0769   -3.2841 O   0  0  0  0  0  0  0  0  0  0  0  0
   23.8189   73.6968   -3.2580 P   0  0  2  0  0  0  0  0  0  0  0  0
   24.5497   75.1351   -3.3901 O   0  0  0  0  0  0  0  0  0  0  0  0
   24.2281   72.6972   -4.3008 O   0  0  0  0  0  0  0  0  0  0  0  0
   24.1028   73.2338   -1.7390 O   0  0  0  0  0  0  0  0  0  0  0  0
   22.2391   72.6115   -0.4167 O   0  0  0  0  0  0  0  0  0  0  0  0
   25.1932   73.0343    2.4403 O   0  0  0  0  0  0  0  0  0  0  0  0
   24.9505   74.9677    0.2638 O   0  0  0  0  0  0  0  0  0  0  0  0
   24.3403   70.3839    1.6044 O   0  0  0  0  0  0  0  0  0  0  0  0
   24.6610   72.7285    1.1514 C   0  0  2  0  0  0  0  0  0  0  0  0
   23.9837   73.9696    0.5698 C   0  0  2  0  0  0  0  0  0  0  0  0
   23.6454   71.5956    1.3158 C   0  0  1  0  0  0  0  0  0  0  0  0
   23.2058   73.6236   -0.7007 C   0  0  1  0  0  0  0  0  0  0  0  0
   22.8232   71.3958    0.0459 C   0  0  1  0  0  0  0  0  0  0  0  0
   25.8412   73.7519    2.3608 H   0  0  0  0  0  0  0  0  0  0  0  0
   25.4480   75.1919    1.0654 H   0  0  0  0  0  0  0  0  0  0  0  0
   24.8677   70.4977    2.4105 H   0  0  0  0  0  0  0  0  0  0  0  0
   20.6250   70.8277   -0.5429 O   0  0  0  0  0  0  0  0  0  0  0  0
   21.5704   69.6757    1.1829 O   0  0  0  0  0  0  0  0  0  0  0  0
   21.6335   70.5329    0.3144 C   0  0  0  0  0  0  0  0  0  0  0  0
  1  4  1  0
  1 24  1  0
  1  2  1  1
  1  3  2  0
 25 28  1  0
 25 24  1  0
 25 26  1  6
 25 27  2  0
  6 11  1  0
  6 12  1  0
 29 36  1  0
 29 37  1  0
  9  7  1  6
  7 13  1  0
 10  8  1  1
  8 14  1  0
  4  5  1  0
 36 28  1  6
 33 30  1  1
 30 38  1  0
 34 31  1  6
 31 39  1  0
 35 32  1  6
 32 40  1  0
 41 43  1  0
 15 19  2  0
 42 43  2  0
 16 22  2  0
 12 17  1  6
 17 19  1  0
 17 20  1  0
 18 19  1  0
 18 22  1  0
 18 23  1  0
  9 10  1  0
  9 11  1  0
 10 12  1  0
 11  5  1  6
 33 34  1  0
 33 35  1  0
 34 36  1  0
 35 37  1  0
 37 43  1  1
 20 21  2  0
 21 22  1  0
M  CHG  3   2  -1  26  -1  41  -1
M  END
>  <COMPND>  (21) 
    udp_gluA.pdb 

>  <AUTHOR>  (21) 
    GENERATED BY OPEN BABEL 3.1.1

>  <MASTER>  (21) 
        0    0    0    0    0    0    0    0   56    0   56    0

>  <minimizedAffinity>  (21) 
-7.13733

>  <CNNscore>  (21) 
0.8498752713

>  <CNNaffinity>  (21) 
4.6094894409

>  <CNN_VS>  (21) 
3.9174911976

>  <CNNaffinity_variance>  (21) 
0.0488990396

$$$$
22
     RDKit          3D

 43 45  0  0  0  0  0  0  0  0999 V2000
   21.2746   72.0386   -5.1487 P   0  0  2  0  0  0  0  0  0  0  0  0
   21.1310   70.7012   -4.2489 O   0  0  0  0  0  0  0  0  0  0  0  0
   20.3079   73.1358   -4.8117 O   0  0  0  0  0  0  0  0  0  0  0  0
   21.2139   71.4916   -6.6702 O   0  0  0  0  0  0  0  0  0  0  0  0
   20.1552   71.9267   -7.5035 C   0  0  0  0  0  0  0  0  0  0  0  0
   18.9023   69.9297   -7.0348 O   0  0  0  0  0  0  0  0  0  0  0  0
   18.0999   69.9782   -9.9237 O   0  0  0  0  0  0  0  0  0  0  0  0
   15.8999   70.9987   -8.6769 O   0  0  0  0  0  0  0  0  0  0  0  0
   18.3054   71.0680   -9.0245 C   0  0  1  0  0  0  0  0  0  0  0  0
   17.1530   71.1658   -8.0474 C   0  0  2  0  0  0  0  0  0  0  0  0
   19.4689   70.7096   -8.1100 C   0  0  1  0  0  0  0  0  0  0  0  0
   17.4711   70.0459   -7.0714 C   0  0  2  0  0  0  0  0  0  0  0  0
   17.3612   70.1840  -10.5182 H   0  0  0  0  0  0  0  0  0  0  0  0
   15.7440   71.7367   -9.2877 H   0  0  0  0  0  0  0  0  0  0  0  0
   16.3326   68.1133   -5.3552 O   0  0  0  0  0  0  0  0  0  0  0  0
   15.6628   71.2128   -2.0102 O   0  0  0  0  0  0  0  0  0  0  0  0
   16.9909   70.3205   -5.7467 N   0  0  0  0  0  0  0  0  0  0  0  0
   15.9992   69.6591   -3.6912 N   0  0  0  0  0  0  0  0  0  0  0  0
   16.4363   69.2784   -4.9668 C   0  0  0  0  0  0  0  0  0  0  0  0
   17.0731   71.6088   -5.2324 C   0  0  0  0  0  0  0  0  0  0  0  0
   16.6523   71.9564   -4.0147 C   0  0  0  0  0  0  0  0  0  0  0  0
   16.0593   70.9270   -3.1360 C   0  0  0  0  0  0  0  0  0  0  0  0
   15.6075   68.9510   -3.1304 H   0  0  0  0  0  0  0  0  0  0  0  0
   22.8314   72.4333   -4.9663 O   0  0  0  0  0  0  0  0  0  0  0  0
   23.5582   73.4306   -3.9219 P   0  0  2  0  0  0  0  0  0  0  0  0
   22.6994   74.7962   -4.0558 O   0  0  0  0  0  0  0  0  0  0  0  0
   25.0313   73.6010   -4.1565 O   0  0  0  0  0  0  0  0  0  0  0  0
   23.1749   72.8495   -2.4667 O   0  0  0  0  0  0  0  0  0  0  0  0
   20.9890   73.1816   -1.6177 O   0  0  0  0  0  0  0  0  0  0  0  0
   23.0723   72.1600    1.8006 O   0  0  0  0  0  0  0  0  0  0  0  0
   24.2465   73.9782   -0.1615 O   0  0  0  0  0  0  0  0  0  0  0  0
   21.3102   70.2263    0.5330 O   0  0  0  0  0  0  0  0  0  0  0  0
   22.7667   72.1413    0.4062 C   0  0  2  0  0  0  0  0  0  0  0  0
   22.8880   73.5551   -0.1632 C   0  0  2  0  0  0  0  0  0  0  0  0
   21.3364   71.6225    0.2424 C   0  0  1  0  0  0  0  0  0  0  0  0
   22.3488   73.6171   -1.5930 C   0  0  1  0  0  0  0  0  0  0  0  0
   20.8264   71.8343   -1.1801 C   0  0  1  0  0  0  0  0  0  0  0  0
   23.9768   72.4865    1.9292 H   0  0  0  0  0  0  0  0  0  0  0  0
   24.5952   73.9411    0.7426 H   0  0  0  0  0  0  0  0  0  0  0  0
   21.6327   70.0778    1.4356 H   0  0  0  0  0  0  0  0  0  0  0  0
   19.0510   70.3505   -1.5647 O   0  0  0  0  0  0  0  0  0  0  0  0
   18.5126   72.5047   -1.0463 O   0  0  0  0  0  0  0  0  0  0  0  0
   19.3472   71.6355   -1.2485 C   0  0  0  0  0  0  0  0  0  0  0  0
  1  4  1  0
  1 24  1  0
  1  2  1  1
  1  3  2  0
 25 28  1  0
 25 24  1  0
 25 26  1  1
 25 27  2  0
  6 11  1  0
  6 12  1  0
 29 36  1  0
 29 37  1  0
  9  7  1  6
  7 13  1  0
 10  8  1  6
  8 14  1  0
  4  5  1  0
 36 28  1  6
 33 30  1  1
 30 38  1  0
 34 31  1  6
 31 39  1  0
 35 32  1  6
 32 40  1  0
 41 43  1  0
 15 19  2  0
 42 43  2  0
 16 22  2  0
 12 17  1  1
 17 19  1  0
 17 20  1  0
 18 19  1  0
 18 22  1  0
 18 23  1  0
  9 10  1  0
  9 11  1  0
 10 12  1  0
 11  5  1  1
 33 34  1  0
 33 35  1  0
 34 36  1  0
 35 37  1  0
 37 43  1  1
 20 21  2  0
 21 22  1  0
M  CHG  3   2  -1  26  -1  41  -1
M  END
>  <COMPND>  (22) 
    udp_gluA.pdb 

>  <AUTHOR>  (22) 
    GENERATED BY OPEN BABEL 3.1.1

>  <MASTER>  (22) 
        0    0    0    0    0    0    0    0   56    0   56    0

>  <minimizedAffinity>  (22) 
-7.19344

>  <CNNscore>  (22) 
0.8478979468

>  <CNNaffinity>  (22) 
4.6493420601

>  <CNN_VS>  (22) 
3.9421675205

>  <CNNaffinity_variance>  (22) 
0.3111665249

$$$$
23
     RDKit          3D

 43 45  0  0  0  0  0  0  0  0999 V2000
   22.8478   72.2201   -2.8472 P   0  0  2  0  0  0  0  0  0  0  0  0
   22.8837   73.8082   -2.5380 O   0  0  0  0  0  0  0  0  0  0  0  0
   24.1159   71.6572   -3.4190 O   0  0  0  0  0  0  0  0  0  0  0  0
   21.5226   72.0312   -3.7561 O   0  0  0  0  0  0  0  0  0  0  0  0
   20.7818   70.8312   -3.6301 C   0  0  0  0  0  0  0  0  0  0  0  0
   18.7999   71.7618   -4.6219 O   0  0  0  0  0  0  0  0  0  0  0  0
   17.2835   70.3930   -2.4269 O   0  0  0  0  0  0  0  0  0  0  0  0
   16.9021   68.7209   -4.5470 O   0  0  0  0  0  0  0  0  0  0  0  0
   18.4459   69.9555   -3.1311 C   0  0  1  0  0  0  0  0  0  0  0  0
   18.0745   69.5082   -4.5290 C   0  0  2  0  0  0  0  0  0  0  0  0
   19.3147   71.1750   -3.4070 C   0  0  1  0  0  0  0  0  0  0  0  0
   17.8991   70.8347   -5.2484 C   0  0  2  0  0  0  0  0  0  0  0  0
   16.7128   69.6309   -2.2393 H   0  0  0  0  0  0  0  0  0  0  0  0
   17.0651   67.8876   -4.0769 H   0  0  0  0  0  0  0  0  0  0  0  0
   16.0852   70.0034   -7.2472 O   0  0  0  0  0  0  0  0  0  0  0  0
   19.2276   70.5348  -10.5769 O   0  0  0  0  0  0  0  0  0  0  0  0
   18.2169   70.7466   -6.6456 N   0  0  0  0  0  0  0  0  0  0  0  0
   17.6523   70.2679   -8.9035 N   0  0  0  0  0  0  0  0  0  0  0  0
   17.2331   70.3173   -7.5675 C   0  0  0  0  0  0  0  0  0  0  0  0
   19.4893   71.0847   -7.0901 C   0  0  0  0  0  0  0  0  0  0  0  0
   19.8740   71.0327   -8.3669 C   0  0  0  0  0  0  0  0  0  0  0  0
   18.9066   70.5935   -9.3938 C   0  0  0  0  0  0  0  0  0  0  0  0
   16.9853   69.9699   -9.5636 H   0  0  0  0  0  0  0  0  0  0  0  0
   22.4087   71.5838   -1.4277 O   0  0  0  0  0  0  0  0  0  0  0  0
   23.2275   70.6694   -0.3755 P   0  0  2  0  0  0  0  0  0  0  0  0
   22.0562   69.9545    0.4831 O   0  0  0  0  0  0  0  0  0  0  0  0
   24.2263   71.4263    0.4512 O   0  0  0  0  0  0  0  0  0  0  0  0
   23.8591   69.4837   -1.2687 O   0  0  0  0  0  0  0  0  0  0  0  0
   24.8490   67.7974    0.0676 O   0  0  0  0  0  0  0  0  0  0  0  0
   25.9011   66.5804   -3.7377 O   0  0  0  0  0  0  0  0  0  0  0  0
   26.0389   69.4022   -2.9944 O   0  0  0  0  0  0  0  0  0  0  0  0
   23.7790   65.2078   -2.3012 O   0  0  0  0  0  0  0  0  0  0  0  0
   25.0742   67.1900   -2.7465 C   0  0  2  0  0  0  0  0  0  0  0  0
   25.8365   68.3337   -2.0768 C   0  0  2  0  0  0  0  0  0  0  0  0
   24.7052   66.1208   -1.7156 C   0  0  1  0  0  0  0  0  0  0  0  0
   25.0749   68.8600   -0.8595 C   0  0  1  0  0  0  0  0  0  0  0  0
   24.0636   66.7393   -0.4769 C   0  0  1  0  0  0  0  0  0  0  0  0
   26.1483   67.2411   -4.4038 H   0  0  0  0  0  0  0  0  0  0  0  0
   26.5214   69.0753   -3.7694 H   0  0  0  0  0  0  0  0  0  0  0  0
   24.1751   64.8073   -3.0909 H   0  0  0  0  0  0  0  0  0  0  0  0
   23.2574   64.6772    0.2973 O   0  0  0  0  0  0  0  0  0  0  0  0
   24.5673   65.8829    1.7218 O   0  0  0  0  0  0  0  0  0  0  0  0
   24.0103   65.7509    0.6423 C   0  0  0  0  0  0  0  0  0  0  0  0
  1  4  1  0
  1 24  1  0
  1  2  1  1
  1  3  2  0
 25 28  1  0
 25 24  1  0
 25 26  1  1
 25 27  2  0
  6 11  1  0
  6 12  1  0
 29 36  1  0
 29 37  1  0
  9  7  1  1
  7 13  1  0
 10  8  1  1
  8 14  1  0
  4  5  1  0
 36 28  1  6
 33 30  1  6
 30 38  1  0
 34 31  1  6
 31 39  1  0
 35 32  1  6
 32 40  1  0
 41 43  1  0
 15 19  2  0
 42 43  2  0
 16 22  2  0
 12 17  1  6
 17 19  1  0
 17 20  1  0
 18 19  1  0
 18 22  1  0
 18 23  1  0
  9 10  1  0
  9 11  1  0
 10 12  1  0
 11  5  1  6
 33 34  1  0
 33 35  1  0
 34 36  1  0
 35 37  1  0
 37 43  1  1
 20 21  2  0
 21 22  1  0
M  CHG  3   2  -1  26  -1  41  -1
M  END
>  <COMPND>  (23) 
    udp_gluA.pdb 

>  <AUTHOR>  (23) 
    GENERATED BY OPEN BABEL 3.1.1

>  <MASTER>  (23) 
        0    0    0    0    0    0    0    0   56    0   56    0

>  <minimizedAffinity>  (23) 
-9.60637

>  <CNNscore>  (23) 
0.7829934955

>  <CNNaffinity>  (23) 
4.9691233635

>  <CNN_VS>  (23) 
3.8907911777

>  <CNNaffinity_variance>  (23) 
0.0700656697

$$$$
24
     RDKit          3D

 43 45  0  0  0  0  0  0  0  0999 V2000
   23.3297   73.3036   -4.0318 P   0  0  2  0  0  0  0  0  0  0  0  0
   23.4371   73.9145   -5.5265 O   0  0  0  0  0  0  0  0  0  0  0  0
   24.1586   72.0768   -3.7877 O   0  0  0  0  0  0  0  0  0  0  0  0
   21.7381   73.1349   -3.7944 O   0  0  0  0  0  0  0  0  0  0  0  0
   21.1562   71.8597   -3.9941 C   0  0  0  0  0  0  0  0  0  0  0  0
   18.9498   72.2602   -4.8595 O   0  0  0  0  0  0  0  0  0  0  0  0
   17.9356   70.8868   -2.3944 O   0  0  0  0  0  0  0  0  0  0  0  0
   17.7342   68.9359   -4.2890 O   0  0  0  0  0  0  0  0  0  0  0  0
   19.1011   70.6068   -3.1701 C   0  0  1  0  0  0  0  0  0  0  0  0
   18.7159   69.9347   -4.4710 C   0  0  2  0  0  0  0  0  0  0  0  0
   19.6733   71.9323   -3.6535 C   0  0  1  0  0  0  0  0  0  0  0  0
   18.2114   71.1074   -5.2945 C   0  0  2  0  0  0  0  0  0  0  0  0
   17.5521   70.0548   -2.0744 H   0  0  0  0  0  0  0  0  0  0  0  0
   18.1041   68.2117   -3.7593 H   0  0  0  0  0  0  0  0  0  0  0  0
   16.2021   70.3329   -7.1219 O   0  0  0  0  0  0  0  0  0  0  0  0
   19.1411   70.4204  -10.6714 O   0  0  0  0  0  0  0  0  0  0  0  0
   18.4240   70.9205   -6.7019 N   0  0  0  0  0  0  0  0  0  0  0  0
   17.6680   70.3762   -8.8878 N   0  0  0  0  0  0  0  0  0  0  0  0
   17.3472   70.5302   -7.5327 C   0  0  0  0  0  0  0  0  0  0  0  0
   19.6863   71.1248   -7.2458 C   0  0  0  0  0  0  0  0  0  0  0  0
   19.9767   70.9743   -8.5395 C   0  0  0  0  0  0  0  0  0  0  0  0
   18.9081   70.5673   -9.4754 C   0  0  0  0  0  0  0  0  0  0  0  0
   16.9351   70.1030   -9.4856 H   0  0  0  0  0  0  0  0  0  0  0  0
   23.7048   74.5669   -3.0957 O   0  0  0  0  0  0  0  0  0  0  0  0
   23.5804   74.7777   -1.4976 P   0  0  2  0  0  0  0  0  0  0  0  0
   22.3184   75.7813   -1.3542 O   0  0  0  0  0  0  0  0  0  0  0  0
   24.8384   75.2684   -0.8414 O   0  0  0  0  0  0  0  0  0  0  0  0
   23.0415   73.3636   -0.9389 O   0  0  0  0  0  0  0  0  0  0  0  0
   23.9698   73.1123    1.2254 O   0  0  0  0  0  0  0  0  0  0  0  0
   21.6419   69.7139    0.9095 O   0  0  0  0  0  0  0  0  0  0  0  0
   23.2524   70.6212   -1.3527 O   0  0  0  0  0  0  0  0  0  0  0  0
   20.7472   71.9493    2.5385 O   0  0  0  0  0  0  0  0  0  0  0  0
   21.9981   71.0761    0.6736 C   0  0  2  0  0  0  0  0  0  0  0  0
   23.3541   71.1360   -0.0300 C   0  0  2  0  0  0  0  0  0  0  0  0
   22.0687   71.7876    2.0267 C   0  0  1  0  0  0  0  0  0  0  0  0
   23.8746   72.5726   -0.0933 C   0  0  1  0  0  0  0  0  0  0  0  0
   22.7142   73.1644    1.8991 C   0  0  1  0  0  0  0  0  0  0  0  0
   21.5910   69.2417    0.0635 H   0  0  0  0  0  0  0  0  0  0  0  0
   22.9224   69.7100   -1.3200 H   0  0  0  0  0  0  0  0  0  0  0  0
   20.3250   71.0802    2.6243 H   0  0  0  0  0  0  0  0  0  0  0  0
   23.6831   74.9140    3.1245 O   0  0  0  0  0  0  0  0  0  0  0  0
   22.8589   73.1475    4.3075 O   0  0  0  0  0  0  0  0  0  0  0  0
   23.0769   73.7068    3.2432 C   0  0  0  0  0  0  0  0  0  0  0  0
  1  4  1  0
  1 24  1  0
  1  2  1  6
  1  3  2  0
 25 28  1  0
 25 24  1  0
 25 26  1  6
 25 27  2  0
  6 11  1  0
  6 12  1  0
 29 36  1  0
 29 37  1  0
  9  7  1  1
  7 13  1  0
 10  8  1  1
  8 14  1  0
  4  5  1  0
 36 28  1  6
 33 30  1  1
 30 38  1  0
 34 31  1  6
 31 39  1  0
 35 32  1  6
 32 40  1  0
 41 43  1  0
 15 19  2  0
 42 43  2  0
 16 22  2  0
 12 17  1  6
 17 19  1  0
 17 20  1  0
 18 19  1  0
 18 22  1  0
 18 23  1  0
  9 10  1  0
  9 11  1  0
 10 12  1  0
 11  5  1  6
 33 34  1  0
 33 35  1  0
 34 36  1  0
 35 37  1  0
 37 43  1  1
 20 21  2  0
 21 22  1  0
M  CHG  3   2  -1  26  -1  41  -1
M  END
>  <COMPND>  (24) 
    udp_gluA.pdb 

>  <AUTHOR>  (24) 
    GENERATED BY OPEN BABEL 3.1.1

>  <MASTER>  (24) 
        0    0    0    0    0    0    0    0   56    0   56    0

>  <minimizedAffinity>  (24) 
-7.28053

>  <CNNscore>  (24) 
0.7768189907

>  <CNNaffinity>  (24) 
4.5637197495

>  <CNN_VS>  (24) 
3.5451841354

>  <CNNaffinity_variance>  (24) 
0.0499306843

$$$$
25
     RDKit          3D

 43 45  0  0  0  0  0  0  0  0999 V2000
   21.7172   72.5396   -5.3730 P   0  0  2  0  0  0  0  0  0  0  0  0
   20.9791   73.9291   -5.7515 O   0  0  0  0  0  0  0  0  0  0  0  0
   23.2143   72.5705   -5.4704 O   0  0  0  0  0  0  0  0  0  0  0  0
   20.9754   71.4405   -6.3002 O   0  0  0  0  0  0  0  0  0  0  0  0
   20.5742   71.8165   -7.6048 C   0  0  0  0  0  0  0  0  0  0  0  0
   19.1544   69.9391   -7.1176 O   0  0  0  0  0  0  0  0  0  0  0  0
   18.1646   70.1933   -9.9367 O   0  0  0  0  0  0  0  0  0  0  0  0
   16.1745   71.3780   -8.4973 O   0  0  0  0  0  0  0  0  0  0  0  0
   18.5444   71.2169   -9.0166 C   0  0  1  0  0  0  0  0  0  0  0  0
   17.4785   71.3894   -7.9552 C   0  0  2  0  0  0  0  0  0  0  0  0
   19.7241   70.7029   -8.2027 C   0  0  1  0  0  0  0  0  0  0  0  0
   17.7441   70.2020   -7.0456 C   0  0  2  0  0  0  0  0  0  0  0  0
   17.4123   70.4987  -10.4681 H   0  0  0  0  0  0  0  0  0  0  0  0
   16.0550   72.1536   -9.0684 H   0  0  0  0  0  0  0  0  0  0  0  0
   16.3870   68.3787   -5.3692 O   0  0  0  0  0  0  0  0  0  0  0  0
   16.4278   71.3253   -1.8252 O   0  0  0  0  0  0  0  0  0  0  0  0
   17.3875   70.4669   -5.6805 N   0  0  0  0  0  0  0  0  0  0  0  0
   16.4077   69.8484   -3.6060 N   0  0  0  0  0  0  0  0  0  0  0  0
   16.7065   69.4831   -4.9252 C   0  0  0  0  0  0  0  0  0  0  0  0
   17.7134   71.6880   -5.1030 C   0  0  0  0  0  0  0  0  0  0  0  0
   17.4220   72.0217   -3.8442 C   0  0  0  0  0  0  0  0  0  0  0  0
   16.7105   71.0507   -2.9875 C   0  0  0  0  0  0  0  0  0  0  0  0
   15.9319   69.1806   -3.0611 H   0  0  0  0  0  0  0  0  0  0  0  0
   21.1451   72.2152   -3.8965 O   0  0  0  0  0  0  0  0  0  0  0  0
   21.1754   70.8561   -3.0214 P   0  0  2  0  0  0  0  0  0  0  0  0
   22.7332   70.4190   -3.0709 O   0  0  0  0  0  0  0  0  0  0  0  0
   20.2208   69.7981   -3.4939 O   0  0  0  0  0  0  0  0  0  0  0  0
   20.9370   71.3424   -1.5018 O   0  0  0  0  0  0  0  0  0  0  0  0
   22.3557   73.1062   -0.8048 O   0  0  0  0  0  0  0  0  0  0  0  0
   20.5796   71.9983    2.7570 O   0  0  0  0  0  0  0  0  0  0  0  0
   21.4776   69.9698    0.8561 O   0  0  0  0  0  0  0  0  0  0  0  0
   19.7342   74.4250    1.3977 O   0  0  0  0  0  0  0  0  0  0  0  0
   20.6552   72.1992    1.3456 C   0  0  2  0  0  0  0  0  0  0  0  0
   21.7918   71.3548    0.7687 C   0  0  2  0  0  0  0  0  0  0  0  0
   20.9155   73.6859    1.0929 C   0  0  1  0  0  0  0  0  0  0  0  0
   22.0525   71.7150   -0.6945 C   0  0  1  0  0  0  0  0  0  0  0  0
   21.2914   73.9460   -0.3630 C   0  0  1  0  0  0  0  0  0  0  0  0
   20.4147   71.0603    2.9419 H   0  0  0  0  0  0  0  0  0  0  0  0
   21.3106   69.7344    1.7819 H   0  0  0  0  0  0  0  0  0  0  0  0
   19.4841   74.2681    2.3216 H   0  0  0  0  0  0  0  0  0  0  0  0
   22.1003   75.8846    0.6806 O   0  0  0  0  0  0  0  0  0  0  0  0
   22.0759   75.8637   -1.5993 O   0  0  0  0  0  0  0  0  0  0  0  0
   21.8571   75.3190   -0.5276 C   0  0  0  0  0  0  0  0  0  0  0  0
  1  4  1  0
  1 24  1  0
  1  2  1  6
  1  3  2  0
 25 28  1  0
 25 24  1  0
 25 26  1  1
 25 27  2  0
  6 11  1  0
  6 12  1  0
 29 36  1  0
 29 37  1  0
  9  7  1  6
  7 13  1  0
 10  8  1  6
  8 14  1  0
  4  5  1  0
 36 28  1  6
 33 30  1  1
 30 38  1  0
 34 31  1  6
 31 39  1  0
 35 32  1  6
 32 40  1  0
 41 43  1  0
 15 19  2  0
 42 43  2  0
 16 22  2  0
 12 17  1  1
 17 19  1  0
 17 20  1  0
 18 19  1  0
 18 22  1  0
 18 23  1  0
  9 10  1  0
  9 11  1  0
 10 12  1  0
 11  5  1  1
 33 34  1  0
 33 35  1  0
 34 36  1  0
 35 37  1  0
 37 43  1  1
 20 21  2  0
 21 22  1  0
M  CHG  3   2  -1  26  -1  41  -1
M  END
>  <COMPND>  (25) 
    udp_gluA.pdb 

>  <AUTHOR>  (25) 
    GENERATED BY OPEN BABEL 3.1.1

>  <MASTER>  (25) 
        0    0    0    0    0    0    0    0   56    0   56    0

>  <minimizedAffinity>  (25) 
-7.03285

>  <CNNscore>  (25) 
0.7075362802

>  <CNNaffinity>  (25) 
4.5661935806

>  <CNN_VS>  (25) 
3.2307476997

>  <CNNaffinity_variance>  (25) 
0.1625318825

$$$$
26
     RDKit          3D

 43 45  0  0  0  0  0  0  0  0999 V2000
   20.3210   74.1893   -4.6038 P   0  0  2  0  0  0  0  0  0  0  0  0
   19.7507   75.1898   -3.4668 O   0  0  0  0  0  0  0  0  0  0  0  0
   20.7089   74.8513   -5.8934 O   0  0  0  0  0  0  0  0  0  0  0  0
   19.1859   73.0419   -4.7166 O   0  0  0  0  0  0  0  0  0  0  0  0
   18.6056   72.5454   -3.5244 C   0  0  0  0  0  0  0  0  0  0  0  0
   16.8344   72.5556   -5.1493 O   0  0  0  0  0  0  0  0  0  0  0  0
   15.2642   70.9360   -3.1737 O   0  0  0  0  0  0  0  0  0  0  0  0
   16.1345   69.0458   -4.9361 O   0  0  0  0  0  0  0  0  0  0  0  0
   16.6627   70.9043   -3.4598 C   0  0  1  0  0  0  0  0  0  0  0  0
   16.9110   70.2157   -4.7852 C   0  0  2  0  0  0  0  0  0  0  0  0
   17.1150   72.3286   -3.7511 C   0  0  1  0  0  0  0  0  0  0  0  0
   16.5337   71.3004   -5.7796 C   0  0  2  0  0  0  0  0  0  0  0  0
   14.9521   70.0368   -2.9844 H   0  0  0  0  0  0  0  0  0  0  0  0
   16.4130   68.3861   -4.2809 H   0  0  0  0  0  0  0  0  0  0  0  0
   16.0351   72.8680   -8.0754 O   0  0  0  0  0  0  0  0  0  0  0  0
   19.4455   70.8424  -10.4228 O   0  0  0  0  0  0  0  0  0  0  0  0
   17.2762   71.2033   -7.0044 N   0  0  0  0  0  0  0  0  0  0  0  0
   17.7335   71.8569   -9.2427 N   0  0  0  0  0  0  0  0  0  0  0  0
   16.9449   72.0369   -8.0987 C   0  0  0  0  0  0  0  0  0  0  0  0
   18.3198   70.2922   -7.1124 C   0  0  0  0  0  0  0  0  0  0  0  0
   19.0626   70.1321   -8.2095 C   0  0  0  0  0  0  0  0  0  0  0  0
   18.7812   70.9637   -9.3980 C   0  0  0  0  0  0  0  0  0  0  0  0
   17.5204   72.4247  -10.0183 H   0  0  0  0  0  0  0  0  0  0  0  0
   21.5305   73.4306   -3.8459 O   0  0  0  0  0  0  0  0  0  0  0  0
   22.3975   72.1322   -4.2655 P   0  0  2  0  0  0  0  0  0  0  0  0
   23.8533   72.7533   -4.6047 O   0  0  0  0  0  0  0  0  0  0  0  0
   21.7958   71.3232   -5.3780 O   0  0  0  0  0  0  0  0  0  0  0  0
   22.6119   71.3206   -2.8879 O   0  0  0  0  0  0  0  0  0  0  0  0
   23.0092   72.5493   -0.9025 O   0  0  0  0  0  0  0  0  0  0  0  0
   24.1628   68.7440    0.2188 O   0  0  0  0  0  0  0  0  0  0  0  0
   24.8896   69.7984   -2.4070 O   0  0  0  0  0  0  0  0  0  0  0  0
   21.6240   69.8274    1.1309 O   0  0  0  0  0  0  0  0  0  0  0  0
   23.3997   69.7175   -0.4939 C   0  0  2  0  0  0  0  0  0  0  0  0
   24.3335   70.5728   -1.3507 C   0  0  2  0  0  0  0  0  0  0  0  0
   22.6699   70.5891    0.5306 C   0  0  1  0  0  0  0  0  0  0  0  0
   23.5876   71.7669   -1.9479 C   0  0  1  0  0  0  0  0  0  0  0  0
   22.0595   71.8252   -0.1236 C   0  0  1  0  0  0  0  0  0  0  0  0
   24.6355   68.1784   -0.4120 H   0  0  0  0  0  0  0  0  0  0  0  0
   25.3641   69.0388   -2.0352 H   0  0  0  0  0  0  0  0  0  0  0  0
   21.9992   69.0376    1.5508 H   0  0  0  0  0  0  0  0  0  0  0  0
   20.4443   72.4834    1.4446 O   0  0  0  0  0  0  0  0  0  0  0  0
   22.2898   73.8059    1.2347 O   0  0  0  0  0  0  0  0  0  0  0  0
   21.6435   72.8213    0.9093 C   0  0  0  0  0  0  0  0  0  0  0  0
  1  4  1  0
  1 24  1  0
  1  2  1  1
  1  3  2  0
 25 28  1  0
 25 24  1  0
 25 26  1  6
 25 27  2  0
  6 11  1  0
  6 12  1  0
 29 36  1  0
 29 37  1  0
  9  7  1  6
  7 13  1  0
 10  8  1  6
  8 14  1  0
  4  5  1  0
 36 28  1  6
 33 30  1  1
 30 38  1  0
 34 31  1  6
 31 39  1  0
 35 32  1  6
 32 40  1  0
 41 43  1  0
 15 19  2  0
 42 43  2  0
 16 22  2  0
 12 17  1  6
 17 19  1  0
 17 20  1  0
 18 19  1  0
 18 22  1  0
 18 23  1  0
  9 10  1  0
  9 11  1  0
 10 12  1  0
 11  5  1  6
 33 34  1  0
 33 35  1  0
 34 36  1  0
 35 37  1  0
 37 43  1  1
 20 21  2  0
 21 22  1  0
M  CHG  3   2  -1  26  -1  41  -1
M  END
>  <COMPND>  (26) 
    udp_gluA.pdb 

>  <AUTHOR>  (26) 
    GENERATED BY OPEN BABEL 3.1.1

>  <MASTER>  (26) 
        0    0    0    0    0    0    0    0   56    0   56    0

>  <minimizedAffinity>  (26) 
-7.08266

>  <CNNscore>  (26) 
0.6521119475

>  <CNNaffinity>  (26) 
4.4533896446

>  <CNN_VS>  (26) 
2.9041085243

>  <CNNaffinity_variance>  (26) 
0.1073539108

$$$$
27
     RDKit          3D

 43 45  0  0  0  0  0  0  0  0999 V2000
   21.8930   72.7035   -5.4330 P   0  0  2  0  0  0  0  0  0  0  0  0
   20.9411   74.0053   -5.2981 O   0  0  0  0  0  0  0  0  0  0  0  0
   23.2048   72.9464   -6.1201 O   0  0  0  0  0  0  0  0  0  0  0  0
   20.9366   71.5921   -6.1172 O   0  0  0  0  0  0  0  0  0  0  0  0
   20.0839   71.9923   -7.1742 C   0  0  0  0  0  0  0  0  0  0  0  0
   18.7420   70.0544   -6.7033 O   0  0  0  0  0  0  0  0  0  0  0  0
   18.1850   69.9545   -9.6480 O   0  0  0  0  0  0  0  0  0  0  0  0
   15.9174   71.0947   -8.6509 O   0  0  0  0  0  0  0  0  0  0  0  0
   18.3445   71.0894   -8.7965 C   0  0  1  0  0  0  0  0  0  0  0  0
   17.1178   71.2694   -7.9276 C   0  0  2  0  0  0  0  0  0  0  0  0
   19.4174   70.7581   -7.7682 C   0  0  1  0  0  0  0  0  0  0  0  0
   17.3226   70.2007   -6.8676 C   0  0  2  0  0  0  0  0  0  0  0  0
   17.5042   70.1424  -10.3136 H   0  0  0  0  0  0  0  0  0  0  0  0
   15.8332   71.7996   -9.3128 H   0  0  0  0  0  0  0  0  0  0  0  0
   16.6318   68.3563   -4.8433 O   0  0  0  0  0  0  0  0  0  0  0  0
   15.0984   71.7001   -2.0662 O   0  0  0  0  0  0  0  0  0  0  0  0
   16.7413   70.5621   -5.6057 N   0  0  0  0  0  0  0  0  0  0  0  0
   15.8678   70.0234   -3.4625 N   0  0  0  0  0  0  0  0  0  0  0  0
   16.4316   69.5582   -4.6578 C   0  0  0  0  0  0  0  0  0  0  0  0
   16.4854   71.8970   -5.3168 C   0  0  0  0  0  0  0  0  0  0  0  0
   15.9477   72.3251   -4.1729 C   0  0  0  0  0  0  0  0  0  0  0  0
   15.5940   71.3401   -3.1298 C   0  0  0  0  0  0  0  0  0  0  0  0
   15.6418   69.3427   -2.7880 H   0  0  0  0  0  0  0  0  0  0  0  0
   22.0180   72.1856   -3.9069 O   0  0  0  0  0  0  0  0  0  0  0  0
   23.2756   72.1693   -2.8912 P   0  0  2  0  0  0  0  0  0  0  0  0
   23.8989   73.6547   -3.0503 O   0  0  0  0  0  0  0  0  0  0  0  0
   24.2540   71.0582   -3.1404 O   0  0  0  0  0  0  0  0  0  0  0  0
   22.6135   72.1609   -1.4202 O   0  0  0  0  0  0  0  0  0  0  0  0
   23.9281   70.9693    0.1487 O   0  0  0  0  0  0  0  0  0  0  0  0
   20.5368   71.8043    2.3554 O   0  0  0  0  0  0  0  0  0  0  0  0
   20.3178   70.9440   -0.4278 O   0  0  0  0  0  0  0  0  0  0  0  0
   22.9814   73.3101    2.8107 O   0  0  0  0  0  0  0  0  0  0  0  0
   21.5358   72.0378    1.3628 C   0  0  2  0  0  0  0  0  0  0  0  0
   21.5155   70.9021    0.3393 C   0  0  2  0  0  0  0  0  0  0  0  0
   22.8946   72.0977    2.0643 C   0  0  1  0  0  0  0  0  0  0  0  0
   22.7151   70.9949   -0.6047 C   0  0  1  0  0  0  0  0  0  0  0  0
   24.0425   72.0602    1.0596 C   0  0  1  0  0  0  0  0  0  0  0  0
   19.6644   71.7623    1.9328 H   0  0  0  0  0  0  0  0  0  0  0  0
   19.5525   70.8858    0.1649 H   0  0  0  0  0  0  0  0  0  0  0  0
   22.2562   73.3466    3.4538 H   0  0  0  0  0  0  0  0  0  0  0  0
   25.8919   70.6364    1.2912 O   0  0  0  0  0  0  0  0  0  0  0  0
   25.8446   72.5015    2.6020 O   0  0  0  0  0  0  0  0  0  0  0  0
   25.3407   71.7883    1.7473 C   0  0  0  0  0  0  0  0  0  0  0  0
  1  4  1  0
  1 24  1  0
  1  2  1  1
  1  3  2  0
 25 28  1  0
 25 24  1  0
 25 26  1  1
 25 27  2  0
  6 11  1  0
  6 12  1  0
 29 36  1  0
 29 37  1  0
  9  7  1  6
  7 13  1  0
 10  8  1  6
  8 14  1  0
  4  5  1  0
 36 28  1  1
 33 30  1  1
 30 38  1  0
 34 31  1  6
 31 39  1  0
 35 32  1  6
 32 40  1  0
 41 43  1  0
 15 19  2  0
 42 43  2  0
 16 22  2  0
 12 17  1  1
 17 19  1  0
 17 20  1  0
 18 19  1  0
 18 22  1  0
 18 23  1  0
  9 10  1  0
  9 11  1  0
 10 12  1  0
 11  5  1  1
 33 34  1  0
 33 35  1  0
 34 36  1  0
 35 37  1  0
 37 43  1  1
 20 21  2  0
 21 22  1  0
M  CHG  3   2  -1  26  -1  41  -1
M  END
>  <COMPND>  (27) 
    udp_gluA.pdb 

>  <AUTHOR>  (27) 
    GENERATED BY OPEN BABEL 3.1.1

>  <MASTER>  (27) 
        0    0    0    0    0    0    0    0   56    0   56    0

>  <minimizedAffinity>  (27) 
-7.70950

>  <CNNscore>  (27) 
0.6472736001

>  <CNNaffinity>  (27) 
4.3846993446

>  <CNN_VS>  (27) 
2.8381001949

>  <CNNaffinity_variance>  (27) 
0.1118186489

$$$$
28
     RDKit          3D

 43 45  0  0  0  0  0  0  0  0999 V2000
   21.0237   74.6482   -2.7666 P   0  0  2  0  0  0  0  0  0  0  0  0
   21.1854   74.5918   -1.1574 O   0  0  0  0  0  0  0  0  0  0  0  0
   20.7052   76.0045   -3.3242 O   0  0  0  0  0  0  0  0  0  0  0  0
   19.9464   73.4850   -3.0898 O   0  0  0  0  0  0  0  0  0  0  0  0
   19.1786   73.5850   -4.2751 C   0  0  0  0  0  0  0  0  0  0  0  0
   17.2676   72.6118   -5.3608 O   0  0  0  0  0  0  0  0  0  0  0  0
   16.7397   71.2089   -2.7638 O   0  0  0  0  0  0  0  0  0  0  0  0
   17.9070   69.2573   -4.2687 O   0  0  0  0  0  0  0  0  0  0  0  0
   17.9868   71.5211   -3.3850 C   0  0  1  0  0  0  0  0  0  0  0  0
   18.2313   70.6003   -4.5617 C   0  0  2  0  0  0  0  0  0  0  0  0
   17.8467   72.8763   -4.0647 C   0  0  1  0  0  0  0  0  0  0  0  0
   17.3283   71.2013   -5.6254 C   0  0  2  0  0  0  0  0  0  0  0  0
   16.8046   70.3469   -2.3227 H   0  0  0  0  0  0  0  0  0  0  0  0
   18.5098   68.9205   -3.5868 H   0  0  0  0  0  0  0  0  0  0  0  0
   15.8235   70.1188   -7.7562 O   0  0  0  0  0  0  0  0  0  0  0  0
   19.3724   70.4611  -10.6772 O   0  0  0  0  0  0  0  0  0  0  0  0
   17.8343   70.9966   -6.9531 N   0  0  0  0  0  0  0  0  0  0  0  0
   17.5928   70.2894   -9.2087 N   0  0  0  0  0  0  0  0  0  0  0  0
   16.9957   70.4459   -7.9509 C   0  0  0  0  0  0  0  0  0  0  0  0
   19.1459   71.3411   -7.2563 C   0  0  0  0  0  0  0  0  0  0  0  0
   19.7009   71.1861   -8.4599 C   0  0  0  0  0  0  0  0  0  0  0  0
   18.8929   70.6165   -9.5582 C   0  0  0  0  0  0  0  0  0  0  0  0
   17.0292   69.9060   -9.9191 H   0  0  0  0  0  0  0  0  0  0  0  0
   22.4135   74.0129   -3.2935 O   0  0  0  0  0  0  0  0  0  0  0  0
   22.9769   72.4986   -3.2378 P   0  0  2  0  0  0  0  0  0  0  0  0
   24.4421   72.6240   -3.9144 O   0  0  0  0  0  0  0  0  0  0  0  0
   22.0808   71.4839   -3.8869 O   0  0  0  0  0  0  0  0  0  0  0  0
   23.2719   72.2289   -1.6749 O   0  0  0  0  0  0  0  0  0  0  0  0
   24.0401   70.4900   -0.2623 O   0  0  0  0  0  0  0  0  0  0  0  0
   20.6386   71.7424    1.7199 O   0  0  0  0  0  0  0  0  0  0  0  0
   20.6412   71.4679   -1.1886 O   0  0  0  0  0  0  0  0  0  0  0  0
   23.2659   72.4864    2.7171 O   0  0  0  0  0  0  0  0  0  0  0  0
   21.7988   71.8903    0.9013 C   0  0  2  0  0  0  0  0  0  0  0  0
   21.6732   70.9942   -0.3311 C   0  0  2  0  0  0  0  0  0  0  0  0
   23.0184   71.4850    1.7321 C   0  0  1  0  0  0  0  0  0  0  0  0
   22.9878   70.9497   -1.1113 C   0  0  1  0  0  0  0  0  0  0  0  0
   24.2627   71.3400    0.8607 C   0  0  1  0  0  0  0  0  0  0  0  0
   19.8507   71.9944    1.2129 H   0  0  0  0  0  0  0  0  0  0  0  0
   19.8042   71.4990   -0.6999 H   0  0  0  0  0  0  0  0  0  0  0  0
   22.4814   72.5888    3.2784 H   0  0  0  0  0  0  0  0  0  0  0  0
   24.8537   69.9995    2.6925 O   0  0  0  0  0  0  0  0  0  0  0  0
   26.5296   70.6281    1.2800 O   0  0  0  0  0  0  0  0  0  0  0  0
   25.3514   70.6361    1.6035 C   0  0  0  0  0  0  0  0  0  0  0  0
  1  4  1  0
  1 24  1  0
  1  2  1  1
  1  3  2  0
 25 28  1  0
 25 24  1  0
 25 26  1  6
 25 27  2  0
  6 11  1  0
  6 12  1  0
 29 36  1  0
 29 37  1  0
  9  7  1  6
  7 13  1  0
 10  8  1  1
  8 14  1  0
  4  5  1  0
 36 28  1  1
 33 30  1  1
 30 38  1  0
 34 31  1  6
 31 39  1  0
 35 32  1  1
 32 40  1  0
 41 43  1  0
 15 19  2  0
 42 43  2  0
 16 22  2  0
 12 17  1  6
 17 19  1  0
 17 20  1  0
 18 19  1  0
 18 22  1  0
 18 23  1  0
  9 10  1  0
  9 11  1  0
 10 12  1  0
 11  5  1  6
 33 34  1  0
 33 35  1  0
 34 36  1  0
 35 37  1  0
 37 43  1  1
 20 21  2  0
 21 22  1  0
M  CHG  3   2  -1  26  -1  41  -1
M  END
>  <COMPND>  (28) 
    udp_gluA.pdb 

>  <AUTHOR>  (28) 
    GENERATED BY OPEN BABEL 3.1.1

>  <MASTER>  (28) 
        0    0    0    0    0    0    0    0   56    0   56    0

>  <minimizedAffinity>  (28) 
-7.24141

>  <CNNscore>  (28) 
0.6383343339

>  <CNNaffinity>  (28) 
4.3042554855

>  <CNN_VS>  (28) 
2.7475540638

>  <CNNaffinity_variance>  (28) 
0.0416237116

$$$$
29
     RDKit          3D

 43 45  0  0  0  0  0  0  0  0999 V2000
   21.8108   72.4532   -5.8748 P   0  0  2  0  0  0  0  0  0  0  0  0
   20.9735   73.7544   -5.4008 O   0  0  0  0  0  0  0  0  0  0  0  0
   23.0134   72.7480   -6.7226 O   0  0  0  0  0  0  0  0  0  0  0  0
   20.6935   71.4965   -6.5487 O   0  0  0  0  0  0  0  0  0  0  0  0
   20.4166   71.6487   -7.9288 C   0  0  0  0  0  0  0  0  0  0  0  0
   19.0184   69.8242   -7.2260 O   0  0  0  0  0  0  0  0  0  0  0  0
   17.9579   69.8006  -10.0307 O   0  0  0  0  0  0  0  0  0  0  0  0
   15.9983   71.1149   -8.6638 O   0  0  0  0  0  0  0  0  0  0  0  0
   18.3554   70.9097   -9.2242 C   0  0  1  0  0  0  0  0  0  0  0  0
   17.3153   71.1820   -8.1582 C   0  0  2  0  0  0  0  0  0  0  0  0
   19.5574   70.4801   -8.3941 C   0  0  1  0  0  0  0  0  0  0  0  0
   17.6090   70.0894   -7.1445 C   0  0  2  0  0  0  0  0  0  0  0  0
   17.1912   70.0510  -10.5702 H   0  0  0  0  0  0  0  0  0  0  0  0
   15.8610   71.8310   -9.3043 H   0  0  0  0  0  0  0  0  0  0  0  0
   16.4757   68.3761   -5.2062 O   0  0  0  0  0  0  0  0  0  0  0  0
   16.4080   71.7150   -2.0296 O   0  0  0  0  0  0  0  0  0  0  0  0
   17.2851   70.4849   -5.8031 N   0  0  0  0  0  0  0  0  0  0  0  0
   16.4421   70.0410   -3.6262 N   0  0  0  0  0  0  0  0  0  0  0  0
   16.7187   69.5469   -4.9078 C   0  0  0  0  0  0  0  0  0  0  0  0
   17.5299   71.7876   -5.3859 C   0  0  0  0  0  0  0  0  0  0  0  0
   17.2610   72.2438   -4.1610 C   0  0  0  0  0  0  0  0  0  0  0  0
   16.6672   71.3279   -3.1651 C   0  0  0  0  0  0  0  0  0  0  0  0
   16.0455   69.4069   -2.9859 H   0  0  0  0  0  0  0  0  0  0  0  0
   22.1374   71.7040   -4.4802 O   0  0  0  0  0  0  0  0  0  0  0  0
   21.1609   71.1762   -3.3048 P   0  0  2  0  0  0  0  0  0  0  0  0
   20.2805   70.0342   -4.0404 O   0  0  0  0  0  0  0  0  0  0  0  0
   20.3496   72.2549   -2.6475 O   0  0  0  0  0  0  0  0  0  0  0  0
   22.1288   70.3621   -2.3034 O   0  0  0  0  0  0  0  0  0  0  0  0
   23.7864   71.8351   -1.4716 O   0  0  0  0  0  0  0  0  0  0  0  0
   24.8667   68.2648    0.3044 O   0  0  0  0  0  0  0  0  0  0  0  0
   24.0206   68.3319   -2.4910 O   0  0  0  0  0  0  0  0  0  0  0  0
   23.5383   70.3272    1.8641 O   0  0  0  0  0  0  0  0  0  0  0  0
   23.9659   69.2304   -0.2380 C   0  0  2  0  0  0  0  0  0  0  0  0
   24.3098   69.4830   -1.7062 C   0  0  2  0  0  0  0  0  0  0  0  0
   24.1113   70.5204    0.5723 C   0  0  1  0  0  0  0  0  0  0  0  0
   23.5204   70.6719   -2.2562 C   0  0  1  0  0  0  0  0  0  0  0  0
   23.4009   71.6878   -0.1067 C   0  0  1  0  0  0  0  0  0  0  0  0
   24.7920   67.4363   -0.1949 H   0  0  0  0  0  0  0  0  0  0  0  0
   24.5180   67.5736   -2.1474 H   0  0  0  0  0  0  0  0  0  0  0  0
   23.9815   69.5867    2.3070 H   0  0  0  0  0  0  0  0  0  0  0  0
   24.1186   73.8923   -0.4627 O   0  0  0  0  0  0  0  0  0  0  0  0
   23.8763   73.2138    1.7007 O   0  0  0  0  0  0  0  0  0  0  0  0
   23.8165   72.9877    0.5014 C   0  0  0  0  0  0  0  0  0  0  0  0
  1  4  1  0
  1 24  1  0
  1  2  1  1
  1  3  2  0
 25 28  1  0
 25 24  1  0
 25 26  1  6
 25 27  2  0
  6 11  1  0
  6 12  1  0
 29 36  1  0
 29 37  1  0
  9  7  1  6
  7 13  1  0
 10  8  1  6
  8 14  1  0
  4  5  1  0
 36 28  1  1
 33 30  1  1
 30 38  1  0
 34 31  1  6
 31 39  1  0
 35 32  1  1
 32 40  1  0
 41 43  1  0
 15 19  2  0
 42 43  2  0
 16 22  2  0
 12 17  1  1
 17 19  1  0
 17 20  1  0
 18 19  1  0
 18 22  1  0
 18 23  1  0
  9 10  1  0
  9 11  1  0
 10 12  1  0
 11  5  1  1
 33 34  1  0
 33 35  1  0
 34 36  1  0
 35 37  1  0
 37 43  1  1
 20 21  2  0
 21 22  1  0
M  CHG  3   2  -1  26  -1  41  -1
M  END
>  <COMPND>  (29) 
    udp_gluA.pdb 

>  <AUTHOR>  (29) 
    GENERATED BY OPEN BABEL 3.1.1

>  <MASTER>  (29) 
        0    0    0    0    0    0    0    0   56    0   56    0

>  <minimizedAffinity>  (29) 
-7.72869

>  <CNNscore>  (29) 
0.6146648526

>  <CNNaffinity>  (29) 
4.4194459915

>  <CNN_VS>  (29) 
2.7164781094

>  <CNNaffinity_variance>  (29) 
0.1782987565

$$$$
30
     RDKit          3D

 43 45  0  0  0  0  0  0  0  0999 V2000
   16.3863   69.7014   -2.7587 P   0  0  2  0  0  0  0  0  0  0  0  0
   15.8072   71.2124   -2.7809 O   0  0  0  0  0  0  0  0  0  0  0  0
   16.3875   69.0039   -4.0873 O   0  0  0  0  0  0  0  0  0  0  0  0
   15.5386   68.9777   -1.5859 O   0  0  0  0  0  0  0  0  0  0  0  0
   14.6590   69.7642   -0.8035 C   0  0  0  0  0  0  0  0  0  0  0  0
   12.7940   68.2478   -0.8031 O   0  0  0  0  0  0  0  0  0  0  0  0
   11.1187   70.6017   -1.6056 O   0  0  0  0  0  0  0  0  0  0  0  0
   10.5991   70.3823    1.0624 O   0  0  0  0  0  0  0  0  0  0  0  0
   12.2404   70.5495   -0.7238 C   0  0  1  0  0  0  0  0  0  0  0  0
   11.8444   69.9116    0.5909 C   0  0  2  0  0  0  0  0  0  0  0  0
   13.2311   69.5377   -1.2832 C   0  0  1  0  0  0  0  0  0  0  0  0
   11.8129   68.4365    0.2289 C   0  0  2  0  0  0  0  0  0  0  0  0
   10.4718   71.2418   -1.2688 H   0  0  0  0  0  0  0  0  0  0  0  0
   10.6712   71.3256    1.2794 H   0  0  0  0  0  0  0  0  0  0  0  0
   10.0137   66.6252    1.4365 O   0  0  0  0  0  0  0  0  0  0  0  0
   13.1714   65.2458    4.4975 O   0  0  0  0  0  0  0  0  0  0  0  0
   12.1386   67.5918    1.3429 N   0  0  0  0  0  0  0  0  0  0  0  0
   11.5878   65.9407    2.9606 N   0  0  0  0  0  0  0  0  0  0  0  0
   11.1618   66.7173    1.8750 C   0  0  0  0  0  0  0  0  0  0  0  0
   13.4130   67.6332    1.8955 C   0  0  0  0  0  0  0  0  0  0  0  0
   13.8044   66.8867    2.9301 C   0  0  0  0  0  0  0  0  0  0  0  0
   12.8439   65.9473    3.5452 C   0  0  0  0  0  0  0  0  0  0  0  0
   10.9245   65.3257    3.3493 H   0  0  0  0  0  0  0  0  0  0  0  0
   17.8476   69.8826   -2.0920 O   0  0  0  0  0  0  0  0  0  0  0  0
   18.8815   71.1250   -2.1224 P   0  0  2  0  0  0  0  0  0  0  0  0
   20.2092   70.5186   -1.4225 O   0  0  0  0  0  0  0  0  0  0  0  0
   18.3595   72.3765   -1.4779 O   0  0  0  0  0  0  0  0  0  0  0  0
   19.2793   71.2886   -3.6772 O   0  0  0  0  0  0  0  0  0  0  0  0
   20.7802   72.9240   -4.5029 O   0  0  0  0  0  0  0  0  0  0  0  0
   18.5239   72.0824   -7.8598 O   0  0  0  0  0  0  0  0  0  0  0  0
   17.2461   72.3553   -5.2469 O   0  0  0  0  0  0  0  0  0  0  0  0
   21.2237   71.0326   -7.6154 O   0  0  0  0  0  0  0  0  0  0  0  0
   19.1686   71.7984   -6.6181 C   0  0  2  0  0  0  0  0  0  0  0  0
   18.5972   72.7034   -5.5262 C   0  0  2  0  0  0  0  0  0  0  0  0
   20.6668   72.0564   -6.7933 C   0  0  1  0  0  0  0  0  0  0  0  0
   19.4163   72.5923   -4.2395 C   0  0  1  0  0  0  0  0  0  0  0  0
   21.3932   72.0535   -5.4513 C   0  0  1  0  0  0  0  0  0  0  0  0
   17.5704   71.9255   -7.7726 H   0  0  0  0  0  0  0  0  0  0  0  0
   16.7206   72.4233   -6.0591 H   0  0  0  0  0  0  0  0  0  0  0  0
   20.7700   71.0237   -8.4727 H   0  0  0  0  0  0  0  0  0  0  0  0
   22.9191   73.2161   -6.8009 O   0  0  0  0  0  0  0  0  0  0  0  0
   23.6390   72.5696   -4.7362 O   0  0  0  0  0  0  0  0  0  0  0  0
   22.7673   72.6235   -5.5907 C   0  0  0  0  0  0  0  0  0  0  0  0
  1  4  1  0
  1 24  1  0
  1  2  1  6
  1  3  2  0
 25 28  1  0
 25 24  1  0
 25 26  1  1
 25 27  2  0
  6 11  1  0
  6 12  1  0
 29 36  1  0
 29 37  1  0
  9  7  1  6
  7 13  1  0
 10  8  1  6
  8 14  1  0
  4  5  1  0
 36 28  1  6
 33 30  1  6
 30 38  1  0
 34 31  1  1
 31 39  1  0
 35 32  1  6
 32 40  1  0
 41 43  1  0
 15 19  2  0
 42 43  2  0
 16 22  2  0
 12 17  1  1
 17 19  1  0
 17 20  1  0
 18 19  1  0
 18 22  1  0
 18 23  1  0
  9 10  1  0
  9 11  1  0
 10 12  1  0
 11  5  1  1
 33 34  1  0
 33 35  1  0
 34 36  1  0
 35 37  1  0
 37 43  1  6
 20 21  2  0
 21 22  1  0
M  CHG  3   2  -1  26  -1  41  -1
M  END
>  <COMPND>  (30) 
    udp_gluA.pdb 

>  <AUTHOR>  (30) 
    GENERATED BY OPEN BABEL 3.1.1

>  <MASTER>  (30) 
        0    0    0    0    0    0    0    0   56    0   56    0

>  <minimizedAffinity>  (30) 
-6.58856

>  <CNNscore>  (30) 
0.5913403630

>  <CNNaffinity>  (30) 
4.1969933510

>  <CNN_VS>  (30) 
2.4818515778

>  <CNNaffinity_variance>  (30) 
0.0399439037

$$$$
31
     RDKit          3D

 43 45  0  0  0  0  0  0  0  0999 V2000
   15.4546   70.2848   -1.7563 P   0  0  2  0  0  0  0  0  0  0  0  0
   16.3747   71.4755   -1.1610 O   0  0  0  0  0  0  0  0  0  0  0  0
   14.5206   70.6955   -2.8566 O   0  0  0  0  0  0  0  0  0  0  0  0
   14.7569   69.6409   -0.4462 O   0  0  0  0  0  0  0  0  0  0  0  0
   13.4894   69.0262   -0.5883 C   0  0  0  0  0  0  0  0  0  0  0  0
   11.4406   68.6170    0.6001 O   0  0  0  0  0  0  0  0  0  0  0  0
   13.1602   68.0052    2.9792 O   0  0  0  0  0  0  0  0  0  0  0  0
   12.4938   65.5218    2.0713 O   0  0  0  0  0  0  0  0  0  0  0  0
   13.3966   67.7294    1.5985 C   0  0  1  0  0  0  0  0  0  0  0  0
   12.5255   66.5803    1.1369 C   0  0  2  0  0  0  0  0  0  0  0  0
   12.8457   68.8932    0.7859 C   0  0  1  0  0  0  0  0  0  0  0  0
   11.1746   67.2552    0.9718 C   0  0  2  0  0  0  0  0  0  0  0  0
   13.5037   67.2753    3.5186 H   0  0  0  0  0  0  0  0  0  0  0  0
   13.3768   65.1249    2.1403 H   0  0  0  0  0  0  0  0  0  0  0  0
    8.3533   67.3470    0.8812 O   0  0  0  0  0  0  0  0  0  0  0  0
    8.2146   64.8582   -2.9957 O   0  0  0  0  0  0  0  0  0  0  0  0
   10.3759   66.6398   -0.0501 N   0  0  0  0  0  0  0  0  0  0  0  0
    8.2869   66.1065   -1.0491 N   0  0  0  0  0  0  0  0  0  0  0  0
    8.9656   66.7450   -0.0028 C   0  0  0  0  0  0  0  0  0  0  0  0
   10.9892   65.9435   -1.0845 C   0  0  0  0  0  0  0  0  0  0  0  0
   10.3288   65.3401   -2.0748 C   0  0  0  0  0  0  0  0  0  0  0  0
    8.8527   65.4017   -2.0992 C   0  0  0  0  0  0  0  0  0  0  0  0
    7.3041   66.1642   -1.0365 H   0  0  0  0  0  0  0  0  0  0  0  0
   16.5401   69.1637   -2.1780 O   0  0  0  0  0  0  0  0  0  0  0  0
   17.8372   69.2506   -3.1391 P   0  0  2  0  0  0  0  0  0  0  0  0
   18.1046   67.7053   -3.5401 O   0  0  0  0  0  0  0  0  0  0  0  0
   19.0173   69.9419   -2.5198 O   0  0  0  0  0  0  0  0  0  0  0  0
   17.2962   69.9356   -4.4958 O   0  0  0  0  0  0  0  0  0  0  0  0
   18.6610   70.6305   -6.3023 O   0  0  0  0  0  0  0  0  0  0  0  0
   15.3494   73.0561   -6.7690 O   0  0  0  0  0  0  0  0  0  0  0  0
   16.4593   72.5602   -4.1125 O   0  0  0  0  0  0  0  0  0  0  0  0
   15.7469   70.7752   -8.5270 O   0  0  0  0  0  0  0  0  0  0  0  0
   16.0550   71.8703   -6.4031 C   0  0  2  0  0  0  0  0  0  0  0  0
   17.0960   72.2034   -5.3340 C   0  0  2  0  0  0  0  0  0  0  0  0
   16.7376   71.3200   -7.6574 C   0  0  1  0  0  0  0  0  0  0  0  0
   18.0230   71.0132   -5.0833 C   0  0  1  0  0  0  0  0  0  0  0  0
   17.7391   70.2222   -7.3105 C   0  0  1  0  0  0  0  0  0  0  0  0
   14.9075   73.4238   -5.9875 H   0  0  0  0  0  0  0  0  0  0  0  0
   15.8693   73.3147   -4.2643 H   0  0  0  0  0  0  0  0  0  0  0  0
   15.1031   71.4638   -8.7553 H   0  0  0  0  0  0  0  0  0  0  0  0
   19.9311   70.0213   -8.1205 O   0  0  0  0  0  0  0  0  0  0  0  0
   18.2371   69.6340   -9.5968 O   0  0  0  0  0  0  0  0  0  0  0  0
   18.6259   69.9257   -8.4758 C   0  0  0  0  0  0  0  0  0  0  0  0
  1  4  1  0
  1 24  1  0
  1  2  1  1
  1  3  2  0
 25 28  1  0
 25 24  1  0
 25 26  1  6
 25 27  2  0
  6 11  1  0
  6 12  1  0
 29 36  1  0
 29 37  1  0
  9  7  1  1
  7 13  1  0
 10  8  1  1
  8 14  1  0
  4  5  1  0
 36 28  1  6
 33 30  1  6
 30 38  1  0
 34 31  1  1
 31 39  1  0
 35 32  1  6
 32 40  1  0
 41 43  1  0
 15 19  2  0
 42 43  2  0
 16 22  2  0
 12 17  1  6
 17 19  1  0
 17 20  1  0
 18 19  1  0
 18 22  1  0
 18 23  1  0
  9 10  1  0
  9 11  1  0
 10 12  1  0
 11  5  1  6
 33 34  1  0
 33 35  1  0
 34 36  1  0
 35 37  1  0
 37 43  1  6
 20 21  2  0
 21 22  1  0
M  CHG  3   2  -1  26  -1  41  -1
M  END
>  <COMPND>  (31) 
    udp_gluA.pdb 

>  <AUTHOR>  (31) 
    GENERATED BY OPEN BABEL 3.1.1

>  <MASTER>  (31) 
        0    0    0    0    0    0    0    0   56    0   56    0

>  <minimizedAffinity>  (31) 
-6.88280

>  <CNNscore>  (31) 
0.5589534044

>  <CNNaffinity>  (31) 
4.3905987740

>  <CNN_VS>  (31) 
2.4541401863

>  <CNNaffinity_variance>  (31) 
0.0369247943

$$$$
32
     RDKit          3D

 43 45  0  0  0  0  0  0  0  0999 V2000
   21.9770   73.0223   -6.0603 P   0  0  2  0  0  0  0  0  0  0  0  0
   21.1314   74.3742   -5.7844 O   0  0  0  0  0  0  0  0  0  0  0  0
   23.1192   73.1745   -7.0215 O   0  0  0  0  0  0  0  0  0  0  0  0
   20.8505   71.9370   -6.4738 O   0  0  0  0  0  0  0  0  0  0  0  0
   20.0268   72.2102   -7.5925 C   0  0  0  0  0  0  0  0  0  0  0  0
   19.0145   70.1050   -7.0259 O   0  0  0  0  0  0  0  0  0  0  0  0
   18.1947   69.9359   -9.9053 O   0  0  0  0  0  0  0  0  0  0  0  0
   15.8994   70.7508   -8.6791 O   0  0  0  0  0  0  0  0  0  0  0  0
   18.2789   71.0801   -9.0554 C   0  0  1  0  0  0  0  0  0  0  0  0
   17.1287   71.0875   -8.0709 C   0  0  2  0  0  0  0  0  0  0  0  0
   19.4813   70.8973   -8.1393 C   0  0  1  0  0  0  0  0  0  0  0  0
   17.5792   70.0548   -7.0518 C   0  0  2  0  0  0  0  0  0  0  0  0
   17.4336   70.0297  -10.5000 H   0  0  0  0  0  0  0  0  0  0  0  0
   15.6561   71.4389   -9.3189 H   0  0  0  0  0  0  0  0  0  0  0  0
   16.3089   68.1497   -5.3985 O   0  0  0  0  0  0  0  0  0  0  0  0
   15.6981   71.2219   -2.0173 O   0  0  0  0  0  0  0  0  0  0  0  0
   17.0785   70.3299   -5.7348 N   0  0  0  0  0  0  0  0  0  0  0  0
   16.0050   69.6819   -3.7165 N   0  0  0  0  0  0  0  0  0  0  0  0
   16.4565   69.3021   -4.9873 C   0  0  0  0  0  0  0  0  0  0  0  0
   17.2072   71.6043   -5.1961 C   0  0  0  0  0  0  0  0  0  0  0  0
   16.7720   71.9512   -3.9832 C   0  0  0  0  0  0  0  0  0  0  0  0
   16.1096   70.9364   -3.1377 C   0  0  0  0  0  0  0  0  0  0  0  0
   15.5666   68.9838   -3.1780 H   0  0  0  0  0  0  0  0  0  0  0  0
   22.4056   72.5528   -4.5741 O   0  0  0  0  0  0  0  0  0  0  0  0
   23.4768   73.1714   -3.5332 P   0  0  2  0  0  0  0  0  0  0  0  0
   22.7200   74.4820   -2.9588 O   0  0  0  0  0  0  0  0  0  0  0  0
   24.8262   73.4485   -4.1301 O   0  0  0  0  0  0  0  0  0  0  0  0
   23.4916   72.1352   -2.2969 O   0  0  0  0  0  0  0  0  0  0  0  0
   23.8286   69.7988   -2.4894 O   0  0  0  0  0  0  0  0  0  0  0  0
   21.7247   70.0554    1.0568 O   0  0  0  0  0  0  0  0  0  0  0  0
   20.9575   71.6873   -1.2416 O   0  0  0  0  0  0  0  0  0  0  0  0
   24.5877   69.5524    1.0919 O   0  0  0  0  0  0  0  0  0  0  0  0
   22.6320   70.4931    0.0453 C   0  0  2  0  0  0  0  0  0  0  0  0
   21.8925   70.6156   -1.2872 C   0  0  2  0  0  0  0  0  0  0  0  0
   23.7549   69.4590   -0.0623 C   0  0  1  0  0  0  0  0  0  0  0  0
   22.8721   70.8579   -2.4363 C   0  0  1  0  0  0  0  0  0  0  0  0
   24.6121   69.6945   -1.3026 C   0  0  1  0  0  0  0  0  0  0  0  0
   21.0022   70.6972    1.1431 H   0  0  0  0  0  0  0  0  0  0  0  0
   20.3330   71.5402   -0.5145 H   0  0  0  0  0  0  0  0  0  0  0  0
   24.0542   69.4046    1.8883 H   0  0  0  0  0  0  0  0  0  0  0  0
   26.1611   68.6775   -2.7406 O   0  0  0  0  0  0  0  0  0  0  0  0
   25.5778   67.5283   -0.8596 O   0  0  0  0  0  0  0  0  0  0  0  0
   25.4826   68.5119   -1.5782 C   0  0  0  0  0  0  0  0  0  0  0  0
  1  4  1  0
  1 24  1  0
  1  2  1  1
  1  3  2  0
 25 28  1  0
 25 24  1  0
 25 26  1  1
 25 27  2  0
  6 11  1  0
  6 12  1  0
 29 36  1  0
 29 37  1  0
  9  7  1  6
  7 13  1  0
 10  8  1  6
  8 14  1  0
  4  5  1  0
 36 28  1  1
 33 30  1  1
 30 38  1  0
 34 31  1  1
 31 39  1  0
 35 32  1  1
 32 40  1  0
 41 43  1  0
 15 19  2  0
 42 43  2  0
 16 22  2  0
 12 17  1  1
 17 19  1  0
 17 20  1  0
 18 19  1  0
 18 22  1  0
 18 23  1  0
  9 10  1  0
  9 11  1  0
 10 12  1  0
 11  5  1  1
 33 34  1  0
 33 35  1  0
 34 36  1  0
 35 37  1  0
 37 43  1  6
 20 21  2  0
 21 22  1  0
M  CHG  3   2  -1  26  -1  41  -1
M  END
>  <COMPND>  (32) 
    udp_gluA.pdb 

>  <AUTHOR>  (32) 
    GENERATED BY OPEN BABEL 3.1.1

>  <MASTER>  (32) 
        0    0    0    0    0    0    0    0   56    0   56    0

>  <minimizedAffinity>  (32) 
-8.95011

>  <CNNscore>  (32) 
0.5463621616

>  <CNNaffinity>  (32) 
4.3079032898

>  <CNN_VS>  (32) 
2.3536753654

>  <CNNaffinity_variance>  (32) 
0.4013657570

$$$$
33
     RDKit          3D

 43 45  0  0  0  0  0  0  0  0999 V2000
   21.0470   74.7547   -3.1254 P   0  0  2  0  0  0  0  0  0  0  0  0
   21.2714   74.5417   -1.5370 O   0  0  0  0  0  0  0  0  0  0  0  0
   20.5837   76.1260   -3.5215 O   0  0  0  0  0  0  0  0  0  0  0  0
   20.0719   73.5345   -3.5472 O   0  0  0  0  0  0  0  0  0  0  0  0
   19.0366   73.7875   -4.4792 C   0  0  0  0  0  0  0  0  0  0  0  0
   17.2507   72.4744   -5.4088 O   0  0  0  0  0  0  0  0  0  0  0  0
   17.1048   71.1208   -2.7371 O   0  0  0  0  0  0  0  0  0  0  0  0
   18.4865   69.3167   -4.2445 O   0  0  0  0  0  0  0  0  0  0  0  0
   18.2476   71.6008   -3.4457 C   0  0  1  0  0  0  0  0  0  0  0  0
   18.5715   70.6800   -4.6031 C   0  0  2  0  0  0  0  0  0  0  0  0
   17.8514   72.8849   -4.1614 C   0  0  1  0  0  0  0  0  0  0  0  0
   17.5245   71.0815   -5.6280 C   0  0  2  0  0  0  0  0  0  0  0  0
   17.3336   70.3006   -2.2717 H   0  0  0  0  0  0  0  0  0  0  0  0
   19.1736   69.1109   -3.5906 H   0  0  0  0  0  0  0  0  0  0  0  0
   15.8806   70.2587   -7.7721 O   0  0  0  0  0  0  0  0  0  0  0  0
   19.3842   70.4264  -10.7622 O   0  0  0  0  0  0  0  0  0  0  0  0
   17.9812   70.9021   -6.9771 N   0  0  0  0  0  0  0  0  0  0  0  0
   17.6274   70.3420   -9.2591 N   0  0  0  0  0  0  0  0  0  0  0  0
   17.0740   70.4857   -7.9800 C   0  0  0  0  0  0  0  0  0  0  0  0
   19.3127   71.1394   -7.2959 C   0  0  0  0  0  0  0  0  0  0  0  0
   19.8255   70.9982   -8.5198 C   0  0  0  0  0  0  0  0  0  0  0  0
   18.9450   70.5655   -9.6247 C   0  0  0  0  0  0  0  0  0  0  0  0
   17.0156   70.0510   -9.9735 H   0  0  0  0  0  0  0  0  0  0  0  0
   22.4701   74.3169   -3.7548 O   0  0  0  0  0  0  0  0  0  0  0  0
   23.1164   72.8560   -4.0031 P   0  0  2  0  0  0  0  0  0  0  0  0
   24.7000   73.1682   -4.1257 O   0  0  0  0  0  0  0  0  0  0  0  0
   22.5389   72.1184   -5.1763 O   0  0  0  0  0  0  0  0  0  0  0  0
   22.9599   72.0937   -2.5900 O   0  0  0  0  0  0  0  0  0  0  0  0
   23.3545   69.7612   -2.7054 O   0  0  0  0  0  0  0  0  0  0  0  0
   21.8746   70.1747    1.1295 O   0  0  0  0  0  0  0  0  0  0  0  0
   20.6623   71.6354   -1.0911 O   0  0  0  0  0  0  0  0  0  0  0  0
   24.7201   69.7627    0.7001 O   0  0  0  0  0  0  0  0  0  0  0  0
   22.5783   70.5758   -0.0460 C   0  0  2  0  0  0  0  0  0  0  0  0
   21.6189   70.5920   -1.2363 C   0  0  2  0  0  0  0  0  0  0  0  0
   23.7079   69.5718   -0.2866 C   0  0  1  0  0  0  0  0  0  0  0  0
   22.3784   70.7918   -2.5485 C   0  0  1  0  0  0  0  0  0  0  0  0
   24.3317   69.7554   -1.6671 C   0  0  1  0  0  0  0  0  0  0  0  0
   21.1517   70.7983    1.3024 H   0  0  0  0  0  0  0  0  0  0  0  0
   20.1768   71.5150   -0.2603 H   0  0  0  0  0  0  0  0  0  0  0  0
   24.3360   69.6488    1.5835 H   0  0  0  0  0  0  0  0  0  0  0  0
   24.7989   67.4804   -1.3388 O   0  0  0  0  0  0  0  0  0  0  0  0
   26.1177   68.6104   -2.8164 O   0  0  0  0  0  0  0  0  0  0  0  0
   25.1903   68.5850   -2.0211 C   0  0  0  0  0  0  0  0  0  0  0  0
  1  4  1  0
  1 24  1  0
  1  2  1  1
  1  3  2  0
 25 28  1  0
 25 24  1  0
 25 26  1  6
 25 27  2  0
  6 11  1  0
  6 12  1  0
 29 36  1  0
 29 37  1  0
  9  7  1  6
  7 13  1  0
 10  8  1  1
  8 14  1  0
  4  5  1  0
 36 28  1  1
 33 30  1  1
 30 38  1  0
 34 31  1  1
 31 39  1  0
 35 32  1  1
 32 40  1  0
 41 43  1  0
 15 19  2  0
 42 43  2  0
 16 22  2  0
 12 17  1  6
 17 19  1  0
 17 20  1  0
 18 19  1  0
 18 22  1  0
 18 23  1  0
  9 10  1  0
  9 11  1  0
 10 12  1  0
 11  5  1  6
 33 34  1  0
 33 35  1  0
 34 36  1  0
 35 37  1  0
 37 43  1  6
 20 21  2  0
 21 22  1  0
M  CHG  3   2  -1  26  -1  41  -1
M  END
>  <COMPND>  (33) 
    udp_gluA.pdb 

>  <AUTHOR>  (33) 
    GENERATED BY OPEN BABEL 3.1.1

>  <MASTER>  (33) 
        0    0    0    0    0    0    0    0   56    0   56    0

>  <minimizedAffinity>  (33) 
-8.06714

>  <CNNscore>  (33) 
0.5397281051

>  <CNNaffinity>  (33) 
4.4869933128

>  <CNN_VS>  (33) 
2.4217565060

>  <CNNaffinity_variance>  (33) 
0.0693754181

$$$$
34
     RDKit          3D

 43 45  0  0  0  0  0  0  0  0999 V2000
   20.0970   72.1428   -1.8393 P   0  0  2  0  0  0  0  0  0  0  0  0
   18.7420   71.5086   -2.4564 O   0  0  0  0  0  0  0  0  0  0  0  0
   19.8904   73.3274   -0.9416 O   0  0  0  0  0  0  0  0  0  0  0  0
   21.0318   72.3977   -3.1351 O   0  0  0  0  0  0  0  0  0  0  0  0
   21.2078   71.3407   -4.0604 C   0  0  0  0  0  0  0  0  0  0  0  0
   21.2622   71.2921   -6.4629 O   0  0  0  0  0  0  0  0  0  0  0  0
   22.8170   73.8505   -6.2940 O   0  0  0  0  0  0  0  0  0  0  0  0
   20.3066   74.7185   -6.9107 O   0  0  0  0  0  0  0  0  0  0  0  0
   21.7456   73.3882   -5.4713 C   0  0  1  0  0  0  0  0  0  0  0  0
   20.4305   73.4965   -6.2136 C   0  0  2  0  0  0  0  0  0  0  0  0
   21.8956   71.8820   -5.3070 C   0  0  1  0  0  0  0  0  0  0  0  0
   20.4934   72.2967   -7.1433 C   0  0  2  0  0  0  0  0  0  0  0  0
   22.7425   74.8106   -6.4133 H   0  0  0  0  0  0  0  0  0  0  0  0
   20.2704   75.4511   -6.2750 H   0  0  0  0  0  0  0  0  0  0  0  0
   19.8265   70.9694   -9.5454 O   0  0  0  0  0  0  0  0  0  0  0  0
   15.4737   70.3043   -8.1833 O   0  0  0  0  0  0  0  0  0  0  0  0
   19.1932   71.7666   -7.4425 N   0  0  0  0  0  0  0  0  0  0  0  0
   17.6589   70.6403   -8.8651 N   0  0  0  0  0  0  0  0  0  0  0  0
   18.9630   71.1176   -8.6786 C   0  0  0  0  0  0  0  0  0  0  0  0
   18.1640   71.8903   -6.5172 C   0  0  0  0  0  0  0  0  0  0  0  0
   16.9262   71.4301   -6.7091 C   0  0  0  0  0  0  0  0  0  0  0  0
   16.6020   70.7401   -7.9749 C   0  0  0  0  0  0  0  0  0  0  0  0
   17.4740   70.1866   -9.7191 H   0  0  0  0  0  0  0  0  0  0  0  0
   20.8005   70.8733   -1.1278 O   0  0  0  0  0  0  0  0  0  0  0  0
   22.1762   70.7555   -0.2868 P   0  0  2  0  0  0  0  0  0  0  0  0
   21.6945   70.1238    1.1236 O   0  0  0  0  0  0  0  0  0  0  0  0
   22.9328   72.0460   -0.1601 O   0  0  0  0  0  0  0  0  0  0  0  0
   22.9955   69.5669   -1.0066 O   0  0  0  0  0  0  0  0  0  0  0  0
   24.3525   68.1386    0.3078 O   0  0  0  0  0  0  0  0  0  0  0  0
   25.7738   67.3817   -3.4968 O   0  0  0  0  0  0  0  0  0  0  0  0
   25.1643   70.1134   -2.6600 O   0  0  0  0  0  0  0  0  0  0  0  0
   24.0411   65.4566   -2.1766 O   0  0  0  0  0  0  0  0  0  0  0  0
   24.7943   67.7201   -2.5150 C   0  0  2  0  0  0  0  0  0  0  0  0
   25.2209   68.9934   -1.7842 C   0  0  2  0  0  0  0  0  0  0  0  0
   24.6873   66.5524   -1.5316 C   0  0  1  0  0  0  0  0  0  0  0  0
   24.3204   69.2592   -0.5770 C   0  0  1  0  0  0  0  0  0  0  0  0
   23.8786   66.9370   -0.2960 C   0  0  1  0  0  0  0  0  0  0  0  0
   25.8591   68.1092   -4.1329 H   0  0  0  0  0  0  0  0  0  0  0  0
   25.7332   69.9515   -3.4284 H   0  0  0  0  0  0  0  0  0  0  0  0
   24.5458   65.2021   -2.9649 H   0  0  0  0  0  0  0  0  0  0  0  0
   23.3905   64.7808    0.4878 O   0  0  0  0  0  0  0  0  0  0  0  0
   24.7050   66.0949    1.8086 O   0  0  0  0  0  0  0  0  0  0  0  0
   24.0538   65.9247    0.7888 C   0  0  0  0  0  0  0  0  0  0  0  0
  1  4  1  0
  1 24  1  0
  1  2  1  6
  1  3  2  0
 25 28  1  0
 25 24  1  0
 25 26  1  1
 25 27  2  0
  6 11  1  0
  6 12  1  0
 29 36  1  0
 29 37  1  0
  9  7  1  6
  7 13  1  0
 10  8  1  6
  8 14  1  0
  4  5  1  0
 36 28  1  6
 33 30  1  6
 30 38  1  0
 34 31  1  6
 31 39  1  0
 35 32  1  6
 32 40  1  0
 41 43  1  0
 15 19  2  0
 42 43  2  0
 16 22  2  0
 12 17  1  1
 17 19  1  0
 17 20  1  0
 18 19  1  0
 18 22  1  0
 18 23  1  0
  9 10  1  0
  9 11  1  0
 10 12  1  0
 11  5  1  1
 33 34  1  0
 33 35  1  0
 34 36  1  0
 35 37  1  0
 37 43  1  1
 20 21  2  0
 21 22  1  0
M  CHG  3   2  -1  26  -1  41  -1
M  END
>  <COMPND>  (34) 
    udp_gluA.pdb 

>  <AUTHOR>  (34) 
    GENERATED BY OPEN BABEL 3.1.1

>  <MASTER>  (34) 
        0    0    0    0    0    0    0    0   56    0   56    0

>  <minimizedAffinity>  (34) 
-8.23938

>  <CNNscore>  (34) 
0.5341910124

>  <CNNaffinity>  (34) 
4.5090842247

>  <CNN_VS>  (34) 
2.4087121487

>  <CNNaffinity_variance>  (34) 
0.0268475171

$$$$
35
     RDKit          3D

 43 45  0  0  0  0  0  0  0  0999 V2000
   21.9176   73.8596   -5.7974 P   0  0  2  0  0  0  0  0  0  0  0  0
   21.0595   75.2029   -6.0766 O   0  0  0  0  0  0  0  0  0  0  0  0
   23.0803   73.6469   -6.7219 O   0  0  0  0  0  0  0  0  0  0  0  0
   20.8059   72.6841   -5.7845 O   0  0  0  0  0  0  0  0  0  0  0  0
   19.7980   72.6958   -6.7788 C   0  0  0  0  0  0  0  0  0  0  0  0
   18.9906   70.5216   -6.1473 O   0  0  0  0  0  0  0  0  0  0  0  0
   18.7639   69.9578   -9.0836 O   0  0  0  0  0  0  0  0  0  0  0  0
   16.1885   70.5183   -8.3839 O   0  0  0  0  0  0  0  0  0  0  0  0
   18.5294   71.1759   -8.3766 C   0  0  1  0  0  0  0  0  0  0  0  0
   17.2227   71.0972   -7.6159 C   0  0  2  0  0  0  0  0  0  0  0  0
   19.5491   71.2687   -7.2497 C   0  0  1  0  0  0  0  0  0  0  0  0
   17.6066   70.2472   -6.4167 C   0  0  2  0  0  0  0  0  0  0  0  0
   18.1242   69.8762   -9.8088 H   0  0  0  0  0  0  0  0  0  0  0  0
   15.9806   71.0971   -9.1347 H   0  0  0  0  0  0  0  0  0  0  0  0
   17.0825   68.4388   -4.3116 O   0  0  0  0  0  0  0  0  0  0  0  0
   14.6227   71.5702   -1.9903 O   0  0  0  0  0  0  0  0  0  0  0  0
   16.8321   70.5636   -5.2502 N   0  0  0  0  0  0  0  0  0  0  0  0
   15.8570   69.9998   -3.1580 N   0  0  0  0  0  0  0  0  0  0  0  0
   16.6280   69.5828   -4.2510 C   0  0  0  0  0  0  0  0  0  0  0  0
   16.2857   71.8329   -5.1038 C   0  0  0  0  0  0  0  0  0  0  0  0
   15.5531   72.2156   -4.0562 C   0  0  0  0  0  0  0  0  0  0  0  0
   15.2920   71.2506   -2.9681 C   0  0  0  0  0  0  0  0  0  0  0  0
   15.6996   69.3336   -2.4503 H   0  0  0  0  0  0  0  0  0  0  0  0
   22.3152   74.0008   -4.2370 O   0  0  0  0  0  0  0  0  0  0  0  0
   23.5235   73.3454   -3.3860 P   0  0  2  0  0  0  0  0  0  0  0  0
   24.3688   74.6342   -2.8910 O   0  0  0  0  0  0  0  0  0  0  0  0
   24.3301   72.3305   -4.1431 O   0  0  0  0  0  0  0  0  0  0  0  0
   22.8221   72.7801   -2.0478 O   0  0  0  0  0  0  0  0  0  0  0  0
   23.5372   73.4478    0.1091 O   0  0  0  0  0  0  0  0  0  0  0  0
   21.5281   69.9347    0.9396 O   0  0  0  0  0  0  0  0  0  0  0  0
   23.2890   70.1197   -1.3840 O   0  0  0  0  0  0  0  0  0  0  0  0
   20.2965   72.4978    1.5436 O   0  0  0  0  0  0  0  0  0  0  0  0
   21.7991   71.1451    0.2330 C   0  0  2  0  0  0  0  0  0  0  0  0
   23.2120   71.0928   -0.3487 C   0  0  2  0  0  0  0  0  0  0  0  0
   21.6727   72.3075    1.2203 C   0  0  1  0  0  0  0  0  0  0  0  0
   23.6222   72.4538   -0.9129 C   0  0  1  0  0  0  0  0  0  0  0  0
   22.2182   73.6036    0.6277 C   0  0  1  0  0  0  0  0  0  0  0  0
   21.6025   69.1819    0.3321 H   0  0  0  0  0  0  0  0  0  0  0  0
   23.0298   69.2537   -1.0331 H   0  0  0  0  0  0  0  0  0  0  0  0
   19.9371   71.6800    1.9216 H   0  0  0  0  0  0  0  0  0  0  0  0
   23.2451   75.6109    1.2741 O   0  0  0  0  0  0  0  0  0  0  0  0
   21.8521   74.6219    2.7842 O   0  0  0  0  0  0  0  0  0  0  0  0
   22.3956   74.6392    1.6900 C   0  0  0  0  0  0  0  0  0  0  0  0
  1  4  1  0
  1 24  1  0
  1  2  1  6
  1  3  2  0
 25 28  1  0
 25 24  1  0
 25 26  1  1
 25 27  2  0
  6 11  1  0
  6 12  1  0
 29 36  1  0
 29 37  1  0
  9  7  1  1
  7 13  1  0
 10  8  1  6
  8 14  1  0
  4  5  1  0
 36 28  1  6
 33 30  1  1
 30 38  1  0
 34 31  1  6
 31 39  1  0
 35 32  1  6
 32 40  1  0
 41 43  1  0
 15 19  2  0
 42 43  2  0
 16 22  2  0
 12 17  1  1
 17 19  1  0
 17 20  1  0
 18 19  1  0
 18 22  1  0
 18 23  1  0
  9 10  1  0
  9 11  1  0
 10 12  1  0
 11  5  1  1
 33 34  1  0
 33 35  1  0
 34 36  1  0
 35 37  1  0
 37 43  1  1
 20 21  2  0
 21 22  1  0
M  CHG  3   2  -1  26  -1  41  -1
M  END
>  <COMPND>  (35) 
    udp_gluA.pdb 

>  <AUTHOR>  (35) 
    GENERATED BY OPEN BABEL 3.1.1

>  <MASTER>  (35) 
        0    0    0    0    0    0    0    0   56    0   56    0

>  <minimizedAffinity>  (35) 
-6.78910

>  <CNNscore>  (35) 
0.5305099487

>  <CNNaffinity>  (35) 
4.3111424446

>  <CNN_VS>  (35) 
2.2871038914

>  <CNNaffinity_variance>  (35) 
0.1547295600

$$$$
36
     RDKit          3D

 43 45  0  0  0  0  0  0  0  0999 V2000
   22.9233   73.1165   -3.6302 P   0  0  2  0  0  0  0  0  0  0  0  0
   24.2661   72.7571   -4.4588 O   0  0  0  0  0  0  0  0  0  0  0  0
   22.8106   74.5488   -3.1969 O   0  0  0  0  0  0  0  0  0  0  0  0
   22.8944   72.0187   -2.4420 O   0  0  0  0  0  0  0  0  0  0  0  0
   23.2767   72.4216   -1.1397 C   0  0  0  0  0  0  0  0  0  0  0  0
   22.6647   70.1550   -0.6241 O   0  0  0  0  0  0  0  0  0  0  0  0
   22.3750   71.0757    2.2149 O   0  0  0  0  0  0  0  0  0  0  0  0
   24.8096   69.8475    2.2323 O   0  0  0  0  0  0  0  0  0  0  0  0
   23.3193   71.4833    1.2247 C   0  0  1  0  0  0  0  0  0  0  0  0
   24.3581   70.4021    1.0145 C   0  0  2  0  0  0  0  0  0  0  0  0
   22.6078   71.5075   -0.1212 C   0  0  1  0  0  0  0  0  0  0  0  0
   23.6012   69.3994    0.1603 C   0  0  2  0  0  0  0  0  0  0  0  0
   22.8066   71.0527    3.0837 H   0  0  0  0  0  0  0  0  0  0  0  0
   25.2851   70.5248    2.7394 H   0  0  0  0  0  0  0  0  0  0  0  0
   24.3615   66.7065    0.5433 O   0  0  0  0  0  0  0  0  0  0  0  0
   26.9236   66.6942   -3.2881 O   0  0  0  0  0  0  0  0  0  0  0  0
   24.4660   68.6679   -0.7218 N   0  0  0  0  0  0  0  0  0  0  0  0
   25.6376   66.7032   -1.3648 N   0  0  0  0  0  0  0  0  0  0  0  0
   24.7858   67.3190   -0.4384 C   0  0  0  0  0  0  0  0  0  0  0  0
   24.9858   69.2853   -1.8530 C   0  0  0  0  0  0  0  0  0  0  0  0
   25.7964   68.6853   -2.7269 C   0  0  0  0  0  0  0  0  0  0  0  0
   26.1803   67.2760   -2.5037 C   0  0  0  0  0  0  0  0  0  0  0  0
   25.8762   65.7646   -1.1876 H   0  0  0  0  0  0  0  0  0  0  0  0
   21.7439   72.6164   -4.6159 O   0  0  0  0  0  0  0  0  0  0  0  0
   21.0995   73.2993   -5.9320 P   0  0  2  0  0  0  0  0  0  0  0  0
   22.1757   72.9558   -7.0914 O   0  0  0  0  0  0  0  0  0  0  0  0
   20.7982   74.7623   -5.7818 O   0  0  0  0  0  0  0  0  0  0  0  0
   19.8179   72.3842   -6.2821 O   0  0  0  0  0  0  0  0  0  0  0  0
   19.2653   70.1841   -5.6013 O   0  0  0  0  0  0  0  0  0  0  0  0
   17.6517   70.3183   -9.4021 O   0  0  0  0  0  0  0  0  0  0  0  0
   20.2819   71.4722   -8.8684 O   0  0  0  0  0  0  0  0  0  0  0  0
   15.9202   70.5038   -7.0744 O   0  0  0  0  0  0  0  0  0  0  0  0
   18.0548   70.8454   -8.1382 C   0  0  2  0  0  0  0  0  0  0  0  0
   19.5605   70.6497   -7.9587 C   0  0  2  0  0  0  0  0  0  0  0  0
   17.2868   70.0965   -7.0468 C   0  0  1  0  0  0  0  0  0  0  0  0
   19.9901   70.9902   -6.5310 C   0  0  1  0  0  0  0  0  0  0  0  0
   17.8560   70.3923   -5.6622 C   0  0  1  0  0  0  0  0  0  0  0  0
   18.1270   70.7792  -10.1114 H   0  0  0  0  0  0  0  0  0  0  0  0
   20.0141   71.2616   -9.7763 H   0  0  0  0  0  0  0  0  0  0  0  0
   15.5460   70.3211   -7.9505 H   0  0  0  0  0  0  0  0  0  0  0  0
   18.0809   69.4513   -3.5255 O   0  0  0  0  0  0  0  0  0  0  0  0
   16.3565   68.7023   -4.8156 O   0  0  0  0  0  0  0  0  0  0  0  0
   17.3299   69.4230   -4.6542 C   0  0  0  0  0  0  0  0  0  0  0  0
  1  4  1  0
  1 24  1  0
  1  2  1  6
  1  3  2  0
 25 28  1  0
 25 24  1  0
 25 26  1  6
 25 27  2  0
  6 11  1  0
  6 12  1  0
 29 36  1  0
 29 37  1  0
  9  7  1  1
  7 13  1  0
 10  8  1  1
  8 14  1  0
  4  5  1  0
 36 28  1  1
 33 30  1  6
 30 38  1  0
 34 31  1  6
 31 39  1  0
 35 32  1  1
 32 40  1  0
 41 43  1  0
 15 19  2  0
 42 43  2  0
 16 22  2  0
 12 17  1  6
 17 19  1  0
 17 20  1  0
 18 19  1  0
 18 22  1  0
 18 23  1  0
  9 10  1  0
  9 11  1  0
 10 12  1  0
 11  5  1  6
 33 34  1  0
 33 35  1  0
 34 36  1  0
 35 37  1  0
 37 43  1  1
 20 21  2  0
 21 22  1  0
M  CHG  3   2  -1  26  -1  41  -1
M  END
>  <COMPND>  (36) 
    udp_gluA.pdb 

>  <AUTHOR>  (36) 
    GENERATED BY OPEN BABEL 3.1.1

>  <MASTER>  (36) 
        0    0    0    0    0    0    0    0   56    0   56    0

>  <minimizedAffinity>  (36) 
-8.97811

>  <CNNscore>  (36) 
0.5026206374

>  <CNNaffinity>  (36) 
4.5170440674

>  <CNN_VS>  (36) 
2.2703595161

>  <CNNaffinity_variance>  (36) 
0.2454088032

$$$$
37
     RDKit          3D

 43 45  0  0  0  0  0  0  0  0999 V2000
   15.2703   71.6605   -1.9601 P   0  0  2  0  0  0  0  0  0  0  0  0
   15.7907   72.8618   -1.0088 O   0  0  0  0  0  0  0  0  0  0  0  0
   14.0484   71.9785   -2.7710 O   0  0  0  0  0  0  0  0  0  0  0  0
   15.1381   70.3989   -0.9556 O   0  0  0  0  0  0  0  0  0  0  0  0
   13.9201   70.2150   -0.2577 C   0  0  0  0  0  0  0  0  0  0  0  0
   13.5049   67.9302    0.3625 O   0  0  0  0  0  0  0  0  0  0  0  0
   11.3981   67.9287   -1.7713 O   0  0  0  0  0  0  0  0  0  0  0  0
    9.9363   68.2432    0.5091 O   0  0  0  0  0  0  0  0  0  0  0  0
   11.7868   68.9792   -0.8859 C   0  0  1  0  0  0  0  0  0  0  0  0
   11.2709   68.7053    0.5109 C   0  0  2  0  0  0  0  0  0  0  0  0
   13.2945   68.8954   -0.6908 C   0  0  1  0  0  0  0  0  0  0  0  0
   12.2517   67.6578    1.0096 C   0  0  2  0  0  0  0  0  0  0  0  0
   10.4385   67.9619   -1.9112 H   0  0  0  0  0  0  0  0  0  0  0  0
    9.3513   68.9461    0.1840 H   0  0  0  0  0  0  0  0  0  0  0  0
   13.1022   65.4808    2.5952 O   0  0  0  0  0  0  0  0  0  0  0  0
   12.9338   67.9917    6.4567 O   0  0  0  0  0  0  0  0  0  0  0  0
   12.4385   67.7150    2.4318 N   0  0  0  0  0  0  0  0  0  0  0  0
   13.0165   66.7332    4.5170 N   0  0  0  0  0  0  0  0  0  0  0  0
   12.8684   66.5643    3.1341 C   0  0  0  0  0  0  0  0  0  0  0  0
   12.1983   68.9005    3.1157 C   0  0  0  0  0  0  0  0  0  0  0  0
   12.3440   69.0462    4.4342 C   0  0  0  0  0  0  0  0  0  0  0  0
   12.7892   67.8918    5.2420 C   0  0  0  0  0  0  0  0  0  0  0  0
   13.3130   65.9454    5.0277 H   0  0  0  0  0  0  0  0  0  0  0  0
   16.5809   71.2946   -2.8325 O   0  0  0  0  0  0  0  0  0  0  0  0
   17.2107   69.8666   -3.2542 P   0  0  2  0  0  0  0  0  0  0  0  0
   15.9149   69.0124   -3.7144 O   0  0  0  0  0  0  0  0  0  0  0  0
   18.0317   69.2142   -2.1798 O   0  0  0  0  0  0  0  0  0  0  0  0
   18.0117   70.1608   -4.6232 O   0  0  0  0  0  0  0  0  0  0  0  0
   18.9313   72.1163   -5.5924 O   0  0  0  0  0  0  0  0  0  0  0  0
   17.4440   70.1536   -8.9096 O   0  0  0  0  0  0  0  0  0  0  0  0
   15.9002   70.2521   -6.4314 O   0  0  0  0  0  0  0  0  0  0  0  0
   20.3022   70.1631   -8.3795 O   0  0  0  0  0  0  0  0  0  0  0  0
   18.0216   70.2598   -7.6084 C   0  0  2  0  0  0  0  0  0  0  0  0
   17.0695   71.0218   -6.6864 C   0  0  2  0  0  0  0  0  0  0  0  0
   19.3490   71.0099   -7.7402 C   0  0  1  0  0  0  0  0  0  0  0  0
   17.7461   71.3554   -5.3561 C   0  0  1  0  0  0  0  0  0  0  0  0
   19.8965   71.4173   -6.3753 C   0  0  1  0  0  0  0  0  0  0  0  0
   16.5991   69.6803   -8.8508 H   0  0  0  0  0  0  0  0  0  0  0  0
   15.4659   70.0366   -7.2712 H   0  0  0  0  0  0  0  0  0  0  0  0
   19.9658   69.8965   -9.2493 H   0  0  0  0  0  0  0  0  0  0  0  0
   20.4968   73.6768   -6.5649 O   0  0  0  0  0  0  0  0  0  0  0  0
   22.1864   72.1458   -6.5921 O   0  0  0  0  0  0  0  0  0  0  0  0
   20.9970   72.4171   -6.5221 C   0  0  0  0  0  0  0  0  0  0  0  0
  1  4  1  0
  1 24  1  0
  1  2  1  1
  1  3  2  0
 25 28  1  0
 25 24  1  0
 25 26  1  6
 25 27  2  0
  6 11  1  0
  6 12  1  0
 29 36  1  0
 29 37  1  0
  9  7  1  6
  7 13  1  0
 10  8  1  6
  8 14  1  0
  4  5  1  0
 36 28  1  6
 33 30  1  6
 30 38  1  0
 34 31  1  1
 31 39  1  0
 35 32  1  1
 32 40  1  0
 41 43  1  0
 15 19  2  0
 42 43  2  0
 16 22  2  0
 12 17  1  1
 17 19  1  0
 17 20  1  0
 18 19  1  0
 18 22  1  0
 18 23  1  0
  9 10  1  0
  9 11  1  0
 10 12  1  0
 11  5  1  1
 33 34  1  0
 33 35  1  0
 34 36  1  0
 35 37  1  0
 37 43  1  6
 20 21  2  0
 21 22  1  0
M  CHG  3   2  -1  26  -1  41  -1
M  END
>  <COMPND>  (37) 
    udp_gluA.pdb 

>  <AUTHOR>  (37) 
    GENERATED BY OPEN BABEL 3.1.1

>  <MASTER>  (37) 
        0    0    0    0    0    0    0    0   56    0   56    0

>  <minimizedAffinity>  (37) 
-6.59556

>  <CNNscore>  (37) 
0.4865663052

>  <CNNaffinity>  (37) 
4.1072287560

>  <CNN_VS>  (37) 
1.9984390736

>  <CNNaffinity_variance>  (37) 
0.1407126486

$$$$
38
     RDKit          3D

 43 45  0  0  0  0  0  0  0  0999 V2000
   22.4929   73.8604   -5.9165 P   0  0  2  0  0  0  0  0  0  0  0  0
   23.0760   72.3785   -5.6286 O   0  0  0  0  0  0  0  0  0  0  0  0
   22.1874   74.1524   -7.3563 O   0  0  0  0  0  0  0  0  0  0  0  0
   23.5675   74.8442   -5.2127 O   0  0  0  0  0  0  0  0  0  0  0  0
   24.0702   74.4940   -3.9364 C   0  0  0  0  0  0  0  0  0  0  0  0
   22.6697   75.1293   -2.0891 O   0  0  0  0  0  0  0  0  0  0  0  0
   24.6757   77.2927   -1.5532 O   0  0  0  0  0  0  0  0  0  0  0  0
   25.3303   75.4011    0.2987 O   0  0  0  0  0  0  0  0  0  0  0  0
   24.8863   75.9617   -2.0253 C   0  0  1  0  0  0  0  0  0  0  0  0
   24.7097   74.9705   -0.8946 C   0  0  2  0  0  0  0  0  0  0  0  0
   23.7299   75.6020   -2.9480 C   0  0  1  0  0  0  0  0  0  0  0  0
   23.1971   74.8967   -0.7734 C   0  0  2  0  0  0  0  0  0  0  0  0
   25.4022   77.5450   -0.9615 H   0  0  0  0  0  0  0  0  0  0  0  0
   26.2918   75.4313    0.1703 H   0  0  0  0  0  0  0  0  0  0  0  0
   21.6392   74.4985    1.5484 O   0  0  0  0  0  0  0  0  0  0  0  0
   21.5254   69.9351    0.9106 O   0  0  0  0  0  0  0  0  0  0  0  0
   22.7465   73.6150   -0.3095 N   0  0  0  0  0  0  0  0  0  0  0  0
   21.5848   72.2259    1.2291 N   0  0  0  0  0  0  0  0  0  0  0  0
   21.9688   73.5244    0.8691 C   0  0  0  0  0  0  0  0  0  0  0  0
   23.0734   72.4662   -1.0196 C   0  0  0  0  0  0  0  0  0  0  0  0
   22.7000   71.2353   -0.6641 C   0  0  0  0  0  0  0  0  0  0  0  0
   21.8860   71.0532    0.5556 C   0  0  0  0  0  0  0  0  0  0  0  0
   21.0445   72.1374    2.0473 H   0  0  0  0  0  0  0  0  0  0  0  0
   21.2179   73.9473   -4.9266 O   0  0  0  0  0  0  0  0  0  0  0  0
   19.9964   72.9182   -4.6763 P   0  0  2  0  0  0  0  0  0  0  0  0
   18.7684   73.8929   -4.2734 O   0  0  0  0  0  0  0  0  0  0  0  0
   20.2914   71.8459   -3.6678 O   0  0  0  0  0  0  0  0  0  0  0  0
   19.6159   72.3697   -6.1449 O   0  0  0  0  0  0  0  0  0  0  0  0
   18.9358   70.1081   -5.9669 O   0  0  0  0  0  0  0  0  0  0  0  0
   18.6842   70.7435  -10.0413 O   0  0  0  0  0  0  0  0  0  0  0  0
   20.9469   71.7875   -8.5167 O   0  0  0  0  0  0  0  0  0  0  0  0
   16.2685   70.6537   -8.4266 O   0  0  0  0  0  0  0  0  0  0  0  0
   18.6244   71.1010   -8.6605 C   0  0  2  0  0  0  0  0  0  0  0  0
   19.9884   70.8652   -8.0114 C   0  0  2  0  0  0  0  0  0  0  0  0
   17.5590   70.2292   -7.9921 C   0  0  1  0  0  0  0  0  0  0  0  0
   19.9046   71.0165   -6.4919 C   0  0  1  0  0  0  0  0  0  0  0  0
   17.6225   70.3398   -6.4715 C   0  0  1  0  0  0  0  0  0  0  0  0
   19.3549   71.2847  -10.4869 H   0  0  0  0  0  0  0  0  0  0  0  0
   21.0051   71.6972   -9.4804 H   0  0  0  0  0  0  0  0  0  0  0  0
   16.2150   70.5884   -9.3929 H   0  0  0  0  0  0  0  0  0  0  0  0
   17.2779   69.0011   -4.5766 O   0  0  0  0  0  0  0  0  0  0  0  0
   15.8771   68.6786   -6.3466 O   0  0  0  0  0  0  0  0  0  0  0  0
   16.8196   69.2571   -5.8269 C   0  0  0  0  0  0  0  0  0  0  0  0
  1  4  1  0
  1 24  1  0
  1  2  1  6
  1  3  2  0
 25 28  1  0
 25 24  1  0
 25 26  1  1
 25 27  2  0
  6 11  1  0
  6 12  1  0
 29 36  1  0
 29 37  1  0
  9  7  1  1
  7 13  1  0
 10  8  1  1
  8 14  1  0
  4  5  1  0
 36 28  1  6
 33 30  1  6
 30 38  1  0
 34 31  1  6
 31 39  1  0
 35 32  1  6
 32 40  1  0
 41 43  1  0
 15 19  2  0
 42 43  2  0
 16 22  2  0
 12 17  1  6
 17 19  1  0
 17 20  1  0
 18 19  1  0
 18 22  1  0
 18 23  1  0
  9 10  1  0
  9 11  1  0
 10 12  1  0
 11  5  1  6
 33 34  1  0
 33 35  1  0
 34 36  1  0
 35 37  1  0
 37 43  1  1
 20 21  2  0
 21 22  1  0
M  CHG  3   2  -1  26  -1  41  -1
M  END
>  <COMPND>  (38) 
    udp_gluA.pdb 

>  <AUTHOR>  (38) 
    GENERATED BY OPEN BABEL 3.1.1

>  <MASTER>  (38) 
        0    0    0    0    0    0    0    0   56    0   56    0

>  <minimizedAffinity>  (38) 
-6.83972

>  <CNNscore>  (38) 
0.4790315926

>  <CNNaffinity>  (38) 
4.3525567055

>  <CNN_VS>  (38) 
2.0850121975

>  <CNNaffinity_variance>  (38) 
0.1131091267

$$$$
39
     RDKit          3D

 43 45  0  0  0  0  0  0  0  0999 V2000
   23.1501   72.7765   -3.2663 P   0  0  2  0  0  0  0  0  0  0  0  0
   24.5702   72.6098   -4.0243 O   0  0  0  0  0  0  0  0  0  0  0  0
   22.9165   74.1236   -2.6476 O   0  0  0  0  0  0  0  0  0  0  0  0
   23.1022   71.5186   -2.2498 O   0  0  0  0  0  0  0  0  0  0  0  0
   22.7486   71.7538   -0.8992 C   0  0  0  0  0  0  0  0  0  0  0  0
   21.0195   71.1640    0.6628 O   0  0  0  0  0  0  0  0  0  0  0  0
   19.0842   72.2445   -1.3567 O   0  0  0  0  0  0  0  0  0  0  0  0
   19.2641   74.2827    0.4459 O   0  0  0  0  0  0  0  0  0  0  0  0
   20.3929   72.7067   -1.0219 C   0  0  1  0  0  0  0  0  0  0  0  0
   20.3719   73.4165    0.3153 C   0  0  2  0  0  0  0  0  0  0  0  0
   21.2586   71.4903   -0.7234 C   0  0  1  0  0  0  0  0  0  0  0  0
   20.3218   72.2520    1.2897 C   0  0  2  0  0  0  0  0  0  0  0  0
   18.5126   73.0041   -1.5516 H   0  0  0  0  0  0  0  0  0  0  0  0
   19.3427   75.0070   -0.1952 H   0  0  0  0  0  0  0  0  0  0  0  0
   19.1704   73.8427    3.3196 O   0  0  0  0  0  0  0  0  0  0  0  0
   22.8540   73.3522    6.0462 O   0  0  0  0  0  0  0  0  0  0  0  0
   20.9580   72.5560    2.5401 N   0  0  0  0  0  0  0  0  0  0  0  0
   21.0066   73.5977    4.6753 N   0  0  0  0  0  0  0  0  0  0  0  0
   20.2933   73.3648    3.4920 C   0  0  0  0  0  0  0  0  0  0  0  0
   22.2245   72.0541    2.8140 C   0  0  0  0  0  0  0  0  0  0  0  0
   22.8917   72.2846    3.9465 C   0  0  0  0  0  0  0  0  0  0  0  0
   22.2681   73.1210    4.9929 C   0  0  0  0  0  0  0  0  0  0  0  0
   20.5650   74.1599    5.3523 H   0  0  0  0  0  0  0  0  0  0  0  0
   22.0801   72.3641   -4.4056 O   0  0  0  0  0  0  0  0  0  0  0  0
   21.7182   73.0548   -5.8217 P   0  0  2  0  0  0  0  0  0  0  0  0
   22.8507   72.4692   -6.8191 O   0  0  0  0  0  0  0  0  0  0  0  0
   21.6498   74.5539   -5.7760 O   0  0  0  0  0  0  0  0  0  0  0  0
   20.3520   72.3363   -6.2903 O   0  0  0  0  0  0  0  0  0  0  0  0
   19.8117   70.1785   -5.4770 O   0  0  0  0  0  0  0  0  0  0  0  0
   17.3253   70.4857   -8.7620 O   0  0  0  0  0  0  0  0  0  0  0  0
   20.0889   71.4220   -8.9039 O   0  0  0  0  0  0  0  0  0  0  0  0
   16.2427   70.7789   -6.0801 O   0  0  0  0  0  0  0  0  0  0  0  0
   18.0686   70.9640   -7.6410 C   0  0  2  0  0  0  0  0  0  0  0  0
   19.5515   70.6479   -7.8378 C   0  0  2  0  0  0  0  0  0  0  0  0
   17.5370   70.2647   -6.3879 C   0  0  1  0  0  0  0  0  0  0  0  0
   20.3461   70.9362   -6.5632 C   0  0  1  0  0  0  0  0  0  0  0  0
   18.4522   70.4978   -5.1893 C   0  0  1  0  0  0  0  0  0  0  0  0
   17.6457   70.9163   -9.5702 H   0  0  0  0  0  0  0  0  0  0  0  0
   19.5892   71.2443   -9.7158 H   0  0  0  0  0  0  0  0  0  0  0  0
   15.6504   70.6369   -6.8350 H   0  0  0  0  0  0  0  0  0  0  0  0
   18.9326   69.7683   -3.0125 O   0  0  0  0  0  0  0  0  0  0  0  0
   17.2281   68.7222   -4.1076 O   0  0  0  0  0  0  0  0  0  0  0  0
   18.1161   69.5609   -4.0751 C   0  0  0  0  0  0  0  0  0  0  0  0
  1  4  1  0
  1 24  1  0
  1  2  1  6
  1  3  2  0
 25 28  1  0
 25 24  1  0
 25 26  1  6
 25 27  2  0
  6 11  1  0
  6 12  1  0
 29 36  1  0
 29 37  1  0
  9  7  1  1
  7 13  1  0
 10  8  1  6
  8 14  1  0
  4  5  1  0
 36 28  1  1
 33 30  1  6
 30 38  1  0
 34 31  1  6
 31 39  1  0
 35 32  1  1
 32 40  1  0
 41 43  1  0
 15 19  2  0
 42 43  2  0
 16 22  2  0
 12 17  1  1
 17 19  1  0
 17 20  1  0
 18 19  1  0
 18 22  1  0
 18 23  1  0
  9 10  1  0
  9 11  1  0
 10 12  1  0
 11  5  1  1
 33 34  1  0
 33 35  1  0
 34 36  1  0
 35 37  1  0
 37 43  1  1
 20 21  2  0
 21 22  1  0
M  CHG  3   2  -1  26  -1  41  -1
M  END
>  <COMPND>  (39) 
    udp_gluA.pdb 

>  <AUTHOR>  (39) 
    GENERATED BY OPEN BABEL 3.1.1

>  <MASTER>  (39) 
        0    0    0    0    0    0    0    0   56    0   56    0

>  <minimizedAffinity>  (39) 
-6.85534

>  <CNNscore>  (39) 
0.4686817229

>  <CNNaffinity>  (39) 
3.9714221954

>  <CNN_VS>  (39) 
1.8613330126

>  <CNNaffinity_variance>  (39) 
0.1887517422

$$$$
40
     RDKit          3D

 43 45  0  0  0  0  0  0  0  0999 V2000
   23.2334   72.7949   -3.7675 P   0  0  2  0  0  0  0  0  0  0  0  0
   22.2574   72.0886   -4.8480 O   0  0  0  0  0  0  0  0  0  0  0  0
   24.6349   73.0399   -4.2445 O   0  0  0  0  0  0  0  0  0  0  0  0
   23.0918   71.8657   -2.4505 O   0  0  0  0  0  0  0  0  0  0  0  0
   23.3218   72.4511   -1.1821 C   0  0  0  0  0  0  0  0  0  0  0  0
   22.6630   70.2265   -0.5536 O   0  0  0  0  0  0  0  0  0  0  0  0
   22.4345   71.2845    2.2428 O   0  0  0  0  0  0  0  0  0  0  0  0
   24.8391   69.9992    2.2867 O   0  0  0  0  0  0  0  0  0  0  0  0
   23.3746   71.6226    1.2228 C   0  0  1  0  0  0  0  0  0  0  0  0
   24.3843   70.5077    1.0501 C   0  0  2  0  0  0  0  0  0  0  0  0
   22.6454   71.6018   -0.1137 C   0  0  1  0  0  0  0  0  0  0  0  0
   23.5920   69.4853    0.2532 C   0  0  2  0  0  0  0  0  0  0  0  0
   22.8774   71.2912    3.1062 H   0  0  0  0  0  0  0  0  0  0  0  0
   25.3376   70.6874    2.7555 H   0  0  0  0  0  0  0  0  0  0  0  0
   24.2009   66.7627    0.6922 O   0  0  0  0  0  0  0  0  0  0  0  0
   26.8058   66.5445   -3.1040 O   0  0  0  0  0  0  0  0  0  0  0  0
   24.4268   68.6928   -0.6047 N   0  0  0  0  0  0  0  0  0  0  0  0
   25.4985   66.6569   -1.1984 N   0  0  0  0  0  0  0  0  0  0  0  0
   24.6698   67.3340   -0.2940 C   0  0  0  0  0  0  0  0  0  0  0  0
   24.9931   69.2612   -1.7392 C   0  0  0  0  0  0  0  0  0  0  0  0
   25.7808   68.6030   -2.5919 C   0  0  0  0  0  0  0  0  0  0  0  0
   26.0854   67.1793   -2.3396 C   0  0  0  0  0  0  0  0  0  0  0  0
   25.6839   65.7101   -1.0020 H   0  0  0  0  0  0  0  0  0  0  0  0
   22.4178   74.1296   -3.3598 O   0  0  0  0  0  0  0  0  0  0  0  0
   21.7567   75.2895   -4.2715 P   0  0  2  0  0  0  0  0  0  0  0  0
   21.8183   76.5930   -3.3138 O   0  0  0  0  0  0  0  0  0  0  0  0
   20.3837   74.9628   -4.7836 O   0  0  0  0  0  0  0  0  0  0  0  0
   22.8494   75.5780   -5.4227 O   0  0  0  0  0  0  0  0  0  0  0  0
   23.6386   77.5883   -6.3949 O   0  0  0  0  0  0  0  0  0  0  0  0
   23.6844   75.0163   -9.6277 O   0  0  0  0  0  0  0  0  0  0  0  0
   21.4447   74.9976   -7.7521 O   0  0  0  0  0  0  0  0  0  0  0  0
   26.1693   75.7418   -8.3050 O   0  0  0  0  0  0  0  0  0  0  0  0
   23.7876   75.3817   -8.2516 C   0  0  2  0  0  0  0  0  0  0  0  0
   22.4651   75.9888   -7.7827 C   0  0  2  0  0  0  0  0  0  0  0  0
   24.9195   76.4028   -8.1170 C   0  0  1  0  0  0  0  0  0  0  0  0
   22.6077   76.6000   -6.3881 C   0  0  1  0  0  0  0  0  0  0  0  0
   24.9170   77.0589   -6.7393 C   0  0  1  0  0  0  0  0  0  0  0  0
   22.9711   74.3679   -9.7377 H   0  0  0  0  0  0  0  0  0  0  0  0
   21.3491   74.6054   -8.6338 H   0  0  0  0  0  0  0  0  0  0  0  0
   26.1838   75.3198   -9.1782 H   0  0  0  0  0  0  0  0  0  0  0  0
   25.5480   79.0266   -5.6296 O   0  0  0  0  0  0  0  0  0  0  0  0
   26.6262   78.5404   -7.5790 O   0  0  0  0  0  0  0  0  0  0  0  0
   25.7954   78.2674   -6.7257 C   0  0  0  0  0  0  0  0  0  0  0  0
  1  4  1  0
  1 24  1  0
  1  2  1  6
  1  3  2  0
 25 28  1  0
 25 24  1  0
 25 26  1  1
 25 27  2  0
  6 11  1  0
  6 12  1  0
 29 36  1  0
 29 37  1  0
  9  7  1  1
  7 13  1  0
 10  8  1  1
  8 14  1  0
  4  5  1  0
 36 28  1  1
 33 30  1  6
 30 38  1  0
 34 31  1  1
 31 39  1  0
 35 32  1  1
 32 40  1  0
 41 43  1  0
 15 19  2  0
 42 43  2  0
 16 22  2  0
 12 17  1  6
 17 19  1  0
 17 20  1  0
 18 19  1  0
 18 22  1  0
 18 23  1  0
  9 10  1  0
  9 11  1  0
 10 12  1  0
 11  5  1  6
 33 34  1  0
 33 35  1  0
 34 36  1  0
 35 37  1  0
 37 43  1  6
 20 21  2  0
 21 22  1  0
M  CHG  3   2  -1  26  -1  41  -1
M  END
>  <COMPND>  (40) 
    udp_gluA.pdb 

>  <AUTHOR>  (40) 
    GENERATED BY OPEN BABEL 3.1.1

>  <MASTER>  (40) 
        0    0    0    0    0    0    0    0   56    0   56    0

>  <minimizedAffinity>  (40) 
-6.90277

>  <CNNscore>  (40) 
0.4313740432

>  <CNNaffinity>  (40) 
4.1829538345

>  <CNN_VS>  (40) 
1.8044177294

>  <CNNaffinity_variance>  (40) 
0.2622593045

$$$$
41
     RDKit          3D

 43 45  0  0  0  0  0  0  0  0999 V2000
   23.1465   71.3126   -2.3147 P   0  0  2  0  0  0  0  0  0  0  0  0
   22.9717   72.8542   -2.7747 O   0  0  0  0  0  0  0  0  0  0  0  0
   24.3508   70.6162   -2.8774 O   0  0  0  0  0  0  0  0  0  0  0  0
   21.7178   70.6384   -2.6643 O   0  0  0  0  0  0  0  0  0  0  0  0
   21.0673   71.0163   -3.8636 C   0  0  0  0  0  0  0  0  0  0  0  0
   18.9964   71.8443   -4.7601 O   0  0  0  0  0  0  0  0  0  0  0  0
   17.6666   70.5003   -2.4326 O   0  0  0  0  0  0  0  0  0  0  0  0
   17.2178   68.7447   -4.4704 O   0  0  0  0  0  0  0  0  0  0  0  0
   18.7992   70.0789   -3.1931 C   0  0  1  0  0  0  0  0  0  0  0  0
   18.3599   69.5717   -4.5503 C   0  0  2  0  0  0  0  0  0  0  0  0
   19.6049   71.3172   -3.5613 C   0  0  1  0  0  0  0  0  0  0  0  0
   18.0933   70.8661   -5.2995 C   0  0  2  0  0  0  0  0  0  0  0  0
   17.1363   69.7261   -2.1857 H   0  0  0  0  0  0  0  0  0  0  0  0
   17.4391   67.9340   -3.9849 H   0  0  0  0  0  0  0  0  0  0  0  0
   16.1846   69.9276   -7.1577 O   0  0  0  0  0  0  0  0  0  0  0  0
   19.1058   70.4286  -10.6876 O   0  0  0  0  0  0  0  0  0  0  0  0
   18.3286   70.7412   -6.7102 N   0  0  0  0  0  0  0  0  0  0  0  0
   17.6417   70.1771   -8.9139 N   0  0  0  0  0  0  0  0  0  0  0  0
   17.3026   70.2589   -7.5569 C   0  0  0  0  0  0  0  0  0  0  0  0
   19.5626   71.0957   -7.2416 C   0  0  0  0  0  0  0  0  0  0  0  0
   19.8709   71.0123   -8.5373 C   0  0  0  0  0  0  0  0  0  0  0  0
   18.8553   70.5172   -9.4894 C   0  0  0  0  0  0  0  0  0  0  0  0
   16.9443   69.8421   -9.5227 H   0  0  0  0  0  0  0  0  0  0  0  0
   23.1175   71.4097   -0.7015 O   0  0  0  0  0  0  0  0  0  0  0  0
   21.9131   71.1872    0.3538 P   0  0  2  0  0  0  0  0  0  0  0  0
   22.6043   70.3078    1.5239 O   0  0  0  0  0  0  0  0  0  0  0  0
   20.6810   70.5676   -0.2396 O   0  0  0  0  0  0  0  0  0  0  0  0
   21.6787   72.6380    1.0192 O   0  0  0  0  0  0  0  0  0  0  0  0
   20.1776   73.7633   -0.4262 O   0  0  0  0  0  0  0  0  0  0  0  0
   20.6280   76.5129    2.6242 O   0  0  0  0  0  0  0  0  0  0  0  0
   22.9382   75.0498    1.5963 O   0  0  0  0  0  0  0  0  0  0  0  0
   18.1990   74.9269    2.4362 O   0  0  0  0  0  0  0  0  0  0  0  0
   20.5590   75.2107    2.0432 C   0  0  2  0  0  0  0  0  0  0  0  0
   21.6532   75.0637    0.9855 C   0  0  2  0  0  0  0  0  0  0  0  0
   19.1772   75.0500    1.4055 C   0  0  1  0  0  0  0  0  0  0  0  0
   21.4690   73.7747    0.1834 C   0  0  1  0  0  0  0  0  0  0  0  0
   19.1128   73.8081    0.5212 C   0  0  1  0  0  0  0  0  0  0  0  0
   21.4977   76.6380    3.0356 H   0  0  0  0  0  0  0  0  0  0  0  0
   23.0618   75.8647    2.1072 H   0  0  0  0  0  0  0  0  0  0  0  0
   18.2296   75.7111    3.0064 H   0  0  0  0  0  0  0  0  0  0  0  0
   17.2237   75.0035   -0.1887 O   0  0  0  0  0  0  0  0  0  0  0  0
   17.5461   72.9352   -1.0927 O   0  0  0  0  0  0  0  0  0  0  0  0
   17.8950   73.8355   -0.3439 C   0  0  0  0  0  0  0  0  0  0  0  0
  1  4  1  0
  1 24  1  0
  1  2  1  6
  1  3  2  0
 25 28  1  0
 25 24  1  0
 25 26  1  1
 25 27  2  0
  6 11  1  0
  6 12  1  0
 29 36  1  0
 29 37  1  0
  9  7  1  1
  7 13  1  0
 10  8  1  1
  8 14  1  0
  4  5  1  0
 36 28  1  1
 33 30  1  6
 30 38  1  0
 34 31  1  1
 31 39  1  0
 35 32  1  1
 32 40  1  0
 41 43  1  0
 15 19  2  0
 42 43  2  0
 16 22  2  0
 12 17  1  6
 17 19  1  0
 17 20  1  0
 18 19  1  0
 18 22  1  0
 18 23  1  0
  9 10  1  0
  9 11  1  0
 10 12  1  0
 11  5  1  6
 33 34  1  0
 33 35  1  0
 34 36  1  0
 35 37  1  0
 37 43  1  6
 20 21  2  0
 21 22  1  0
M  CHG  3   2  -1  26  -1  41  -1
M  END
>  <COMPND>  (41) 
    udp_gluA.pdb 

>  <AUTHOR>  (41) 
    GENERATED BY OPEN BABEL 3.1.1

>  <MASTER>  (41) 
        0    0    0    0    0    0    0    0   56    0   56    0

>  <minimizedAffinity>  (41) 
-6.65169

>  <CNNscore>  (41) 
0.8951677680

>  <CNNaffinity>  (41) 
4.6761102676

>  <CNN_VS>  (41) 
4.1859030724

>  <CNNaffinity_variance>  (41) 
0.0829425678

$$$$
42
     RDKit          3D

 43 45  0  0  0  0  0  0  0  0999 V2000
   22.9923   71.3081   -2.2374 P   0  0  2  0  0  0  0  0  0  0  0  0
   22.6264   72.8747   -2.4127 O   0  0  0  0  0  0  0  0  0  0  0  0
   24.2535   70.8715   -2.9233 O   0  0  0  0  0  0  0  0  0  0  0  0
   21.6428   70.5405   -2.6930 O   0  0  0  0  0  0  0  0  0  0  0  0
   21.0162   70.9334   -3.9002 C   0  0  0  0  0  0  0  0  0  0  0  0
   18.9829   71.8274   -4.8189 O   0  0  0  0  0  0  0  0  0  0  0  0
   17.5854   70.5263   -2.5068 O   0  0  0  0  0  0  0  0  0  0  0  0
   17.1030   68.7863   -4.5503 O   0  0  0  0  0  0  0  0  0  0  0  0
   18.7121   70.0690   -3.2550 C   0  0  1  0  0  0  0  0  0  0  0  0
   18.2717   69.5764   -4.6172 C   0  0  2  0  0  0  0  0  0  0  0  0
   19.5611   71.2810   -3.6137 C   0  0  1  0  0  0  0  0  0  0  0  0
   18.0549   70.8788   -5.3687 C   0  0  2  0  0  0  0  0  0  0  0  0
   17.0279   69.7694   -2.2661 H   0  0  0  0  0  0  0  0  0  0  0  0
   17.2929   67.9688   -4.0628 H   0  0  0  0  0  0  0  0  0  0  0  0
   16.1044   70.1197   -7.2650 O   0  0  0  0  0  0  0  0  0  0  0  0
   19.1136   70.4039  -10.7447 O   0  0  0  0  0  0  0  0  0  0  0  0
   18.3015   70.7466   -6.7767 N   0  0  0  0  0  0  0  0  0  0  0  0
   17.6053   70.2610   -8.9961 N   0  0  0  0  0  0  0  0  0  0  0  0
   17.2525   70.3593   -7.6437 C   0  0  0  0  0  0  0  0  0  0  0  0
   19.5693   71.0008   -7.2857 C   0  0  0  0  0  0  0  0  0  0  0  0
   19.8903   70.9030   -8.5773 C   0  0  0  0  0  0  0  0  0  0  0  0
   18.8521   70.5030   -9.5497 C   0  0  0  0  0  0  0  0  0  0  0  0
   16.8920   69.9909   -9.6188 H   0  0  0  0  0  0  0  0  0  0  0  0
   22.9967   71.1139   -0.6326 O   0  0  0  0  0  0  0  0  0  0  0  0
   21.8152   71.2744    0.4592 P   0  0  2  0  0  0  0  0  0  0  0  0
   21.5729   69.7568    0.9676 O   0  0  0  0  0  0  0  0  0  0  0  0
   20.5834   71.9560   -0.0622 O   0  0  0  0  0  0  0  0  0  0  0  0
   22.5123   72.0166    1.7104 O   0  0  0  0  0  0  0  0  0  0  0  0
   21.2977   73.9369    2.3784 O   0  0  0  0  0  0  0  0  0  0  0  0
   24.6452   74.1794    4.7875 O   0  0  0  0  0  0  0  0  0  0  0  0
   24.8954   73.4259    1.9761 O   0  0  0  0  0  0  0  0  0  0  0  0
   22.1077   73.2986    5.8996 O   0  0  0  0  0  0  0  0  0  0  0  0
   23.6229   73.5211    4.0395 C   0  0  2  0  0  0  0  0  0  0  0  0
   23.7109   73.9418    2.5723 C   0  0  2  0  0  0  0  0  0  0  0  0
   22.2701   73.9264    4.6291 C   0  0  1  0  0  0  0  0  0  0  0  0
   22.4987   73.4410    1.7858 C   0  0  1  0  0  0  0  0  0  0  0  0
   21.1178   73.5006    3.7239 C   0  0  1  0  0  0  0  0  0  0  0  0
   25.5142   73.9368    4.4307 H   0  0  0  0  0  0  0  0  0  0  0  0
   25.6686   73.7395    2.4703 H   0  0  0  0  0  0  0  0  0  0  0  0
   22.8349   73.5612    6.4853 H   0  0  0  0  0  0  0  0  0  0  0  0
   20.0992   75.1880    4.9955 O   0  0  0  0  0  0  0  0  0  0  0  0
   18.7330   73.8670    3.7355 O   0  0  0  0  0  0  0  0  0  0  0  0
   19.8479   74.1759    4.1286 C   0  0  0  0  0  0  0  0  0  0  0  0
  1  4  1  0
  1 24  1  0
  1  2  1  1
  1  3  2  0
 25 28  1  0
 25 24  1  0
 25 26  1  1
 25 27  2  0
  6 11  1  0
  6 12  1  0
 29 36  1  0
 29 37  1  0
  9  7  1  1
  7 13  1  0
 10  8  1  1
  8 14  1  0
  4  5  1  0
 36 28  1  1
 33 30  1  1
 30 38  1  0
 34 31  1  6
 31 39  1  0
 35 32  1  1
 32 40  1  0
 41 43  1  0
 15 19  2  0
 42 43  2  0
 16 22  2  0
 12 17  1  6
 17 19  1  0
 17 20  1  0
 18 19  1  0
 18 22  1  0
 18 23  1  0
  9 10  1  0
  9 11  1  0
 10 12  1  0
 11  5  1  6
 33 34  1  0
 33 35  1  0
 34 36  1  0
 35 37  1  0
 37 43  1  1
 20 21  2  0
 21 22  1  0
M  CHG  3   2  -1  26  -1  41  -1
M  END
>  <COMPND>  (42) 
    udp_gluA.pdb 

>  <AUTHOR>  (42) 
    GENERATED BY OPEN BABEL 3.1.1

>  <MASTER>  (42) 
        0    0    0    0    0    0    0    0   56    0   56    0

>  <minimizedAffinity>  (42) 
-7.39787

>  <CNNscore>  (42) 
0.8896385431

>  <CNNaffinity>  (42) 
4.6882290840

>  <CNN_VS>  (42) 
4.1708292961

>  <CNNaffinity_variance>  (42) 
0.0469134189

$$$$
43
     RDKit          3D

 43 45  0  0  0  0  0  0  0  0999 V2000
   22.9439   71.3536   -2.4089 P   0  0  2  0  0  0  0  0  0  0  0  0
   22.7434   72.9313   -2.1100 O   0  0  0  0  0  0  0  0  0  0  0  0
   24.2088   71.0023   -3.1360 O   0  0  0  0  0  0  0  0  0  0  0  0
   21.5684   70.9191   -3.1418 O   0  0  0  0  0  0  0  0  0  0  0  0
   20.9495   71.8414   -4.0197 C   0  0  0  0  0  0  0  0  0  0  0  0
   18.7576   72.2023   -4.9379 O   0  0  0  0  0  0  0  0  0  0  0  0
   17.7082   70.8308   -2.4865 O   0  0  0  0  0  0  0  0  0  0  0  0
   17.5795   68.8639   -4.3709 O   0  0  0  0  0  0  0  0  0  0  0  0
   18.8952   70.5631   -3.2335 C   0  0  1  0  0  0  0  0  0  0  0  0
   18.5500   69.8763   -4.5378 C   0  0  2  0  0  0  0  0  0  0  0  0
   19.4583   71.8939   -3.7135 C   0  0  1  0  0  0  0  0  0  0  0  0
   18.0468   71.0354   -5.3811 C   0  0  2  0  0  0  0  0  0  0  0  0
   17.3301   69.9953   -2.1693 H   0  0  0  0  0  0  0  0  0  0  0  0
   17.9481   68.1491   -3.8276 H   0  0  0  0  0  0  0  0  0  0  0  0
   16.2104   69.8627   -7.1780 O   0  0  0  0  0  0  0  0  0  0  0  0
   19.1031   70.3434  -10.7340 O   0  0  0  0  0  0  0  0  0  0  0  0
   18.2943   70.8419   -6.7819 N   0  0  0  0  0  0  0  0  0  0  0  0
   17.6533   70.1023   -8.9472 N   0  0  0  0  0  0  0  0  0  0  0  0
   17.3052   70.2427   -7.5973 C   0  0  0  0  0  0  0  0  0  0  0  0
   19.5038   71.2449   -7.3347 C   0  0  0  0  0  0  0  0  0  0  0  0
   19.8211   71.1046   -8.6232 C   0  0  0  0  0  0  0  0  0  0  0  0
   18.8434   70.4870   -9.5431 C   0  0  0  0  0  0  0  0  0  0  0  0
   16.9814   69.6859   -9.5342 H   0  0  0  0  0  0  0  0  0  0  0  0
   22.8017   70.6857   -0.9438 O   0  0  0  0  0  0  0  0  0  0  0  0
   21.7986   71.0157    0.2803 P   0  0  2  0  0  0  0  0  0  0  0  0
   21.6818   69.5992    1.0550 O   0  0  0  0  0  0  0  0  0  0  0  0
   20.4818   71.5995   -0.1429 O   0  0  0  0  0  0  0  0  0  0  0  0
   22.6584   71.9529    1.2728 O   0  0  0  0  0  0  0  0  0  0  0  0
   24.4435   71.1928    2.6311 O   0  0  0  0  0  0  0  0  0  0  0  0
   23.2137   74.5686    4.6705 O   0  0  0  0  0  0  0  0  0  0  0  0
   21.2504   72.7210    3.5451 O   0  0  0  0  0  0  0  0  0  0  0  0
   25.6458   74.6302    3.0793 O   0  0  0  0  0  0  0  0  0  0  0  0
   23.4466   73.7518    3.5231 C   0  0  2  0  0  0  0  0  0  0  0  0
   22.6448   72.4559    3.6461 C   0  0  2  0  0  0  0  0  0  0  0  0
   24.9446   73.4466    3.4561 C   0  0  1  0  0  0  0  0  0  0  0  0
   23.0428   71.4607    2.5553 C   0  0  1  0  0  0  0  0  0  0  0  0
   25.2455   72.3549    2.4331 C   0  0  1  0  0  0  0  0  0  0  0  0
   22.2679   74.7755    4.7338 H   0  0  0  0  0  0  0  0  0  0  0  0
   20.9910   73.3521    4.2342 H   0  0  0  0  0  0  0  0  0  0  0  0
   25.4627   75.3330    3.7223 H   0  0  0  0  0  0  0  0  0  0  0  0
   27.3304   72.6070    3.4777 O   0  0  0  0  0  0  0  0  0  0  0  0
   27.0921   70.8523    2.0414 O   0  0  0  0  0  0  0  0  0  0  0  0
   26.6361   71.8361    2.6045 C   0  0  0  0  0  0  0  0  0  0  0  0
  1  4  1  0
  1 24  1  0
  1  2  1  1
  1  3  2  0
 25 28  1  0
 25 24  1  0
 25 26  1  1
 25 27  2  0
  6 11  1  0
  6 12  1  0
 29 36  1  0
 29 37  1  0
  9  7  1  1
  7 13  1  0
 10  8  1  1
  8 14  1  0
  4  5  1  0
 36 28  1  6
 33 30  1  1
 30 38  1  0
 34 31  1  6
 31 39  1  0
 35 32  1  6
 32 40  1  0
 41 43  1  0
 15 19  2  0
 42 43  2  0
 16 22  2  0
 12 17  1  6
 17 19  1  0
 17 20  1  0
 18 19  1  0
 18 22  1  0
 18 23  1  0
  9 10  1  0
  9 11  1  0
 10 12  1  0
 11  5  1  6
 33 34  1  0
 33 35  1  0
 34 36  1  0
 35 37  1  0
 37 43  1  1
 20 21  2  0
 21 22  1  0
M  CHG  3   2  -1  26  -1  41  -1
M  END
>  <COMPND>  (43) 
    udp_gluA.pdb 

>  <AUTHOR>  (43) 
    GENERATED BY OPEN BABEL 3.1.1

>  <MASTER>  (43) 
        0    0    0    0    0    0    0    0   56    0   56    0

>  <minimizedAffinity>  (43) 
-7.86865

>  <CNNscore>  (43) 
0.8680132031

>  <CNNaffinity>  (43) 
4.5880775452

>  <CNN_VS>  (43) 
3.9825119972

>  <CNNaffinity_variance>  (43) 
0.0625541806

$$$$
44
     RDKit          3D

 43 45  0  0  0  0  0  0  0  0999 V2000
   22.4516   71.9390   -3.1862 P   0  0  2  0  0  0  0  0  0  0  0  0
   22.0159   73.4921   -3.0571 O   0  0  0  0  0  0  0  0  0  0  0  0
   23.8740   71.7129   -3.6073 O   0  0  0  0  0  0  0  0  0  0  0  0
   21.3226   71.2977   -4.1516 O   0  0  0  0  0  0  0  0  0  0  0  0
   20.5012   70.2651   -3.6383 C   0  0  0  0  0  0  0  0  0  0  0  0
   18.7177   71.4952   -4.6794 O   0  0  0  0  0  0  0  0  0  0  0  0
   16.9163   70.2601   -2.6248 O   0  0  0  0  0  0  0  0  0  0  0  0
   16.4284   68.7404   -4.8358 O   0  0  0  0  0  0  0  0  0  0  0  0
   18.0457   69.6965   -3.2923 C   0  0  1  0  0  0  0  0  0  0  0  0
   17.6930   69.3594   -4.7255 C   0  0  2  0  0  0  0  0  0  0  0  0
   19.0835   70.7963   -3.4697 C   0  0  1  0  0  0  0  0  0  0  0  0
   17.7357   70.7248   -5.3903 C   0  0  2  0  0  0  0  0  0  0  0  0
   16.2394   69.5761   -2.5001 H   0  0  0  0  0  0  0  0  0  0  0  0
   16.4529   67.8748   -4.3976 H   0  0  0  0  0  0  0  0  0  0  0  0
   15.9645   70.0815   -7.4940 O   0  0  0  0  0  0  0  0  0  0  0  0
   19.2938   70.4644  -10.6583 O   0  0  0  0  0  0  0  0  0  0  0  0
   18.1131   70.6493   -6.7733 N   0  0  0  0  0  0  0  0  0  0  0  0
   17.6246   70.2718   -9.0679 N   0  0  0  0  0  0  0  0  0  0  0  0
   17.1463   70.3177   -7.7518 C   0  0  0  0  0  0  0  0  0  0  0  0
   19.4266   70.9037   -7.1486 C   0  0  0  0  0  0  0  0  0  0  0  0
   19.8676   70.8562   -8.4073 C   0  0  0  0  0  0  0  0  0  0  0  0
   18.9213   70.5163   -9.4901 C   0  0  0  0  0  0  0  0  0  0  0  0
   16.9703   70.0411   -9.7664 H   0  0  0  0  0  0  0  0  0  0  0  0
   22.0748   71.3346   -1.7351 O   0  0  0  0  0  0  0  0  0  0  0  0
   22.9990   70.6559   -0.5954 P   0  0  2  0  0  0  0  0  0  0  0  0
   21.9175   70.0565    0.4493 O   0  0  0  0  0  0  0  0  0  0  0  0
   24.0022   71.5881    0.0197 O   0  0  0  0  0  0  0  0  0  0  0  0
   23.6399   69.3580   -1.3075 O   0  0  0  0  0  0  0  0  0  0  0  0
   24.6990   67.7538    0.0761 O   0  0  0  0  0  0  0  0  0  0  0  0
   26.0300   66.6400   -3.6730 O   0  0  0  0  0  0  0  0  0  0  0  0
   25.8999   69.4611   -2.9255 O   0  0  0  0  0  0  0  0  0  0  0  0
   23.9605   65.0934   -2.3403 O   0  0  0  0  0  0  0  0  0  0  0  0
   25.1089   67.1765   -2.7234 C   0  0  2  0  0  0  0  0  0  0  0  0
   25.7417   68.3764   -2.0182 C   0  0  2  0  0  0  0  0  0  0  0  0
   24.7794   66.0772   -1.7110 C   0  0  1  0  0  0  0  0  0  0  0  0
   24.8816   68.8344   -0.8396 C   0  0  1  0  0  0  0  0  0  0  0  0
   24.0301   66.6367   -0.5052 C   0  0  1  0  0  0  0  0  0  0  0  0
   26.2541   67.3210   -4.3267 H   0  0  0  0  0  0  0  0  0  0  0  0
   26.4445   69.1775   -3.6761 H   0  0  0  0  0  0  0  0  0  0  0  0
   24.4258   64.7293   -3.1096 H   0  0  0  0  0  0  0  0  0  0  0  0
   23.2704   64.5562    0.2666 O   0  0  0  0  0  0  0  0  0  0  0  0
   24.5654   65.7828    1.6870 O   0  0  0  0  0  0  0  0  0  0  0  0
   24.0040   65.6436    0.6107 C   0  0  0  0  0  0  0  0  0  0  0  0
  1  4  1  0
  1 24  1  0
  1  2  1  1
  1  3  2  0
 25 28  1  0
 25 24  1  0
 25 26  1  1
 25 27  2  0
  6 11  1  0
  6 12  1  0
 29 36  1  0
 29 37  1  0
  9  7  1  1
  7 13  1  0
 10  8  1  1
  8 14  1  0
  4  5  1  0
 36 28  1  6
 33 30  1  6
 30 38  1  0
 34 31  1  6
 31 39  1  0
 35 32  1  6
 32 40  1  0
 41 43  1  0
 15 19  2  0
 42 43  2  0
 16 22  2  0
 12 17  1  6
 17 19  1  0
 17 20  1  0
 18 19  1  0
 18 22  1  0
 18 23  1  0
  9 10  1  0
  9 11  1  0
 10 12  1  0
 11  5  1  6
 33 34  1  0
 33 35  1  0
 34 36  1  0
 35 37  1  0
 37 43  1  1
 20 21  2  0
 21 22  1  0
M  CHG  3   2  -1  26  -1  41  -1
M  END
>  <COMPND>  (44) 
    udp_gluA.pdb 

>  <AUTHOR>  (44) 
    GENERATED BY OPEN BABEL 3.1.1

>  <MASTER>  (44) 
        0    0    0    0    0    0    0    0   56    0   56    0

>  <minimizedAffinity>  (44) 
-9.56721

>  <CNNscore>  (44) 
0.8433325291

>  <CNNaffinity>  (44) 
5.0382790565

>  <CNN_VS>  (44) 
4.2489447594

>  <CNNaffinity_variance>  (44) 
0.0418364592

$$$$
45
     RDKit          3D

 43 45  0  0  0  0  0  0  0  0999 V2000
   20.9893   73.5255   -2.8898 P   0  0  2  0  0  0  0  0  0  0  0  0
   20.5732   73.0682   -1.3942 O   0  0  0  0  0  0  0  0  0  0  0  0
   21.1261   75.0071   -3.0842 O   0  0  0  0  0  0  0  0  0  0  0  0
   19.9034   72.7898   -3.8372 O   0  0  0  0  0  0  0  0  0  0  0  0
   19.2951   71.5996   -3.3705 C   0  0  0  0  0  0  0  0  0  0  0  0
   17.4944   72.1723   -4.8562 O   0  0  0  0  0  0  0  0  0  0  0  0
   15.7061   70.6885   -2.9609 O   0  0  0  0  0  0  0  0  0  0  0  0
   16.0693   68.8845   -4.9733 O   0  0  0  0  0  0  0  0  0  0  0  0
   17.0507   70.4019   -3.3464 C   0  0  1  0  0  0  0  0  0  0  0  0
   17.0846   69.8410   -4.7523 C   0  0  2  0  0  0  0  0  0  0  0  0
   17.7838   71.7258   -3.5137 C   0  0  1  0  0  0  0  0  0  0  0  0
   16.9031   71.0918   -5.5952 C   0  0  2  0  0  0  0  0  0  0  0  0
   15.2177   69.8577   -2.8479 H   0  0  0  0  0  0  0  0  0  0  0  0
   16.2298   68.1076   -4.4142 H   0  0  0  0  0  0  0  0  0  0  0  0
   15.6605   70.1273   -7.9409 O   0  0  0  0  0  0  0  0  0  0  0  0
   19.4834   70.7474  -10.4399 O   0  0  0  0  0  0  0  0  0  0  0  0
   17.5505   70.9905   -6.8725 N   0  0  0  0  0  0  0  0  0  0  0  0
   17.5660   70.4361   -9.1831 N   0  0  0  0  0  0  0  0  0  0  0  0
   16.8367   70.4923   -7.9881 C   0  0  0  0  0  0  0  0  0  0  0  0
   18.8761   71.3834   -7.0113 C   0  0  0  0  0  0  0  0  0  0  0  0
   19.5579   71.3241   -8.1570 C   0  0  0  0  0  0  0  0  0  0  0  0
   18.8856   70.8147   -9.3702 C   0  0  0  0  0  0  0  0  0  0  0  0
   17.0908   70.0908   -9.9732 H   0  0  0  0  0  0  0  0  0  0  0  0
   22.3411   72.6827   -3.1641 O   0  0  0  0  0  0  0  0  0  0  0  0
   22.8993   71.3232   -2.4905 P   0  0  2  0  0  0  0  0  0  0  0  0
   24.3813   71.1774   -3.1253 O   0  0  0  0  0  0  0  0  0  0  0  0
   22.0173   70.1260   -2.6976 O   0  0  0  0  0  0  0  0  0  0  0  0
   23.1546   71.7072   -0.9446 O   0  0  0  0  0  0  0  0  0  0  0  0
   24.4809   70.7936    0.7919 O   0  0  0  0  0  0  0  0  0  0  0  0
   21.0353   71.8294    2.8222 O   0  0  0  0  0  0  0  0  0  0  0  0
   20.8817   70.5737    0.1890 O   0  0  0  0  0  0  0  0  0  0  0  0
   23.4278   73.4602    3.0814 O   0  0  0  0  0  0  0  0  0  0  0  0
   22.0412   71.9496    1.8164 C   0  0  2  0  0  0  0  0  0  0  0  0
   22.0690   70.6793    0.9661 C   0  0  2  0  0  0  0  0  0  0  0  0
   23.3874   72.1515    2.5157 C   0  0  1  0  0  0  0  0  0  0  0  0
   23.2787   70.6735    0.0305 C   0  0  1  0  0  0  0  0  0  0  0  0
   24.5502   72.0065    1.5382 C   0  0  1  0  0  0  0  0  0  0  0  0
   20.1707   71.7003    2.4014 H   0  0  0  0  0  0  0  0  0  0  0  0
   20.1100   70.5770    0.7763 H   0  0  0  0  0  0  0  0  0  0  0  0
   22.6927   73.5656    3.7054 H   0  0  0  0  0  0  0  0  0  0  0  0
   26.4330   70.6850    1.9966 O   0  0  0  0  0  0  0  0  0  0  0  0
   26.3196   72.7225    3.0139 O   0  0  0  0  0  0  0  0  0  0  0  0
   25.8458   71.8763    2.2706 C   0  0  0  0  0  0  0  0  0  0  0  0
  1  4  1  0
  1 24  1  0
  1  2  1  1
  1  3  2  0
 25 28  1  0
 25 24  1  0
 25 26  1  6
 25 27  2  0
  6 11  1  0
  6 12  1  0
 29 36  1  0
 29 37  1  0
  9  7  1  6
  7 13  1  0
 10  8  1  1
  8 14  1  0
  4  5  1  0
 36 28  1  6
 33 30  1  1
 30 38  1  0
 34 31  1  6
 31 39  1  0
 35 32  1  6
 32 40  1  0
 41 43  1  0
 15 19  2  0
 42 43  2  0
 16 22  2  0
 12 17  1  6
 17 19  1  0
 17 20  1  0
 18 19  1  0
 18 22  1  0
 18 23  1  0
  9 10  1  0
  9 11  1  0
 10 12  1  0
 11  5  1  6
 33 34  1  0
 33 35  1  0
 34 36  1  0
 35 37  1  0
 37 43  1  1
 20 21  2  0
 21 22  1  0
M  CHG  3   2  -1  26  -1  41  -1
M  END
>  <COMPND>  (45) 
    udp_gluA.pdb 

>  <AUTHOR>  (45) 
    GENERATED BY OPEN BABEL 3.1.1

>  <MASTER>  (45) 
        0    0    0    0    0    0    0    0   56    0   56    0

>  <minimizedAffinity>  (45) 
-7.76998

>  <CNNscore>  (45) 
0.8217133284

>  <CNNaffinity>  (45) 
4.5441856384

>  <CNN_VS>  (45) 
3.7340178490

>  <CNNaffinity_variance>  (45) 
0.0573705360

$$$$
46
     RDKit          3D

 43 45  0  0  0  0  0  0  0  0999 V2000
   21.9129   71.8328   -5.0378 P   0  0  2  0  0  0  0  0  0  0  0  0
   20.7408   72.7779   -4.4446 O   0  0  0  0  0  0  0  0  0  0  0  0
   23.1576   72.5568   -5.4601 O   0  0  0  0  0  0  0  0  0  0  0  0
   21.1729   70.9749   -6.1929 O   0  0  0  0  0  0  0  0  0  0  0  0
   20.5914   71.6678   -7.2821 C   0  0  0  0  0  0  0  0  0  0  0  0
   19.0321   69.8439   -7.1420 O   0  0  0  0  0  0  0  0  0  0  0  0
   18.2608   70.5314   -9.9570 O   0  0  0  0  0  0  0  0  0  0  0  0
   16.2476   71.6506   -8.4973 O   0  0  0  0  0  0  0  0  0  0  0  0
   18.6346   71.3976   -8.8853 C   0  0  1  0  0  0  0  0  0  0  0  0
   17.5084   71.5021   -7.8787 C   0  0  2  0  0  0  0  0  0  0  0  0
   19.7213   70.7024   -8.0765 C   0  0  1  0  0  0  0  0  0  0  0  0
   17.6382   70.1906   -7.1230 C   0  0  2  0  0  0  0  0  0  0  0  0
   17.5673   70.9542  -10.4880 H   0  0  0  0  0  0  0  0  0  0  0  0
   16.2149   72.5005   -8.9648 H   0  0  0  0  0  0  0  0  0  0  0  0
   16.0676   68.2565   -5.7930 O   0  0  0  0  0  0  0  0  0  0  0  0
   16.0248   70.7091   -1.8908 O   0  0  0  0  0  0  0  0  0  0  0  0
   17.2024   70.2984   -5.7594 N   0  0  0  0  0  0  0  0  0  0  0  0
   16.0469   69.4803   -3.8511 N   0  0  0  0  0  0  0  0  0  0  0  0
   16.4164   69.2710   -5.1863 C   0  0  0  0  0  0  0  0  0  0  0  0
   17.5547   71.4106   -5.0046 C   0  0  0  0  0  0  0  0  0  0  0  0
   17.1951   71.5961   -3.7330 C   0  0  0  0  0  0  0  0  0  0  0  0
   16.3723   70.5700   -3.0596 C   0  0  0  0  0  0  0  0  0  0  0  0
   15.4976   68.7795   -3.4310 H   0  0  0  0  0  0  0  0  0  0  0  0
   22.1324   70.7456   -3.8619 O   0  0  0  0  0  0  0  0  0  0  0  0
   23.0543   70.7893   -2.5346 P   0  0  2  0  0  0  0  0  0  0  0  0
   22.0062   71.1951   -1.3696 O   0  0  0  0  0  0  0  0  0  0  0  0
   24.2438   71.6991   -2.6406 O   0  0  0  0  0  0  0  0  0  0  0  0
   23.4164   69.2457   -2.2368 O   0  0  0  0  0  0  0  0  0  0  0  0
   24.3100   67.9163   -0.4923 O   0  0  0  0  0  0  0  0  0  0  0  0
   26.5329   66.6508   -3.7365 O   0  0  0  0  0  0  0  0  0  0  0  0
   25.9510   69.4882   -3.3564 O   0  0  0  0  0  0  0  0  0  0  0  0
   24.3954   64.9806   -2.6915 O   0  0  0  0  0  0  0  0  0  0  0  0
   25.3768   67.1493   -3.0637 C   0  0  2  0  0  0  0  0  0  0  0  0
   25.7128   68.4770   -2.3841 C   0  0  2  0  0  0  0  0  0  0  0  0
   24.9510   66.1114   -2.0228 C   0  0  1  0  0  0  0  0  0  0  0  0
   24.5741   68.9259   -1.4672 C   0  0  1  0  0  0  0  0  0  0  0  0
   23.9034   66.6769   -1.0683 C   0  0  1  0  0  0  0  0  0  0  0  0
   26.8218   67.2939   -4.4030 H   0  0  0  0  0  0  0  0  0  0  0  0
   26.6722   69.2099   -3.9418 H   0  0  0  0  0  0  0  0  0  0  0  0
   25.0521   64.6112   -3.3023 H   0  0  0  0  0  0  0  0  0  0  0  0
   23.1396   64.6257   -0.2254 O   0  0  0  0  0  0  0  0  0  0  0  0
   24.0938   66.0697    1.2590 O   0  0  0  0  0  0  0  0  0  0  0  0
   23.7386   65.7912    0.1236 C   0  0  0  0  0  0  0  0  0  0  0  0
  1  4  1  0
  1 24  1  0
  1  2  1  1
  1  3  2  0
 25 28  1  0
 25 24  1  0
 25 26  1  1
 25 27  2  0
  6 11  1  0
  6 12  1  0
 29 36  1  0
 29 37  1  0
  9  7  1  6
  7 13  1  0
 10  8  1  6
  8 14  1  0
  4  5  1  0
 36 28  1  6
 33 30  1  1
 30 38  1  0
 34 31  1  6
 31 39  1  0
 35 32  1  6
 32 40  1  0
 41 43  1  0
 15 19  2  0
 42 43  2  0
 16 22  2  0
 12 17  1  1
 17 19  1  0
 17 20  1  0
 18 19  1  0
 18 22  1  0
 18 23  1  0
  9 10  1  0
  9 11  1  0
 10 12  1  0
 11  5  1  1
 33 34  1  0
 33 35  1  0
 34 36  1  0
 35 37  1  0
 37 43  1  1
 20 21  2  0
 21 22  1  0
M  CHG  3   2  -1  26  -1  41  -1
M  END
>  <COMPND>  (46) 
    udp_gluA.pdb 

>  <AUTHOR>  (46) 
    GENERATED BY OPEN BABEL 3.1.1

>  <MASTER>  (46) 
        0    0    0    0    0    0    0    0   56    0   56    0

>  <minimizedAffinity>  (46) 
-7.34053

>  <CNNscore>  (46) 
0.7960276008

>  <CNNaffinity>  (46) 
5.1605539322

>  <CNN_VS>  (46) 
4.1079435349

>  <CNNaffinity_variance>  (46) 
0.1825768501

$$$$
47
     RDKit          3D

 43 45  0  0  0  0  0  0  0  0999 V2000
   22.3526   73.1982   -6.9364 P   0  0  2  0  0  0  0  0  0  0  0  0
   21.4359   74.4145   -6.3898 O   0  0  0  0  0  0  0  0  0  0  0  0
   23.1179   73.4965   -8.1923 O   0  0  0  0  0  0  0  0  0  0  0  0
   21.3301   71.9469   -7.0172 O   0  0  0  0  0  0  0  0  0  0  0  0
   20.0095   72.1811   -7.4709 C   0  0  0  0  0  0  0  0  0  0  0  0
   18.8651   70.1573   -6.8606 O   0  0  0  0  0  0  0  0  0  0  0  0
   18.1688   69.8953   -9.7654 O   0  0  0  0  0  0  0  0  0  0  0  0
   15.8656   70.8792   -8.6870 O   0  0  0  0  0  0  0  0  0  0  0  0
   18.2735   71.0722   -8.9639 C   0  0  1  0  0  0  0  0  0  0  0  0
   17.0819   71.1825   -8.0365 C   0  0  2  0  0  0  0  0  0  0  0  0
   19.4221   70.8728   -7.9845 C   0  0  1  0  0  0  0  0  0  0  0  0
   17.4318   70.1772   -6.9525 C   0  0  2  0  0  0  0  0  0  0  0  0
   17.4413   69.9990  -10.3992 H   0  0  0  0  0  0  0  0  0  0  0  0
   15.6873   71.5480   -9.3674 H   0  0  0  0  0  0  0  0  0  0  0  0
   16.4875   68.3246   -5.0414 O   0  0  0  0  0  0  0  0  0  0  0  0
   15.3622   71.6740   -2.0818 O   0  0  0  0  0  0  0  0  0  0  0  0
   16.8869   70.5378   -5.6743 N   0  0  0  0  0  0  0  0  0  0  0  0
   15.9270   69.9946   -3.5696 N   0  0  0  0  0  0  0  0  0  0  0  0
   16.4405   69.5296   -4.7875 C   0  0  0  0  0  0  0  0  0  0  0  0
   16.8006   71.8759   -5.3096 C   0  0  0  0  0  0  0  0  0  0  0  0
   16.3088   72.3037   -4.1452 C   0  0  0  0  0  0  0  0  0  0  0  0
   15.8200   71.3145   -3.1623 C   0  0  0  0  0  0  0  0  0  0  0  0
   15.6080   69.3113   -2.9366 H   0  0  0  0  0  0  0  0  0  0  0  0
   23.2723   72.8340   -5.6580 O   0  0  0  0  0  0  0  0  0  0  0  0
   23.5311   73.6305   -4.2752 P   0  0  2  0  0  0  0  0  0  0  0  0
   22.8218   75.0622   -4.5348 O   0  0  0  0  0  0  0  0  0  0  0  0
   24.9758   73.7193   -3.8768 O   0  0  0  0  0  0  0  0  0  0  0  0
   22.5830   72.8961   -3.1962 O   0  0  0  0  0  0  0  0  0  0  0  0
   20.3707   72.0655   -3.3545 O   0  0  0  0  0  0  0  0  0  0  0  0
   20.4834   73.4190    0.5473 O   0  0  0  0  0  0  0  0  0  0  0  0
   21.6872   74.9909   -1.6008 O   0  0  0  0  0  0  0  0  0  0  0  0
   20.6287   70.5703   -0.0138 O   0  0  0  0  0  0  0  0  0  0  0  0
   21.0150   72.8606   -0.6543 C   0  0  2  0  0  0  0  0  0  0  0  0
   20.8482   73.8591   -1.8000 C   0  0  2  0  0  0  0  0  0  0  0  0
   20.2482   71.5711   -0.9562 C   0  0  1  0  0  0  0  0  0  0  0  0
   21.1933   73.2135   -3.1428 C   0  0  1  0  0  0  0  0  0  0  0  0
   20.5513   71.0587   -2.3612 C   0  0  1  0  0  0  0  0  0  0  0  0
   20.9555   74.2397    0.7591 H   0  0  0  0  0  0  0  0  0  0  0  0
   21.4739   75.4053   -0.7504 H   0  0  0  0  0  0  0  0  0  0  0  0
   20.4411   70.8840    0.8846 H   0  0  0  0  0  0  0  0  0  0  0  0
   18.5767   69.9015   -1.8481 O   0  0  0  0  0  0  0  0  0  0  0  0
   19.6414   69.3348   -3.7831 O   0  0  0  0  0  0  0  0  0  0  0  0
   19.5692   70.0080   -2.7660 C   0  0  0  0  0  0  0  0  0  0  0  0
  1  4  1  0
  1 24  1  0
  1  2  1  1
  1  3  2  0
 25 28  1  0
 25 24  1  0
 25 26  1  6
 25 27  2  0
  6 11  1  0
  6 12  1  0
 29 36  1  0
 29 37  1  0
  9  7  1  6
  7 13  1  0
 10  8  1  6
  8 14  1  0
  4  5  1  0
 36 28  1  1
 33 30  1  1
 30 38  1  0
 34 31  1  1
 31 39  1  0
 35 32  1  1
 32 40  1  0
 41 43  1  0
 15 19  2  0
 42 43  2  0
 16 22  2  0
 12 17  1  1
 17 19  1  0
 17 20  1  0
 18 19  1  0
 18 22  1  0
 18 23  1  0
  9 10  1  0
  9 11  1  0
 10 12  1  0
 11  5  1  1
 33 34  1  0
 33 35  1  0
 34 36  1  0
 35 37  1  0
 37 43  1  6
 20 21  2  0
 21 22  1  0
M  CHG  3   2  -1  26  -1  41  -1
M  END
>  <COMPND>  (47) 
    udp_gluA.pdb 

>  <AUTHOR>  (47) 
    GENERATED BY OPEN BABEL 3.1.1

>  <MASTER>  (47) 
        0    0    0    0    0    0    0    0   56    0   56    0

>  <minimizedAffinity>  (47) 
-7.19778

>  <CNNscore>  (47) 
0.7363245487

>  <CNNaffinity>  (47) 
4.5257353783

>  <CNN_VS>  (47) 
3.3324100971

>  <CNNaffinity_variance>  (47) 
0.6014780998

$$$$
48
     RDKit          3D

 43 45  0  0  0  0  0  0  0  0999 V2000
   21.3742   74.3492   -5.1982 P   0  0  2  0  0  0  0  0  0  0  0  0
   20.9654   75.9045   -5.0164 O   0  0  0  0  0  0  0  0  0  0  0  0
   22.1787   74.0452   -6.4279 O   0  0  0  0  0  0  0  0  0  0  0  0
   19.9680   73.5599   -5.0657 O   0  0  0  0  0  0  0  0  0  0  0  0
   19.7926   72.6689   -3.9794 C   0  0  0  0  0  0  0  0  0  0  0  0
   17.7263   72.3786   -5.1727 O   0  0  0  0  0  0  0  0  0  0  0  0
   16.7632   70.8727   -2.7651 O   0  0  0  0  0  0  0  0  0  0  0  0
   17.4151   68.8710   -4.4985 O   0  0  0  0  0  0  0  0  0  0  0  0
   18.0672   70.9101   -3.3456 C   0  0  1  0  0  0  0  0  0  0  0  0
   18.0942   70.1027   -4.6261 C   0  0  2  0  0  0  0  0  0  0  0  0
   18.3143   72.3235   -3.8549 C   0  0  1  0  0  0  0  0  0  0  0  0
   17.4175   71.0447   -5.6072 C   0  0  2  0  0  0  0  0  0  0  0  0
   16.5826   69.9791   -2.4325 H   0  0  0  0  0  0  0  0  0  0  0  0
   17.8849   68.3070   -3.8636 H   0  0  0  0  0  0  0  0  0  0  0  0
   15.8179   70.1619   -7.7609 O   0  0  0  0  0  0  0  0  0  0  0  0
   19.3434   70.4100  -10.7195 O   0  0  0  0  0  0  0  0  0  0  0  0
   17.8918   70.8698   -6.9508 N   0  0  0  0  0  0  0  0  0  0  0  0
   17.5756   70.2853   -9.2322 N   0  0  0  0  0  0  0  0  0  0  0  0
   17.0063   70.4214   -7.9592 C   0  0  0  0  0  0  0  0  0  0  0  0
   19.2191   71.1428   -7.2589 C   0  0  0  0  0  0  0  0  0  0  0  0
   19.7472   71.0084   -8.4770 C   0  0  0  0  0  0  0  0  0  0  0  0
   18.8897   70.5439   -9.5871 C   0  0  0  0  0  0  0  0  0  0  0  0
   16.9791   69.9725   -9.9503 H   0  0  0  0  0  0  0  0  0  0  0  0
   22.1174   74.0041   -3.8049 O   0  0  0  0  0  0  0  0  0  0  0  0
   23.6730   73.7116   -3.4758 P   0  0  2  0  0  0  0  0  0  0  0  0
   24.3696   75.1607   -3.6638 O   0  0  0  0  0  0  0  0  0  0  0  0
   24.2833   72.6197   -4.3060 O   0  0  0  0  0  0  0  0  0  0  0  0
   23.7116   73.4445   -1.8853 O   0  0  0  0  0  0  0  0  0  0  0  0
   22.3145   71.9041   -0.7520 O   0  0  0  0  0  0  0  0  0  0  0  0
   23.2991   74.5334    2.2787 O   0  0  0  0  0  0  0  0  0  0  0  0
   22.6377   75.5276   -0.3875 O   0  0  0  0  0  0  0  0  0  0  0  0
   24.5563   71.9153    2.1525 O   0  0  0  0  0  0  0  0  0  0  0  0
   23.5073   73.7969    1.0736 C   0  0  2  0  0  0  0  0  0  0  0  0
   22.4443   74.1861    0.0459 C   0  0  2  0  0  0  0  0  0  0  0  0
   23.4053   72.3067    1.4065 C   0  0  1  0  0  0  0  0  0  0  0  0
   22.4923   73.2584   -1.1689 C   0  0  1  0  0  0  0  0  0  0  0  0
   23.3320   71.4570    0.1412 C   0  0  1  0  0  0  0  0  0  0  0  0
   23.3593   75.4835    2.0917 H   0  0  0  0  0  0  0  0  0  0  0  0
   22.6087   76.1217    0.3783 H   0  0  0  0  0  0  0  0  0  0  0  0
   24.6147   72.4488    2.9605 H   0  0  0  0  0  0  0  0  0  0  0  0
   21.6595   70.0527    0.9969 O   0  0  0  0  0  0  0  0  0  0  0  0
   23.5807   69.0607    0.2730 O   0  0  0  0  0  0  0  0  0  0  0  0
   22.9061   70.0616    0.4632 C   0  0  0  0  0  0  0  0  0  0  0  0
  1  4  1  0
  1 24  1  0
  1  2  1  1
  1  3  2  0
 25 28  1  0
 25 24  1  0
 25 26  1  1
 25 27  2  0
  6 11  1  0
  6 12  1  0
 29 36  1  0
 29 37  1  0
  9  7  1  6
  7 13  1  0
 10  8  1  1
  8 14  1  0
  4  5  1  0
 36 28  1  1
 33 30  1  1
 30 38  1  0
 34 31  1  6
 31 39  1  0
 35 32  1  6
 32 40  1  0
 41 43  1  0
 15 19  2  0
 42 43  2  0
 16 22  2  0
 12 17  1  6
 17 19  1  0
 17 20  1  0
 18 19  1  0
 18 22  1  0
 18 23  1  0
  9 10  1  0
  9 11  1  0
 10 12  1  0
 11  5  1  6
 33 34  1  0
 33 35  1  0
 34 36  1  0
 35 37  1  0
 37 43  1  1
 20 21  2  0
 21 22  1  0
M  CHG  3   2  -1  26  -1  41  -1
M  END
>  <COMPND>  (48) 
    udp_gluA.pdb 

>  <AUTHOR>  (48) 
    GENERATED BY OPEN BABEL 3.1.1

>  <MASTER>  (48) 
        0    0    0    0    0    0    0    0   56    0   56    0

>  <minimizedAffinity>  (48) 
-7.14825

>  <CNNscore>  (48) 
0.7042682767

>  <CNNaffinity>  (48) 
4.4209957123

>  <CNN_VS>  (48) 
3.1135671139

>  <CNNaffinity_variance>  (48) 
0.0580087081

$$$$
49
     RDKit          3D

 43 45  0  0  0  0  0  0  0  0999 V2000
   21.8171   72.4463   -5.9945 P   0  0  2  0  0  0  0  0  0  0  0  0
   20.6641   73.5141   -5.6082 O   0  0  0  0  0  0  0  0  0  0  0  0
   23.0041   73.0254   -6.7069 O   0  0  0  0  0  0  0  0  0  0  0  0
   21.0197   71.2836   -6.7884 O   0  0  0  0  0  0  0  0  0  0  0  0
   20.3968   71.6091   -8.0174 C   0  0  0  0  0  0  0  0  0  0  0  0
   19.0190   69.7822   -7.2813 O   0  0  0  0  0  0  0  0  0  0  0  0
   17.9052   69.7444  -10.0650 O   0  0  0  0  0  0  0  0  0  0  0  0
   15.9673   71.0568   -8.6657 O   0  0  0  0  0  0  0  0  0  0  0  0
   18.3140   70.8579   -9.2704 C   0  0  1  0  0  0  0  0  0  0  0  0
   17.2934   71.1305   -8.1857 C   0  0  2  0  0  0  0  0  0  0  0  0
   19.5331   70.4357   -8.4619 C   0  0  1  0  0  0  0  0  0  0  0  0
   17.6105   70.0427   -7.1738 C   0  0  2  0  0  0  0  0  0  0  0  0
   17.1274   69.9901  -10.5907 H   0  0  0  0  0  0  0  0  0  0  0  0
   15.8151   71.7699   -9.3061 H   0  0  0  0  0  0  0  0  0  0  0  0
   16.4586   68.3513   -5.2273 O   0  0  0  0  0  0  0  0  0  0  0  0
   16.5048   71.6822   -2.0418 O   0  0  0  0  0  0  0  0  0  0  0  0
   17.3109   70.4421   -5.8279 N   0  0  0  0  0  0  0  0  0  0  0  0
   16.4818   70.0122   -3.6429 N   0  0  0  0  0  0  0  0  0  0  0  0
   16.7324   69.5152   -4.9287 C   0  0  0  0  0  0  0  0  0  0  0  0
   17.5909   71.7375   -5.4102 C   0  0  0  0  0  0  0  0  0  0  0  0
   17.3464   72.1965   -4.1813 C   0  0  0  0  0  0  0  0  0  0  0  0
   16.7422   71.2922   -3.1810 C   0  0  0  0  0  0  0  0  0  0  0  0
   16.0774   69.3859   -2.9998 H   0  0  0  0  0  0  0  0  0  0  0  0
   22.1570   71.7501   -4.5758 O   0  0  0  0  0  0  0  0  0  0  0  0
   21.1892   71.2285   -3.3905 P   0  0  2  0  0  0  0  0  0  0  0  0
   20.2439   70.1454   -4.1345 O   0  0  0  0  0  0  0  0  0  0  0  0
   20.4401   72.3198   -2.6820 O   0  0  0  0  0  0  0  0  0  0  0  0
   22.1472   70.3467   -2.4381 O   0  0  0  0  0  0  0  0  0  0  0  0
   23.7191   71.8779   -1.5472 O   0  0  0  0  0  0  0  0  0  0  0  0
   24.7508   68.3845    0.4020 O   0  0  0  0  0  0  0  0  0  0  0  0
   24.0858   68.3522   -2.4425 O   0  0  0  0  0  0  0  0  0  0  0  0
   23.2852   70.4629    1.8102 O   0  0  0  0  0  0  0  0  0  0  0  0
   23.8685   69.3146   -0.2260 C   0  0  2  0  0  0  0  0  0  0  0  0
   24.3015   69.5316   -1.6762 C   0  0  2  0  0  0  0  0  0  0  0  0
   23.9365   70.6305    0.5523 C   0  0  1  0  0  0  0  0  0  0  0  0
   23.5266   70.6870   -2.3114 C   0  0  1  0  0  0  0  0  0  0  0  0
   23.2492   71.7624   -0.2059 C   0  0  1  0  0  0  0  0  0  0  0  0
   24.7244   67.5404   -0.0756 H   0  0  0  0  0  0  0  0  0  0  0  0
   24.5743   67.6149   -2.0449 H   0  0  0  0  0  0  0  0  0  0  0  0
   23.7130   69.7452    2.3027 H   0  0  0  0  0  0  0  0  0  0  0  0
   24.0515   73.9363   -0.5689 O   0  0  0  0  0  0  0  0  0  0  0  0
   23.4944   73.3769    1.5702 O   0  0  0  0  0  0  0  0  0  0  0  0
   23.5997   73.0879    0.3877 C   0  0  0  0  0  0  0  0  0  0  0  0
  1  4  1  0
  1 24  1  0
  1  2  1  1
  1  3  2  0
 25 28  1  0
 25 24  1  0
 25 26  1  6
 25 27  2  0
  6 11  1  0
  6 12  1  0
 29 36  1  0
 29 37  1  0
  9  7  1  6
  7 13  1  0
 10  8  1  6
  8 14  1  0
  4  5  1  0
 36 28  1  1
 33 30  1  1
 30 38  1  0
 34 31  1  6
 31 39  1  0
 35 32  1  1
 32 40  1  0
 41 43  1  0
 15 19  2  0
 42 43  2  0
 16 22  2  0
 12 17  1  1
 17 19  1  0
 17 20  1  0
 18 19  1  0
 18 22  1  0
 18 23  1  0
  9 10  1  0
  9 11  1  0
 10 12  1  0
 11  5  1  1
 33 34  1  0
 33 35  1  0
 34 36  1  0
 35 37  1  0
 37 43  1  1
 20 21  2  0
 21 22  1  0
M  CHG  3   2  -1  26  -1  41  -1
M  END
>  <COMPND>  (49) 
    udp_gluA.pdb 

>  <AUTHOR>  (49) 
    GENERATED BY OPEN BABEL 3.1.1

>  <MASTER>  (49) 
        0    0    0    0    0    0    0    0   56    0   56    0

>  <minimizedAffinity>  (49) 
-7.76902

>  <CNNscore>  (49) 
0.6348344088

>  <CNNaffinity>  (49) 
4.4273653030

>  <CNN_VS>  (49) 
2.8106439114

>  <CNNaffinity_variance>  (49) 
0.1921903938

$$$$
50
     RDKit          3D

 43 45  0  0  0  0  0  0  0  0999 V2000
   21.4983   73.3298   -5.2422 P   0  0  2  0  0  0  0  0  0  0  0  0
   21.4957   74.7868   -5.9465 O   0  0  0  0  0  0  0  0  0  0  0  0
   22.2131   72.2565   -6.0096 O   0  0  0  0  0  0  0  0  0  0  0  0
   19.9364   73.0474   -4.9281 O   0  0  0  0  0  0  0  0  0  0  0  0
   19.6061   72.2455   -3.8090 C   0  0  0  0  0  0  0  0  0  0  0  0
   17.6198   72.1310   -5.1578 O   0  0  0  0  0  0  0  0  0  0  0  0
   16.3857   70.6185   -2.8816 O   0  0  0  0  0  0  0  0  0  0  0  0
   17.0345   68.6328   -4.6344 O   0  0  0  0  0  0  0  0  0  0  0  0
   17.7288   70.5869   -3.3649 C   0  0  1  0  0  0  0  0  0  0  0  0
   17.7990   69.8198   -4.6683 C   0  0  2  0  0  0  0  0  0  0  0  0
   18.1034   71.9958   -3.8038 C   0  0  1  0  0  0  0  0  0  0  0  0
   17.2590   70.8350   -5.6611 C   0  0  2  0  0  0  0  0  0  0  0  0
   16.1238   69.7290   -2.5953 H   0  0  0  0  0  0  0  0  0  0  0  0
   17.4187   68.0192   -3.9880 H   0  0  0  0  0  0  0  0  0  0  0  0
   15.7390   70.4163   -8.0044 O   0  0  0  0  0  0  0  0  0  0  0  0
   19.5163   70.2180  -10.6383 O   0  0  0  0  0  0  0  0  0  0  0  0
   17.8196   70.6707   -6.9725 N   0  0  0  0  0  0  0  0  0  0  0  0
   17.6218   70.3169   -9.3138 N   0  0  0  0  0  0  0  0  0  0  0  0
   16.9679   70.4655   -8.0836 C   0  0  0  0  0  0  0  0  0  0  0  0
   19.1973   70.7153   -7.1483 C   0  0  0  0  0  0  0  0  0  0  0  0
   19.8060   70.5721   -8.3272 C   0  0  0  0  0  0  0  0  0  0  0  0
   18.9885   70.3530   -9.5385 C   0  0  0  0  0  0  0  0  0  0  0  0
   17.0498   70.1709  -10.1018 H   0  0  0  0  0  0  0  0  0  0  0  0
   22.1138   73.6351   -3.7791 O   0  0  0  0  0  0  0  0  0  0  0  0
   23.6066   73.4331   -3.1923 P   0  0  2  0  0  0  0  0  0  0  0  0
   23.9006   74.8352   -2.4386 O   0  0  0  0  0  0  0  0  0  0  0  0
   24.6294   73.0603   -4.2261 O   0  0  0  0  0  0  0  0  0  0  0  0
   23.4362   72.3585   -2.0012 O   0  0  0  0  0  0  0  0  0  0  0  0
   23.7884   70.0626   -2.4638 O   0  0  0  0  0  0  0  0  0  0  0  0
   21.7788   69.8950    1.1419 O   0  0  0  0  0  0  0  0  0  0  0  0
   20.9355   71.7653   -0.9378 O   0  0  0  0  0  0  0  0  0  0  0  0
   24.6459   69.4249    1.0462 O   0  0  0  0  0  0  0  0  0  0  0  0
   22.6546   70.4540    0.1629 C   0  0  2  0  0  0  0  0  0  0  0  0
   21.8783   70.7166   -1.1278 C   0  0  2  0  0  0  0  0  0  0  0  0
   23.7832   69.4518   -0.0893 C   0  0  1  0  0  0  0  0  0  0  0  0
   22.8243   71.0978   -2.2673 C   0  0  1  0  0  0  0  0  0  0  0  0
   24.6045   69.8350   -1.3170 C   0  0  1  0  0  0  0  0  0  0  0  0
   21.0533   70.5145    1.3185 H   0  0  0  0  0  0  0  0  0  0  0  0
   20.3322   71.5303   -0.2159 H   0  0  0  0  0  0  0  0  0  0  0  0
   24.1354   69.1824    1.8345 H   0  0  0  0  0  0  0  0  0  0  0  0
   25.4011   67.6765   -0.8612 O   0  0  0  0  0  0  0  0  0  0  0  0
   26.1665   68.6892   -2.7553 O   0  0  0  0  0  0  0  0  0  0  0  0
   25.4775   68.7011   -1.7462 C   0  0  0  0  0  0  0  0  0  0  0  0
  1  4  1  0
  1 24  1  0
  1  2  1  6
  1  3  2  0
 25 28  1  0
 25 24  1  0
 25 26  1  1
 25 27  2  0
  6 11  1  0
  6 12  1  0
 29 36  1  0
 29 37  1  0
  9  7  1  6
  7 13  1  0
 10  8  1  1
  8 14  1  0
  4  5  1  0
 36 28  1  1
 33 30  1  1
 30 38  1  0
 34 31  1  1
 31 39  1  0
 35 32  1  1
 32 40  1  0
 41 43  1  0
 15 19  2  0
 42 43  2  0
 16 22  2  0
 12 17  1  6
 17 19  1  0
 17 20  1  0
 18 19  1  0
 18 22  1  0
 18 23  1  0
  9 10  1  0
  9 11  1  0
 10 12  1  0
 11  5  1  6
 33 34  1  0
 33 35  1  0
 34 36  1  0
 35 37  1  0
 37 43  1  6
 20 21  2  0
 21 22  1  0
M  CHG  3   2  -1  26  -1  41  -1
M  END
>  <COMPND>  (50) 
    udp_gluA.pdb 

>  <AUTHOR>  (50) 
    GENERATED BY OPEN BABEL 3.1.1

>  <MASTER>  (50) 
        0    0    0    0    0    0    0    0   56    0   56    0

>  <minimizedAffinity>  (50) 
-8.78328

>  <CNNscore>  (50) 
0.6158788800

>  <CNNaffinity>  (50) 
4.5770440102

>  <CNN_VS>  (50) 
2.8189046383

>  <CNNaffinity_variance>  (50) 
0.0735938624

$$$$
51
     RDKit          3D

 43 45  0  0  0  0  0  0  0  0999 V2000
   21.2942   74.9835   -3.7485 P   0  0  2  0  0  0  0  0  0  0  0  0
   22.7229   75.7224   -3.9266 O   0  0  0  0  0  0  0  0  0  0  0  0
   20.0997   75.8210   -4.1000 O   0  0  0  0  0  0  0  0  0  0  0  0
   21.3350   74.4190   -2.2328 O   0  0  0  0  0  0  0  0  0  0  0  0
   22.4353   73.6201   -1.8382 C   0  0  0  0  0  0  0  0  0  0  0  0
   23.0443   71.4494   -1.0045 O   0  0  0  0  0  0  0  0  0  0  0  0
   20.1029   70.9328   -0.7354 O   0  0  0  0  0  0  0  0  0  0  0  0
   20.8408   71.5222    1.8227 O   0  0  0  0  0  0  0  0  0  0  0  0
   20.8303   72.1437   -0.5280 C   0  0  1  0  0  0  0  0  0  0  0  0
   21.6050   72.0738    0.7709 C   0  0  2  0  0  0  0  0  0  0  0  0
   21.9465   72.2041   -1.5618 C   0  0  1  0  0  0  0  0  0  0  0  0
   22.7870   71.2002    0.3865 C   0  0  2  0  0  0  0  0  0  0  0  0
   19.3841   70.8718   -0.0863 H   0  0  0  0  0  0  0  0  0  0  0  0
   20.1010   72.1152    2.0303 H   0  0  0  0  0  0  0  0  0  0  0  0
   24.6263   69.2781    1.3345 O   0  0  0  0  0  0  0  0  0  0  0  0
   27.2795   72.5078    3.2771 O   0  0  0  0  0  0  0  0  0  0  0  0
   23.9671   71.5112    1.1426 N   0  0  0  0  0  0  0  0  0  0  0  0
   25.9455   70.8884    2.3020 N   0  0  0  0  0  0  0  0  0  0  0  0
   24.8252   70.4711    1.5714 C   0  0  0  0  0  0  0  0  0  0  0  0
   24.2652   72.8331    1.4505 C   0  0  0  0  0  0  0  0  0  0  0  0
   25.3369   73.2154    2.1477 C   0  0  0  0  0  0  0  0  0  0  0  0
   26.2838   72.1904    2.6336 C   0  0  0  0  0  0  0  0  0  0  0  0
   26.5566   70.1819    2.6131 H   0  0  0  0  0  0  0  0  0  0  0  0
   21.4642   73.6455   -4.6394 O   0  0  0  0  0  0  0  0  0  0  0  0
   21.4698   73.4308   -6.2417 P   0  0  2  0  0  0  0  0  0  0  0  0
   22.6776   72.3774   -6.4695 O   0  0  0  0  0  0  0  0  0  0  0  0
   21.5991   74.7003   -7.0327 O   0  0  0  0  0  0  0  0  0  0  0  0
   20.1297   72.5858   -6.5462 O   0  0  0  0  0  0  0  0  0  0  0  0
   19.2160   70.4559   -6.0585 O   0  0  0  0  0  0  0  0  0  0  0  0
   18.5633   70.7389  -10.1281 O   0  0  0  0  0  0  0  0  0  0  0  0
   21.0957   71.6215   -8.9696 O   0  0  0  0  0  0  0  0  0  0  0  0
   16.3602   71.1084   -8.2678 O   0  0  0  0  0  0  0  0  0  0  0  0
   18.7083   71.2272   -8.7945 C   0  0  2  0  0  0  0  0  0  0  0  0
   20.1022   70.8801   -8.2712 C   0  0  2  0  0  0  0  0  0  0  0  0
   17.6344   70.5644   -7.9288 C   0  0  1  0  0  0  0  0  0  0  0  0
   20.2158   71.1806   -6.7760 C   0  0  1  0  0  0  0  0  0  0  0  0
   17.8886   70.8060   -6.4437 C   0  0  1  0  0  0  0  0  0  0  0  0
   19.2355   71.1465  -10.6967 H   0  0  0  0  0  0  0  0  0  0  0  0
   21.0293   71.4358   -9.9191 H   0  0  0  0  0  0  0  0  0  0  0  0
   16.1863   70.9614   -9.2106 H   0  0  0  0  0  0  0  0  0  0  0  0
   16.4194   68.9787   -6.3809 O   0  0  0  0  0  0  0  0  0  0  0  0
   16.9339   69.9686   -4.3922 O   0  0  0  0  0  0  0  0  0  0  0  0
   17.0462   69.8991   -5.6070 C   0  0  0  0  0  0  0  0  0  0  0  0
  1  4  1  0
  1 24  1  0
  1  2  1  1
  1  3  2  0
 25 28  1  0
 25 24  1  0
 25 26  1  1
 25 27  2  0
  6 11  1  0
  6 12  1  0
 29 36  1  0
 29 37  1  0
  9  7  1  6
  7 13  1  0
 10  8  1  1
  8 14  1  0
  4  5  1  0
 36 28  1  6
 33 30  1  6
 30 38  1  0
 34 31  1  6
 31 39  1  0
 35 32  1  6
 32 40  1  0
 41 43  1  0
 15 19  2  0
 42 43  2  0
 16 22  2  0
 12 17  1  1
 17 19  1  0
 17 20  1  0
 18 19  1  0
 18 22  1  0
 18 23  1  0
  9 10  1  0
  9 11  1  0
 10 12  1  0
 11  5  1  1
 33 34  1  0
 33 35  1  0
 34 36  1  0
 35 37  1  0
 37 43  1  1
 20 21  2  0
 21 22  1  0
M  CHG  3   2  -1  26  -1  41  -1
M  END
>  <COMPND>  (51) 
    udp_gluA.pdb 

>  <AUTHOR>  (51) 
    GENERATED BY OPEN BABEL 3.1.1

>  <MASTER>  (51) 
        0    0    0    0    0    0    0    0   56    0   56    0

>  <minimizedAffinity>  (51) 
-7.09804

>  <CNNscore>  (51) 
0.6059547067

>  <CNNaffinity>  (51) 
4.3497438431

>  <CNN_VS>  (51) 
2.6357476711

>  <CNNaffinity_variance>  (51) 
0.0602884665

$$$$
52
     RDKit          3D

 43 45  0  0  0  0  0  0  0  0999 V2000
   23.4954   71.7292   -2.9011 P   0  0  2  0  0  0  0  0  0  0  0  0
   24.1599   73.0351   -3.5882 O   0  0  0  0  0  0  0  0  0  0  0  0
   24.3574   70.5009   -2.9098 O   0  0  0  0  0  0  0  0  0  0  0  0
   22.0631   71.5877   -3.6402 O   0  0  0  0  0  0  0  0  0  0  0  0
   21.7306   72.5182   -4.6541 C   0  0  0  0  0  0  0  0  0  0  0  0
   20.8148   70.5974   -5.7719 O   0  0  0  0  0  0  0  0  0  0  0  0
   21.2938   72.0888   -8.3288 O   0  0  0  0  0  0  0  0  0  0  0  0
   18.6215   72.4477   -7.9213 O   0  0  0  0  0  0  0  0  0  0  0  0
   20.8886   72.5878   -7.0539 C   0  0  1  0  0  0  0  0  0  0  0  0
   19.4398   72.2366   -6.7898 C   0  0  2  0  0  0  0  0  0  0  0  0
   21.6119   71.7829   -5.9828 C   0  0  1  0  0  0  0  0  0  0  0  0
   19.5361   70.7706   -6.4032 C   0  0  2  0  0  0  0  0  0  0  0  0
   20.8446   72.5879   -9.0293 H   0  0  0  0  0  0  0  0  0  0  0  0
   18.5922   73.3958   -8.1268 H   0  0  0  0  0  0  0  0  0  0  0  0
   16.9745   69.8652   -7.1745 O   0  0  0  0  0  0  0  0  0  0  0  0
   15.6595   69.2876   -2.7949 O   0  0  0  0  0  0  0  0  0  0  0  0
   18.5050   70.3771   -5.4851 N   0  0  0  0  0  0  0  0  0  0  0  0
   16.3216   69.5794   -4.9924 N   0  0  0  0  0  0  0  0  0  0  0  0
   17.2529   69.9374   -5.9761 C   0  0  0  0  0  0  0  0  0  0  0  0
   18.7390   70.4271   -4.1163 C   0  0  0  0  0  0  0  0  0  0  0  0
   17.8415   70.0825   -3.1908 C   0  0  0  0  0  0  0  0  0  0  0  0
   16.5079   69.6128   -3.6199 C   0  0  0  0  0  0  0  0  0  0  0  0
   15.4419   69.2720   -5.3100 H   0  0  0  0  0  0  0  0  0  0  0  0
   23.0933   72.2592   -1.4279 O   0  0  0  0  0  0  0  0  0  0  0  0
   21.8750   73.2004   -0.9344 P   0  0  2  0  0  0  0  0  0  0  0  0
   20.6246   72.1754   -0.8548 O   0  0  0  0  0  0  0  0  0  0  0  0
   21.6352   74.4023   -1.8015 O   0  0  0  0  0  0  0  0  0  0  0  0
   22.2195   73.5426    0.6040 O   0  0  0  0  0  0  0  0  0  0  0  0
   24.1896   73.0198    1.8100 O   0  0  0  0  0  0  0  0  0  0  0  0
   21.3503   73.0510    4.8109 O   0  0  0  0  0  0  0  0  0  0  0  0
   20.7620   71.8184    2.2284 O   0  0  0  0  0  0  0  0  0  0  0  0
   23.1979   75.2773    4.5270 O   0  0  0  0  0  0  0  0  0  0  0  0
   21.9467   73.4506    3.5770 C   0  0  2  0  0  0  0  0  0  0  0  0
   22.0545   72.2428    2.6458 C   0  0  2  0  0  0  0  0  0  0  0  0
   23.3369   74.0120    3.8836 C   0  0  1  0  0  0  0  0  0  0  0  0
   22.8918   72.5772    1.4106 C   0  0  1  0  0  0  0  0  0  0  0  0
   24.1553   74.1999    2.6094 C   0  0  1  0  0  0  0  0  0  0  0  0
   20.4656   72.6907    4.6409 H   0  0  0  0  0  0  0  0  0  0  0  0
   20.2252   71.6048    3.0072 H   0  0  0  0  0  0  0  0  0  0  0  0
   22.6787   75.1717    5.3394 H   0  0  0  0  0  0  0  0  0  0  0  0
   25.8414   74.1594    4.2394 O   0  0  0  0  0  0  0  0  0  0  0  0
   26.4432   74.8021    2.1361 O   0  0  0  0  0  0  0  0  0  0  0  0
   25.5960   74.4279    2.9330 C   0  0  0  0  0  0  0  0  0  0  0  0
  1  4  1  0
  1 24  1  0
  1  2  1  6
  1  3  2  0
 25 28  1  0
 25 24  1  0
 25 26  1  1
 25 27  2  0
  6 11  1  0
  6 12  1  0
 29 36  1  0
 29 37  1  0
  9  7  1  6
  7 13  1  0
 10  8  1  6
  8 14  1  0
  4  5  1  0
 36 28  1  1
 33 30  1  1
 30 38  1  0
 34 31  1  6
 31 39  1  0
 35 32  1  6
 32 40  1  0
 41 43  1  0
 15 19  2  0
 42 43  2  0
 16 22  2  0
 12 17  1  1
 17 19  1  0
 17 20  1  0
 18 19  1  0
 18 22  1  0
 18 23  1  0
  9 10  1  0
  9 11  1  0
 10 12  1  0
 11  5  1  1
 33 34  1  0
 33 35  1  0
 34 36  1  0
 35 37  1  0
 37 43  1  1
 20 21  2  0
 21 22  1  0
M  CHG  3   2  -1  26  -1  41  -1
M  END
>  <COMPND>  (52) 
    udp_gluA.pdb 

>  <AUTHOR>  (52) 
    GENERATED BY OPEN BABEL 3.1.1

>  <MASTER>  (52) 
        0    0    0    0    0    0    0    0   56    0   56    0

>  <minimizedAffinity>  (52) 
-6.69725

>  <CNNscore>  (52) 
0.5777671933

>  <CNNaffinity>  (52) 
4.1943569183

>  <CNN_VS>  (52) 
2.4233617783

>  <CNNaffinity_variance>  (52) 
0.0377134942

$$$$
53
     RDKit          3D

 43 45  0  0  0  0  0  0  0  0999 V2000
   21.1373   72.3120   -5.2747 P   0  0  2  0  0  0  0  0  0  0  0  0
   20.2166   71.6301   -4.1318 O   0  0  0  0  0  0  0  0  0  0  0  0
   20.8169   73.7471   -5.5737 O   0  0  0  0  0  0  0  0  0  0  0  0
   21.0239   71.2914   -6.5251 O   0  0  0  0  0  0  0  0  0  0  0  0
   20.2816   71.6943   -7.6614 C   0  0  0  0  0  0  0  0  0  0  0  0
   18.8847   69.8385   -7.0427 O   0  0  0  0  0  0  0  0  0  0  0  0
   17.9993   69.7900   -9.9072 O   0  0  0  0  0  0  0  0  0  0  0  0
   15.9301   71.0597   -8.6653 O   0  0  0  0  0  0  0  0  0  0  0  0
   18.3212   70.9081   -9.0796 C   0  0  1  0  0  0  0  0  0  0  0  0
   17.2117   71.1570   -8.0800 C   0  0  2  0  0  0  0  0  0  0  0  0
   19.4794   70.5063   -8.1767 C   0  0  1  0  0  0  0  0  0  0  0  0
   17.4673   70.0715   -7.0483 C   0  0  2  0  0  0  0  0  0  0  0  0
   17.2617   70.0228  -10.4932 H   0  0  0  0  0  0  0  0  0  0  0  0
   15.8161   71.7723   -9.3143 H   0  0  0  0  0  0  0  0  0  0  0  0
   16.6401   68.2663   -5.0400 O   0  0  0  0  0  0  0  0  0  0  0  0
   15.8981   71.6742   -2.0267 O   0  0  0  0  0  0  0  0  0  0  0  0
   17.0528   70.4600   -5.7300 N   0  0  0  0  0  0  0  0  0  0  0  0
   16.2704   69.9654   -3.5415 N   0  0  0  0  0  0  0  0  0  0  0  0
   16.6558   69.4742   -4.7958 C   0  0  0  0  0  0  0  0  0  0  0  0
   17.0436   71.8030   -5.3733 C   0  0  0  0  0  0  0  0  0  0  0  0
   16.6738   72.2559   -4.1738 C   0  0  0  0  0  0  0  0  0  0  0  0
   16.2440   71.2913   -3.1403 C   0  0  0  0  0  0  0  0  0  0  0  0
   15.9880   69.2981   -2.8750 H   0  0  0  0  0  0  0  0  0  0  0  0
   22.6383   72.0562   -4.7319 O   0  0  0  0  0  0  0  0  0  0  0  0
   23.5176   72.8471   -3.6296 P   0  0  2  0  0  0  0  0  0  0  0  0
   22.4637   73.9060   -3.0064 O   0  0  0  0  0  0  0  0  0  0  0  0
   24.7713   73.4692   -4.1729 O   0  0  0  0  0  0  0  0  0  0  0  0
   23.7598   71.7722   -2.4513 O   0  0  0  0  0  0  0  0  0  0  0  0
   23.9799   69.4151   -2.3832 O   0  0  0  0  0  0  0  0  0  0  0  0
   21.7479   70.1496    1.0149 O   0  0  0  0  0  0  0  0  0  0  0  0
   21.1641   71.5626   -1.4745 O   0  0  0  0  0  0  0  0  0  0  0  0
   24.5762   69.5150    1.2357 O   0  0  0  0  0  0  0  0  0  0  0  0
   22.7182   70.4325    0.0066 C   0  0  2  0  0  0  0  0  0  0  0  0
   22.0418   70.4481   -1.3645 C   0  0  2  0  0  0  0  0  0  0  0  0
   23.7881   69.3396    0.0599 C   0  0  1  0  0  0  0  0  0  0  0  0
   23.0796   70.5189   -2.4856 C   0  0  1  0  0  0  0  0  0  0  0  0
   24.7071   69.3999   -1.1568 C   0  0  1  0  0  0  0  0  0  0  0  0
   21.0576   70.8311    0.9999 H   0  0  0  0  0  0  0  0  0  0  0  0
   20.5031   71.5242   -0.7659 H   0  0  0  0  0  0  0  0  0  0  0  0
   24.0032   69.4789    2.0175 H   0  0  0  0  0  0  0  0  0  0  0  0
   25.0553   67.1983   -0.4263 O   0  0  0  0  0  0  0  0  0  0  0  0
   26.4825   68.0067   -2.0102 O   0  0  0  0  0  0  0  0  0  0  0  0
   25.5241   68.1538   -1.2666 C   0  0  0  0  0  0  0  0  0  0  0  0
  1  4  1  0
  1 24  1  0
  1  2  1  1
  1  3  2  0
 25 28  1  0
 25 24  1  0
 25 26  1  1
 25 27  2  0
  6 11  1  0
  6 12  1  0
 29 36  1  0
 29 37  1  0
  9  7  1  6
  7 13  1  0
 10  8  1  6
  8 14  1  0
  4  5  1  0
 36 28  1  1
 33 30  1  1
 30 38  1  0
 34 31  1  1
 31 39  1  0
 35 32  1  1
 32 40  1  0
 41 43  1  0
 15 19  2  0
 42 43  2  0
 16 22  2  0
 12 17  1  1
 17 19  1  0
 17 20  1  0
 18 19  1  0
 18 22  1  0
 18 23  1  0
  9 10  1  0
  9 11  1  0
 10 12  1  0
 11  5  1  1
 33 34  1  0
 33 35  1  0
 34 36  1  0
 35 37  1  0
 37 43  1  6
 20 21  2  0
 21 22  1  0
M  CHG  3   2  -1  26  -1  41  -1
M  END
>  <COMPND>  (53) 
    udp_gluA.pdb 

>  <AUTHOR>  (53) 
    GENERATED BY OPEN BABEL 3.1.1

>  <MASTER>  (53) 
        0    0    0    0    0    0    0    0   56    0   56    0

>  <minimizedAffinity>  (53) 
-8.61531

>  <CNNscore>  (53) 
0.5744862556

>  <CNNaffinity>  (53) 
4.3191561699

>  <CNN_VS>  (53) 
2.4812958241

>  <CNNaffinity_variance>  (53) 
0.4187403321

$$$$
54
     RDKit          3D

 43 45  0  0  0  0  0  0  0  0999 V2000
   23.4315   71.5835   -2.7547 P   0  0  2  0  0  0  0  0  0  0  0  0
   23.9937   73.0351   -3.1972 O   0  0  0  0  0  0  0  0  0  0  0  0
   24.4257   70.4635   -2.8490 O   0  0  0  0  0  0  0  0  0  0  0  0
   22.0851   71.4038   -3.6338 O   0  0  0  0  0  0  0  0  0  0  0  0
   21.7681   72.3938   -4.5951 C   0  0  0  0  0  0  0  0  0  0  0  0
   20.7634   70.5589   -5.7788 O   0  0  0  0  0  0  0  0  0  0  0  0
   21.2268   72.1573   -8.2733 O   0  0  0  0  0  0  0  0  0  0  0  0
   18.5784   72.5786   -7.7790 O   0  0  0  0  0  0  0  0  0  0  0  0
   20.8697   72.6061   -6.9658 C   0  0  1  0  0  0  0  0  0  0  0  0
   19.4173   72.2875   -6.6808 C   0  0  2  0  0  0  0  0  0  0  0  0
   21.5930   71.7279   -5.9538 C   0  0  1  0  0  0  0  0  0  0  0  0
   19.4758   70.8022   -6.3673 C   0  0  2  0  0  0  0  0  0  0  0  0
   20.7767   72.7035   -8.9371 H   0  0  0  0  0  0  0  0  0  0  0  0
   18.5747   73.5361   -7.9381 H   0  0  0  0  0  0  0  0  0  0  0  0
   16.9017   69.9164   -7.1195 O   0  0  0  0  0  0  0  0  0  0  0  0
   15.6422   69.2718   -2.7330 O   0  0  0  0  0  0  0  0  0  0  0  0
   18.4556   70.3967   -5.4423 N   0  0  0  0  0  0  0  0  0  0  0  0
   16.2765   69.5971   -4.9340 N   0  0  0  0  0  0  0  0  0  0  0  0
   17.1959   69.9685   -5.9238 C   0  0  0  0  0  0  0  0  0  0  0  0
   18.7076   70.4240   -4.0760 C   0  0  0  0  0  0  0  0  0  0  0  0
   17.8212   70.0669   -3.1446 C   0  0  0  0  0  0  0  0  0  0  0  0
   16.4807   69.6079   -3.5637 C   0  0  0  0  0  0  0  0  0  0  0  0
   15.3918   69.2973   -5.2449 H   0  0  0  0  0  0  0  0  0  0  0  0
   22.8606   71.8536   -1.2668 O   0  0  0  0  0  0  0  0  0  0  0  0
   21.9318   70.9447   -0.3051 P   0  0  2  0  0  0  0  0  0  0  0  0
   22.9430   69.7847    0.1970 O   0  0  0  0  0  0  0  0  0  0  0  0
   20.6813   70.4339   -0.9604 O   0  0  0  0  0  0  0  0  0  0  0  0
   21.6784   71.8573    1.0008 O   0  0  0  0  0  0  0  0  0  0  0  0
   22.3242   74.0709    1.5415 O   0  0  0  0  0  0  0  0  0  0  0  0
   22.5790   72.1996    5.2159 O   0  0  0  0  0  0  0  0  0  0  0  0
   23.5493   70.8661    2.8045 O   0  0  0  0  0  0  0  0  0  0  0  0
   20.3417   73.9599    4.6269 O   0  0  0  0  0  0  0  0  0  0  0  0
   22.0618   72.4345    3.9062 C   0  0  2  0  0  0  0  0  0  0  0  0
   23.1725   72.2365    2.8743 C   0  0  2  0  0  0  0  0  0  0  0  0
   21.5381   73.8715    3.8553 C   0  0  1  0  0  0  0  0  0  0  0  0
   22.7208   72.7000    1.4887 C   0  0  1  0  0  0  0  0  0  0  0  0
   21.2283   74.3012    2.4242 C   0  0  1  0  0  0  0  0  0  0  0  0
   22.9177   71.2922    5.2720 H   0  0  0  0  0  0  0  0  0  0  0  0
   23.8368   70.5653    3.6804 H   0  0  0  0  0  0  0  0  0  0  0  0
   20.5251   73.6889    5.5400 H   0  0  0  0  0  0  0  0  0  0  0  0
   19.7469   76.1118    2.5931 O   0  0  0  0  0  0  0  0  0  0  0  0
   21.9196   76.5888    2.0918 O   0  0  0  0  0  0  0  0  0  0  0  0
   21.0382   75.7810    2.3440 C   0  0  0  0  0  0  0  0  0  0  0  0
  1  4  1  0
  1 24  1  0
  1  2  1  6
  1  3  2  0
 25 28  1  0
 25 24  1  0
 25 26  1  1
 25 27  2  0
  6 11  1  0
  6 12  1  0
 29 36  1  0
 29 37  1  0
  9  7  1  6
  7 13  1  0
 10  8  1  6
  8 14  1  0
  4  5  1  0
 36 28  1  1
 33 30  1  1
 30 38  1  0
 34 31  1  6
 31 39  1  0
 35 32  1  1
 32 40  1  0
 41 43  1  0
 15 19  2  0
 42 43  2  0
 16 22  2  0
 12 17  1  1
 17 19  1  0
 17 20  1  0
 18 19  1  0
 18 22  1  0
 18 23  1  0
  9 10  1  0
  9 11  1  0
 10 12  1  0
 11  5  1  1
 33 34  1  0
 33 35  1  0
 34 36  1  0
 35 37  1  0
 37 43  1  1
 20 21  2  0
 21 22  1  0
M  CHG  3   2  -1  26  -1  41  -1
M  END
>  <COMPND>  (54) 
    udp_gluA.pdb 

>  <AUTHOR>  (54) 
    GENERATED BY OPEN BABEL 3.1.1

>  <MASTER>  (54) 
        0    0    0    0    0    0    0    0   56    0   56    0

>  <minimizedAffinity>  (54) 
-6.88571

>  <CNNscore>  (54) 
0.5416642427

>  <CNNaffinity>  (54) 
4.2377710342

>  <CNN_VS>  (54) 
2.2954490185

>  <CNNaffinity_variance>  (54) 
0.0885226205

$$$$
55
     RDKit          3D

 43 45  0  0  0  0  0  0  0  0999 V2000
   22.1885   73.0075   -6.2261 P   0  0  2  0  0  0  0  0  0  0  0  0
   21.5518   74.1318   -5.2517 O   0  0  0  0  0  0  0  0  0  0  0  0
   22.7792   73.5348   -7.5008 O   0  0  0  0  0  0  0  0  0  0  0  0
   20.9993   71.9240   -6.3983 O   0  0  0  0  0  0  0  0  0  0  0  0
   19.9578   72.2033   -7.3158 C   0  0  0  0  0  0  0  0  0  0  0  0
   18.7820   70.1968   -6.7083 O   0  0  0  0  0  0  0  0  0  0  0  0
   18.1807   69.8867   -9.6296 O   0  0  0  0  0  0  0  0  0  0  0  0
   15.8488   70.9019   -8.6458 O   0  0  0  0  0  0  0  0  0  0  0  0
   18.2658   71.0771   -8.8459 C   0  0  1  0  0  0  0  0  0  0  0  0
   17.0447   71.2102   -7.9607 C   0  0  2  0  0  0  0  0  0  0  0  0
   19.3801   70.8892   -7.8255 C   0  0  1  0  0  0  0  0  0  0  0  0
   17.3526   70.2226   -6.8481 C   0  0  2  0  0  0  0  0  0  0  0  0
   17.4752   69.9830  -10.2889 H   0  0  0  0  0  0  0  0  0  0  0  0
   15.6972   71.5593   -9.3434 H   0  0  0  0  0  0  0  0  0  0  0  0
   16.9796   68.4793   -4.6577 O   0  0  0  0  0  0  0  0  0  0  0  0
   15.0984   71.8131   -2.0903 O   0  0  0  0  0  0  0  0  0  0  0  0
   16.7678   70.6087   -5.5952 N   0  0  0  0  0  0  0  0  0  0  0  0
   16.0421   70.1411   -3.3814 N   0  0  0  0  0  0  0  0  0  0  0  0
   16.6256   69.6557   -4.5591 C   0  0  0  0  0  0  0  0  0  0  0  0
   16.3440   71.9179   -5.4018 C   0  0  0  0  0  0  0  0  0  0  0  0
   15.7897   72.3658   -4.2736 C   0  0  0  0  0  0  0  0  0  0  0  0
   15.6044   71.4337   -3.1422 C   0  0  0  0  0  0  0  0  0  0  0  0
   15.9308   69.4955   -2.6465 H   0  0  0  0  0  0  0  0  0  0  0  0
   23.2385   72.2446   -5.2625 O   0  0  0  0  0  0  0  0  0  0  0  0
   23.4682   72.3303   -3.6645 P   0  0  2  0  0  0  0  0  0  0  0  0
   24.2057   73.7584   -3.4729 O   0  0  0  0  0  0  0  0  0  0  0  0
   24.2177   71.1648   -3.0868 O   0  0  0  0  0  0  0  0  0  0  0  0
   21.9926   72.5483   -3.0500 O   0  0  0  0  0  0  0  0  0  0  0  0
   21.5780   70.8820   -1.4188 O   0  0  0  0  0  0  0  0  0  0  0  0
   18.0020   72.9507   -1.4351 O   0  0  0  0  0  0  0  0  0  0  0  0
   19.3673   72.3338   -3.9430 O   0  0  0  0  0  0  0  0  0  0  0  0
   19.8955   73.3269    0.7384 O   0  0  0  0  0  0  0  0  0  0  0  0
   19.4149   72.7896   -1.5606 C   0  0  2  0  0  0  0  0  0  0  0  0
   19.7188   71.7894   -2.6763 C   0  0  2  0  0  0  0  0  0  0  0  0
   19.9528   72.2752   -0.2235 C   0  0  1  0  0  0  0  0  0  0  0  0
   21.2021   71.4174   -2.6883 C   0  0  1  0  0  0  0  0  0  0  0  0
   21.3997   71.8067   -0.3482 C   0  0  1  0  0  0  0  0  0  0  0  0
   17.6378   73.2769   -2.2731 H   0  0  0  0  0  0  0  0  0  0  0  0
   18.4274   72.5723   -3.9424 H   0  0  0  0  0  0  0  0  0  0  0  0
   18.9798   73.6343    0.8272 H   0  0  0  0  0  0  0  0  0  0  0  0
   22.3500   71.8198    1.7961 O   0  0  0  0  0  0  0  0  0  0  0  0
   21.6679   69.8057    0.9730 O   0  0  0  0  0  0  0  0  0  0  0  0
   21.8058   71.0137    0.8511 C   0  0  0  0  0  0  0  0  0  0  0  0
  1  4  1  0
  1 24  1  0
  1  2  1  1
  1  3  2  0
 25 28  1  0
 25 24  1  0
 25 26  1  6
 25 27  2  0
  6 11  1  0
  6 12  1  0
 29 36  1  0
 29 37  1  0
  9  7  1  6
  7 13  1  0
 10  8  1  6
  8 14  1  0
  4  5  1  0
 36 28  1  1
 33 30  1  1
 30 38  1  0
 34 31  1  6
 31 39  1  0
 35 32  1  1
 32 40  1  0
 41 43  1  0
 15 19  2  0
 42 43  2  0
 16 22  2  0
 12 17  1  1
 17 19  1  0
 17 20  1  0
 18 19  1  0
 18 22  1  0
 18 23  1  0
  9 10  1  0
  9 11  1  0
 10 12  1  0
 11  5  1  1
 33 34  1  0
 33 35  1  0
 34 36  1  0
 35 37  1  0
 37 43  1  1
 20 21  2  0
 21 22  1  0
M  CHG  3   2  -1  26  -1  41  -1
M  END
>  <COMPND>  (55) 
    udp_gluA.pdb 

>  <AUTHOR>  (55) 
    GENERATED BY OPEN BABEL 3.1.1

>  <MASTER>  (55) 
        0    0    0    0    0    0    0    0   56    0   56    0

>  <minimizedAffinity>  (55) 
-7.54357

>  <CNNscore>  (55) 
0.5011410713

>  <CNNaffinity>  (55) 
4.1972436905

>  <CNN_VS>  (55) 
2.1034111977

>  <CNNaffinity_variance>  (55) 
0.5672959685

$$$$
56
     RDKit          3D

 43 45  0  0  0  0  0  0  0  0999 V2000
   23.5409   71.9470   -3.1812 P   0  0  2  0  0  0  0  0  0  0  0  0
   24.2437   72.8871   -4.2952 O   0  0  0  0  0  0  0  0  0  0  0  0
   24.2143   70.6259   -2.9509 O   0  0  0  0  0  0  0  0  0  0  0  0
   21.9949   71.8748   -3.6531 O   0  0  0  0  0  0  0  0  0  0  0  0
   21.5746   72.7035   -4.7213 C   0  0  0  0  0  0  0  0  0  0  0  0
   20.7712   70.6707   -5.7214 O   0  0  0  0  0  0  0  0  0  0  0  0
   21.2348   72.0073   -8.3652 O   0  0  0  0  0  0  0  0  0  0  0  0
   18.5409   72.2667   -8.0307 O   0  0  0  0  0  0  0  0  0  0  0  0
   20.7807   72.5715   -7.1348 C   0  0  1  0  0  0  0  0  0  0  0  0
   19.3442   72.1710   -6.8731 C   0  0  2  0  0  0  0  0  0  0  0  0
   21.5175   71.8755   -5.9986 C   0  0  1  0  0  0  0  0  0  0  0  0
   19.4994   70.7406   -6.3856 C   0  0  2  0  0  0  0  0  0  0  0  0
   20.7779   72.4364   -9.1061 H   0  0  0  0  0  0  0  0  0  0  0  0
   18.4726   73.1964   -8.3009 H   0  0  0  0  0  0  0  0  0  0  0  0
   16.9592   69.7650   -7.1418 O   0  0  0  0  0  0  0  0  0  0  0  0
   15.6222   69.3183   -2.7536 O   0  0  0  0  0  0  0  0  0  0  0  0
   18.4684   70.3618   -5.4612 N   0  0  0  0  0  0  0  0  0  0  0  0
   16.2953   69.5444   -4.9555 N   0  0  0  0  0  0  0  0  0  0  0  0
   17.2276   69.8839   -5.9448 C   0  0  0  0  0  0  0  0  0  0  0  0
   18.6916   70.4636   -4.0934 C   0  0  0  0  0  0  0  0  0  0  0  0
   17.7933   70.1361   -3.1625 C   0  0  0  0  0  0  0  0  0  0  0  0
   16.4709   69.6290   -3.5838 C   0  0  0  0  0  0  0  0  0  0  0  0
   15.4232   69.2111   -5.2680 H   0  0  0  0  0  0  0  0  0  0  0  0
   23.4799   72.9072   -1.8823 O   0  0  0  0  0  0  0  0  0  0  0  0
   23.6860   74.5036   -1.7318 P   0  0  2  0  0  0  0  0  0  0  0  0
   22.3272   75.1134   -2.3658 O   0  0  0  0  0  0  0  0  0  0  0  0
   24.9479   75.0232   -2.3576 O   0  0  0  0  0  0  0  0  0  0  0  0
   23.5587   74.7853   -0.1485 O   0  0  0  0  0  0  0  0  0  0  0  0
   21.5557   73.8044    0.6484 O   0  0  0  0  0  0  0  0  0  0  0  0
   23.0400   75.5825    4.0694 O   0  0  0  0  0  0  0  0  0  0  0  0
   23.1471   76.9819    1.5073 O   0  0  0  0  0  0  0  0  0  0  0  0
   23.2434   72.7043    3.7149 O   0  0  0  0  0  0  0  0  0  0  0  0
   23.1158   74.9302    2.8018 C   0  0  2  0  0  0  0  0  0  0  0  0
   22.4161   75.7843    1.7442 C   0  0  2  0  0  0  0  0  0  0  0  0
   22.4269   73.5696    2.9282 C   0  0  1  0  0  0  0  0  0  0  0  0
   22.2749   75.0183    0.4281 C   0  0  1  0  0  0  0  0  0  0  0  0
   22.2096   72.9261    1.5617 C   0  0  1  0  0  0  0  0  0  0  0  0
   23.4715   76.4496    4.0134 H   0  0  0  0  0  0  0  0  0  0  0  0
   23.2407   77.4728    2.3383 H   0  0  0  0  0  0  0  0  0  0  0  0
   23.3894   73.1023    4.5873 H   0  0  0  0  0  0  0  0  0  0  0  0
   20.4311   71.9322    2.7238 O   0  0  0  0  0  0  0  0  0  0  0  0
   21.2248   70.8271    0.8940 O   0  0  0  0  0  0  0  0  0  0  0  0
   21.2593   71.7775    1.6613 C   0  0  0  0  0  0  0  0  0  0  0  0
  1  4  1  0
  1 24  1  0
  1  2  1  6
  1  3  2  0
 25 28  1  0
 25 24  1  0
 25 26  1  6
 25 27  2  0
  6 11  1  0
  6 12  1  0
 29 36  1  0
 29 37  1  0
  9  7  1  6
  7 13  1  0
 10  8  1  6
  8 14  1  0
  4  5  1  0
 36 28  1  1
 33 30  1  1
 30 38  1  0
 34 31  1  6
 31 39  1  0
 35 32  1  1
 32 40  1  0
 41 43  1  0
 15 19  2  0
 42 43  2  0
 16 22  2  0
 12 17  1  1
 17 19  1  0
 17 20  1  0
 18 19  1  0
 18 22  1  0
 18 23  1  0
  9 10  1  0
  9 11  1  0
 10 12  1  0
 11  5  1  1
 33 34  1  0
 33 35  1  0
 34 36  1  0
 35 37  1  0
 37 43  1  1
 20 21  2  0
 21 22  1  0
M  CHG  3   2  -1  26  -1  41  -1
M  END
>  <COMPND>  (56) 
    udp_gluA.pdb 

>  <AUTHOR>  (56) 
    GENERATED BY OPEN BABEL 3.1.1

>  <MASTER>  (56) 
        0    0    0    0    0    0    0    0   56    0   56    0

>  <minimizedAffinity>  (56) 
-6.76452

>  <CNNscore>  (56) 
0.4999484420

>  <CNNaffinity>  (56) 
4.1466484070

>  <CNN_VS>  (56) 
2.0731103420

>  <CNNaffinity_variance>  (56) 
0.1185162887

$$$$
57
     RDKit          3D

 43 45  0  0  0  0  0  0  0  0999 V2000
   22.8153   72.4003   -3.5795 P   0  0  2  0  0  0  0  0  0  0  0  0
   22.1936   70.9062   -3.5806 O   0  0  0  0  0  0  0  0  0  0  0  0
   24.2340   72.4966   -4.0587 O   0  0  0  0  0  0  0  0  0  0  0  0
   22.5438   72.9330   -2.0760 O   0  0  0  0  0  0  0  0  0  0  0  0
   23.4540   72.5682   -1.0548 C   0  0  0  0  0  0  0  0  0  0  0  0
   22.7037   70.3446   -0.5350 O   0  0  0  0  0  0  0  0  0  0  0  0
   22.4771   71.2848    2.3033 O   0  0  0  0  0  0  0  0  0  0  0  0
   24.8310   69.9082    2.3178 O   0  0  0  0  0  0  0  0  0  0  0  0
   23.4430   71.6320    1.3107 C   0  0  1  0  0  0  0  0  0  0  0  0
   24.4124   70.4882    1.1000 C   0  0  2  0  0  0  0  0  0  0  0  0
   22.7317   71.6986   -0.0338 C   0  0  1  0  0  0  0  0  0  0  0  0
   23.5932   69.5333    0.2486 C   0  0  2  0  0  0  0  0  0  0  0  0
   22.9082   71.2362    3.1713 H   0  0  0  0  0  0  0  0  0  0  0  0
   25.3486   70.5553    2.8231 H   0  0  0  0  0  0  0  0  0  0  0  0
   24.2471   66.8187    0.6727 O   0  0  0  0  0  0  0  0  0  0  0  0
   26.7317   66.6223   -3.2044 O   0  0  0  0  0  0  0  0  0  0  0  0
   24.4092   68.7486   -0.6341 N   0  0  0  0  0  0  0  0  0  0  0  0
   25.4847   66.7237   -1.2582 N   0  0  0  0  0  0  0  0  0  0  0  0
   24.6776   67.3933   -0.3290 C   0  0  0  0  0  0  0  0  0  0  0  0
   24.9324   69.3209   -1.7872 C   0  0  0  0  0  0  0  0  0  0  0  0
   25.7000   68.6700   -2.6635 C   0  0  0  0  0  0  0  0  0  0  0  0
   26.0288   67.2504   -2.4185 C   0  0  0  0  0  0  0  0  0  0  0  0
   25.6871   65.7796   -1.0661 H   0  0  0  0  0  0  0  0  0  0  0  0
   21.7490   73.2376   -4.4598 O   0  0  0  0  0  0  0  0  0  0  0  0
   21.3839   73.1678   -6.0331 P   0  0  2  0  0  0  0  0  0  0  0  0
   22.5332   72.2008   -6.6369 O   0  0  0  0  0  0  0  0  0  0  0  0
   21.2884   74.5079   -6.7032 O   0  0  0  0  0  0  0  0  0  0  0  0
   20.0338   72.2874   -6.1013 O   0  0  0  0  0  0  0  0  0  0  0  0
   19.4452   70.1099   -5.3793 O   0  0  0  0  0  0  0  0  0  0  0  0
   17.4755   70.3553   -9.0026 O   0  0  0  0  0  0  0  0  0  0  0  0
   20.1979   71.3780   -8.7247 O   0  0  0  0  0  0  0  0  0  0  0  0
   15.9912   70.6016   -6.5152 O   0  0  0  0  0  0  0  0  0  0  0  0
   18.0254   70.8512   -7.7820 C   0  0  2  0  0  0  0  0  0  0  0  0
   19.5302   70.5824   -7.7522 C   0  0  2  0  0  0  0  0  0  0  0  0
   17.3328   70.1296   -6.6237 C   0  0  1  0  0  0  0  0  0  0  0  0
   20.1134   70.8891   -6.3721 C   0  0  1  0  0  0  0  0  0  0  0  0
   18.0484   70.3853   -5.3005 C   0  0  1  0  0  0  0  0  0  0  0  0
   17.9007   70.7996   -9.7530 H   0  0  0  0  0  0  0  0  0  0  0  0
   19.8326   71.1887   -9.6028 H   0  0  0  0  0  0  0  0  0  0  0  0
   15.5247   70.4450   -7.3510 H   0  0  0  0  0  0  0  0  0  0  0  0
   18.6072   69.0489   -3.4557 O   0  0  0  0  0  0  0  0  0  0  0  0
   16.4249   69.0498   -4.1164 O   0  0  0  0  0  0  0  0  0  0  0  0
   17.5774   69.4330   -4.2500 C   0  0  0  0  0  0  0  0  0  0  0  0
  1  4  1  0
  1 24  1  0
  1  2  1  1
  1  3  2  0
 25 28  1  0
 25 24  1  0
 25 26  1  6
 25 27  2  0
  6 11  1  0
  6 12  1  0
 29 36  1  0
 29 37  1  0
  9  7  1  1
  7 13  1  0
 10  8  1  1
  8 14  1  0
  4  5  1  0
 36 28  1  1
 33 30  1  6
 30 38  1  0
 34 31  1  6
 31 39  1  0
 35 32  1  1
 32 40  1  0
 41 43  1  0
 15 19  2  0
 42 43  2  0
 16 22  2  0
 12 17  1  6
 17 19  1  0
 17 20  1  0
 18 19  1  0
 18 22  1  0
 18 23  1  0
  9 10  1  0
  9 11  1  0
 10 12  1  0
 11  5  1  6
 33 34  1  0
 33 35  1  0
 34 36  1  0
 35 37  1  0
 37 43  1  1
 20 21  2  0
 21 22  1  0
M  CHG  3   2  -1  26  -1  41  -1
M  END
>  <COMPND>  (57) 
    udp_gluA.pdb 

>  <AUTHOR>  (57) 
    GENERATED BY OPEN BABEL 3.1.1

>  <MASTER>  (57) 
        0    0    0    0    0    0    0    0   56    0   56    0

>  <minimizedAffinity>  (57) 
-8.97132

>  <CNNscore>  (57) 
0.4559995532

>  <CNNaffinity>  (57) 
4.4358057976

>  <CNN_VS>  (57) 
2.0227253437

>  <CNNaffinity_variance>  (57) 
0.3008960187

$$$$
58
     RDKit          3D

 43 45  0  0  0  0  0  0  0  0999 V2000
   22.1907   73.3235   -4.7822 P   0  0  2  0  0  0  0  0  0  0  0  0
   21.6072   74.8298   -4.6841 O   0  0  0  0  0  0  0  0  0  0  0  0
   23.4879   73.1937   -5.5253 O   0  0  0  0  0  0  0  0  0  0  0  0
   20.9532   72.4653   -5.3737 O   0  0  0  0  0  0  0  0  0  0  0  0
   20.8736   72.2703   -6.7737 C   0  0  0  0  0  0  0  0  0  0  0  0
   19.6199   70.3699   -6.0030 O   0  0  0  0  0  0  0  0  0  0  0  0
   19.9167   69.2816   -8.7813 O   0  0  0  0  0  0  0  0  0  0  0  0
   17.3743   70.2675   -8.7960 O   0  0  0  0  0  0  0  0  0  0  0  0
   19.7373   70.6322   -8.3542 C   0  0  1  0  0  0  0  0  0  0  0  0
   18.3063   70.8569   -7.9137 C   0  0  2  0  0  0  0  0  0  0  0  0
   20.5045   70.8189   -7.0523 C   0  0  1  0  0  0  0  0  0  0  0  0
   18.2955   70.2145   -6.5371 C   0  0  2  0  0  0  0  0  0  0  0  0
   19.4355   69.1382   -9.6117 H   0  0  0  0  0  0  0  0  0  0  0  0
   17.4197   70.7112   -9.6579 H   0  0  0  0  0  0  0  0  0  0  0  0
   16.6967   68.8227   -4.6708 O   0  0  0  0  0  0  0  0  0  0  0  0
   14.7305   72.7148   -3.1775 O   0  0  0  0  0  0  0  0  0  0  0  0
   17.3573   70.8393   -5.6481 N   0  0  0  0  0  0  0  0  0  0  0  0
   15.7182   70.7624   -3.9295 N   0  0  0  0  0  0  0  0  0  0  0  0
   16.6030   70.0491   -4.7489 C   0  0  0  0  0  0  0  0  0  0  0  0
   17.1929   72.2189   -5.6713 C   0  0  0  0  0  0  0  0  0  0  0  0
   16.3456   72.8847   -4.8842 C   0  0  0  0  0  0  0  0  0  0  0  0
   15.5192   72.1335   -3.9166 C   0  0  0  0  0  0  0  0  0  0  0  0
   15.1806   70.2335   -3.2966 H   0  0  0  0  0  0  0  0  0  0  0  0
   22.2508   72.8562   -3.2359 O   0  0  0  0  0  0  0  0  0  0  0  0
   22.6758   71.4462   -2.5690 P   0  0  2  0  0  0  0  0  0  0  0  0
   24.1641   71.1942   -3.1537 O   0  0  0  0  0  0  0  0  0  0  0  0
   21.7110   70.3259   -2.8298 O   0  0  0  0  0  0  0  0  0  0  0  0
   22.9035   71.7839   -1.0080 O   0  0  0  0  0  0  0  0  0  0  0  0
   24.2811   70.8316    0.6667 O   0  0  0  0  0  0  0  0  0  0  0  0
   20.8734   71.7610    2.8095 O   0  0  0  0  0  0  0  0  0  0  0  0
   20.6712   70.5877    0.1417 O   0  0  0  0  0  0  0  0  0  0  0  0
   23.2529   73.4114    3.0645 O   0  0  0  0  0  0  0  0  0  0  0  0
   21.8536   71.9251    1.7847 C   0  0  2  0  0  0  0  0  0  0  0  0
   21.8754   70.6828    0.8937 C   0  0  2  0  0  0  0  0  0  0  0  0
   23.2137   72.1209    2.4582 C   0  0  1  0  0  0  0  0  0  0  0  0
   23.0625   70.7213   -0.0697 C   0  0  1  0  0  0  0  0  0  0  0  0
   24.3544   72.0210    1.4496 C   0  0  1  0  0  0  0  0  0  0  0  0
   20.0005   71.6348    2.4051 H   0  0  0  0  0  0  0  0  0  0  0  0
   19.9137   70.5631    0.7468 H   0  0  0  0  0  0  0  0  0  0  0  0
   22.5317   73.4881    3.7086 H   0  0  0  0  0  0  0  0  0  0  0  0
   26.1008   70.5986    2.1039 O   0  0  0  0  0  0  0  0  0  0  0  0
   26.2778   72.7971    2.6824 O   0  0  0  0  0  0  0  0  0  0  0  0
   25.6686   71.8832    2.1469 C   0  0  0  0  0  0  0  0  0  0  0  0
  1  4  1  0
  1 24  1  0
  1  2  1  1
  1  3  2  0
 25 28  1  0
 25 24  1  0
 25 26  1  6
 25 27  2  0
  6 11  1  0
  6 12  1  0
 29 36  1  0
 29 37  1  0
  9  7  1  1
  7 13  1  0
 10  8  1  6
  8 14  1  0
  4  5  1  0
 36 28  1  6
 33 30  1  1
 30 38  1  0
 34 31  1  6
 31 39  1  0
 35 32  1  6
 32 40  1  0
 41 43  1  0
 15 19  2  0
 42 43  2  0
 16 22  2  0
 12 17  1  1
 17 19  1  0
 17 20  1  0
 18 19  1  0
 18 22  1  0
 18 23  1  0
  9 10  1  0
  9 11  1  0
 10 12  1  0
 11  5  1  1
 33 34  1  0
 33 35  1  0
 34 36  1  0
 35 37  1  0
 37 43  1  1
 20 21  2  0
 21 22  1  0
M  CHG  3   2  -1  26  -1  41  -1
M  END
>  <COMPND>  (58) 
    udp_gluA.pdb 

>  <AUTHOR>  (58) 
    GENERATED BY OPEN BABEL 3.1.1

>  <MASTER>  (58) 
        0    0    0    0    0    0    0    0   56    0   56    0

>  <minimizedAffinity>  (58) 
-7.59786

>  <CNNscore>  (58) 
0.4332208633

>  <CNNaffinity>  (58) 
4.1344356537

>  <CNN_VS>  (58) 
1.7911237478

>  <CNNaffinity_variance>  (58) 
0.1687060148

$$$$
59
     RDKit          3D

 43 45  0  0  0  0  0  0  0  0999 V2000
   20.5213   73.2484   -2.7598 P   0  0  2  0  0  0  0  0  0  0  0  0
   21.4369   74.5697   -2.5732 O   0  0  0  0  0  0  0  0  0  0  0  0
   19.0654   73.4374   -2.4491 O   0  0  0  0  0  0  0  0  0  0  0  0
   21.2852   72.1200   -1.8874 O   0  0  0  0  0  0  0  0  0  0  0  0
   21.7648   70.9638   -2.5490 C   0  0  0  0  0  0  0  0  0  0  0  0
   23.6852   71.8458   -1.4038 O   0  0  0  0  0  0  0  0  0  0  0  0
   25.1764   69.4699   -2.4636 O   0  0  0  0  0  0  0  0  0  0  0  0
   24.6522   68.7440    0.1121 O   0  0  0  0  0  0  0  0  0  0  0  0
   23.8220   69.5631   -2.0214 C   0  0  1  0  0  0  0  0  0  0  0  0
   23.7687   69.6527   -0.5110 C   0  0  2  0  0  0  0  0  0  0  0  0
   23.2837   70.9243   -2.4405 C   0  0  1  0  0  0  0  0  0  0  0  0
   24.1530   71.1021   -0.2673 C   0  0  2  0  0  0  0  0  0  0  0  0
   25.5420   68.6084   -2.2072 H   0  0  0  0  0  0  0  0  0  0  0  0
   24.3647   67.8355   -0.0725 H   0  0  0  0  0  0  0  0  0  0  0  0
   21.7876   70.1029    0.9086 O   0  0  0  0  0  0  0  0  0  0  0  0
   21.9303   73.2311    4.2906 O   0  0  0  0  0  0  0  0  0  0  0  0
   23.5500   71.6366    0.9208 N   0  0  0  0  0  0  0  0  0  0  0  0
   21.8603   71.6625    2.5913 N   0  0  0  0  0  0  0  0  0  0  0  0
   22.3613   71.0614    1.4291 C   0  0  0  0  0  0  0  0  0  0  0  0
   24.1355   72.7166    1.5702 C   0  0  0  0  0  0  0  0  0  0  0  0
   23.6463   73.2786    2.6773 C   0  0  0  0  0  0  0  0  0  0  0  0
   22.4067   72.7381    3.2727 C   0  0  0  0  0  0  0  0  0  0  0  0
   21.0324   71.2807    2.9628 H   0  0  0  0  0  0  0  0  0  0  0  0
   20.8326   72.8033   -4.2822 O   0  0  0  0  0  0  0  0  0  0  0  0
   20.3274   73.4142   -5.6912 P   0  0  2  0  0  0  0  0  0  0  0  0
   21.5886   73.1665   -6.6752 O   0  0  0  0  0  0  0  0  0  0  0  0
   19.8736   74.8433   -5.6153 O   0  0  0  0  0  0  0  0  0  0  0  0
   19.2007   72.3804   -6.2051 O   0  0  0  0  0  0  0  0  0  0  0  0
   18.7168   70.1477   -5.5806 O   0  0  0  0  0  0  0  0  0  0  0  0
   17.8255   70.1042   -9.6144 O   0  0  0  0  0  0  0  0  0  0  0  0
   20.2073   71.4862   -8.6389 O   0  0  0  0  0  0  0  0  0  0  0  0
   15.6855   70.1627   -7.6477 O   0  0  0  0  0  0  0  0  0  0  0  0
   17.9437   70.6768   -8.3120 C   0  0  2  0  0  0  0  0  0  0  0  0
   19.4015   70.6135   -7.8555 C   0  0  2  0  0  0  0  0  0  0  0  0
   17.0527   69.8752   -7.3604 C   0  0  1  0  0  0  0  0  0  0  0  0
   19.5310   71.0041   -6.3826 C   0  0  1  0  0  0  0  0  0  0  0  0
   17.3306   70.2327   -5.9032 C   0  0  1  0  0  0  0  0  0  0  0  0
   18.3833   70.5974  -10.2364 H   0  0  0  0  0  0  0  0  0  0  0  0
   20.1297   71.2443   -9.5747 H   0  0  0  0  0  0  0  0  0  0  0  0
   15.4956   69.9397   -8.5724 H   0  0  0  0  0  0  0  0  0  0  0  0
   16.2415   68.1672   -5.6811 O   0  0  0  0  0  0  0  0  0  0  0  0
   16.6336   69.3471   -3.7698 O   0  0  0  0  0  0  0  0  0  0  0  0
   16.7101   69.2317   -4.9838 C   0  0  0  0  0  0  0  0  0  0  0  0
  1  4  1  0
  1 24  1  0
  1  2  1  1
  1  3  2  0
 25 28  1  0
 25 24  1  0
 25 26  1  6
 25 27  2  0
  6 11  1  0
  6 12  1  0
 29 36  1  0
 29 37  1  0
  9  7  1  1
  7 13  1  0
 10  8  1  1
  8 14  1  0
  4  5  1  0
 36 28  1  6
 33 30  1  6
 30 38  1  0
 34 31  1  6
 31 39  1  0
 35 32  1  6
 32 40  1  0
 41 43  1  0
 15 19  2  0
 42 43  2  0
 16 22  2  0
 12 17  1  1
 17 19  1  0
 17 20  1  0
 18 19  1  0
 18 22  1  0
 18 23  1  0
  9 10  1  0
  9 11  1  0
 10 12  1  0
 11  5  1  1
 33 34  1  0
 33 35  1  0
 34 36  1  0
 35 37  1  0
 37 43  1  1
 20 21  2  0
 21 22  1  0
M  CHG  3   2  -1  26  -1  41  -1
M  END
>  <COMPND>  (59) 
    udp_gluA.pdb 

>  <AUTHOR>  (59) 
    GENERATED BY OPEN BABEL 3.1.1

>  <MASTER>  (59) 
        0    0    0    0    0    0    0    0   56    0   56    0

>  <minimizedAffinity>  (59) 
-7.91853

>  <CNNscore>  (59) 
0.4216268659

>  <CNNaffinity>  (59) 
4.0681133270

>  <CNN_VS>  (59) 
1.7152258158

>  <CNNaffinity_variance>  (59) 
0.2047343254

$$$$
60
     RDKit          3D

 43 45  0  0  0  0  0  0  0  0999 V2000
   20.3937   72.4622   -3.6511 P   0  0  2  0  0  0  0  0  0  0  0  0
   20.1793   74.0462   -3.3984 O   0  0  0  0  0  0  0  0  0  0  0  0
   19.4265   71.8375   -4.6135 O   0  0  0  0  0  0  0  0  0  0  0  0
   20.4103   71.8299   -2.1618 O   0  0  0  0  0  0  0  0  0  0  0  0
   20.4312   72.7107   -1.0536 C   0  0  0  0  0  0  0  0  0  0  0  0
   21.0006   70.6264   -0.0006 O   0  0  0  0  0  0  0  0  0  0  0  0
   20.5226   72.0270    2.6073 O   0  0  0  0  0  0  0  0  0  0  0  0
   23.2424   72.0458    2.4107 O   0  0  0  0  0  0  0  0  0  0  0  0
   21.0866   72.5359    1.3984 C   0  0  1  0  0  0  0  0  0  0  0  0
   22.4937   72.0083    1.2138 C   0  0  2  0  0  0  0  0  0  0  0  0
   20.3501   71.8948    0.2302 C   0  0  1  0  0  0  0  0  0  0  0  0
   22.2381   70.5918    0.7279 C   0  0  2  0  0  0  0  0  0  0  0  0
   20.9772   72.4224    3.3681 H   0  0  0  0  0  0  0  0  0  0  0  0
   23.3784   72.9688    2.6782 H   0  0  0  0  0  0  0  0  0  0  0  0
   24.6755   69.4794    1.6214 O   0  0  0  0  0  0  0  0  0  0  0  0
   26.1530   68.7923   -2.6901 O   0  0  0  0  0  0  0  0  0  0  0  0
   23.2774   70.1142   -0.1396 N   0  0  0  0  0  0  0  0  0  0  0  0
   25.4095   69.1392   -0.5268 N   0  0  0  0  0  0  0  0  0  0  0  0
   24.4634   69.5734    0.4110 C   0  0  0  0  0  0  0  0  0  0  0  0
   23.1161   70.1822   -1.5181 C   0  0  0  0  0  0  0  0  0  0  0  0
   24.0268   69.7642   -2.3994 C   0  0  0  0  0  0  0  0  0  0  0  0
   25.2946   69.1868   -1.9067 C   0  0  0  0  0  0  0  0  0  0  0  0
   26.2443   68.7608   -0.1674 H   0  0  0  0  0  0  0  0  0  0  0  0
   21.9437   72.3730   -4.1011 O   0  0  0  0  0  0  0  0  0  0  0  0
   23.1220   73.4796   -4.0747 P   0  0  2  0  0  0  0  0  0  0  0  0
   24.4702   72.5860   -4.1368 O   0  0  0  0  0  0  0  0  0  0  0  0
   23.0570   74.4205   -2.9066 O   0  0  0  0  0  0  0  0  0  0  0  0
   23.0421   74.1970   -5.5174 O   0  0  0  0  0  0  0  0  0  0  0  0
   23.5691   76.4974   -5.3183 O   0  0  0  0  0  0  0  0  0  0  0  0
   22.5865   76.2033   -9.3203 O   0  0  0  0  0  0  0  0  0  0  0  0
   20.9980   74.8148   -7.2996 O   0  0  0  0  0  0  0  0  0  0  0  0
   25.3707   76.4230   -8.5138 O   0  0  0  0  0  0  0  0  0  0  0  0
   23.1006   75.7502   -8.0680 C   0  0  2  0  0  0  0  0  0  0  0  0
   21.9929   75.7915   -7.0150 C   0  0  2  0  0  0  0  0  0  0  0  0
   24.2514   76.6756   -7.6665 C   0  0  1  0  0  0  0  0  0  0  0  0
   22.5573   75.5348   -5.6170 C   0  0  1  0  0  0  0  0  0  0  0  0
   24.6735   76.4437   -6.2186 C   0  0  1  0  0  0  0  0  0  0  0  0
   21.8537   75.6301   -9.5957 H   0  0  0  0  0  0  0  0  0  0  0  0
   20.6358   74.9715   -8.1854 H   0  0  0  0  0  0  0  0  0  0  0  0
   25.1154   76.5669   -9.4384 H   0  0  0  0  0  0  0  0  0  0  0  0
   25.0394   78.1181   -4.6173 O   0  0  0  0  0  0  0  0  0  0  0  0
   26.5919   77.9060   -6.2737 O   0  0  0  0  0  0  0  0  0  0  0  0
   25.5521   77.5526   -5.7381 C   0  0  0  0  0  0  0  0  0  0  0  0
  1  4  1  0
  1 24  1  0
  1  2  1  1
  1  3  2  0
 25 28  1  0
 25 24  1  0
 25 26  1  6
 25 27  2  0
  6 11  1  0
  6 12  1  0
 29 36  1  0
 29 37  1  0
  9  7  1  1
  7 13  1  0
 10  8  1  1
  8 14  1  0
  4  5  1  0
 36 28  1  6
 33 30  1  6
 30 38  1  0
 34 31  1  6
 31 39  1  0
 35 32  1  6
 32 40  1  0
 41 43  1  0
 15 19  2  0
 42 43  2  0
 16 22  2  0
 12 17  1  6
 17 19  1  0
 17 20  1  0
 18 19  1  0
 18 22  1  0
 18 23  1  0
  9 10  1  0
  9 11  1  0
 10 12  1  0
 11  5  1  6
 33 34  1  0
 33 35  1  0
 34 36  1  0
 35 37  1  0
 37 43  1  1
 20 21  2  0
 21 22  1  0
M  CHG  3   2  -1  26  -1  41  -1
M  END
>  <COMPND>  (60) 
    udp_gluA.pdb 

>  <AUTHOR>  (60) 
    GENERATED BY OPEN BABEL 3.1.1

>  <MASTER>  (60) 
        0    0    0    0    0    0    0    0   56    0   56    0

>  <minimizedAffinity>  (60) 
-6.65791

>  <CNNscore>  (60) 
0.3939174414

>  <CNNaffinity>  (60) 
3.9154567719

>  <CNN_VS>  (60) 
1.5423667431

>  <CNNaffinity_variance>  (60) 
0.1732362360

$$$$
61
     RDKit          3D

 43 45  0  0  0  0  0  0  0  0999 V2000
   22.6930   72.0756   -2.9872 P   0  0  2  0  0  0  0  0  0  0  0  0
   22.3349   73.6385   -2.7686 O   0  0  0  0  0  0  0  0  0  0  0  0
   24.1021   71.8038   -3.4258 O   0  0  0  0  0  0  0  0  0  0  0  0
   21.5327   71.5467   -3.9831 O   0  0  0  0  0  0  0  0  0  0  0  0
   20.7487   70.4390   -3.5799 C   0  0  0  0  0  0  0  0  0  0  0  0
   18.8627   71.5719   -4.5479 O   0  0  0  0  0  0  0  0  0  0  0  0
   17.2171   70.2693   -2.4063 O   0  0  0  0  0  0  0  0  0  0  0  0
   16.7058   68.7082   -4.5829 O   0  0  0  0  0  0  0  0  0  0  0  0
   18.3417   69.7552   -3.1201 C   0  0  1  0  0  0  0  0  0  0  0  0
   17.9423   69.3887   -4.5338 C   0  0  2  0  0  0  0  0  0  0  0  0
   19.3157   70.9024   -3.3514 C   0  0  1  0  0  0  0  0  0  0  0  0
   17.8887   70.7486   -5.2088 C   0  0  2  0  0  0  0  0  0  0  0  0
   16.5806   69.5543   -2.2467 H   0  0  0  0  0  0  0  0  0  0  0  0
   16.7920   67.8487   -4.1405 H   0  0  0  0  0  0  0  0  0  0  0  0
   16.0522   70.0259   -7.2292 O   0  0  0  0  0  0  0  0  0  0  0  0
   19.2215   70.5164  -10.5396 O   0  0  0  0  0  0  0  0  0  0  0  0
   18.2073   70.6794   -6.6069 N   0  0  0  0  0  0  0  0  0  0  0  0
   17.6327   70.2699   -8.8759 N   0  0  0  0  0  0  0  0  0  0  0  0
   17.2116   70.3054   -7.5401 C   0  0  0  0  0  0  0  0  0  0  0  0
   19.4923   70.9813   -7.0412 C   0  0  0  0  0  0  0  0  0  0  0  0
   19.8787   70.9431   -8.3179 C   0  0  0  0  0  0  0  0  0  0  0  0
   18.8993   70.5610   -9.3562 C   0  0  0  0  0  0  0  0  0  0  0  0
   16.9576   70.0102   -9.5438 H   0  0  0  0  0  0  0  0  0  0  0  0
   22.2881   71.4091   -1.5713 O   0  0  0  0  0  0  0  0  0  0  0  0
   23.1681   70.5793   -0.4985 P   0  0  2  0  0  0  0  0  0  0  0  0
   22.0473   69.8717    0.4308 O   0  0  0  0  0  0  0  0  0  0  0  0
   24.1627   71.4117    0.2576 O   0  0  0  0  0  0  0  0  0  0  0  0
   23.8152   69.3700   -1.3479 O   0  0  0  0  0  0  0  0  0  0  0  0
   24.7466   67.6552   -0.0058 O   0  0  0  0  0  0  0  0  0  0  0  0
   26.0160   66.5524   -3.7795 O   0  0  0  0  0  0  0  0  0  0  0  0
   26.0865   69.3536   -2.9532 O   0  0  0  0  0  0  0  0  0  0  0  0
   23.8317   65.1238   -2.4993 O   0  0  0  0  0  0  0  0  0  0  0  0
   25.1305   67.1278   -2.8188 C   0  0  2  0  0  0  0  0  0  0  0  0
   25.8445   68.2584   -2.0775 C   0  0  2  0  0  0  0  0  0  0  0  0
   24.7160   66.0276   -1.8392 C   0  0  1  0  0  0  0  0  0  0  0  0
   25.0127   68.7448   -0.8899 C   0  0  1  0  0  0  0  0  0  0  0  0
   24.0020   66.6064   -0.6211 C   0  0  1  0  0  0  0  0  0  0  0  0
   26.2929   67.2332   -4.4128 H   0  0  0  0  0  0  0  0  0  0  0  0
   26.6136   69.0521   -3.7093 H   0  0  0  0  0  0  0  0  0  0  0  0
   24.2740   64.7485   -3.2766 H   0  0  0  0  0  0  0  0  0  0  0  0
   24.5847   65.9864    1.5647 O   0  0  0  0  0  0  0  0  0  0  0  0
   23.2773   64.5371    0.3860 O   0  0  0  0  0  0  0  0  0  0  0  0
   23.8971   65.5870    0.4662 C   0  0  0  0  0  0  0  0  0  0  0  0
  1  4  1  0
  1 24  1  0
  1  2  1  1
  1  3  2  0
 25 28  1  0
 25 24  1  0
 25 26  1  1
 25 27  2  0
  6 11  1  0
  6 12  1  0
 29 36  1  0
 29 37  1  0
  9  7  1  1
  7 13  1  0
 10  8  1  1
  8 14  1  0
  4  5  1  0
 36 28  1  6
 33 30  1  6
 30 38  1  0
 34 31  1  6
 31 39  1  0
 35 32  1  6
 32 40  1  0
 41 43  1  0
 15 19  2  0
 42 43  2  0
 16 22  2  0
 12 17  1  6
 17 19  1  0
 17 20  1  0
 18 19  1  0
 18 22  1  0
 18 23  1  0
  9 10  1  0
  9 11  1  0
 10 12  1  0
 11  5  1  6
 33 34  1  0
 33 35  1  0
 34 36  1  0
 35 37  1  0
 37 43  1  1
 20 21  2  0
 21 22  1  0
M  CHG  3   2  -1  26  -1  41  -1
M  END
>  <COMPND>  (61) 
    udp_gluA.pdb 

>  <AUTHOR>  (61) 
    GENERATED BY OPEN BABEL 3.1.1

>  <MASTER>  (61) 
        0    0    0    0    0    0    0    0   56    0   56    0

>  <minimizedAffinity>  (61) 
-9.54559

>  <CNNscore>  (61) 
0.8110044003

>  <CNNaffinity>  (61) 
4.9888582230

>  <CNN_VS>  (61) 
4.0459861755

>  <CNNaffinity_variance>  (61) 
0.0605035052

$$$$
62
     RDKit          3D

 43 45  0  0  0  0  0  0  0  0999 V2000
   21.9445   71.8433   -3.5084 P   0  0  2  0  0  0  0  0  0  0  0  0
   21.9326   72.9715   -2.3482 O   0  0  0  0  0  0  0  0  0  0  0  0
   22.8615   72.1296   -4.6611 O   0  0  0  0  0  0  0  0  0  0  0  0
   20.3818   71.6554   -3.8836 O   0  0  0  0  0  0  0  0  0  0  0  0
   19.6744   70.5714   -3.3101 C   0  0  0  0  0  0  0  0  0  0  0  0
   17.8810   71.6009   -4.5353 O   0  0  0  0  0  0  0  0  0  0  0  0
   16.0274   70.0184   -2.7885 O   0  0  0  0  0  0  0  0  0  0  0  0
   16.0491   68.5711   -5.0996 O   0  0  0  0  0  0  0  0  0  0  0  0
   17.3019   69.6530   -3.3185 C   0  0  1  0  0  0  0  0  0  0  0  0
   17.1874   69.3507   -4.7976 C   0  0  2  0  0  0  0  0  0  0  0  0
   18.1855   70.8929   -3.3141 C   0  0  1  0  0  0  0  0  0  0  0  0
   17.1186   70.7437   -5.3997 C   0  0  2  0  0  0  0  0  0  0  0  0
   15.4453   69.2421   -2.7813 H   0  0  0  0  0  0  0  0  0  0  0  0
   16.1412   67.6940   -4.6943 H   0  0  0  0  0  0  0  0  0  0  0  0
   15.7477   71.7114   -7.6715 O   0  0  0  0  0  0  0  0  0  0  0  0
   19.3582   70.9035  -10.4203 O   0  0  0  0  0  0  0  0  0  0  0  0
   17.6766   70.7976   -6.7213 N   0  0  0  0  0  0  0  0  0  0  0  0
   17.5469   71.3071   -9.0386 N   0  0  0  0  0  0  0  0  0  0  0  0
   16.9036   71.3015   -7.7939 C   0  0  0  0  0  0  0  0  0  0  0  0
   18.9753   70.3565   -6.9443 C   0  0  0  0  0  0  0  0  0  0  0  0
   19.5750   70.3681   -8.1364 C   0  0  0  0  0  0  0  0  0  0  0  0
   18.8361   70.8783   -9.3099 C   0  0  0  0  0  0  0  0  0  0  0  0
   17.0279   71.6516   -9.8010 H   0  0  0  0  0  0  0  0  0  0  0  0
   22.2881   70.4896   -2.6946 O   0  0  0  0  0  0  0  0  0  0  0  0
   23.6369   70.0200   -1.9371 P   0  0  2  0  0  0  0  0  0  0  0  0
   24.8140   70.6392   -2.8599 O   0  0  0  0  0  0  0  0  0  0  0  0
   23.7368   68.5379   -1.7195 O   0  0  0  0  0  0  0  0  0  0  0  0
   23.6744   70.8991   -0.5851 O   0  0  0  0  0  0  0  0  0  0  0  0
   24.9087   70.5074    1.3979 O   0  0  0  0  0  0  0  0  0  0  0  0
   21.5780   72.4700    2.8548 O   0  0  0  0  0  0  0  0  0  0  0  0
   21.3045   70.4213    0.7903 O   0  0  0  0  0  0  0  0  0  0  0  0
   24.1148   73.8716    2.6285 O   0  0  0  0  0  0  0  0  0  0  0  0
   22.5903   72.1544    1.8990 C   0  0  2  0  0  0  0  0  0  0  0  0
   22.4969   70.6751    1.5242 C   0  0  2  0  0  0  0  0  0  0  0  0
   23.9499   72.4581    2.5324 C   0  0  1  0  0  0  0  0  0  0  0  0
   23.7001   70.2467    0.6831 C   0  0  1  0  0  0  0  0  0  0  0  0
   25.0932   71.8893    1.6969 C   0  0  1  0  0  0  0  0  0  0  0  0
   20.7049   72.2849    2.4744 H   0  0  0  0  0  0  0  0  0  0  0  0
   20.5370   70.6910    1.3179 H   0  0  0  0  0  0  0  0  0  0  0  0
   23.3934   74.2460    3.1577 H   0  0  0  0  0  0  0  0  0  0  0  0
   27.0967   70.7822    2.2088 O   0  0  0  0  0  0  0  0  0  0  0  0
   26.7225   72.7833    3.2356 O   0  0  0  0  0  0  0  0  0  0  0  0
   26.3710   71.8973    2.4712 C   0  0  0  0  0  0  0  0  0  0  0  0
  1  4  1  0
  1 24  1  0
  1  2  1  1
  1  3  2  0
 25 28  1  0
 25 24  1  0
 25 26  1  6
 25 27  2  0
  6 11  1  0
  6 12  1  0
 29 36  1  0
 29 37  1  0
  9  7  1  6
  7 13  1  0
 10  8  1  1
  8 14  1  0
  4  5  1  0
 36 28  1  6
 33 30  1  1
 30 38  1  0
 34 31  1  6
 31 39  1  0
 35 32  1  6
 32 40  1  0
 41 43  1  0
 15 19  2  0
 42 43  2  0
 16 22  2  0
 12 17  1  6
 17 19  1  0
 17 20  1  0
 18 19  1  0
 18 22  1  0
 18 23  1  0
  9 10  1  0
  9 11  1  0
 10 12  1  0
 11  5  1  6
 33 34  1  0
 33 35  1  0
 34 36  1  0
 35 37  1  0
 37 43  1  1
 20 21  2  0
 21 22  1  0
M  CHG  3   2  -1  26  -1  41  -1
M  END
>  <COMPND>  (62) 
    udp_gluA.pdb 

>  <AUTHOR>  (62) 
    GENERATED BY OPEN BABEL 3.1.1

>  <MASTER>  (62) 
        0    0    0    0    0    0    0    0   56    0   56    0

>  <minimizedAffinity>  (62) 
-7.53185

>  <CNNscore>  (62) 
0.7903872132

>  <CNNaffinity>  (62) 
4.7011480331

>  <CNN_VS>  (62) 
3.7157273293

>  <CNNaffinity_variance>  (62) 
0.0645221695

$$$$
63
     RDKit          3D

 43 45  0  0  0  0  0  0  0  0999 V2000
   22.8354   72.2833   -3.5205 P   0  0  2  0  0  0  0  0  0  0  0  0
   23.6674   72.6212   -4.8668 O   0  0  0  0  0  0  0  0  0  0  0  0
   23.3086   71.0729   -2.7703 O   0  0  0  0  0  0  0  0  0  0  0  0
   21.2952   72.2460   -4.0146 O   0  0  0  0  0  0  0  0  0  0  0  0
   20.5599   71.0479   -3.8460 C   0  0  0  0  0  0  0  0  0  0  0  0
   18.6115   71.9123   -4.9570 O   0  0  0  0  0  0  0  0  0  0  0  0
   17.0207   70.6376   -2.7579 O   0  0  0  0  0  0  0  0  0  0  0  0
   16.7332   68.8621   -4.8076 O   0  0  0  0  0  0  0  0  0  0  0  0
   18.2125   70.1769   -3.3950 C   0  0  1  0  0  0  0  0  0  0  0  0
   17.8985   69.6596   -4.7829 C   0  0  2  0  0  0  0  0  0  0  0  0
   19.0829   71.3892   -3.6963 C   0  0  1  0  0  0  0  0  0  0  0  0
   17.7420   70.9483   -5.5719 C   0  0  2  0  0  0  0  0  0  0  0  0
   16.4484   69.8805   -2.5556 H   0  0  0  0  0  0  0  0  0  0  0  0
   16.8836   68.0538   -4.2918 H   0  0  0  0  0  0  0  0  0  0  0  0
   16.0049   70.0306   -7.6009 O   0  0  0  0  0  0  0  0  0  0  0  0
   19.2782   70.4024  -10.8245 O   0  0  0  0  0  0  0  0  0  0  0  0
   18.1143   70.7958   -6.9499 N   0  0  0  0  0  0  0  0  0  0  0  0
   17.6371   70.2157   -9.2043 N   0  0  0  0  0  0  0  0  0  0  0  0
   17.1659   70.3269   -7.8895 C   0  0  0  0  0  0  0  0  0  0  0  0
   19.4046   71.1103   -7.3587 C   0  0  0  0  0  0  0  0  0  0  0  0
   19.8391   70.9992   -8.6156 C   0  0  0  0  0  0  0  0  0  0  0  0
   18.9111   70.5157   -9.6589 C   0  0  0  0  0  0  0  0  0  0  0  0
   16.9955   69.8894   -9.8760 H   0  0  0  0  0  0  0  0  0  0  0  0
   22.9164   73.6661   -2.6872 O   0  0  0  0  0  0  0  0  0  0  0  0
   21.9906   74.2417   -1.4933 P   0  0  2  0  0  0  0  0  0  0  0  0
   20.8689   73.0895   -1.3068 O   0  0  0  0  0  0  0  0  0  0  0  0
   21.4331   75.6114   -1.7521 O   0  0  0  0  0  0  0  0  0  0  0  0
   22.9106   74.1318   -0.1728 O   0  0  0  0  0  0  0  0  0  0  0  0
   22.9830   72.1310    1.0924 O   0  0  0  0  0  0  0  0  0  0  0  0
   24.4424   74.8902    3.7988 O   0  0  0  0  0  0  0  0  0  0  0  0
   22.1582   75.5472    2.1003 O   0  0  0  0  0  0  0  0  0  0  0  0
   26.2575   73.0492    2.4696 O   0  0  0  0  0  0  0  0  0  0  0  0
   24.2148   74.3262    2.5073 C   0  0  2  0  0  0  0  0  0  0  0  0
   22.7113   74.2439    2.2425 C   0  0  2  0  0  0  0  0  0  0  0  0
   24.8365   72.9280    2.4856 C   0  0  1  0  0  0  0  0  0  0  0  0
   22.4223   73.4391    0.9746 C   0  0  1  0  0  0  0  0  0  0  0  0
   24.3999   72.1434    1.2517 C   0  0  1  0  0  0  0  0  0  0  0  0
   24.0559   75.7793    3.8363 H   0  0  0  0  0  0  0  0  0  0  0  0
   22.3381   76.0635    2.9012 H   0  0  0  0  0  0  0  0  0  0  0  0
   26.5484   73.5468    3.2497 H   0  0  0  0  0  0  0  0  0  0  0  0
   24.5042   70.2771    2.6687 O   0  0  0  0  0  0  0  0  0  0  0  0
   25.1534   69.9768    0.5036 O   0  0  0  0  0  0  0  0  0  0  0  0
   24.7336   70.6945    1.3990 C   0  0  0  0  0  0  0  0  0  0  0  0
  1  4  1  0
  1 24  1  0
  1  2  1  6
  1  3  2  0
 25 28  1  0
 25 24  1  0
 25 26  1  1
 25 27  2  0
  6 11  1  0
  6 12  1  0
 29 36  1  0
 29 37  1  0
  9  7  1  6
  7 13  1  0
 10  8  1  1
  8 14  1  0
  4  5  1  0
 36 28  1  6
 33 30  1  1
 30 38  1  0
 34 31  1  6
 31 39  1  0
 35 32  1  6
 32 40  1  0
 41 43  1  0
 15 19  2  0
 42 43  2  0
 16 22  2  0
 12 17  1  6
 17 19  1  0
 17 20  1  0
 18 19  1  0
 18 22  1  0
 18 23  1  0
  9 10  1  0
  9 11  1  0
 10 12  1  0
 11  5  1  6
 33 34  1  0
 33 35  1  0
 34 36  1  0
 35 37  1  0
 37 43  1  1
 20 21  2  0
 21 22  1  0
M  CHG  3   2  -1  26  -1  41  -1
M  END
>  <COMPND>  (63) 
    udp_gluA.pdb 

>  <AUTHOR>  (63) 
    GENERATED BY OPEN BABEL 3.1.1

>  <MASTER>  (63) 
        0    0    0    0    0    0    0    0   56    0   56    0

>  <minimizedAffinity>  (63) 
-7.06137

>  <CNNscore>  (63) 
0.7859379649

>  <CNNaffinity>  (63) 
4.5261964798

>  <CNN_VS>  (63) 
3.5573096275

>  <CNNaffinity_variance>  (63) 
0.0147361755

$$$$
64
     RDKit          3D

 43 45  0  0  0  0  0  0  0  0999 V2000
   22.3043   72.8892   -6.2261 P   0  0  2  0  0  0  0  0  0  0  0  0
   22.8000   73.4061   -7.6773 O   0  0  0  0  0  0  0  0  0  0  0  0
   23.3880   72.3411   -5.3447 O   0  0  0  0  0  0  0  0  0  0  0  0
   21.0948   71.8706   -6.5688 O   0  0  0  0  0  0  0  0  0  0  0  0
   20.2499   72.1686   -7.6650 C   0  0  0  0  0  0  0  0  0  0  0  0
   19.2429   70.0605   -7.0998 O   0  0  0  0  0  0  0  0  0  0  0  0
   18.3158   69.9507   -9.9493 O   0  0  0  0  0  0  0  0  0  0  0  0
   16.0738   70.7590   -8.6240 O   0  0  0  0  0  0  0  0  0  0  0  0
   18.4403   71.0783   -9.0824 C   0  0  1  0  0  0  0  0  0  0  0  0
   17.3274   71.0756   -8.0558 C   0  0  2  0  0  0  0  0  0  0  0  0
   19.6743   70.8700   -8.2151 C   0  0  1  0  0  0  0  0  0  0  0  0
   17.8073   70.0210   -7.0733 C   0  0  2  0  0  0  0  0  0  0  0  0
   17.5339   70.0610  -10.5135 H   0  0  0  0  0  0  0  0  0  0  0  0
   15.8124   71.4605   -9.2416 H   0  0  0  0  0  0  0  0  0  0  0  0
   16.1944   68.2556   -5.5704 O   0  0  0  0  0  0  0  0  0  0  0  0
   16.1429   71.0994   -1.9435 O   0  0  0  0  0  0  0  0  0  0  0  0
   17.3578   70.2751   -5.7338 N   0  0  0  0  0  0  0  0  0  0  0  0
   16.1695   69.6741   -3.7658 N   0  0  0  0  0  0  0  0  0  0  0  0
   16.5509   69.3228   -5.0674 C   0  0  0  0  0  0  0  0  0  0  0  0
   17.7175   71.4548   -5.0936 C   0  0  0  0  0  0  0  0  0  0  0  0
   17.3464   71.7757   -3.8526 C   0  0  0  0  0  0  0  0  0  0  0  0
   16.5015   70.8355   -3.0872 C   0  0  0  0  0  0  0  0  0  0  0  0
   15.6056   69.0278   -3.2825 H   0  0  0  0  0  0  0  0  0  0  0  0
   21.5350   74.1777   -5.6254 O   0  0  0  0  0  0  0  0  0  0  0  0
   21.8405   75.0839   -4.3219 P   0  0  2  0  0  0  0  0  0  0  0  0
   20.3954   75.7213   -3.9676 O   0  0  0  0  0  0  0  0  0  0  0  0
   22.9317   76.0963   -4.5177 O   0  0  0  0  0  0  0  0  0  0  0  0
   22.1175   74.0211   -3.1403 O   0  0  0  0  0  0  0  0  0  0  0  0
   20.8307   73.1073   -1.3745 O   0  0  0  0  0  0  0  0  0  0  0  0
   24.4808   73.7035    0.4666 O   0  0  0  0  0  0  0  0  0  0  0  0
   23.3871   75.7207   -1.3415 O   0  0  0  0  0  0  0  0  0  0  0  0
   23.6585   71.0256   -0.3104 O   0  0  0  0  0  0  0  0  0  0  0  0
   23.6010   73.4143   -0.6199 C   0  0  2  0  0  0  0  0  0  0  0  0
   22.6628   74.5997   -0.8482 C   0  0  2  0  0  0  0  0  0  0  0  0
   22.7986   72.1624   -0.2583 C   0  0  1  0  0  0  0  0  0  0  0  0
   21.5605   74.2408   -1.8456 C   0  0  1  0  0  0  0  0  0  0  0  0
   21.6410   71.9432   -1.2281 C   0  0  1  0  0  0  0  0  0  0  0  0
   25.0012   74.4956    0.2594 H   0  0  0  0  0  0  0  0  0  0  0  0
   24.0885   75.9538   -0.7136 H   0  0  0  0  0  0  0  0  0  0  0  0
   24.3997   71.1524    0.3023 H   0  0  0  0  0  0  0  0  0  0  0  0
   21.0520   70.5360    0.5535 O   0  0  0  0  0  0  0  0  0  0  0  0
   19.6961   70.5164   -1.2796 O   0  0  0  0  0  0  0  0  0  0  0  0
   20.6818   70.9323   -0.6894 C   0  0  0  0  0  0  0  0  0  0  0  0
  1  4  1  0
  1 24  1  0
  1  2  1  6
  1  3  2  0
 25 28  1  0
 25 24  1  0
 25 26  1  1
 25 27  2  0
  6 11  1  0
  6 12  1  0
 29 36  1  0
 29 37  1  0
  9  7  1  6
  7 13  1  0
 10  8  1  6
  8 14  1  0
  4  5  1  0
 36 28  1  6
 33 30  1  1
 30 38  1  0
 34 31  1  6
 31 39  1  0
 35 32  1  6
 32 40  1  0
 41 43  1  0
 15 19  2  0
 42 43  2  0
 16 22  2  0
 12 17  1  1
 17 19  1  0
 17 20  1  0
 18 19  1  0
 18 22  1  0
 18 23  1  0
  9 10  1  0
  9 11  1  0
 10 12  1  0
 11  5  1  1
 33 34  1  0
 33 35  1  0
 34 36  1  0
 35 37  1  0
 37 43  1  1
 20 21  2  0
 21 22  1  0
M  CHG  3   2  -1  26  -1  41  -1
M  END
>  <COMPND>  (64) 
    udp_gluA.pdb 

>  <AUTHOR>  (64) 
    GENERATED BY OPEN BABEL 3.1.1

>  <MASTER>  (64) 
        0    0    0    0    0    0    0    0   56    0   56    0

>  <minimizedAffinity>  (64) 
-6.98469

>  <CNNscore>  (64) 
0.7857392430

>  <CNNaffinity>  (64) 
4.5787153244

>  <CNN_VS>  (64) 
3.5976762772

>  <CNNaffinity_variance>  (64) 
0.2129663676

$$$$
65
     RDKit          3D

 43 45  0  0  0  0  0  0  0  0999 V2000
   21.1861   72.4420   -1.3465 P   0  0  2  0  0  0  0  0  0  0  0  0
   20.4772   72.0251    0.0473 O   0  0  0  0  0  0  0  0  0  0  0  0
   21.9694   73.7211   -1.3012 O   0  0  0  0  0  0  0  0  0  0  0  0
   19.9809   72.3940   -2.4249 O   0  0  0  0  0  0  0  0  0  0  0  0
   20.1767   73.0081   -3.6855 C   0  0  0  0  0  0  0  0  0  0  0  0
   20.5729   71.1218   -5.1217 O   0  0  0  0  0  0  0  0  0  0  0  0
   23.1636   72.4496   -5.8407 O   0  0  0  0  0  0  0  0  0  0  0  0
   21.5745   73.0494   -7.9740 O   0  0  0  0  0  0  0  0  0  0  0  0
   21.8928   73.0385   -5.5634 C   0  0  1  0  0  0  0  0  0  0  0  0
   20.9497   72.8223   -6.7279 C   0  0  2  0  0  0  0  0  0  0  0  0
   21.2289   72.2254   -4.4605 C   0  0  1  0  0  0  0  0  0  0  0  0
   20.5383   71.3726   -6.5356 C   0  0  2  0  0  0  0  0  0  0  0  0
   23.6070   72.9520   -6.5426 H   0  0  0  0  0  0  0  0  0  0  0  0
   21.8170   73.9863   -8.0480 H   0  0  0  0  0  0  0  0  0  0  0  0
   19.9009   70.9187   -9.2493 O   0  0  0  0  0  0  0  0  0  0  0  0
   15.4247   70.3724   -8.2958 O   0  0  0  0  0  0  0  0  0  0  0  0
   19.2144   71.1093   -7.0243 N   0  0  0  0  0  0  0  0  0  0  0  0
   17.6719   70.6481   -8.7720 N   0  0  0  0  0  0  0  0  0  0  0  0
   19.0018   70.8951   -8.4067 C   0  0  0  0  0  0  0  0  0  0  0  0
   18.1446   71.0636   -6.1387 C   0  0  0  0  0  0  0  0  0  0  0  0
   16.8825   70.8269   -6.5018 C   0  0  0  0  0  0  0  0  0  0  0  0
   16.5745   70.5935   -7.9280 C   0  0  0  0  0  0  0  0  0  0  0  0
   17.4988   70.4980   -9.7295 H   0  0  0  0  0  0  0  0  0  0  0  0
   22.0573   71.1317   -1.7167 O   0  0  0  0  0  0  0  0  0  0  0  0
   23.6544   70.9239   -1.8575 P   0  0  2  0  0  0  0  0  0  0  0  0
   24.2237   71.4616   -0.4408 O   0  0  0  0  0  0  0  0  0  0  0  0
   24.2584   71.5902   -3.0596 O   0  0  0  0  0  0  0  0  0  0  0  0
   23.8657   69.3256   -1.8010 O   0  0  0  0  0  0  0  0  0  0  0  0
   24.7935   67.7912   -0.2538 O   0  0  0  0  0  0  0  0  0  0  0  0
   26.2290   66.3364   -3.8443 O   0  0  0  0  0  0  0  0  0  0  0  0
   26.1937   69.2099   -3.3187 O   0  0  0  0  0  0  0  0  0  0  0  0
   24.0388   64.9843   -2.4930 O   0  0  0  0  0  0  0  0  0  0  0  0
   25.2939   66.9823   -2.9804 C   0  0  2  0  0  0  0  0  0  0  0  0
   25.9495   68.2062   -2.3401 C   0  0  2  0  0  0  0  0  0  0  0  0
   24.8737   65.9793   -1.9037 C   0  0  1  0  0  0  0  0  0  0  0  0
   25.0622   68.7892   -1.2394 C   0  0  1  0  0  0  0  0  0  0  0  0
   24.1005   66.6609   -0.7785 C   0  0  1  0  0  0  0  0  0  0  0  0
   26.5103   66.9549   -4.5368 H   0  0  0  0  0  0  0  0  0  0  0  0
   26.7559   68.8467   -4.0204 H   0  0  0  0  0  0  0  0  0  0  0  0
   24.5191   64.5429   -3.2109 H   0  0  0  0  0  0  0  0  0  0  0  0
   23.1920   64.6953    0.1228 O   0  0  0  0  0  0  0  0  0  0  0  0
   24.5249   65.9456    1.4863 O   0  0  0  0  0  0  0  0  0  0  0  0
   23.9835   65.7591    0.4069 C   0  0  0  0  0  0  0  0  0  0  0  0
  1  4  1  0
  1 24  1  0
  1  2  1  1
  1  3  2  0
 25 28  1  0
 25 24  1  0
 25 26  1  1
 25 27  2  0
  6 11  1  0
  6 12  1  0
 29 36  1  0
 29 37  1  0
  9  7  1  6
  7 13  1  0
 10  8  1  6
  8 14  1  0
  4  5  1  0
 36 28  1  6
 33 30  1  6
 30 38  1  0
 34 31  1  6
 31 39  1  0
 35 32  1  6
 32 40  1  0
 41 43  1  0
 15 19  2  0
 42 43  2  0
 16 22  2  0
 12 17  1  1
 17 19  1  0
 17 20  1  0
 18 19  1  0
 18 22  1  0
 18 23  1  0
  9 10  1  0
  9 11  1  0
 10 12  1  0
 11  5  1  6
 33 34  1  0
 33 35  1  0
 34 36  1  0
 35 37  1  0
 37 43  1  1
 20 21  2  0
 21 22  1  0
M  CHG  3   2  -1  26  -1  41  -1
M  END
>  <COMPND>  (65) 
    udp_gluA.pdb 

>  <AUTHOR>  (65) 
    GENERATED BY OPEN BABEL 3.1.1

>  <MASTER>  (65) 
        0    0    0    0    0    0    0    0   56    0   56    0

>  <minimizedAffinity>  (65) 
-8.62398

>  <CNNscore>  (65) 
0.7240639329

>  <CNNaffinity>  (65) 
4.8035173416

>  <CNN_VS>  (65) 
3.4780535698

>  <CNNaffinity_variance>  (65) 
0.0470520034

$$$$
66
     RDKit          3D

 43 45  0  0  0  0  0  0  0  0999 V2000
   21.7690   72.4360   -5.2719 P   0  0  2  0  0  0  0  0  0  0  0  0
   21.0720   73.8313   -5.7034 O   0  0  0  0  0  0  0  0  0  0  0  0
   23.2652   72.4812   -5.1665 O   0  0  0  0  0  0  0  0  0  0  0  0
   21.1708   71.3614   -6.3234 O   0  0  0  0  0  0  0  0  0  0  0  0
   20.4509   71.8409   -7.4442 C   0  0  0  0  0  0  0  0  0  0  0  0
   19.0377   69.9699   -6.9149 O   0  0  0  0  0  0  0  0  0  0  0  0
   18.0673   70.1398   -9.7471 O   0  0  0  0  0  0  0  0  0  0  0  0
   16.0603   71.3531   -8.3558 O   0  0  0  0  0  0  0  0  0  0  0  0
   18.4348   71.1907   -8.8532 C   0  0  1  0  0  0  0  0  0  0  0  0
   17.3603   71.3869   -7.8049 C   0  0  2  0  0  0  0  0  0  0  0  0
   19.6113   70.7062   -8.0169 C   0  0  1  0  0  0  0  0  0  0  0  0
   17.6255   70.2268   -6.8605 C   0  0  2  0  0  0  0  0  0  0  0  0
   17.3173   70.4260  -10.2922 H   0  0  0  0  0  0  0  0  0  0  0  0
   15.9409   72.1118   -8.9492 H   0  0  0  0  0  0  0  0  0  0  0  0
   16.3072   68.4270   -5.1286 O   0  0  0  0  0  0  0  0  0  0  0  0
   16.2627   71.4891   -1.6839 O   0  0  0  0  0  0  0  0  0  0  0  0
   17.2575   70.5278   -5.5059 N   0  0  0  0  0  0  0  0  0  0  0  0
   16.2854   69.9542   -3.4149 N   0  0  0  0  0  0  0  0  0  0  0  0
   16.5979   69.5530   -4.7205 C   0  0  0  0  0  0  0  0  0  0  0  0
   17.5512   71.7750   -4.9682 C   0  0  0  0  0  0  0  0  0  0  0  0
   17.2471   72.1428   -3.7220 C   0  0  0  0  0  0  0  0  0  0  0  0
   16.5563   71.1833   -2.8357 C   0  0  0  0  0  0  0  0  0  0  0  0
   15.8241   69.2932   -2.8496 H   0  0  0  0  0  0  0  0  0  0  0  0
   21.0081   72.0605   -3.8961 O   0  0  0  0  0  0  0  0  0  0  0  0
   20.9721   70.6872   -3.0438 P   0  0  2  0  0  0  0  0  0  0  0  0
   22.4963   70.1509   -3.1420 O   0  0  0  0  0  0  0  0  0  0  0  0
   19.9387   69.7017   -3.5072 O   0  0  0  0  0  0  0  0  0  0  0  0
   20.8052   71.1612   -1.5108 O   0  0  0  0  0  0  0  0  0  0  0  0
   22.2026   73.0008   -0.9892 O   0  0  0  0  0  0  0  0  0  0  0  0
   20.6231   72.0687    2.7127 O   0  0  0  0  0  0  0  0  0  0  0  0
   21.4918   69.9510    0.8975 O   0  0  0  0  0  0  0  0  0  0  0  0
   19.6472   74.3842    1.2509 O   0  0  0  0  0  0  0  0  0  0  0  0
   20.6287   72.1841    1.2898 C   0  0  2  0  0  0  0  0  0  0  0  0
   21.7616   71.3357    0.7119 C   0  0  2  0  0  0  0  0  0  0  0  0
   20.8341   73.6587    0.9358 C   0  0  1  0  0  0  0  0  0  0  0  0
   21.9451   71.6117   -0.7810 C   0  0  1  0  0  0  0  0  0  0  0  0
   21.1358   73.8383   -0.5492 C   0  0  1  0  0  0  0  0  0  0  0  0
   20.4939   71.1398    2.9614 H   0  0  0  0  0  0  0  0  0  0  0  0
   21.3740   69.7687    1.8426 H   0  0  0  0  0  0  0  0  0  0  0  0
   19.4439   74.2780    2.1934 H   0  0  0  0  0  0  0  0  0  0  0  0
   21.7687   75.4241   -2.1574 O   0  0  0  0  0  0  0  0  0  0  0  0
   21.9346   76.0396    0.0318 O   0  0  0  0  0  0  0  0  0  0  0  0
   21.6536   75.2128   -0.8228 C   0  0  0  0  0  0  0  0  0  0  0  0
  1  4  1  0
  1 24  1  0
  1  2  1  6
  1  3  2  0
 25 28  1  0
 25 24  1  0
 25 26  1  1
 25 27  2  0
  6 11  1  0
  6 12  1  0
 29 36  1  0
 29 37  1  0
  9  7  1  6
  7 13  1  0
 10  8  1  6
  8 14  1  0
  4  5  1  0
 36 28  1  6
 33 30  1  1
 30 38  1  0
 34 31  1  6
 31 39  1  0
 35 32  1  6
 32 40  1  0
 41 43  1  0
 15 19  2  0
 42 43  2  0
 16 22  2  0
 12 17  1  1
 17 19  1  0
 17 20  1  0
 18 19  1  0
 18 22  1  0
 18 23  1  0
  9 10  1  0
  9 11  1  0
 10 12  1  0
 11  5  1  1
 33 34  1  0
 33 35  1  0
 34 36  1  0
 35 37  1  0
 37 43  1  1
 20 21  2  0
 21 22  1  0
M  CHG  3   2  -1  26  -1  41  -1
M  END
>  <COMPND>  (66) 
    udp_gluA.pdb 

>  <AUTHOR>  (66) 
    GENERATED BY OPEN BABEL 3.1.1

>  <MASTER>  (66) 
        0    0    0    0    0    0    0    0   56    0   56    0

>  <minimizedAffinity>  (66) 
-6.85427

>  <CNNscore>  (66) 
0.7035159469

>  <CNNaffinity>  (66) 
4.5352506638

>  <CNN_VS>  (66) 
3.1906211376

>  <CNNaffinity_variance>  (66) 
0.2035103738

$$$$
67
     RDKit          3D

 43 45  0  0  0  0  0  0  0  0999 V2000
   22.3020   72.7615   -6.0783 P   0  0  2  0  0  0  0  0  0  0  0  0
   22.8653   73.4648   -7.4225 O   0  0  0  0  0  0  0  0  0  0  0  0
   23.3565   72.2442   -5.1444 O   0  0  0  0  0  0  0  0  0  0  0  0
   21.2489   71.6625   -6.6270 O   0  0  0  0  0  0  0  0  0  0  0  0
   20.4092   72.0132   -7.7116 C   0  0  0  0  0  0  0  0  0  0  0  0
   19.2669   69.9866   -7.1067 O   0  0  0  0  0  0  0  0  0  0  0  0
   18.2644   69.9282   -9.9321 O   0  0  0  0  0  0  0  0  0  0  0  0
   16.1200   70.9040   -8.5591 O   0  0  0  0  0  0  0  0  0  0  0  0
   18.4913   71.0487   -9.0768 C   0  0  1  0  0  0  0  0  0  0  0  0
   17.4067   71.1323   -8.0237 C   0  0  2  0  0  0  0  0  0  0  0  0
   19.7280   70.7565   -8.2380 C   0  0  1  0  0  0  0  0  0  0  0  0
   17.8332   70.0512   -7.0453 C   0  0  2  0  0  0  0  0  0  0  0  0
   17.4790   70.0916  -10.4781 H   0  0  0  0  0  0  0  0  0  0  0  0
   15.8947   71.6192   -9.1754 H   0  0  0  0  0  0  0  0  0  0  0  0
   16.3219   68.3111   -5.4129 O   0  0  0  0  0  0  0  0  0  0  0  0
   16.3681   71.2815   -1.8890 O   0  0  0  0  0  0  0  0  0  0  0  0
   17.4364   70.3447   -5.6972 N   0  0  0  0  0  0  0  0  0  0  0  0
   16.3455   69.7926   -3.6597 N   0  0  0  0  0  0  0  0  0  0  0  0
   16.6779   69.4021   -4.9636 C   0  0  0  0  0  0  0  0  0  0  0  0
   17.7992   71.5531   -5.1149 C   0  0  0  0  0  0  0  0  0  0  0  0
   17.4750   71.9112   -3.8709 C   0  0  0  0  0  0  0  0  0  0  0  0
   16.6828   70.9836   -3.0372 C   0  0  0  0  0  0  0  0  0  0  0  0
   15.8160   69.1536   -3.1301 H   0  0  0  0  0  0  0  0  0  0  0  0
   21.3435   73.9000   -5.4474 O   0  0  0  0  0  0  0  0  0  0  0  0
   21.4805   74.7716   -4.0927 P   0  0  2  0  0  0  0  0  0  0  0  0
   20.1280   75.6610   -4.0869 O   0  0  0  0  0  0  0  0  0  0  0  0
   22.7474   75.5719   -4.0009 O   0  0  0  0  0  0  0  0  0  0  0  0
   21.2730   73.7072   -2.8984 O   0  0  0  0  0  0  0  0  0  0  0  0
   22.5489   74.2429   -0.9764 O   0  0  0  0  0  0  0  0  0  0  0  0
   21.0140   70.5438    0.0377 O   0  0  0  0  0  0  0  0  0  0  0  0
   22.0233   71.0396   -2.6585 O   0  0  0  0  0  0  0  0  0  0  0  0
   19.9006   72.9579    1.2139 O   0  0  0  0  0  0  0  0  0  0  0  0
   21.0189   71.8239   -0.5940 C   0  0  2  0  0  0  0  0  0  0  0  0
   22.2060   71.9167   -1.5531 C   0  0  2  0  0  0  0  0  0  0  0  0
   21.1325   72.8898    0.4982 C   0  0  1  0  0  0  0  0  0  0  0  0
   22.3786   73.3445   -2.0734 C   0  0  1  0  0  0  0  0  0  0  0  0
   21.4293   74.2646   -0.0938 C   0  0  1  0  0  0  0  0  0  0  0  0
   20.9425   69.8503   -0.6370 H   0  0  0  0  0  0  0  0  0  0  0  0
   21.9128   70.1319   -2.3357 H   0  0  0  0  0  0  0  0  0  0  0  0
   19.7000   72.0890    1.5956 H   0  0  0  0  0  0  0  0  0  0  0  0
   21.2887   76.4346    0.7854 O   0  0  0  0  0  0  0  0  0  0  0  0
   22.6210   74.9494    1.8892 O   0  0  0  0  0  0  0  0  0  0  0  0
   21.8605   75.2191    0.9717 C   0  0  0  0  0  0  0  0  0  0  0  0
  1  4  1  0
  1 24  1  0
  1  2  1  6
  1  3  2  0
 25 28  1  0
 25 24  1  0
 25 26  1  6
 25 27  2  0
  6 11  1  0
  6 12  1  0
 29 36  1  0
 29 37  1  0
  9  7  1  6
  7 13  1  0
 10  8  1  6
  8 14  1  0
  4  5  1  0
 36 28  1  1
 33 30  1  1
 30 38  1  0
 34 31  1  6
 31 39  1  0
 35 32  1  6
 32 40  1  0
 41 43  1  0
 15 19  2  0
 42 43  2  0
 16 22  2  0
 12 17  1  1
 17 19  1  0
 17 20  1  0
 18 19  1  0
 18 22  1  0
 18 23  1  0
  9 10  1  0
  9 11  1  0
 10 12  1  0
 11  5  1  1
 33 34  1  0
 33 35  1  0
 34 36  1  0
 35 37  1  0
 37 43  1  1
 20 21  2  0
 21 22  1  0
M  CHG  3   2  -1  26  -1  41  -1
M  END
>  <COMPND>  (67) 
    udp_gluA.pdb 

>  <AUTHOR>  (67) 
    GENERATED BY OPEN BABEL 3.1.1

>  <MASTER>  (67) 
        0    0    0    0    0    0    0    0   56    0   56    0

>  <minimizedAffinity>  (67) 
-6.37708

>  <CNNscore>  (67) 
0.6943458319

>  <CNNaffinity>  (67) 
4.5563554764

>  <CNN_VS>  (67) 
3.1636865139

>  <CNNaffinity_variance>  (67) 
0.1768205613

$$$$
68
     RDKit          3D

 43 45  0  0  0  0  0  0  0  0999 V2000
   19.1981   74.0571   -1.3888 P   0  0  2  0  0  0  0  0  0  0  0  0
   18.0795   73.4165   -0.4103 O   0  0  0  0  0  0  0  0  0  0  0  0
   19.7940   75.3484   -0.9099 O   0  0  0  0  0  0  0  0  0  0  0  0
   18.4667   74.1129   -2.8310 O   0  0  0  0  0  0  0  0  0  0  0  0
   18.3881   72.9240   -3.5957 C   0  0  0  0  0  0  0  0  0  0  0  0
   16.6735   72.6528   -5.2582 O   0  0  0  0  0  0  0  0  0  0  0  0
   15.1481   71.1355   -3.1696 O   0  0  0  0  0  0  0  0  0  0  0  0
   16.1954   69.1424   -4.7081 O   0  0  0  0  0  0  0  0  0  0  0  0
   16.5542   71.1700   -3.4149 C   0  0  1  0  0  0  0  0  0  0  0  0
   16.8894   70.3713   -4.6567 C   0  0  2  0  0  0  0  0  0  0  0  0
   16.9227   72.5856   -3.8374 C   0  0  1  0  0  0  0  0  0  0  0  0
   16.4751   71.3236   -5.7655 C   0  0  2  0  0  0  0  0  0  0  0  0
   14.8888   70.2406   -2.8980 H   0  0  0  0  0  0  0  0  0  0  0  0
   16.4946   68.5716   -3.9824 H   0  0  0  0  0  0  0  0  0  0  0  0
   15.4925   70.2600   -8.1903 O   0  0  0  0  0  0  0  0  0  0  0  0
   19.5829   70.7244  -10.2632 O   0  0  0  0  0  0  0  0  0  0  0  0
   17.2616   71.1555   -6.9546 N   0  0  0  0  0  0  0  0  0  0  0  0
   17.5310   70.4914   -9.2201 N   0  0  0  0  0  0  0  0  0  0  0  0
   16.6718   70.6113   -8.1199 C   0  0  0  0  0  0  0  0  0  0  0  0
   18.6001   71.5289   -6.9594 C   0  0  0  0  0  0  0  0  0  0  0  0
   19.4065   71.4086   -8.0158 C   0  0  0  0  0  0  0  0  0  0  0  0
   18.8687   70.8482   -9.2729 C   0  0  0  0  0  0  0  0  0  0  0  0
   17.1435   70.1132  -10.0424 H   0  0  0  0  0  0  0  0  0  0  0  0
   20.2591   72.8506   -1.5659 O   0  0  0  0  0  0  0  0  0  0  0  0
   20.4677   71.4880   -0.7212 P   0  0  2  0  0  0  0  0  0  0  0  0
   19.3014   70.5192   -1.2881 O   0  0  0  0  0  0  0  0  0  0  0  0
   20.4451   71.6771    0.7680 O   0  0  0  0  0  0  0  0  0  0  0  0
   21.8366   70.8562   -1.2951 O   0  0  0  0  0  0  0  0  0  0  0  0
   23.6634   71.6112    0.0097 O   0  0  0  0  0  0  0  0  0  0  0  0
   25.5691   69.3540   -2.8785 O   0  0  0  0  0  0  0  0  0  0  0  0
   23.3655   71.1302   -3.6023 O   0  0  0  0  0  0  0  0  0  0  0  0
   25.2465   68.3070   -0.1858 O   0  0  0  0  0  0  0  0  0  0  0  0
   24.5052   69.7127   -1.9967 C   0  0  2  0  0  0  0  0  0  0  0  0
   24.0125   71.1199   -2.3351 C   0  0  2  0  0  0  0  0  0  0  0  0
   25.0423   69.6669   -0.5645 C   0  0  1  0  0  0  0  0  0  0  0  0
   23.0362   71.6278   -1.2732 C   0  0  1  0  0  0  0  0  0  0  0  0
   24.0645   70.3052    0.4179 C   0  0  1  0  0  0  0  0  0  0  0  0
   25.2512   69.3763   -3.7949 H   0  0  0  0  0  0  0  0  0  0  0  0
   23.9792   70.8088   -4.2809 H   0  0  0  0  0  0  0  0  0  0  0  0
   25.8669   67.8890   -0.8033 H   0  0  0  0  0  0  0  0  0  0  0  0
   23.7949   70.7094    2.7125 O   0  0  0  0  0  0  0  0  0  0  0  0
   25.9298   70.6067    1.9183 O   0  0  0  0  0  0  0  0  0  0  0  0
   24.7228   70.5531    1.7360 C   0  0  0  0  0  0  0  0  0  0  0  0
  1  4  1  0
  1 24  1  0
  1  2  1  1
  1  3  2  0
 25 28  1  0
 25 24  1  0
 25 26  1  1
 25 27  2  0
  6 11  1  0
  6 12  1  0
 29 36  1  0
 29 37  1  0
  9  7  1  6
  7 13  1  0
 10  8  1  1
  8 14  1  0
  4  5  1  0
 36 28  1  1
 33 30  1  6
 30 38  1  0
 34 31  1  6
 31 39  1  0
 35 32  1  1
 32 40  1  0
 41 43  1  0
 15 19  2  0
 42 43  2  0
 16 22  2  0
 12 17  1  6
 17 19  1  0
 17 20  1  0
 18 19  1  0
 18 22  1  0
 18 23  1  0
  9 10  1  0
  9 11  1  0
 10 12  1  0
 11  5  1  6
 33 34  1  0
 33 35  1  0
 34 36  1  0
 35 37  1  0
 37 43  1  1
 20 21  2  0
 21 22  1  0
M  CHG  3   2  -1  26  -1  41  -1
M  END
>  <COMPND>  (68) 
    udp_gluA.pdb 

>  <AUTHOR>  (68) 
    GENERATED BY OPEN BABEL 3.1.1

>  <MASTER>  (68) 
        0    0    0    0    0    0    0    0   56    0   56    0

>  <minimizedAffinity>  (68) 
-7.41788

>  <CNNscore>  (68) 
0.6307828426

>  <CNNaffinity>  (68) 
4.3119254112

>  <CNN_VS>  (68) 
2.7198886871

>  <CNNaffinity_variance>  (68) 
0.0701529756

$$$$
69
     RDKit          3D

 43 45  0  0  0  0  0  0  0  0999 V2000
   23.1456   72.4769   -3.4822 P   0  0  2  0  0  0  0  0  0  0  0  0
   22.6797   70.9328   -3.3492 O   0  0  0  0  0  0  0  0  0  0  0  0
   24.1248   72.7503   -4.5859 O   0  0  0  0  0  0  0  0  0  0  0  0
   23.6415   72.8629   -1.9913 O   0  0  0  0  0  0  0  0  0  0  0  0
   22.6912   72.8641   -0.9418 C   0  0  0  0  0  0  0  0  0  0  0  0
   24.0108   71.3802    0.4126 O   0  0  0  0  0  0  0  0  0  0  0  0
   21.4363   69.9900    1.0688 O   0  0  0  0  0  0  0  0  0  0  0  0
   21.8692   71.5194    3.2846 O   0  0  0  0  0  0  0  0  0  0  0  0
   21.6855   71.3808    0.8640 C   0  0  1  0  0  0  0  0  0  0  0  0
   22.4098   71.9650    2.0583 C   0  0  2  0  0  0  0  0  0  0  0  0
   22.7282   71.5140   -0.2375 C   0  0  1  0  0  0  0  0  0  0  0  0
   23.8312   71.4777    1.8344 C   0  0  2  0  0  0  0  0  0  0  0  0
   20.7729   69.8796    1.7684 H   0  0  0  0  0  0  0  0  0  0  0  0
   20.9639   71.8560    3.3801 H   0  0  0  0  0  0  0  0  0  0  0  0
   26.5332   70.8042    2.3058 O   0  0  0  0  0  0  0  0  0  0  0  0
   27.5001   75.0254    3.8840 O   0  0  0  0  0  0  0  0  0  0  0  0
   24.8107   72.3815    2.3678 N   0  0  0  0  0  0  0  0  0  0  0  0
   27.0119   72.9069    3.0923 N   0  0  0  0  0  0  0  0  0  0  0  0
   26.1413   71.9432    2.5665 C   0  0  0  0  0  0  0  0  0  0  0  0
   24.4507   73.6852    2.6865 C   0  0  0  0  0  0  0  0  0  0  0  0
   25.2918   74.5925    3.1868 C   0  0  0  0  0  0  0  0  0  0  0  0
   26.7003   74.2152    3.4254 C   0  0  0  0  0  0  0  0  0  0  0  0
   27.9433   72.6245    3.2413 H   0  0  0  0  0  0  0  0  0  0  0  0
   21.7428   73.2690   -3.6151 O   0  0  0  0  0  0  0  0  0  0  0  0
   20.2158   72.7468   -3.5195 P   0  0  2  0  0  0  0  0  0  0  0  0
   19.3831   74.0962   -3.1942 O   0  0  0  0  0  0  0  0  0  0  0  0
   20.0054   71.6368   -2.5308 O   0  0  0  0  0  0  0  0  0  0  0  0
   19.8141   72.3764   -5.0374 O   0  0  0  0  0  0  0  0  0  0  0  0
   18.7615   70.3893   -5.7807 O   0  0  0  0  0  0  0  0  0  0  0  0
   20.8723   71.5311   -9.1436 O   0  0  0  0  0  0  0  0  0  0  0  0
   22.0905   71.7213   -6.4951 O   0  0  0  0  0  0  0  0  0  0  0  0
   17.9960   71.9346   -9.0193 O   0  0  0  0  0  0  0  0  0  0  0  0
   20.1382   71.7308   -7.9355 C   0  0  2  0  0  0  0  0  0  0  0  0
   20.8669   71.0514   -6.7758 C   0  0  2  0  0  0  0  0  0  0  0  0
   18.7473   71.1202   -8.1210 C   0  0  1  0  0  0  0  0  0  0  0  0
   20.0018   71.0453   -5.5146 C   0  0  1  0  0  0  0  0  0  0  0  0
   17.9955   71.0341   -6.7958 C   0  0  1  0  0  0  0  0  0  0  0  0
   21.7600   71.9111   -9.0493 H   0  0  0  0  0  0  0  0  0  0  0  0
   22.6442   71.7292   -7.2911 H   0  0  0  0  0  0  0  0  0  0  0  0
   18.4638   71.9977   -9.8667 H   0  0  0  0  0  0  0  0  0  0  0  0
   16.7301   69.2822   -5.8843 O   0  0  0  0  0  0  0  0  0  0  0  0
   15.9815   70.2021   -7.8317 O   0  0  0  0  0  0  0  0  0  0  0  0
   16.7964   70.1519   -6.9226 C   0  0  0  0  0  0  0  0  0  0  0  0
  1  4  1  0
  1 24  1  0
  1  2  1  1
  1  3  2  0
 25 28  1  0
 25 24  1  0
 25 26  1  1
 25 27  2  0
  6 11  1  0
  6 12  1  0
 29 36  1  0
 29 37  1  0
  9  7  1  1
  7 13  1  0
 10  8  1  1
  8 14  1  0
  4  5  1  0
 36 28  1  6
 33 30  1  6
 30 38  1  0
 34 31  1  1
 31 39  1  0
 35 32  1  6
 32 40  1  0
 41 43  1  0
 15 19  2  0
 42 43  2  0
 16 22  2  0
 12 17  1  6
 17 19  1  0
 17 20  1  0
 18 19  1  0
 18 22  1  0
 18 23  1  0
  9 10  1  0
  9 11  1  0
 10 12  1  0
 11  5  1  1
 33 34  1  0
 33 35  1  0
 34 36  1  0
 35 37  1  0
 37 43  1  6
 20 21  2  0
 21 22  1  0
M  CHG  3   2  -1  26  -1  41  -1
M  END
>  <COMPND>  (69) 
    udp_gluA.pdb 

>  <AUTHOR>  (69) 
    GENERATED BY OPEN BABEL 3.1.1

>  <MASTER>  (69) 
        0    0    0    0    0    0    0    0   56    0   56    0

>  <minimizedAffinity>  (69) 
-7.22728

>  <CNNscore>  (69) 
0.5797968507

>  <CNNaffinity>  (69) 
4.2336091995

>  <CNN_VS>  (69) 
2.4546332359

>  <CNNaffinity_variance>  (69) 
0.0486801341

$$$$
70
     RDKit          3D

 43 45  0  0  0  0  0  0  0  0999 V2000
   23.4631   71.6786   -3.1446 P   0  0  2  0  0  0  0  0  0  0  0  0
   24.2528   72.8232   -3.9724 O   0  0  0  0  0  0  0  0  0  0  0  0
   24.2956   70.4943   -2.7494 O   0  0  0  0  0  0  0  0  0  0  0  0
   22.1722   71.3545   -4.0645 O   0  0  0  0  0  0  0  0  0  0  0  0
   21.7849   72.3011   -5.0436 C   0  0  0  0  0  0  0  0  0  0  0  0
   20.7286   70.4219   -6.1069 O   0  0  0  0  0  0  0  0  0  0  0  0
   21.0859   71.9154   -8.6824 O   0  0  0  0  0  0  0  0  0  0  0  0
   18.4616   72.3638   -8.0928 O   0  0  0  0  0  0  0  0  0  0  0  0
   20.7857   72.4184   -7.3803 C   0  0  1  0  0  0  0  0  0  0  0  0
   19.3465   72.1156   -7.0205 C   0  0  2  0  0  0  0  0  0  0  0  0
   21.5509   71.5805   -6.3651 C   0  0  1  0  0  0  0  0  0  0  0  0
   19.4171   70.6443   -6.6491 C   0  0  2  0  0  0  0  0  0  0  0  0
   20.6082   72.4351   -9.3482 H   0  0  0  0  0  0  0  0  0  0  0  0
   18.4519   73.3139   -8.2908 H   0  0  0  0  0  0  0  0  0  0  0  0
   16.7782   69.8368   -7.2496 O   0  0  0  0  0  0  0  0  0  0  0  0
   15.7433   69.2691   -2.7942 O   0  0  0  0  0  0  0  0  0  0  0  0
   18.4372   70.2798   -5.6653 N   0  0  0  0  0  0  0  0  0  0  0  0
   16.2650   69.5558   -5.0300 N   0  0  0  0  0  0  0  0  0  0  0  0
   17.1397   69.8890   -6.0725 C   0  0  0  0  0  0  0  0  0  0  0  0
   18.7652   70.3100   -4.3153 C   0  0  0  0  0  0  0  0  0  0  0  0
   17.9207   69.9895   -3.3330 C   0  0  0  0  0  0  0  0  0  0  0  0
   16.5450   69.5711   -3.6731 C   0  0  0  0  0  0  0  0  0  0  0  0
   15.3552   69.2825   -5.2887 H   0  0  0  0  0  0  0  0  0  0  0  0
   22.8290   72.4996   -1.9049 O   0  0  0  0  0  0  0  0  0  0  0  0
   21.4226   72.3278   -1.1265 P   0  0  2  0  0  0  0  0  0  0  0  0
   21.1113   70.7457   -1.2701 O   0  0  0  0  0  0  0  0  0  0  0  0
   20.3267   73.2219   -1.6301 O   0  0  0  0  0  0  0  0  0  0  0  0
   21.7895   72.5308    0.4313 O   0  0  0  0  0  0  0  0  0  0  0  0
   23.2274   70.7808    1.1235 O   0  0  0  0  0  0  0  0  0  0  0  0
   22.7247   72.8954    4.6369 O   0  0  0  0  0  0  0  0  0  0  0  0
   20.4532   72.4025    2.8673 O   0  0  0  0  0  0  0  0  0  0  0  0
   25.2059   73.1227    3.1393 O   0  0  0  0  0  0  0  0  0  0  0  0
   22.8316   72.7225    3.2239 C   0  0  2  0  0  0  0  0  0  0  0  0
   21.7276   71.7828    2.7384 C   0  0  2  0  0  0  0  0  0  0  0  0
   24.2085   72.1263    2.9231 C   0  0  1  0  0  0  0  0  0  0  0  0
   21.9457   71.3920    1.2760 C   0  0  1  0  0  0  0  0  0  0  0  0
   24.3040   71.6460    1.4779 C   0  0  1  0  0  0  0  0  0  0  0  0
   21.8574   73.2732    4.8520 H   0  0  0  0  0  0  0  0  0  0  0  0
   20.3083   72.6533    3.7927 H   0  0  0  0  0  0  0  0  0  0  0  0
   25.1558   73.4369    4.0556 H   0  0  0  0  0  0  0  0  0  0  0  0
   26.2872   70.7917    2.3937 O   0  0  0  0  0  0  0  0  0  0  0  0
   25.7592   70.1465    0.2715 O   0  0  0  0  0  0  0  0  0  0  0  0
   25.5069   70.7811    1.2847 C   0  0  0  0  0  0  0  0  0  0  0  0
  1  4  1  0
  1 24  1  0
  1  2  1  6
  1  3  2  0
 25 28  1  0
 25 24  1  0
 25 26  1  1
 25 27  2  0
  6 11  1  0
  6 12  1  0
 29 36  1  0
 29 37  1  0
  9  7  1  6
  7 13  1  0
 10  8  1  6
  8 14  1  0
  4  5  1  0
 36 28  1  6
 33 30  1  1
 30 38  1  0
 34 31  1  6
 31 39  1  0
 35 32  1  6
 32 40  1  0
 41 43  1  0
 15 19  2  0
 42 43  2  0
 16 22  2  0
 12 17  1  1
 17 19  1  0
 17 20  1  0
 18 19  1  0
 18 22  1  0
 18 23  1  0
  9 10  1  0
  9 11  1  0
 10 12  1  0
 11  5  1  1
 33 34  1  0
 33 35  1  0
 34 36  1  0
 35 37  1  0
 37 43  1  1
 20 21  2  0
 21 22  1  0
M  CHG  3   2  -1  26  -1  41  -1
M  END
>  <COMPND>  (70) 
    udp_gluA.pdb 

>  <AUTHOR>  (70) 
    GENERATED BY OPEN BABEL 3.1.1

>  <MASTER>  (70) 
        0    0    0    0    0    0    0    0   56    0   56    0

>  <minimizedAffinity>  (70) 
-7.50101

>  <CNNscore>  (70) 
0.5730918646

>  <CNNaffinity>  (70) 
4.1984953880

>  <CNN_VS>  (70) 
2.4061236382

>  <CNNaffinity_variance>  (70) 
0.1251374930

$$$$
71
     RDKit          3D

 43 45  0  0  0  0  0  0  0  0999 V2000
   21.9445   72.9843   -6.0705 P   0  0  2  0  0  0  0  0  0  0  0  0
   21.1713   74.3963   -5.9057 O   0  0  0  0  0  0  0  0  0  0  0  0
   23.1241   73.0122   -6.9976 O   0  0  0  0  0  0  0  0  0  0  0  0
   20.7701   71.9412   -6.4589 O   0  0  0  0  0  0  0  0  0  0  0  0
   19.9883   72.2014   -7.6102 C   0  0  0  0  0  0  0  0  0  0  0  0
   18.9689   70.1041   -7.0272 O   0  0  0  0  0  0  0  0  0  0  0  0
   18.1587   69.9096   -9.9077 O   0  0  0  0  0  0  0  0  0  0  0  0
   15.8611   70.7417   -8.6973 O   0  0  0  0  0  0  0  0  0  0  0  0
   18.2428   71.0616   -9.0684 C   0  0  1  0  0  0  0  0  0  0  0  0
   17.0892   71.0812   -8.0880 C   0  0  2  0  0  0  0  0  0  0  0  0
   19.4415   70.8847   -8.1464 C   0  0  1  0  0  0  0  0  0  0  0  0
   17.5336   70.0571   -7.0576 C   0  0  2  0  0  0  0  0  0  0  0  0
   17.3999   69.9996  -10.5059 H   0  0  0  0  0  0  0  0  0  0  0  0
   15.6217   71.4242   -9.3445 H   0  0  0  0  0  0  0  0  0  0  0  0
   16.3644   68.1427   -5.3416 O   0  0  0  0  0  0  0  0  0  0  0  0
   15.6321   71.2780   -2.0435 O   0  0  0  0  0  0  0  0  0  0  0  0
   17.0290   70.3459   -5.7451 N   0  0  0  0  0  0  0  0  0  0  0  0
   15.9999   69.7063   -3.7010 N   0  0  0  0  0  0  0  0  0  0  0  0
   16.4605   69.3120   -4.9641 C   0  0  0  0  0  0  0  0  0  0  0  0
   17.1013   71.6398   -5.2434 C   0  0  0  0  0  0  0  0  0  0  0  0
   16.6581   72.0004   -4.0374 C   0  0  0  0  0  0  0  0  0  0  0  0
   16.0493   70.9803   -3.1587 C   0  0  0  0  0  0  0  0  0  0  0  0
   15.5981   69.0042   -3.1398 H   0  0  0  0  0  0  0  0  0  0  0  0
   22.2967   72.5832   -4.5447 O   0  0  0  0  0  0  0  0  0  0  0  0
   23.4603   73.1059   -3.5514 P   0  0  2  0  0  0  0  0  0  0  0  0
   22.8933   74.5316   -3.0355 O   0  0  0  0  0  0  0  0  0  0  0  0
   24.8222   73.1727   -4.1797 O   0  0  0  0  0  0  0  0  0  0  0  0
   23.3638   72.1392   -2.2635 O   0  0  0  0  0  0  0  0  0  0  0  0
   23.7481   69.8091   -2.4423 O   0  0  0  0  0  0  0  0  0  0  0  0
   21.6623   70.0465    1.1159 O   0  0  0  0  0  0  0  0  0  0  0  0
   20.8464   71.6461   -1.1885 O   0  0  0  0  0  0  0  0  0  0  0  0
   24.5353   69.6034    1.1355 O   0  0  0  0  0  0  0  0  0  0  0  0
   22.5537   70.4959    0.0954 C   0  0  2  0  0  0  0  0  0  0  0  0
   21.8032   70.5938   -1.2330 C   0  0  2  0  0  0  0  0  0  0  0  0
   23.6972   69.4846   -0.0126 C   0  0  1  0  0  0  0  0  0  0  0  0
   22.7701   70.8484   -2.3902 C   0  0  1  0  0  0  0  0  0  0  0  0
   24.5413   69.7293   -1.2601 C   0  0  1  0  0  0  0  0  0  0  0  0
   20.9272   70.6737    1.2026 H   0  0  0  0  0  0  0  0  0  0  0  0
   20.2298   71.4911   -0.4563 H   0  0  0  0  0  0  0  0  0  0  0  0
   24.0101   69.4500    1.9364 H   0  0  0  0  0  0  0  0  0  0  0  0
   26.1650   68.7726   -2.6564 O   0  0  0  0  0  0  0  0  0  0  0  0
   25.5048   67.5568   -0.8439 O   0  0  0  0  0  0  0  0  0  0  0  0
   25.4344   68.5631   -1.5333 C   0  0  0  0  0  0  0  0  0  0  0  0
  1  4  1  0
  1 24  1  0
  1  2  1  1
  1  3  2  0
 25 28  1  0
 25 24  1  0
 25 26  1  1
 25 27  2  0
  6 11  1  0
  6 12  1  0
 29 36  1  0
 29 37  1  0
  9  7  1  6
  7 13  1  0
 10  8  1  6
  8 14  1  0
  4  5  1  0
 36 28  1  1
 33 30  1  1
 30 38  1  0
 34 31  1  1
 31 39  1  0
 35 32  1  1
 32 40  1  0
 41 43  1  0
 15 19  2  0
 42 43  2  0
 16 22  2  0
 12 17  1  1
 17 19  1  0
 17 20  1  0
 18 19  1  0
 18 22  1  0
 18 23  1  0
  9 10  1  0
  9 11  1  0
 10 12  1  0
 11  5  1  1
 33 34  1  0
 33 35  1  0
 34 36  1  0
 35 37  1  0
 37 43  1  6
 20 21  2  0
 21 22  1  0
M  CHG  3   2  -1  26  -1  41  -1
M  END
>  <COMPND>  (71) 
    udp_gluA.pdb 

>  <AUTHOR>  (71) 
    GENERATED BY OPEN BABEL 3.1.1

>  <MASTER>  (71) 
        0    0    0    0    0    0    0    0   56    0   56    0

>  <minimizedAffinity>  (71) 
-8.94805

>  <CNNscore>  (71) 
0.5605018735

>  <CNNaffinity>  (71) 
4.3189210892

>  <CNN_VS>  (71) 
2.4207632542

>  <CNNaffinity_variance>  (71) 
0.4158863425

$$$$
72
     RDKit          3D

 43 45  0  0  0  0  0  0  0  0999 V2000
   21.9839   72.5157   -5.7877 P   0  0  2  0  0  0  0  0  0  0  0  0
   21.1120   73.8612   -5.5673 O   0  0  0  0  0  0  0  0  0  0  0  0
   23.2260   72.6934   -6.6107 O   0  0  0  0  0  0  0  0  0  0  0  0
   20.9111   71.4464   -6.3566 O   0  0  0  0  0  0  0  0  0  0  0  0
   20.0430   71.8493   -7.3999 C   0  0  0  0  0  0  0  0  0  0  0  0
   18.6080   70.2645   -6.3014 O   0  0  0  0  0  0  0  0  0  0  0  0
   17.0146   70.2278   -8.8413 O   0  0  0  0  0  0  0  0  0  0  0  0
   15.5354   71.8596   -7.2335 O   0  0  0  0  0  0  0  0  0  0  0  0
   17.6926   71.3174   -8.2156 C   0  0  1  0  0  0  0  0  0  0  0  0
   16.9253   71.7811   -6.9956 C   0  0  2  0  0  0  0  0  0  0  0  0
   18.9768   70.7798   -7.5990 C   0  0  1  0  0  0  0  0  0  0  0  0
   17.2844   70.7160   -5.9735 C   0  0  2  0  0  0  0  0  0  0  0  0
   16.1907   70.5468   -9.2426 H   0  0  0  0  0  0  0  0  0  0  0  0
   15.3585   72.5517   -7.8905 H   0  0  0  0  0  0  0  0  0  0  0  0
   16.2391   69.3288   -3.7465 O   0  0  0  0  0  0  0  0  0  0  0  0
   17.3334   72.7573   -0.8669 O   0  0  0  0  0  0  0  0  0  0  0  0
   17.2832   71.2228   -4.6304 N   0  0  0  0  0  0  0  0  0  0  0  0
   16.7842   71.0381   -2.3146 N   0  0  0  0  0  0  0  0  0  0  0  0
   16.7332   70.4460   -3.5834 C   0  0  0  0  0  0  0  0  0  0  0  0
   17.8237   72.4743   -4.3609 C   0  0  0  0  0  0  0  0  0  0  0  0
   17.8652   73.0253   -3.1462 C   0  0  0  0  0  0  0  0  0  0  0  0
   17.3107   72.2798   -1.9972 C   0  0  0  0  0  0  0  0  0  0  0  0
   16.4055   70.5172   -1.5699 H   0  0  0  0  0  0  0  0  0  0  0  0
   22.2445   72.0009   -4.2778 O   0  0  0  0  0  0  0  0  0  0  0  0
   23.5300   72.1573   -3.3100 P   0  0  2  0  0  0  0  0  0  0  0  0
   24.3934   73.3234   -4.0276 O   0  0  0  0  0  0  0  0  0  0  0  0
   24.2861   70.8810   -3.0794 O   0  0  0  0  0  0  0  0  0  0  0  0
   22.9522   72.8447   -1.9698 O   0  0  0  0  0  0  0  0  0  0  0  0
   21.3153   72.0301   -0.4643 O   0  0  0  0  0  0  0  0  0  0  0  0
   20.7638   76.1143   -0.1766 O   0  0  0  0  0  0  0  0  0  0  0  0
   21.2136   74.8603   -2.7765 O   0  0  0  0  0  0  0  0  0  0  0  0
   22.1303   74.6733    1.9464 O   0  0  0  0  0  0  0  0  0  0  0  0
   21.5057   74.9099   -0.3685 C   0  0  2  0  0  0  0  0  0  0  0  0
   20.9468   74.1509   -1.5723 C   0  0  2  0  0  0  0  0  0  0  0  0
   21.3736   74.0657    0.9010 C   0  0  1  0  0  0  0  0  0  0  0  0
   21.5604   72.7535   -1.6710 C   0  0  1  0  0  0  0  0  0  0  0  0
   21.8933   72.6475    0.6837 C   0  0  1  0  0  0  0  0  0  0  0  0
   20.8331   76.6670   -0.9710 H   0  0  0  0  0  0  0  0  0  0  0  0
   20.8274   75.7480   -2.7207 H   0  0  0  0  0  0  0  0  0  0  0  0
   21.8096   75.5766    2.0947 H   0  0  0  0  0  0  0  0  0  0  0  0
   21.9419   70.4935    1.6106 O   0  0  0  0  0  0  0  0  0  0  0  0
   20.7840   72.0914    2.7529 O   0  0  0  0  0  0  0  0  0  0  0  0
   21.4660   71.7493    1.7985 C   0  0  0  0  0  0  0  0  0  0  0  0
  1  4  1  0
  1 24  1  0
  1  2  1  1
  1  3  2  0
 25 28  1  0
 25 24  1  0
 25 26  1  6
 25 27  2  0
  6 11  1  0
  6 12  1  0
 29 36  1  0
 29 37  1  0
  9  7  1  1
  7 13  1  0
 10  8  1  6
  8 14  1  0
  4  5  1  0
 36 28  1  1
 33 30  1  1
 30 38  1  0
 34 31  1  6
 31 39  1  0
 35 32  1  1
 32 40  1  0
 41 43  1  0
 15 19  2  0
 42 43  2  0
 16 22  2  0
 12 17  1  1
 17 19  1  0
 17 20  1  0
 18 19  1  0
 18 22  1  0
 18 23  1  0
  9 10  1  0
  9 11  1  0
 10 12  1  0
 11  5  1  1
 33 34  1  0
 33 35  1  0
 34 36  1  0
 35 37  1  0
 37 43  1  1
 20 21  2  0
 21 22  1  0
M  CHG  3   2  -1  26  -1  41  -1
M  END
>  <COMPND>  (72) 
    udp_gluA.pdb 

>  <AUTHOR>  (72) 
    GENERATED BY OPEN BABEL 3.1.1

>  <MASTER>  (72) 
        0    0    0    0    0    0    0    0   56    0   56    0

>  <minimizedAffinity>  (72) 
-6.66922

>  <CNNscore>  (72) 
0.5498334765

>  <CNNaffinity>  (72) 
4.2734785080

>  <CNN_VS>  (72) 
2.3497016430

>  <CNNaffinity_variance>  (72) 
0.0552875884

$$$$
73
     RDKit          3D

 43 45  0  0  0  0  0  0  0  0999 V2000
   20.8449   72.8850   -4.6495 P   0  0  2  0  0  0  0  0  0  0  0  0
   20.1351   74.0577   -5.5097 O   0  0  0  0  0  0  0  0  0  0  0  0
   21.4036   71.7534   -5.4614 O   0  0  0  0  0  0  0  0  0  0  0  0
   19.7279   72.4778   -3.5520 O   0  0  0  0  0  0  0  0  0  0  0  0
   19.1627   71.1811   -3.6116 C   0  0  0  0  0  0  0  0  0  0  0  0
   17.3934   71.8620   -5.0893 O   0  0  0  0  0  0  0  0  0  0  0  0
   15.5754   70.2046   -3.3747 O   0  0  0  0  0  0  0  0  0  0  0  0
   16.0099   68.5831   -5.5237 O   0  0  0  0  0  0  0  0  0  0  0  0
   16.9324   69.9647   -3.7482 C   0  0  1  0  0  0  0  0  0  0  0  0
   17.0081   69.5267   -5.1955 C   0  0  2  0  0  0  0  0  0  0  0  0
   17.6541   71.3049   -3.7828 C   0  0  1  0  0  0  0  0  0  0  0  0
   16.8334   70.8433   -5.9330 C   0  0  2  0  0  0  0  0  0  0  0  0
   15.0939   69.3626   -3.3459 H   0  0  0  0  0  0  0  0  0  0  0  0
   16.1653   67.7627   -5.0289 H   0  0  0  0  0  0  0  0  0  0  0  0
   16.3117   72.6916   -8.0038 O   0  0  0  0  0  0  0  0  0  0  0  0
   19.5048   70.8048  -10.7402 O   0  0  0  0  0  0  0  0  0  0  0  0
   17.5138   70.8578   -7.1970 N   0  0  0  0  0  0  0  0  0  0  0  0
   17.9019   71.7495   -9.3651 N   0  0  0  0  0  0  0  0  0  0  0  0
   17.1761   71.8288   -8.1693 C   0  0  0  0  0  0  0  0  0  0  0  0
   18.5037   69.9195   -7.4627 C   0  0  0  0  0  0  0  0  0  0  0  0
   19.1869   69.8565   -8.6072 C   0  0  0  0  0  0  0  0  0  0  0  0
   18.8947   70.8344   -9.6758 C   0  0  0  0  0  0  0  0  0  0  0  0
   17.6830   72.4138  -10.0580 H   0  0  0  0  0  0  0  0  0  0  0  0
   21.9392   73.6895   -3.7731 O   0  0  0  0  0  0  0  0  0  0  0  0
   23.4293   73.2789   -3.2991 P   0  0  2  0  0  0  0  0  0  0  0  0
   24.0124   74.6554   -2.6782 O   0  0  0  0  0  0  0  0  0  0  0  0
   24.2779   72.6816   -4.3840 O   0  0  0  0  0  0  0  0  0  0  0  0
   23.2028   72.3198   -2.0218 O   0  0  0  0  0  0  0  0  0  0  0  0
   23.6596   70.0242   -2.3836 O   0  0  0  0  0  0  0  0  0  0  0  0
   21.7832   69.9384    1.2961 O   0  0  0  0  0  0  0  0  0  0  0  0
   20.7737   71.6551   -0.8413 O   0  0  0  0  0  0  0  0  0  0  0  0
   24.6663   69.6104    1.1203 O   0  0  0  0  0  0  0  0  0  0  0  0
   22.5951   70.4906    0.2599 C   0  0  2  0  0  0  0  0  0  0  0  0
   21.7634   70.6474   -1.0134 C   0  0  2  0  0  0  0  0  0  0  0  0
   23.7659   69.5356    0.0167 C   0  0  1  0  0  0  0  0  0  0  0  0
   22.6495   71.0177   -2.2036 C   0  0  1  0  0  0  0  0  0  0  0  0
   24.5244   69.8971   -1.2571 C   0  0  1  0  0  0  0  0  0  0  0  0
   21.0325   70.5284    1.4680 H   0  0  0  0  0  0  0  0  0  0  0  0
   20.2080   71.4267   -0.0875 H   0  0  0  0  0  0  0  0  0  0  0  0
   24.1959   69.3827    1.9374 H   0  0  0  0  0  0  0  0  0  0  0  0
   25.9157   68.9932   -2.9150 O   0  0  0  0  0  0  0  0  0  0  0  0
   25.7304   67.8280   -0.9638 O   0  0  0  0  0  0  0  0  0  0  0  0
   25.4410   68.7886   -1.6613 C   0  0  0  0  0  0  0  0  0  0  0  0
  1  4  1  0
  1 24  1  0
  1  2  1  6
  1  3  2  0
 25 28  1  0
 25 24  1  0
 25 26  1  1
 25 27  2  0
  6 11  1  0
  6 12  1  0
 29 36  1  0
 29 37  1  0
  9  7  1  6
  7 13  1  0
 10  8  1  6
  8 14  1  0
  4  5  1  0
 36 28  1  1
 33 30  1  1
 30 38  1  0
 34 31  1  1
 31 39  1  0
 35 32  1  1
 32 40  1  0
 41 43  1  0
 15 19  2  0
 42 43  2  0
 16 22  2  0
 12 17  1  6
 17 19  1  0
 17 20  1  0
 18 19  1  0
 18 22  1  0
 18 23  1  0
  9 10  1  0
  9 11  1  0
 10 12  1  0
 11  5  1  6
 33 34  1  0
 33 35  1  0
 34 36  1  0
 35 37  1  0
 37 43  1  6
 20 21  2  0
 21 22  1  0
M  CHG  3   2  -1  26  -1  41  -1
M  END
>  <COMPND>  (73) 
    udp_gluA.pdb 

>  <AUTHOR>  (73) 
    GENERATED BY OPEN BABEL 3.1.1

>  <MASTER>  (73) 
        0    0    0    0    0    0    0    0   56    0   56    0

>  <minimizedAffinity>  (73) 
-8.63527

>  <CNNscore>  (73) 
0.5445600152

>  <CNNaffinity>  (73) 
4.3726963997

>  <CNN_VS>  (73) 
2.3811955452

>  <CNNaffinity_variance>  (73) 
0.2355640382

$$$$
74
     RDKit          3D

 43 45  0  0  0  0  0  0  0  0999 V2000
   21.4336   73.6646   -3.1785 P   0  0  2  0  0  0  0  0  0  0  0  0
   22.9199   74.2537   -3.4288 O   0  0  0  0  0  0  0  0  0  0  0  0
   20.4089   74.6826   -2.7716 O   0  0  0  0  0  0  0  0  0  0  0  0
   21.6680   72.4486   -2.1371 O   0  0  0  0  0  0  0  0  0  0  0  0
   22.9296   72.3335   -1.5050 C   0  0  0  0  0  0  0  0  0  0  0  0
   24.1366   71.1215    0.1838 O   0  0  0  0  0  0  0  0  0  0  0  0
   21.5254   69.8006    0.8383 O   0  0  0  0  0  0  0  0  0  0  0  0
   21.7495   71.6819    2.7995 O   0  0  0  0  0  0  0  0  0  0  0  0
   21.7806   71.1442    0.4284 C   0  0  1  0  0  0  0  0  0  0  0  0
   22.3924   71.9323    1.5672 C   0  0  2  0  0  0  0  0  0  0  0  0
   22.9152   71.1183   -0.5866 C   0  0  1  0  0  0  0  0  0  0  0  0
   23.8318   71.4468    1.5493 C   0  0  2  0  0  0  0  0  0  0  0  0
   20.8039   69.7916    1.4872 H   0  0  0  0  0  0  0  0  0  0  0  0
   20.8367   72.0093    2.7604 H   0  0  0  0  0  0  0  0  0  0  0  0
   26.4153   70.8972    2.5492 O   0  0  0  0  0  0  0  0  0  0  0  0
   27.2815   75.3648    3.2803 O   0  0  0  0  0  0  0  0  0  0  0  0
   24.7534   72.4475    2.0078 N   0  0  0  0  0  0  0  0  0  0  0  0
   26.8439   73.1228    2.9133 N   0  0  0  0  0  0  0  0  0  0  0  0
   26.0270   72.0655    2.4915 C   0  0  0  0  0  0  0  0  0  0  0  0
   24.3936   73.7893    1.9742 C   0  0  0  0  0  0  0  0  0  0  0  0
   25.1831   74.7858    2.3796 C   0  0  0  0  0  0  0  0  0  0  0  0
   26.5301   74.4722    2.8998 C   0  0  0  0  0  0  0  0  0  0  0  0
   27.7347   72.8814    3.2561 H   0  0  0  0  0  0  0  0  0  0  0  0
   21.1086   72.8987   -4.5643 O   0  0  0  0  0  0  0  0  0  0  0  0
   20.7027   73.4683   -6.0219 P   0  0  2  0  0  0  0  0  0  0  0  0
   21.9835   73.0897   -6.9367 O   0  0  0  0  0  0  0  0  0  0  0  0
   20.3425   74.9257   -6.0351 O   0  0  0  0  0  0  0  0  0  0  0  0
   19.5314   72.4844   -6.5341 O   0  0  0  0  0  0  0  0  0  0  0  0
   18.9043   70.2788   -5.9416 O   0  0  0  0  0  0  0  0  0  0  0  0
   18.2020   70.2874  -10.0128 O   0  0  0  0  0  0  0  0  0  0  0  0
   20.6036   71.5429   -8.9216 O   0  0  0  0  0  0  0  0  0  0  0  0
   15.9780   70.4535   -8.1481 O   0  0  0  0  0  0  0  0  0  0  0  0
   18.2884   70.8511   -8.7041 C   0  0  2  0  0  0  0  0  0  0  0  0
   19.7179   70.7119   -8.1802 C   0  0  2  0  0  0  0  0  0  0  0  0
   17.3136   70.0953   -7.7983 C   0  0  1  0  0  0  0  0  0  0  0  0
   19.7982   71.0931   -6.7013 C   0  0  1  0  0  0  0  0  0  0  0  0
   17.5409   70.4359   -6.3283 C   0  0  1  0  0  0  0  0  0  0  0  0
   18.8131   70.7519  -10.6061 H   0  0  0  0  0  0  0  0  0  0  0  0
   20.5575   71.3067   -9.8610 H   0  0  0  0  0  0  0  0  0  0  0  0
   15.8204   70.2420   -9.0815 H   0  0  0  0  0  0  0  0  0  0  0  0
   16.8973   69.8612   -4.1472 O   0  0  0  0  0  0  0  0  0  0  0  0
   16.2547   68.4574   -5.8252 O   0  0  0  0  0  0  0  0  0  0  0  0
   16.8272   69.4669   -5.4428 C   0  0  0  0  0  0  0  0  0  0  0  0
  1  4  1  0
  1 24  1  0
  1  2  1  6
  1  3  2  0
 25 28  1  0
 25 24  1  0
 25 26  1  6
 25 27  2  0
  6 11  1  0
  6 12  1  0
 29 36  1  0
 29 37  1  0
  9  7  1  1
  7 13  1  0
 10  8  1  1
  8 14  1  0
  4  5  1  0
 36 28  1  6
 33 30  1  6
 30 38  1  0
 34 31  1  6
 31 39  1  0
 35 32  1  6
 32 40  1  0
 41 43  1  0
 15 19  2  0
 42 43  2  0
 16 22  2  0
 12 17  1  6
 17 19  1  0
 17 20  1  0
 18 19  1  0
 18 22  1  0
 18 23  1  0
  9 10  1  0
  9 11  1  0
 10 12  1  0
 11  5  1  6
 33 34  1  0
 33 35  1  0
 34 36  1  0
 35 37  1  0
 37 43  1  1
 20 21  2  0
 21 22  1  0
M  CHG  3   2  -1  26  -1  41  -1
M  END
>  <COMPND>  (74) 
    udp_gluA.pdb 

>  <AUTHOR>  (74) 
    GENERATED BY OPEN BABEL 3.1.1

>  <MASTER>  (74) 
        0    0    0    0    0    0    0    0   56    0   56    0

>  <minimizedAffinity>  (74) 
-7.25254

>  <CNNscore>  (74) 
0.5201606154

>  <CNNaffinity>  (74) 
4.2445602417

>  <CNN_VS>  (74) 
2.2078530788

>  <CNNaffinity_variance>  (74) 
0.0858402699

$$$$
75
     RDKit          3D

 43 45  0  0  0  0  0  0  0  0999 V2000
   21.5938   72.7057   -5.3836 P   0  0  2  0  0  0  0  0  0  0  0  0
   21.1943   74.2736   -5.4193 O   0  0  0  0  0  0  0  0  0  0  0  0
   22.9171   72.3747   -6.0090 O   0  0  0  0  0  0  0  0  0  0  0  0
   20.3078   71.9625   -6.0253 O   0  0  0  0  0  0  0  0  0  0  0  0
   20.0573   72.1193   -7.4099 C   0  0  0  0  0  0  0  0  0  0  0  0
   18.8167   70.1423   -6.8356 O   0  0  0  0  0  0  0  0  0  0  0  0
   18.1354   69.9488   -9.7493 O   0  0  0  0  0  0  0  0  0  0  0  0
   15.8696   71.0229   -8.6777 O   0  0  0  0  0  0  0  0  0  0  0  0
   18.2863   71.1095   -8.9317 C   0  0  1  0  0  0  0  0  0  0  0  0
   17.0926   71.2623   -8.0131 C   0  0  2  0  0  0  0  0  0  0  0  0
   19.4157   70.8458   -7.9454 C   0  0  1  0  0  0  0  0  0  0  0  0
   17.3866   70.2286   -6.9393 C   0  0  2  0  0  0  0  0  0  0  0  0
   17.4191   70.0935  -10.3878 H   0  0  0  0  0  0  0  0  0  0  0  0
   15.7281   71.7076   -9.3508 H   0  0  0  0  0  0  0  0  0  0  0  0
   16.6011   68.3862   -4.9480 O   0  0  0  0  0  0  0  0  0  0  0  0
   15.3300   71.7570   -2.0730 O   0  0  0  0  0  0  0  0  0  0  0  0
   16.8472   70.5974   -5.6611 N   0  0  0  0  0  0  0  0  0  0  0  0
   15.9678   70.0668   -3.5184 N   0  0  0  0  0  0  0  0  0  0  0  0
   16.4838   69.5939   -4.7322 C   0  0  0  0  0  0  0  0  0  0  0  0
   16.6845   71.9391   -5.3380 C   0  0  0  0  0  0  0  0  0  0  0  0
   16.1915   72.3745   -4.1769 C   0  0  0  0  0  0  0  0  0  0  0  0
   15.7866   71.3905   -3.1516 C   0  0  0  0  0  0  0  0  0  0  0  0
   15.7058   69.3867   -2.8565 H   0  0  0  0  0  0  0  0  0  0  0  0
   21.4802   72.3380   -3.8137 O   0  0  0  0  0  0  0  0  0  0  0  0
   20.6998   71.1409   -3.0577 P   0  0  2  0  0  0  0  0  0  0  0  0
   20.8833   69.8863   -4.0639 O   0  0  0  0  0  0  0  0  0  0  0  0
   19.2722   71.4558   -2.7160 O   0  0  0  0  0  0  0  0  0  0  0  0
   21.6290   70.7840   -1.7882 O   0  0  0  0  0  0  0  0  0  0  0  0
   22.7922   71.8268   -0.0081 O   0  0  0  0  0  0  0  0  0  0  0  0
   25.7478   69.4731   -1.6791 O   0  0  0  0  0  0  0  0  0  0  0  0
   23.9006   70.9625   -3.3832 O   0  0  0  0  0  0  0  0  0  0  0  0
   24.4823   68.6755    0.8135 O   0  0  0  0  0  0  0  0  0  0  0  0
   24.4147   69.8209   -1.3051 C   0  0  2  0  0  0  0  0  0  0  0  0
   24.0219   71.1372   -1.9762 C   0  0  2  0  0  0  0  0  0  0  0  0
   24.3737   69.9669    0.2177 C   0  0  1  0  0  0  0  0  0  0  0  0
   22.6949   71.6587   -1.4229 C   0  0  1  0  0  0  0  0  0  0  0  0
   23.0694   70.6096    0.6808 C   0  0  1  0  0  0  0  0  0  0  0  0
   25.7982   69.3750   -2.6430 H   0  0  0  0  0  0  0  0  0  0  0  0
   24.7390   70.6315   -3.7409 H   0  0  0  0  0  0  0  0  0  0  0  0
   25.3082   68.2555    0.5267 H   0  0  0  0  0  0  0  0  0  0  0  0
   22.1286   71.8501    2.4351 O   0  0  0  0  0  0  0  0  0  0  0  0
   24.0625   70.7257    2.8766 O   0  0  0  0  0  0  0  0  0  0  0  0
   23.1699   71.0462    2.1061 C   0  0  0  0  0  0  0  0  0  0  0  0
  1  4  1  0
  1 24  1  0
  1  2  1  1
  1  3  2  0
 25 28  1  0
 25 24  1  0
 25 26  1  6
 25 27  2  0
  6 11  1  0
  6 12  1  0
 29 36  1  0
 29 37  1  0
  9  7  1  6
  7 13  1  0
 10  8  1  6
  8 14  1  0
  4  5  1  0
 36 28  1  1
 33 30  1  6
 30 38  1  0
 34 31  1  6
 31 39  1  0
 35 32  1  1
 32 40  1  0
 41 43  1  0
 15 19  2  0
 42 43  2  0
 16 22  2  0
 12 17  1  1
 17 19  1  0
 17 20  1  0
 18 19  1  0
 18 22  1  0
 18 23  1  0
  9 10  1  0
  9 11  1  0
 10 12  1  0
 11  5  1  1
 33 34  1  0
 33 35  1  0
 34 36  1  0
 35 37  1  0
 37 43  1  1
 20 21  2  0
 21 22  1  0
M  CHG  3   2  -1  26  -1  41  -1
M  END
>  <COMPND>  (75) 
    udp_gluA.pdb 

>  <AUTHOR>  (75) 
    GENERATED BY OPEN BABEL 3.1.1

>  <MASTER>  (75) 
        0    0    0    0    0    0    0    0   56    0   56    0

>  <minimizedAffinity>  (75) 
-7.81998

>  <CNNscore>  (75) 
0.5168882608

>  <CNNaffinity>  (75) 
4.2496895790

>  <CNN_VS>  (75) 
2.1966147423

>  <CNNaffinity_variance>  (75) 
0.2512724698

$$$$
76
     RDKit          3D

 43 45  0  0  0  0  0  0  0  0999 V2000
   23.1068   72.5922   -3.5101 P   0  0  2  0  0  0  0  0  0  0  0  0
   22.7651   71.0188   -3.3479 O   0  0  0  0  0  0  0  0  0  0  0  0
   24.4310   72.8903   -4.1500 O   0  0  0  0  0  0  0  0  0  0  0  0
   22.8948   73.1913   -2.0222 O   0  0  0  0  0  0  0  0  0  0  0  0
   22.5226   72.3046   -0.9830 C   0  0  0  0  0  0  0  0  0  0  0  0
   20.6741   71.8802    0.4936 O   0  0  0  0  0  0  0  0  0  0  0  0
   19.0304   73.5362   -1.3899 O   0  0  0  0  0  0  0  0  0  0  0  0
   19.5476   75.2807    0.6412 O   0  0  0  0  0  0  0  0  0  0  0  0
   20.3941   73.6979   -0.9991 C   0  0  1  0  0  0  0  0  0  0  0  0
   20.4741   74.2396    0.4124 C   0  0  2  0  0  0  0  0  0  0  0  0
   21.0058   72.3123   -0.8438 C   0  0  1  0  0  0  0  0  0  0  0  0
   20.1795   73.0018    1.2424 C   0  0  2  0  0  0  0  0  0  0  0  0
   18.6183   74.4083   -1.4954 H   0  0  0  0  0  0  0  0  0  0  0  0
   19.7783   76.0456    0.0902 H   0  0  0  0  0  0  0  0  0  0  0  0
   19.1588   74.3251    3.5192 O   0  0  0  0  0  0  0  0  0  0  0  0
   22.7603   73.0529    6.0988 O   0  0  0  0  0  0  0  0  0  0  0  0
   20.8300   73.0324    2.5218 N   0  0  0  0  0  0  0  0  0  0  0  0
   20.9540   73.6911    4.8015 N   0  0  0  0  0  0  0  0  0  0  0  0
   20.2327   73.7259    3.6009 C   0  0  0  0  0  0  0  0  0  0  0  0
   22.0439   72.3796    2.6986 C   0  0  0  0  0  0  0  0  0  0  0  0
   22.7195   72.3551    3.8491 C   0  0  0  0  0  0  0  0  0  0  0  0
   22.1648   73.0561    5.0257 C   0  0  0  0  0  0  0  0  0  0  0  0
   20.5591   74.1686    5.5666 H   0  0  0  0  0  0  0  0  0  0  0  0
   21.8263   73.1604   -4.3165 O   0  0  0  0  0  0  0  0  0  0  0  0
   21.4715   73.1423   -5.8937 P   0  0  2  0  0  0  0  0  0  0  0  0
   22.5911   72.1508   -6.5132 O   0  0  0  0  0  0  0  0  0  0  0  0
   21.4282   74.5011   -6.5308 O   0  0  0  0  0  0  0  0  0  0  0  0
   20.0921   72.3118   -5.9934 O   0  0  0  0  0  0  0  0  0  0  0  0
   19.4346   70.1536   -5.2732 O   0  0  0  0  0  0  0  0  0  0  0  0
   17.4711   70.4658   -8.8947 O   0  0  0  0  0  0  0  0  0  0  0  0
   20.2250   71.4004   -8.6179 O   0  0  0  0  0  0  0  0  0  0  0  0
   15.9972   70.7569   -6.4059 O   0  0  0  0  0  0  0  0  0  0  0  0
   18.0374   70.9425   -7.6740 C   0  0  2  0  0  0  0  0  0  0  0  0
   19.5329   70.6256   -7.6457 C   0  0  2  0  0  0  0  0  0  0  0  0
   17.3229   70.2422   -6.5160 C   0  0  1  0  0  0  0  0  0  0  0  0
   20.1267   70.9120   -6.2657 C   0  0  1  0  0  0  0  0  0  0  0  0
   18.0474   70.4735   -5.1930 C   0  0  1  0  0  0  0  0  0  0  0  0
   17.9097   70.8970   -9.6450 H   0  0  0  0  0  0  0  0  0  0  0  0
   19.8532   71.2239   -9.4959 H   0  0  0  0  0  0  0  0  0  0  0  0
   15.5253   70.6161   -7.2416 H   0  0  0  0  0  0  0  0  0  0  0  0
   18.3925   69.5082   -3.0834 O   0  0  0  0  0  0  0  0  0  0  0  0
   16.5176   68.8816   -4.2198 O   0  0  0  0  0  0  0  0  0  0  0  0
   17.5469   69.5356   -4.1432 C   0  0  0  0  0  0  0  0  0  0  0  0
  1  4  1  0
  1 24  1  0
  1  2  1  1
  1  3  2  0
 25 28  1  0
 25 24  1  0
 25 26  1  6
 25 27  2  0
  6 11  1  0
  6 12  1  0
 29 36  1  0
 29 37  1  0
  9  7  1  1
  7 13  1  0
 10  8  1  6
  8 14  1  0
  4  5  1  0
 36 28  1  1
 33 30  1  6
 30 38  1  0
 34 31  1  6
 31 39  1  0
 35 32  1  1
 32 40  1  0
 41 43  1  0
 15 19  2  0
 42 43  2  0
 16 22  2  0
 12 17  1  1
 17 19  1  0
 17 20  1  0
 18 19  1  0
 18 22  1  0
 18 23  1  0
  9 10  1  0
  9 11  1  0
 10 12  1  0
 11  5  1  1
 33 34  1  0
 33 35  1  0
 34 36  1  0
 35 37  1  0
 37 43  1  1
 20 21  2  0
 21 22  1  0
M  CHG  3   2  -1  26  -1  41  -1
M  END
>  <COMPND>  (76) 
    udp_gluA.pdb 

>  <AUTHOR>  (76) 
    GENERATED BY OPEN BABEL 3.1.1

>  <MASTER>  (76) 
        0    0    0    0    0    0    0    0   56    0   56    0

>  <minimizedAffinity>  (76) 
-6.74966

>  <CNNscore>  (76) 
0.4841755927

>  <CNNaffinity>  (76) 
4.0510196686

>  <CNN_VS>  (76) 
1.9614048004

>  <CNNaffinity_variance>  (76) 
0.0918540284

$$$$
77
     RDKit          3D

 43 45  0  0  0  0  0  0  0  0999 V2000
   22.8365   72.4301   -3.6041 P   0  0  2  0  0  0  0  0  0  0  0  0
   22.1726   70.9543   -3.6185 O   0  0  0  0  0  0  0  0  0  0  0  0
   24.2666   72.4860   -4.0552 O   0  0  0  0  0  0  0  0  0  0  0  0
   22.5507   72.9700   -2.1059 O   0  0  0  0  0  0  0  0  0  0  0  0
   23.4501   72.6085   -1.0739 C   0  0  0  0  0  0  0  0  0  0  0  0
   22.6907   70.3863   -0.5608 O   0  0  0  0  0  0  0  0  0  0  0  0
   22.4429   71.3265    2.2757 O   0  0  0  0  0  0  0  0  0  0  0  0
   24.7936   69.9447    2.3092 O   0  0  0  0  0  0  0  0  0  0  0  0
   23.4176   71.6717    1.2912 C   0  0  1  0  0  0  0  0  0  0  0  0
   24.3862   70.5259    1.0882 C   0  0  2  0  0  0  0  0  0  0  0  0
   22.7175   71.7402   -0.0591 C   0  0  1  0  0  0  0  0  0  0  0  0
   23.5720   69.5730    0.2299 C   0  0  2  0  0  0  0  0  0  0  0  0
   22.8667   71.2767    3.1473 H   0  0  0  0  0  0  0  0  0  0  0  0
   25.3083   70.5906    2.8189 H   0  0  0  0  0  0  0  0  0  0  0  0
   24.2543   66.8700    0.6824 O   0  0  0  0  0  0  0  0  0  0  0  0
   26.7304   66.6552   -3.1991 O   0  0  0  0  0  0  0  0  0  0  0  0
   24.3935   68.7867   -0.6463 N   0  0  0  0  0  0  0  0  0  0  0  0
   25.4877   66.7659   -1.2507 N   0  0  0  0  0  0  0  0  0  0  0  0
   24.6764   67.4376   -0.3268 C   0  0  0  0  0  0  0  0  0  0  0  0
   24.9078   69.3513   -1.8071 C   0  0  0  0  0  0  0  0  0  0  0  0
   25.6796   68.6984   -2.6782 C   0  0  0  0  0  0  0  0  0  0  0  0
   26.0234   67.2850   -2.4183 C   0  0  0  0  0  0  0  0  0  0  0  0
   25.7001   65.8260   -1.0487 H   0  0  0  0  0  0  0  0  0  0  0  0
   21.8120   73.2976   -4.5045 O   0  0  0  0  0  0  0  0  0  0  0  0
   21.4557   73.2198   -6.0796 P   0  0  2  0  0  0  0  0  0  0  0  0
   22.6097   72.2518   -6.6724 O   0  0  0  0  0  0  0  0  0  0  0  0
   21.3619   74.5566   -6.7564 O   0  0  0  0  0  0  0  0  0  0  0  0
   20.1073   72.3371   -6.1511 O   0  0  0  0  0  0  0  0  0  0  0  0
   19.5078   70.1438   -5.4886 O   0  0  0  0  0  0  0  0  0  0  0  0
   17.5752   70.4816   -9.1243 O   0  0  0  0  0  0  0  0  0  0  0  0
   20.2963   71.4920   -8.7942 O   0  0  0  0  0  0  0  0  0  0  0  0
   16.0663   70.6697   -6.6467 O   0  0  0  0  0  0  0  0  0  0  0  0
   18.1135   70.9463   -7.8865 C   0  0  2  0  0  0  0  0  0  0  0  0
   19.6175   70.6741   -7.8482 C   0  0  2  0  0  0  0  0  0  0  0  0
   17.4081   70.1979   -6.7533 C   0  0  1  0  0  0  0  0  0  0  0  0
   20.1873   70.9458   -6.4553 C   0  0  1  0  0  0  0  0  0  0  0  0
   18.1108   70.4198   -5.4171 C   0  0  1  0  0  0  0  0  0  0  0  0
   18.0086   70.9433   -9.8593 H   0  0  0  0  0  0  0  0  0  0  0  0
   19.9395   71.3250   -9.6803 H   0  0  0  0  0  0  0  0  0  0  0  0
   15.6079   70.5344   -7.4908 H   0  0  0  0  0  0  0  0  0  0  0  0
   18.6278   69.1079   -3.5428 O   0  0  0  0  0  0  0  0  0  0  0  0
   16.4896   69.0033   -4.3277 O   0  0  0  0  0  0  0  0  0  0  0  0
   17.6277   69.4429   -4.3950 C   0  0  0  0  0  0  0  0  0  0  0  0
  1  4  1  0
  1 24  1  0
  1  2  1  1
  1  3  2  0
 25 28  1  0
 25 24  1  0
 25 26  1  6
 25 27  2  0
  6 11  1  0
  6 12  1  0
 29 36  1  0
 29 37  1  0
  9  7  1  1
  7 13  1  0
 10  8  1  1
  8 14  1  0
  4  5  1  0
 36 28  1  1
 33 30  1  6
 30 38  1  0
 34 31  1  6
 31 39  1  0
 35 32  1  1
 32 40  1  0
 41 43  1  0
 15 19  2  0
 42 43  2  0
 16 22  2  0
 12 17  1  6
 17 19  1  0
 17 20  1  0
 18 19  1  0
 18 22  1  0
 18 23  1  0
  9 10  1  0
  9 11  1  0
 10 12  1  0
 11  5  1  6
 33 34  1  0
 33 35  1  0
 34 36  1  0
 35 37  1  0
 37 43  1  1
 20 21  2  0
 21 22  1  0
M  CHG  3   2  -1  26  -1  41  -1
M  END
>  <COMPND>  (77) 
    udp_gluA.pdb 

>  <AUTHOR>  (77) 
    GENERATED BY OPEN BABEL 3.1.1

>  <MASTER>  (77) 
        0    0    0    0    0    0    0    0   56    0   56    0

>  <minimizedAffinity>  (77) 
-8.97356

>  <CNNscore>  (77) 
0.4729744494

>  <CNNaffinity>  (77) 
4.4595518112

>  <CNN_VS>  (77) 
2.1092541218

>  <CNNaffinity_variance>  (77) 
0.2689636052

$$$$
78
     RDKit          3D

 43 45  0  0  0  0  0  0  0  0999 V2000
   20.2064   71.1711   -1.4325 P   0  0  2  0  0  0  0  0  0  0  0  0
   21.5045   70.7191   -2.2866 O   0  0  0  0  0  0  0  0  0  0  0  0
   19.7976   72.6039   -1.6116 O   0  0  0  0  0  0  0  0  0  0  0  0
   20.5633   70.7263    0.0816 O   0  0  0  0  0  0  0  0  0  0  0  0
   21.2001   71.6644    0.9296 C   0  0  0  0  0  0  0  0  0  0  0  0
   23.2471   72.8795    1.2626 O   0  0  0  0  0  0  0  0  0  0  0  0
   24.6314   70.5147    0.0451 O   0  0  0  0  0  0  0  0  0  0  0  0
   25.0539   70.1437    2.7134 O   0  0  0  0  0  0  0  0  0  0  0  0
   23.4876   70.5513    0.8988 C   0  0  1  0  0  0  0  0  0  0  0  0
   23.9044   70.8639    2.3204 C   0  0  2  0  0  0  0  0  0  0  0  0
   22.6657   71.7789    0.5305 C   0  0  1  0  0  0  0  0  0  0  0  0
   24.1468   72.3623    2.2557 C   0  0  2  0  0  0  0  0  0  0  0  0
   25.1722   69.7385    0.2616 H   0  0  0  0  0  0  0  0  0  0  0  0
   24.8481   69.1956    2.7396 H   0  0  0  0  0  0  0  0  0  0  0  0
   25.7853   74.3681    3.3820 O   0  0  0  0  0  0  0  0  0  0  0  0
   23.0463   74.7936    7.0645 O   0  0  0  0  0  0  0  0  0  0  0  0
   23.8853   73.0142    3.5076 N   0  0  0  0  0  0  0  0  0  0  0  0
   24.4201   74.5774    5.2155 N   0  0  0  0  0  0  0  0  0  0  0  0
   24.7717   74.0089    3.9841 C   0  0  0  0  0  0  0  0  0  0  0  0
   22.7615   72.6685    4.2482 C   0  0  0  0  0  0  0  0  0  0  0  0
   22.4395   73.2193    5.4203 C   0  0  0  0  0  0  0  0  0  0  0  0
   23.3136   74.2661    5.9891 C   0  0  0  0  0  0  0  0  0  0  0  0
   25.0232   75.2708    5.5687 H   0  0  0  0  0  0  0  0  0  0  0  0
   19.0874   70.0915   -1.8742 O   0  0  0  0  0  0  0  0  0  0  0  0
   17.7977   70.2336   -2.8387 P   0  0  2  0  0  0  0  0  0  0  0  0
   16.7679   71.1131   -1.9521 O   0  0  0  0  0  0  0  0  0  0  0  0
   17.2397   68.9247   -3.3176 O   0  0  0  0  0  0  0  0  0  0  0  0
   18.2744   71.2288   -4.0155 O   0  0  0  0  0  0  0  0  0  0  0  0
   18.3267   70.2318   -6.1632 O   0  0  0  0  0  0  0  0  0  0  0  0
   20.1785   73.8560   -6.8734 O   0  0  0  0  0  0  0  0  0  0  0  0
   20.7904   72.3282   -4.4597 O   0  0  0  0  0  0  0  0  0  0  0  0
   17.4352   73.4257   -7.7338 O   0  0  0  0  0  0  0  0  0  0  0  0
   19.2656   72.9615   -6.2373 C   0  0  2  0  0  0  0  0  0  0  0  0
   20.0429   71.8305   -5.5635 C   0  0  2  0  0  0  0  0  0  0  0  0
   18.3300   72.3990   -7.3098 C   0  0  1  0  0  0  0  0  0  0  0  0
   19.0971   70.7344   -5.0708 C   0  0  1  0  0  0  0  0  0  0  0  0
   17.5106   71.2278   -6.7755 C   0  0  1  0  0  0  0  0  0  0  0  0
   20.7834   74.2259   -6.2112 H   0  0  0  0  0  0  0  0  0  0  0  0
   21.3925   73.0244   -4.7650 H   0  0  0  0  0  0  0  0  0  0  0  0
   17.9442   74.1772   -8.0759 H   0  0  0  0  0  0  0  0  0  0  0  0
   17.7505   69.6823   -8.5235 O   0  0  0  0  0  0  0  0  0  0  0  0
   15.6781   70.5780   -8.2042 O   0  0  0  0  0  0  0  0  0  0  0  0
   16.8562   70.4843   -7.8941 C   0  0  0  0  0  0  0  0  0  0  0  0
  1  4  1  0
  1 24  1  0
  1  2  1  6
  1  3  2  0
 25 28  1  0
 25 24  1  0
 25 26  1  1
 25 27  2  0
  6 11  1  0
  6 12  1  0
 29 36  1  0
 29 37  1  0
  9  7  1  6
  7 13  1  0
 10  8  1  6
  8 14  1  0
  4  5  1  0
 36 28  1  1
 33 30  1  6
 30 38  1  0
 34 31  1  1
 31 39  1  0
 35 32  1  1
 32 40  1  0
 41 43  1  0
 15 19  2  0
 42 43  2  0
 16 22  2  0
 12 17  1  1
 17 19  1  0
 17 20  1  0
 18 19  1  0
 18 22  1  0
 18 23  1  0
  9 10  1  0
  9 11  1  0
 10 12  1  0
 11  5  1  1
 33 34  1  0
 33 35  1  0
 34 36  1  0
 35 37  1  0
 37 43  1  6
 20 21  2  0
 21 22  1  0
M  CHG  3   2  -1  26  -1  41  -1
M  END
>  <COMPND>  (78) 
    udp_gluA.pdb 

>  <AUTHOR>  (78) 
    GENERATED BY OPEN BABEL 3.1.1

>  <MASTER>  (78) 
        0    0    0    0    0    0    0    0   56    0   56    0

>  <minimizedAffinity>  (78) 
-6.85334

>  <CNNscore>  (78) 
0.4624747634

>  <CNNaffinity>  (78) 
3.9495480061

>  <CNN_VS>  (78) 
1.8265663385

>  <CNNaffinity_variance>  (78) 
0.0081349667

$$$$
79
     RDKit          3D

 43 45  0  0  0  0  0  0  0  0999 V2000
   18.7697   75.9586   -5.7632 P   0  0  2  0  0  0  0  0  0  0  0  0
   17.7525   76.6226   -6.8325 O   0  0  0  0  0  0  0  0  0  0  0  0
   19.0713   76.8083   -4.5637 O   0  0  0  0  0  0  0  0  0  0  0  0
   20.0470   75.5275   -6.6579 O   0  0  0  0  0  0  0  0  0  0  0  0
   21.3422   75.8554   -6.1896 C   0  0  0  0  0  0  0  0  0  0  0  0
   23.0672   74.3159   -5.5325 O   0  0  0  0  0  0  0  0  0  0  0  0
   22.5847   72.9451   -8.1554 O   0  0  0  0  0  0  0  0  0  0  0  0
   21.2459   71.3504   -6.3945 O   0  0  0  0  0  0  0  0  0  0  0  0
   21.6500   73.5781   -7.2812 C   0  0  1  0  0  0  0  0  0  0  0  0
   21.4039   72.7141   -6.0626 C   0  0  2  0  0  0  0  0  0  0  0  0
   22.3272   74.7994   -6.6744 C   0  0  1  0  0  0  0  0  0  0  0  0
   22.6510   72.9737   -5.2348 C   0  0  2  0  0  0  0  0  0  0  0  0
   22.1746   72.1617   -8.5552 H   0  0  0  0  0  0  0  0  0  0  0  0
   20.4384   71.2373   -6.9208 H   0  0  0  0  0  0  0  0  0  0  0  0
   24.2507   71.4794   -3.4503 O   0  0  0  0  0  0  0  0  0  0  0  0
   21.6150   72.6196    0.1549 O   0  0  0  0  0  0  0  0  0  0  0  0
   22.4056   72.8629   -3.8247 N   0  0  0  0  0  0  0  0  0  0  0  0
   22.9359   72.0479   -1.6566 N   0  0  0  0  0  0  0  0  0  0  0  0
   23.2699   72.0869   -3.0167 C   0  0  0  0  0  0  0  0  0  0  0  0
   21.3210   73.5193   -3.2558 C   0  0  0  0  0  0  0  0  0  0  0  0
   21.0154   73.4728   -1.9576 C   0  0  0  0  0  0  0  0  0  0  0  0
   21.8675   72.6831   -1.0445 C   0  0  0  0  0  0  0  0  0  0  0  0
   23.5218   71.5122   -1.0743 H   0  0  0  0  0  0  0  0  0  0  0  0
   18.0677   74.5423   -5.4257 O   0  0  0  0  0  0  0  0  0  0  0  0
   16.7868   73.8086   -6.0852 P   0  0  2  0  0  0  0  0  0  0  0  0
   17.2162   73.6387   -7.6367 O   0  0  0  0  0  0  0  0  0  0  0  0
   15.4882   74.5332   -5.8787 O   0  0  0  0  0  0  0  0  0  0  0  0
   16.8202   72.3108   -5.4871 O   0  0  0  0  0  0  0  0  0  0  0  0
   18.7802   71.0136   -5.1957 O   0  0  0  0  0  0  0  0  0  0  0  0
   15.8750   68.0916   -5.4955 O   0  0  0  0  0  0  0  0  0  0  0  0
   15.8251   70.4164   -7.2639 O   0  0  0  0  0  0  0  0  0  0  0  0
   17.0167   68.7538   -2.9053 O   0  0  0  0  0  0  0  0  0  0  0  0
   16.4050   69.3719   -5.1523 C   0  0  2  0  0  0  0  0  0  0  0  0
   16.9126   70.0706   -6.4139 C   0  0  2  0  0  0  0  0  0  0  0  0
   17.5532   69.1588   -4.1633 C   0  0  1  0  0  0  0  0  0  0  0  0
   17.6917   71.3384   -6.0613 C   0  0  1  0  0  0  0  0  0  0  0  0
   18.3587   70.4389   -3.9607 C   0  0  1  0  0  0  0  0  0  0  0  0
   15.1436   68.2019   -6.1234 H   0  0  0  0  0  0  0  0  0  0  0  0
   15.3261   69.6166   -7.4914 H   0  0  0  0  0  0  0  0  0  0  0  0
   16.5014   67.9401   -3.0204 H   0  0  0  0  0  0  0  0  0  0  0  0
   19.4953   70.2091   -1.9218 O   0  0  0  0  0  0  0  0  0  0  0  0
   20.7044   69.8896   -3.8284 O   0  0  0  0  0  0  0  0  0  0  0  0
   19.6502   70.1488   -3.2677 C   0  0  0  0  0  0  0  0  0  0  0  0
  1  4  1  0
  1 24  1  0
  1  2  1  6
  1  3  2  0
 25 28  1  0
 25 24  1  0
 25 26  1  6
 25 27  2  0
  6 11  1  0
  6 12  1  0
 29 36  1  0
 29 37  1  0
  9  7  1  6
  7 13  1  0
 10  8  1  6
  8 14  1  0
  4  5  1  0
 36 28  1  1
 33 30  1  6
 30 38  1  0
 34 31  1  6
 31 39  1  0
 35 32  1  1
 32 40  1  0
 41 43  1  0
 15 19  2  0
 42 43  2  0
 16 22  2  0
 12 17  1  1
 17 19  1  0
 17 20  1  0
 18 19  1  0
 18 22  1  0
 18 23  1  0
  9 10  1  0
  9 11  1  0
 10 12  1  0
 11  5  1  1
 33 34  1  0
 33 35  1  0
 34 36  1  0
 35 37  1  0
 37 43  1  1
 20 21  2  0
 21 22  1  0
M  CHG  3   2  -1  26  -1  41  -1
M  END
>  <COMPND>  (79) 
    udp_gluA.pdb 

>  <AUTHOR>  (79) 
    GENERATED BY OPEN BABEL 3.1.1

>  <MASTER>  (79) 
        0    0    0    0    0    0    0    0   56    0   56    0

>  <minimizedAffinity>  (79) 
-6.06684

>  <CNNscore>  (79) 
0.3763971329

>  <CNNaffinity>  (79) 
3.8112158775

>  <CNN_VS>  (79) 
1.4345307350

>  <CNNaffinity_variance>  (79) 
0.5907052755

$$$$
80
     RDKit          3D

 43 45  0  0  0  0  0  0  0  0999 V2000
   22.6624   72.7078   -3.6756 P   0  0  2  0  0  0  0  0  0  0  0  0
   24.0491   72.4811   -4.4784 O   0  0  0  0  0  0  0  0  0  0  0  0
   22.3382   74.1391   -3.3625 O   0  0  0  0  0  0  0  0  0  0  0  0
   22.7860   71.7202   -2.4000 O   0  0  0  0  0  0  0  0  0  0  0  0
   23.1040   72.2806   -1.1393 C   0  0  0  0  0  0  0  0  0  0  0  0
   22.6178   70.0185   -0.4881 O   0  0  0  0  0  0  0  0  0  0  0  0
   22.4595   71.0579    2.3201 O   0  0  0  0  0  0  0  0  0  0  0  0
   24.9395   69.9266    2.2424 O   0  0  0  0  0  0  0  0  0  0  0  0
   23.3257   71.4553    1.2570 C   0  0  1  0  0  0  0  0  0  0  0  0
   24.3939   70.4064    1.0313 C   0  0  2  0  0  0  0  0  0  0  0  0
   22.5351   71.3896   -0.0426 C   0  0  1  0  0  0  0  0  0  0  0  0
   23.6297   69.3367    0.2699 C   0  0  2  0  0  0  0  0  0  0  0  0
   22.9426   71.0919    3.1611 H   0  0  0  0  0  0  0  0  0  0  0  0
   25.4159   70.6445    2.6892 H   0  0  0  0  0  0  0  0  0  0  0  0
   24.3204   66.6180    0.5992 O   0  0  0  0  0  0  0  0  0  0  0  0
   26.8605   66.6087   -3.2468 O   0  0  0  0  0  0  0  0  0  0  0  0
   24.4700   68.5990   -0.6304 N   0  0  0  0  0  0  0  0  0  0  0  0
   25.5857   66.6162   -1.3161 N   0  0  0  0  0  0  0  0  0  0  0  0
   24.7555   67.2372   -0.3736 C   0  0  0  0  0  0  0  0  0  0  0  0
   24.9998   69.2231   -1.7532 C   0  0  0  0  0  0  0  0  0  0  0  0
   25.7895   68.6181   -2.6427 C   0  0  0  0  0  0  0  0  0  0  0  0
   26.1372   67.1953   -2.4475 C   0  0  0  0  0  0  0  0  0  0  0  0
   25.8003   65.6686   -1.1574 H   0  0  0  0  0  0  0  0  0  0  0  0
   21.5758   71.9602   -4.6100 O   0  0  0  0  0  0  0  0  0  0  0  0
   20.3639   70.9580   -4.2351 P   0  0  2  0  0  0  0  0  0  0  0  0
   19.5897   71.7414   -3.0488 O   0  0  0  0  0  0  0  0  0  0  0  0
   20.8032   69.5684   -3.8745 O   0  0  0  0  0  0  0  0  0  0  0  0
   19.3620   71.0371   -5.4969 O   0  0  0  0  0  0  0  0  0  0  0  0
   19.6293   71.5577   -7.7919 O   0  0  0  0  0  0  0  0  0  0  0  0
   16.0261   73.3856   -6.9294 O   0  0  0  0  0  0  0  0  0  0  0  0
   18.2574   73.5505   -5.0509 O   0  0  0  0  0  0  0  0  0  0  0  0
   16.0764   70.8898   -8.4192 O   0  0  0  0  0  0  0  0  0  0  0  0
   17.0470   72.3951   -6.8076 C   0  0  2  0  0  0  0  0  0  0  0  0
   18.3567   73.0597   -6.3828 C   0  0  2  0  0  0  0  0  0  0  0  0
   17.2119   71.7161   -8.1691 C   0  0  1  0  0  0  0  0  0  0  0  0
   19.5224   72.0731   -6.4643 C   0  0  1  0  0  0  0  0  0  0  0  0
   18.4658   70.8475   -8.2102 C   0  0  1  0  0  0  0  0  0  0  0  0
   15.9037   73.8306   -6.0760 H   0  0  0  0  0  0  0  0  0  0  0  0
   17.5195   74.1769   -4.9918 H   0  0  0  0  0  0  0  0  0  0  0  0
   15.2715   71.4306   -8.3956 H   0  0  0  0  0  0  0  0  0  0  0  0
   18.0705   69.3795   -9.9964 O   0  0  0  0  0  0  0  0  0  0  0  0
   19.6061   71.0321  -10.3285 O   0  0  0  0  0  0  0  0  0  0  0  0
   18.7965   70.4594   -9.6146 C   0  0  0  0  0  0  0  0  0  0  0  0
  1  4  1  0
  1 24  1  0
  1  2  1  6
  1  3  2  0
 25 28  1  0
 25 24  1  0
 25 26  1  1
 25 27  2  0
  6 11  1  0
  6 12  1  0
 29 36  1  0
 29 37  1  0
  9  7  1  1
  7 13  1  0
 10  8  1  1
  8 14  1  0
  4  5  1  0
 36 28  1  1
 33 30  1  6
 30 38  1  0
 34 31  1  1
 31 39  1  0
 35 32  1  1
 32 40  1  0
 41 43  1  0
 15 19  2  0
 42 43  2  0
 16 22  2  0
 12 17  1  6
 17 19  1  0
 17 20  1  0
 18 19  1  0
 18 22  1  0
 18 23  1  0
  9 10  1  0
  9 11  1  0
 10 12  1  0
 11  5  1  6
 33 34  1  0
 33 35  1  0
 34 36  1  0
 35 37  1  0
 37 43  1  6
 20 21  2  0
 21 22  1  0
M  CHG  3   2  -1  26  -1  41  -1
M  END
>  <COMPND>  (80) 
    udp_gluA.pdb 

>  <AUTHOR>  (80) 
    GENERATED BY OPEN BABEL 3.1.1

>  <MASTER>  (80) 
        0    0    0    0    0    0    0    0   56    0   56    0

>  <minimizedAffinity>  (80) 
-8.40154

>  <CNNscore>  (80) 
0.3701210618

>  <CNNaffinity>  (80) 
4.2854804993

>  <CNN_VS>  (80) 
1.5861465931

>  <CNNaffinity_variance>  (80) 
0.1077419519

$$$$
81
     RDKit          3D

 43 45  0  0  0  0  0  0  0  0999 V2000
   22.5689   72.0443   -3.0981 P   0  0  2  0  0  0  0  0  0  0  0  0
   22.2381   73.6084   -2.8470 O   0  0  0  0  0  0  0  0  0  0  0  0
   23.9643   71.7598   -3.5712 O   0  0  0  0  0  0  0  0  0  0  0  0
   21.3802   71.5481   -4.0772 O   0  0  0  0  0  0  0  0  0  0  0  0
   20.5866   70.4474   -3.6732 C   0  0  0  0  0  0  0  0  0  0  0  0
   18.7335   71.5648   -4.7196 O   0  0  0  0  0  0  0  0  0  0  0  0
   17.0172   70.2871   -2.6188 O   0  0  0  0  0  0  0  0  0  0  0  0
   16.5824   68.6975   -4.7914 O   0  0  0  0  0  0  0  0  0  0  0  0
   18.1661   69.7657   -3.2871 C   0  0  1  0  0  0  0  0  0  0  0  0
   17.8157   69.3806   -4.7088 C   0  0  2  0  0  0  0  0  0  0  0  0
   19.1462   70.9114   -3.4997 C   0  0  1  0  0  0  0  0  0  0  0  0
   17.7836   70.7316   -5.4027 C   0  0  2  0  0  0  0  0  0  0  0  0
   16.3765   69.5733   -2.4719 H   0  0  0  0  0  0  0  0  0  0  0  0
   16.6544   67.8438   -4.3352 H   0  0  0  0  0  0  0  0  0  0  0  0
   15.9995   70.0540   -7.4846 O   0  0  0  0  0  0  0  0  0  0  0  0
   19.2989   70.4293  -10.6810 O   0  0  0  0  0  0  0  0  0  0  0  0
   18.1499   70.6449   -6.7881 N   0  0  0  0  0  0  0  0  0  0  0  0
   17.6447   70.2405   -9.0745 N   0  0  0  0  0  0  0  0  0  0  0  0
   17.1773   70.2962   -7.7548 C   0  0  0  0  0  0  0  0  0  0  0  0
   19.4582   70.9051   -7.1772 C   0  0  0  0  0  0  0  0  0  0  0  0
   19.8888   70.8481   -8.4389 C   0  0  0  0  0  0  0  0  0  0  0  0
   18.9360   70.4902   -9.5101 C   0  0  0  0  0  0  0  0  0  0  0  0
   16.9863   69.9979   -9.7650 H   0  0  0  0  0  0  0  0  0  0  0  0
   22.1847   71.3606   -1.6847 O   0  0  0  0  0  0  0  0  0  0  0  0
   23.0998   70.6016   -0.5892 P   0  0  2  0  0  0  0  0  0  0  0  0
   22.0100   69.9215    0.3958 O   0  0  0  0  0  0  0  0  0  0  0  0
   24.0923   71.4887    0.1051 O   0  0  0  0  0  0  0  0  0  0  0  0
   23.7539   69.3631   -1.3896 O   0  0  0  0  0  0  0  0  0  0  0  0
   24.7031   67.6757   -0.0255 O   0  0  0  0  0  0  0  0  0  0  0  0
   26.0555   66.5860   -3.7741 O   0  0  0  0  0  0  0  0  0  0  0  0
   26.0496   69.3916   -2.9597 O   0  0  0  0  0  0  0  0  0  0  0  0
   23.8846   65.1136   -2.5210 O   0  0  0  0  0  0  0  0  0  0  0  0
   25.1425   67.1452   -2.8298 C   0  0  2  0  0  0  0  0  0  0  0  0
   25.8190   68.2949   -2.0828 C   0  0  2  0  0  0  0  0  0  0  0  0
   24.7379   66.0400   -1.8516 C   0  0  1  0  0  0  0  0  0  0  0  0
   24.9581   68.7673   -0.9104 C   0  0  1  0  0  0  0  0  0  0  0  0
   23.9922   66.6075   -0.6473 C   0  0  1  0  0  0  0  0  0  0  0  0
   26.3267   67.2703   -4.4062 H   0  0  0  0  0  0  0  0  0  0  0  0
   26.5951   69.0990   -3.7062 H   0  0  0  0  0  0  0  0  0  0  0  0
   24.3473   64.7451   -3.2898 H   0  0  0  0  0  0  0  0  0  0  0  0
   24.5910   65.9907    1.5350 O   0  0  0  0  0  0  0  0  0  0  0  0
   23.2706   64.5421    0.3699 O   0  0  0  0  0  0  0  0  0  0  0  0
   23.8935   65.5907    0.4429 C   0  0  0  0  0  0  0  0  0  0  0  0
  1  4  1  0
  1 24  1  0
  1  2  1  1
  1  3  2  0
 25 28  1  0
 25 24  1  0
 25 26  1  1
 25 27  2  0
  6 11  1  0
  6 12  1  0
 29 36  1  0
 29 37  1  0
  9  7  1  1
  7 13  1  0
 10  8  1  1
  8 14  1  0
  4  5  1  0
 36 28  1  6
 33 30  1  6
 30 38  1  0
 34 31  1  6
 31 39  1  0
 35 32  1  6
 32 40  1  0
 41 43  1  0
 15 19  2  0
 42 43  2  0
 16 22  2  0
 12 17  1  6
 17 19  1  0
 17 20  1  0
 18 19  1  0
 18 22  1  0
 18 23  1  0
  9 10  1  0
  9 11  1  0
 10 12  1  0
 11  5  1  6
 33 34  1  0
 33 35  1  0
 34 36  1  0
 35 37  1  0
 37 43  1  1
 20 21  2  0
 21 22  1  0
M  CHG  3   2  -1  26  -1  41  -1
M  END
>  <COMPND>  (81) 
    udp_gluA.pdb 

>  <AUTHOR>  (81) 
    GENERATED BY OPEN BABEL 3.1.1

>  <MASTER>  (81) 
        0    0    0    0    0    0    0    0   56    0   56    0

>  <minimizedAffinity>  (81) 
-9.57542

>  <CNNscore>  (81) 
0.8262978792

>  <CNNaffinity>  (81) 
5.0397715569

>  <CNN_VS>  (81) 
4.1643524170

>  <CNNaffinity_variance>  (81) 
0.0393569842

$$$$
82
     RDKit          3D

 43 45  0  0  0  0  0  0  0  0999 V2000
   22.7707   72.8363   -4.3308 P   0  0  2  0  0  0  0  0  0  0  0  0
   23.1782   73.7416   -5.6087 O   0  0  0  0  0  0  0  0  0  0  0  0
   23.8452   71.9096   -3.8423 O   0  0  0  0  0  0  0  0  0  0  0  0
   21.3856   72.1310   -4.7802 O   0  0  0  0  0  0  0  0  0  0  0  0
   20.8210   71.1481   -3.9318 C   0  0  0  0  0  0  0  0  0  0  0  0
   18.8067   71.9576   -4.9638 O   0  0  0  0  0  0  0  0  0  0  0  0
   17.3449   70.6917   -2.6720 O   0  0  0  0  0  0  0  0  0  0  0  0
   16.9960   68.8765   -4.6769 O   0  0  0  0  0  0  0  0  0  0  0  0
   18.5143   70.2421   -3.3569 C   0  0  1  0  0  0  0  0  0  0  0  0
   18.1458   69.6955   -4.7199 C   0  0  2  0  0  0  0  0  0  0  0  0
   19.3464   71.4648   -3.7183 C   0  0  1  0  0  0  0  0  0  0  0  0
   17.9280   70.9675   -5.5214 C   0  0  2  0  0  0  0  0  0  0  0  0
   16.7973   69.9278   -2.4308 H   0  0  0  0  0  0  0  0  0  0  0  0
   17.1857   68.0801   -4.1557 H   0  0  0  0  0  0  0  0  0  0  0  0
   16.1165   69.9818   -7.4510 O   0  0  0  0  0  0  0  0  0  0  0  0
   19.2273   70.3604  -10.8309 O   0  0  0  0  0  0  0  0  0  0  0  0
   18.2383   70.7984   -6.9128 N   0  0  0  0  0  0  0  0  0  0  0  0
   17.6679   70.1704   -9.1324 N   0  0  0  0  0  0  0  0  0  0  0  0
   17.2565   70.2953   -7.7989 C   0  0  0  0  0  0  0  0  0  0  0  0
   19.5015   71.1305   -7.3871 C   0  0  0  0  0  0  0  0  0  0  0  0
   19.8789   71.0060   -8.6610 C   0  0  0  0  0  0  0  0  0  0  0  0
   18.9129   70.4869   -9.6513 C   0  0  0  0  0  0  0  0  0  0  0  0
   17.0022   69.8203   -9.7677 H   0  0  0  0  0  0  0  0  0  0  0  0
   22.2850   73.9341   -3.2484 O   0  0  0  0  0  0  0  0  0  0  0  0
   23.0477   74.5828   -1.9790 P   0  0  2  0  0  0  0  0  0  0  0  0
   22.3027   76.0072   -1.7883 O   0  0  0  0  0  0  0  0  0  0  0  0
   24.5372   74.6805   -2.1396 O   0  0  0  0  0  0  0  0  0  0  0  0
   22.5668   73.6997   -0.7175 O   0  0  0  0  0  0  0  0  0  0  0  0
   23.6482   73.4767    1.3777 O   0  0  0  0  0  0  0  0  0  0  0  0
   21.6713   69.8627    1.0631 O   0  0  0  0  0  0  0  0  0  0  0  0
   23.0358   71.0106   -1.2510 O   0  0  0  0  0  0  0  0  0  0  0  0
   20.6513   71.9350    2.8283 O   0  0  0  0  0  0  0  0  0  0  0  0
   21.8686   71.2620    0.8610 C   0  0  2  0  0  0  0  0  0  0  0  0
   23.1650   71.4890    0.0829 C   0  0  2  0  0  0  0  0  0  0  0  0
   21.9483   71.9316    2.2348 C   0  0  1  0  0  0  0  0  0  0  0  0
   23.5283   72.9740    0.0464 C   0  0  1  0  0  0  0  0  0  0  0  0
   22.4381   73.3726    2.1246 C   0  0  1  0  0  0  0  0  0  0  0  0
   21.6176   69.4161    0.2035 H   0  0  0  0  0  0  0  0  0  0  0  0
   22.8050   70.0688   -1.2354 H   0  0  0  0  0  0  0  0  0  0  0  0
   20.3280   71.0236    2.9040 H   0  0  0  0  0  0  0  0  0  0  0  0
   21.8183   74.6437    3.9959 O   0  0  0  0  0  0  0  0  0  0  0  0
   23.8968   73.7064    4.0173 O   0  0  0  0  0  0  0  0  0  0  0  0
   22.8248   73.9055    3.4658 C   0  0  0  0  0  0  0  0  0  0  0  0
  1  4  1  0
  1 24  1  0
  1  2  1  6
  1  3  2  0
 25 28  1  0
 25 24  1  0
 25 26  1  1
 25 27  2  0
  6 11  1  0
  6 12  1  0
 29 36  1  0
 29 37  1  0
  9  7  1  6
  7 13  1  0
 10  8  1  1
  8 14  1  0
  4  5  1  0
 36 28  1  6
 33 30  1  1
 30 38  1  0
 34 31  1  6
 31 39  1  0
 35 32  1  6
 32 40  1  0
 41 43  1  0
 15 19  2  0
 42 43  2  0
 16 22  2  0
 12 17  1  6
 17 19  1  0
 17 20  1  0
 18 19  1  0
 18 22  1  0
 18 23  1  0
  9 10  1  0
  9 11  1  0
 10 12  1  0
 11  5  1  6
 33 34  1  0
 33 35  1  0
 34 36  1  0
 35 37  1  0
 37 43  1  1
 20 21  2  0
 21 22  1  0
M  CHG  3   2  -1  26  -1  41  -1
M  END
>  <COMPND>  (82) 
    udp_gluA.pdb 

>  <AUTHOR>  (82) 
    GENERATED BY OPEN BABEL 3.1.1

>  <MASTER>  (82) 
        0    0    0    0    0    0    0    0   56    0   56    0

>  <minimizedAffinity>  (82) 
-7.61888

>  <CNNscore>  (82) 
0.8256199360

>  <CNNaffinity>  (82) 
4.5962400436

>  <CNN_VS>  (82) 
3.7947473526

>  <CNNaffinity_variance>  (82) 
0.0305462666

$$$$
83
     RDKit          3D

 43 45  0  0  0  0  0  0  0  0999 V2000
   23.3994   72.5089   -2.9037 P   0  0  2  0  0  0  0  0  0  0  0  0
   24.0548   73.9162   -3.3606 O   0  0  0  0  0  0  0  0  0  0  0  0
   24.0707   71.2873   -3.4596 O   0  0  0  0  0  0  0  0  0  0  0  0
   21.8312   72.6749   -3.2657 O   0  0  0  0  0  0  0  0  0  0  0  0
   21.1429   71.5661   -3.8145 C   0  0  0  0  0  0  0  0  0  0  0  0
   18.9606   72.0751   -4.6842 O   0  0  0  0  0  0  0  0  0  0  0  0
   17.8742   70.6791   -2.2629 O   0  0  0  0  0  0  0  0  0  0  0  0
   17.6118   68.7873   -4.2093 O   0  0  0  0  0  0  0  0  0  0  0  0
   19.0340   70.3737   -3.0377 C   0  0  1  0  0  0  0  0  0  0  0  0
   18.6331   69.7513   -4.3583 C   0  0  2  0  0  0  0  0  0  0  0  0
   19.6613   71.6879   -3.4823 C   0  0  1  0  0  0  0  0  0  0  0  0
   18.1813   70.9638   -5.1542 C   0  0  2  0  0  0  0  0  0  0  0  0
   17.4561   69.8547   -1.9675 H   0  0  0  0  0  0  0  0  0  0  0  0
   17.9490   68.0357   -3.6962 H   0  0  0  0  0  0  0  0  0  0  0  0
   16.2647   69.9355   -6.9558 O   0  0  0  0  0  0  0  0  0  0  0  0
   19.1202   70.4000  -10.5439 O   0  0  0  0  0  0  0  0  0  0  0  0
   18.3975   70.8052   -6.5645 N   0  0  0  0  0  0  0  0  0  0  0  0
   17.6891   70.1669   -8.7410 N   0  0  0  0  0  0  0  0  0  0  0  0
   17.3692   70.2787   -7.3815 C   0  0  0  0  0  0  0  0  0  0  0  0
   19.6155   71.1705   -7.1249 C   0  0  0  0  0  0  0  0  0  0  0  0
   19.9057   71.0581   -8.4225 C   0  0  0  0  0  0  0  0  0  0  0  0
   18.8862   70.5161   -9.3447 C   0  0  0  0  0  0  0  0  0  0  0  0
   16.9896   69.8010   -9.3294 H   0  0  0  0  0  0  0  0  0  0  0  0
   23.4126   72.6092   -1.2905 O   0  0  0  0  0  0  0  0  0  0  0  0
   22.9485   71.5534   -0.1575 P   0  0  2  0  0  0  0  0  0  0  0  0
   24.2356   70.5834   -0.0064 O   0  0  0  0  0  0  0  0  0  0  0  0
   21.6674   70.8366   -0.4717 O   0  0  0  0  0  0  0  0  0  0  0  0
   22.9196   72.4077    1.2107 O   0  0  0  0  0  0  0  0  0  0  0  0
   24.6427   72.0666    2.7993 O   0  0  0  0  0  0  0  0  0  0  0  0
   21.8086   74.0613    5.0482 O   0  0  0  0  0  0  0  0  0  0  0  0
   21.0082   71.9616    3.1814 O   0  0  0  0  0  0  0  0  0  0  0  0
   24.1814   75.4595    4.1176 O   0  0  0  0  0  0  0  0  0  0  0  0
   22.5305   73.7230    3.8639 C   0  0  2  0  0  0  0  0  0  0  0  0
   22.3515   72.2348    3.5630 C   0  0  2  0  0  0  0  0  0  0  0  0
   24.0077   74.0438    4.1027 C   0  0  1  0  0  0  0  0  0  0  0  0
   23.2889   71.7869    2.4407 C   0  0  1  0  0  0  0  0  0  0  0  0
   24.8899   73.4557    3.0053 C   0  0  1  0  0  0  0  0  0  0  0  0
   20.8670   73.8659    4.9200 H   0  0  0  0  0  0  0  0  0  0  0  0
   20.4078   72.2436    3.8888 H   0  0  0  0  0  0  0  0  0  0  0  0
   23.6251   75.8462    4.8118 H   0  0  0  0  0  0  0  0  0  0  0  0
   26.6126   74.6235    4.0871 O   0  0  0  0  0  0  0  0  0  0  0  0
   27.1422   72.6056    3.1669 O   0  0  0  0  0  0  0  0  0  0  0  0
   26.3282   73.4842    3.4087 C   0  0  0  0  0  0  0  0  0  0  0  0
  1  4  1  0
  1 24  1  0
  1  2  1  6
  1  3  2  0
 25 28  1  0
 25 24  1  0
 25 26  1  1
 25 27  2  0
  6 11  1  0
  6 12  1  0
 29 36  1  0
 29 37  1  0
  9  7  1  1
  7 13  1  0
 10  8  1  1
  8 14  1  0
  4  5  1  0
 36 28  1  6
 33 30  1  1
 30 38  1  0
 34 31  1  6
 31 39  1  0
 35 32  1  6
 32 40  1  0
 41 43  1  0
 15 19  2  0
 42 43  2  0
 16 22  2  0
 12 17  1  6
 17 19  1  0
 17 20  1  0
 18 19  1  0
 18 22  1  0
 18 23  1  0
  9 10  1  0
  9 11  1  0
 10 12  1  0
 11  5  1  6
 33 34  1  0
 33 35  1  0
 34 36  1  0
 35 37  1  0
 37 43  1  1
 20 21  2  0
 21 22  1  0
M  CHG  3   2  -1  26  -1  41  -1
M  END
>  <COMPND>  (83) 
    udp_gluA.pdb 

>  <AUTHOR>  (83) 
    GENERATED BY OPEN BABEL 3.1.1

>  <MASTER>  (83) 
        0    0    0    0    0    0    0    0   56    0   56    0

>  <minimizedAffinity>  (83) 
-6.98436

>  <CNNscore>  (83) 
0.8199285865

>  <CNNaffinity>  (83) 
4.5173749924

>  <CNN_VS>  (83) 
3.7039248943

>  <CNNaffinity_variance>  (83) 
0.0433164462

$$$$
84
     RDKit          3D

 43 45  0  0  0  0  0  0  0  0999 V2000
   22.6953   72.0346   -3.4158 P   0  0  2  0  0  0  0  0  0  0  0  0
   22.0296   70.6674   -2.8622 O   0  0  0  0  0  0  0  0  0  0  0  0
   24.1744   71.9657   -3.6592 O   0  0  0  0  0  0  0  0  0  0  0  0
   22.2087   73.1592   -2.3593 O   0  0  0  0  0  0  0  0  0  0  0  0
   21.9019   72.7569   -1.0370 C   0  0  0  0  0  0  0  0  0  0  0  0
   22.7828   73.8869    0.8931 O   0  0  0  0  0  0  0  0  0  0  0  0
   24.9707   71.8366    0.8640 O   0  0  0  0  0  0  0  0  0  0  0  0
   23.3195   70.9182    2.8303 O   0  0  0  0  0  0  0  0  0  0  0  0
   23.5883   71.6876    0.5395 C   0  0  1  0  0  0  0  0  0  0  0  0
   22.7498   71.6983    1.8000 C   0  0  2  0  0  0  0  0  0  0  0  0
   23.1299   72.9605   -0.1589 C   0  0  1  0  0  0  0  0  0  0  0  0
   22.7112   73.1784    2.1405 C   0  0  2  0  0  0  0  0  0  0  0  0
   25.2863   71.0353    1.3113 H   0  0  0  0  0  0  0  0  0  0  0  0
   23.3210   69.9844    2.5656 H   0  0  0  0  0  0  0  0  0  0  0  0
   22.3724   73.1032    4.9434 O   0  0  0  0  0  0  0  0  0  0  0  0
   18.0364   74.6371    4.6437 O   0  0  0  0  0  0  0  0  0  0  0  0
   21.5041   73.5527    2.8215 N   0  0  0  0  0  0  0  0  0  0  0  0
   20.2128   73.8663    4.7914 N   0  0  0  0  0  0  0  0  0  0  0  0
   21.4378   73.4782    4.2329 C   0  0  0  0  0  0  0  0  0  0  0  0
   20.4038   73.9889    2.0935 C   0  0  0  0  0  0  0  0  0  0  0  0
   19.2429   74.3556    2.6399 C   0  0  0  0  0  0  0  0  0  0  0  0
   19.0903   74.3064    4.1088 C   0  0  0  0  0  0  0  0  0  0  0  0
   20.1420   73.8209    5.7723 H   0  0  0  0  0  0  0  0  0  0  0  0
   21.8114   72.3629   -4.7288 O   0  0  0  0  0  0  0  0  0  0  0  0
   20.3257   72.9820   -4.8806 P   0  0  2  0  0  0  0  0  0  0  0  0
   20.6059   74.5514   -5.1613 O   0  0  0  0  0  0  0  0  0  0  0  0
   19.4245   72.7144   -3.7100 O   0  0  0  0  0  0  0  0  0  0  0  0
   19.7845   72.4071   -6.2874 O   0  0  0  0  0  0  0  0  0  0  0  0
   18.9639   70.2032   -6.0070 O   0  0  0  0  0  0  0  0  0  0  0  0
   18.5568   70.7396  -10.0831 O   0  0  0  0  0  0  0  0  0  0  0  0
   20.9561   71.6688   -8.6995 O   0  0  0  0  0  0  0  0  0  0  0  0
   16.2223   70.8607   -8.3550 O   0  0  0  0  0  0  0  0  0  0  0  0
   18.5886   71.1390   -8.7129 C   0  0  2  0  0  0  0  0  0  0  0  0
   19.9638   70.8288   -8.1212 C   0  0  2  0  0  0  0  0  0  0  0  0
   17.5011   70.3613   -7.9683 C   0  0  1  0  0  0  0  0  0  0  0  0
   19.9646   71.0281   -6.6049 C   0  0  1  0  0  0  0  0  0  0  0  0
   17.6460   70.5099   -6.4565 C   0  0  1  0  0  0  0  0  0  0  0  0
   19.2397   71.2210  -10.5763 H   0  0  0  0  0  0  0  0  0  0  0  0
   20.9610   71.5477   -9.6616 H   0  0  0  0  0  0  0  0  0  0  0  0
   16.1174   70.7720   -9.3152 H   0  0  0  0  0  0  0  0  0  0  0  0
   16.7265   69.7969   -4.4199 O   0  0  0  0  0  0  0  0  0  0  0  0
   16.2575   68.5458   -6.2676 O   0  0  0  0  0  0  0  0  0  0  0  0
   16.8049   69.5032   -5.7415 C   0  0  0  0  0  0  0  0  0  0  0  0
  1  4  1  0
  1 24  1  0
  1  2  1  1
  1  3  2  0
 25 28  1  0
 25 24  1  0
 25 26  1  6
 25 27  2  0
  6 11  1  0
  6 12  1  0
 29 36  1  0
 29 37  1  0
  9  7  1  1
  7 13  1  0
 10  8  1  1
  8 14  1  0
  4  5  1  0
 36 28  1  6
 33 30  1  6
 30 38  1  0
 34 31  1  6
 31 39  1  0
 35 32  1  6
 32 40  1  0
 41 43  1  0
 15 19  2  0
 42 43  2  0
 16 22  2  0
 12 17  1  6
 17 19  1  0
 17 20  1  0
 18 19  1  0
 18 22  1  0
 18 23  1  0
  9 10  1  0
  9 11  1  0
 10 12  1  0
 11  5  1  6
 33 34  1  0
 33 35  1  0
 34 36  1  0
 35 37  1  0
 37 43  1  1
 20 21  2  0
 21 22  1  0
M  CHG  3   2  -1  26  -1  41  -1
M  END
>  <COMPND>  (84) 
    udp_gluA.pdb 

>  <AUTHOR>  (84) 
    GENERATED BY OPEN BABEL 3.1.1

>  <MASTER>  (84) 
        0    0    0    0    0    0    0    0   56    0   56    0

>  <minimizedAffinity>  (84) 
-6.82732

>  <CNNscore>  (84) 
0.7008854151

>  <CNNaffinity>  (84) 
4.4212274551

>  <CNN_VS>  (84) 
3.0987739563

>  <CNNaffinity_variance>  (84) 
0.0449428670

$$$$
85
     RDKit          3D

 43 45  0  0  0  0  0  0  0  0999 V2000
   21.1088   73.0441   -4.0605 P   0  0  2  0  0  0  0  0  0  0  0  0
   20.8735   74.5582   -3.5401 O   0  0  0  0  0  0  0  0  0  0  0  0
   22.0523   72.9121   -5.2199 O   0  0  0  0  0  0  0  0  0  0  0  0
   19.6121   72.4802   -4.3049 O   0  0  0  0  0  0  0  0  0  0  0  0
   19.0385   71.6371   -3.3228 C   0  0  0  0  0  0  0  0  0  0  0  0
   17.2169   72.1161   -4.8162 O   0  0  0  0  0  0  0  0  0  0  0  0
   15.5325   70.4176   -3.0082 O   0  0  0  0  0  0  0  0  0  0  0  0
   16.0720   68.7289   -5.0802 O   0  0  0  0  0  0  0  0  0  0  0  0
   16.9013   70.2580   -3.3814 C   0  0  1  0  0  0  0  0  0  0  0  0
   17.0010   69.7567   -4.8065 C   0  0  2  0  0  0  0  0  0  0  0  0
   17.5240   71.6435   -3.4867 C   0  0  1  0  0  0  0  0  0  0  0  0
   16.7277   71.0198   -5.6050 C   0  0  2  0  0  0  0  0  0  0  0  0
   15.1133   69.5455   -2.9346 H   0  0  0  0  0  0  0  0  0  0  0  0
   16.2889   67.9468   -4.5479 H   0  0  0  0  0  0  0  0  0  0  0  0
   15.8840   72.5070   -7.8529 O   0  0  0  0  0  0  0  0  0  0  0  0
   19.3794   70.9510  -10.4229 O   0  0  0  0  0  0  0  0  0  0  0  0
   17.3988   71.0218   -6.8741 N   0  0  0  0  0  0  0  0  0  0  0  0
   17.6251   71.7298   -9.1311 N   0  0  0  0  0  0  0  0  0  0  0  0
   16.8925   71.8039   -7.9391 C   0  0  0  0  0  0  0  0  0  0  0  0
   18.5450   70.2570   -7.0538 C   0  0  0  0  0  0  0  0  0  0  0  0
   19.2325   70.1967   -8.1959 C   0  0  0  0  0  0  0  0  0  0  0  0
   18.7700   70.9834   -9.3580 C   0  0  0  0  0  0  0  0  0  0  0  0
   17.2908   72.2642   -9.8874 H   0  0  0  0  0  0  0  0  0  0  0  0
   21.5752   72.2684   -2.7212 O   0  0  0  0  0  0  0  0  0  0  0  0
   22.6093   71.0439   -2.5094 P   0  0  2  0  0  0  0  0  0  0  0  0
   23.9641   71.5775   -3.2166 O   0  0  0  0  0  0  0  0  0  0  0  0
   22.1173   69.7251   -3.0315 O   0  0  0  0  0  0  0  0  0  0  0  0
   22.9415   71.0572   -0.9309 O   0  0  0  0  0  0  0  0  0  0  0  0
   23.8338   72.9770    0.1308 O   0  0  0  0  0  0  0  0  0  0  0  0
   24.8203   69.9965    2.8162 O   0  0  0  0  0  0  0  0  0  0  0  0
   25.1153   69.5580   -0.0570 O   0  0  0  0  0  0  0  0  0  0  0  0
   22.6230   71.8106    3.3920 O   0  0  0  0  0  0  0  0  0  0  0  0
   24.0278   70.6434    1.8206 C   0  0  2  0  0  0  0  0  0  0  0  0
   24.8523   70.8201    0.5452 C   0  0  2  0  0  0  0  0  0  0  0  0
   23.5983   72.0058    2.3697 C   0  0  1  0  0  0  0  0  0  0  0  0
   24.1200   71.7091   -0.4609 C   0  0  1  0  0  0  0  0  0  0  0  0
   22.9909   72.8806    1.2768 C   0  0  1  0  0  0  0  0  0  0  0  0
   25.1049   69.1284    2.4894 H   0  0  0  0  0  0  0  0  0  0  0  0
   25.5796   68.9887    0.5759 H   0  0  0  0  0  0  0  0  0  0  0  0
   22.9969   71.2551    4.0938 H   0  0  0  0  0  0  0  0  0  0  0  0
   21.7597   74.4782    2.4740 O   0  0  0  0  0  0  0  0  0  0  0  0
   23.6870   75.1819    1.4793 O   0  0  0  0  0  0  0  0  0  0  0  0
   22.8811   74.2992    1.7327 C   0  0  0  0  0  0  0  0  0  0  0  0
  1  4  1  0
  1 24  1  0
  1  2  1  1
  1  3  2  0
 25 28  1  0
 25 24  1  0
 25 26  1  6
 25 27  2  0
  6 11  1  0
  6 12  1  0
 29 36  1  0
 29 37  1  0
  9  7  1  6
  7 13  1  0
 10  8  1  1
  8 14  1  0
  4  5  1  0
 36 28  1  1
 33 30  1  1
 30 38  1  0
 34 31  1  6
 31 39  1  0
 35 32  1  1
 32 40  1  0
 41 43  1  0
 15 19  2  0
 42 43  2  0
 16 22  2  0
 12 17  1  6
 17 19  1  0
 17 20  1  0
 18 19  1  0
 18 22  1  0
 18 23  1  0
  9 10  1  0
  9 11  1  0
 10 12  1  0
 11  5  1  6
 33 34  1  0
 33 35  1  0
 34 36  1  0
 35 37  1  0
 37 43  1  1
 20 21  2  0
 21 22  1  0
M  CHG  3   2  -1  26  -1  41  -1
M  END
>  <COMPND>  (85) 
    udp_gluA.pdb 

>  <AUTHOR>  (85) 
    GENERATED BY OPEN BABEL 3.1.1

>  <MASTER>  (85) 
        0    0    0    0    0    0    0    0   56    0   56    0

>  <minimizedAffinity>  (85) 
-6.74403

>  <CNNscore>  (85) 
0.6866782308

>  <CNNaffinity>  (85) 
4.4931912422

>  <CNN_VS>  (85) 
3.0853765011

>  <CNNaffinity_variance>  (85) 
0.1534332484

$$$$
86
     RDKit          3D

 43 45  0  0  0  0  0  0  0  0999 V2000
   20.5766   71.5331   -0.9477 P   0  0  2  0  0  0  0  0  0  0  0  0
   19.3737   70.5196   -1.3280 O   0  0  0  0  0  0  0  0  0  0  0  0
   20.1710   72.7138   -0.1152 O   0  0  0  0  0  0  0  0  0  0  0  0
   21.2581   71.8796   -2.3737 O   0  0  0  0  0  0  0  0  0  0  0  0
   20.5295   71.6041   -3.5560 C   0  0  0  0  0  0  0  0  0  0  0  0
   20.8678   70.5955   -5.7114 O   0  0  0  0  0  0  0  0  0  0  0  0
   23.1352   72.5278   -6.0531 O   0  0  0  0  0  0  0  0  0  0  0  0
   21.1420   73.6841   -7.5113 O   0  0  0  0  0  0  0  0  0  0  0  0
   21.8770   72.7165   -5.4051 C   0  0  1  0  0  0  0  0  0  0  0  0
   20.7731   72.8504   -6.4327 C   0  0  2  0  0  0  0  0  0  0  0  0
   21.5074   71.4142   -4.7084 C   0  0  1  0  0  0  0  0  0  0  0  0
   20.5594   71.4071   -6.8558 C   0  0  2  0  0  0  0  0  0  0  0  0
   23.3924   73.3469   -6.5054 H   0  0  0  0  0  0  0  0  0  0  0  0
   21.2661   74.5918   -7.1906 H   0  0  0  0  0  0  0  0  0  0  0  0
   19.7564   70.9184   -9.5191 O   0  0  0  0  0  0  0  0  0  0  0  0
   15.3409   70.4297   -8.2909 O   0  0  0  0  0  0  0  0  0  0  0  0
   19.2063   71.1491   -7.2602 N   0  0  0  0  0  0  0  0  0  0  0  0
   17.5579   70.6765   -8.9050 N   0  0  0  0  0  0  0  0  0  0  0  0
   18.9094   70.9162   -8.6239 C   0  0  0  0  0  0  0  0  0  0  0  0
   18.1912   71.1271   -6.3115 C   0  0  0  0  0  0  0  0  0  0  0  0
   16.9076   70.8971   -6.5947 C   0  0  0  0  0  0  0  0  0  0  0  0
   16.5126   70.6452   -7.9961 C   0  0  0  0  0  0  0  0  0  0  0  0
   17.3263   70.5136   -9.8479 H   0  0  0  0  0  0  0  0  0  0  0  0
   21.6643   70.5605   -0.2520 O   0  0  0  0  0  0  0  0  0  0  0  0
   23.2722   70.6793   -0.1335 P   0  0  2  0  0  0  0  0  0  0  0  0
   23.5721   70.1553    1.3684 O   0  0  0  0  0  0  0  0  0  0  0  0
   23.8120   72.0484   -0.4301 O   0  0  0  0  0  0  0  0  0  0  0  0
   23.8406   69.5133   -1.0926 O   0  0  0  0  0  0  0  0  0  0  0  0
   24.8917   67.7996    0.1594 O   0  0  0  0  0  0  0  0  0  0  0  0
   25.6747   66.6087   -3.7183 O   0  0  0  0  0  0  0  0  0  0  0  0
   25.9013   69.4203   -2.9583 O   0  0  0  0  0  0  0  0  0  0  0  0
   23.6318   65.2500   -2.1590 O   0  0  0  0  0  0  0  0  0  0  0  0
   24.9233   67.2190   -2.6691 C   0  0  2  0  0  0  0  0  0  0  0  0
   25.7441   68.3450   -2.0399 C   0  0  2  0  0  0  0  0  0  0  0  0
   24.6074   66.1441   -1.6266 C   0  0  1  0  0  0  0  0  0  0  0  0
   25.0715   68.8687   -0.7702 C   0  0  1  0  0  0  0  0  0  0  0  0
   24.0572   66.7580   -0.3425 C   0  0  1  0  0  0  0  0  0  0  0  0
   25.8872   67.2729   -4.3927 H   0  0  0  0  0  0  0  0  0  0  0  0
   26.3272   69.0951   -3.7665 H   0  0  0  0  0  0  0  0  0  0  0  0
   23.9695   64.8526   -2.9768 H   0  0  0  0  0  0  0  0  0  0  0  0
   23.2982   64.6851    0.4502 O   0  0  0  0  0  0  0  0  0  0  0  0
   24.6725   65.8827    1.8200 O   0  0  0  0  0  0  0  0  0  0  0  0
   24.0632   65.7587    0.7682 C   0  0  0  0  0  0  0  0  0  0  0  0
  1  4  1  0
  1 24  1  0
  1  2  1  6
  1  3  2  0
 25 28  1  0
 25 24  1  0
 25 26  1  1
 25 27  2  0
  6 11  1  0
  6 12  1  0
 29 36  1  0
 29 37  1  0
  9  7  1  6
  7 13  1  0
 10  8  1  6
  8 14  1  0
  4  5  1  0
 36 28  1  6
 33 30  1  6
 30 38  1  0
 34 31  1  6
 31 39  1  0
 35 32  1  6
 32 40  1  0
 41 43  1  0
 15 19  2  0
 42 43  2  0
 16 22  2  0
 12 17  1  1
 17 19  1  0
 17 20  1  0
 18 19  1  0
 18 22  1  0
 18 23  1  0
  9 10  1  0
  9 11  1  0
 10 12  1  0
 11  5  1  1
 33 34  1  0
 33 35  1  0
 34 36  1  0
 35 37  1  0
 37 43  1  1
 20 21  2  0
 21 22  1  0
M  CHG  3   2  -1  26  -1  41  -1
M  END
>  <COMPND>  (86) 
    udp_gluA.pdb 

>  <AUTHOR>  (86) 
    GENERATED BY OPEN BABEL 3.1.1

>  <MASTER>  (86) 
        0    0    0    0    0    0    0    0   56    0   56    0

>  <minimizedAffinity>  (86) 
-8.85332

>  <CNNscore>  (86) 
0.6669819355

>  <CNNaffinity>  (86) 
4.6925854683

>  <CNN_VS>  (86) 
3.1298696995

>  <CNNaffinity_variance>  (86) 
0.0488755740

$$$$
87
     RDKit          3D

 43 45  0  0  0  0  0  0  0  0999 V2000
   21.9739   72.7852   -5.8974 P   0  0  2  0  0  0  0  0  0  0  0  0
   21.8641   74.1253   -6.7979 O   0  0  0  0  0  0  0  0  0  0  0  0
   23.3513   72.4742   -5.3897 O   0  0  0  0  0  0  0  0  0  0  0  0
   21.2890   71.6427   -6.8159 O   0  0  0  0  0  0  0  0  0  0  0  0
   20.1820   71.9982   -7.6237 C   0  0  0  0  0  0  0  0  0  0  0  0
   18.9491   70.0404   -6.9721 O   0  0  0  0  0  0  0  0  0  0  0  0
   18.1185   69.8345   -9.8460 O   0  0  0  0  0  0  0  0  0  0  0  0
   15.9228   70.9435   -8.6691 O   0  0  0  0  0  0  0  0  0  0  0  0
   18.3243   70.9991   -9.0460 C   0  0  1  0  0  0  0  0  0  0  0  0
   17.1806   71.1728   -8.0692 C   0  0  2  0  0  0  0  0  0  0  0  0
   19.4992   70.7287   -8.1162 C   0  0  1  0  0  0  0  0  0  0  0  0
   17.5167   70.1432   -7.0039 C   0  0  2  0  0  0  0  0  0  0  0  0
   17.3725   69.9833  -10.4484 H   0  0  0  0  0  0  0  0  0  0  0  0
   15.7553   71.6251   -9.3395 H   0  0  0  0  0  0  0  0  0  0  0  0
   16.6378   68.3295   -5.0254 O   0  0  0  0  0  0  0  0  0  0  0  0
   15.7368   71.7307   -2.0481 O   0  0  0  0  0  0  0  0  0  0  0  0
   17.0472   70.5277   -5.7028 N   0  0  0  0  0  0  0  0  0  0  0  0
   16.1889   70.0253   -3.5448 N   0  0  0  0  0  0  0  0  0  0  0  0
   16.6282   69.5378   -4.7827 C   0  0  0  0  0  0  0  0  0  0  0  0
   17.0068   71.8709   -5.3490 C   0  0  0  0  0  0  0  0  0  0  0  0
   16.5856   72.3202   -4.1652 C   0  0  0  0  0  0  0  0  0  0  0  0
   16.1298   71.3512   -3.1471 C   0  0  0  0  0  0  0  0  0  0  0  0
   15.8902   69.3551   -2.8884 H   0  0  0  0  0  0  0  0  0  0  0  0
   20.8705   73.0327   -4.7423 O   0  0  0  0  0  0  0  0  0  0  0  0
   21.0229   73.5788   -3.2284 P   0  0  2  0  0  0  0  0  0  0  0  0
   19.4983   73.5917   -2.6846 O   0  0  0  0  0  0  0  0  0  0  0  0
   21.7299   74.8987   -3.1181 O   0  0  0  0  0  0  0  0  0  0  0  0
   21.7309   72.3710   -2.4269 O   0  0  0  0  0  0  0  0  0  0  0  0
   22.5489   73.0049   -0.2966 O   0  0  0  0  0  0  0  0  0  0  0  0
   24.0895   69.1916   -0.6882 O   0  0  0  0  0  0  0  0  0  0  0  0
   24.1155   71.0388   -2.9512 O   0  0  0  0  0  0  0  0  0  0  0  0
   21.8069   69.6721    1.0468 O   0  0  0  0  0  0  0  0  0  0  0  0
   23.1384   70.2388   -0.8796 C   0  0  2  0  0  0  0  0  0  0  0  0
   23.8020   71.4051   -1.6124 C   0  0  2  0  0  0  0  0  0  0  0  0
   22.6451   70.6873    0.4978 C   0  0  1  0  0  0  0  0  0  0  0  0
   22.8870   72.6303   -1.6325 C   0  0  1  0  0  0  0  0  0  0  0  0
   21.8458   71.9841    0.4083 C   0  0  1  0  0  0  0  0  0  0  0  0
   24.4171   68.8904   -1.5503 H   0  0  0  0  0  0  0  0  0  0  0  0
   24.6957   70.2618   -2.9460 H   0  0  0  0  0  0  0  0  0  0  0  0
   22.3037   68.8413    1.1090 H   0  0  0  0  0  0  0  0  0  0  0  0
   20.7350   71.8811    2.4715 O   0  0  0  0  0  0  0  0  0  0  0  0
   22.2411   73.5688    2.1842 O   0  0  0  0  0  0  0  0  0  0  0  0
   21.6537   72.5835    1.7633 C   0  0  0  0  0  0  0  0  0  0  0  0
  1  4  1  0
  1 24  1  0
  1  2  1  6
  1  3  2  0
 25 28  1  0
 25 24  1  0
 25 26  1  1
 25 27  2  0
  6 11  1  0
  6 12  1  0
 29 36  1  0
 29 37  1  0
  9  7  1  6
  7 13  1  0
 10  8  1  6
  8 14  1  0
  4  5  1  0
 36 28  1  6
 33 30  1  1
 30 38  1  0
 34 31  1  6
 31 39  1  0
 35 32  1  6
 32 40  1  0
 41 43  1  0
 15 19  2  0
 42 43  2  0
 16 22  2  0
 12 17  1  1
 17 19  1  0
 17 20  1  0
 18 19  1  0
 18 22  1  0
 18 23  1  0
  9 10  1  0
  9 11  1  0
 10 12  1  0
 11  5  1  1
 33 34  1  0
 33 35  1  0
 34 36  1  0
 35 37  1  0
 37 43  1  1
 20 21  2  0
 21 22  1  0
M  CHG  3   2  -1  26  -1  41  -1
M  END
>  <COMPND>  (87) 
    udp_gluA.pdb 

>  <AUTHOR>  (87) 
    GENERATED BY OPEN BABEL 3.1.1

>  <MASTER>  (87) 
        0    0    0    0    0    0    0    0   56    0   56    0

>  <minimizedAffinity>  (87) 
-7.67604

>  <CNNscore>  (87) 
0.6446948647

>  <CNNaffinity>  (87) 
4.4565854073

>  <CNN_VS>  (87) 
2.8731377125

>  <CNNaffinity_variance>  (87) 
0.3065835834

$$$$
88
     RDKit          3D

 43 45  0  0  0  0  0  0  0  0999 V2000
   22.4566   73.3367   -5.7817 P   0  0  2  0  0  0  0  0  0  0  0  0
   21.6322   74.3848   -4.8649 O   0  0  0  0  0  0  0  0  0  0  0  0
   23.1893   73.9479   -6.9399 O   0  0  0  0  0  0  0  0  0  0  0  0
   21.3620   72.2068   -6.1602 O   0  0  0  0  0  0  0  0  0  0  0  0
   20.5819   72.3855   -7.3280 C   0  0  0  0  0  0  0  0  0  0  0  0
   19.6348   70.2483   -6.7687 O   0  0  0  0  0  0  0  0  0  0  0  0
   19.1364   69.9089   -9.7061 O   0  0  0  0  0  0  0  0  0  0  0  0
   16.6817   70.6334   -8.7650 O   0  0  0  0  0  0  0  0  0  0  0  0
   19.0655   71.0908   -8.9081 C   0  0  1  0  0  0  0  0  0  0  0  0
   17.8186   71.0695   -8.0496 C   0  0  2  0  0  0  0  0  0  0  0  0
   20.1720   71.0201   -7.8646 C   0  0  1  0  0  0  0  0  0  0  0  0
   18.2155   70.1098   -6.9408 C   0  0  2  0  0  0  0  0  0  0  0  0
   18.4388   69.9312  -10.3802 H   0  0  0  0  0  0  0  0  0  0  0  0
   16.4695   71.2779   -9.4589 H   0  0  0  0  0  0  0  0  0  0  0  0
   16.4076   68.3793   -5.6318 O   0  0  0  0  0  0  0  0  0  0  0  0
   15.7720   71.3614   -2.1753 O   0  0  0  0  0  0  0  0  0  0  0  0
   17.5630   70.4089   -5.6975 N   0  0  0  0  0  0  0  0  0  0  0  0
   16.0920   69.8666   -3.9120 N   0  0  0  0  0  0  0  0  0  0  0  0
   16.6722   69.4708   -5.1243 C   0  0  0  0  0  0  0  0  0  0  0  0
   17.8087   71.6182   -5.0587 C   0  0  0  0  0  0  0  0  0  0  0  0
   17.2482   71.9814   -3.9034 C   0  0  0  0  0  0  0  0  0  0  0  0
   16.3047   71.0587   -3.2387 C   0  0  0  0  0  0  0  0  0  0  0  0
   15.4666   69.2309   -3.4947 H   0  0  0  0  0  0  0  0  0  0  0  0
   23.4020   72.5820   -4.7095 O   0  0  0  0  0  0  0  0  0  0  0  0
   23.0426   71.8137   -3.3333 P   0  0  2  0  0  0  0  0  0  0  0  0
   24.3739   70.9414   -3.0381 O   0  0  0  0  0  0  0  0  0  0  0  0
   21.7762   71.0093   -3.3897 O   0  0  0  0  0  0  0  0  0  0  0  0
   23.0534   72.9672   -2.2056 O   0  0  0  0  0  0  0  0  0  0  0  0
   21.4159   72.3483   -0.6104 O   0  0  0  0  0  0  0  0  0  0  0  0
   22.9506   75.8026    1.0571 O   0  0  0  0  0  0  0  0  0  0  0  0
   22.4285   75.6489   -1.8132 O   0  0  0  0  0  0  0  0  0  0  0  0
   23.6853   73.2075    2.1417 O   0  0  0  0  0  0  0  0  0  0  0  0
   22.9876   74.5937    0.2987 C   0  0  2  0  0  0  0  0  0  0  0  0
   21.9944   74.6858   -0.8600 C   0  0  2  0  0  0  0  0  0  0  0  0
   22.6126   73.4392    1.2306 C   0  0  1  0  0  0  0  0  0  0  0  0
   21.8376   73.3327   -1.5551 C   0  0  1  0  0  0  0  0  0  0  0  0
   22.3504   72.1551    0.4491 C   0  0  1  0  0  0  0  0  0  0  0  0
   23.1855   76.5505    0.4854 H   0  0  0  0  0  0  0  0  0  0  0  0
   22.5304   76.5100   -1.3788 H   0  0  0  0  0  0  0  0  0  0  0  0
   23.8624   74.0173    2.6454 H   0  0  0  0  0  0  0  0  0  0  0  0
   21.0145   71.7385    2.3314 O   0  0  0  0  0  0  0  0  0  0  0  0
   21.7070   69.9306    1.1268 O   0  0  0  0  0  0  0  0  0  0  0  0
   21.6753   71.1382    1.3107 C   0  0  0  0  0  0  0  0  0  0  0  0
  1  4  1  0
  1 24  1  0
  1  2  1  1
  1  3  2  0
 25 28  1  0
 25 24  1  0
 25 26  1  1
 25 27  2  0
  6 11  1  0
  6 12  1  0
 29 36  1  0
 29 37  1  0
  9  7  1  6
  7 13  1  0
 10  8  1  6
  8 14  1  0
  4  5  1  0
 36 28  1  1
 33 30  1  1
 30 38  1  0
 34 31  1  6
 31 39  1  0
 35 32  1  1
 32 40  1  0
 41 43  1  0
 15 19  2  0
 42 43  2  0
 16 22  2  0
 12 17  1  1
 17 19  1  0
 17 20  1  0
 18 19  1  0
 18 22  1  0
 18 23  1  0
  9 10  1  0
  9 11  1  0
 10 12  1  0
 11  5  1  1
 33 34  1  0
 33 35  1  0
 34 36  1  0
 35 37  1  0
 37 43  1  1
 20 21  2  0
 21 22  1  0
M  CHG  3   2  -1  26  -1  41  -1
M  END
>  <COMPND>  (88) 
    udp_gluA.pdb 

>  <AUTHOR>  (88) 
    GENERATED BY OPEN BABEL 3.1.1

>  <MASTER>  (88) 
        0    0    0    0    0    0    0    0   56    0   56    0

>  <minimizedAffinity>  (88) 
-7.22766

>  <CNNscore>  (88) 
0.6438547373

>  <CNNaffinity>  (88) 
4.3757166862

>  <CNN_VS>  (88) 
2.8173258305

>  <CNNaffinity_variance>  (88) 
0.1873714477

$$$$
89
     RDKit          3D

 43 45  0  0  0  0  0  0  0  0999 V2000
   21.5000   74.1917   -2.7716 P   0  0  2  0  0  0  0  0  0  0  0  0
   20.5271   75.0871   -3.7046 O   0  0  0  0  0  0  0  0  0  0  0  0
   22.9561   74.2568   -3.1285 O   0  0  0  0  0  0  0  0  0  0  0  0
   20.8314   72.7189   -2.8139 O   0  0  0  0  0  0  0  0  0  0  0  0
   20.2705   72.2658   -4.0323 C   0  0  0  0  0  0  0  0  0  0  0  0
   18.1533   72.3379   -5.1681 O   0  0  0  0  0  0  0  0  0  0  0  0
   17.0301   70.9281   -2.7718 O   0  0  0  0  0  0  0  0  0  0  0  0
   17.3137   68.9031   -4.5760 O   0  0  0  0  0  0  0  0  0  0  0  0
   18.3079   70.7793   -3.3912 C   0  0  1  0  0  0  0  0  0  0  0  0
   18.1740   70.0170   -4.6925 C   0  0  2  0  0  0  0  0  0  0  0  0
   18.7601   72.1517   -3.8710 C   0  0  1  0  0  0  0  0  0  0  0  0
   17.6277   71.0825   -5.6274 C   0  0  2  0  0  0  0  0  0  0  0  0
   16.7204   70.0640   -2.4571 H   0  0  0  0  0  0  0  0  0  0  0  0
   17.7059   68.2535   -3.9708 H   0  0  0  0  0  0  0  0  0  0  0  0
   15.9299   70.1185   -7.6682 O   0  0  0  0  0  0  0  0  0  0  0  0
   19.2900   70.3321  -10.8159 O   0  0  0  0  0  0  0  0  0  0  0  0
   18.0329   70.8768   -6.9891 N   0  0  0  0  0  0  0  0  0  0  0  0
   17.6053   70.2248   -9.2338 N   0  0  0  0  0  0  0  0  0  0  0  0
   17.1021   70.3885   -7.9364 C   0  0  0  0  0  0  0  0  0  0  0  0
   19.3377   71.1591   -7.3747 C   0  0  0  0  0  0  0  0  0  0  0  0
   19.8027   70.9981   -8.6151 C   0  0  0  0  0  0  0  0  0  0  0  0
   18.8948   70.4912   -9.6650 C   0  0  0  0  0  0  0  0  0  0  0  0
   16.9765   69.8841   -9.9103 H   0  0  0  0  0  0  0  0  0  0  0  0
   21.1486   74.7076   -1.2805 O   0  0  0  0  0  0  0  0  0  0  0  0
   21.0124   73.9045    0.1160 P   0  0  2  0  0  0  0  0  0  0  0  0
   19.6536   73.0472   -0.0814 O   0  0  0  0  0  0  0  0  0  0  0  0
   21.0185   74.7820    1.3341 O   0  0  0  0  0  0  0  0  0  0  0  0
   22.1951   72.8082    0.0747 O   0  0  0  0  0  0  0  0  0  0  0  0
   22.5484   70.6042   -0.7170 O   0  0  0  0  0  0  0  0  0  0  0  0
   24.0912   70.3807    3.1090 O   0  0  0  0  0  0  0  0  0  0  0  0
   21.5945   71.8097    2.6002 O   0  0  0  0  0  0  0  0  0  0  0  0
   25.8787   70.5212    0.8207 O   0  0  0  0  0  0  0  0  0  0  0  0
   23.7657   71.0104    1.8699 C   0  0  2  0  0  0  0  0  0  0  0  0
   22.2521   70.9706    1.6577 C   0  0  2  0  0  0  0  0  0  0  0  0
   24.4802   70.2497    0.7507 C   0  0  1  0  0  0  0  0  0  0  0  0
   21.8856   71.4262    0.2445 C   0  0  1  0  0  0  0  0  0  0  0  0
   23.9696   70.6718   -0.6240 C   0  0  1  0  0  0  0  0  0  0  0  0
   23.6481   70.8471    3.8352 H   0  0  0  0  0  0  0  0  0  0  0  0
   21.8228   71.5265    3.4991 H   0  0  0  0  0  0  0  0  0  0  0  0
   26.2161   70.2571    1.6909 H   0  0  0  0  0  0  0  0  0  0  0  0
   24.5070   70.3263   -2.8808 O   0  0  0  0  0  0  0  0  0  0  0  0
   24.6806   68.5326   -1.4839 O   0  0  0  0  0  0  0  0  0  0  0  0
   24.4207   69.7110   -1.6755 C   0  0  0  0  0  0  0  0  0  0  0  0
  1  4  1  0
  1 24  1  0
  1  2  1  6
  1  3  2  0
 25 28  1  0
 25 24  1  0
 25 26  1  6
 25 27  2  0
  6 11  1  0
  6 12  1  0
 29 36  1  0
 29 37  1  0
  9  7  1  6
  7 13  1  0
 10  8  1  1
  8 14  1  0
  4  5  1  0
 36 28  1  1
 33 30  1  1
 30 38  1  0
 34 31  1  1
 31 39  1  0
 35 32  1  6
 32 40  1  0
 41 43  1  0
 15 19  2  0
 42 43  2  0
 16 22  2  0
 12 17  1  6
 17 19  1  0
 17 20  1  0
 18 19  1  0
 18 22  1  0
 18 23  1  0
  9 10  1  0
  9 11  1  0
 10 12  1  0
 11  5  1  6
 33 34  1  0
 33 35  1  0
 34 36  1  0
 35 37  1  0
 37 43  1  6
 20 21  2  0
 21 22  1  0
M  CHG  3   2  -1  26  -1  41  -1
M  END
>  <COMPND>  (89) 
    udp_gluA.pdb 

>  <AUTHOR>  (89) 
    GENERATED BY OPEN BABEL 3.1.1

>  <MASTER>  (89) 
        0    0    0    0    0    0    0    0   56    0   56    0

>  <minimizedAffinity>  (89) 
-7.25721

>  <CNNscore>  (89) 
0.6350322366

>  <CNNaffinity>  (89) 
4.4595518112

>  <CNN_VS>  (89) 
2.8319592476

>  <CNNaffinity_variance>  (89) 
0.0477657244

$$$$
90
     RDKit          3D

 43 45  0  0  0  0  0  0  0  0999 V2000
   21.0820   73.6885   -6.5258 P   0  0  2  0  0  0  0  0  0  0  0  0
   20.0016   74.7059   -5.8804 O   0  0  0  0  0  0  0  0  0  0  0  0
   22.0903   74.3281   -7.4347 O   0  0  0  0  0  0  0  0  0  0  0  0
   20.1729   72.5273   -7.1913 O   0  0  0  0  0  0  0  0  0  0  0  0
   20.7530   71.2536   -7.4051 C   0  0  0  0  0  0  0  0  0  0  0  0
   18.9629   69.6554   -7.2685 O   0  0  0  0  0  0  0  0  0  0  0  0
   18.3540   70.3727  -10.1157 O   0  0  0  0  0  0  0  0  0  0  0  0
   16.4741   71.7816   -8.7312 O   0  0  0  0  0  0  0  0  0  0  0  0
   18.8147   71.2067   -9.0524 C   0  0  1  0  0  0  0  0  0  0  0  0
   17.6897   71.4825   -8.0774 C   0  0  2  0  0  0  0  0  0  0  0  0
   19.7810   70.3932   -8.2021 C   0  0  1  0  0  0  0  0  0  0  0  0
   17.6272   70.1833   -7.2924 C   0  0  2  0  0  0  0  0  0  0  0  0
   17.7350   70.8708  -10.6728 H   0  0  0  0  0  0  0  0  0  0  0  0
   16.5651   72.6173   -9.2163 H   0  0  0  0  0  0  0  0  0  0  0  0
   16.3355   68.2102   -5.7384 O   0  0  0  0  0  0  0  0  0  0  0  0
   15.9493   71.0474   -2.1266 O   0  0  0  0  0  0  0  0  0  0  0  0
   17.1785   70.3795   -5.9429 N   0  0  0  0  0  0  0  0  0  0  0  0
   16.1435   69.6255   -3.9414 N   0  0  0  0  0  0  0  0  0  0  0  0
   16.5404   69.3233   -5.2506 C   0  0  0  0  0  0  0  0  0  0  0  0
   17.3732   71.6057   -5.3187 C   0  0  0  0  0  0  0  0  0  0  0  0
   16.9894   71.8787   -4.0701 C   0  0  0  0  0  0  0  0  0  0  0  0
   16.3146   70.8297   -3.2779 C   0  0  0  0  0  0  0  0  0  0  0  0
   15.6952   68.9064   -3.4400 H   0  0  0  0  0  0  0  0  0  0  0  0
   21.7124   72.9580   -5.2289 O   0  0  0  0  0  0  0  0  0  0  0  0
   22.9545   73.3680   -4.2788 P   0  0  2  0  0  0  0  0  0  0  0  0
   22.9668   74.9845   -4.3630 O   0  0  0  0  0  0  0  0  0  0  0  0
   24.2559   72.7193   -4.6524 O   0  0  0  0  0  0  0  0  0  0  0  0
   22.4496   73.0422   -2.7817 O   0  0  0  0  0  0  0  0  0  0  0  0
   21.8821   71.0296   -1.6696 O   0  0  0  0  0  0  0  0  0  0  0  0
   19.1086   73.6635   -0.1084 O   0  0  0  0  0  0  0  0  0  0  0  0
   19.7554   73.7103   -2.9568 O   0  0  0  0  0  0  0  0  0  0  0  0
   21.3960   72.8390    1.4850 O   0  0  0  0  0  0  0  0  0  0  0  0
   20.3681   73.2677   -0.6515 C   0  0  2  0  0  0  0  0  0  0  0  0
   20.1627   72.6904   -2.0522 C   0  0  2  0  0  0  0  0  0  0  0  0
   20.9722   72.2113    0.2764 C   0  0  1  0  0  0  0  0  0  0  0  0
   21.4488   72.0473   -2.5729 C   0  0  1  0  0  0  0  0  0  0  0  0
   22.1757   71.5280   -0.3664 C   0  0  1  0  0  0  0  0  0  0  0  0
   18.7057   74.3347   -0.6815 H   0  0  0  0  0  0  0  0  0  0  0  0
   18.9399   74.1228   -2.6325 H   0  0  0  0  0  0  0  0  0  0  0  0
   20.6392   73.2778    1.9041 H   0  0  0  0  0  0  0  0  0  0  0  0
   21.4860   69.8109    1.0749 O   0  0  0  0  0  0  0  0  0  0  0  0
   23.6606   69.7830    0.3896 O   0  0  0  0  0  0  0  0  0  0  0  0
   22.5508   70.2942    0.3881 C   0  0  0  0  0  0  0  0  0  0  0  0
  1  4  1  0
  1 24  1  0
  1  2  1  1
  1  3  2  0
 25 28  1  0
 25 24  1  0
 25 26  1  1
 25 27  2  0
  6 11  1  0
  6 12  1  0
 29 36  1  0
 29 37  1  0
  9  7  1  6
  7 13  1  0
 10  8  1  6
  8 14  1  0
  4  5  1  0
 36 28  1  1
 33 30  1  1
 30 38  1  0
 34 31  1  6
 31 39  1  0
 35 32  1  1
 32 40  1  0
 41 43  1  0
 15 19  2  0
 42 43  2  0
 16 22  2  0
 12 17  1  1
 17 19  1  0
 17 20  1  0
 18 19  1  0
 18 22  1  0
 18 23  1  0
  9 10  1  0
  9 11  1  0
 10 12  1  0
 11  5  1  1
 33 34  1  0
 33 35  1  0
 34 36  1  0
 35 37  1  0
 37 43  1  1
 20 21  2  0
 21 22  1  0
M  CHG  3   2  -1  26  -1  41  -1
M  END
>  <COMPND>  (90) 
    udp_gluA.pdb 

>  <AUTHOR>  (90) 
    GENERATED BY OPEN BABEL 3.1.1

>  <MASTER>  (90) 
        0    0    0    0    0    0    0    0   56    0   56    0

>  <minimizedAffinity>  (90) 
-6.96329

>  <CNNscore>  (90) 
0.6333516240

>  <CNNaffinity>  (90) 
4.3802485466

>  <CNN_VS>  (90) 
2.7742376328

>  <CNNaffinity_variance>  (90) 
0.2081379145

$$$$
91
     RDKit          3D

 43 45  0  0  0  0  0  0  0  0999 V2000
   22.4698   73.2554   -4.4464 P   0  0  2  0  0  0  0  0  0  0  0  0
   22.5097   74.8290   -4.8219 O   0  0  0  0  0  0  0  0  0  0  0  0
   23.3943   72.3886   -5.2501 O   0  0  0  0  0  0  0  0  0  0  0  0
   20.8993   72.8754   -4.5312 O   0  0  0  0  0  0  0  0  0  0  0  0
   20.4411   71.7339   -3.8301 C   0  0  0  0  0  0  0  0  0  0  0  0
   18.3647   72.1711   -4.9592 O   0  0  0  0  0  0  0  0  0  0  0  0
   17.0356   70.7805   -2.6589 O   0  0  0  0  0  0  0  0  0  0  0  0
   17.0527   68.8550   -4.5898 O   0  0  0  0  0  0  0  0  0  0  0  0
   18.2861   70.4958   -3.2865 C   0  0  1  0  0  0  0  0  0  0  0  0
   18.0598   69.8441   -4.6342 C   0  0  2  0  0  0  0  0  0  0  0  0
   18.9280   71.8202   -3.6767 C   0  0  1  0  0  0  0  0  0  0  0  0
   17.6746   71.0326   -5.4985 C   0  0  2  0  0  0  0  0  0  0  0  0
   16.6065   69.9494   -2.4006 H   0  0  0  0  0  0  0  0  0  0  0  0
   17.3458   68.1201   -4.0277 H   0  0  0  0  0  0  0  0  0  0  0  0
   15.9949   69.9699   -7.5049 O   0  0  0  0  0  0  0  0  0  0  0  0
   19.2581   70.4162  -10.7292 O   0  0  0  0  0  0  0  0  0  0  0  0
   18.0598   70.8600   -6.8706 N   0  0  0  0  0  0  0  0  0  0  0  0
   17.6221   70.1923   -9.1087 N   0  0  0  0  0  0  0  0  0  0  0  0
   17.1404   70.3168   -7.7989 C   0  0  0  0  0  0  0  0  0  0  0  0
   19.3340   71.2283   -7.2849 C   0  0  0  0  0  0  0  0  0  0  0  0
   19.7788   71.1037   -8.5369 C   0  0  0  0  0  0  0  0  0  0  0  0
   18.8809   70.5439   -9.5683 C   0  0  0  0  0  0  0  0  0  0  0  0
   17.0007   69.8146   -9.7724 H   0  0  0  0  0  0  0  0  0  0  0  0
   22.7586   73.2544   -2.8560 O   0  0  0  0  0  0  0  0  0  0  0  0
   22.4833   74.3778   -1.7265 P   0  0  2  0  0  0  0  0  0  0  0  0
   20.9216   74.7448   -1.9428 O   0  0  0  0  0  0  0  0  0  0  0  0
   23.4104   75.5569   -1.7919 O   0  0  0  0  0  0  0  0  0  0  0  0
   22.5225   73.5720   -0.3296 O   0  0  0  0  0  0  0  0  0  0  0  0
   23.0641   71.3083    0.1082 O   0  0  0  0  0  0  0  0  0  0  0  0
   20.2518   72.0810    3.0344 O   0  0  0  0  0  0  0  0  0  0  0  0
   19.8639   73.0646    0.3110 O   0  0  0  0  0  0  0  0  0  0  0  0
   23.0733   71.9464    3.7214 O   0  0  0  0  0  0  0  0  0  0  0  0
   21.3158   72.3922    2.1348 C   0  0  2  0  0  0  0  0  0  0  0  0
   20.8643   72.1296    0.6979 C   0  0  2  0  0  0  0  0  0  0  0  0
   22.5097   71.5026    2.4886 C   0  0  1  0  0  0  0  0  0  0  0  0
   22.0420   72.2301   -0.2726 C   0  0  1  0  0  0  0  0  0  0  0  0
   23.5875   71.5619    1.4101 C   0  0  1  0  0  0  0  0  0  0  0  0
   19.4819   72.6343    2.8286 H   0  0  0  0  0  0  0  0  0  0  0  0
   19.1137   73.0064    0.9228 H   0  0  0  0  0  0  0  0  0  0  0  0
   22.3974   71.9137    4.4163 H   0  0  0  0  0  0  0  0  0  0  0  0
   25.0664   70.0512    0.3941 O   0  0  0  0  0  0  0  0  0  0  0  0
   24.9181   69.9913    2.6687 O   0  0  0  0  0  0  0  0  0  0  0  0
   24.5813   70.4612    1.5922 C   0  0  0  0  0  0  0  0  0  0  0  0
  1  4  1  0
  1 24  1  0
  1  2  1  6
  1  3  2  0
 25 28  1  0
 25 24  1  0
 25 26  1  6
 25 27  2  0
  6 11  1  0
  6 12  1  0
 29 36  1  0
 29 37  1  0
  9  7  1  6
  7 13  1  0
 10  8  1  1
  8 14  1  0
  4  5  1  0
 36 28  1  1
 33 30  1  1
 30 38  1  0
 34 31  1  6
 31 39  1  0
 35 32  1  1
 32 40  1  0
 41 43  1  0
 15 19  2  0
 42 43  2  0
 16 22  2  0
 12 17  1  6
 17 19  1  0
 17 20  1  0
 18 19  1  0
 18 22  1  0
 18 23  1  0
  9 10  1  0
  9 11  1  0
 10 12  1  0
 11  5  1  6
 33 34  1  0
 33 35  1  0
 34 36  1  0
 35 37  1  0
 37 43  1  1
 20 21  2  0
 21 22  1  0
M  CHG  3   2  -1  26  -1  41  -1
M  END
>  <COMPND>  (91) 
    udp_gluA.pdb 

>  <AUTHOR>  (91) 
    GENERATED BY OPEN BABEL 3.1.1

>  <MASTER>  (91) 
        0    0    0    0    0    0    0    0   56    0   56    0

>  <minimizedAffinity>  (91) 
-7.54289

>  <CNNscore>  (91) 
0.6205133200

>  <CNNaffinity>  (91) 
4.3312501907

>  <CNN_VS>  (91) 
2.6875984669

>  <CNNaffinity_variance>  (91) 
0.0445389897

$$$$
92
     RDKit          3D

 43 45  0  0  0  0  0  0  0  0999 V2000
   21.2941   74.0117   -4.3943 P   0  0  2  0  0  0  0  0  0  0  0  0
   21.1186   75.5101   -4.9799 O   0  0  0  0  0  0  0  0  0  0  0  0
   21.6881   72.9776   -5.4078 O   0  0  0  0  0  0  0  0  0  0  0  0
   19.9052   73.7352   -3.6119 O   0  0  0  0  0  0  0  0  0  0  0  0
   18.7062   73.6773   -4.3625 C   0  0  0  0  0  0  0  0  0  0  0  0
   17.2944   71.8745   -5.0935 O   0  0  0  0  0  0  0  0  0  0  0  0
   17.9234   70.5653   -2.4701 O   0  0  0  0  0  0  0  0  0  0  0  0
   19.5722   69.2535   -4.2012 O   0  0  0  0  0  0  0  0  0  0  0  0
   18.7619   71.3638   -3.3056 C   0  0  1  0  0  0  0  0  0  0  0  0
   19.1917   70.5746   -4.5241 C   0  0  2  0  0  0  0  0  0  0  0  0
   17.9035   72.4598   -3.9223 C   0  0  1  0  0  0  0  0  0  0  0  0
   17.9452   70.6289   -5.3908 C   0  0  2  0  0  0  0  0  0  0  0  0
   18.4498   69.8580   -2.0648 H   0  0  0  0  0  0  0  0  0  0  0  0
   20.3701   69.2726   -3.6490 H   0  0  0  0  0  0  0  0  0  0  0  0
   16.1018   69.8978   -7.4018 O   0  0  0  0  0  0  0  0  0  0  0  0
   19.2259   70.4941  -10.7377 O   0  0  0  0  0  0  0  0  0  0  0  0
   18.2503   70.5846   -6.7929 N   0  0  0  0  0  0  0  0  0  0  0  0
   17.6598   70.1945   -9.0612 N   0  0  0  0  0  0  0  0  0  0  0  0
   17.2522   70.2039   -7.7208 C   0  0  0  0  0  0  0  0  0  0  0  0
   19.5246   70.9173   -7.2363 C   0  0  0  0  0  0  0  0  0  0  0  0
   19.8981   70.9037   -8.5173 C   0  0  0  0  0  0  0  0  0  0  0  0
   18.9154   70.5165   -9.5506 C   0  0  0  0  0  0  0  0  0  0  0  0
   16.9828   69.9307   -9.7256 H   0  0  0  0  0  0  0  0  0  0  0  0
   22.3548   74.2140   -3.1915 O   0  0  0  0  0  0  0  0  0  0  0  0
   23.8606   73.6579   -2.9994 P   0  0  2  0  0  0  0  0  0  0  0  0
   24.5812   74.8288   -2.1449 O   0  0  0  0  0  0  0  0  0  0  0  0
   24.5574   73.3110   -4.2832 O   0  0  0  0  0  0  0  0  0  0  0  0
   23.7143   72.4295   -1.9640 O   0  0  0  0  0  0  0  0  0  0  0  0
   23.8005   70.1496   -2.5994 O   0  0  0  0  0  0  0  0  0  0  0  0
   21.7024   69.9531    0.9541 O   0  0  0  0  0  0  0  0  0  0  0  0
   21.1368   72.0638   -0.9848 O   0  0  0  0  0  0  0  0  0  0  0  0
   24.4944   69.1487    0.8617 O   0  0  0  0  0  0  0  0  0  0  0  0
   22.6611   70.4748    0.0339 C   0  0  2  0  0  0  0  0  0  0  0  0
   21.9517   70.9263   -1.2430 C   0  0  2  0  0  0  0  0  0  0  0  0
   23.6675   69.3656   -0.2801 C   0  0  1  0  0  0  0  0  0  0  0  0
   22.9626   71.2757   -2.3361 C   0  0  1  0  0  0  0  0  0  0  0  0
   24.5569   69.7388   -1.4626 C   0  0  1  0  0  0  0  0  0  0  0  0
   21.0522   70.6406    1.1684 H   0  0  0  0  0  0  0  0  0  0  0  0
   20.4931   71.8493   -0.2919 H   0  0  0  0  0  0  0  0  0  0  0  0
   23.9406   68.9106    1.6215 H   0  0  0  0  0  0  0  0  0  0  0  0
   24.7878   67.4048   -1.4359 O   0  0  0  0  0  0  0  0  0  0  0  0
   26.2341   68.5781   -2.7515 O   0  0  0  0  0  0  0  0  0  0  0  0
   25.2980   68.5435   -1.9669 C   0  0  0  0  0  0  0  0  0  0  0  0
  1  4  1  0
  1 24  1  0
  1  2  1  6
  1  3  2  0
 25 28  1  0
 25 24  1  0
 25 26  1  1
 25 27  2  0
  6 11  1  0
  6 12  1  0
 29 36  1  0
 29 37  1  0
  9  7  1  1
  7 13  1  0
 10  8  1  1
  8 14  1  0
  4  5  1  0
 36 28  1  1
 33 30  1  1
 30 38  1  0
 34 31  1  1
 31 39  1  0
 35 32  1  1
 32 40  1  0
 41 43  1  0
 15 19  2  0
 42 43  2  0
 16 22  2  0
 12 17  1  6
 17 19  1  0
 17 20  1  0
 18 19  1  0
 18 22  1  0
 18 23  1  0
  9 10  1  0
  9 11  1  0
 10 12  1  0
 11  5  1  6
 33 34  1  0
 33 35  1  0
 34 36  1  0
 35 37  1  0
 37 43  1  6
 20 21  2  0
 21 22  1  0
M  CHG  3   2  -1  26  -1  41  -1
M  END
>  <COMPND>  (92) 
    udp_gluA.pdb 

>  <AUTHOR>  (92) 
    GENERATED BY OPEN BABEL 3.1.1

>  <MASTER>  (92) 
        0    0    0    0    0    0    0    0   56    0   56    0

>  <minimizedAffinity>  (92) 
-8.21270

>  <CNNscore>  (92) 
0.5568320155

>  <CNNaffinity>  (92) 
4.5256533623

>  <CNN_VS>  (92) 
2.5200285912

>  <CNNaffinity_variance>  (92) 
0.1056957468

$$$$
93
     RDKit          3D

 43 45  0  0  0  0  0  0  0  0999 V2000
   21.9641   72.9148   -6.0253 P   0  0  2  0  0  0  0  0  0  0  0  0
   21.5310   74.4738   -6.0511 O   0  0  0  0  0  0  0  0  0  0  0  0
   23.1022   72.5583   -6.9360 O   0  0  0  0  0  0  0  0  0  0  0  0
   20.5784   72.1222   -6.2891 O   0  0  0  0  0  0  0  0  0  0  0  0
   19.8935   72.3450   -7.5080 C   0  0  0  0  0  0  0  0  0  0  0  0
   18.9569   70.2044   -6.9441 O   0  0  0  0  0  0  0  0  0  0  0  0
   18.1838   69.9897   -9.8334 O   0  0  0  0  0  0  0  0  0  0  0  0
   15.8417   70.7196   -8.6425 O   0  0  0  0  0  0  0  0  0  0  0  0
   18.2114   71.1403   -8.9885 C   0  0  1  0  0  0  0  0  0  0  0  0
   17.0485   71.1072   -8.0196 C   0  0  2  0  0  0  0  0  0  0  0  0
   19.4074   71.0092   -8.0553 C   0  0  1  0  0  0  0  0  0  0  0  0
   17.5251   70.0977   -6.9892 C   0  0  2  0  0  0  0  0  0  0  0  0
   17.4278   70.0508  -10.4388 H   0  0  0  0  0  0  0  0  0  0  0  0
   15.5804   71.3946   -9.2892 H   0  0  0  0  0  0  0  0  0  0  0  0
   16.3648   68.1392   -5.3176 O   0  0  0  0  0  0  0  0  0  0  0  0
   15.5280   71.2144   -1.9879 O   0  0  0  0  0  0  0  0  0  0  0  0
   16.9960   70.3591   -5.6805 N   0  0  0  0  0  0  0  0  0  0  0  0
   15.9482   69.6729   -3.6612 N   0  0  0  0  0  0  0  0  0  0  0  0
   16.4345   69.3045   -4.9225 C   0  0  0  0  0  0  0  0  0  0  0  0
   17.0379   71.6469   -5.1600 C   0  0  0  0  0  0  0  0  0  0  0  0
   16.5704   71.9826   -3.9560 C   0  0  0  0  0  0  0  0  0  0  0  0
   15.9670   70.9397   -3.1006 C   0  0  0  0  0  0  0  0  0  0  0  0
   15.5508   68.9560   -3.1159 H   0  0  0  0  0  0  0  0  0  0  0  0
   22.2458   72.6422   -4.4571 O   0  0  0  0  0  0  0  0  0  0  0  0
   23.4347   73.1527   -3.4879 P   0  0  2  0  0  0  0  0  0  0  0  0
   22.8675   74.5560   -2.9142 O   0  0  0  0  0  0  0  0  0  0  0  0
   24.7744   73.2548   -4.1579 O   0  0  0  0  0  0  0  0  0  0  0  0
   23.3925   72.1497   -2.2251 O   0  0  0  0  0  0  0  0  0  0  0  0
   23.7594   69.8191   -2.4318 O   0  0  0  0  0  0  0  0  0  0  0  0
   21.6989   70.0320    1.1427 O   0  0  0  0  0  0  0  0  0  0  0  0
   20.8789   71.6622   -1.1386 O   0  0  0  0  0  0  0  0  0  0  0  0
   24.5688   69.5689    1.1382 O   0  0  0  0  0  0  0  0  0  0  0  0
   22.5866   70.4863    0.1212 C   0  0  2  0  0  0  0  0  0  0  0  0
   21.8280   70.6039   -1.2010 C   0  0  2  0  0  0  0  0  0  0  0  0
   23.7224   69.4685   -0.0054 C   0  0  1  0  0  0  0  0  0  0  0  0
   22.7890   70.8644   -2.3618 C   0  0  1  0  0  0  0  0  0  0  0  0
   24.5598   69.7209   -1.2558 C   0  0  1  0  0  0  0  0  0  0  0  0
   20.9688   70.6632    1.2411 H   0  0  0  0  0  0  0  0  0  0  0  0
   20.2661   71.5034   -0.4040 H   0  0  0  0  0  0  0  0  0  0  0  0
   24.0479   69.4104    1.9409 H   0  0  0  0  0  0  0  0  0  0  0  0
   26.0932   68.7251   -2.7250 O   0  0  0  0  0  0  0  0  0  0  0  0
   25.5697   67.5716   -0.8292 O   0  0  0  0  0  0  0  0  0  0  0  0
   25.4430   68.5517   -1.5477 C   0  0  0  0  0  0  0  0  0  0  0  0
  1  4  1  0
  1 24  1  0
  1  2  1  1
  1  3  2  0
 25 28  1  0
 25 24  1  0
 25 26  1  1
 25 27  2  0
  6 11  1  0
  6 12  1  0
 29 36  1  0
 29 37  1  0
  9  7  1  6
  7 13  1  0
 10  8  1  6
  8 14  1  0
  4  5  1  0
 36 28  1  1
 33 30  1  1
 30 38  1  0
 34 31  1  1
 31 39  1  0
 35 32  1  1
 32 40  1  0
 41 43  1  0
 15 19  2  0
 42 43  2  0
 16 22  2  0
 12 17  1  1
 17 19  1  0
 17 20  1  0
 18 19  1  0
 18 22  1  0
 18 23  1  0
  9 10  1  0
  9 11  1  0
 10 12  1  0
 11  5  1  1
 33 34  1  0
 33 35  1  0
 34 36  1  0
 35 37  1  0
 37 43  1  6
 20 21  2  0
 21 22  1  0
M  CHG  3   2  -1  26  -1  41  -1
M  END
>  <COMPND>  (93) 
    udp_gluA.pdb 

>  <AUTHOR>  (93) 
    GENERATED BY OPEN BABEL 3.1.1

>  <MASTER>  (93) 
        0    0    0    0    0    0    0    0   56    0   56    0

>  <minimizedAffinity>  (93) 
-8.93042

>  <CNNscore>  (93) 
0.5473890901

>  <CNNaffinity>  (93) 
4.2935371399

>  <CNN_VS>  (93) 
2.3502354622

>  <CNNaffinity_variance>  (93) 
0.4057714939

$$$$
94
     RDKit          3D

 43 45  0  0  0  0  0  0  0  0999 V2000
   23.0698   73.0646   -3.3229 P   0  0  2  0  0  0  0  0  0  0  0  0
   24.0722   72.4160   -4.4154 O   0  0  0  0  0  0  0  0  0  0  0  0
   23.4043   74.4681   -2.9107 O   0  0  0  0  0  0  0  0  0  0  0  0
   23.0348   71.9715   -2.1305 O   0  0  0  0  0  0  0  0  0  0  0  0
   23.5093   72.3507   -0.8516 C   0  0  0  0  0  0  0  0  0  0  0  0
   24.0520   71.4486    1.3093 O   0  0  0  0  0  0  0  0  0  0  0  0
   21.5516   69.8142    1.0488 O   0  0  0  0  0  0  0  0  0  0  0  0
   20.7689   71.8424    2.6949 O   0  0  0  0  0  0  0  0  0  0  0  0
   21.8090   71.1481    0.6097 C   0  0  1  0  0  0  0  0  0  0  0  0
   21.8241   72.0951    1.7909 C   0  0  2  0  0  0  0  0  0  0  0  0
   23.2525   71.2143    0.1298 C   0  0  1  0  0  0  0  0  0  0  0  0
   23.1906   71.8225    2.3962 C   0  0  2  0  0  0  0  0  0  0  0  0
   20.6350   69.7472    1.3602 H   0  0  0  0  0  0  0  0  0  0  0  0
   19.9207   72.0310    2.2626 H   0  0  0  0  0  0  0  0  0  0  0  0
   22.5009   72.6526    5.0061 O   0  0  0  0  0  0  0  0  0  0  0  0
   25.3597   76.2627    4.8100 O   0  0  0  0  0  0  0  0  0  0  0  0
   23.7395   72.9757    3.0516 N   0  0  0  0  0  0  0  0  0  0  0  0
   23.9247   74.4504    4.9056 N   0  0  0  0  0  0  0  0  0  0  0  0
   23.3256   73.3055    4.3639 C   0  0  0  0  0  0  0  0  0  0  0  0
   24.6774   73.7648    2.3969 C   0  0  0  0  0  0  0  0  0  0  0  0
   25.2396   74.8531    2.9263 C   0  0  0  0  0  0  0  0  0  0  0  0
   24.8613   75.2673    4.2932 C   0  0  0  0  0  0  0  0  0  0  0  0
   23.6508   74.7013    5.8174 H   0  0  0  0  0  0  0  0  0  0  0  0
   21.6190   72.8938   -4.0151 O   0  0  0  0  0  0  0  0  0  0  0  0
   20.1505   73.3672   -3.5326 P   0  0  2  0  0  0  0  0  0  0  0  0
   20.1069   74.9285   -3.9579 O   0  0  0  0  0  0  0  0  0  0  0  0
   19.8681   73.1138   -2.0800 O   0  0  0  0  0  0  0  0  0  0  0  0
   19.1312   72.6396   -4.5496 O   0  0  0  0  0  0  0  0  0  0  0  0
   18.7453   70.3342   -4.9310 O   0  0  0  0  0  0  0  0  0  0  0  0
   18.0553   71.9331   -8.6774 O   0  0  0  0  0  0  0  0  0  0  0  0
   20.3044   72.8633   -7.0615 O   0  0  0  0  0  0  0  0  0  0  0  0
   15.8223   71.1058   -7.0101 O   0  0  0  0  0  0  0  0  0  0  0  0
   18.0772   71.9198   -7.2500 C   0  0  2  0  0  0  0  0  0  0  0  0
   19.5123   71.7199   -6.7620 C   0  0  2  0  0  0  0  0  0  0  0  0
   17.1880   70.7688   -6.7742 C   0  0  1  0  0  0  0  0  0  0  0  0
   19.5475   71.4708   -5.2535 C   0  0  1  0  0  0  0  0  0  0  0  0
   17.3738   70.5009   -5.2834 C   0  0  1  0  0  0  0  0  0  0  0  0
   18.6138   72.6566   -9.0028 H   0  0  0  0  0  0  0  0  0  0  0  0
   20.2863   73.0274   -8.0171 H   0  0  0  0  0  0  0  0  0  0  0  0
   15.6906   71.2788   -7.9554 H   0  0  0  0  0  0  0  0  0  0  0  0
   16.7539   69.0449   -3.5522 O   0  0  0  0  0  0  0  0  0  0  0  0
   16.3378   68.3595   -5.6867 O   0  0  0  0  0  0  0  0  0  0  0  0
   16.7673   69.1903   -4.9003 C   0  0  0  0  0  0  0  0  0  0  0  0
  1  4  1  0
  1 24  1  0
  1  2  1  6
  1  3  2  0
 25 28  1  0
 25 24  1  0
 25 26  1  1
 25 27  2  0
  6 11  1  0
  6 12  1  0
 29 36  1  0
 29 37  1  0
  9  7  1  1
  7 13  1  0
 10  8  1  1
  8 14  1  0
  4  5  1  0
 36 28  1  1
 33 30  1  6
 30 38  1  0
 34 31  1  1
 31 39  1  0
 35 32  1  1
 32 40  1  0
 41 43  1  0
 15 19  2  0
 42 43  2  0
 16 22  2  0
 12 17  1  6
 17 19  1  0
 17 20  1  0
 18 19  1  0
 18 22  1  0
 18 23  1  0
  9 10  1  0
  9 11  1  0
 10 12  1  0
 11  5  1  6
 33 34  1  0
 33 35  1  0
 34 36  1  0
 35 37  1  0
 37 43  1  6
 20 21  2  0
 21 22  1  0
M  CHG  3   2  -1  26  -1  41  -1
M  END
>  <COMPND>  (94) 
    udp_gluA.pdb 

>  <AUTHOR>  (94) 
    GENERATED BY OPEN BABEL 3.1.1

>  <MASTER>  (94) 
        0    0    0    0    0    0    0    0   56    0   56    0

>  <minimizedAffinity>  (94) 
-6.98054

>  <CNNscore>  (94) 
0.4961971939

>  <CNNaffinity>  (94) 
4.1588678360

>  <CNN_VS>  (94) 
2.0636186600

>  <CNNaffinity_variance>  (94) 
0.0634205788

$$$$
95
     RDKit          3D

 43 45  0  0  0  0  0  0  0  0999 V2000
   19.2626   74.0117   -3.3207 P   0  0  2  0  0  0  0  0  0  0  0  0
   18.1664   75.1315   -3.7248 O   0  0  0  0  0  0  0  0  0  0  0  0
   18.7320   72.6113   -3.2249 O   0  0  0  0  0  0  0  0  0  0  0  0
   19.9406   74.5998   -1.9744 O   0  0  0  0  0  0  0  0  0  0  0  0
   20.0962   73.7365   -0.8631 C   0  0  0  0  0  0  0  0  0  0  0  0
   22.2668   73.3071    0.0759 O   0  0  0  0  0  0  0  0  0  0  0  0
   22.2989   70.8257   -1.6073 O   0  0  0  0  0  0  0  0  0  0  0  0
   21.6421   69.8645    0.8586 O   0  0  0  0  0  0  0  0  0  0  0  0
   21.2036   71.4471   -0.9345 C   0  0  1  0  0  0  0  0  0  0  0  0
   21.2959   71.2000    0.5564 C   0  0  2  0  0  0  0  0  0  0  0  0
   21.3945   72.9553   -1.0198 C   0  0  1  0  0  0  0  0  0  0  0  0
   22.3686   72.1911    0.9746 C   0  0  2  0  0  0  0  0  0  0  0  0
   22.1990   69.8614   -1.5661 H   0  0  0  0  0  0  0  0  0  0  0  0
   20.9276   69.2728    0.5734 H   0  0  0  0  0  0  0  0  0  0  0  0
   23.5289   70.9837    3.2489 O   0  0  0  0  0  0  0  0  0  0  0  0
   21.6112   74.0657    6.0892 O   0  0  0  0  0  0  0  0  0  0  0  0
   22.1891   72.6574    2.3204 N   0  0  0  0  0  0  0  0  0  0  0  0
   22.5718   72.5192    4.6615 N   0  0  0  0  0  0  0  0  0  0  0  0
   22.8160   71.9788    3.3921 C   0  0  0  0  0  0  0  0  0  0  0  0
   21.4015   73.7752    2.5679 C   0  0  0  0  0  0  0  0  0  0  0  0
   21.1781   74.2786    3.7833 C   0  0  0  0  0  0  0  0  0  0  0  0
   21.7958   73.6281    4.9575 C   0  0  0  0  0  0  0  0  0  0  0  0
   22.9961   72.0626    5.4236 H   0  0  0  0  0  0  0  0  0  0  0  0
   20.4193   74.2191   -4.4306 O   0  0  0  0  0  0  0  0  0  0  0  0
   21.1166   73.1714   -5.4454 P   0  0  2  0  0  0  0  0  0  0  0  0
   21.8344   72.1151   -4.4508 O   0  0  0  0  0  0  0  0  0  0  0  0
   22.0399   73.8047   -6.4456 O   0  0  0  0  0  0  0  0  0  0  0  0
   19.8886   72.3505   -6.0938 O   0  0  0  0  0  0  0  0  0  0  0  0
   19.3287   70.1307   -5.4869 O   0  0  0  0  0  0  0  0  0  0  0  0
   17.6543   70.4205   -9.2526 O   0  0  0  0  0  0  0  0  0  0  0  0
   20.3025   71.5329   -8.7198 O   0  0  0  0  0  0  0  0  0  0  0  0
   15.9627   70.5318   -6.8910 O   0  0  0  0  0  0  0  0  0  0  0  0
   18.0824   70.8965   -7.9766 C   0  0  2  0  0  0  0  0  0  0  0  0
   19.5891   70.6824   -7.8297 C   0  0  2  0  0  0  0  0  0  0  0  0
   17.3261   70.1130   -6.9014 C   0  0  1  0  0  0  0  0  0  0  0  0
   20.0449   70.9656   -6.3976 C   0  0  1  0  0  0  0  0  0  0  0  0
   17.9204   70.3520   -5.5164 C   0  0  1  0  0  0  0  0  0  0  0  0
   18.1217   70.9041   -9.9518 H   0  0  0  0  0  0  0  0  0  0  0  0
   20.0181   71.3588   -9.6304 H   0  0  0  0  0  0  0  0  0  0  0  0
   15.5727   70.3851   -7.7670 H   0  0  0  0  0  0  0  0  0  0  0  0
   18.3889   68.9467   -3.6979 O   0  0  0  0  0  0  0  0  0  0  0  0
   16.2507   68.9451   -4.4898 O   0  0  0  0  0  0  0  0  0  0  0  0
   17.4027   69.3496   -4.5369 C   0  0  0  0  0  0  0  0  0  0  0  0
  1  4  1  0
  1 24  1  0
  1  2  1  6
  1  3  2  0
 25 28  1  0
 25 24  1  0
 25 26  1  1
 25 27  2  0
  6 11  1  0
  6 12  1  0
 29 36  1  0
 29 37  1  0
  9  7  1  6
  7 13  1  0
 10  8  1  6
  8 14  1  0
  4  5  1  0
 36 28  1  1
 33 30  1  6
 30 38  1  0
 34 31  1  6
 31 39  1  0
 35 32  1  1
 32 40  1  0
 41 43  1  0
 15 19  2  0
 42 43  2  0
 16 22  2  0
 12 17  1  1
 17 19  1  0
 17 20  1  0
 18 19  1  0
 18 22  1  0
 18 23  1  0
  9 10  1  0
  9 11  1  0
 10 12  1  0
 11  5  1  1
 33 34  1  0
 33 35  1  0
 34 36  1  0
 35 37  1  0
 37 43  1  1
 20 21  2  0
 21 22  1  0
M  CHG  3   2  -1  26  -1  41  -1
M  END
>  <COMPND>  (95) 
    udp_gluA.pdb 

>  <AUTHOR>  (95) 
    GENERATED BY OPEN BABEL 3.1.1

>  <MASTER>  (95) 
        0    0    0    0    0    0    0    0   56    0   56    0

>  <minimizedAffinity>  (95) 
-6.67943

>  <CNNscore>  (95) 
0.4745401442

>  <CNNaffinity>  (95) 
4.0969748497

>  <CNN_VS>  (95) 
1.9441790581

>  <CNNaffinity_variance>  (95) 
0.1114354581

$$$$
96
     RDKit          3D

 43 45  0  0  0  0  0  0  0  0999 V2000
   22.9167   73.1420   -3.6940 P   0  0  2  0  0  0  0  0  0  0  0  0
   24.2948   72.7900   -4.4658 O   0  0  0  0  0  0  0  0  0  0  0  0
   22.7588   74.5825   -3.3045 O   0  0  0  0  0  0  0  0  0  0  0  0
   22.8693   72.0760   -2.4777 O   0  0  0  0  0  0  0  0  0  0  0  0
   23.3086   72.4912   -1.1973 C   0  0  0  0  0  0  0  0  0  0  0  0
   22.6512   70.2593   -0.5939 O   0  0  0  0  0  0  0  0  0  0  0  0
   22.4271   71.2844    2.2151 O   0  0  0  0  0  0  0  0  0  0  0  0
   24.8320   69.9992    2.2400 O   0  0  0  0  0  0  0  0  0  0  0  0
   23.3654   71.6346    1.1976 C   0  0  1  0  0  0  0  0  0  0  0  0
   24.3750   70.5220    1.0102 C   0  0  2  0  0  0  0  0  0  0  0  0
   22.6340   71.6294   -0.1378 C   0  0  1  0  0  0  0  0  0  0  0  0
   23.5816   69.5089    0.2027 C   0  0  2  0  0  0  0  0  0  0  0  0
   22.8714   71.2811    3.0778 H   0  0  0  0  0  0  0  0  0  0  0  0
   25.3311   70.6820    2.7161 H   0  0  0  0  0  0  0  0  0  0  0  0
   24.2622   66.8054    0.6549 O   0  0  0  0  0  0  0  0  0  0  0  0
   26.7868   66.6069   -3.1962 O   0  0  0  0  0  0  0  0  0  0  0  0
   24.4152   68.7266   -0.6657 N   0  0  0  0  0  0  0  0  0  0  0  0
   25.5198   66.7094   -1.2631 N   0  0  0  0  0  0  0  0  0  0  0  0
   24.6960   67.3769   -0.3471 C   0  0  0  0  0  0  0  0  0  0  0  0
   24.9431   69.2958   -1.8182 C   0  0  0  0  0  0  0  0  0  0  0  0
   25.7267   68.6469   -2.6817 C   0  0  0  0  0  0  0  0  0  0  0  0
   26.0692   67.2331   -2.4222 C   0  0  0  0  0  0  0  0  0  0  0  0
   25.7310   65.7692   -1.0615 H   0  0  0  0  0  0  0  0  0  0  0  0
   21.7831   72.5898   -4.7054 O   0  0  0  0  0  0  0  0  0  0  0  0
   21.0637   73.2853   -5.9752 P   0  0  2  0  0  0  0  0  0  0  0  0
   22.0940   72.9942   -7.1893 O   0  0  0  0  0  0  0  0  0  0  0  0
   20.7347   74.7368   -5.7778 O   0  0  0  0  0  0  0  0  0  0  0  0
   19.7896   72.3467   -6.2885 O   0  0  0  0  0  0  0  0  0  0  0  0
   19.3021   70.1612   -5.5171 O   0  0  0  0  0  0  0  0  0  0  0  0
   17.5363   70.1479   -9.2521 O   0  0  0  0  0  0  0  0  0  0  0  0
   20.1656   71.3597   -8.8615 O   0  0  0  0  0  0  0  0  0  0  0  0
   15.8960   70.3806   -6.8633 O   0  0  0  0  0  0  0  0  0  0  0  0
   17.9804   70.7216   -8.0226 C   0  0  2  0  0  0  0  0  0  0  0  0
   19.4951   70.5555   -7.8980 C   0  0  2  0  0  0  0  0  0  0  0  0
   17.2694   69.9960   -6.8781 C   0  0  1  0  0  0  0  0  0  0  0  0
   19.9754   70.9484   -6.5002 C   0  0  1  0  0  0  0  0  0  0  0  0
   17.8882   70.3450   -5.5276 C   0  0  1  0  0  0  0  0  0  0  0  0
   17.9750   70.5932   -9.9940 H   0  0  0  0  0  0  0  0  0  0  0  0
   19.8654   71.1159   -9.7508 H   0  0  0  0  0  0  0  0  0  0  0  0
   15.4903   70.1641   -7.7174 H   0  0  0  0  0  0  0  0  0  0  0  0
   18.4460   69.0404   -3.6598 O   0  0  0  0  0  0  0  0  0  0  0  0
   16.2706   69.0038   -4.3419 O   0  0  0  0  0  0  0  0  0  0  0  0
   17.4193   69.4004   -4.4692 C   0  0  0  0  0  0  0  0  0  0  0  0
  1  4  1  0
  1 24  1  0
  1  2  1  6
  1  3  2  0
 25 28  1  0
 25 24  1  0
 25 26  1  6
 25 27  2  0
  6 11  1  0
  6 12  1  0
 29 36  1  0
 29 37  1  0
  9  7  1  1
  7 13  1  0
 10  8  1  1
  8 14  1  0
  4  5  1  0
 36 28  1  1
 33 30  1  6
 30 38  1  0
 34 31  1  6
 31 39  1  0
 35 32  1  1
 32 40  1  0
 41 43  1  0
 15 19  2  0
 42 43  2  0
 16 22  2  0
 12 17  1  6
 17 19  1  0
 17 20  1  0
 18 19  1  0
 18 22  1  0
 18 23  1  0
  9 10  1  0
  9 11  1  0
 10 12  1  0
 11  5  1  6
 33 34  1  0
 33 35  1  0
 34 36  1  0
 35 37  1  0
 37 43  1  1
 20 21  2  0
 21 22  1  0
M  CHG  3   2  -1  26  -1  41  -1
M  END
>  <COMPND>  (96) 
    udp_gluA.pdb 

>  <AUTHOR>  (96) 
    GENERATED BY OPEN BABEL 3.1.1

>  <MASTER>  (96) 
        0    0    0    0    0    0    0    0   56    0   56    0

>  <minimizedAffinity>  (96) 
-8.98002

>  <CNNscore>  (96) 
0.4436628222

>  <CNNaffinity>  (96) 
4.4021072388

>  <CNN_VS>  (96) 
1.9530513287

>  <CNNaffinity_variance>  (96) 
0.3370703757

$$$$
97
     RDKit          3D

 43 45  0  0  0  0  0  0  0  0999 V2000
   23.3389   73.5283   -4.2514 P   0  0  2  0  0  0  0  0  0  0  0  0
   24.2542   72.2058   -4.0712 O   0  0  0  0  0  0  0  0  0  0  0  0
   24.0087   74.6711   -4.9564 O   0  0  0  0  0  0  0  0  0  0  0  0
   22.8079   73.8400   -2.7551 O   0  0  0  0  0  0  0  0  0  0  0  0
   22.1153   75.0527   -2.5224 C   0  0  0  0  0  0  0  0  0  0  0  0
   20.8155   73.3666   -1.4065 O   0  0  0  0  0  0  0  0  0  0  0  0
   19.1394   75.6194   -0.3542 O   0  0  0  0  0  0  0  0  0  0  0  0
   20.7380   75.0220    1.7727 O   0  0  0  0  0  0  0  0  0  0  0  0
   20.5472   75.5731   -0.5878 C   0  0  1  0  0  0  0  0  0  0  0  0
   21.2283   74.7415    0.4783 C   0  0  2  0  0  0  0  0  0  0  0  0
   20.7883   74.7433   -1.8415 C   0  0  1  0  0  0  0  0  0  0  0  0
   20.9096   73.3266    0.0262 C   0  0  2  0  0  0  0  0  0  0  0  0
   18.9606   76.1444    0.4421 H   0  0  0  0  0  0  0  0  0  0  0  0
   20.9665   75.9338    2.0144 H   0  0  0  0  0  0  0  0  0  0  0  0
   20.5408   70.5287    0.1362 O   0  0  0  0  0  0  0  0  0  0  0  0
   24.8937   69.8241    1.4780 O   0  0  0  0  0  0  0  0  0  0  0  0
   21.9296   72.3886    0.4011 N   0  0  0  0  0  0  0  0  0  0  0  0
   22.7088   70.1805    0.8053 N   0  0  0  0  0  0  0  0  0  0  0  0
   21.6409   71.0036    0.4244 C   0  0  0  0  0  0  0  0  0  0  0  0
   23.1989   72.8424    0.7388 C   0  0  0  0  0  0  0  0  0  0  0  0
   24.2067   72.0456    1.0998 C   0  0  0  0  0  0  0  0  0  0  0  0
   23.9882   70.5851    1.1506 C   0  0  0  0  0  0  0  0  0  0  0  0
   22.5313   69.2124    0.8309 H   0  0  0  0  0  0  0  0  0  0  0  0
   22.0207   72.9589   -4.9935 O   0  0  0  0  0  0  0  0  0  0  0  0
   21.1605   73.5478   -6.2292 P   0  0  2  0  0  0  0  0  0  0  0  0
   22.0867   73.2180   -7.5151 O   0  0  0  0  0  0  0  0  0  0  0  0
   20.7917   74.9963   -6.0878 O   0  0  0  0  0  0  0  0  0  0  0  0
   19.9026   72.5471   -6.3660 O   0  0  0  0  0  0  0  0  0  0  0  0
   19.5522   70.3665   -5.5107 O   0  0  0  0  0  0  0  0  0  0  0  0
   17.5349   70.1912   -9.1118 O   0  0  0  0  0  0  0  0  0  0  0  0
   20.1374   71.5067   -8.9348 O   0  0  0  0  0  0  0  0  0  0  0  0
   16.0555   70.4278   -6.6206 O   0  0  0  0  0  0  0  0  0  0  0  0
   18.0408   70.8128   -7.9304 C   0  0  2  0  0  0  0  0  0  0  0  0
   19.5657   70.7045   -7.9079 C   0  0  2  0  0  0  0  0  0  0  0  0
   17.4382   70.0925   -6.7220 C   0  0  1  0  0  0  0  0  0  0  0  0
   20.1260   71.1512   -6.5569 C   0  0  1  0  0  0  0  0  0  0  0  0
   18.1350   70.4990   -5.4267 C   0  0  1  0  0  0  0  0  0  0  0  0
   17.9043   70.6324   -9.8930 H   0  0  0  0  0  0  0  0  0  0  0  0
   19.7860   71.2289   -9.7949 H   0  0  0  0  0  0  0  0  0  0  0  0
   15.6005   70.1743   -7.4388 H   0  0  0  0  0  0  0  0  0  0  0  0
   16.8853   68.6363   -4.7410 O   0  0  0  0  0  0  0  0  0  0  0  0
   18.2209   69.6249   -3.1795 O   0  0  0  0  0  0  0  0  0  0  0  0
   17.7761   69.5664   -4.3161 C   0  0  0  0  0  0  0  0  0  0  0  0
  1  4  1  0
  1 24  1  0
  1  2  1  1
  1  3  2  0
 25 28  1  0
 25 24  1  0
 25 26  1  6
 25 27  2  0
  6 11  1  0
  6 12  1  0
 29 36  1  0
 29 37  1  0
  9  7  1  1
  7 13  1  0
 10  8  1  1
  8 14  1  0
  4  5  1  0
 36 28  1  1
 33 30  1  6
 30 38  1  0
 34 31  1  6
 31 39  1  0
 35 32  1  1
 32 40  1  0
 41 43  1  0
 15 19  2  0
 42 43  2  0
 16 22  2  0
 12 17  1  6
 17 19  1  0
 17 20  1  0
 18 19  1  0
 18 22  1  0
 18 23  1  0
  9 10  1  0
  9 11  1  0
 10 12  1  0
 11  5  1  1
 33 34  1  0
 33 35  1  0
 34 36  1  0
 35 37  1  0
 37 43  1  1
 20 21  2  0
 21 22  1  0
M  CHG  3   2  -1  26  -1  41  -1
M  END
>  <COMPND>  (97) 
    udp_gluA.pdb 

>  <AUTHOR>  (97) 
    GENERATED BY OPEN BABEL 3.1.1

>  <MASTER>  (97) 
        0    0    0    0    0    0    0    0   56    0   56    0

>  <minimizedAffinity>  (97) 
-7.07836

>  <CNNscore>  (97) 
0.4313150942

>  <CNNaffinity>  (97) 
4.2222580910

>  <CNN_VS>  (97) 
1.8211236000

>  <CNNaffinity_variance>  (97) 
0.1198922768

$$$$
98
     RDKit          3D

 43 45  0  0  0  0  0  0  0  0999 V2000
   22.5654   72.7431   -3.9163 P   0  0  2  0  0  0  0  0  0  0  0  0
   23.8823   72.7730   -4.8563 O   0  0  0  0  0  0  0  0  0  0  0  0
   22.0128   74.0912   -3.5570 O   0  0  0  0  0  0  0  0  0  0  0  0
   22.9988   71.8066   -2.6700 O   0  0  0  0  0  0  0  0  0  0  0  0
   23.2149   72.4151   -1.4101 C   0  0  0  0  0  0  0  0  0  0  0  0
   22.6124   70.1871   -0.7387 O   0  0  0  0  0  0  0  0  0  0  0  0
   22.3172   71.3012    2.0296 O   0  0  0  0  0  0  0  0  0  0  0  0
   24.7571   70.0878    2.1327 O   0  0  0  0  0  0  0  0  0  0  0  0
   23.2603   71.6433    1.0137 C   0  0  1  0  0  0  0  0  0  0  0  0
   24.3038   70.5546    0.8792 C   0  0  2  0  0  0  0  0  0  0  0  0
   22.5494   71.5710   -0.3308 C   0  0  1  0  0  0  0  0  0  0  0  0
   23.5518   69.4918    0.0965 C   0  0  2  0  0  0  0  0  0  0  0  0
   22.7484   71.3404    2.8980 H   0  0  0  0  0  0  0  0  0  0  0  0
   25.2294   70.8007    2.5917 H   0  0  0  0  0  0  0  0  0  0  0  0
   24.2368   66.8000    0.6081 O   0  0  0  0  0  0  0  0  0  0  0  0
   26.8921   66.5703   -3.1523 O   0  0  0  0  0  0  0  0  0  0  0  0
   24.4201   68.7047   -0.7326 N   0  0  0  0  0  0  0  0  0  0  0  0
   25.5594   66.6885   -1.2647 N   0  0  0  0  0  0  0  0  0  0  0  0
   24.7001   67.3616   -0.3864 C   0  0  0  0  0  0  0  0  0  0  0  0
   24.9827   69.2626   -1.8741 C   0  0  0  0  0  0  0  0  0  0  0  0
   25.7999   68.6084   -2.7017 C   0  0  0  0  0  0  0  0  0  0  0  0
   26.1439   67.2010   -2.4116 C   0  0  0  0  0  0  0  0  0  0  0  0
   25.7707   65.7527   -1.0434 H   0  0  0  0  0  0  0  0  0  0  0  0
   21.5493   71.7979   -4.7450 O   0  0  0  0  0  0  0  0  0  0  0  0
   20.3095   70.8844   -4.2532 P   0  0  2  0  0  0  0  0  0  0  0  0
   19.6712   71.7481   -3.0421 O   0  0  0  0  0  0  0  0  0  0  0  0
   20.6891   69.4809   -3.8788 O   0  0  0  0  0  0  0  0  0  0  0  0
   19.2259   70.9898   -5.4436 O   0  0  0  0  0  0  0  0  0  0  0  0
   19.4747   71.5894   -7.7213 O   0  0  0  0  0  0  0  0  0  0  0  0
   15.7182   73.0805   -6.8651 O   0  0  0  0  0  0  0  0  0  0  0  0
   17.9047   73.3875   -4.9522 O   0  0  0  0  0  0  0  0  0  0  0  0
   15.9999   70.6367   -8.4142 O   0  0  0  0  0  0  0  0  0  0  0  0
   16.8187   72.1780   -6.7532 C   0  0  2  0  0  0  0  0  0  0  0  0
   18.0615   72.9409   -6.2940 C   0  0  2  0  0  0  0  0  0  0  0  0
   17.0573   71.5503   -8.1283 C   0  0  1  0  0  0  0  0  0  0  0  0
   19.3083   72.0599   -6.3833 C   0  0  1  0  0  0  0  0  0  0  0  0
   18.3814   70.7933   -8.1730 C   0  0  1  0  0  0  0  0  0  0  0  0
   15.5480   73.4916   -6.0030 H   0  0  0  0  0  0  0  0  0  0  0  0
   17.1152   73.9469   -4.8882 H   0  0  0  0  0  0  0  0  0  0  0  0
   15.1514   71.1060   -8.3888 H   0  0  0  0  0  0  0  0  0  0  0  0
   18.0816   69.3832  -10.0232 O   0  0  0  0  0  0  0  0  0  0  0  0
   19.5687   71.0965  -10.2514 O   0  0  0  0  0  0  0  0  0  0  0  0
   18.7608   70.4707   -9.5816 C   0  0  0  0  0  0  0  0  0  0  0  0
  1  4  1  0
  1 24  1  0
  1  2  1  6
  1  3  2  0
 25 28  1  0
 25 24  1  0
 25 26  1  1
 25 27  2  0
  6 11  1  0
  6 12  1  0
 29 36  1  0
 29 37  1  0
  9  7  1  1
  7 13  1  0
 10  8  1  1
  8 14  1  0
  4  5  1  0
 36 28  1  1
 33 30  1  6
 30 38  1  0
 34 31  1  1
 31 39  1  0
 35 32  1  1
 32 40  1  0
 41 43  1  0
 15 19  2  0
 42 43  2  0
 16 22  2  0
 12 17  1  6
 17 19  1  0
 17 20  1  0
 18 19  1  0
 18 22  1  0
 18 23  1  0
  9 10  1  0
  9 11  1  0
 10 12  1  0
 11  5  1  6
 33 34  1  0
 33 35  1  0
 34 36  1  0
 35 37  1  0
 37 43  1  6
 20 21  2  0
 21 22  1  0
M  CHG  3   2  -1  26  -1  41  -1
M  END
>  <COMPND>  (98) 
    udp_gluA.pdb 

>  <AUTHOR>  (98) 
    GENERATED BY OPEN BABEL 3.1.1

>  <MASTER>  (98) 
        0    0    0    0    0    0    0    0   56    0   56    0

>  <minimizedAffinity>  (98) 
-8.33066

>  <CNNscore>  (98) 
0.3664202094

>  <CNNaffinity>  (98) 
4.2583036423

>  <CNN_VS>  (98) 
1.5603284836

>  <CNNaffinity_variance>  (98) 
0.1177534088

$$$$
99
     RDKit          3D

 43 45  0  0  0  0  0  0  0  0999 V2000
   20.0201   72.6031   -3.1323 P   0  0  2  0  0  0  0  0  0  0  0  0
   20.2812   71.1636   -3.8242 O   0  0  0  0  0  0  0  0  0  0  0  0
   21.1307   73.5980   -3.3013 O   0  0  0  0  0  0  0  0  0  0  0  0
   19.6325   72.2355   -1.6051 O   0  0  0  0  0  0  0  0  0  0  0  0
   20.2915   72.9215   -0.5564 C   0  0  0  0  0  0  0  0  0  0  0  0
   20.9233   70.7805    0.3349 O   0  0  0  0  0  0  0  0  0  0  0  0
   20.6630   72.0395    3.0439 O   0  0  0  0  0  0  0  0  0  0  0  0
   23.3591   72.0567    2.6354 O   0  0  0  0  0  0  0  0  0  0  0  0
   21.1351   72.6108    1.8235 C   0  0  1  0  0  0  0  0  0  0  0  0
   22.5188   72.0877    1.5007 C   0  0  2  0  0  0  0  0  0  0  0  0
   20.3039   72.0374    0.6840 C   0  0  1  0  0  0  0  0  0  0  0  0
   22.2137   70.7008    0.9609 C   0  0  2  0  0  0  0  0  0  0  0  0
   21.1792   72.3908    3.7867 H   0  0  0  0  0  0  0  0  0  0  0  0
   23.5237   72.9632    2.9407 H   0  0  0  0  0  0  0  0  0  0  0  0
   24.6658   69.4519    1.5965 O   0  0  0  0  0  0  0  0  0  0  0  0
   25.8353   69.0763   -2.8459 O   0  0  0  0  0  0  0  0  0  0  0  0
   23.1777   70.2664   -0.0100 N   0  0  0  0  0  0  0  0  0  0  0  0
   25.2464   69.2669   -0.6166 N   0  0  0  0  0  0  0  0  0  0  0  0
   24.3785   69.6498    0.4145 C   0  0  0  0  0  0  0  0  0  0  0  0
   22.9292   70.4507   -1.3647 C   0  0  0  0  0  0  0  0  0  0  0  0
   23.7661   70.0804   -2.3359 C   0  0  0  0  0  0  0  0  0  0  0  0
   25.0434   69.4297   -1.9775 C   0  0  0  0  0  0  0  0  0  0  0  0
   26.0898   68.8374   -0.3456 H   0  0  0  0  0  0  0  0  0  0  0  0
   18.6051   73.0593   -3.7666 O   0  0  0  0  0  0  0  0  0  0  0  0
   17.4012   73.9444   -3.1493 P   0  0  2  0  0  0  0  0  0  0  0  0
   16.6217   74.4768   -4.4642 O   0  0  0  0  0  0  0  0  0  0  0  0
   17.8515   75.0302   -2.2153 O   0  0  0  0  0  0  0  0  0  0  0  0
   16.3980   72.8671   -2.4894 O   0  0  0  0  0  0  0  0  0  0  0  0
   16.0105   71.0924   -4.0091 O   0  0  0  0  0  0  0  0  0  0  0  0
   13.5421   70.0582   -0.8618 O   0  0  0  0  0  0  0  0  0  0  0  0
   13.7145   72.8332   -1.7586 O   0  0  0  0  0  0  0  0  0  0  0  0
   16.0554   68.6547   -1.2673 O   0  0  0  0  0  0  0  0  0  0  0  0
   14.6939   70.6310   -1.4808 C   0  0  2  0  0  0  0  0  0  0  0  0
   14.2595   71.7217   -2.4602 C   0  0  2  0  0  0  0  0  0  0  0  0
   15.4367   69.5163   -2.2209 C   0  0  1  0  0  0  0  0  0  0  0  0
   15.4402   72.1979   -3.3076 C   0  0  1  0  0  0  0  0  0  0  0  0
   16.5157   70.0808   -3.1404 C   0  0  1  0  0  0  0  0  0  0  0  0
   13.0541   70.7482   -0.3854 H   0  0  0  0  0  0  0  0  0  0  0  0
   12.9650   72.5382   -1.2186 H   0  0  0  0  0  0  0  0  0  0  0  0
   15.3794   68.2887   -0.6757 H   0  0  0  0  0  0  0  0  0  0  0  0
   17.9913   68.2987   -3.5251 O   0  0  0  0  0  0  0  0  0  0  0  0
   16.5747   68.8608   -5.2211 O   0  0  0  0  0  0  0  0  0  0  0  0
   17.0033   69.0357   -4.0903 C   0  0  0  0  0  0  0  0  0  0  0  0
  1  4  1  0
  1 24  1  0
  1  2  1  6
  1  3  2  0
 25 28  1  0
 25 24  1  0
 25 26  1  6
 25 27  2  0
  6 11  1  0
  6 12  1  0
 29 36  1  0
 29 37  1  0
  9  7  1  1
  7 13  1  0
 10  8  1  1
  8 14  1  0
  4  5  1  0
 36 28  1  1
 33 30  1  6
 30 38  1  0
 34 31  1  1
 31 39  1  0
 35 32  1  1
 32 40  1  0
 41 43  1  0
 15 19  2  0
 42 43  2  0
 16 22  2  0
 12 17  1  6
 17 19  1  0
 17 20  1  0
 18 19  1  0
 18 22  1  0
 18 23  1  0
  9 10  1  0
  9 11  1  0
 10 12  1  0
 11  5  1  6
 33 34  1  0
 33 35  1  0
 34 36  1  0
 35 37  1  0
 37 43  1  6
 20 21  2  0
 21 22  1  0
M  CHG  3   2  -1  26  -1  41  -1
M  END
>  <COMPND>  (99) 
    udp_gluA.pdb 

>  <AUTHOR>  (99) 
    GENERATED BY OPEN BABEL 3.1.1

>  <MASTER>  (99) 
        0    0    0    0    0    0    0    0   56    0   56    0

>  <minimizedAffinity>  (99) 
-6.87781

>  <CNNscore>  (99) 
0.3654377460

>  <CNNaffinity>  (99) 
3.7620697021

>  <CNN_VS>  (99) 
1.3748022318

>  <CNNaffinity_variance>  (99) 
0.4878266752

$$$$
100
     RDKit          3D

 43 45  0  0  0  0  0  0  0  0999 V2000
   23.0371   72.1368   -2.7494 P   0  0  2  0  0  0  0  0  0  0  0  0
   23.2100   73.7255   -2.4939 O   0  0  0  0  0  0  0  0  0  0  0  0
   24.2195   71.4647   -3.3833 O   0  0  0  0  0  0  0  0  0  0  0  0
   21.6441   72.0238   -3.5646 O   0  0  0  0  0  0  0  0  0  0  0  0
   21.4530   72.8545   -4.6951 C   0  0  0  0  0  0  0  0  0  0  0  0
   20.7593   70.7678   -5.6658 O   0  0  0  0  0  0  0  0  0  0  0  0
   21.2539   72.0554   -8.3283 O   0  0  0  0  0  0  0  0  0  0  0  0
   18.5429   72.2178   -8.0822 O   0  0  0  0  0  0  0  0  0  0  0  0
   20.7404   72.6318   -7.1272 C   0  0  1  0  0  0  0  0  0  0  0  0
   19.3128   72.1823   -6.8988 C   0  0  2  0  0  0  0  0  0  0  0  0
   21.4674   71.9934   -5.9516 C   0  0  1  0  0  0  0  0  0  0  0  0
   19.5072   70.7716   -6.3697 C   0  0  2  0  0  0  0  0  0  0  0  0
   20.8043   72.4478   -9.0935 H   0  0  0  0  0  0  0  0  0  0  0  0
   18.4477   73.1372   -8.3785 H   0  0  0  0  0  0  0  0  0  0  0  0
   16.9990   69.7569   -7.1797 O   0  0  0  0  0  0  0  0  0  0  0  0
   15.5772   69.2859   -2.8207 O   0  0  0  0  0  0  0  0  0  0  0  0
   18.4631   70.3759   -5.4674 N   0  0  0  0  0  0  0  0  0  0  0  0
   16.2929   69.5242   -5.0079 N   0  0  0  0  0  0  0  0  0  0  0  0
   17.2403   69.8790   -5.9773 C   0  0  0  0  0  0  0  0  0  0  0  0
   18.6558   70.4802   -4.0952 C   0  0  0  0  0  0  0  0  0  0  0  0
   17.7434   70.1379   -3.1836 C   0  0  0  0  0  0  0  0  0  0  0  0
   16.4383   69.6105   -3.6328 C   0  0  0  0  0  0  0  0  0  0  0  0
   15.4329   69.1776   -5.3388 H   0  0  0  0  0  0  0  0  0  0  0  0
   22.6477   71.5741   -1.2849 O   0  0  0  0  0  0  0  0  0  0  0  0
   23.4308   70.5664   -0.2924 P   0  0  2  0  0  0  0  0  0  0  0  0
   22.2327   69.8456    0.5234 O   0  0  0  0  0  0  0  0  0  0  0  0
   24.4575   71.2326    0.5770 O   0  0  0  0  0  0  0  0  0  0  0  0
   24.0168   69.4143   -1.2577 O   0  0  0  0  0  0  0  0  0  0  0  0
   24.8917   67.6200    0.0166 O   0  0  0  0  0  0  0  0  0  0  0  0
   25.8604   66.4692   -3.8312 O   0  0  0  0  0  0  0  0  0  0  0  0
   26.1864   69.2478   -2.9901 O   0  0  0  0  0  0  0  0  0  0  0  0
   23.6511   65.1921   -2.4387 O   0  0  0  0  0  0  0  0  0  0  0  0
   25.0760   67.0977   -2.8174 C   0  0  2  0  0  0  0  0  0  0  0  0
   25.9130   68.1637   -2.1100 C   0  0  2  0  0  0  0  0  0  0  0  0
   24.6362   66.0201   -1.8237 C   0  0  1  0  0  0  0  0  0  0  0  0
   25.1881   68.6968   -0.8733 C   0  0  1  0  0  0  0  0  0  0  0  0
   24.0373   66.6363   -0.5627 C   0  0  1  0  0  0  0  0  0  0  0  0
   26.1512   67.1348   -4.4743 H   0  0  0  0  0  0  0  0  0  0  0  0
   26.6460   68.9168   -3.7771 H   0  0  0  0  0  0  0  0  0  0  0  0
   24.0196   64.7939   -3.2428 H   0  0  0  0  0  0  0  0  0  0  0  0
   24.5708   66.0236    1.6377 O   0  0  0  0  0  0  0  0  0  0  0  0
   23.3152   64.5568    0.4250 O   0  0  0  0  0  0  0  0  0  0  0  0
   23.9180   65.6152    0.5215 C   0  0  0  0  0  0  0  0  0  0  0  0
  1  4  1  0
  1 24  1  0
  1  2  1  1
  1  3  2  0
 25 28  1  0
 25 24  1  0
 25 26  1  1
 25 27  2  0
  6 11  1  0
  6 12  1  0
 29 36  1  0
 29 37  1  0
  9  7  1  6
  7 13  1  0
 10  8  1  6
  8 14  1  0
  4  5  1  0
 36 28  1  6
 33 30  1  6
 30 38  1  0
 34 31  1  6
 31 39  1  0
 35 32  1  6
 32 40  1  0
 41 43  1  0
 15 19  2  0
 42 43  2  0
 16 22  2  0
 12 17  1  1
 17 19  1  0
 17 20  1  0
 18 19  1  0
 18 22  1  0
 18 23  1  0
  9 10  1  0
  9 11  1  0
 10 12  1  0
 11  5  1  1
 33 34  1  0
 33 35  1  0
 34 36  1  0
 35 37  1  0
 37 43  1  1
 20 21  2  0
 21 22  1  0
M  CHG  3   2  -1  26  -1  41  -1
M  END
>  <COMPND>  (100) 
    udp_gluA.pdb 

>  <AUTHOR>  (100) 
    GENERATED BY OPEN BABEL 3.1.1

>  <MASTER>  (100) 
        0    0    0    0    0    0    0    0   56    0   56    0

>  <minimizedAffinity>  (100) 
-9.25208

>  <CNNscore>  (100) 
0.3597162664

>  <CNNaffinity>  (100) 
4.3870606422

>  <CNN_VS>  (100) 
1.5780971050

>  <CNNaffinity_variance>  (100) 
0.3071475327

$$$$
101
     RDKit          3D

 43 45  0  0  0  0  0  0  0  0999 V2000
   23.0529   70.8186   -2.5062 P   0  0  2  0  0  0  0  0  0  0  0  0
   24.0741   71.7887   -3.3030 O   0  0  0  0  0  0  0  0  0  0  0  0
   23.3025   69.3501   -2.6876 O   0  0  0  0  0  0  0  0  0  0  0  0
   21.5893   71.3431   -2.9541 O   0  0  0  0  0  0  0  0  0  0  0  0
   20.7084   70.4319   -3.5851 C   0  0  0  0  0  0  0  0  0  0  0  0
   18.8231   71.5633   -4.5562 O   0  0  0  0  0  0  0  0  0  0  0  0
   17.1736   70.2526   -2.4225 O   0  0  0  0  0  0  0  0  0  0  0  0
   16.6720   68.6954   -4.6041 O   0  0  0  0  0  0  0  0  0  0  0  0
   18.3014   69.7424   -3.1340 C   0  0  1  0  0  0  0  0  0  0  0  0
   17.9071   69.3783   -4.5497 C   0  0  2  0  0  0  0  0  0  0  0  0
   19.2738   70.8920   -3.3598 C   0  0  1  0  0  0  0  0  0  0  0  0
   17.8527   70.7396   -5.2219 C   0  0  2  0  0  0  0  0  0  0  0  0
   16.5381   69.5361   -2.2664 H   0  0  0  0  0  0  0  0  0  0  0  0
   16.7586   67.8351   -4.1633 H   0  0  0  0  0  0  0  0  0  0  0  0
   16.0064   70.0856   -7.2566 O   0  0  0  0  0  0  0  0  0  0  0  0
   19.2030   70.5183  -10.5488 O   0  0  0  0  0  0  0  0  0  0  0  0
   18.1757   70.6740   -6.6192 N   0  0  0  0  0  0  0  0  0  0  0  0
   17.6005   70.3007   -8.8942 N   0  0  0  0  0  0  0  0  0  0  0  0
   17.1744   70.3359   -7.5600 C   0  0  0  0  0  0  0  0  0  0  0  0
   19.4704   70.9444   -7.0452 C   0  0  0  0  0  0  0  0  0  0  0  0
   19.8615   70.9070   -8.3205 C   0  0  0  0  0  0  0  0  0  0  0  0
   18.8767   70.5611   -9.3664 C   0  0  0  0  0  0  0  0  0  0  0  0
   16.9215   70.0656   -9.5673 H   0  0  0  0  0  0  0  0  0  0  0  0
   23.1741   71.3388   -0.9805 O   0  0  0  0  0  0  0  0  0  0  0  0
   22.5182   70.7790    0.3870 P   0  0  2  0  0  0  0  0  0  0  0  0
   23.4809   69.5377    0.7779 O   0  0  0  0  0  0  0  0  0  0  0  0
   21.0646   70.4218    0.2716 O   0  0  0  0  0  0  0  0  0  0  0  0
   22.8442   71.9101    1.4902 O   0  0  0  0  0  0  0  0  0  0  0  0
   22.6857   74.2332    1.0576 O   0  0  0  0  0  0  0  0  0  0  0  0
   25.2766   74.1519    4.2745 O   0  0  0  0  0  0  0  0  0  0  0  0
   25.5390   72.2051    2.1122 O   0  0  0  0  0  0  0  0  0  0  0  0
   22.5072   74.9515    4.6512 O   0  0  0  0  0  0  0  0  0  0  0  0
   24.1909   73.7022    3.4640 C   0  0  2  0  0  0  0  0  0  0  0  0
   24.7046   73.3568    2.0661 C   0  0  2  0  0  0  0  0  0  0  0  0
   23.1587   74.8295    3.3883 C   0  0  1  0  0  0  0  0  0  0  0  0
   23.5436   73.0926    1.1063 C   0  0  1  0  0  0  0  0  0  0  0  0
   22.1049   74.5491    2.3208 C   0  0  1  0  0  0  0  0  0  0  0  0
   25.9453   73.4517    4.3370 H   0  0  0  0  0  0  0  0  0  0  0  0
   26.2777   72.3657    2.7196 H   0  0  0  0  0  0  0  0  0  0  0  0
   23.1670   75.1299    5.3395 H   0  0  0  0  0  0  0  0  0  0  0  0
   22.0903   76.7309    1.4599 O   0  0  0  0  0  0  0  0  0  0  0  0
   20.1164   75.9142    2.2573 O   0  0  0  0  0  0  0  0  0  0  0  0
   21.3085   75.7784    2.0259 C   0  0  0  0  0  0  0  0  0  0  0  0
  1  4  1  0
  1 24  1  0
  1  2  1  6
  1  3  2  0
 25 28  1  0
 25 24  1  0
 25 26  1  1
 25 27  2  0
  6 11  1  0
  6 12  1  0
 29 36  1  0
 29 37  1  0
  9  7  1  1
  7 13  1  0
 10  8  1  1
  8 14  1  0
  4  5  1  0
 36 28  1  1
 33 30  1  1
 30 38  1  0
 34 31  1  1
 31 39  1  0
 35 32  1  1
 32 40  1  0
 41 43  1  0
 15 19  2  0
 42 43  2  0
 16 22  2  0
 12 17  1  6
 17 19  1  0
 17 20  1  0
 18 19  1  0
 18 22  1  0
 18 23  1  0
  9 10  1  0
  9 11  1  0
 10 12  1  0
 11  5  1  6
 33 34  1  0
 33 35  1  0
 34 36  1  0
 35 37  1  0
 37 43  1  6
 20 21  2  0
 21 22  1  0
M  CHG  3   2  -1  26  -1  41  -1
M  END
>  <COMPND>  (101) 
    udp_gluA.pdb 

>  <AUTHOR>  (101) 
    GENERATED BY OPEN BABEL 3.1.1

>  <MASTER>  (101) 
        0    0    0    0    0    0    0    0   56    0   56    0

>  <minimizedAffinity>  (101) 
-7.05565

>  <CNNscore>  (101) 
0.7995932102

>  <CNNaffinity>  (101) 
4.6698217392

>  <CNN_VS>  (101) 
3.7339577675

>  <CNNaffinity_variance>  (101) 
0.0376323275

$$$$
102
     RDKit          3D

 43 45  0  0  0  0  0  0  0  0999 V2000
   22.9377   71.9748   -2.5385 P   0  0  2  0  0  0  0  0  0  0  0  0
   22.3918   73.4913   -2.6832 O   0  0  0  0  0  0  0  0  0  0  0  0
   24.0854   71.6258   -3.4400 O   0  0  0  0  0  0  0  0  0  0  0  0
   21.6097   71.0660   -2.7079 O   0  0  0  0  0  0  0  0  0  0  0  0
   20.9210   71.0991   -3.9445 C   0  0  0  0  0  0  0  0  0  0  0  0
   18.8892   71.9404   -4.9148 O   0  0  0  0  0  0  0  0  0  0  0  0
   17.4757   70.6757   -2.5923 O   0  0  0  0  0  0  0  0  0  0  0  0
   17.0492   68.8795   -4.5992 O   0  0  0  0  0  0  0  0  0  0  0  0
   18.6200   70.2169   -3.3123 C   0  0  1  0  0  0  0  0  0  0  0  0
   18.2074   69.6848   -4.6684 C   0  0  2  0  0  0  0  0  0  0  0  0
   19.4569   71.4321   -3.6882 C   0  0  1  0  0  0  0  0  0  0  0  0
   17.9833   70.9651   -5.4547 C   0  0  2  0  0  0  0  0  0  0  0  0
   16.9255   69.9168   -2.3413 H   0  0  0  0  0  0  0  0  0  0  0  0
   17.2434   68.0771   -4.0890 H   0  0  0  0  0  0  0  0  0  0  0  0
   16.0696   70.1436   -7.3624 O   0  0  0  0  0  0  0  0  0  0  0  0
   19.1300   70.3743  -10.8011 O   0  0  0  0  0  0  0  0  0  0  0  0
   18.2530   70.8023   -6.8553 N   0  0  0  0  0  0  0  0  0  0  0  0
   17.5960   70.2583   -9.0731 N   0  0  0  0  0  0  0  0  0  0  0  0
   17.2212   70.3850   -7.7290 C   0  0  0  0  0  0  0  0  0  0  0  0
   19.5263   71.0564   -7.3506 C   0  0  0  0  0  0  0  0  0  0  0  0
   19.8683   70.9313   -8.6343 C   0  0  0  0  0  0  0  0  0  0  0  0
   18.8491   70.4989   -9.6129 C   0  0  0  0  0  0  0  0  0  0  0  0
   16.8950   69.9670   -9.7001 H   0  0  0  0  0  0  0  0  0  0  0  0
   23.2612   71.8546   -0.9594 O   0  0  0  0  0  0  0  0  0  0  0  0
   23.5563   70.5640   -0.0315 P   0  0  2  0  0  0  0  0  0  0  0  0
   22.0779   70.0982    0.4351 O   0  0  0  0  0  0  0  0  0  0  0  0
   24.5086   70.8236    1.0996 O   0  0  0  0  0  0  0  0  0  0  0  0
   24.0372   69.4202   -1.0624 O   0  0  0  0  0  0  0  0  0  0  0  0
   24.9961   67.5984    0.1083 O   0  0  0  0  0  0  0  0  0  0  0  0
   25.5886   66.4764   -3.8233 O   0  0  0  0  0  0  0  0  0  0  0  0
   26.0356   69.2400   -2.9886 O   0  0  0  0  0  0  0  0  0  0  0  0
   23.4960   65.2175   -2.2462 O   0  0  0  0  0  0  0  0  0  0  0  0
   24.9109   67.1053   -2.7356 C   0  0  2  0  0  0  0  0  0  0  0  0
   25.8265   68.1504   -2.0977 C   0  0  2  0  0  0  0  0  0  0  0  0
   24.5468   66.0235   -1.7163 C   0  0  1  0  0  0  0  0  0  0  0  0
   25.2271   68.6805   -0.7945 C   0  0  1  0  0  0  0  0  0  0  0  0
   24.0763   66.6345   -0.3995 C   0  0  1  0  0  0  0  0  0  0  0  0
   25.8299   67.1447   -4.4840 H   0  0  0  0  0  0  0  0  0  0  0  0
   26.4156   68.9109   -3.8178 H   0  0  0  0  0  0  0  0  0  0  0  0
   23.7826   64.8228   -3.0846 H   0  0  0  0  0  0  0  0  0  0  0  0
   23.2469   64.5631    0.3238 O   0  0  0  0  0  0  0  0  0  0  0  0
   24.6420   65.6775    1.7419 O   0  0  0  0  0  0  0  0  0  0  0  0
   24.0404   65.6032    0.6809 C   0  0  0  0  0  0  0  0  0  0  0  0
  1  4  1  0
  1 24  1  0
  1  2  1  1
  1  3  2  0
 25 28  1  0
 25 24  1  0
 25 26  1  1
 25 27  2  0
  6 11  1  0
  6 12  1  0
 29 36  1  0
 29 37  1  0
  9  7  1  1
  7 13  1  0
 10  8  1  1
  8 14  1  0
  4  5  1  0
 36 28  1  6
 33 30  1  6
 30 38  1  0
 34 31  1  6
 31 39  1  0
 35 32  1  6
 32 40  1  0
 41 43  1  0
 15 19  2  0
 42 43  2  0
 16 22  2  0
 12 17  1  6
 17 19  1  0
 17 20  1  0
 18 19  1  0
 18 22  1  0
 18 23  1  0
  9 10  1  0
  9 11  1  0
 10 12  1  0
 11  5  1  6
 33 34  1  0
 33 35  1  0
 34 36  1  0
 35 37  1  0
 37 43  1  1
 20 21  2  0
 21 22  1  0
M  CHG  3   2  -1  26  -1  41  -1
M  END
>  <COMPND>  (102) 
    udp_gluA.pdb 

>  <AUTHOR>  (102) 
    GENERATED BY OPEN BABEL 3.1.1

>  <MASTER>  (102) 
        0    0    0    0    0    0    0    0   56    0   56    0

>  <minimizedAffinity>  (102) 
-9.46495

>  <CNNscore>  (102) 
0.6755406857

>  <CNNaffinity>  (102) 
4.8898706436

>  <CNN_VS>  (102) 
3.3033065796

>  <CNNaffinity_variance>  (102) 
0.0556071587

$$$$
103
     RDKit          3D

 43 45  0  0  0  0  0  0  0  0999 V2000
   22.3593   73.7790   -4.9160 P   0  0  2  0  0  0  0  0  0  0  0  0
   23.1595   72.6884   -5.8043 O   0  0  0  0  0  0  0  0  0  0  0  0
   22.4788   75.1963   -5.3943 O   0  0  0  0  0  0  0  0  0  0  0  0
   22.8711   73.5014   -3.4064 O   0  0  0  0  0  0  0  0  0  0  0  0
   22.4414   74.3721   -2.3760 C   0  0  0  0  0  0  0  0  0  0  0  0
   21.5032   72.5543   -1.1138 O   0  0  0  0  0  0  0  0  0  0  0  0
   19.2116   74.3948   -0.5196 O   0  0  0  0  0  0  0  0  0  0  0  0
   20.6810   74.5127    1.7746 O   0  0  0  0  0  0  0  0  0  0  0  0
   20.6015   74.6948   -0.6488 C   0  0  1  0  0  0  0  0  0  0  0  0
   21.3573   74.2132    0.5715 C   0  0  2  0  0  0  0  0  0  0  0  0
   21.1731   73.8092   -1.7475 C   0  0  1  0  0  0  0  0  0  0  0  0
   21.4559   72.7196    0.3123 C   0  0  2  0  0  0  0  0  0  0  0  0
   18.8244   74.9485    0.1769 H   0  0  0  0  0  0  0  0  0  0  0  0
   20.6448   75.4752    1.8942 H   0  0  0  0  0  0  0  0  0  0  0  0
   21.7096   69.9999    1.0305 O   0  0  0  0  0  0  0  0  0  0  0  0
   26.0301   70.6065    2.5168 O   0  0  0  0  0  0  0  0  0  0  0  0
   22.6360   72.1401    0.8889 N   0  0  0  0  0  0  0  0  0  0  0  0
   23.8608   70.3049    1.7710 N   0  0  0  0  0  0  0  0  0  0  0  0
   22.6599   70.7630    1.2134 C   0  0  0  0  0  0  0  0  0  0  0  0
   23.7530   72.9321    1.1256 C   0  0  0  0  0  0  0  0  0  0  0  0
   24.8907   72.4810    1.6576 C   0  0  0  0  0  0  0  0  0  0  0  0
   24.9981   71.0541    2.0259 C   0  0  0  0  0  0  0  0  0  0  0  0
   23.9007   69.3499    2.0071 H   0  0  0  0  0  0  0  0  0  0  0  0
   20.8508   73.1983   -4.9008 O   0  0  0  0  0  0  0  0  0  0  0  0
   19.4838   73.7783   -5.5400 P   0  0  2  0  0  0  0  0  0  0  0  0
   19.9662   75.1385   -6.2731 O   0  0  0  0  0  0  0  0  0  0  0  0
   18.3734   73.9708   -4.5480 O   0  0  0  0  0  0  0  0  0  0  0  0
   19.1351   72.7667   -6.7473 O   0  0  0  0  0  0  0  0  0  0  0  0
   18.7600   70.6673   -5.7173 O   0  0  0  0  0  0  0  0  0  0  0  0
   17.9126   69.8266   -9.6724 O   0  0  0  0  0  0  0  0  0  0  0  0
   20.2105   71.4886   -8.9712 O   0  0  0  0  0  0  0  0  0  0  0  0
   15.7528   70.1386   -7.7518 O   0  0  0  0  0  0  0  0  0  0  0  0
   17.9882   70.6372   -8.4997 C   0  0  2  0  0  0  0  0  0  0  0  0
   19.4426   70.7363   -8.0390 C   0  0  2  0  0  0  0  0  0  0  0  0
   17.1300   69.9815   -7.4155 C   0  0  1  0  0  0  0  0  0  0  0  0
   19.5372   71.4006   -6.6648 C   0  0  1  0  0  0  0  0  0  0  0  0
   17.3745   70.6183   -6.0505 C   0  0  1  0  0  0  0  0  0  0  0  0
   18.4506   70.2237  -10.3754 H   0  0  0  0  0  0  0  0  0  0  0  0
   20.1548   71.0728   -9.8455 H   0  0  0  0  0  0  0  0  0  0  0  0
   15.5838   69.7376   -8.6187 H   0  0  0  0  0  0  0  0  0  0  0  0
   16.4350   68.5584   -5.4376 O   0  0  0  0  0  0  0  0  0  0  0  0
   16.6675   70.1248   -3.7971 O   0  0  0  0  0  0  0  0  0  0  0  0
   16.7970   69.7751   -4.9606 C   0  0  0  0  0  0  0  0  0  0  0  0
  1  4  1  0
  1 24  1  0
  1  2  1  6
  1  3  2  0
 25 28  1  0
 25 24  1  0
 25 26  1  6
 25 27  2  0
  6 11  1  0
  6 12  1  0
 29 36  1  0
 29 37  1  0
  9  7  1  1
  7 13  1  0
 10  8  1  1
  8 14  1  0
  4  5  1  0
 36 28  1  6
 33 30  1  6
 30 38  1  0
 34 31  1  6
 31 39  1  0
 35 32  1  6
 32 40  1  0
 41 43  1  0
 15 19  2  0
 42 43  2  0
 16 22  2  0
 12 17  1  1
 17 19  1  0
 17 20  1  0
 18 19  1  0
 18 22  1  0
 18 23  1  0
  9 10  1  0
  9 11  1  0
 10 12  1  0
 11  5  1  1
 33 34  1  0
 33 35  1  0
 34 36  1  0
 35 37  1  0
 37 43  1  1
 20 21  2  0
 21 22  1  0
M  CHG  3   2  -1  26  -1  41  -1
M  END
>  <COMPND>  (103) 
    udp_gluA.pdb 

>  <AUTHOR>  (103) 
    GENERATED BY OPEN BABEL 3.1.1

>  <MASTER>  (103) 
        0    0    0    0    0    0    0    0   56    0   56    0

>  <minimizedAffinity>  (103) 
-7.33112

>  <CNNscore>  (103) 
0.6418625712

>  <CNNaffinity>  (103) 
4.4892320633

>  <CNN_VS>  (103) 
2.8814699650

>  <CNNaffinity_variance>  (103) 
0.1203879938

$$$$
104
     RDKit          3D

 43 45  0  0  0  0  0  0  0  0999 V2000
   21.7718   72.4662   -5.8210 P   0  0  2  0  0  0  0  0  0  0  0  0
   20.8369   73.7440   -5.4863 O   0  0  0  0  0  0  0  0  0  0  0  0
   23.0238   72.7803   -6.5863 O   0  0  0  0  0  0  0  0  0  0  0  0
   20.7605   71.4192   -6.5274 O   0  0  0  0  0  0  0  0  0  0  0  0
   20.3232   71.6872   -7.8470 C   0  0  0  0  0  0  0  0  0  0  0  0
   18.9815   69.7978   -7.2086 O   0  0  0  0  0  0  0  0  0  0  0  0
   17.9678   69.7999  -10.0306 O   0  0  0  0  0  0  0  0  0  0  0  0
   15.9397   71.0110   -8.6681 O   0  0  0  0  0  0  0  0  0  0  0  0
   18.3115   70.9039   -9.1931 C   0  0  1  0  0  0  0  0  0  0  0  0
   17.2451   71.1142   -8.1391 C   0  0  2  0  0  0  0  0  0  0  0  0
   19.5148   70.4992   -8.3526 C   0  0  1  0  0  0  0  0  0  0  0  0
   17.5622   70.0100   -7.1450 C   0  0  2  0  0  0  0  0  0  0  0  0
   17.2012   70.0346  -10.5773 H   0  0  0  0  0  0  0  0  0  0  0  0
   15.7866   71.7360   -9.2948 H   0  0  0  0  0  0  0  0  0  0  0  0
   16.4787   68.2087   -5.2588 O   0  0  0  0  0  0  0  0  0  0  0  0
   16.2198   71.4744   -2.0166 O   0  0  0  0  0  0  0  0  0  0  0  0
   17.2026   70.3629   -5.8008 N   0  0  0  0  0  0  0  0  0  0  0  0
   16.3498   69.8371   -3.6461 N   0  0  0  0  0  0  0  0  0  0  0  0
   16.6657   69.3825   -4.9332 C   0  0  0  0  0  0  0  0  0  0  0  0
   17.3840   71.6660   -5.3537 C   0  0  0  0  0  0  0  0  0  0  0  0
   17.0782   72.0844   -4.1240 C   0  0  0  0  0  0  0  0  0  0  0  0
   16.5115   71.1228   -3.1557 C   0  0  0  0  0  0  0  0  0  0  0  0
   15.9727   69.1731   -3.0247 H   0  0  0  0  0  0  0  0  0  0  0  0
   22.0195   71.8068   -4.3661 O   0  0  0  0  0  0  0  0  0  0  0  0
   20.9931   71.4776   -3.1612 P   0  0  2  0  0  0  0  0  0  0  0  0
   20.1922   70.1790   -3.7020 O   0  0  0  0  0  0  0  0  0  0  0  0
   20.1123   72.6290   -2.7708 O   0  0  0  0  0  0  0  0  0  0  0  0
   21.9256   70.9146   -1.9714 O   0  0  0  0  0  0  0  0  0  0  0  0
   22.9559   71.8441   -0.0521 O   0  0  0  0  0  0  0  0  0  0  0  0
   25.9255   69.3493   -1.4754 O   0  0  0  0  0  0  0  0  0  0  0  0
   24.3582   70.9873   -3.3180 O   0  0  0  0  0  0  0  0  0  0  0  0
   24.3611   68.5770    0.8499 O   0  0  0  0  0  0  0  0  0  0  0  0
   24.5836   69.7706   -1.2311 C   0  0  2  0  0  0  0  0  0  0  0  0
   24.3417   71.1232   -1.9017 C   0  0  2  0  0  0  0  0  0  0  0  0
   24.3921   69.8854    0.2829 C   0  0  1  0  0  0  0  0  0  0  0  0
   22.9974   71.7135   -1.4736 C   0  0  1  0  0  0  0  0  0  0  0  0
   23.0870   70.5972    0.6270 C   0  0  1  0  0  0  0  0  0  0  0  0
   26.0706   69.2695   -2.4314 H   0  0  0  0  0  0  0  0  0  0  0  0
   25.2083   70.6130   -3.5966 H   0  0  0  0  0  0  0  0  0  0  0  0
   25.1862   68.1131    0.6380 H   0  0  0  0  0  0  0  0  0  0  0  0
   24.2051   70.6094    2.6888 O   0  0  0  0  0  0  0  0  0  0  0  0
   22.1474   71.5889    2.6157 O   0  0  0  0  0  0  0  0  0  0  0  0
   23.0635   70.9953    2.0669 C   0  0  0  0  0  0  0  0  0  0  0  0
  1  4  1  0
  1 24  1  0
  1  2  1  1
  1  3  2  0
 25 28  1  0
 25 24  1  0
 25 26  1  6
 25 27  2  0
  6 11  1  0
  6 12  1  0
 29 36  1  0
 29 37  1  0
  9  7  1  6
  7 13  1  0
 10  8  1  6
  8 14  1  0
  4  5  1  0
 36 28  1  1
 33 30  1  1
 30 38  1  0
 34 31  1  6
 31 39  1  0
 35 32  1  1
 32 40  1  0
 41 43  1  0
 15 19  2  0
 42 43  2  0
 16 22  2  0
 12 17  1  1
 17 19  1  0
 17 20  1  0
 18 19  1  0
 18 22  1  0
 18 23  1  0
  9 10  1  0
  9 11  1  0
 10 12  1  0
 11  5  1  1
 33 34  1  0
 33 35  1  0
 34 36  1  0
 35 37  1  0
 37 43  1  1
 20 21  2  0
 21 22  1  0
M  CHG  3   2  -1  26  -1  41  -1
M  END
>  <COMPND>  (104) 
    udp_gluA.pdb 

>  <AUTHOR>  (104) 
    GENERATED BY OPEN BABEL 3.1.1

>  <MASTER>  (104) 
        0    0    0    0    0    0    0    0   56    0   56    0

>  <minimizedAffinity>  (104) 
-7.84635

>  <CNNscore>  (104) 
0.6266808510

>  <CNNaffinity>  (104) 
4.4285211563

>  <CNN_VS>  (104) 
2.7752695084

>  <CNNaffinity_variance>  (104) 
0.1700975448

$$$$
105
     RDKit          3D

 43 45  0  0  0  0  0  0  0  0999 V2000
   21.1277   72.9373   -5.2900 P   0  0  2  0  0  0  0  0  0  0  0  0
   20.1703   72.7031   -4.0065 O   0  0  0  0  0  0  0  0  0  0  0  0
   21.0657   74.3141   -5.8837 O   0  0  0  0  0  0  0  0  0  0  0  0
   20.7428   71.7237   -6.2884 O   0  0  0  0  0  0  0  0  0  0  0  0
   20.1336   72.0351   -7.5279 C   0  0  0  0  0  0  0  0  0  0  0  0
   18.9515   70.0103   -6.9984 O   0  0  0  0  0  0  0  0  0  0  0  0
   18.1590   69.9370   -9.8894 O   0  0  0  0  0  0  0  0  0  0  0  0
   15.9189   70.9172   -8.6823 O   0  0  0  0  0  0  0  0  0  0  0  0
   18.3217   71.0619   -9.0253 C   0  0  1  0  0  0  0  0  0  0  0  0
   17.1628   71.1495   -8.0551 C   0  0  2  0  0  0  0  0  0  0  0  0
   19.4938   70.7752   -8.0967 C   0  0  1  0  0  0  0  0  0  0  0  0
   17.5171   70.0737   -7.0426 C   0  0  2  0  0  0  0  0  0  0  0  0
   17.4156   70.0968  -10.4923 H   0  0  0  0  0  0  0  0  0  0  0  0
   15.7390   71.6290   -9.3170 H   0  0  0  0  0  0  0  0  0  0  0  0
   16.3999   68.1655   -5.2856 O   0  0  0  0  0  0  0  0  0  0  0  0
   15.6507   71.3365   -2.0257 O   0  0  0  0  0  0  0  0  0  0  0  0
   17.0222   70.3734   -5.7288 N   0  0  0  0  0  0  0  0  0  0  0  0
   16.0269   69.7468   -3.6641 N   0  0  0  0  0  0  0  0  0  0  0  0
   16.4802   69.3417   -4.9264 C   0  0  0  0  0  0  0  0  0  0  0  0
   17.0780   71.6756   -5.2470 C   0  0  0  0  0  0  0  0  0  0  0  0
   16.6420   72.0464   -4.0415 C   0  0  0  0  0  0  0  0  0  0  0  0
   16.0606   71.0294   -3.1410 C   0  0  0  0  0  0  0  0  0  0  0  0
   15.6434   69.0464   -3.0881 H   0  0  0  0  0  0  0  0  0  0  0  0
   22.5850   72.5065   -4.7391 O   0  0  0  0  0  0  0  0  0  0  0  0
   23.5381   73.1792   -3.6199 P   0  0  2  0  0  0  0  0  0  0  0  0
   22.6823   74.4622   -3.1280 O   0  0  0  0  0  0  0  0  0  0  0  0
   24.9206   73.5071   -4.1047 O   0  0  0  0  0  0  0  0  0  0  0  0
   23.4908   72.1561   -2.3735 O   0  0  0  0  0  0  0  0  0  0  0  0
   23.8714   69.8256   -2.5560 O   0  0  0  0  0  0  0  0  0  0  0  0
   21.6391   70.0437    0.9135 O   0  0  0  0  0  0  0  0  0  0  0  0
   20.9282   71.6666   -1.4093 O   0  0  0  0  0  0  0  0  0  0  0  0
   24.5067   69.5860    1.0497 O   0  0  0  0  0  0  0  0  0  0  0  0
   22.5747   70.4972   -0.0648 C   0  0  2  0  0  0  0  0  0  0  0  0
   21.8811   70.6099   -1.4226 C   0  0  2  0  0  0  0  0  0  0  0  0
   23.7170   69.4811   -0.1334 C   0  0  1  0  0  0  0  0  0  0  0  0
   22.8969   70.8694   -2.5360 C   0  0  1  0  0  0  0  0  0  0  0  0
   24.6138   69.7319   -1.3423 C   0  0  1  0  0  0  0  0  0  0  0  0
   20.9040   70.6739    0.9746 H   0  0  0  0  0  0  0  0  0  0  0  0
   20.2807   71.5086   -0.7049 H   0  0  0  0  0  0  0  0  0  0  0  0
   23.9476   69.4286    1.8266 H   0  0  0  0  0  0  0  0  0  0  0  0
   26.1744   68.7076   -2.7624 O   0  0  0  0  0  0  0  0  0  0  0  0
   25.6404   67.6075   -0.8379 O   0  0  0  0  0  0  0  0  0  0  0  0
   25.5122   68.5636   -1.5878 C   0  0  0  0  0  0  0  0  0  0  0  0
  1  4  1  0
  1 24  1  0
  1  2  1  1
  1  3  2  0
 25 28  1  0
 25 24  1  0
 25 26  1  1
 25 27  2  0
  6 11  1  0
  6 12  1  0
 29 36  1  0
 29 37  1  0
  9  7  1  6
  7 13  1  0
 10  8  1  6
  8 14  1  0
  4  5  1  0
 36 28  1  1
 33 30  1  1
 30 38  1  0
 34 31  1  1
 31 39  1  0
 35 32  1  1
 32 40  1  0
 41 43  1  0
 15 19  2  0
 42 43  2  0
 16 22  2  0
 12 17  1  1
 17 19  1  0
 17 20  1  0
 18 19  1  0
 18 22  1  0
 18 23  1  0
  9 10  1  0
  9 11  1  0
 10 12  1  0
 11  5  1  1
 33 34  1  0
 33 35  1  0
 34 36  1  0
 35 37  1  0
 37 43  1  6
 20 21  2  0
 21 22  1  0
M  CHG  3   2  -1  26  -1  41  -1
M  END
>  <COMPND>  (105) 
    udp_gluA.pdb 

>  <AUTHOR>  (105) 
    GENERATED BY OPEN BABEL 3.1.1

>  <MASTER>  (105) 
        0    0    0    0    0    0    0    0   56    0   56    0

>  <minimizedAffinity>  (105) 
-8.73033

>  <CNNscore>  (105) 
0.6066056490

>  <CNNaffinity>  (105) 
4.3054237366

>  <CNN_VS>  (105) 
2.6116943359

>  <CNNaffinity_variance>  (105) 
0.5034106970

$$$$
106
     RDKit          3D

 43 45  0  0  0  0  0  0  0  0999 V2000
   18.5716   74.3046   -2.4560 P   0  0  2  0  0  0  0  0  0  0  0  0
   19.9685   74.3236   -1.6391 O   0  0  0  0  0  0  0  0  0  0  0  0
   18.1143   75.6420   -2.9602 O   0  0  0  0  0  0  0  0  0  0  0  0
   17.5495   73.5421   -1.4602 O   0  0  0  0  0  0  0  0  0  0  0  0
   16.9256   72.3541   -1.9117 C   0  0  0  0  0  0  0  0  0  0  0  0
   14.8964   71.5329   -2.9045 O   0  0  0  0  0  0  0  0  0  0  0  0
   14.0390   74.4012   -3.0759 O   0  0  0  0  0  0  0  0  0  0  0  0
   12.6871   73.5052   -0.8837 O   0  0  0  0  0  0  0  0  0  0  0  0
   14.8005   73.7447   -2.0621 C   0  0  1  0  0  0  0  0  0  0  0  0
   13.9017   72.8665   -1.2176 C   0  0  2  0  0  0  0  0  0  0  0  0
   15.7008   72.7208   -2.7398 C   0  0  1  0  0  0  0  0  0  0  0  0
   13.6998   71.6613   -2.1202 C   0  0  2  0  0  0  0  0  0  0  0  0
   13.4559   75.0603   -2.6670 H   0  0  0  0  0  0  0  0  0  0  0  0
   12.8691   74.2652   -0.3082 H   0  0  0  0  0  0  0  0  0  0  0  0
   11.1662   70.5677   -1.5191 O   0  0  0  0  0  0  0  0  0  0  0  0
   13.0349   67.0062    0.7321 O   0  0  0  0  0  0  0  0  0  0  0  0
   13.4953   70.4493   -1.3785 N   0  0  0  0  0  0  0  0  0  0  0  0
   12.0993   68.7955   -0.3976 N   0  0  0  0  0  0  0  0  0  0  0  0
   12.1813   69.9865   -1.1309 C   0  0  0  0  0  0  0  0  0  0  0  0
   14.5880   69.7322   -0.9067 C   0  0  0  0  0  0  0  0  0  0  0  0
   14.4941   68.5984   -0.2091 C   0  0  0  0  0  0  0  0  0  0  0  0
   13.1569   68.0471    0.0934 C   0  0  0  0  0  0  0  0  0  0  0  0
   11.1947   68.4546   -0.2110 H   0  0  0  0  0  0  0  0  0  0  0  0
   18.8414   73.2060   -3.6107 O   0  0  0  0  0  0  0  0  0  0  0  0
   19.9033   73.1861   -4.8295 P   0  0  2  0  0  0  0  0  0  0  0  0
   21.0686   72.2013   -4.2887 O   0  0  0  0  0  0  0  0  0  0  0  0
   20.3865   74.5447   -5.2476 O   0  0  0  0  0  0  0  0  0  0  0  0
   19.1708   72.3476   -5.9969 O   0  0  0  0  0  0  0  0  0  0  0  0
   18.7393   70.0810   -5.4623 O   0  0  0  0  0  0  0  0  0  0  0  0
   17.8619   70.1746   -9.4983 O   0  0  0  0  0  0  0  0  0  0  0  0
   20.2064   71.5743   -8.4598 O   0  0  0  0  0  0  0  0  0  0  0  0
   15.7150   70.1040   -7.5396 O   0  0  0  0  0  0  0  0  0  0  0  0
   17.9621   70.6982   -8.1740 C   0  0  2  0  0  0  0  0  0  0  0  0
   19.4195   70.6523   -7.7145 C   0  0  2  0  0  0  0  0  0  0  0  0
   17.0879   69.8385   -7.2582 C   0  0  1  0  0  0  0  0  0  0  0  0
   19.5349   70.9877   -6.2269 C   0  0  1  0  0  0  0  0  0  0  0  0
   17.3524   70.1452   -5.7870 C   0  0  1  0  0  0  0  0  0  0  0  0
   18.4095   70.7052  -10.0983 H   0  0  0  0  0  0  0  0  0  0  0  0
   20.1376   71.3675   -9.4047 H   0  0  0  0  0  0  0  0  0  0  0  0
   15.5334   69.9130   -8.4731 H   0  0  0  0  0  0  0  0  0  0  0  0
   16.1417   68.1406   -5.6553 O   0  0  0  0  0  0  0  0  0  0  0  0
   16.8056   69.0858   -3.6894 O   0  0  0  0  0  0  0  0  0  0  0  0
   16.7536   69.0941   -4.9101 C   0  0  0  0  0  0  0  0  0  0  0  0
  1  4  1  0
  1 24  1  0
  1  2  1  1
  1  3  2  0
 25 28  1  0
 25 24  1  0
 25 26  1  1
 25 27  2  0
  6 11  1  0
  6 12  1  0
 29 36  1  0
 29 37  1  0
  9  7  1  6
  7 13  1  0
 10  8  1  6
  8 14  1  0
  4  5  1  0
 36 28  1  6
 33 30  1  6
 30 38  1  0
 34 31  1  6
 31 39  1  0
 35 32  1  6
 32 40  1  0
 41 43  1  0
 15 19  2  0
 42 43  2  0
 16 22  2  0
 12 17  1  1
 17 19  1  0
 17 20  1  0
 18 19  1  0
 18 22  1  0
 18 23  1  0
  9 10  1  0
  9 11  1  0
 10 12  1  0
 11  5  1  1
 33 34  1  0
 33 35  1  0
 34 36  1  0
 35 37  1  0
 37 43  1  1
 20 21  2  0
 21 22  1  0
M  CHG  3   2  -1  26  -1  41  -1
M  END
>  <COMPND>  (106) 
    udp_gluA.pdb 

>  <AUTHOR>  (106) 
    GENERATED BY OPEN BABEL 3.1.1

>  <MASTER>  (106) 
        0    0    0    0    0    0    0    0   56    0   56    0

>  <minimizedAffinity>  (106) 
-6.23210

>  <CNNscore>  (106) 
0.5975892544

>  <CNNaffinity>  (106) 
4.0848789215

>  <CNN_VS>  (106) 
2.4410798550

>  <CNNaffinity_variance>  (106) 
0.5372428894

$$$$
107
     RDKit          3D

 43 45  0  0  0  0  0  0  0  0999 V2000
   21.9012   72.5126   -5.9379 P   0  0  2  0  0  0  0  0  0  0  0  0
   20.8760   73.7571   -5.7994 O   0  0  0  0  0  0  0  0  0  0  0  0
   23.2168   72.8440   -6.5792 O   0  0  0  0  0  0  0  0  0  0  0  0
   21.0271   71.3696   -6.6776 O   0  0  0  0  0  0  0  0  0  0  0  0
   20.5858   71.6070   -8.0017 C   0  0  0  0  0  0  0  0  0  0  0  0
   19.2223   69.7684   -7.2681 O   0  0  0  0  0  0  0  0  0  0  0  0
   18.0378   69.7899  -10.0227 O   0  0  0  0  0  0  0  0  0  0  0  0
   16.1397   71.0775   -8.5479 O   0  0  0  0  0  0  0  0  0  0  0  0
   18.4697   70.8860   -9.2162 C   0  0  1  0  0  0  0  0  0  0  0  0
   17.4778   71.1386   -8.1005 C   0  0  2  0  0  0  0  0  0  0  0  0
   19.7079   70.4448   -8.4479 C   0  0  1  0  0  0  0  0  0  0  0  0
   17.8177   70.0296   -7.1194 C   0  0  2  0  0  0  0  0  0  0  0  0
   17.2475   70.0479  -10.5233 H   0  0  0  0  0  0  0  0  0  0  0  0
   15.9731   71.8040   -9.1695 H   0  0  0  0  0  0  0  0  0  0  0  0
   16.3901   68.4338   -5.2777 O   0  0  0  0  0  0  0  0  0  0  0  0
   16.8640   71.5592   -1.9235 O   0  0  0  0  0  0  0  0  0  0  0  0
   17.5535   70.4020   -5.7584 N   0  0  0  0  0  0  0  0  0  0  0  0
   16.6266   69.9924   -3.6091 N   0  0  0  0  0  0  0  0  0  0  0  0
   16.8268   69.5280   -4.9158 C   0  0  0  0  0  0  0  0  0  0  0  0
   18.0133   71.6192   -5.2707 C   0  0  0  0  0  0  0  0  0  0  0  0
   17.8148   72.0482   -4.0227 C   0  0  0  0  0  0  0  0  0  0  0  0
   17.0638   71.1952   -3.0783 C   0  0  0  0  0  0  0  0  0  0  0  0
   16.1215   69.4020   -3.0044 H   0  0  0  0  0  0  0  0  0  0  0  0
   22.0108   71.9623   -4.4220 O   0  0  0  0  0  0  0  0  0  0  0  0
   23.1185   72.2262   -3.2744 P   0  0  2  0  0  0  0  0  0  0  0  0
   23.5216   73.7777   -3.4992 O   0  0  0  0  0  0  0  0  0  0  0  0
   24.2791   71.2745   -3.3083 O   0  0  0  0  0  0  0  0  0  0  0  0
   22.2861   72.2179   -1.8925 O   0  0  0  0  0  0  0  0  0  0  0  0
   23.0599   70.3112   -0.7199 O   0  0  0  0  0  0  0  0  0  0  0  0
   20.4822   72.0012    2.0311 O   0  0  0  0  0  0  0  0  0  0  0  0
   19.7541   71.8708   -0.7951 O   0  0  0  0  0  0  0  0  0  0  0  0
   23.3573   72.2603    2.3745 O   0  0  0  0  0  0  0  0  0  0  0  0
   21.4251   71.9985    0.9592 C   0  0  2  0  0  0  0  0  0  0  0  0
   20.8635   71.1953   -0.2143 C   0  0  2  0  0  0  0  0  0  0  0  0
   22.7194   71.3611    1.4695 C   0  0  1  0  0  0  0  0  0  0  0  0
   21.9306   70.9759   -1.2876 C   0  0  1  0  0  0  0  0  0  0  0  0
   23.6808   71.0585    0.3238 C   0  0  1  0  0  0  0  0  0  0  0  0
   19.6514   72.4018    1.7301 H   0  0  0  0  0  0  0  0  0  0  0  0
   19.0732   72.0136   -0.1195 H   0  0  0  0  0  0  0  0  0  0  0  0
   22.7558   72.4612    3.1084 H   0  0  0  0  0  0  0  0  0  0  0  0
   24.6201   69.8258    2.0843 O   0  0  0  0  0  0  0  0  0  0  0  0
   25.6951   69.7539    0.0747 O   0  0  0  0  0  0  0  0  0  0  0  0
   24.7786   70.1524    0.7777 C   0  0  0  0  0  0  0  0  0  0  0  0
  1  4  1  0
  1 24  1  0
  1  2  1  1
  1  3  2  0
 25 28  1  0
 25 24  1  0
 25 26  1  6
 25 27  2  0
  6 11  1  0
  6 12  1  0
 29 36  1  0
 29 37  1  0
  9  7  1  6
  7 13  1  0
 10  8  1  6
  8 14  1  0
  4  5  1  0
 36 28  1  1
 33 30  1  1
 30 38  1  0
 34 31  1  6
 31 39  1  0
 35 32  1  1
 32 40  1  0
 41 43  1  0
 15 19  2  0
 42 43  2  0
 16 22  2  0
 12 17  1  1
 17 19  1  0
 17 20  1  0
 18 19  1  0
 18 22  1  0
 18 23  1  0
  9 10  1  0
  9 11  1  0
 10 12  1  0
 11  5  1  1
 33 34  1  0
 33 35  1  0
 34 36  1  0
 35 37  1  0
 37 43  1  1
 20 21  2  0
 21 22  1  0
M  CHG  3   2  -1  26  -1  41  -1
M  END
>  <COMPND>  (107) 
    udp_gluA.pdb 

>  <AUTHOR>  (107) 
    GENERATED BY OPEN BABEL 3.1.1

>  <MASTER>  (107) 
        0    0    0    0    0    0    0    0   56    0   56    0

>  <minimizedAffinity>  (107) 
-8.08420

>  <CNNscore>  (107) 
0.5926889777

>  <CNNaffinity>  (107) 
4.2935667038

>  <CNN_VS>  (107) 
2.5447497368

>  <CNNaffinity_variance>  (107) 
0.2423401177

$$$$
108
     RDKit          3D

 43 45  0  0  0  0  0  0  0  0999 V2000
   20.4675   72.8407   -2.7203 P   0  0  2  0  0  0  0  0  0  0  0  0
   19.7342   71.5220   -2.1351 O   0  0  0  0  0  0  0  0  0  0  0  0
   20.4988   74.0151   -1.7867 O   0  0  0  0  0  0  0  0  0  0  0  0
   19.7373   73.0926   -4.1420 O   0  0  0  0  0  0  0  0  0  0  0  0
   19.2004   74.3753   -4.4084 C   0  0  0  0  0  0  0  0  0  0  0  0
   19.1038   73.2861   -6.5490 O   0  0  0  0  0  0  0  0  0  0  0  0
   18.1505   75.9136   -7.6348 O   0  0  0  0  0  0  0  0  0  0  0  0
   15.8376   74.4863   -7.4127 O   0  0  0  0  0  0  0  0  0  0  0  0
   17.8773   75.3049   -6.3725 C   0  0  1  0  0  0  0  0  0  0  0  0
   16.9015   74.1599   -6.5431 C   0  0  2  0  0  0  0  0  0  0  0  0
   19.1381   74.5836   -5.9161 C   0  0  1  0  0  0  0  0  0  0  0  0
   17.7952   73.0639   -7.0981 C   0  0  2  0  0  0  0  0  0  0  0  0
   17.3592   76.3807   -7.9469 H   0  0  0  0  0  0  0  0  0  0  0  0
   15.2982   75.1879   -7.0144 H   0  0  0  0  0  0  0  0  0  0  0  0
   15.6531   71.6973   -8.3312 O   0  0  0  0  0  0  0  0  0  0  0  0
   16.1704   68.0324   -5.5845 O   0  0  0  0  0  0  0  0  0  0  0  0
   17.3489   71.7515   -6.7250 N   0  0  0  0  0  0  0  0  0  0  0  0
   15.9122   69.8737   -6.9613 N   0  0  0  0  0  0  0  0  0  0  0  0
   16.2633   71.1543   -7.4083 C   0  0  0  0  0  0  0  0  0  0  0  0
   17.9850   71.0694   -5.6949 C   0  0  0  0  0  0  0  0  0  0  0  0
   17.6391   69.8491   -5.2802 C   0  0  0  0  0  0  0  0  0  0  0  0
   16.5141   69.1554   -5.9409 C   0  0  0  0  0  0  0  0  0  0  0  0
   15.1578   69.4384   -7.4205 H   0  0  0  0  0  0  0  0  0  0  0  0
   21.9226   72.2851   -3.1525 O   0  0  0  0  0  0  0  0  0  0  0  0
   22.8568   71.1374   -2.5016 P   0  0  2  0  0  0  0  0  0  0  0  0
   24.2913   71.3819   -3.2108 O   0  0  0  0  0  0  0  0  0  0  0  0
   22.3195   69.7442   -2.6572 O   0  0  0  0  0  0  0  0  0  0  0  0
   23.0736   71.6045   -0.9727 O   0  0  0  0  0  0  0  0  0  0  0  0
   24.4090   70.8364    0.8262 O   0  0  0  0  0  0  0  0  0  0  0  0
   20.8818   71.8002    2.7492 O   0  0  0  0  0  0  0  0  0  0  0  0
   20.8356   70.4179    0.1760 O   0  0  0  0  0  0  0  0  0  0  0  0
   23.1903   73.5532    2.9700 O   0  0  0  0  0  0  0  0  0  0  0  0
   21.8994   71.9213    1.7553 C   0  0  2  0  0  0  0  0  0  0  0  0
   22.0022   70.6157    0.9664 C   0  0  2  0  0  0  0  0  0  0  0  0
   23.2215   72.2192    2.4660 C   0  0  1  0  0  0  0  0  0  0  0  0
   23.2279   70.6241    0.0519 C   0  0  1  0  0  0  0  0  0  0  0  0
   24.4076   72.0845    1.5154 C   0  0  1  0  0  0  0  0  0  0  0  0
   20.0322   71.6107    2.3209 H   0  0  0  0  0  0  0  0  0  0  0  0
   20.0540   70.4118    0.7498 H   0  0  0  0  0  0  0  0  0  0  0  0
   22.4397   73.6523    3.5763 H   0  0  0  0  0  0  0  0  0  0  0  0
   26.1949   70.7904    2.3108 O   0  0  0  0  0  0  0  0  0  0  0  0
   26.2298   73.0190    2.7914 O   0  0  0  0  0  0  0  0  0  0  0  0
   25.6943   72.0501    2.2742 C   0  0  0  0  0  0  0  0  0  0  0  0
  1  4  1  0
  1 24  1  0
  1  2  1  1
  1  3  2  0
 25 28  1  0
 25 24  1  0
 25 26  1  6
 25 27  2  0
  6 11  1  0
  6 12  1  0
 29 36  1  0
 29 37  1  0
  9  7  1  6
  7 13  1  0
 10  8  1  6
  8 14  1  0
  4  5  1  0
 36 28  1  6
 33 30  1  1
 30 38  1  0
 34 31  1  6
 31 39  1  0
 35 32  1  6
 32 40  1  0
 41 43  1  0
 15 19  2  0
 42 43  2  0
 16 22  2  0
 12 17  1  1
 17 19  1  0
 17 20  1  0
 18 19  1  0
 18 22  1  0
 18 23  1  0
  9 10  1  0
  9 11  1  0
 10 12  1  0
 11  5  1  1
 33 34  1  0
 33 35  1  0
 34 36  1  0
 35 37  1  0
 37 43  1  1
 20 21  2  0
 21 22  1  0
M  CHG  3   2  -1  26  -1  41  -1
M  END
>  <COMPND>  (108) 
    udp_gluA.pdb 

>  <AUTHOR>  (108) 
    GENERATED BY OPEN BABEL 3.1.1

>  <MASTER>  (108) 
        0    0    0    0    0    0    0    0   56    0   56    0

>  <minimizedAffinity>  (108) 
-6.78765

>  <CNNscore>  (108) 
0.5276680589

>  <CNNaffinity>  (108) 
4.1039032936

>  <CNN_VS>  (108) 
2.1654987335

>  <CNNaffinity_variance>  (108) 
0.2310556471

$$$$
109
     RDKit          3D

 43 45  0  0  0  0  0  0  0  0999 V2000
   21.9885   73.2233   -5.3876 P   0  0  2  0  0  0  0  0  0  0  0  0
   21.6393   74.7187   -5.8980 O   0  0  0  0  0  0  0  0  0  0  0  0
   23.0636   72.5230   -6.1658 O   0  0  0  0  0  0  0  0  0  0  0  0
   20.5517   72.4803   -5.3493 O   0  0  0  0  0  0  0  0  0  0  0  0
   19.9578   72.2211   -4.0905 C   0  0  0  0  0  0  0  0  0  0  0  0
   18.1301   72.7601   -5.5557 O   0  0  0  0  0  0  0  0  0  0  0  0
   16.3272   71.9278   -3.3088 O   0  0  0  0  0  0  0  0  0  0  0  0
   16.2842   69.7476   -4.9461 O   0  0  0  0  0  0  0  0  0  0  0  0
   17.5863   71.3841   -3.7058 C   0  0  1  0  0  0  0  0  0  0  0  0
   17.4302   70.5725   -4.9743 C   0  0  2  0  0  0  0  0  0  0  0  0
   18.4693   72.5344   -4.1702 C   0  0  1  0  0  0  0  0  0  0  0  0
   17.3439   71.6573   -6.0343 C   0  0  2  0  0  0  0  0  0  0  0  0
   15.7458   71.2115   -3.0080 H   0  0  0  0  0  0  0  0  0  0  0  0
   16.3880   69.0735   -4.2557 H   0  0  0  0  0  0  0  0  0  0  0  0
   15.8448   70.2753   -7.9886 O   0  0  0  0  0  0  0  0  0  0  0  0
   19.4441   70.0594  -10.8596 O   0  0  0  0  0  0  0  0  0  0  0  0
   17.8644   71.2280   -7.3014 N   0  0  0  0  0  0  0  0  0  0  0  0
   17.6392   70.1682   -9.4162 N   0  0  0  0  0  0  0  0  0  0  0  0
   17.0275   70.5406   -8.2120 C   0  0  0  0  0  0  0  0  0  0  0  0
   19.1885   71.4898   -7.6320 C   0  0  0  0  0  0  0  0  0  0  0  0
   19.7574   71.1287   -8.7839 C   0  0  0  0  0  0  0  0  0  0  0  0
   18.9521   70.4056   -9.7899 C   0  0  0  0  0  0  0  0  0  0  0  0
   17.0770   69.6865  -10.0653 H   0  0  0  0  0  0  0  0  0  0  0  0
   22.3254   73.4436   -3.8221 O   0  0  0  0  0  0  0  0  0  0  0  0
   23.7393   73.5610   -3.0469 P   0  0  2  0  0  0  0  0  0  0  0  0
   23.5340   74.8557   -2.0972 O   0  0  0  0  0  0  0  0  0  0  0  0
   24.9335   73.6420   -3.9531 O   0  0  0  0  0  0  0  0  0  0  0  0
   23.7540   72.3085   -2.0303 O   0  0  0  0  0  0  0  0  0  0  0  0
   23.7913   69.9959   -2.5397 O   0  0  0  0  0  0  0  0  0  0  0  0
   21.7579   70.0319    1.0564 O   0  0  0  0  0  0  0  0  0  0  0  0
   21.1898   72.0418   -0.9862 O   0  0  0  0  0  0  0  0  0  0  0  0
   24.5343   69.1758    0.9585 O   0  0  0  0  0  0  0  0  0  0  0  0
   22.7073   70.4855    0.0916 C   0  0  2  0  0  0  0  0  0  0  0  0
   21.9813   70.8780   -1.1954 C   0  0  2  0  0  0  0  0  0  0  0  0
   23.6896   69.3436   -0.1784 C   0  0  1  0  0  0  0  0  0  0  0  0
   22.9768   71.1491   -2.3242 C   0  0  1  0  0  0  0  0  0  0  0  0
   24.5623   69.6355   -1.3957 C   0  0  1  0  0  0  0  0  0  0  0  0
   21.1230   70.7412    1.2439 H   0  0  0  0  0  0  0  0  0  0  0  0
   20.5560   71.8770   -0.2710 H   0  0  0  0  0  0  0  0  0  0  0  0
   23.9911   68.9896    1.7403 H   0  0  0  0  0  0  0  0  0  0  0  0
   26.1529   67.9842   -0.9013 O   0  0  0  0  0  0  0  0  0  0  0  0
   25.0942   67.8387   -2.9155 O   0  0  0  0  0  0  0  0  0  0  0  0
   25.2744   68.4017   -1.8461 C   0  0  0  0  0  0  0  0  0  0  0  0
  1  4  1  0
  1 24  1  0
  1  2  1  6
  1  3  2  0
 25 28  1  0
 25 24  1  0
 25 26  1  1
 25 27  2  0
  6 11  1  0
  6 12  1  0
 29 36  1  0
 29 37  1  0
  9  7  1  6
  7 13  1  0
 10  8  1  1
  8 14  1  0
  4  5  1  0
 36 28  1  1
 33 30  1  1
 30 38  1  0
 34 31  1  1
 31 39  1  0
 35 32  1  1
 32 40  1  0
 41 43  1  0
 15 19  2  0
 42 43  2  0
 16 22  2  0
 12 17  1  6
 17 19  1  0
 17 20  1  0
 18 19  1  0
 18 22  1  0
 18 23  1  0
  9 10  1  0
  9 11  1  0
 10 12  1  0
 11  5  1  6
 33 34  1  0
 33 35  1  0
 34 36  1  0
 35 37  1  0
 37 43  1  6
 20 21  2  0
 21 22  1  0
M  CHG  3   2  -1  26  -1  41  -1
M  END
>  <COMPND>  (109) 
    udp_gluA.pdb 

>  <AUTHOR>  (109) 
    GENERATED BY OPEN BABEL 3.1.1

>  <MASTER>  (109) 
        0    0    0    0    0    0    0    0   56    0   56    0

>  <minimizedAffinity>  (109) 
-8.44230

>  <CNNscore>  (109) 
0.5177941918

>  <CNNaffinity>  (109) 
4.4407052994

>  <CNN_VS>  (109) 
2.2993714809

>  <CNNaffinity_variance>  (109) 
0.0359924138

$$$$
110
     RDKit          3D

 43 45  0  0  0  0  0  0  0  0999 V2000
   23.1388   72.9443   -3.2675 P   0  0  2  0  0  0  0  0  0  0  0  0
   24.2269   72.5679   -4.4047 O   0  0  0  0  0  0  0  0  0  0  0  0
   23.0505   74.4047   -2.9338 O   0  0  0  0  0  0  0  0  0  0  0  0
   23.5091   71.9632   -2.0354 O   0  0  0  0  0  0  0  0  0  0  0  0
   23.4593   72.4823   -0.7192 C   0  0  0  0  0  0  0  0  0  0  0  0
   23.9817   71.5854    1.4489 O   0  0  0  0  0  0  0  0  0  0  0  0
   21.5159   69.9067    1.1430 O   0  0  0  0  0  0  0  0  0  0  0  0
   20.6690   71.9169    2.7795 O   0  0  0  0  0  0  0  0  0  0  0  0
   21.7566   71.2461    0.7108 C   0  0  1  0  0  0  0  0  0  0  0  0
   21.7346   72.1905    1.8939 C   0  0  2  0  0  0  0  0  0  0  0  0
   23.2065   71.3393    0.2556 C   0  0  1  0  0  0  0  0  0  0  0  0
   23.0953   71.9413    2.5218 C   0  0  2  0  0  0  0  0  0  0  0  0
   20.5955   69.8225    1.4388 H   0  0  0  0  0  0  0  0  0  0  0  0
   19.8249   72.0911    2.3332 H   0  0  0  0  0  0  0  0  0  0  0  0
   22.4652   72.6685    5.1771 O   0  0  0  0  0  0  0  0  0  0  0  0
   25.1367   76.4191    4.9774 O   0  0  0  0  0  0  0  0  0  0  0  0
   23.6122   73.1028    3.1886 N   0  0  0  0  0  0  0  0  0  0  0  0
   23.7956   74.5363    5.0748 N   0  0  0  0  0  0  0  0  0  0  0  0
   23.2326   73.3777    4.5236 C   0  0  0  0  0  0  0  0  0  0  0  0
   24.4855   73.9539    2.5223 C   0  0  0  0  0  0  0  0  0  0  0  0
   25.0140   75.0546    3.0609 C   0  0  0  0  0  0  0  0  0  0  0  0
   24.6679   75.4141    4.4517 C   0  0  0  0  0  0  0  0  0  0  0  0
   23.5444   74.7496    6.0025 H   0  0  0  0  0  0  0  0  0  0  0  0
   21.7727   72.3020   -3.8456 O   0  0  0  0  0  0  0  0  0  0  0  0
   20.3996   71.8824   -3.1026 P   0  0  2  0  0  0  0  0  0  0  0  0
   20.1666   73.0879   -2.0477 O   0  0  0  0  0  0  0  0  0  0  0  0
   20.4277   70.5152   -2.4830 O   0  0  0  0  0  0  0  0  0  0  0  0
   19.2516   72.0889   -4.2170 O   0  0  0  0  0  0  0  0  0  0  0  0
   18.6785   70.8969   -6.1816 O   0  0  0  0  0  0  0  0  0  0  0  0
   17.9706   74.8015   -7.3309 O   0  0  0  0  0  0  0  0  0  0  0  0
   20.3428   74.1254   -5.7656 O   0  0  0  0  0  0  0  0  0  0  0  0
   15.7458   73.0403   -6.6991 O   0  0  0  0  0  0  0  0  0  0  0  0
   18.0452   73.7040   -6.4209 C   0  0  2  0  0  0  0  0  0  0  0  0
   19.4784   73.1737   -6.3752 C   0  0  2  0  0  0  0  0  0  0  0  0
   17.0901   72.6149   -6.9144 C   0  0  1  0  0  0  0  0  0  0  0  0
   19.5515   71.8616   -5.5929 C   0  0  1  0  0  0  0  0  0  0  0  0
   17.3111   71.3011   -6.1703 C   0  0  1  0  0  0  0  0  0  0  0  0
   18.5695   75.5062   -7.0375 H   0  0  0  0  0  0  0  0  0  0  0  0
   20.3012   74.9605   -6.2567 H   0  0  0  0  0  0  0  0  0  0  0  0
   15.5921   73.8757   -7.1673 H   0  0  0  0  0  0  0  0  0  0  0  0
   16.5590   69.0819   -6.0664 O   0  0  0  0  0  0  0  0  0  0  0  0
   16.1726   70.2215   -8.0031 O   0  0  0  0  0  0  0  0  0  0  0  0
   16.6222   70.1738   -6.8680 C   0  0  0  0  0  0  0  0  0  0  0  0
  1  4  1  0
  1 24  1  0
  1  2  1  6
  1  3  2  0
 25 28  1  0
 25 24  1  0
 25 26  1  1
 25 27  2  0
  6 11  1  0
  6 12  1  0
 29 36  1  0
 29 37  1  0
  9  7  1  1
  7 13  1  0
 10  8  1  1
  8 14  1  0
  4  5  1  0
 36 28  1  1
 33 30  1  6
 30 38  1  0
 34 31  1  1
 31 39  1  0
 35 32  1  1
 32 40  1  0
 41 43  1  0
 15 19  2  0
 42 43  2  0
 16 22  2  0
 12 17  1  6
 17 19  1  0
 17 20  1  0
 18 19  1  0
 18 22  1  0
 18 23  1  0
  9 10  1  0
  9 11  1  0
 10 12  1  0
 11  5  1  6
 33 34  1  0
 33 35  1  0
 34 36  1  0
 35 37  1  0
 37 43  1  6
 20 21  2  0
 21 22  1  0
M  CHG  3   2  -1  26  -1  41  -1
M  END
>  <COMPND>  (110) 
    udp_gluA.pdb 

>  <AUTHOR>  (110) 
    GENERATED BY OPEN BABEL 3.1.1

>  <MASTER>  (110) 
        0    0    0    0    0    0    0    0   56    0   56    0

>  <minimizedAffinity>  (110) 
-6.51261

>  <CNNscore>  (110) 
0.4810929894

>  <CNNaffinity>  (110) 
4.1355476379

>  <CNN_VS>  (110) 
1.9895830154

>  <CNNaffinity_variance>  (110) 
0.0199111067

$$$$
111
     RDKit          3D

 43 45  0  0  0  0  0  0  0  0999 V2000
   22.9090   73.1278   -3.6472 P   0  0  2  0  0  0  0  0  0  0  0  0
   24.2568   72.7511   -4.4599 O   0  0  0  0  0  0  0  0  0  0  0  0
   22.8046   74.5638   -3.2245 O   0  0  0  0  0  0  0  0  0  0  0  0
   22.8585   72.0382   -2.4522 O   0  0  0  0  0  0  0  0  0  0  0  0
   23.2888   72.4298   -1.1615 C   0  0  0  0  0  0  0  0  0  0  0  0
   22.6682   70.1734   -0.6127 O   0  0  0  0  0  0  0  0  0  0  0  0
   22.4220   71.1273    2.2194 O   0  0  0  0  0  0  0  0  0  0  0  0
   24.8482   69.8825    2.2187 O   0  0  0  0  0  0  0  0  0  0  0  0
   23.3560   71.5174    1.2125 C   0  0  1  0  0  0  0  0  0  0  0  0
   24.3846   70.4268    1.0008 C   0  0  2  0  0  0  0  0  0  0  0  0
   22.6271   71.5317   -0.1242 C   0  0  1  0  0  0  0  0  0  0  0  0
   23.6097   69.4200    0.1677 C   0  0  2  0  0  0  0  0  0  0  0  0
   22.8648   71.1109    3.0827 H   0  0  0  0  0  0  0  0  0  0  0  0
   25.3350   70.5620    2.7120 H   0  0  0  0  0  0  0  0  0  0  0  0
   24.3493   66.7235    0.5661 O   0  0  0  0  0  0  0  0  0  0  0  0
   26.8684   66.6539   -3.2931 O   0  0  0  0  0  0  0  0  0  0  0  0
   24.4578   68.6728   -0.7173 N   0  0  0  0  0  0  0  0  0  0  0  0
   25.6041   66.6917   -1.3559 N   0  0  0  0  0  0  0  0  0  0  0  0
   24.7684   67.3235   -0.4256 C   0  0  0  0  0  0  0  0  0  0  0  0
   24.9706   69.2754   -1.8596 C   0  0  0  0  0  0  0  0  0  0  0  0
   25.7659   68.6603   -2.7371 C   0  0  0  0  0  0  0  0  0  0  0  0
   26.1393   67.2494   -2.5057 C   0  0  0  0  0  0  0  0  0  0  0  0
   25.8359   65.7525   -1.1730 H   0  0  0  0  0  0  0  0  0  0  0  0
   21.7351   72.6315   -4.6414 O   0  0  0  0  0  0  0  0  0  0  0  0
   21.0646   73.3414   -5.9299 P   0  0  2  0  0  0  0  0  0  0  0  0
   22.1439   73.0695   -7.1053 O   0  0  0  0  0  0  0  0  0  0  0  0
   20.7228   74.7891   -5.7270 O   0  0  0  0  0  0  0  0  0  0  0  0
   19.8076   72.4030   -6.3063 O   0  0  0  0  0  0  0  0  0  0  0  0
   19.3158   70.2031   -5.5798 O   0  0  0  0  0  0  0  0  0  0  0  0
   17.6421   70.2349   -9.3568 O   0  0  0  0  0  0  0  0  0  0  0  0
   20.2531   71.4571   -8.8837 O   0  0  0  0  0  0  0  0  0  0  0  0
   15.9423   70.4216   -7.0059 O   0  0  0  0  0  0  0  0  0  0  0  0
   18.0522   70.7929   -8.1084 C   0  0  2  0  0  0  0  0  0  0  0  0
   19.5644   70.6343   -7.9490 C   0  0  2  0  0  0  0  0  0  0  0  0
   17.3182   70.0458   -6.9926 C   0  0  1  0  0  0  0  0  0  0  0  0
   20.0078   71.0092   -6.5342 C   0  0  1  0  0  0  0  0  0  0  0  0
   17.9013   70.3783   -5.6223 C   0  0  1  0  0  0  0  0  0  0  0  0
   18.0959   70.6941  -10.0810 H   0  0  0  0  0  0  0  0  0  0  0  0
   19.9764   71.2248   -9.7836 H   0  0  0  0  0  0  0  0  0  0  0  0
   15.5591   70.2153   -7.8729 H   0  0  0  0  0  0  0  0  0  0  0  0
   18.3913   69.1378   -3.6929 O   0  0  0  0  0  0  0  0  0  0  0  0
   16.2879   68.9396   -4.5506 O   0  0  0  0  0  0  0  0  0  0  0  0
   17.4129   69.4150   -4.5899 C   0  0  0  0  0  0  0  0  0  0  0  0
  1  4  1  0
  1 24  1  0
  1  2  1  6
  1  3  2  0
 25 28  1  0
 25 24  1  0
 25 26  1  6
 25 27  2  0
  6 11  1  0
  6 12  1  0
 29 36  1  0
 29 37  1  0
  9  7  1  1
  7 13  1  0
 10  8  1  1
  8 14  1  0
  4  5  1  0
 36 28  1  1
 33 30  1  6
 30 38  1  0
 34 31  1  6
 31 39  1  0
 35 32  1  1
 32 40  1  0
 41 43  1  0
 15 19  2  0
 42 43  2  0
 16 22  2  0
 12 17  1  6
 17 19  1  0
 17 20  1  0
 18 19  1  0
 18 22  1  0
 18 23  1  0
  9 10  1  0
  9 11  1  0
 10 12  1  0
 11  5  1  6
 33 34  1  0
 33 35  1  0
 34 36  1  0
 35 37  1  0
 37 43  1  1
 20 21  2  0
 21 22  1  0
M  CHG  3   2  -1  26  -1  41  -1
M  END
>  <COMPND>  (111) 
    udp_gluA.pdb 

>  <AUTHOR>  (111) 
    GENERATED BY OPEN BABEL 3.1.1

>  <MASTER>  (111) 
        0    0    0    0    0    0    0    0   56    0   56    0

>  <minimizedAffinity>  (111) 
-9.00077

>  <CNNscore>  (111) 
0.4736761451

>  <CNNaffinity>  (111) 
4.4686913490

>  <CNN_VS>  (111) 
2.1167125702

>  <CNNaffinity_variance>  (111) 
0.2911450267

$$$$
112
     RDKit          3D

 43 45  0  0  0  0  0  0  0  0999 V2000
   23.0881   70.7480   -2.3201 P   0  0  2  0  0  0  0  0  0  0  0  0
   24.3345   69.7172   -2.3728 O   0  0  0  0  0  0  0  0  0  0  0  0
   21.8020   70.2162   -2.8811 O   0  0  0  0  0  0  0  0  0  0  0  0
   23.6614   72.0872   -3.0244 O   0  0  0  0  0  0  0  0  0  0  0  0
   22.7419   72.9863   -3.6165 C   0  0  0  0  0  0  0  0  0  0  0  0
   22.4905   72.1365   -5.8508 O   0  0  0  0  0  0  0  0  0  0  0  0
   23.4153   74.8330   -6.7811 O   0  0  0  0  0  0  0  0  0  0  0  0
   20.7131   74.9813   -7.1165 O   0  0  0  0  0  0  0  0  0  0  0  0
   22.5983   74.4950   -5.6599 C   0  0  1  0  0  0  0  0  0  0  0  0
   21.2085   74.1105   -6.1211 C   0  0  2  0  0  0  0  0  0  0  0  0
   23.1152   73.1856   -5.0798 C   0  0  1  0  0  0  0  0  0  0  0  0
   21.4264   72.6979   -6.6356 C   0  0  2  0  0  0  0  0  0  0  0  0
   23.1042   75.6664   -7.1687 H   0  0  0  0  0  0  0  0  0  0  0  0
   20.5911   75.8673   -6.7395 H   0  0  0  0  0  0  0  0  0  0  0  0
   20.2271   71.2518   -8.7444 O   0  0  0  0  0  0  0  0  0  0  0  0
   16.9451   69.5790   -5.9743 O   0  0  0  0  0  0  0  0  0  0  0  0
   20.2578   71.8764   -6.4933 N   0  0  0  0  0  0  0  0  0  0  0  0
   18.5930   70.4208   -7.3629 N   0  0  0  0  0  0  0  0  0  0  0  0
   19.7351   71.1920   -7.6160 C   0  0  0  0  0  0  0  0  0  0  0  0
   19.6431   71.7536   -5.2531 C   0  0  0  0  0  0  0  0  0  0  0  0
   18.5551   71.0147   -5.0274 C   0  0  0  0  0  0  0  0  0  0  0  0
   17.9456   70.2683   -6.1475 C   0  0  0  0  0  0  0  0  0  0  0  0
   18.2097   69.9367   -8.1297 H   0  0  0  0  0  0  0  0  0  0  0  0
   23.0226   71.1586   -0.7580 O   0  0  0  0  0  0  0  0  0  0  0  0
   21.7719   71.2591    0.2614 P   0  0  2  0  0  0  0  0  0  0  0  0
   21.7132   69.7822    0.9215 O   0  0  0  0  0  0  0  0  0  0  0  0
   20.4885   71.7012   -0.3800 O   0  0  0  0  0  0  0  0  0  0  0  0
   22.2900   72.2168    1.4517 O   0  0  0  0  0  0  0  0  0  0  0  0
   24.1411   71.3683    2.6611 O   0  0  0  0  0  0  0  0  0  0  0  0
   23.0376   74.6073    4.9762 O   0  0  0  0  0  0  0  0  0  0  0  0
   21.0085   72.8387    3.8407 O   0  0  0  0  0  0  0  0  0  0  0  0
   25.3820   74.7681    3.2647 O   0  0  0  0  0  0  0  0  0  0  0  0
   23.2053   73.8659    3.7678 C   0  0  2  0  0  0  0  0  0  0  0  0
   22.4050   72.5658    3.8498 C   0  0  2  0  0  0  0  0  0  0  0  0
   24.6962   73.5636    3.6014 C   0  0  1  0  0  0  0  0  0  0  0  0
   22.7397   71.6424    2.6776 C   0  0  1  0  0  0  0  0  0  0  0  0
   24.9370   72.5398    2.4958 C   0  0  1  0  0  0  0  0  0  0  0  0
   22.0975   74.8109    5.1030 H   0  0  0  0  0  0  0  0  0  0  0  0
   20.7891   73.4244    4.5818 H   0  0  0  0  0  0  0  0  0  0  0  0
   25.2366   75.4282    3.9604 H   0  0  0  0  0  0  0  0  0  0  0  0
   26.4145   70.8041    1.9424 O   0  0  0  0  0  0  0  0  0  0  0  0
   27.2754   72.5770    3.0890 O   0  0  0  0  0  0  0  0  0  0  0  0
   26.3323   72.0091    2.5590 C   0  0  0  0  0  0  0  0  0  0  0  0
  1  4  1  0
  1 24  1  0
  1  2  1  1
  1  3  2  0
 25 28  1  0
 25 24  1  0
 25 26  1  1
 25 27  2  0
  6 11  1  0
  6 12  1  0
 29 36  1  0
 29 37  1  0
  9  7  1  6
  7 13  1  0
 10  8  1  6
  8 14  1  0
  4  5  1  0
 36 28  1  6
 33 30  1  1
 30 38  1  0
 34 31  1  6
 31 39  1  0
 35 32  1  6
 32 40  1  0
 41 43  1  0
 15 19  2  0
 42 43  2  0
 16 22  2  0
 12 17  1  1
 17 19  1  0
 17 20  1  0
 18 19  1  0
 18 22  1  0
 18 23  1  0
  9 10  1  0
  9 11  1  0
 10 12  1  0
 11  5  1  1
 33 34  1  0
 33 35  1  0
 34 36  1  0
 35 37  1  0
 37 43  1  1
 20 21  2  0
 21 22  1  0
M  CHG  3   2  -1  26  -1  41  -1
M  END
>  <COMPND>  (112) 
    udp_gluA.pdb 

>  <AUTHOR>  (112) 
    GENERATED BY OPEN BABEL 3.1.1

>  <MASTER>  (112) 
        0    0    0    0    0    0    0    0   56    0   56    0

>  <minimizedAffinity>  (112) 
-6.82849

>  <CNNscore>  (112) 
0.4698656201

>  <CNNaffinity>  (112) 
4.1257381439

>  <CNN_VS>  (112) 
1.9385424852

>  <CNNaffinity_variance>  (112) 
0.0046811430

$$$$
113
     RDKit          3D

 43 45  0  0  0  0  0  0  0  0999 V2000
   22.1412   75.2991   -5.3812 P   0  0  2  0  0  0  0  0  0  0  0  0
   23.5093   74.4617   -5.5952 O   0  0  0  0  0  0  0  0  0  0  0  0
   22.0237   76.5437   -6.2113 O   0  0  0  0  0  0  0  0  0  0  0  0
   22.0631   75.5130   -3.7793 O   0  0  0  0  0  0  0  0  0  0  0  0
   22.3702   74.4185   -2.9353 C   0  0  0  0  0  0  0  0  0  0  0  0
   21.1361   72.4987   -2.1811 O   0  0  0  0  0  0  0  0  0  0  0  0
   19.5631   74.4077   -0.4862 O   0  0  0  0  0  0  0  0  0  0  0  0
   21.3035   73.3145    1.3061 O   0  0  0  0  0  0  0  0  0  0  0  0
   20.9500   74.4315   -0.8246 C   0  0  1  0  0  0  0  0  0  0  0  0
   21.6970   73.3670   -0.0493 C   0  0  2  0  0  0  0  0  0  0  0  0
   21.0922   73.9400   -2.2586 C   0  0  1  0  0  0  0  0  0  0  0  0
   21.3321   72.1058   -0.8134 C   0  0  2  0  0  0  0  0  0  0  0  0
   19.4472   74.7177    0.4260 H   0  0  0  0  0  0  0  0  0  0  0  0
   21.5582   74.1398    1.7489 H   0  0  0  0  0  0  0  0  0  0  0  0
   21.6113   70.2110    1.2622 O   0  0  0  0  0  0  0  0  0  0  0  0
   25.3390   68.3403   -0.6995 O   0  0  0  0  0  0  0  0  0  0  0  0
   22.3665   71.1120   -0.7567 N   0  0  0  0  0  0  0  0  0  0  0  0
   23.4682   69.2817    0.2837 N   0  0  0  0  0  0  0  0  0  0  0  0
   22.4176   70.2075    0.3301 C   0  0  0  0  0  0  0  0  0  0  0  0
   23.3147   71.0393   -1.7700 C   0  0  0  0  0  0  0  0  0  0  0  0
   24.3103   70.1512   -1.8005 C   0  0  0  0  0  0  0  0  0  0  0  0
   24.4355   69.1708   -0.7021 C   0  0  0  0  0  0  0  0  0  0  0  0
   23.5256   68.6429    1.0306 H   0  0  0  0  0  0  0  0  0  0  0  0
   20.9931   74.1951   -5.6568 O   0  0  0  0  0  0  0  0  0  0  0  0
   21.0825   72.7002   -6.2659 P   0  0  2  0  0  0  0  0  0  0  0  0
   22.0092   71.9185   -5.1933 O   0  0  0  0  0  0  0  0  0  0  0  0
   21.5868   72.6400   -7.6787 O   0  0  0  0  0  0  0  0  0  0  0  0
   19.6068   72.0834   -6.0550 O   0  0  0  0  0  0  0  0  0  0  0  0
   19.2523   70.0416   -4.9085 O   0  0  0  0  0  0  0  0  0  0  0  0
   15.7630   70.3966   -7.0918 O   0  0  0  0  0  0  0  0  0  0  0  0
   18.3407   71.0458   -8.3036 O   0  0  0  0  0  0  0  0  0  0  0  0
   15.7622   70.9540   -4.2387 O   0  0  0  0  0  0  0  0  0  0  0  0
   16.8971   70.8651   -6.3621 C   0  0  2  0  0  0  0  0  0  0  0  0
   18.1785   70.3932   -7.0496 C   0  0  2  0  0  0  0  0  0  0  0  0
   16.8141   70.2974   -4.9434 C   0  0  1  0  0  0  0  0  0  0  0  0
   19.4031   70.6770   -6.1785 C   0  0  1  0  0  0  0  0  0  0  0  0
   18.1189   70.5100   -4.1812 C   0  0  1  0  0  0  0  0  0  0  0  0
   15.7942   70.7447   -7.9968 H   0  0  0  0  0  0  0  0  0  0  0  0
   17.5671   70.8703   -8.8614 H   0  0  0  0  0  0  0  0  0  0  0  0
   14.9260   70.8265   -4.7135 H   0  0  0  0  0  0  0  0  0  0  0  0
   17.3879   68.5667   -3.0898 O   0  0  0  0  0  0  0  0  0  0  0  0
   18.7744   69.9539   -1.9267 O   0  0  0  0  0  0  0  0  0  0  0  0
   18.1497   69.6786   -2.9401 C   0  0  0  0  0  0  0  0  0  0  0  0
  1  4  1  0
  1 24  1  0
  1  2  1  1
  1  3  2  0
 25 28  1  0
 25 24  1  0
 25 26  1  1
 25 27  2  0
  6 11  1  0
  6 12  1  0
 29 36  1  0
 29 37  1  0
  9  7  1  1
  7 13  1  0
 10  8  1  1
  8 14  1  0
  4  5  1  0
 36 28  1  1
 33 30  1  6
 30 38  1  0
 34 31  1  6
 31 39  1  0
 35 32  1  1
 32 40  1  0
 41 43  1  0
 15 19  2  0
 42 43  2  0
 16 22  2  0
 12 17  1  6
 17 19  1  0
 17 20  1  0
 18 19  1  0
 18 22  1  0
 18 23  1  0
  9 10  1  0
  9 11  1  0
 10 12  1  0
 11  5  1  1
 33 34  1  0
 33 35  1  0
 34 36  1  0
 35 37  1  0
 37 43  1  1
 20 21  2  0
 21 22  1  0
M  CHG  3   2  -1  26  -1  41  -1
M  END
>  <COMPND>  (113) 
    udp_gluA.pdb 

>  <AUTHOR>  (113) 
    GENERATED BY OPEN BABEL 3.1.1

>  <MASTER>  (113) 
        0    0    0    0    0    0    0    0   56    0   56    0

>  <minimizedAffinity>  (113) 
-6.91383

>  <CNNscore>  (113) 
0.4553833008

>  <CNNaffinity>  (113) 
4.1476144791

>  <CNN_VS>  (113) 
1.8887543678

>  <CNNaffinity_variance>  (113) 
0.3179706335

$$$$
114
     RDKit          3D

 43 45  0  0  0  0  0  0  0  0999 V2000
   23.1715   73.3419   -4.1095 P   0  0  2  0  0  0  0  0  0  0  0  0
   24.0566   72.0033   -3.9004 O   0  0  0  0  0  0  0  0  0  0  0  0
   23.8839   74.4723   -4.7925 O   0  0  0  0  0  0  0  0  0  0  0  0
   22.5985   73.6637   -2.6309 O   0  0  0  0  0  0  0  0  0  0  0  0
   21.2945   74.2023   -2.5136 C   0  0  0  0  0  0  0  0  0  0  0  0
   19.2246   73.8912   -1.3318 O   0  0  0  0  0  0  0  0  0  0  0  0
   20.6884   71.8619    0.3207 O   0  0  0  0  0  0  0  0  0  0  0  0
   19.2920   70.3080   -1.4319 O   0  0  0  0  0  0  0  0  0  0  0  0
   20.8223   72.1623   -1.0687 C   0  0  1  0  0  0  0  0  0  0  0  0
   19.6399   71.6146   -1.8397 C   0  0  2  0  0  0  0  0  0  0  0  0
   20.6481   73.6648   -1.2433 C   0  0  1  0  0  0  0  0  0  0  0  0
   18.5581   72.6333   -1.5238 C   0  0  2  0  0  0  0  0  0  0  0  0
   20.7959   70.9071    0.4572 H   0  0  0  0  0  0  0  0  0  0  0  0
   20.0123   69.6970   -1.6551 H   0  0  0  0  0  0  0  0  0  0  0  0
   16.0222   71.3906   -1.5598 O   0  0  0  0  0  0  0  0  0  0  0  0
   14.9813   73.2202   -5.6602 O   0  0  0  0  0  0  0  0  0  0  0  0
   17.6045   72.7679   -2.5884 N   0  0  0  0  0  0  0  0  0  0  0  0
   15.5066   72.3022   -3.6024 N   0  0  0  0  0  0  0  0  0  0  0  0
   16.3589   72.1015   -2.5086 C   0  0  0  0  0  0  0  0  0  0  0  0
   17.9057   73.5536   -3.6942 C   0  0  0  0  0  0  0  0  0  0  0  0
   17.0831   73.7355   -4.7291 C   0  0  0  0  0  0  0  0  0  0  0  0
   15.7620   73.0736   -4.7246 C   0  0  0  0  0  0  0  0  0  0  0  0
   14.6344   71.8467   -3.5705 H   0  0  0  0  0  0  0  0  0  0  0  0
   21.8676   72.7960   -4.8936 O   0  0  0  0  0  0  0  0  0  0  0  0
   21.1312   73.3310   -6.2297 P   0  0  2  0  0  0  0  0  0  0  0  0
   22.1357   72.8736   -7.4139 O   0  0  0  0  0  0  0  0  0  0  0  0
   20.8202   74.7996   -6.2153 O   0  0  0  0  0  0  0  0  0  0  0  0
   19.8424   72.3753   -6.3972 O   0  0  0  0  0  0  0  0  0  0  0  0
   19.3564   70.1916   -5.6199 O   0  0  0  0  0  0  0  0  0  0  0  0
   17.5494   70.1830   -9.3351 O   0  0  0  0  0  0  0  0  0  0  0  0
   20.1868   71.3864   -8.9739 O   0  0  0  0  0  0  0  0  0  0  0  0
   15.9364   70.4217   -6.9285 O   0  0  0  0  0  0  0  0  0  0  0  0
   18.0089   70.7556   -8.1108 C   0  0  2  0  0  0  0  0  0  0  0  0
   19.5244   70.5846   -8.0029 C   0  0  2  0  0  0  0  0  0  0  0  0
   17.3083   70.0326   -6.9583 C   0  0  1  0  0  0  0  0  0  0  0  0
   20.0214   70.9763   -6.6106 C   0  0  1  0  0  0  0  0  0  0  0  0
   17.9431   70.3799   -5.6148 C   0  0  1  0  0  0  0  0  0  0  0  0
   17.9813   70.6268  -10.0820 H   0  0  0  0  0  0  0  0  0  0  0  0
   19.8760   71.1433   -9.8598 H   0  0  0  0  0  0  0  0  0  0  0  0
   15.5206   70.2062   -7.7779 H   0  0  0  0  0  0  0  0  0  0  0  0
   18.5404   68.9320   -3.8688 O   0  0  0  0  0  0  0  0  0  0  0  0
   16.3165   69.1562   -4.3194 O   0  0  0  0  0  0  0  0  0  0  0  0
   17.4828   69.4371   -4.5511 C   0  0  0  0  0  0  0  0  0  0  0  0
  1  4  1  0
  1 24  1  0
  1  2  1  1
  1  3  2  0
 25 28  1  0
 25 24  1  0
 25 26  1  6
 25 27  2  0
  6 11  1  0
  6 12  1  0
 29 36  1  0
 29 37  1  0
  9  7  1  1
  7 13  1  0
 10  8  1  1
  8 14  1  0
  4  5  1  0
 36 28  1  1
 33 30  1  6
 30 38  1  0
 34 31  1  6
 31 39  1  0
 35 32  1  1
 32 40  1  0
 41 43  1  0
 15 19  2  0
 42 43  2  0
 16 22  2  0
 12 17  1  6
 17 19  1  0
 17 20  1  0
 18 19  1  0
 18 22  1  0
 18 23  1  0
  9 10  1  0
  9 11  1  0
 10 12  1  0
 11  5  1  6
 33 34  1  0
 33 35  1  0
 34 36  1  0
 35 37  1  0
 37 43  1  1
 20 21  2  0
 21 22  1  0
M  CHG  3   2  -1  26  -1  41  -1
M  END
>  <COMPND>  (114) 
    udp_gluA.pdb 

>  <AUTHOR>  (114) 
    GENERATED BY OPEN BABEL 3.1.1

>  <MASTER>  (114) 
        0    0    0    0    0    0    0    0   56    0   56    0

>  <minimizedAffinity>  (114) 
-6.43494

>  <CNNscore>  (114) 
0.4474617541

>  <CNNaffinity>  (114) 
3.8502335548

>  <CNN_VS>  (114) 
1.7228322029

>  <CNNaffinity_variance>  (114) 
1.0553591251

$$$$
115
     RDKit          3D

 43 45  0  0  0  0  0  0  0  0999 V2000
   19.9042   72.0416   -1.7984 P   0  0  2  0  0  0  0  0  0  0  0  0
   18.5654   72.4789   -1.0015 O   0  0  0  0  0  0  0  0  0  0  0  0
   19.9827   70.5859   -2.1541 O   0  0  0  0  0  0  0  0  0  0  0  0
   21.1075   72.6051   -0.8750 O   0  0  0  0  0  0  0  0  0  0  0  0
   22.3337   71.8975   -0.8563 C   0  0  0  0  0  0  0  0  0  0  0  0
   22.6980   69.8042    0.2674 O   0  0  0  0  0  0  0  0  0  0  0  0
   23.4789   71.4365    2.6585 O   0  0  0  0  0  0  0  0  0  0  0  0
   25.8926   70.6854    1.6359 O   0  0  0  0  0  0  0  0  0  0  0  0
   23.7103   71.6947    1.2735 C   0  0  1  0  0  0  0  0  0  0  0  0
   24.8005   70.7861    0.7460 C   0  0  2  0  0  0  0  0  0  0  0  0
   22.4921   71.2151    0.4963 C   0  0  1  0  0  0  0  0  0  0  0  0
   24.0603   69.4702    0.5775 C   0  0  2  0  0  0  0  0  0  0  0  0
   24.2440   71.7346    3.1756 H   0  0  0  0  0  0  0  0  0  0  0  0
   26.3307   71.5483    1.7089 H   0  0  0  0  0  0  0  0  0  0  0  0
   24.3091   66.6583    0.6642 O   0  0  0  0  0  0  0  0  0  0  0  0
   26.1410   66.5074   -3.5626 O   0  0  0  0  0  0  0  0  0  0  0  0
   24.5988   68.6709   -0.4864 N   0  0  0  0  0  0  0  0  0  0  0  0
   25.2222   66.5859   -1.4406 N   0  0  0  0  0  0  0  0  0  0  0  0
   24.6799   67.2657   -0.3420 C   0  0  0  0  0  0  0  0  0  0  0  0
   25.0378   69.2784   -1.6565 C   0  0  0  0  0  0  0  0  0  0  0  0
   25.5522   68.6172   -2.6952 C   0  0  0  0  0  0  0  0  0  0  0  0
   25.6729   67.1462   -2.6250 C   0  0  0  0  0  0  0  0  0  0  0  0
   25.2907   65.6068   -1.3627 H   0  0  0  0  0  0  0  0  0  0  0  0
   19.9172   73.0459   -3.0648 O   0  0  0  0  0  0  0  0  0  0  0  0
   20.7207   72.9769   -4.4660 P   0  0  2  0  0  0  0  0  0  0  0  0
   21.7829   71.7795   -4.2247 O   0  0  0  0  0  0  0  0  0  0  0  0
   21.3407   74.2785   -4.8851 O   0  0  0  0  0  0  0  0  0  0  0  0
   19.6576   72.3724   -5.5181 O   0  0  0  0  0  0  0  0  0  0  0  0
   18.9053   70.1374   -5.2988 O   0  0  0  0  0  0  0  0  0  0  0  0
   17.8775   70.9907   -9.2082 O   0  0  0  0  0  0  0  0  0  0  0  0
   20.4529   71.8530   -8.1322 O   0  0  0  0  0  0  0  0  0  0  0  0
   15.8330   70.9270   -7.1426 O   0  0  0  0  0  0  0  0  0  0  0  0
   18.1150   71.2795   -7.8305 C   0  0  2  0  0  0  0  0  0  0  0  0
   19.5665   70.9500   -7.4814 C   0  0  2  0  0  0  0  0  0  0  0  0
   17.1594   70.4234   -6.9963 C   0  0  1  0  0  0  0  0  0  0  0  0
   19.7971   71.0271   -5.9715 C   0  0  1  0  0  0  0  0  0  0  0  0
   17.5320   70.4532   -5.5169 C   0  0  1  0  0  0  0  0  0  0  0  0
   18.4737   71.5234   -9.7579 H   0  0  0  0  0  0  0  0  0  0  0  0
   20.3119   71.8095   -9.0907 H   0  0  0  0  0  0  0  0  0  0  0  0
   15.5835   70.9135   -8.0799 H   0  0  0  0  0  0  0  0  0  0  0  0
   16.8263   69.6320   -3.4362 O   0  0  0  0  0  0  0  0  0  0  0  0
   16.2916   68.3977   -5.2774 O   0  0  0  0  0  0  0  0  0  0  0  0
   16.8171   69.3761   -4.7679 C   0  0  0  0  0  0  0  0  0  0  0  0
  1  4  1  0
  1 24  1  0
  1  2  1  1
  1  3  2  0
 25 28  1  0
 25 24  1  0
 25 26  1  1
 25 27  2  0
  6 11  1  0
  6 12  1  0
 29 36  1  0
 29 37  1  0
  9  7  1  1
  7 13  1  0
 10  8  1  1
  8 14  1  0
  4  5  1  0
 36 28  1  1
 33 30  1  6
 30 38  1  0
 34 31  1  6
 31 39  1  0
 35 32  1  1
 32 40  1  0
 41 43  1  0
 15 19  2  0
 42 43  2  0
 16 22  2  0
 12 17  1  6
 17 19  1  0
 17 20  1  0
 18 19  1  0
 18 22  1  0
 18 23  1  0
  9 10  1  0
  9 11  1  0
 10 12  1  0
 11  5  1  6
 33 34  1  0
 33 35  1  0
 34 36  1  0
 35 37  1  0
 37 43  1  1
 20 21  2  0
 21 22  1  0
M  CHG  3   2  -1  26  -1  41  -1
M  END
>  <COMPND>  (115) 
    udp_gluA.pdb 

>  <AUTHOR>  (115) 
    GENERATED BY OPEN BABEL 3.1.1

>  <MASTER>  (115) 
        0    0    0    0    0    0    0    0   56    0   56    0

>  <minimizedAffinity>  (115) 
-8.13945

>  <CNNscore>  (115) 
0.4036313593

>  <CNNaffinity>  (115) 
4.4022231102

>  <CNN_VS>  (115) 
1.7768752575

>  <CNNaffinity_variance>  (115) 
0.2260783166

$$$$
116
     RDKit          3D

 43 45  0  0  0  0  0  0  0  0999 V2000
   24.5880   71.1279    2.2118 P   0  0  2  0  0  0  0  0  0  0  0  0
   23.2453   71.7458    2.8708 O   0  0  0  0  0  0  0  0  0  0  0  0
   24.9898   69.7811    2.7376 O   0  0  0  0  0  0  0  0  0  0  0  0
   25.6837   72.3056    2.3858 O   0  0  0  0  0  0  0  0  0  0  0  0
   25.3433   73.6135    1.9640 C   0  0  0  0  0  0  0  0  0  0  0  0
   25.9317   73.9246    4.2737 O   0  0  0  0  0  0  0  0  0  0  0  0
   25.0566   76.7708    3.9204 O   0  0  0  0  0  0  0  0  0  0  0  0
   27.7727   76.9590    3.7672 O   0  0  0  0  0  0  0  0  0  0  0  0
   25.7201   75.9080    2.9963 C   0  0  1  0  0  0  0  0  0  0  0  0
   27.1727   75.7381    3.3880 C   0  0  2  0  0  0  0  0  0  0  0  0
   25.1712   74.5011    3.1899 C   0  0  1  0  0  0  0  0  0  0  0  0
   27.0755   74.7518    4.5394 C   0  0  2  0  0  0  0  0  0  0  0  0
   25.3909   77.6758    3.8155 H   0  0  0  0  0  0  0  0  0  0  0  0
   27.8116   77.5522    3.0000 H   0  0  0  0  0  0  0  0  0  0  0  0
   29.3873   75.4242    6.0158 O   0  0  0  0  0  0  0  0  0  0  0  0
   31.4817   71.4783    4.8814 O   0  0  0  0  0  0  0  0  0  0  0  0
   28.2395   73.9185    4.6469 N   0  0  0  0  0  0  0  0  0  0  0  0
   30.4286   73.4587    5.4486 N   0  0  0  0  0  0  0  0  0  0  0  0
   29.3479   74.3497    5.4135 C   0  0  0  0  0  0  0  0  0  0  0  0
   28.2750   72.6896    3.9993 C   0  0  0  0  0  0  0  0  0  0  0  0
   29.3122   71.8511    4.0421 C   0  0  0  0  0  0  0  0  0  0  0  0
   30.5107   72.2264    4.8207 C   0  0  0  0  0  0  0  0  0  0  0  0
   31.2128   73.7380    5.9744 H   0  0  0  0  0  0  0  0  0  0  0  0
   24.2646   71.1635    0.6284 O   0  0  0  0  0  0  0  0  0  0  0  0
   23.0934   70.4551   -0.2319 P   0  0  2  0  0  0  0  0  0  0  0  0
   22.5371   71.6586   -1.1605 O   0  0  0  0  0  0  0  0  0  0  0  0
   22.0420   69.7786    0.5993 O   0  0  0  0  0  0  0  0  0  0  0  0
   23.8702   69.4780   -1.2538 O   0  0  0  0  0  0  0  0  0  0  0  0
   24.8121   67.7492    0.0627 O   0  0  0  0  0  0  0  0  0  0  0  0
   25.9107   66.5963   -3.7493 O   0  0  0  0  0  0  0  0  0  0  0  0
   26.0776   69.3995   -2.9442 O   0  0  0  0  0  0  0  0  0  0  0  0
   23.7442   65.2263   -2.3779 O   0  0  0  0  0  0  0  0  0  0  0  0
   25.0761   67.1975   -2.7594 C   0  0  2  0  0  0  0  0  0  0  0  0
   25.8438   68.3152   -2.0530 C   0  0  2  0  0  0  0  0  0  0  0  0
   24.6738   66.1127   -1.7577 C   0  0  1  0  0  0  0  0  0  0  0  0
   25.0695   68.8273   -0.8377 C   0  0  1  0  0  0  0  0  0  0  0  0
   24.0204   66.7147   -0.5171 C   0  0  1  0  0  0  0  0  0  0  0  0
   26.1789   67.2669   -4.3970 H   0  0  0  0  0  0  0  0  0  0  0  0
   26.5683   69.0816   -3.7178 H   0  0  0  0  0  0  0  0  0  0  0  0
   24.1477   64.8365   -3.1692 H   0  0  0  0  0  0  0  0  0  0  0  0
   24.6232   66.1208    1.6705 O   0  0  0  0  0  0  0  0  0  0  0  0
   23.3249   64.6467    0.5129 O   0  0  0  0  0  0  0  0  0  0  0  0
   23.9334   65.7041    0.5799 C   0  0  0  0  0  0  0  0  0  0  0  0
  1  4  1  0
  1 24  1  0
  1  2  1  1
  1  3  2  0
 25 28  1  0
 25 24  1  0
 25 26  1  6
 25 27  2  0
  6 11  1  0
  6 12  1  0
 29 36  1  0
 29 37  1  0
  9  7  1  1
  7 13  1  0
 10  8  1  1
  8 14  1  0
  4  5  1  0
 36 28  1  6
 33 30  1  6
 30 38  1  0
 34 31  1  6
 31 39  1  0
 35 32  1  6
 32 40  1  0
 41 43  1  0
 15 19  2  0
 42 43  2  0
 16 22  2  0
 12 17  1  6
 17 19  1  0
 17 20  1  0
 18 19  1  0
 18 22  1  0
 18 23  1  0
  9 10  1  0
  9 11  1  0
 10 12  1  0
 11  5  1  6
 33 34  1  0
 33 35  1  0
 34 36  1  0
 35 37  1  0
 37 43  1  1
 20 21  2  0
 21 22  1  0
M  CHG  3   2  -1  26  -1  41  -1
M  END
>  <COMPND>  (116) 
    udp_gluA.pdb 

>  <AUTHOR>  (116) 
    GENERATED BY OPEN BABEL 3.1.1

>  <MASTER>  (116) 
        0    0    0    0    0    0    0    0   56    0   56    0

>  <minimizedAffinity>  (116) 
-7.83431

>  <CNNscore>  (116) 
0.3992989659

>  <CNNaffinity>  (116) 
4.1130561829

>  <CNN_VS>  (116) 
1.6423391104

>  <CNNaffinity_variance>  (116) 
0.2252248228

$$$$
117
     RDKit          3D

 43 45  0  0  0  0  0  0  0  0999 V2000
   23.1205   73.9250   -4.3047 P   0  0  2  0  0  0  0  0  0  0  0  0
   24.2342   72.7623   -4.4680 O   0  0  0  0  0  0  0  0  0  0  0  0
   23.5021   75.2541   -4.8873 O   0  0  0  0  0  0  0  0  0  0  0  0
   22.7848   73.9219   -2.7219 O   0  0  0  0  0  0  0  0  0  0  0  0
   22.1087   72.8041   -2.1762 C   0  0  0  0  0  0  0  0  0  0  0  0
   23.4643   72.6505   -0.1972 O   0  0  0  0  0  0  0  0  0  0  0  0
   23.6214   69.7090   -0.7582 O   0  0  0  0  0  0  0  0  0  0  0  0
   21.7326   69.8413    1.2042 O   0  0  0  0  0  0  0  0  0  0  0  0
   22.5326   70.6104   -0.9593 C   0  0  1  0  0  0  0  0  0  0  0  0
   21.8955   70.9670    0.3670 C   0  0  2  0  0  0  0  0  0  0  0  0
   23.1064   71.9478   -1.4070 C   0  0  1  0  0  0  0  0  0  0  0  0
   22.8820   71.9762    0.9295 C   0  0  2  0  0  0  0  0  0  0  0  0
   23.2795   68.8473   -0.4717 H   0  0  0  0  0  0  0  0  0  0  0  0
   21.0953   69.2293    0.8026 H   0  0  0  0  0  0  0  0  0  0  0  0
   22.6711   71.7427    3.7362 O   0  0  0  0  0  0  0  0  0  0  0  0
   20.4352   75.7580    4.0852 O   0  0  0  0  0  0  0  0  0  0  0  0
   22.2498   72.9460    1.7784 N   0  0  0  0  0  0  0  0  0  0  0  0
   21.5568   73.7422    3.9072 N   0  0  0  0  0  0  0  0  0  0  0  0
   22.1973   72.7331    3.1763 C   0  0  0  0  0  0  0  0  0  0  0  0
   21.6921   74.0926    1.2260 C   0  0  0  0  0  0  0  0  0  0  0  0
   21.0849   75.0458    1.9357 C   0  0  0  0  0  0  0  0  0  0  0  0
   20.9865   74.8998    3.4028 C   0  0  0  0  0  0  0  0  0  0  0  0
   21.5060   73.6152    4.8822 H   0  0  0  0  0  0  0  0  0  0  0  0
   21.8008   73.2576   -4.9572 O   0  0  0  0  0  0  0  0  0  0  0  0
   21.0301   73.5670   -6.3443 P   0  0  2  0  0  0  0  0  0  0  0  0
   22.0635   73.0310   -7.4691 O   0  0  0  0  0  0  0  0  0  0  0  0
   20.6202   75.0012   -6.5144 O   0  0  0  0  0  0  0  0  0  0  0  0
   19.8091   72.5132   -6.3780 O   0  0  0  0  0  0  0  0  0  0  0  0
   19.5093   70.3196   -5.5371 O   0  0  0  0  0  0  0  0  0  0  0  0
   17.5578   70.1005   -9.1719 O   0  0  0  0  0  0  0  0  0  0  0  0
   20.1169   71.4914   -8.9465 O   0  0  0  0  0  0  0  0  0  0  0  0
   16.0311   70.2825   -6.7047 O   0  0  0  0  0  0  0  0  0  0  0  0
   18.0254   70.7316   -7.9798 C   0  0  2  0  0  0  0  0  0  0  0  0
   19.5523   70.6683   -7.9325 C   0  0  2  0  0  0  0  0  0  0  0  0
   17.4246   69.9886   -6.7844 C   0  0  1  0  0  0  0  0  0  0  0  0
   20.0768   71.1254   -6.5706 C   0  0  1  0  0  0  0  0  0  0  0  0
   18.0876   70.4099   -5.4762 C   0  0  1  0  0  0  0  0  0  0  0  0
   17.9268   70.5558   -9.9451 H   0  0  0  0  0  0  0  0  0  0  0  0
   19.7881   71.2071   -9.8134 H   0  0  0  0  0  0  0  0  0  0  0  0
   15.5973   70.0193   -7.5313 H   0  0  0  0  0  0  0  0  0  0  0  0
   16.4602   69.0275   -4.5054 O   0  0  0  0  0  0  0  0  0  0  0  0
   18.4941   69.1189   -3.4788 O   0  0  0  0  0  0  0  0  0  0  0  0
   17.7381   69.4622   -4.3752 C   0  0  0  0  0  0  0  0  0  0  0  0
  1  4  1  0
  1 24  1  0
  1  2  1  1
  1  3  2  0
 25 28  1  0
 25 24  1  0
 25 26  1  6
 25 27  2  0
  6 11  1  0
  6 12  1  0
 29 36  1  0
 29 37  1  0
  9  7  1  1
  7 13  1  0
 10  8  1  1
  8 14  1  0
  4  5  1  0
 36 28  1  1
 33 30  1  6
 30 38  1  0
 34 31  1  6
 31 39  1  0
 35 32  1  1
 32 40  1  0
 41 43  1  0
 15 19  2  0
 42 43  2  0
 16 22  2  0
 12 17  1  1
 17 19  1  0
 17 20  1  0
 18 19  1  0
 18 22  1  0
 18 23  1  0
  9 10  1  0
  9 11  1  0
 10 12  1  0
 11  5  1  1
 33 34  1  0
 33 35  1  0
 34 36  1  0
 35 37  1  0
 37 43  1  1
 20 21  2  0
 21 22  1  0
M  CHG  3   2  -1  26  -1  41  -1
M  END
>  <COMPND>  (117) 
    udp_gluA.pdb 

>  <AUTHOR>  (117) 
    GENERATED BY OPEN BABEL 3.1.1

>  <MASTER>  (117) 
        0    0    0    0    0    0    0    0   56    0   56    0

>  <minimizedAffinity>  (117) 
-7.21728

>  <CNNscore>  (117) 
0.3963260055

>  <CNNaffinity>  (117) 
4.1203808784

>  <CNN_VS>  (117) 
1.6330140829

>  <CNNaffinity_variance>  (117) 
0.0944131464

$$$$
118
     RDKit          3D

 43 45  0  0  0  0  0  0  0  0999 V2000
   23.1643   72.5996   -3.3223 P   0  0  2  0  0  0  0  0  0  0  0  0
   24.1125   72.6427   -4.6330 O   0  0  0  0  0  0  0  0  0  0  0  0
   23.1460   73.8624   -2.5118 O   0  0  0  0  0  0  0  0  0  0  0  0
   23.6452   71.2684   -2.5384 O   0  0  0  0  0  0  0  0  0  0  0  0
   23.2216   71.0815   -1.2004 C   0  0  0  0  0  0  0  0  0  0  0  0
   23.8640   72.6680    0.4872 O   0  0  0  0  0  0  0  0  0  0  0  0
   26.0391   70.7353    1.2120 O   0  0  0  0  0  0  0  0  0  0  0  0
   24.1631   70.2699    3.1356 O   0  0  0  0  0  0  0  0  0  0  0  0
   24.7058   70.4726    0.7741 C   0  0  1  0  0  0  0  0  0  0  0  0
   23.7217   70.7622    1.8876 C   0  0  2  0  0  0  0  0  0  0  0  0
   24.3350   71.5260   -0.2608 C   0  0  1  0  0  0  0  0  0  0  0  0
   23.6427   72.2789    1.8521 C   0  0  2  0  0  0  0  0  0  0  0  0
   26.2984   70.0749    1.8740 H   0  0  0  0  0  0  0  0  0  0  0  0
   24.1962   69.3004    3.1073 H   0  0  0  0  0  0  0  0  0  0  0  0
   22.8444   72.5302    4.5495 O   0  0  0  0  0  0  0  0  0  0  0  0
   18.7073   74.1788    3.3620 O   0  0  0  0  0  0  0  0  0  0  0  0
   22.3625   72.7710    2.2761 N   0  0  0  0  0  0  0  0  0  0  0  0
   20.7843   73.3501    3.9555 N   0  0  0  0  0  0  0  0  0  0  0  0
   22.0612   72.8574    3.6559 C   0  0  0  0  0  0  0  0  0  0  0  0
   21.4223   73.1631    1.3310 C   0  0  0  0  0  0  0  0  0  0  0  0
   20.2093   73.6309    1.6318 C   0  0  0  0  0  0  0  0  0  0  0  0
   19.8150   73.7519    3.0507 C   0  0  0  0  0  0  0  0  0  0  0  0
   20.5508   73.4174    4.9096 H   0  0  0  0  0  0  0  0  0  0  0  0
   21.7290   72.1667   -3.9269 O   0  0  0  0  0  0  0  0  0  0  0  0
   20.2551   72.7969   -3.7170 P   0  0  2  0  0  0  0  0  0  0  0  0
   20.5164   74.3911   -3.8200 O   0  0  0  0  0  0  0  0  0  0  0  0
   19.5741   72.3624   -2.4515 O   0  0  0  0  0  0  0  0  0  0  0  0
   19.4556   72.4272   -5.0685 O   0  0  0  0  0  0  0  0  0  0  0  0
   18.8660   70.1432   -5.2798 O   0  0  0  0  0  0  0  0  0  0  0  0
   17.9822   71.5914   -9.0466 O   0  0  0  0  0  0  0  0  0  0  0  0
   20.4243   72.4230   -7.6757 O   0  0  0  0  0  0  0  0  0  0  0  0
   15.8431   71.0350   -7.1584 O   0  0  0  0  0  0  0  0  0  0  0  0
   18.1244   71.6520   -7.6275 C   0  0  2  0  0  0  0  0  0  0  0  0
   19.5766   71.3640   -7.2459 C   0  0  2  0  0  0  0  0  0  0  0  0
   17.1947   70.6027   -7.0138 C   0  0  1  0  0  0  0  0  0  0  0  0
   19.7212   71.1932   -5.7330 C   0  0  1  0  0  0  0  0  0  0  0  0
   17.4859   70.4002   -5.5297 C   0  0  1  0  0  0  0  0  0  0  0  0
   18.5639   72.2497   -9.4585 H   0  0  0  0  0  0  0  0  0  0  0  0
   20.3374   72.5371   -8.6348 H   0  0  0  0  0  0  0  0  0  0  0  0
   15.6449   71.1677   -8.0985 H   0  0  0  0  0  0  0  0  0  0  0  0
   16.9375   69.0747   -3.6739 O   0  0  0  0  0  0  0  0  0  0  0  0
   16.2375   68.3441   -5.7173 O   0  0  0  0  0  0  0  0  0  0  0  0
   16.8172   69.1645   -5.0217 C   0  0  0  0  0  0  0  0  0  0  0  0
  1  4  1  0
  1 24  1  0
  1  2  1  6
  1  3  2  0
 25 28  1  0
 25 24  1  0
 25 26  1  1
 25 27  2  0
  6 11  1  0
  6 12  1  0
 29 36  1  0
 29 37  1  0
  9  7  1  1
  7 13  1  0
 10  8  1  1
  8 14  1  0
  4  5  1  0
 36 28  1  1
 33 30  1  6
 30 38  1  0
 34 31  1  1
 31 39  1  0
 35 32  1  1
 32 40  1  0
 41 43  1  0
 15 19  2  0
 42 43  2  0
 16 22  2  0
 12 17  1  6
 17 19  1  0
 17 20  1  0
 18 19  1  0
 18 22  1  0
 18 23  1  0
  9 10  1  0
  9 11  1  0
 10 12  1  0
 11  5  1  6
 33 34  1  0
 33 35  1  0
 34 36  1  0
 35 37  1  0
 37 43  1  6
 20 21  2  0
 21 22  1  0
M  CHG  3   2  -1  26  -1  41  -1
M  END
>  <COMPND>  (118) 
    udp_gluA.pdb 

>  <AUTHOR>  (118) 
    GENERATED BY OPEN BABEL 3.1.1

>  <MASTER>  (118) 
        0    0    0    0    0    0    0    0   56    0   56    0

>  <minimizedAffinity>  (118) 
-6.82240

>  <CNNscore>  (118) 
0.3890557885

>  <CNNaffinity>  (118) 
4.0956864357

>  <CNN_VS>  (118) 
1.5934505463

>  <CNNaffinity_variance>  (118) 
0.0428152308

$$$$
119
     RDKit          3D

 43 45  0  0  0  0  0  0  0  0999 V2000
   17.5093   69.2916   -2.7872 P   0  0  2  0  0  0  0  0  0  0  0  0
   18.3116   68.0381   -3.4226 O   0  0  0  0  0  0  0  0  0  0  0  0
   16.3048   68.9248   -1.9708 O   0  0  0  0  0  0  0  0  0  0  0  0
   17.2311   70.2577   -4.0549 O   0  0  0  0  0  0  0  0  0  0  0  0
   16.9798   69.6638   -5.3153 C   0  0  0  0  0  0  0  0  0  0  0  0
   17.3166   71.9110   -6.0990 O   0  0  0  0  0  0  0  0  0  0  0  0
   15.7193   71.1122   -8.5077 O   0  0  0  0  0  0  0  0  0  0  0  0
   18.2842   70.9874   -9.4254 O   0  0  0  0  0  0  0  0  0  0  0  0
   16.6494   70.3434   -7.7446 C   0  0  1  0  0  0  0  0  0  0  0  0
   18.0659   70.7858   -8.0447 C   0  0  2  0  0  0  0  0  0  0  0  0
   16.4959   70.7371   -6.2819 C   0  0  1  0  0  0  0  0  0  0  0  0
   18.1716   72.0713   -7.2421 C   0  0  2  0  0  0  0  0  0  0  0  0
   15.7988   70.8781   -9.4461 H   0  0  0  0  0  0  0  0  0  0  0  0
   18.2064   70.1401   -9.8922 H   0  0  0  0  0  0  0  0  0  0  0  0
   19.0659   74.5511   -6.2287 O   0  0  0  0  0  0  0  0  0  0  0  0
   23.3297   72.9404   -5.5432 O   0  0  0  0  0  0  0  0  0  0  0  0
   19.5103   72.3276   -6.7917 N   0  0  0  0  0  0  0  0  0  0  0  0
   21.1889   73.7468   -5.8892 N   0  0  0  0  0  0  0  0  0  0  0  0
   19.8567   73.6086   -6.3004 C   0  0  0  0  0  0  0  0  0  0  0  0
   20.4629   71.3170   -6.8373 C   0  0  0  0  0  0  0  0  0  0  0  0
   21.7289   71.4638   -6.4417 C   0  0  0  0  0  0  0  0  0  0  0  0
   22.1726   72.7716   -5.9161 C   0  0  0  0  0  0  0  0  0  0  0  0
   21.4542   74.6304   -5.5453 H   0  0  0  0  0  0  0  0  0  0  0  0
   18.6593   70.0833   -1.9725 O   0  0  0  0  0  0  0  0  0  0  0  0
   20.0059   70.8187   -2.4820 P   0  0  2  0  0  0  0  0  0  0  0  0
   19.4474   72.1607   -3.1944 O   0  0  0  0  0  0  0  0  0  0  0  0
   20.8769   69.9686   -3.3610 O   0  0  0  0  0  0  0  0  0  0  0  0
   20.7219   71.3411   -1.1341 O   0  0  0  0  0  0  0  0  0  0  0  0
   22.8799   72.2853   -1.3804 O   0  0  0  0  0  0  0  0  0  0  0  0
   22.6405   71.7920    2.7144 O   0  0  0  0  0  0  0  0  0  0  0  0
   21.6642   69.7101    0.9124 O   0  0  0  0  0  0  0  0  0  0  0  0
   22.3388   74.4354    1.5430 O   0  0  0  0  0  0  0  0  0  0  0  0
   22.1407   72.0385    1.4001 C   0  0  2  0  0  0  0  0  0  0  0  0
   22.4363   70.8340    0.5059 C   0  0  2  0  0  0  0  0  0  0  0  0
   22.8363   73.2885    0.8564 C   0  0  1  0  0  0  0  0  0  0  0  0
   22.1244   71.1496   -0.9576 C   0  0  1  0  0  0  0  0  0  0  0  0
   22.5784   73.4643   -0.6373 C   0  0  1  0  0  0  0  0  0  0  0  0
   22.2127   71.0018    3.0803 H   0  0  0  0  0  0  0  0  0  0  0  0
   21.8569   69.5045    1.8403 H   0  0  0  0  0  0  0  0  0  0  0  0
   22.4966   74.3361    2.4949 H   0  0  0  0  0  0  0  0  0  0  0  0
   23.9902   74.0515   -2.4160 O   0  0  0  0  0  0  0  0  0  0  0  0
   23.8022   75.5426   -0.7012 O   0  0  0  0  0  0  0  0  0  0  0  0
   23.5099   74.4761   -1.2210 C   0  0  0  0  0  0  0  0  0  0  0  0
  1  4  1  0
  1 24  1  0
  1  2  1  6
  1  3  2  0
 25 28  1  0
 25 24  1  0
 25 26  1  6
 25 27  2  0
  6 11  1  0
  6 12  1  0
 29 36  1  0
 29 37  1  0
  9  7  1  6
  7 13  1  0
 10  8  1  6
  8 14  1  0
  4  5  1  0
 36 28  1  1
 33 30  1  1
 30 38  1  0
 34 31  1  1
 31 39  1  0
 35 32  1  1
 32 40  1  0
 41 43  1  0
 15 19  2  0
 42 43  2  0
 16 22  2  0
 12 17  1  1
 17 19  1  0
 17 20  1  0
 18 19  1  0
 18 22  1  0
 18 23  1  0
  9 10  1  0
  9 11  1  0
 10 12  1  0
 11  5  1  1
 33 34  1  0
 33 35  1  0
 34 36  1  0
 35 37  1  0
 37 43  1  6
 20 21  2  0
 21 22  1  0
M  CHG  3   2  -1  26  -1  41  -1
M  END
>  <COMPND>  (119) 
    udp_gluA.pdb 

>  <AUTHOR>  (119) 
    GENERATED BY OPEN BABEL 3.1.1

>  <MASTER>  (119) 
        0    0    0    0    0    0    0    0   56    0   56    0

>  <minimizedAffinity>  (119) 
-7.01396

>  <CNNscore>  (119) 
0.3835971057

>  <CNNaffinity>  (119) 
4.0896019936

>  <CNN_VS>  (119) 
1.5687594414

>  <CNNaffinity_variance>  (119) 
0.3254652917

$$$$
120
     RDKit          3D

 43 45  0  0  0  0  0  0  0  0999 V2000
   19.0897   73.1984   -3.0164 P   0  0  2  0  0  0  0  0  0  0  0  0
   19.1839   74.7122   -2.4522 O   0  0  0  0  0  0  0  0  0  0  0  0
   17.7484   72.8091   -3.5651 O   0  0  0  0  0  0  0  0  0  0  0  0
   19.6379   72.2929   -1.7927 O   0  0  0  0  0  0  0  0  0  0  0  0
   20.3179   72.9338   -0.7290 C   0  0  0  0  0  0  0  0  0  0  0  0
   20.8941   70.7762    0.1598 O   0  0  0  0  0  0  0  0  0  0  0  0
   20.5445   72.0065    2.8719 O   0  0  0  0  0  0  0  0  0  0  0  0
   23.2542   72.0001    2.5653 O   0  0  0  0  0  0  0  0  0  0  0  0
   21.0681   72.5868    1.6771 C   0  0  1  0  0  0  0  0  0  0  0  0
   22.4576   72.0530    1.4003 C   0  0  2  0  0  0  0  0  0  0  0  0
   20.2747   72.0354    0.5003 C   0  0  1  0  0  0  0  0  0  0  0  0
   22.1591   70.6757    0.8330 C   0  0  2  0  0  0  0  0  0  0  0  0
   21.0358   72.3439    3.6378 H   0  0  0  0  0  0  0  0  0  0  0  0
   23.4163   72.9012    2.8873 H   0  0  0  0  0  0  0  0  0  0  0  0
   24.5704   69.3893    1.5450 O   0  0  0  0  0  0  0  0  0  0  0  0
   25.9052   69.0573   -2.8542 O   0  0  0  0  0  0  0  0  0  0  0  0
   23.1546   70.2424   -0.1062 N   0  0  0  0  0  0  0  0  0  0  0  0
   25.2334   69.2261   -0.6467 N   0  0  0  0  0  0  0  0  0  0  0  0
   24.3310   69.6059    0.3556 C   0  0  0  0  0  0  0  0  0  0  0  0
   22.9604   70.4472   -1.4668 C   0  0  0  0  0  0  0  0  0  0  0  0
   23.8296   70.0795   -2.4102 C   0  0  0  0  0  0  0  0  0  0  0  0
   25.0846   69.4089   -2.0120 C   0  0  0  0  0  0  0  0  0  0  0  0
   26.0608   68.7830   -0.3494 H   0  0  0  0  0  0  0  0  0  0  0  0
   20.2994   73.1340   -4.0865 O   0  0  0  0  0  0  0  0  0  0  0  0
   20.4022   73.6759   -5.6062 P   0  0  2  0  0  0  0  0  0  0  0  0
   21.8948   73.2383   -6.0547 O   0  0  0  0  0  0  0  0  0  0  0  0
   20.1157   75.1417   -5.7580 O   0  0  0  0  0  0  0  0  0  0  0  0
   19.4238   72.7114   -6.4517 O   0  0  0  0  0  0  0  0  0  0  0  0
   18.7807   70.5056   -5.8769 O   0  0  0  0  0  0  0  0  0  0  0  0
   18.4486   70.4323   -9.9943 O   0  0  0  0  0  0  0  0  0  0  0  0
   20.7217   71.7481   -8.7152 O   0  0  0  0  0  0  0  0  0  0  0  0
   16.0631   70.5915   -8.3405 O   0  0  0  0  0  0  0  0  0  0  0  0
   18.4076   71.0198   -8.6938 C   0  0  2  0  0  0  0  0  0  0  0  0
   19.7861   70.9146   -8.0410 C   0  0  2  0  0  0  0  0  0  0  0  0
   17.3672   70.2627   -7.8655 C   0  0  1  0  0  0  0  0  0  0  0  0
   19.7265   71.3223   -6.5683 C   0  0  1  0  0  0  0  0  0  0  0  0
   17.4555   70.6323   -6.3876 C   0  0  1  0  0  0  0  0  0  0  0  0
   19.1033   70.8973  -10.5388 H   0  0  0  0  0  0  0  0  0  0  0  0
   20.7644   71.4950   -9.6503 H   0  0  0  0  0  0  0  0  0  0  0  0
   15.9937   70.3613   -9.2802 H   0  0  0  0  0  0  0  0  0  0  0  0
   16.3060   68.5901   -6.2874 O   0  0  0  0  0  0  0  0  0  0  0  0
   16.4174   69.8163   -4.3682 O   0  0  0  0  0  0  0  0  0  0  0  0
   16.6803   69.6663   -5.5520 C   0  0  0  0  0  0  0  0  0  0  0  0
  1  4  1  0
  1 24  1  0
  1  2  1  1
  1  3  2  0
 25 28  1  0
 25 24  1  0
 25 26  1  6
 25 27  2  0
  6 11  1  0
  6 12  1  0
 29 36  1  0
 29 37  1  0
  9  7  1  1
  7 13  1  0
 10  8  1  1
  8 14  1  0
  4  5  1  0
 36 28  1  6
 33 30  1  6
 30 38  1  0
 34 31  1  6
 31 39  1  0
 35 32  1  6
 32 40  1  0
 41 43  1  0
 15 19  2  0
 42 43  2  0
 16 22  2  0
 12 17  1  6
 17 19  1  0
 17 20  1  0
 18 19  1  0
 18 22  1  0
 18 23  1  0
  9 10  1  0
  9 11  1  0
 10 12  1  0
 11  5  1  6
 33 34  1  0
 33 35  1  0
 34 36  1  0
 35 37  1  0
 37 43  1  1
 20 21  2  0
 21 22  1  0
M  CHG  3   2  -1  26  -1  41  -1
M  END
>  <COMPND>  (120) 
    udp_gluA.pdb 

>  <AUTHOR>  (120) 
    GENERATED BY OPEN BABEL 3.1.1

>  <MASTER>  (120) 
        0    0    0    0    0    0    0    0   56    0   56    0

>  <minimizedAffinity>  (120) 
-8.11259

>  <CNNscore>  (120) 
0.3514820635

>  <CNNaffinity>  (120) 
4.1346316338

>  <CNN_VS>  (120) 
1.4532488585

>  <CNNaffinity_variance>  (120) 
0.2275960445

$$$$
121
     RDKit          3D

 43 45  0  0  0  0  0  0  0  0999 V2000
   23.0890   71.4023   -2.2488 P   0  0  2  0  0  0  0  0  0  0  0  0
   22.9129   72.9843   -2.5406 O   0  0  0  0  0  0  0  0  0  0  0  0
   24.3056   70.7760   -2.8647 O   0  0  0  0  0  0  0  0  0  0  0  0
   21.6695   70.7651   -2.6927 O   0  0  0  0  0  0  0  0  0  0  0  0
   21.0410   71.2616   -3.8601 C   0  0  0  0  0  0  0  0  0  0  0  0
   18.9349   71.9697   -4.7769 O   0  0  0  0  0  0  0  0  0  0  0  0
   17.6676   70.6396   -2.4070 O   0  0  0  0  0  0  0  0  0  0  0  0
   17.2953   68.8049   -4.3897 O   0  0  0  0  0  0  0  0  0  0  0  0
   18.8171   70.2458   -3.1568 C   0  0  1  0  0  0  0  0  0  0  0  0
   18.3996   69.6787   -4.4971 C   0  0  2  0  0  0  0  0  0  0  0  0
   19.5671   71.5067   -3.5639 C   0  0  1  0  0  0  0  0  0  0  0  0
   18.0755   70.9367   -5.2846 C   0  0  2  0  0  0  0  0  0  0  0  0
   17.1722   69.8506   -2.1357 H   0  0  0  0  0  0  0  0  0  0  0  0
   17.5525   68.0198   -3.8804 H   0  0  0  0  0  0  0  0  0  0  0  0
   16.1991   69.8835   -7.1139 O   0  0  0  0  0  0  0  0  0  0  0  0
   19.1029   70.3796  -10.6588 O   0  0  0  0  0  0  0  0  0  0  0  0
   18.3150   70.7795   -6.6913 N   0  0  0  0  0  0  0  0  0  0  0  0
   17.6475   70.1307   -8.8776 N   0  0  0  0  0  0  0  0  0  0  0  0
   17.3057   70.2398   -7.5232 C   0  0  0  0  0  0  0  0  0  0  0  0
   19.5368   71.1591   -7.2335 C   0  0  0  0  0  0  0  0  0  0  0  0
   19.8480   71.0491   -8.5265 C   0  0  0  0  0  0  0  0  0  0  0  0
   18.8493   70.4940   -9.4634 C   0  0  0  0  0  0  0  0  0  0  0  0
   16.9615   69.7558   -9.4761 H   0  0  0  0  0  0  0  0  0  0  0  0
   23.0343   71.3227   -0.6352 O   0  0  0  0  0  0  0  0  0  0  0  0
   21.7878   71.4124    0.3903 P   0  0  2  0  0  0  0  0  0  0  0  0
   21.5493   69.8696    0.8183 O   0  0  0  0  0  0  0  0  0  0  0  0
   20.5739   72.0923   -0.1738 O   0  0  0  0  0  0  0  0  0  0  0  0
   22.3940   72.1124    1.7112 O   0  0  0  0  0  0  0  0  0  0  0  0
   21.2252   74.0591    2.3846 O   0  0  0  0  0  0  0  0  0  0  0  0
   24.5278   74.1614    4.8646 O   0  0  0  0  0  0  0  0  0  0  0  0
   24.8132   73.4431    2.0473 O   0  0  0  0  0  0  0  0  0  0  0  0
   21.9421   73.3428    5.9110 O   0  0  0  0  0  0  0  0  0  0  0  0
   23.5016   73.5464    4.0857 C   0  0  2  0  0  0  0  0  0  0  0  0
   23.6329   73.9863    2.6274 C   0  0  2  0  0  0  0  0  0  0  0  0
   22.1499   73.9844    4.6541 C   0  0  1  0  0  0  0  0  0  0  0  0
   22.4225   73.5352    1.8088 C   0  0  1  0  0  0  0  0  0  0  0  0
   21.0041   73.6083    3.7191 C   0  0  1  0  0  0  0  0  0  0  0  0
   25.3962   73.8975    4.5217 H   0  0  0  0  0  0  0  0  0  0  0  0
   25.5852   73.7251    2.5620 H   0  0  0  0  0  0  0  0  0  0  0  0
   22.6647   73.5739    6.5154 H   0  0  0  0  0  0  0  0  0  0  0  0
   20.0104   75.3013    5.0027 O   0  0  0  0  0  0  0  0  0  0  0  0
   18.6329   74.0524    3.6830 O   0  0  0  0  0  0  0  0  0  0  0  0
   19.7474   74.3163    4.1085 C   0  0  0  0  0  0  0  0  0  0  0  0
  1  4  1  0
  1 24  1  0
  1  2  1  1
  1  3  2  0
 25 28  1  0
 25 24  1  0
 25 26  1  1
 25 27  2  0
  6 11  1  0
  6 12  1  0
 29 36  1  0
 29 37  1  0
  9  7  1  1
  7 13  1  0
 10  8  1  1
  8 14  1  0
  4  5  1  0
 36 28  1  1
 33 30  1  1
 30 38  1  0
 34 31  1  6
 31 39  1  0
 35 32  1  1
 32 40  1  0
 41 43  1  0
 15 19  2  0
 42 43  2  0
 16 22  2  0
 12 17  1  6
 17 19  1  0
 17 20  1  0
 18 19  1  0
 18 22  1  0
 18 23  1  0
  9 10  1  0
  9 11  1  0
 10 12  1  0
 11  5  1  6
 33 34  1  0
 33 35  1  0
 34 36  1  0
 35 37  1  0
 37 43  1  1
 20 21  2  0
 21 22  1  0
M  CHG  3   2  -1  26  -1  41  -1
M  END
>  <COMPND>  (121) 
    udp_gluA.pdb 

>  <AUTHOR>  (121) 
    GENERATED BY OPEN BABEL 3.1.1

>  <MASTER>  (121) 
        0    0    0    0    0    0    0    0   56    0   56    0

>  <minimizedAffinity>  (121) 
-7.29004

>  <CNNscore>  (121) 
0.8798741698

>  <CNNaffinity>  (121) 
4.6474390030

>  <CNN_VS>  (121) 
4.0891613960

>  <CNNaffinity_variance>  (121) 
0.0355506837

$$$$
122
     RDKit          3D

 43 45  0  0  0  0  0  0  0  0999 V2000
   22.5019   71.9668   -3.1347 P   0  0  2  0  0  0  0  0  0  0  0  0
   22.1463   73.5365   -2.9669 O   0  0  0  0  0  0  0  0  0  0  0  0
   23.9079   71.6790   -3.5732 O   0  0  0  0  0  0  0  0  0  0  0  0
   21.3347   71.4054   -4.1044 O   0  0  0  0  0  0  0  0  0  0  0  0
   20.5352   70.3299   -3.6477 C   0  0  0  0  0  0  0  0  0  0  0  0
   18.7078   71.4990   -4.6827 O   0  0  0  0  0  0  0  0  0  0  0  0
   16.9580   70.2139   -2.6143 O   0  0  0  0  0  0  0  0  0  0  0  0
   16.5068   68.6721   -4.8178 O   0  0  0  0  0  0  0  0  0  0  0  0
   18.1011   69.6844   -3.2863 C   0  0  1  0  0  0  0  0  0  0  0  0
   17.7515   69.3315   -4.7165 C   0  0  2  0  0  0  0  0  0  0  0  0
   19.1023   70.8162   -3.4730 C   0  0  1  0  0  0  0  0  0  0  0  0
   17.7470   70.6953   -5.3858 C   0  0  2  0  0  0  0  0  0  0  0  0
   16.3039   69.5090   -2.4838 H   0  0  0  0  0  0  0  0  0  0  0  0
   16.5613   67.8091   -4.3770 H   0  0  0  0  0  0  0  0  0  0  0  0
   15.9752   70.0310   -7.4825 O   0  0  0  0  0  0  0  0  0  0  0  0
   19.2844   70.4652  -10.6613 O   0  0  0  0  0  0  0  0  0  0  0  0
   18.1191   70.6274   -6.7706 N   0  0  0  0  0  0  0  0  0  0  0  0
   17.6253   70.2469   -9.0636 N   0  0  0  0  0  0  0  0  0  0  0  0
   17.1525   70.2840   -7.7452 C   0  0  0  0  0  0  0  0  0  0  0  0
   19.4272   70.9005   -7.1515 C   0  0  0  0  0  0  0  0  0  0  0  0
   19.8630   70.8612   -8.4122 C   0  0  0  0  0  0  0  0  0  0  0  0
   18.9166   70.5100   -9.4912 C   0  0  0  0  0  0  0  0  0  0  0  0
   16.9711   70.0083   -9.7595 H   0  0  0  0  0  0  0  0  0  0  0  0
   22.1061   71.3490   -1.6944 O   0  0  0  0  0  0  0  0  0  0  0  0
   23.0125   70.6438   -0.5565 P   0  0  2  0  0  0  0  0  0  0  0  0
   21.9158   70.0638    0.4832 O   0  0  0  0  0  0  0  0  0  0  0  0
   24.0354   71.5500    0.0652 O   0  0  0  0  0  0  0  0  0  0  0  0
   23.6253   69.3353   -1.2740 O   0  0  0  0  0  0  0  0  0  0  0  0
   24.6252   67.6642    0.0738 O   0  0  0  0  0  0  0  0  0  0  0  0
   26.0224   66.6619   -3.6827 O   0  0  0  0  0  0  0  0  0  0  0  0
   25.9230   69.4563   -2.8367 O   0  0  0  0  0  0  0  0  0  0  0  0
   23.8972   65.1055   -2.4531 O   0  0  0  0  0  0  0  0  0  0  0  0
   25.0891   67.1803   -2.7350 C   0  0  2  0  0  0  0  0  0  0  0  0
   25.7258   68.3428   -1.9730 C   0  0  2  0  0  0  0  0  0  0  0  0
   24.7181   66.0515   -1.7706 C   0  0  1  0  0  0  0  0  0  0  0  0
   24.8469   68.7735   -0.7979 C   0  0  1  0  0  0  0  0  0  0  0  0
   23.9511   66.5807   -0.5622 C   0  0  1  0  0  0  0  0  0  0  0  0
   26.2728   67.3618   -4.3062 H   0  0  0  0  0  0  0  0  0  0  0  0
   26.4797   69.1901   -3.5847 H   0  0  0  0  0  0  0  0  0  0  0  0
   24.3737   64.7610   -3.2246 H   0  0  0  0  0  0  0  0  0  0  0  0
   24.5521   65.9646    1.6197 O   0  0  0  0  0  0  0  0  0  0  0  0
   23.3036   64.4767    0.4254 O   0  0  0  0  0  0  0  0  0  0  0  0
   23.8827   65.5488    0.5161 C   0  0  0  0  0  0  0  0  0  0  0  0
  1  4  1  0
  1 24  1  0
  1  2  1  1
  1  3  2  0
 25 28  1  0
 25 24  1  0
 25 26  1  1
 25 27  2  0
  6 11  1  0
  6 12  1  0
 29 36  1  0
 29 37  1  0
  9  7  1  1
  7 13  1  0
 10  8  1  1
  8 14  1  0
  4  5  1  0
 36 28  1  6
 33 30  1  6
 30 38  1  0
 34 31  1  6
 31 39  1  0
 35 32  1  6
 32 40  1  0
 41 43  1  0
 15 19  2  0
 42 43  2  0
 16 22  2  0
 12 17  1  6
 17 19  1  0
 17 20  1  0
 18 19  1  0
 18 22  1  0
 18 23  1  0
  9 10  1  0
  9 11  1  0
 10 12  1  0
 11  5  1  6
 33 34  1  0
 33 35  1  0
 34 36  1  0
 35 37  1  0
 37 43  1  1
 20 21  2  0
 21 22  1  0
M  CHG  3   2  -1  26  -1  41  -1
M  END
>  <COMPND>  (122) 
    udp_gluA.pdb 

>  <AUTHOR>  (122) 
    GENERATED BY OPEN BABEL 3.1.1

>  <MASTER>  (122) 
        0    0    0    0    0    0    0    0   56    0   56    0

>  <minimizedAffinity>  (122) 
-9.52234

>  <CNNscore>  (122) 
0.8162882924

>  <CNNaffinity>  (122) 
5.0108661652

>  <CNN_VS>  (122) 
4.0903115273

>  <CNNaffinity_variance>  (122) 
0.0395801589

$$$$
123
     RDKit          3D

 43 45  0  0  0  0  0  0  0  0999 V2000
   21.4973   72.2185   -2.1220 P   0  0  2  0  0  0  0  0  0  0  0  0
   21.9190   70.7021   -2.4982 O   0  0  0  0  0  0  0  0  0  0  0  0
   21.9735   72.6943   -0.7809 O   0  0  0  0  0  0  0  0  0  0  0  0
   19.8954   72.2437   -2.3483 O   0  0  0  0  0  0  0  0  0  0  0  0
   19.4010   72.4291   -3.6620 C   0  0  0  0  0  0  0  0  0  0  0  0
   17.4351   72.2661   -5.0354 O   0  0  0  0  0  0  0  0  0  0  0  0
   16.2542   70.6192   -2.8253 O   0  0  0  0  0  0  0  0  0  0  0  0
   17.0141   68.7280   -4.6369 O   0  0  0  0  0  0  0  0  0  0  0  0
   17.6017   70.6684   -3.2946 C   0  0  1  0  0  0  0  0  0  0  0  0
   17.7208   69.9506   -4.6224 C   0  0  2  0  0  0  0  0  0  0  0  0
   17.9121   72.1078   -3.6816 C   0  0  1  0  0  0  0  0  0  0  0  0
   17.1418   70.9722   -5.5862 C   0  0  2  0  0  0  0  0  0  0  0  0
   16.0327   69.7090   -2.5720 H   0  0  0  0  0  0  0  0  0  0  0  0
   17.4213   68.1116   -4.0074 H   0  0  0  0  0  0  0  0  0  0  0  0
   15.7249   70.2110   -7.9077 O   0  0  0  0  0  0  0  0  0  0  0  0
   19.4692   70.6526  -10.5590 O   0  0  0  0  0  0  0  0  0  0  0  0
   17.7218   70.8800   -6.8961 N   0  0  0  0  0  0  0  0  0  0  0  0
   17.5914   70.4307   -9.2258 N   0  0  0  0  0  0  0  0  0  0  0  0
   16.9226   70.4879   -7.9959 C   0  0  0  0  0  0  0  0  0  0  0  0
   19.0664   71.1775   -7.0818 C   0  0  0  0  0  0  0  0  0  0  0  0
   19.6898   71.1186   -8.2602 C   0  0  0  0  0  0  0  0  0  0  0  0
   18.9267   70.7166   -9.4600 C   0  0  0  0  0  0  0  0  0  0  0  0
   17.0561   70.1581  -10.0059 H   0  0  0  0  0  0  0  0  0  0  0  0
   22.0550   73.0720   -3.3763 O   0  0  0  0  0  0  0  0  0  0  0  0
   23.5333   73.6408   -3.6998 P   0  0  2  0  0  0  0  0  0  0  0  0
   24.3646   72.3083   -4.0921 O   0  0  0  0  0  0  0  0  0  0  0  0
   24.1415   74.4437   -2.5865 O   0  0  0  0  0  0  0  0  0  0  0  0
   23.3684   74.4419   -5.0903 O   0  0  0  0  0  0  0  0  0  0  0  0
   21.5973   75.4811   -6.2702 O   0  0  0  0  0  0  0  0  0  0  0  0
   23.5884   73.5109   -9.3069 O   0  0  0  0  0  0  0  0  0  0  0  0
   23.1544   72.2053   -6.7298 O   0  0  0  0  0  0  0  0  0  0  0  0
   23.8703   76.3883   -9.0038 O   0  0  0  0  0  0  0  0  0  0  0  0
   23.4647   74.2062   -8.0663 C   0  0  2  0  0  0  0  0  0  0  0  0
   22.5410   73.4247   -7.1316 C   0  0  2  0  0  0  0  0  0  0  0  0
   22.8808   75.5907   -8.3563 C   0  0  1  0  0  0  0  0  0  0  0  0
   22.2013   74.2452   -5.8865 C   0  0  1  0  0  0  0  0  0  0  0  0
   22.4509   76.2942   -7.0723 C   0  0  1  0  0  0  0  0  0  0  0  0
   23.9576   72.6279   -9.1475 H   0  0  0  0  0  0  0  0  0  0  0  0
   23.3729   71.6798   -7.5150 H   0  0  0  0  0  0  0  0  0  0  0  0
   24.1526   75.9516   -9.8226 H   0  0  0  0  0  0  0  0  0  0  0  0
   20.9369   77.8945   -6.2671 O   0  0  0  0  0  0  0  0  0  0  0  0
   21.4966   78.0102   -8.4744 O   0  0  0  0  0  0  0  0  0  0  0  0
   21.5946   77.4798   -7.3780 C   0  0  0  0  0  0  0  0  0  0  0  0
  1  4  1  0
  1 24  1  0
  1  2  1  6
  1  3  2  0
 25 28  1  0
 25 24  1  0
 25 26  1  6
 25 27  2  0
  6 11  1  0
  6 12  1  0
 29 36  1  0
 29 37  1  0
  9  7  1  6
  7 13  1  0
 10  8  1  1
  8 14  1  0
  4  5  1  0
 36 28  1  6
 33 30  1  6
 30 38  1  0
 34 31  1  1
 31 39  1  0
 35 32  1  1
 32 40  1  0
 41 43  1  0
 15 19  2  0
 42 43  2  0
 16 22  2  0
 12 17  1  6
 17 19  1  0
 17 20  1  0
 18 19  1  0
 18 22  1  0
 18 23  1  0
  9 10  1  0
  9 11  1  0
 10 12  1  0
 11  5  1  6
 33 34  1  0
 33 35  1  0
 34 36  1  0
 35 37  1  0
 37 43  1  6
 20 21  2  0
 21 22  1  0
M  CHG  3   2  -1  26  -1  41  -1
M  END
>  <COMPND>  (123) 
    udp_gluA.pdb 

>  <AUTHOR>  (123) 
    GENERATED BY OPEN BABEL 3.1.1

>  <MASTER>  (123) 
        0    0    0    0    0    0    0    0   56    0   56    0

>  <minimizedAffinity>  (123) 
-6.86973

>  <CNNscore>  (123) 
0.7994502783

>  <CNNaffinity>  (123) 
4.5987982750

>  <CNN_VS>  (123) 
3.6765105724

>  <CNNaffinity_variance>  (123) 
0.1895357966

$$$$
124
     RDKit          3D

 43 45  0  0  0  0  0  0  0  0999 V2000
   21.5529   73.6525   -2.0797 P   0  0  2  0  0  0  0  0  0  0  0  0
   21.9901   72.0946   -2.0575 O   0  0  0  0  0  0  0  0  0  0  0  0
   20.7661   74.1068   -0.8854 O   0  0  0  0  0  0  0  0  0  0  0  0
   20.8217   73.8305   -3.5120 O   0  0  0  0  0  0  0  0  0  0  0  0
   20.3943   72.6702   -4.2017 C   0  0  0  0  0  0  0  0  0  0  0  0
   18.2235   72.5496   -5.2267 O   0  0  0  0  0  0  0  0  0  0  0  0
   17.3167   71.1915   -2.7119 O   0  0  0  0  0  0  0  0  0  0  0  0
   17.6452   69.1016   -4.4325 O   0  0  0  0  0  0  0  0  0  0  0  0
   18.5694   71.0944   -3.3900 C   0  0  1  0  0  0  0  0  0  0  0  0
   18.4225   70.2613   -4.6457 C   0  0  2  0  0  0  0  0  0  0  0  0
   18.9047   72.4675   -3.9561 C   0  0  1  0  0  0  0  0  0  0  0  0
   17.7607   71.2417   -5.5990 C   0  0  2  0  0  0  0  0  0  0  0  0
   17.0813   70.3260   -2.3415 H   0  0  0  0  0  0  0  0  0  0  0  0
   18.1093   68.5096   -3.8193 H   0  0  0  0  0  0  0  0  0  0  0  0
   15.9275   70.4485   -7.5956 O   0  0  0  0  0  0  0  0  0  0  0  0
   19.2162   70.3231  -10.8225 O   0  0  0  0  0  0  0  0  0  0  0  0
   18.1110   70.9950   -6.9691 N   0  0  0  0  0  0  0  0  0  0  0  0
   17.5674   70.3858   -9.2007 N   0  0  0  0  0  0  0  0  0  0  0  0
   17.1140   70.6003   -7.8924 C   0  0  0  0  0  0  0  0  0  0  0  0
   19.4278   71.1457   -7.3864 C   0  0  0  0  0  0  0  0  0  0  0  0
   19.8448   70.9377   -8.6368 C   0  0  0  0  0  0  0  0  0  0  0  0
   18.8663   70.5222   -9.6631 C   0  0  0  0  0  0  0  0  0  0  0  0
   16.8919   70.1083   -9.8610 H   0  0  0  0  0  0  0  0  0  0  0  0
   22.9591   74.4210   -2.2916 O   0  0  0  0  0  0  0  0  0  0  0  0
   23.9560   75.1224   -1.2296 P   0  0  2  0  0  0  0  0  0  0  0  0
   22.9783   76.1130   -0.4030 O   0  0  0  0  0  0  0  0  0  0  0  0
   25.1409   75.8016   -1.8530 O   0  0  0  0  0  0  0  0  0  0  0  0
   24.3288   73.9522   -0.1836 O   0  0  0  0  0  0  0  0  0  0  0  0
   22.7666   73.1852    1.4227 O   0  0  0  0  0  0  0  0  0  0  0  0
   26.3419   71.9044    3.0489 O   0  0  0  0  0  0  0  0  0  0  0  0
   26.1276   74.5594    1.8491 O   0  0  0  0  0  0  0  0  0  0  0  0
   24.5684   70.0053    1.7454 O   0  0  0  0  0  0  0  0  0  0  0  0
   25.4332   72.2397    2.0002 C   0  0  2  0  0  0  0  0  0  0  0  0
   25.0230   73.7069    2.1281 C   0  0  2  0  0  0  0  0  0  0  0  0
   24.2081   71.3314    2.1276 C   0  0  1  0  0  0  0  0  0  0  0  0
   23.8807   74.0414    1.1677 C   0  0  1  0  0  0  0  0  0  0  0  0
   23.0680   71.8048    1.2307 C   0  0  1  0  0  0  0  0  0  0  0  0
   27.1285   72.4691    2.9882 H   0  0  0  0  0  0  0  0  0  0  0  0
   26.8562   74.3525    2.4546 H   0  0  0  0  0  0  0  0  0  0  0  0
   25.2934   69.6922    2.3086 H   0  0  0  0  0  0  0  0  0  0  0  0
   21.7165   69.8983    1.0302 O   0  0  0  0  0  0  0  0  0  0  0  0
   20.9207   71.6071    2.3130 O   0  0  0  0  0  0  0  0  0  0  0  0
   21.7878   71.1276    1.5981 C   0  0  0  0  0  0  0  0  0  0  0  0
  1  4  1  0
  1 24  1  0
  1  2  1  1
  1  3  2  0
 25 28  1  0
 25 24  1  0
 25 26  1  1
 25 27  2  0
  6 11  1  0
  6 12  1  0
 29 36  1  0
 29 37  1  0
  9  7  1  6
  7 13  1  0
 10  8  1  1
  8 14  1  0
  4  5  1  0
 36 28  1  6
 33 30  1  1
 30 38  1  0
 34 31  1  6
 31 39  1  0
 35 32  1  6
 32 40  1  0
 41 43  1  0
 15 19  2  0
 42 43  2  0
 16 22  2  0
 12 17  1  6
 17 19  1  0
 17 20  1  0
 18 19  1  0
 18 22  1  0
 18 23  1  0
  9 10  1  0
  9 11  1  0
 10 12  1  0
 11  5  1  6
 33 34  1  0
 33 35  1  0
 34 36  1  0
 35 37  1  0
 37 43  1  1
 20 21  2  0
 21 22  1  0
M  CHG  3   2  -1  26  -1  41  -1
M  END
>  <COMPND>  (124) 
    udp_gluA.pdb 

>  <AUTHOR>  (124) 
    GENERATED BY OPEN BABEL 3.1.1

>  <MASTER>  (124) 
        0    0    0    0    0    0    0    0   56    0   56    0

>  <minimizedAffinity>  (124) 
-6.87515

>  <CNNscore>  (124) 
0.7876564264

>  <CNNaffinity>  (124) 
4.4351916313

>  <CNN_VS>  (124) 
3.4934072495

>  <CNNaffinity_variance>  (124) 
0.1040818468

$$$$
125
     RDKit          3D

 43 45  0  0  0  0  0  0  0  0999 V2000
   23.0126   70.4981   -2.3792 P   0  0  2  0  0  0  0  0  0  0  0  0
   23.4767   71.6060   -3.4637 O   0  0  0  0  0  0  0  0  0  0  0  0
   23.7616   69.1992   -2.4402 O   0  0  0  0  0  0  0  0  0  0  0  0
   21.4115   70.3964   -2.5886 O   0  0  0  0  0  0  0  0  0  0  0  0
   20.8549   70.8854   -3.7951 C   0  0  0  0  0  0  0  0  0  0  0  0
   18.8666   71.8137   -4.7760 O   0  0  0  0  0  0  0  0  0  0  0  0
   17.3730   70.5154   -2.5232 O   0  0  0  0  0  0  0  0  0  0  0  0
   16.9378   68.7968   -4.5951 O   0  0  0  0  0  0  0  0  0  0  0  0
   18.5186   70.0481   -3.2358 C   0  0  1  0  0  0  0  0  0  0  0  0
   18.1187   69.5712   -4.6160 C   0  0  2  0  0  0  0  0  0  0  0  0
   19.3956   71.2508   -3.5560 C   0  0  1  0  0  0  0  0  0  0  0  0
   17.9454   70.8818   -5.3645 C   0  0  2  0  0  0  0  0  0  0  0  0
   16.7974   69.7645   -2.3075 H   0  0  0  0  0  0  0  0  0  0  0  0
   17.0998   67.9734   -4.1077 H   0  0  0  0  0  0  0  0  0  0  0  0
   16.0843   70.0380   -7.3141 O   0  0  0  0  0  0  0  0  0  0  0  0
   19.1800   70.4373  -10.7054 O   0  0  0  0  0  0  0  0  0  0  0  0
   18.2384   70.7563   -6.7643 N   0  0  0  0  0  0  0  0  0  0  0  0
   17.6282   70.2367   -9.0012 N   0  0  0  0  0  0  0  0  0  0  0  0
   17.2321   70.3239   -7.6601 C   0  0  0  0  0  0  0  0  0  0  0  0
   19.5090   71.0614   -7.2369 C   0  0  0  0  0  0  0  0  0  0  0  0
   19.8716   70.9735   -8.5182 C   0  0  0  0  0  0  0  0  0  0  0  0
   18.8798   70.5285   -9.5190 C   0  0  0  0  0  0  0  0  0  0  0  0
   16.9453   69.9358   -9.6434 H   0  0  0  0  0  0  0  0  0  0  0  0
   23.1460   71.2870   -0.9747 O   0  0  0  0  0  0  0  0  0  0  0  0
   22.8706   70.8051    0.5437 P   0  0  2  0  0  0  0  0  0  0  0  0
   24.1573   69.8816    0.8778 O   0  0  0  0  0  0  0  0  0  0  0  0
   21.5495   70.1202    0.7424 O   0  0  0  0  0  0  0  0  0  0  0  0
   23.0782   72.1315    1.4381 O   0  0  0  0  0  0  0  0  0  0  0  0
   24.6964   72.6412    3.0907 O   0  0  0  0  0  0  0  0  0  0  0  0
   21.3812   74.6564    4.5107 O   0  0  0  0  0  0  0  0  0  0  0  0
   21.1169   71.9660    3.4033 O   0  0  0  0  0  0  0  0  0  0  0  0
   23.5429   76.1213    3.2331 O   0  0  0  0  0  0  0  0  0  0  0  0
   22.2468   74.1100    3.5156 C   0  0  2  0  0  0  0  0  0  0  0  0
   22.3556   72.5970    3.7068 C   0  0  2  0  0  0  0  0  0  0  0  0
   23.6205   74.7663    3.6717 C   0  0  1  0  0  0  0  0  0  0  0  0
   23.4466   72.0093    2.8107 C   0  0  1  0  0  0  0  0  0  0  0  0
   24.6797   74.0453    2.8431 C   0  0  1  0  0  0  0  0  0  0  0  0
   20.5020   74.2540    4.4310 H   0  0  0  0  0  0  0  0  0  0  0  0
   20.4199   72.3343    3.9681 H   0  0  0  0  0  0  0  0  0  0  0  0
   22.8720   76.5914    3.7525 H   0  0  0  0  0  0  0  0  0  0  0  0
   26.7472   73.4294    3.7638 O   0  0  0  0  0  0  0  0  0  0  0  0
   26.4968   75.6060    3.1324 O   0  0  0  0  0  0  0  0  0  0  0  0
   26.0525   74.4737    3.2483 C   0  0  0  0  0  0  0  0  0  0  0  0
  1  4  1  0
  1 24  1  0
  1  2  1  6
  1  3  2  0
 25 28  1  0
 25 24  1  0
 25 26  1  1
 25 27  2  0
  6 11  1  0
  6 12  1  0
 29 36  1  0
 29 37  1  0
  9  7  1  1
  7 13  1  0
 10  8  1  1
  8 14  1  0
  4  5  1  0
 36 28  1  6
 33 30  1  1
 30 38  1  0
 34 31  1  6
 31 39  1  0
 35 32  1  6
 32 40  1  0
 41 43  1  0
 15 19  2  0
 42 43  2  0
 16 22  2  0
 12 17  1  6
 17 19  1  0
 17 20  1  0
 18 19  1  0
 18 22  1  0
 18 23  1  0
  9 10  1  0
  9 11  1  0
 10 12  1  0
 11  5  1  6
 33 34  1  0
 33 35  1  0
 34 36  1  0
 35 37  1  0
 37 43  1  1
 20 21  2  0
 21 22  1  0
M  CHG  3   2  -1  26  -1  41  -1
M  END
>  <COMPND>  (125) 
    udp_gluA.pdb 

>  <AUTHOR>  (125) 
    GENERATED BY OPEN BABEL 3.1.1

>  <MASTER>  (125) 
        0    0    0    0    0    0    0    0   56    0   56    0

>  <minimizedAffinity>  (125) 
-7.51570

>  <CNNscore>  (125) 
0.7810502648

>  <CNNaffinity>  (125) 
4.5948872566

>  <CNN_VS>  (125) 
3.5888378620

>  <CNNaffinity_variance>  (125) 
0.0818550438

$$$$
126
     RDKit          3D

 43 45  0  0  0  0  0  0  0  0999 V2000
   21.2344   73.0994   -1.9393 P   0  0  2  0  0  0  0  0  0  0  0  0
   20.5819   72.8090   -0.4872 O   0  0  0  0  0  0  0  0  0  0  0  0
   22.2628   74.1919   -1.9648 O   0  0  0  0  0  0  0  0  0  0  0  0
   19.9539   73.3173   -2.9041 O   0  0  0  0  0  0  0  0  0  0  0  0
   19.6437   72.3134   -3.8530 C   0  0  0  0  0  0  0  0  0  0  0  0
   17.6551   72.2153   -5.1997 O   0  0  0  0  0  0  0  0  0  0  0  0
   16.4147   70.7025   -2.9272 O   0  0  0  0  0  0  0  0  0  0  0  0
   17.0495   68.7189   -4.6874 O   0  0  0  0  0  0  0  0  0  0  0  0
   17.7571   70.6645   -3.4122 C   0  0  1  0  0  0  0  0  0  0  0  0
   17.8211   69.9014   -4.7183 C   0  0  2  0  0  0  0  0  0  0  0  0
   18.1396   72.0727   -3.8468 C   0  0  1  0  0  0  0  0  0  0  0  0
   17.2860   70.9232   -5.7070 C   0  0  2  0  0  0  0  0  0  0  0  0
   16.1478   69.8138   -2.6435 H   0  0  0  0  0  0  0  0  0  0  0  0
   17.4308   68.1008   -4.0435 H   0  0  0  0  0  0  0  0  0  0  0  0
   15.7796   70.3063   -8.0150 O   0  0  0  0  0  0  0  0  0  0  0  0
   19.5326   70.3204  -10.6907 O   0  0  0  0  0  0  0  0  0  0  0  0
   17.8441   70.7600   -7.0196 N   0  0  0  0  0  0  0  0  0  0  0  0
   17.6504   70.3130   -9.3453 N   0  0  0  0  0  0  0  0  0  0  0  0
   16.9998   70.4504   -8.1120 C   0  0  0  0  0  0  0  0  0  0  0  0
   19.2118   70.9080   -7.2150 C   0  0  0  0  0  0  0  0  0  0  0  0
   19.8175   70.7740   -8.3965 C   0  0  0  0  0  0  0  0  0  0  0  0
   19.0074   70.4500   -9.5891 C   0  0  0  0  0  0  0  0  0  0  0  0
   17.0836   70.0955  -10.1204 H   0  0  0  0  0  0  0  0  0  0  0  0
   21.7840   71.6468   -2.3873 O   0  0  0  0  0  0  0  0  0  0  0  0
   23.2263   70.9470   -2.1786 P   0  0  2  0  0  0  0  0  0  0  0  0
   24.1911   71.7847   -3.1725 O   0  0  0  0  0  0  0  0  0  0  0  0
   23.2316   69.4646   -2.4159 O   0  0  0  0  0  0  0  0  0  0  0  0
   23.6854   71.3895   -0.6968 O   0  0  0  0  0  0  0  0  0  0  0  0
   25.0434   70.5640    1.0591 O   0  0  0  0  0  0  0  0  0  0  0  0
   21.6253   71.6800    3.0936 O   0  0  0  0  0  0  0  0  0  0  0  0
   21.4362   70.3012    0.5250 O   0  0  0  0  0  0  0  0  0  0  0  0
   24.0137   73.3310    3.2375 O   0  0  0  0  0  0  0  0  0  0  0  0
   22.6146   71.7568    2.0673 C   0  0  2  0  0  0  0  0  0  0  0  0
   22.6351   70.4481    1.2772 C   0  0  2  0  0  0  0  0  0  0  0  0
   23.9707   71.9970    2.7346 C   0  0  1  0  0  0  0  0  0  0  0  0
   23.8299   70.4033    0.3236 C   0  0  1  0  0  0  0  0  0  0  0  0
   25.1185   71.8110    1.7465 C   0  0  1  0  0  0  0  0  0  0  0  0
   20.7549   71.5276    2.6932 H   0  0  0  0  0  0  0  0  0  0  0  0
   20.6739   70.3290    1.1238 H   0  0  0  0  0  0  0  0  0  0  0  0
   23.2881   73.4626    3.8676 H   0  0  0  0  0  0  0  0  0  0  0  0
   26.7103   72.8892    3.0901 O   0  0  0  0  0  0  0  0  0  0  0  0
   27.1456   70.7333    2.4887 O   0  0  0  0  0  0  0  0  0  0  0  0
   26.4263   71.7207    2.4634 C   0  0  0  0  0  0  0  0  0  0  0  0
  1  4  1  0
  1 24  1  0
  1  2  1  1
  1  3  2  0
 25 28  1  0
 25 24  1  0
 25 26  1  6
 25 27  2  0
  6 11  1  0
  6 12  1  0
 29 36  1  0
 29 37  1  0
  9  7  1  6
  7 13  1  0
 10  8  1  1
  8 14  1  0
  4  5  1  0
 36 28  1  6
 33 30  1  1
 30 38  1  0
 34 31  1  6
 31 39  1  0
 35 32  1  6
 32 40  1  0
 41 43  1  0
 15 19  2  0
 42 43  2  0
 16 22  2  0
 12 17  1  6
 17 19  1  0
 17 20  1  0
 18 19  1  0
 18 22  1  0
 18 23  1  0
  9 10  1  0
  9 11  1  0
 10 12  1  0
 11  5  1  6
 33 34  1  0
 33 35  1  0
 34 36  1  0
 35 37  1  0
 37 43  1  1
 20 21  2  0
 21 22  1  0
M  CHG  3   2  -1  26  -1  41  -1
M  END
>  <COMPND>  (126) 
    udp_gluA.pdb 

>  <AUTHOR>  (126) 
    GENERATED BY OPEN BABEL 3.1.1

>  <MASTER>  (126) 
        0    0    0    0    0    0    0    0   56    0   56    0

>  <minimizedAffinity>  (126) 
-7.65640

>  <CNNscore>  (126) 
0.7665351033

>  <CNNaffinity>  (126) 
4.5322179794

>  <CNN_VS>  (126) 
3.4741041660

>  <CNNaffinity_variance>  (126) 
0.0304497089

$$$$
127
     RDKit          3D

 43 45  0  0  0  0  0  0  0  0999 V2000
   16.9313   72.8976   -2.1857 P   0  0  2  0  0  0  0  0  0  0  0  0
   17.7432   73.4839   -0.9145 O   0  0  0  0  0  0  0  0  0  0  0  0
   15.9777   73.8620   -2.8279 O   0  0  0  0  0  0  0  0  0  0  0  0
   16.2761   71.5268   -1.6295 O   0  0  0  0  0  0  0  0  0  0  0  0
   15.0586   71.6023   -0.9108 C   0  0  0  0  0  0  0  0  0  0  0  0
   13.7026   69.7713   -1.6766 O   0  0  0  0  0  0  0  0  0  0  0  0
   11.7681   71.8502   -2.6397 O   0  0  0  0  0  0  0  0  0  0  0  0
   10.6277   71.0089   -0.3099 O   0  0  0  0  0  0  0  0  0  0  0  0
   12.5898   71.8524   -1.4721 C   0  0  1  0  0  0  0  0  0  0  0  0
   12.0303   70.9013   -0.4356 C   0  0  2  0  0  0  0  0  0  0  0  0
   13.9144   71.1916   -1.8287 C   0  0  1  0  0  0  0  0  0  0  0  0
   12.4669   69.5511   -0.9781 C   0  0  2  0  0  0  0  0  0  0  0  0
   10.9159   72.2675   -2.4365 H   0  0  0  0  0  0  0  0  0  0  0  0
   10.4007   71.8856    0.0392 H   0  0  0  0  0  0  0  0  0  0  0  0
   10.4588   67.8763    0.0892 O   0  0  0  0  0  0  0  0  0  0  0  0
   13.4153   65.8881    3.0132 O   0  0  0  0  0  0  0  0  0  0  0  0
   12.6844   68.5866    0.0628 N   0  0  0  0  0  0  0  0  0  0  0  0
   11.9330   66.8883    1.5452 N   0  0  0  0  0  0  0  0  0  0  0  0
   11.6077   67.7951    0.5278 C   0  0  0  0  0  0  0  0  0  0  0  0
   13.9520   68.4311    0.6104 C   0  0  0  0  0  0  0  0  0  0  0  0
   14.2468   67.5624    1.5796 C   0  0  0  0  0  0  0  0  0  0  0  0
   13.1782   66.6979    2.1220 C   0  0  0  0  0  0  0  0  0  0  0  0
   11.1993   66.3276    1.8866 H   0  0  0  0  0  0  0  0  0  0  0  0
   18.1104   72.3689   -3.1569 O   0  0  0  0  0  0  0  0  0  0  0  0
   19.0406   73.1535   -4.2212 P   0  0  2  0  0  0  0  0  0  0  0  0
   20.5348   72.6610   -3.8401 O   0  0  0  0  0  0  0  0  0  0  0  0
   18.8604   74.6439   -4.2155 O   0  0  0  0  0  0  0  0  0  0  0  0
   18.7278   72.4467   -5.6372 O   0  0  0  0  0  0  0  0  0  0  0  0
   18.4067   70.1347   -5.2361 O   0  0  0  0  0  0  0  0  0  0  0  0
   17.8774   70.3596   -9.3272 O   0  0  0  0  0  0  0  0  0  0  0  0
   20.0227   71.8568   -8.0271 O   0  0  0  0  0  0  0  0  0  0  0  0
   15.5788   70.0605   -7.5727 O   0  0  0  0  0  0  0  0  0  0  0  0
   17.8268   70.8263   -7.9790 C   0  0  2  0  0  0  0  0  0  0  0  0
   19.2388   70.8526   -7.3932 C   0  0  2  0  0  0  0  0  0  0  0  0
   16.9371   69.8708   -7.1808 C   0  0  1  0  0  0  0  0  0  0  0  0
   19.2020   71.1251   -5.8889 C   0  0  1  0  0  0  0  0  0  0  0  0
   17.0519   70.1249   -5.6806 C   0  0  1  0  0  0  0  0  0  0  0  0
   18.4375   70.9515   -9.8537 H   0  0  0  0  0  0  0  0  0  0  0  0
   20.0501   71.6902   -8.9820 H   0  0  0  0  0  0  0  0  0  0  0  0
   15.4921   69.9019   -8.5257 H   0  0  0  0  0  0  0  0  0  0  0  0
   16.1726   67.9508   -5.7191 O   0  0  0  0  0  0  0  0  0  0  0  0
   16.2417   69.0091   -3.7006 O   0  0  0  0  0  0  0  0  0  0  0  0
   16.4522   68.9980   -4.9042 C   0  0  0  0  0  0  0  0  0  0  0  0
  1  4  1  0
  1 24  1  0
  1  2  1  1
  1  3  2  0
 25 28  1  0
 25 24  1  0
 25 26  1  1
 25 27  2  0
  6 11  1  0
  6 12  1  0
 29 36  1  0
 29 37  1  0
  9  7  1  6
  7 13  1  0
 10  8  1  6
  8 14  1  0
  4  5  1  0
 36 28  1  6
 33 30  1  6
 30 38  1  0
 34 31  1  6
 31 39  1  0
 35 32  1  6
 32 40  1  0
 41 43  1  0
 15 19  2  0
 42 43  2  0
 16 22  2  0
 12 17  1  1
 17 19  1  0
 17 20  1  0
 18 19  1  0
 18 22  1  0
 18 23  1  0
  9 10  1  0
  9 11  1  0
 10 12  1  0
 11  5  1  1
 33 34  1  0
 33 35  1  0
 34 36  1  0
 35 37  1  0
 37 43  1  1
 20 21  2  0
 21 22  1  0
M  CHG  3   2  -1  26  -1  41  -1
M  END
>  <COMPND>  (127) 
    udp_gluA.pdb 

>  <AUTHOR>  (127) 
    GENERATED BY OPEN BABEL 3.1.1

>  <MASTER>  (127) 
        0    0    0    0    0    0    0    0   56    0   56    0

>  <minimizedAffinity>  (127) 
-6.49681

>  <CNNscore>  (127) 
0.6251589656

>  <CNNaffinity>  (127) 
4.1527547836

>  <CNN_VS>  (127) 
2.5961318016

>  <CNNaffinity_variance>  (127) 
0.3609963059

$$$$
128
     RDKit          3D

 43 45  0  0  0  0  0  0  0  0999 V2000
   21.9613   72.9937   -5.9700 P   0  0  2  0  0  0  0  0  0  0  0  0
   21.5225   74.5487   -6.0614 O   0  0  0  0  0  0  0  0  0  0  0  0
   23.1196   72.6098   -6.8433 O   0  0  0  0  0  0  0  0  0  0  0  0
   20.5846   72.1854   -6.2334 O   0  0  0  0  0  0  0  0  0  0  0  0
   19.8974   72.3997   -7.4526 C   0  0  0  0  0  0  0  0  0  0  0  0
   18.9797   70.2498   -6.8928 O   0  0  0  0  0  0  0  0  0  0  0  0
   18.2338   70.0216   -9.7882 O   0  0  0  0  0  0  0  0  0  0  0  0
   15.8737   70.7277   -8.6187 O   0  0  0  0  0  0  0  0  0  0  0  0
   18.2415   71.1739   -8.9451 C   0  0  1  0  0  0  0  0  0  0  0  0
   17.0707   71.1296   -7.9862 C   0  0  2  0  0  0  0  0  0  0  0  0
   19.4308   71.0576   -8.0015 C   0  0  1  0  0  0  0  0  0  0  0  0
   17.5496   70.1273   -6.9499 C   0  0  2  0  0  0  0  0  0  0  0  0
   17.4824   70.0733  -10.4001 H   0  0  0  0  0  0  0  0  0  0  0  0
   15.6105   71.3986   -9.2688 H   0  0  0  0  0  0  0  0  0  0  0  0
   16.3874   68.1608   -5.2889 O   0  0  0  0  0  0  0  0  0  0  0  0
   15.4980   71.2304   -1.9677 O   0  0  0  0  0  0  0  0  0  0  0  0
   17.0065   70.3851   -5.6462 N   0  0  0  0  0  0  0  0  0  0  0  0
   15.9446   69.6917   -3.6368 N   0  0  0  0  0  0  0  0  0  0  0  0
   16.4453   69.3266   -4.8934 C   0  0  0  0  0  0  0  0  0  0  0  0
   17.0345   71.6732   -5.1255 C   0  0  0  0  0  0  0  0  0  0  0  0
   16.5535   72.0057   -3.9261 C   0  0  0  0  0  0  0  0  0  0  0  0
   15.9493   70.9587   -3.0762 C   0  0  0  0  0  0  0  0  0  0  0  0
   15.5471   68.9721   -3.0951 H   0  0  0  0  0  0  0  0  0  0  0  0
   22.2112   72.7796   -4.3874 O   0  0  0  0  0  0  0  0  0  0  0  0
   23.4531   73.2018   -3.4423 P   0  0  2  0  0  0  0  0  0  0  0  0
   22.9954   74.6366   -2.8491 O   0  0  0  0  0  0  0  0  0  0  0  0
   24.7816   73.2170   -4.1415 O   0  0  0  0  0  0  0  0  0  0  0  0
   23.3703   72.1957   -2.1840 O   0  0  0  0  0  0  0  0  0  0  0  0
   23.7588   69.8725   -2.4311 O   0  0  0  0  0  0  0  0  0  0  0  0
   21.6874   70.0033    1.1411 O   0  0  0  0  0  0  0  0  0  0  0  0
   20.8585   71.6664   -1.1131 O   0  0  0  0  0  0  0  0  0  0  0  0
   24.5614   69.5661    1.1360 O   0  0  0  0  0  0  0  0  0  0  0  0
   22.5736   70.4837    0.1302 C   0  0  2  0  0  0  0  0  0  0  0  0
   21.8172   70.6180   -1.1917 C   0  0  2  0  0  0  0  0  0  0  0  0
   23.7187   69.4785   -0.0114 C   0  0  1  0  0  0  0  0  0  0  0  0
   22.7787   70.9077   -2.3451 C   0  0  1  0  0  0  0  0  0  0  0  0
   24.5570   69.7607   -1.2549 C   0  0  1  0  0  0  0  0  0  0  0  0
   20.9513   70.6261    1.2487 H   0  0  0  0  0  0  0  0  0  0  0  0
   20.2453   71.4892   -0.3831 H   0  0  0  0  0  0  0  0  0  0  0  0
   24.0399   69.3887    1.9344 H   0  0  0  0  0  0  0  0  0  0  0  0
   26.0910   68.7978   -2.7453 O   0  0  0  0  0  0  0  0  0  0  0  0
   25.5946   67.6189   -0.8577 O   0  0  0  0  0  0  0  0  0  0  0  0
   25.4514   68.6048   -1.5652 C   0  0  0  0  0  0  0  0  0  0  0  0
  1  4  1  0
  1 24  1  0
  1  2  1  1
  1  3  2  0
 25 28  1  0
 25 24  1  0
 25 26  1  1
 25 27  2  0
  6 11  1  0
  6 12  1  0
 29 36  1  0
 29 37  1  0
  9  7  1  6
  7 13  1  0
 10  8  1  6
  8 14  1  0
  4  5  1  0
 36 28  1  1
 33 30  1  1
 30 38  1  0
 34 31  1  1
 31 39  1  0
 35 32  1  1
 32 40  1  0
 41 43  1  0
 15 19  2  0
 42 43  2  0
 16 22  2  0
 12 17  1  1
 17 19  1  0
 17 20  1  0
 18 19  1  0
 18 22  1  0
 18 23  1  0
  9 10  1  0
  9 11  1  0
 10 12  1  0
 11  5  1  1
 33 34  1  0
 33 35  1  0
 34 36  1  0
 35 37  1  0
 37 43  1  6
 20 21  2  0
 21 22  1  0
M  CHG  3   2  -1  26  -1  41  -1
M  END
>  <COMPND>  (128) 
    udp_gluA.pdb 

>  <AUTHOR>  (128) 
    GENERATED BY OPEN BABEL 3.1.1

>  <MASTER>  (128) 
        0    0    0    0    0    0    0    0   56    0   56    0

>  <minimizedAffinity>  (128) 
-8.93044

>  <CNNscore>  (128) 
0.5427300334

>  <CNNaffinity>  (128) 
4.2828822136

>  <CNN_VS>  (128) 
2.3244488239

>  <CNNaffinity_variance>  (128) 
0.4070118070

$$$$
129
     RDKit          3D

 43 45  0  0  0  0  0  0  0  0999 V2000
   23.8213   72.9472   -3.9047 P   0  0  2  0  0  0  0  0  0  0  0  0
   22.5765   73.5533   -3.0668 O   0  0  0  0  0  0  0  0  0  0  0  0
   24.9887   73.8762   -4.0660 O   0  0  0  0  0  0  0  0  0  0  0  0
   23.1462   72.4221   -5.2782 O   0  0  0  0  0  0  0  0  0  0  0  0
   21.7423   72.2427   -5.3161 C   0  0  0  0  0  0  0  0  0  0  0  0
   20.5856   70.3478   -6.2375 O   0  0  0  0  0  0  0  0  0  0  0  0
   20.6585   71.8106   -8.8540 O   0  0  0  0  0  0  0  0  0  0  0  0
   18.1108   72.2590   -7.9914 O   0  0  0  0  0  0  0  0  0  0  0  0
   20.4977   72.3286   -7.5333 C   0  0  1  0  0  0  0  0  0  0  0  0
   19.1067   72.0264   -7.0175 C   0  0  2  0  0  0  0  0  0  0  0  0
   21.3708   71.5054   -6.5962 C   0  0  1  0  0  0  0  0  0  0  0  0
   19.2227   70.5599   -6.6383 C   0  0  2  0  0  0  0  0  0  0  0  0
   20.1100   72.3209   -9.4708 H   0  0  0  0  0  0  0  0  0  0  0  0
   18.0761   73.2066   -8.1985 H   0  0  0  0  0  0  0  0  0  0  0  0
   16.5202   69.7960   -6.9376 O   0  0  0  0  0  0  0  0  0  0  0  0
   15.9903   69.2190   -2.3955 O   0  0  0  0  0  0  0  0  0  0  0  0
   18.3555   70.2048   -5.5508 N   0  0  0  0  0  0  0  0  0  0  0  0
   16.2586   69.5103   -4.6750 N   0  0  0  0  0  0  0  0  0  0  0  0
   17.0140   69.8361   -5.8091 C   0  0  0  0  0  0  0  0  0  0  0  0
   18.8354   70.2223   -4.2468 C   0  0  0  0  0  0  0  0  0  0  0  0
   18.1033   69.9091   -3.1760 C   0  0  0  0  0  0  0  0  0  0  0  0
   16.6914   69.5136   -3.3588 C   0  0  0  0  0  0  0  0  0  0  0  0
   15.3211   69.2524   -4.8295 H   0  0  0  0  0  0  0  0  0  0  0  0
   24.1558   71.5760   -3.1168 O   0  0  0  0  0  0  0  0  0  0  0  0
   23.4781   70.9115   -1.8080 P   0  0  2  0  0  0  0  0  0  0  0  0
   21.8942   70.9855   -2.1337 O   0  0  0  0  0  0  0  0  0  0  0  0
   23.8742   71.5598   -0.5132 O   0  0  0  0  0  0  0  0  0  0  0  0
   23.8421   69.3432   -1.9103 O   0  0  0  0  0  0  0  0  0  0  0  0
   24.7595   67.8657   -0.3028 O   0  0  0  0  0  0  0  0  0  0  0  0
   26.3533   66.3826   -3.8140 O   0  0  0  0  0  0  0  0  0  0  0  0
   26.2216   69.2636   -3.3482 O   0  0  0  0  0  0  0  0  0  0  0  0
   24.1573   64.9959   -2.5081 O   0  0  0  0  0  0  0  0  0  0  0  0
   25.3726   67.0186   -2.9944 C   0  0  2  0  0  0  0  0  0  0  0  0
   25.9726   68.2726   -2.3580 C   0  0  2  0  0  0  0  0  0  0  0  0
   24.9445   66.0252   -1.9120 C   0  0  1  0  0  0  0  0  0  0  0  0
   25.0334   68.8516   -1.2990 C   0  0  1  0  0  0  0  0  0  0  0  0
   24.1157   66.7065   -0.8269 C   0  0  1  0  0  0  0  0  0  0  0  0
   26.6405   66.9953   -4.5093 H   0  0  0  0  0  0  0  0  0  0  0  0
   26.8167   68.9030   -4.0236 H   0  0  0  0  0  0  0  0  0  0  0  0
   24.6732   64.5544   -3.2008 H   0  0  0  0  0  0  0  0  0  0  0  0
   23.1891   64.7607    0.0988 O   0  0  0  0  0  0  0  0  0  0  0  0
   24.5176   66.0260    1.4527 O   0  0  0  0  0  0  0  0  0  0  0  0
   23.9840   65.8248    0.3721 C   0  0  0  0  0  0  0  0  0  0  0  0
  1  4  1  0
  1 24  1  0
  1  2  1  1
  1  3  2  0
 25 28  1  0
 25 24  1  0
 25 26  1  6
 25 27  2  0
  6 11  1  0
  6 12  1  0
 29 36  1  0
 29 37  1  0
  9  7  1  6
  7 13  1  0
 10  8  1  6
  8 14  1  0
  4  5  1  0
 36 28  1  6
 33 30  1  6
 30 38  1  0
 34 31  1  6
 31 39  1  0
 35 32  1  6
 32 40  1  0
 41 43  1  0
 15 19  2  0
 42 43  2  0
 16 22  2  0
 12 17  1  1
 17 19  1  0
 17 20  1  0
 18 19  1  0
 18 22  1  0
 18 23  1  0
  9 10  1  0
  9 11  1  0
 10 12  1  0
 11  5  1  1
 33 34  1  0
 33 35  1  0
 34 36  1  0
 35 37  1  0
 37 43  1  1
 20 21  2  0
 21 22  1  0
M  CHG  3   2  -1  26  -1  41  -1
M  END
>  <COMPND>  (129) 
    udp_gluA.pdb 

>  <AUTHOR>  (129) 
    GENERATED BY OPEN BABEL 3.1.1

>  <MASTER>  (129) 
        0    0    0    0    0    0    0    0   56    0   56    0

>  <minimizedAffinity>  (129) 
-9.02254

>  <CNNscore>  (129) 
0.5042544603

>  <CNNaffinity>  (129) 
4.5705170631

>  <CNN_VS>  (129) 
2.3047037125

>  <CNNaffinity_variance>  (129) 
0.1838896871

$$$$
130
     RDKit          3D

 43 45  0  0  0  0  0  0  0  0999 V2000
   22.8808   73.1163   -3.6625 P   0  0  2  0  0  0  0  0  0  0  0  0
   24.2656   72.7070   -4.3929 O   0  0  0  0  0  0  0  0  0  0  0  0
   22.7606   74.5674   -3.2996 O   0  0  0  0  0  0  0  0  0  0  0  0
   22.7676   72.0725   -2.4314 O   0  0  0  0  0  0  0  0  0  0  0  0
   23.2469   72.4716   -1.1604 C   0  0  0  0  0  0  0  0  0  0  0  0
   22.6317   70.2304   -0.5467 O   0  0  0  0  0  0  0  0  0  0  0  0
   22.4349   71.2532    2.2652 O   0  0  0  0  0  0  0  0  0  0  0  0
   24.8586   70.0035    2.2539 O   0  0  0  0  0  0  0  0  0  0  0  0
   23.3525   71.6168    1.2335 C   0  0  1  0  0  0  0  0  0  0  0  0
   24.3754   70.5191    1.0311 C   0  0  2  0  0  0  0  0  0  0  0  0
   22.6012   71.6003   -0.0907 C   0  0  1  0  0  0  0  0  0  0  0  0
   23.5850   69.4941    0.2358 C   0  0  2  0  0  0  0  0  0  0  0  0
   22.8922   71.2567    3.1211 H   0  0  0  0  0  0  0  0  0  0  0  0
   25.3547   70.6937    2.7223 H   0  0  0  0  0  0  0  0  0  0  0  0
   24.2861   66.7916    0.6618 O   0  0  0  0  0  0  0  0  0  0  0  0
   26.7822   66.6389   -3.2100 O   0  0  0  0  0  0  0  0  0  0  0  0
   24.4167   68.7239   -0.6450 N   0  0  0  0  0  0  0  0  0  0  0  0
   25.5295   66.7185   -1.2664 N   0  0  0  0  0  0  0  0  0  0  0  0
   24.7086   67.3736   -0.3391 C   0  0  0  0  0  0  0  0  0  0  0  0
   24.9321   69.3053   -1.7971 C   0  0  0  0  0  0  0  0  0  0  0  0
   25.7131   68.6680   -2.6716 C   0  0  0  0  0  0  0  0  0  0  0  0
   26.0665   67.2545   -2.4256 C   0  0  0  0  0  0  0  0  0  0  0  0
   25.7482   65.7780   -1.0738 H   0  0  0  0  0  0  0  0  0  0  0  0
   21.7555   72.5848   -4.6941 O   0  0  0  0  0  0  0  0  0  0  0  0
   21.1004   73.2776   -5.9997 P   0  0  2  0  0  0  0  0  0  0  0  0
   22.1651   72.9397   -7.1712 O   0  0  0  0  0  0  0  0  0  0  0  0
   20.8034   74.7403   -5.8370 O   0  0  0  0  0  0  0  0  0  0  0  0
   19.8137   72.3675   -6.3439 O   0  0  0  0  0  0  0  0  0  0  0  0
   19.2543   70.1747   -5.6454 O   0  0  0  0  0  0  0  0  0  0  0  0
   17.6227   70.2905   -9.4392 O   0  0  0  0  0  0  0  0  0  0  0  0
   20.2608   71.4358   -8.9261 O   0  0  0  0  0  0  0  0  0  0  0  0
   15.9035   70.4999   -7.1044 O   0  0  0  0  0  0  0  0  0  0  0  0
   18.0345   70.8244   -8.1808 C   0  0  2  0  0  0  0  0  0  0  0  0
   19.5400   70.6228   -8.0073 C   0  0  2  0  0  0  0  0  0  0  0  0
   17.2684   70.0864   -7.0806 C   0  0  1  0  0  0  0  0  0  0  0  0
   19.9782   70.9711   -6.5841 C   0  0  1  0  0  0  0  0  0  0  0  0
   17.8457   70.3889   -5.7009 C   0  0  1  0  0  0  0  0  0  0  0  0
   18.0966   70.7444  -10.1538 H   0  0  0  0  0  0  0  0  0  0  0  0
   19.9876   71.2203   -9.8313 H   0  0  0  0  0  0  0  0  0  0  0  0
   15.5242   70.3130   -7.9774 H   0  0  0  0  0  0  0  0  0  0  0  0
   16.4183   68.5849   -5.2434 O   0  0  0  0  0  0  0  0  0  0  0  0
   17.6532   69.3999   -3.5086 O   0  0  0  0  0  0  0  0  0  0  0  0
   17.3201   69.4290   -4.6838 C   0  0  0  0  0  0  0  0  0  0  0  0
  1  4  1  0
  1 24  1  0
  1  2  1  6
  1  3  2  0
 25 28  1  0
 25 24  1  0
 25 26  1  6
 25 27  2  0
  6 11  1  0
  6 12  1  0
 29 36  1  0
 29 37  1  0
  9  7  1  1
  7 13  1  0
 10  8  1  1
  8 14  1  0
  4  5  1  0
 36 28  1  1
 33 30  1  6
 30 38  1  0
 34 31  1  6
 31 39  1  0
 35 32  1  1
 32 40  1  0
 41 43  1  0
 15 19  2  0
 42 43  2  0
 16 22  2  0
 12 17  1  6
 17 19  1  0
 17 20  1  0
 18 19  1  0
 18 22  1  0
 18 23  1  0
  9 10  1  0
  9 11  1  0
 10 12  1  0
 11  5  1  6
 33 34  1  0
 33 35  1  0
 34 36  1  0
 35 37  1  0
 37 43  1  1
 20 21  2  0
 21 22  1  0
M  CHG  3   2  -1  26  -1  41  -1
M  END
>  <COMPND>  (130) 
    udp_gluA.pdb 

>  <AUTHOR>  (130) 
    GENERATED BY OPEN BABEL 3.1.1

>  <MASTER>  (130) 
        0    0    0    0    0    0    0    0   56    0   56    0

>  <minimizedAffinity>  (130) 
-8.98854

>  <CNNscore>  (130) 
0.5030364990

>  <CNNaffinity>  (130) 
4.4893164635

>  <CNN_VS>  (130) 
2.2582900524

>  <CNNaffinity_variance>  (130) 
0.2617233396

$$$$
131
     RDKit          3D

 43 45  0  0  0  0  0  0  0  0999 V2000
   23.7003   72.9899   -3.8875 P   0  0  2  0  0  0  0  0  0  0  0  0
   22.4208   73.4597   -3.0151 O   0  0  0  0  0  0  0  0  0  0  0  0
   24.7934   74.0107   -4.0092 O   0  0  0  0  0  0  0  0  0  0  0  0
   23.0548   72.4819   -5.2815 O   0  0  0  0  0  0  0  0  0  0  0  0
   21.6518   72.3063   -5.3526 C   0  0  0  0  0  0  0  0  0  0  0  0
   20.5339   70.3768   -6.2498 O   0  0  0  0  0  0  0  0  0  0  0  0
   20.6372   71.7794   -8.8981 O   0  0  0  0  0  0  0  0  0  0  0  0
   18.0692   72.2171   -8.0918 O   0  0  0  0  0  0  0  0  0  0  0  0
   20.4465   72.3259   -7.5930 C   0  0  1  0  0  0  0  0  0  0  0  0
   19.0500   72.0191   -7.0951 C   0  0  2  0  0  0  0  0  0  0  0  0
   21.3120   71.5351   -6.6215 C   0  0  1  0  0  0  0  0  0  0  0  0
   19.1760   70.5632   -6.6798 C   0  0  2  0  0  0  0  0  0  0  0  0
   20.0941   72.2686   -9.5364 H   0  0  0  0  0  0  0  0  0  0  0  0
   18.0274   73.1591   -8.3216 H   0  0  0  0  0  0  0  0  0  0  0  0
   16.4964   69.7347   -7.0107 O   0  0  0  0  0  0  0  0  0  0  0  0
   15.8827   69.2838   -2.4649 O   0  0  0  0  0  0  0  0  0  0  0  0
   18.2934   70.2231   -5.5998 N   0  0  0  0  0  0  0  0  0  0  0  0
   16.1930   69.5119   -4.7463 N   0  0  0  0  0  0  0  0  0  0  0  0
   16.9655   69.8189   -5.8742 C   0  0  0  0  0  0  0  0  0  0  0  0
   18.7454   70.2898   -4.2875 C   0  0  0  0  0  0  0  0  0  0  0  0
   17.9973   69.9939   -3.2228 C   0  0  0  0  0  0  0  0  0  0  0  0
   16.5978   69.5638   -3.4223 C   0  0  0  0  0  0  0  0  0  0  0  0
   15.2644   69.2299   -4.9120 H   0  0  0  0  0  0  0  0  0  0  0  0
   24.1433   71.6115   -3.1686 O   0  0  0  0  0  0  0  0  0  0  0  0
   23.3165   70.5949   -2.2217 P   0  0  2  0  0  0  0  0  0  0  0  0
   24.2713   69.2893   -2.1582 O   0  0  0  0  0  0  0  0  0  0  0  0
   21.9179   70.3160   -2.6908 O   0  0  0  0  0  0  0  0  0  0  0  0
   23.4115   71.2409   -0.7465 O   0  0  0  0  0  0  0  0  0  0  0  0
   24.6960   70.6567    1.1556 O   0  0  0  0  0  0  0  0  0  0  0  0
   21.1807   71.9678    2.8854 O   0  0  0  0  0  0  0  0  0  0  0  0
   21.1187   70.2806    0.5013 O   0  0  0  0  0  0  0  0  0  0  0  0
   23.5465   73.6566    2.9280 O   0  0  0  0  0  0  0  0  0  0  0  0
   22.2145   71.9312    1.9016 C   0  0  2  0  0  0  0  0  0  0  0  0
   22.2813   70.5355    1.2811 C   0  0  2  0  0  0  0  0  0  0  0  0
   23.5372   72.2703    2.5925 C   0  0  1  0  0  0  0  0  0  0  0  0
   23.5181   70.3900    0.3934 C   0  0  1  0  0  0  0  0  0  0  0  0
   24.7298   71.9798    1.6860 C   0  0  1  0  0  0  0  0  0  0  0  0
   20.3305   71.7553    2.4693 H   0  0  0  0  0  0  0  0  0  0  0  0
   20.3300   70.3715    1.0582 H   0  0  0  0  0  0  0  0  0  0  0  0
   22.7923   73.8549    3.5047 H   0  0  0  0  0  0  0  0  0  0  0  0
   26.6825   70.8338    2.2985 O   0  0  0  0  0  0  0  0  0  0  0  0
   26.3918   72.9261    3.1569 O   0  0  0  0  0  0  0  0  0  0  0  0
   26.0047   71.9965    2.4649 C   0  0  0  0  0  0  0  0  0  0  0  0
  1  4  1  0
  1 24  1  0
  1  2  1  1
  1  3  2  0
 25 28  1  0
 25 24  1  0
 25 26  1  1
 25 27  2  0
  6 11  1  0
  6 12  1  0
 29 36  1  0
 29 37  1  0
  9  7  1  6
  7 13  1  0
 10  8  1  6
  8 14  1  0
  4  5  1  0
 36 28  1  6
 33 30  1  1
 30 38  1  0
 34 31  1  6
 31 39  1  0
 35 32  1  6
 32 40  1  0
 41 43  1  0
 15 19  2  0
 42 43  2  0
 16 22  2  0
 12 17  1  1
 17 19  1  0
 17 20  1  0
 18 19  1  0
 18 22  1  0
 18 23  1  0
  9 10  1  0
  9 11  1  0
 10 12  1  0
 11  5  1  1
 33 34  1  0
 33 35  1  0
 34 36  1  0
 35 37  1  0
 37 43  1  1
 20 21  2  0
 21 22  1  0
M  CHG  3   2  -1  26  -1  41  -1
M  END
>  <COMPND>  (131) 
    udp_gluA.pdb 

>  <AUTHOR>  (131) 
    GENERATED BY OPEN BABEL 3.1.1

>  <MASTER>  (131) 
        0    0    0    0    0    0    0    0   56    0   56    0

>  <minimizedAffinity>  (131) 
-8.10704

>  <CNNscore>  (131) 
0.4988924563

>  <CNNaffinity>  (131) 
4.1440300941

>  <CNN_VS>  (131) 
2.0674252510

>  <CNNaffinity_variance>  (131) 
0.1352975070

$$$$
132
     RDKit          3D

 43 45  0  0  0  0  0  0  0  0999 V2000
   21.5556   72.8089   -1.4262 P   0  0  2  0  0  0  0  0  0  0  0  0
   20.9825   72.8476    0.0868 O   0  0  0  0  0  0  0  0  0  0  0  0
   22.4626   73.9479   -1.7894 O   0  0  0  0  0  0  0  0  0  0  0  0
   20.2299   72.6476   -2.3397 O   0  0  0  0  0  0  0  0  0  0  0  0
   20.2799   73.0818   -3.6864 C   0  0  0  0  0  0  0  0  0  0  0  0
   20.6581   71.1438   -5.0571 O   0  0  0  0  0  0  0  0  0  0  0  0
   23.2623   72.4205   -5.8186 O   0  0  0  0  0  0  0  0  0  0  0  0
   21.6804   72.9630   -7.9725 O   0  0  0  0  0  0  0  0  0  0  0  0
   21.9972   73.0311   -5.5627 C   0  0  1  0  0  0  0  0  0  0  0  0
   21.0527   72.7847   -6.7200 C   0  0  2  0  0  0  0  0  0  0  0  0
   21.3246   72.2627   -4.4333 C   0  0  1  0  0  0  0  0  0  0  0  0
   20.6268   71.3465   -6.4788 C   0  0  2  0  0  0  0  0  0  0  0  0
   23.7110   72.8944   -6.5368 H   0  0  0  0  0  0  0  0  0  0  0  0
   21.9322   73.8944   -8.0782 H   0  0  0  0  0  0  0  0  0  0  0  0
   20.0356   69.7085   -8.7023 O   0  0  0  0  0  0  0  0  0  0  0  0
   15.5020   70.3939   -8.2327 O   0  0  0  0  0  0  0  0  0  0  0  0
   19.3006   71.0798   -6.9593 N   0  0  0  0  0  0  0  0  0  0  0  0
   17.7782   70.0523   -8.4669 N   0  0  0  0  0  0  0  0  0  0  0  0
   19.1126   70.2429   -8.0847 C   0  0  0  0  0  0  0  0  0  0  0  0
   18.2041   71.6426   -6.3175 C   0  0  0  0  0  0  0  0  0  0  0  0
   16.9380   71.4516   -6.6935 C   0  0  0  0  0  0  0  0  0  0  0  0
   16.6548   70.5910   -7.8608 C   0  0  0  0  0  0  0  0  0  0  0  0
   17.6223   69.4750   -9.2491 H   0  0  0  0  0  0  0  0  0  0  0  0
   22.2401   71.3475   -1.5177 O   0  0  0  0  0  0  0  0  0  0  0  0
   23.2290   70.5729   -0.5000 P   0  0  2  0  0  0  0  0  0  0  0  0
   22.2085   69.8135    0.5011 O   0  0  0  0  0  0  0  0  0  0  0  0
   24.2236   71.4622    0.1886 O   0  0  0  0  0  0  0  0  0  0  0  0
   23.8848   69.3939   -1.3843 O   0  0  0  0  0  0  0  0  0  0  0  0
   24.7906   67.6745   -0.0306 O   0  0  0  0  0  0  0  0  0  0  0  0
   25.9909   66.4943   -3.8035 O   0  0  0  0  0  0  0  0  0  0  0  0
   26.1368   69.3033   -3.0142 O   0  0  0  0  0  0  0  0  0  0  0  0
   23.7881   65.1343   -2.4811 O   0  0  0  0  0  0  0  0  0  0  0  0
   25.1302   67.1027   -2.8407 C   0  0  2  0  0  0  0  0  0  0  0  0
   25.8789   68.2253   -2.1219 C   0  0  2  0  0  0  0  0  0  0  0  0
   24.7009   66.0251   -1.8425 C   0  0  1  0  0  0  0  0  0  0  0  0
   25.0723   68.7462   -0.9315 C   0  0  1  0  0  0  0  0  0  0  0  0
   24.0146   66.6359   -0.6241 C   0  0  1  0  0  0  0  0  0  0  0  0
   26.2765   67.1604   -4.4486 H   0  0  0  0  0  0  0  0  0  0  0  0
   26.6480   68.9799   -3.7721 H   0  0  0  0  0  0  0  0  0  0  0  0
   24.2126   64.7388   -3.2584 H   0  0  0  0  0  0  0  0  0  0  0  0
   24.5301   66.0726    1.5936 O   0  0  0  0  0  0  0  0  0  0  0  0
   23.3133   64.5635    0.3931 O   0  0  0  0  0  0  0  0  0  0  0  0
   23.8979   65.6331    0.4773 C   0  0  0  0  0  0  0  0  0  0  0  0
  1  4  1  0
  1 24  1  0
  1  2  1  1
  1  3  2  0
 25 28  1  0
 25 24  1  0
 25 26  1  1
 25 27  2  0
  6 11  1  0
  6 12  1  0
 29 36  1  0
 29 37  1  0
  9  7  1  6
  7 13  1  0
 10  8  1  6
  8 14  1  0
  4  5  1  0
 36 28  1  6
 33 30  1  6
 30 38  1  0
 34 31  1  6
 31 39  1  0
 35 32  1  6
 32 40  1  0
 41 43  1  0
 15 19  2  0
 42 43  2  0
 16 22  2  0
 12 17  1  1
 17 19  1  0
 17 20  1  0
 18 19  1  0
 18 22  1  0
 18 23  1  0
  9 10  1  0
  9 11  1  0
 10 12  1  0
 11  5  1  6
 33 34  1  0
 33 35  1  0
 34 36  1  0
 35 37  1  0
 37 43  1  1
 20 21  2  0
 21 22  1  0
M  CHG  3   2  -1  26  -1  41  -1
M  END
>  <COMPND>  (132) 
    udp_gluA.pdb 

>  <AUTHOR>  (132) 
    GENERATED BY OPEN BABEL 3.1.1

>  <MASTER>  (132) 
        0    0    0    0    0    0    0    0   56    0   56    0

>  <minimizedAffinity>  (132) 
-8.82563

>  <CNNscore>  (132) 
0.4873144031

>  <CNNaffinity>  (132) 
4.6236100197

>  <CNN_VS>  (132) 
2.2531516552

>  <CNNaffinity_variance>  (132) 
0.1030333638

$$$$
133
     RDKit          3D

 43 45  0  0  0  0  0  0  0  0999 V2000
   23.2251   73.6241   -4.1874 P   0  0  2  0  0  0  0  0  0  0  0  0
   24.1966   72.3306   -4.2319 O   0  0  0  0  0  0  0  0  0  0  0  0
   23.7888   74.8619   -4.8213 O   0  0  0  0  0  0  0  0  0  0  0  0
   22.8238   73.7550   -2.6254 O   0  0  0  0  0  0  0  0  0  0  0  0
   21.8073   74.6714   -2.2630 C   0  0  0  0  0  0  0  0  0  0  0  0
   21.1133   72.6224   -1.2152 O   0  0  0  0  0  0  0  0  0  0  0  0
   18.6623   74.1149   -0.3452 O   0  0  0  0  0  0  0  0  0  0  0  0
   20.1926   74.1151    1.9118 O   0  0  0  0  0  0  0  0  0  0  0  0
   20.0070   74.5790   -0.4678 C   0  0  1  0  0  0  0  0  0  0  0  0
   20.8531   74.0393    0.6658 C   0  0  2  0  0  0  0  0  0  0  0  0
   20.6293   73.9009   -1.6807 C   0  0  1  0  0  0  0  0  0  0  0  0
   21.1002   72.6078    0.2211 C   0  0  2  0  0  0  0  0  0  0  0  0
   18.2439   74.5345    0.4232 H   0  0  0  0  0  0  0  0  0  0  0  0
   20.0588   75.0462    2.1507 H   0  0  0  0  0  0  0  0  0  0  0  0
   21.5468   69.9210    0.9681 O   0  0  0  0  0  0  0  0  0  0  0  0
   25.9554   70.7557    2.0223 O   0  0  0  0  0  0  0  0  0  0  0  0
   22.3551   72.0959    0.6943 N   0  0  0  0  0  0  0  0  0  0  0  0
   23.7418   70.3395    1.4934 N   0  0  0  0  0  0  0  0  0  0  0  0
   22.4736   70.7299    1.0435 C   0  0  0  0  0  0  0  0  0  0  0  0
   23.4514   72.9423    0.8068 C   0  0  0  0  0  0  0  0  0  0  0  0
   24.6540   72.5557    1.2371 C   0  0  0  0  0  0  0  0  0  0  0  0
   24.8620   71.1446    1.6230 C   0  0  0  0  0  0  0  0  0  0  0  0
   23.8482   69.3935    1.7443 H   0  0  0  0  0  0  0  0  0  0  0  0
   21.8639   73.0791   -4.8678 O   0  0  0  0  0  0  0  0  0  0  0  0
   21.1494   73.4620   -6.2666 P   0  0  2  0  0  0  0  0  0  0  0  0
   22.1894   72.9087   -7.3768 O   0  0  0  0  0  0  0  0  0  0  0  0
   20.8116   74.9181   -6.4071 O   0  0  0  0  0  0  0  0  0  0  0  0
   19.8824   72.4682   -6.3645 O   0  0  0  0  0  0  0  0  0  0  0  0
   19.4745   70.2810   -5.5528 O   0  0  0  0  0  0  0  0  0  0  0  0
   17.5688   70.1869   -9.2172 O   0  0  0  0  0  0  0  0  0  0  0  0
   20.1828   71.4614   -8.9398 O   0  0  0  0  0  0  0  0  0  0  0  0
   16.0156   70.4093   -6.7700 O   0  0  0  0  0  0  0  0  0  0  0  0
   18.0461   70.7840   -8.0115 C   0  0  2  0  0  0  0  0  0  0  0  0
   19.5679   70.6531   -7.9432 C   0  0  2  0  0  0  0  0  0  0  0  0
   17.3959   70.0554   -6.8333 C   0  0  1  0  0  0  0  0  0  0  0  0
   20.0919   71.0722   -6.5689 C   0  0  1  0  0  0  0  0  0  0  0  0
   18.0574   70.4330   -5.5111 C   0  0  1  0  0  0  0  0  0  0  0  0
   17.9687   70.6337   -9.9799 H   0  0  0  0  0  0  0  0  0  0  0  0
   19.8547   71.2012   -9.8144 H   0  0  0  0  0  0  0  0  0  0  0  0
   15.5828   70.1743   -7.6056 H   0  0  0  0  0  0  0  0  0  0  0  0
   18.7188   69.1482   -3.6636 O   0  0  0  0  0  0  0  0  0  0  0  0
   16.5143   69.0801   -4.2423 O   0  0  0  0  0  0  0  0  0  0  0  0
   17.6507   69.4899   -4.4260 C   0  0  0  0  0  0  0  0  0  0  0  0
  1  4  1  0
  1 24  1  0
  1  2  1  1
  1  3  2  0
 25 28  1  0
 25 24  1  0
 25 26  1  6
 25 27  2  0
  6 11  1  0
  6 12  1  0
 29 36  1  0
 29 37  1  0
  9  7  1  1
  7 13  1  0
 10  8  1  1
  8 14  1  0
  4  5  1  0
 36 28  1  1
 33 30  1  6
 30 38  1  0
 34 31  1  6
 31 39  1  0
 35 32  1  1
 32 40  1  0
 41 43  1  0
 15 19  2  0
 42 43  2  0
 16 22  2  0
 12 17  1  1
 17 19  1  0
 17 20  1  0
 18 19  1  0
 18 22  1  0
 18 23  1  0
  9 10  1  0
  9 11  1  0
 10 12  1  0
 11  5  1  1
 33 34  1  0
 33 35  1  0
 34 36  1  0
 35 37  1  0
 37 43  1  1
 20 21  2  0
 21 22  1  0
M  CHG  3   2  -1  26  -1  41  -1
M  END
>  <COMPND>  (133) 
    udp_gluA.pdb 

>  <AUTHOR>  (133) 
    GENERATED BY OPEN BABEL 3.1.1

>  <MASTER>  (133) 
        0    0    0    0    0    0    0    0   56    0   56    0

>  <minimizedAffinity>  (133) 
-7.54697

>  <CNNscore>  (133) 
0.4833267331

>  <CNNaffinity>  (133) 
4.3333001137

>  <CNN_VS>  (133) 
2.0943996906

>  <CNNaffinity_variance>  (133) 
0.0969058350

$$$$
134
     RDKit          3D

 43 45  0  0  0  0  0  0  0  0999 V2000
   21.2760   72.7143   -5.1723 P   0  0  2  0  0  0  0  0  0  0  0  0
   21.0543   74.3173   -5.1861 O   0  0  0  0  0  0  0  0  0  0  0  0
   22.5857   72.2509   -5.7394 O   0  0  0  0  0  0  0  0  0  0  0  0
   19.9514   72.1327   -5.8969 O   0  0  0  0  0  0  0  0  0  0  0  0
   19.8797   72.1760   -7.3103 C   0  0  0  0  0  0  0  0  0  0  0  0
   18.7350   70.1532   -6.6972 O   0  0  0  0  0  0  0  0  0  0  0  0
   18.0992   69.8498   -9.6118 O   0  0  0  0  0  0  0  0  0  0  0  0
   15.7689   70.8334   -8.5929 O   0  0  0  0  0  0  0  0  0  0  0  0
   18.1808   71.0375   -8.8236 C   0  0  1  0  0  0  0  0  0  0  0  0
   16.9700   71.1523   -7.9219 C   0  0  2  0  0  0  0  0  0  0  0  0
   19.3105   70.8577   -7.8187 C   0  0  1  0  0  0  0  0  0  0  0  0
   17.3037   70.1632   -6.8182 C   0  0  2  0  0  0  0  0  0  0  0  0
   17.3841   69.9410  -10.2614 H   0  0  0  0  0  0  0  0  0  0  0  0
   15.6006   71.4923   -9.2853 H   0  0  0  0  0  0  0  0  0  0  0  0
   16.9066   68.3866   -4.6590 O   0  0  0  0  0  0  0  0  0  0  0  0
   15.0976   71.7063   -2.0225 O   0  0  0  0  0  0  0  0  0  0  0  0
   16.7310   70.5367   -5.5560 N   0  0  0  0  0  0  0  0  0  0  0  0
   16.0051   70.0414   -3.3483 N   0  0  0  0  0  0  0  0  0  0  0  0
   16.5750   69.5673   -4.5371 C   0  0  0  0  0  0  0  0  0  0  0  0
   16.3324   71.8497   -5.3366 C   0  0  0  0  0  0  0  0  0  0  0  0
   15.7908   72.2867   -4.1980 C   0  0  0  0  0  0  0  0  0  0  0  0
   15.5924   71.3372   -3.0832 C   0  0  0  0  0  0  0  0  0  0  0  0
   15.8846   69.3844   -2.6250 H   0  0  0  0  0  0  0  0  0  0  0  0
   21.0401   72.3288   -3.6203 O   0  0  0  0  0  0  0  0  0  0  0  0
   20.4727   70.9781   -2.9366 P   0  0  2  0  0  0  0  0  0  0  0  0
   20.8179   69.8364   -4.0309 O   0  0  0  0  0  0  0  0  0  0  0  0
   19.0237   71.0457   -2.5495 O   0  0  0  0  0  0  0  0  0  0  0  0
   21.4801   70.6854   -1.7111 O   0  0  0  0  0  0  0  0  0  0  0  0
   22.6050   71.8614    0.0096 O   0  0  0  0  0  0  0  0  0  0  0  0
   25.6609   69.5888   -1.5920 O   0  0  0  0  0  0  0  0  0  0  0  0
   23.7254   70.9084   -3.3375 O   0  0  0  0  0  0  0  0  0  0  0  0
   24.4598   68.8374    0.9465 O   0  0  0  0  0  0  0  0  0  0  0  0
   24.3153   69.8851   -1.2183 C   0  0  2  0  0  0  0  0  0  0  0  0
   23.8503   71.1498   -1.9408 C   0  0  2  0  0  0  0  0  0  0  0  0
   24.2806   70.0947    0.2972 C   0  0  1  0  0  0  0  0  0  0  0  0
   22.5037   71.6275   -1.3956 C   0  0  1  0  0  0  0  0  0  0  0  0
   22.9497   70.6906    0.7468 C   0  0  1  0  0  0  0  0  0  0  0  0
   25.7075   69.4516   -2.5513 H   0  0  0  0  0  0  0  0  0  0  0  0
   24.5761   70.6047   -3.6901 H   0  0  0  0  0  0  0  0  0  0  0  0
   25.3033   68.4474    0.6687 H   0  0  0  0  0  0  0  0  0  0  0  0
   24.2694   70.9457    2.6690 O   0  0  0  0  0  0  0  0  0  0  0  0
   22.1386   71.7528    2.7556 O   0  0  0  0  0  0  0  0  0  0  0  0
   23.0408   71.1930    2.1509 C   0  0  0  0  0  0  0  0  0  0  0  0
  1  4  1  0
  1 24  1  0
  1  2  1  1
  1  3  2  0
 25 28  1  0
 25 24  1  0
 25 26  1  6
 25 27  2  0
  6 11  1  0
  6 12  1  0
 29 36  1  0
 29 37  1  0
  9  7  1  6
  7 13  1  0
 10  8  1  6
  8 14  1  0
  4  5  1  0
 36 28  1  1
 33 30  1  6
 30 38  1  0
 34 31  1  6
 31 39  1  0
 35 32  1  1
 32 40  1  0
 41 43  1  0
 15 19  2  0
 42 43  2  0
 16 22  2  0
 12 17  1  1
 17 19  1  0
 17 20  1  0
 18 19  1  0
 18 22  1  0
 18 23  1  0
  9 10  1  0
  9 11  1  0
 10 12  1  0
 11  5  1  1
 33 34  1  0
 33 35  1  0
 34 36  1  0
 35 37  1  0
 37 43  1  1
 20 21  2  0
 21 22  1  0
M  CHG  3   2  -1  26  -1  41  -1
M  END
>  <COMPND>  (134) 
    udp_gluA.pdb 

>  <AUTHOR>  (134) 
    GENERATED BY OPEN BABEL 3.1.1

>  <MASTER>  (134) 
        0    0    0    0    0    0    0    0   56    0   56    0

>  <minimizedAffinity>  (134) 
-7.50383

>  <CNNscore>  (134) 
0.4668034613

>  <CNNaffinity>  (134) 
4.1329493523

>  <CNN_VS>  (134) 
1.9292750359

>  <CNNaffinity_variance>  (134) 
0.3887174726

$$$$
135
     RDKit          3D

 43 45  0  0  0  0  0  0  0  0999 V2000
   20.9975   74.3512   -3.7355 P   0  0  2  0  0  0  0  0  0  0  0  0
   20.7312   74.8262   -2.2116 O   0  0  0  0  0  0  0  0  0  0  0  0
   21.4430   75.4381   -4.6693 O   0  0  0  0  0  0  0  0  0  0  0  0
   19.6328   73.5861   -4.1481 O   0  0  0  0  0  0  0  0  0  0  0  0
   19.4415   72.2564   -3.7011 C   0  0  0  0  0  0  0  0  0  0  0  0
   17.4658   72.0953   -5.0605 O   0  0  0  0  0  0  0  0  0  0  0  0
   16.2950   70.4587   -2.8374 O   0  0  0  0  0  0  0  0  0  0  0  0
   17.0367   68.5598   -4.6485 O   0  0  0  0  0  0  0  0  0  0  0  0
   17.6395   70.5023   -3.3161 C   0  0  1  0  0  0  0  0  0  0  0  0
   17.7472   69.7803   -4.6425 C   0  0  2  0  0  0  0  0  0  0  0  0
   17.9516   71.9397   -3.7095 C   0  0  1  0  0  0  0  0  0  0  0  0
   17.1648   70.8008   -5.6053 C   0  0  2  0  0  0  0  0  0  0  0  0
   16.0725   69.5499   -2.5798 H   0  0  0  0  0  0  0  0  0  0  0  0
   17.4464   67.9441   -4.0199 H   0  0  0  0  0  0  0  0  0  0  0  0
   15.6831   70.2830   -7.9533 O   0  0  0  0  0  0  0  0  0  0  0  0
   19.4593   70.4466  -10.5910 O   0  0  0  0  0  0  0  0  0  0  0  0
   17.7355   70.7029   -6.9189 N   0  0  0  0  0  0  0  0  0  0  0  0
   17.5654   70.3639   -9.2647 N   0  0  0  0  0  0  0  0  0  0  0  0
   16.9030   70.4393   -8.0324 C   0  0  0  0  0  0  0  0  0  0  0  0
   19.1039   70.8687   -7.0948 C   0  0  0  0  0  0  0  0  0  0  0  0
   19.7208   70.7941   -8.2757 C   0  0  0  0  0  0  0  0  0  0  0  0
   18.9235   70.5211   -9.4894 C   0  0  0  0  0  0  0  0  0  0  0  0
   17.0070   70.1793  -10.0543 H   0  0  0  0  0  0  0  0  0  0  0  0
   22.0537   73.1404   -3.5589 O   0  0  0  0  0  0  0  0  0  0  0  0
   23.6327   73.1514   -3.2117 P   0  0  2  0  0  0  0  0  0  0  0  0
   23.8181   74.5256   -2.3765 O   0  0  0  0  0  0  0  0  0  0  0  0
   24.5278   73.0311   -4.4110 O   0  0  0  0  0  0  0  0  0  0  0  0
   23.8192   71.9812   -2.1170 O   0  0  0  0  0  0  0  0  0  0  0  0
   23.7490   69.6167   -2.2317 O   0  0  0  0  0  0  0  0  0  0  0  0
   21.9374   70.3359    1.4110 O   0  0  0  0  0  0  0  0  0  0  0  0
   21.3149   72.0015   -0.9069 O   0  0  0  0  0  0  0  0  0  0  0  0
   24.6729   69.3573    1.3097 O   0  0  0  0  0  0  0  0  0  0  0  0
   22.8417   70.5820    0.3342 C   0  0  2  0  0  0  0  0  0  0  0  0
   22.0532   70.7862   -0.9597 C   0  0  2  0  0  0  0  0  0  0  0  0
   23.7675   69.3701    0.2077 C   0  0  1  0  0  0  0  0  0  0  0  0
   22.9877   70.8234   -2.1698 C   0  0  1  0  0  0  0  0  0  0  0  0
   24.5748   69.4184   -1.0863 C   0  0  1  0  0  0  0  0  0  0  0  0
   21.3389   71.0930    1.5103 H   0  0  0  0  0  0  0  0  0  0  0  0
   20.7201   71.9849   -0.1413 H   0  0  0  0  0  0  0  0  0  0  0  0
   24.1717   69.3268    2.1396 H   0  0  0  0  0  0  0  0  0  0  0  0
   25.7794   68.0857   -2.5945 O   0  0  0  0  0  0  0  0  0  0  0  0
   25.2396   67.1540   -0.5846 O   0  0  0  0  0  0  0  0  0  0  0  0
   25.2172   68.0976   -1.3605 C   0  0  0  0  0  0  0  0  0  0  0  0
  1  4  1  0
  1 24  1  0
  1  2  1  1
  1  3  2  0
 25 28  1  0
 25 24  1  0
 25 26  1  1
 25 27  2  0
  6 11  1  0
  6 12  1  0
 29 36  1  0
 29 37  1  0
  9  7  1  6
  7 13  1  0
 10  8  1  1
  8 14  1  0
  4  5  1  0
 36 28  1  1
 33 30  1  1
 30 38  1  0
 34 31  1  1
 31 39  1  0
 35 32  1  1
 32 40  1  0
 41 43  1  0
 15 19  2  0
 42 43  2  0
 16 22  2  0
 12 17  1  6
 17 19  1  0
 17 20  1  0
 18 19  1  0
 18 22  1  0
 18 23  1  0
  9 10  1  0
  9 11  1  0
 10 12  1  0
 11  5  1  6
 33 34  1  0
 33 35  1  0
 34 36  1  0
 35 37  1  0
 37 43  1  6
 20 21  2  0
 21 22  1  0
M  CHG  3   2  -1  26  -1  41  -1
M  END
>  <COMPND>  (135) 
    udp_gluA.pdb 

>  <AUTHOR>  (135) 
    GENERATED BY OPEN BABEL 3.1.1

>  <MASTER>  (135) 
        0    0    0    0    0    0    0    0   56    0   56    0

>  <minimizedAffinity>  (135) 
-8.20496

>  <CNNscore>  (135) 
0.4603603482

>  <CNNaffinity>  (135) 
4.4645004272

>  <CNN_VS>  (135) 
2.0552790165

>  <CNNaffinity_variance>  (135) 
0.1045257896

$$$$
136
     RDKit          3D

 43 45  0  0  0  0  0  0  0  0999 V2000
   20.7462   71.6473   -2.6936 P   0  0  2  0  0  0  0  0  0  0  0  0
   20.4893   73.1736   -2.2210 O   0  0  0  0  0  0  0  0  0  0  0  0
   19.5041   70.8348   -2.9141 O   0  0  0  0  0  0  0  0  0  0  0  0
   21.7785   71.0676   -1.5907 O   0  0  0  0  0  0  0  0  0  0  0  0
   22.3616   71.9711   -0.6697 C   0  0  0  0  0  0  0  0  0  0  0  0
   22.7191   69.8521    0.4072 O   0  0  0  0  0  0  0  0  0  0  0  0
   23.6248   71.4274    2.7925 O   0  0  0  0  0  0  0  0  0  0  0  0
   25.9813   70.6393    1.6692 O   0  0  0  0  0  0  0  0  0  0  0  0
   23.8109   71.7029    1.4040 C   0  0  1  0  0  0  0  0  0  0  0  0
   24.8597   70.7789    0.8223 C   0  0  2  0  0  0  0  0  0  0  0  0
   22.5541   71.2633    0.6653 C   0  0  1  0  0  0  0  0  0  0  0  0
   24.0838   69.4828    0.6611 C   0  0  2  0  0  0  0  0  0  0  0  0
   24.4151   71.6999    3.2853 H   0  0  0  0  0  0  0  0  0  0  0  0
   26.4415   71.4909    1.7392 H   0  0  0  0  0  0  0  0  0  0  0  0
   24.3088   66.6679    0.7095 O   0  0  0  0  0  0  0  0  0  0  0  0
   25.9400   66.5419   -3.5995 O   0  0  0  0  0  0  0  0  0  0  0  0
   24.5643   68.6890   -0.4343 N   0  0  0  0  0  0  0  0  0  0  0  0
   25.1220   66.6079   -1.4363 N   0  0  0  0  0  0  0  0  0  0  0  0
   24.6383   67.2818   -0.3072 C   0  0  0  0  0  0  0  0  0  0  0  0
   24.9541   69.3040   -1.6178 C   0  0  0  0  0  0  0  0  0  0  0  0
   25.4131   68.6484   -2.6856 C   0  0  0  0  0  0  0  0  0  0  0  0
   25.5224   67.1757   -2.6350 C   0  0  0  0  0  0  0  0  0  0  0  0
   25.1845   65.6275   -1.3710 H   0  0  0  0  0  0  0  0  0  0  0  0
   21.6761   71.8248   -4.0038 O   0  0  0  0  0  0  0  0  0  0  0  0
   21.5386   72.8111   -5.2773 P   0  0  2  0  0  0  0  0  0  0  0  0
   22.7857   72.3804   -6.2151 O   0  0  0  0  0  0  0  0  0  0  0  0
   21.5045   74.2702   -4.9254 O   0  0  0  0  0  0  0  0  0  0  0  0
   20.2344   72.2820   -6.0658 O   0  0  0  0  0  0  0  0  0  0  0  0
   19.1328   70.1857   -6.0336 O   0  0  0  0  0  0  0  0  0  0  0  0
   18.6148   71.3473   -9.9643 O   0  0  0  0  0  0  0  0  0  0  0  0
   21.1805   71.7506   -8.6268 O   0  0  0  0  0  0  0  0  0  0  0  0
   16.4016   71.5215   -8.0875 O   0  0  0  0  0  0  0  0  0  0  0  0
   18.7646   71.5393   -8.5577 C   0  0  2  0  0  0  0  0  0  0  0  0
   20.1101   70.9723   -8.1042 C   0  0  2  0  0  0  0  0  0  0  0  0
   17.6163   70.8106   -7.8560 C   0  0  1  0  0  0  0  0  0  0  0  0
   20.2085   70.9510   -6.5782 C   0  0  1  0  0  0  0  0  0  0  0  0
   17.8501   70.7216   -6.3507 C   0  0  1  0  0  0  0  0  0  0  0  0
   19.3337   71.8017  -10.4312 H   0  0  0  0  0  0  0  0  0  0  0  0
   21.1241   71.7687   -9.5947 H   0  0  0  0  0  0  0  0  0  0  0  0
   16.2412   71.5853   -9.0420 H   0  0  0  0  0  0  0  0  0  0  0  0
   16.7411   70.0149   -4.4085 O   0  0  0  0  0  0  0  0  0  0  0  0
   16.3694   68.8170   -6.3127 O   0  0  0  0  0  0  0  0  0  0  0  0
   16.9127   69.7405   -5.7254 C   0  0  0  0  0  0  0  0  0  0  0  0
  1  4  1  0
  1 24  1  0
  1  2  1  1
  1  3  2  0
 25 28  1  0
 25 24  1  0
 25 26  1  6
 25 27  2  0
  6 11  1  0
  6 12  1  0
 29 36  1  0
 29 37  1  0
  9  7  1  1
  7 13  1  0
 10  8  1  1
  8 14  1  0
  4  5  1  0
 36 28  1  1
 33 30  1  6
 30 38  1  0
 34 31  1  6
 31 39  1  0
 35 32  1  1
 32 40  1  0
 41 43  1  0
 15 19  2  0
 42 43  2  0
 16 22  2  0
 12 17  1  6
 17 19  1  0
 17 20  1  0
 18 19  1  0
 18 22  1  0
 18 23  1  0
  9 10  1  0
  9 11  1  0
 10 12  1  0
 11  5  1  6
 33 34  1  0
 33 35  1  0
 34 36  1  0
 35 37  1  0
 37 43  1  1
 20 21  2  0
 21 22  1  0
M  CHG  3   2  -1  26  -1  41  -1
M  END
>  <COMPND>  (136) 
    udp_gluA.pdb 

>  <AUTHOR>  (136) 
    GENERATED BY OPEN BABEL 3.1.1

>  <MASTER>  (136) 
        0    0    0    0    0    0    0    0   56    0   56    0

>  <minimizedAffinity>  (136) 
-8.58778

>  <CNNscore>  (136) 
0.4354863167

>  <CNNaffinity>  (136) 
4.4261560440

>  <CNN_VS>  (136) 
1.9275304079

>  <CNNaffinity_variance>  (136) 
0.1321825385

$$$$
137
     RDKit          3D

 43 45  0  0  0  0  0  0  0  0999 V2000
   18.4963   72.7467   -2.3662 P   0  0  2  0  0  0  0  0  0  0  0  0
   17.8697   73.9115   -3.2986 O   0  0  0  0  0  0  0  0  0  0  0  0
   17.5335   71.6662   -1.9695 O   0  0  0  0  0  0  0  0  0  0  0  0
   19.1871   73.5548   -1.1466 O   0  0  0  0  0  0  0  0  0  0  0  0
   20.4736   73.1535   -0.7124 C   0  0  0  0  0  0  0  0  0  0  0  0
   20.8813   70.9133    0.0577 O   0  0  0  0  0  0  0  0  0  0  0  0
   20.4888   71.9929    2.8275 O   0  0  0  0  0  0  0  0  0  0  0  0
   23.2039   71.8370    2.6280 O   0  0  0  0  0  0  0  0  0  0  0  0
   21.0971   72.6124    1.6940 C   0  0  1  0  0  0  0  0  0  0  0  0
   22.4630   72.0113    1.4384 C   0  0  2  0  0  0  0  0  0  0  0  0
   20.3238   72.1852    0.4539 C   0  0  1  0  0  0  0  0  0  0  0  0
   22.1077   70.6930    0.7722 C   0  0  2  0  0  0  0  0  0  0  0  0
   20.9657   72.2511    3.6322 H   0  0  0  0  0  0  0  0  0  0  0  0
   23.4053   72.7046    3.0135 H   0  0  0  0  0  0  0  0  0  0  0  0
   24.4806   69.3524    1.5130 O   0  0  0  0  0  0  0  0  0  0  0  0
   25.9028   69.0691   -2.8621 O   0  0  0  0  0  0  0  0  0  0  0  0
   23.1154   70.2575   -0.1529 N   0  0  0  0  0  0  0  0  0  0  0  0
   25.1872   69.2135   -0.6667 N   0  0  0  0  0  0  0  0  0  0  0  0
   24.2704   69.5928    0.3226 C   0  0  0  0  0  0  0  0  0  0  0  0
   22.9537   70.4880   -1.5137 C   0  0  0  0  0  0  0  0  0  0  0  0
   23.8363   70.1205   -2.4447 C   0  0  0  0  0  0  0  0  0  0  0  0
   25.0707   69.4213   -2.0315 C   0  0  0  0  0  0  0  0  0  0  0  0
   26.0002   68.7509   -0.3596 H   0  0  0  0  0  0  0  0  0  0  0  0
   19.7647   72.2352   -3.2278 O   0  0  0  0  0  0  0  0  0  0  0  0
   20.4035   72.7873   -4.6066 P   0  0  2  0  0  0  0  0  0  0  0  0
   21.8013   71.9783   -4.7166 O   0  0  0  0  0  0  0  0  0  0  0  0
   20.5470   74.2806   -4.6642 O   0  0  0  0  0  0  0  0  0  0  0  0
   19.4767   72.1584   -5.7676 O   0  0  0  0  0  0  0  0  0  0  0  0
   18.8060   69.9107   -5.4407 O   0  0  0  0  0  0  0  0  0  0  0  0
   17.7148   70.5499   -9.3737 O   0  0  0  0  0  0  0  0  0  0  0  0
   20.2673   71.5496   -8.3638 O   0  0  0  0  0  0  0  0  0  0  0  0
   15.6918   70.5081   -7.2865 O   0  0  0  0  0  0  0  0  0  0  0  0
   17.9538   70.9088   -8.0128 C   0  0  2  0  0  0  0  0  0  0  0  0
   19.4191   70.6465   -7.6641 C   0  0  2  0  0  0  0  0  0  0  0  0
   17.0364   70.0584   -7.1313 C   0  0  1  0  0  0  0  0  0  0  0  0
   19.6598   70.7998   -6.1617 C   0  0  1  0  0  0  0  0  0  0  0  0
   17.4205   70.1681   -5.6586 C   0  0  1  0  0  0  0  0  0  0  0  0
   18.2870   71.0777   -9.9528 H   0  0  0  0  0  0  0  0  0  0  0  0
   20.1196   71.4579   -9.3179 H   0  0  0  0  0  0  0  0  0  0  0  0
   15.4349   70.4435   -8.2196 H   0  0  0  0  0  0  0  0  0  0  0  0
   16.1821   68.1761   -5.6668 O   0  0  0  0  0  0  0  0  0  0  0  0
   16.7172   69.0599   -3.6341 O   0  0  0  0  0  0  0  0  0  0  0  0
   16.7507   69.1015   -4.8548 C   0  0  0  0  0  0  0  0  0  0  0  0
  1  4  1  0
  1 24  1  0
  1  2  1  6
  1  3  2  0
 25 28  1  0
 25 24  1  0
 25 26  1  6
 25 27  2  0
  6 11  1  0
  6 12  1  0
 29 36  1  0
 29 37  1  0
  9  7  1  1
  7 13  1  0
 10  8  1  1
  8 14  1  0
  4  5  1  0
 36 28  1  1
 33 30  1  6
 30 38  1  0
 34 31  1  6
 31 39  1  0
 35 32  1  1
 32 40  1  0
 41 43  1  0
 15 19  2  0
 42 43  2  0
 16 22  2  0
 12 17  1  6
 17 19  1  0
 17 20  1  0
 18 19  1  0
 18 22  1  0
 18 23  1  0
  9 10  1  0
  9 11  1  0
 10 12  1  0
 11  5  1  6
 33 34  1  0
 33 35  1  0
 34 36  1  0
 35 37  1  0
 37 43  1  1
 20 21  2  0
 21 22  1  0
M  CHG  3   2  -1  26  -1  41  -1
M  END
>  <COMPND>  (137) 
    udp_gluA.pdb 

>  <AUTHOR>  (137) 
    GENERATED BY OPEN BABEL 3.1.1

>  <MASTER>  (137) 
        0    0    0    0    0    0    0    0   56    0   56    0

>  <minimizedAffinity>  (137) 
-8.11850

>  <CNNscore>  (137) 
0.4238004088

>  <CNNaffinity>  (137) 
4.1052656174

>  <CNN_VS>  (137) 
1.7398132086

>  <CNNaffinity_variance>  (137) 
0.3607403636

$$$$
138
     RDKit          3D

 43 45  0  0  0  0  0  0  0  0999 V2000
   22.9607   73.0293   -3.2337 P   0  0  2  0  0  0  0  0  0  0  0  0
   24.0468   71.9022   -3.6448 O   0  0  0  0  0  0  0  0  0  0  0  0
   23.4312   74.4465   -3.3821 O   0  0  0  0  0  0  0  0  0  0  0  0
   22.4949   72.5957   -1.7461 O   0  0  0  0  0  0  0  0  0  0  0  0
   23.4511   72.6260   -0.7025 C   0  0  0  0  0  0  0  0  0  0  0  0
   23.9843   71.6469    1.4270 O   0  0  0  0  0  0  0  0  0  0  0  0
   21.5365   69.9557    1.0531 O   0  0  0  0  0  0  0  0  0  0  0  0
   20.6690   71.8880    2.7705 O   0  0  0  0  0  0  0  0  0  0  0  0
   21.7626   71.3141    0.6760 C   0  0  1  0  0  0  0  0  0  0  0  0
   21.7311   72.2091    1.8967 C   0  0  2  0  0  0  0  0  0  0  0  0
   23.2112   71.4415    0.2248 C   0  0  1  0  0  0  0  0  0  0  0  0
   23.0948   71.9491    2.5137 C   0  0  2  0  0  0  0  0  0  0  0  0
   20.6172   69.8495    1.3452 H   0  0  0  0  0  0  0  0  0  0  0  0
   19.8228   72.0712    2.3318 H   0  0  0  0  0  0  0  0  0  0  0  0
   22.4494   72.5663    5.1930 O   0  0  0  0  0  0  0  0  0  0  0  0
   25.0897   76.3440    5.1504 O   0  0  0  0  0  0  0  0  0  0  0  0
   23.5995   73.0878    3.2274 N   0  0  0  0  0  0  0  0  0  0  0  0
   23.7642   74.4478    5.1689 N   0  0  0  0  0  0  0  0  0  0  0  0
   23.2129   73.3070    4.5708 C   0  0  0  0  0  0  0  0  0  0  0  0
   24.4678   73.9716    2.5982 C   0  0  0  0  0  0  0  0  0  0  0  0
   24.9852   75.0546    3.1815 C   0  0  0  0  0  0  0  0  0  0  0  0
   24.6312   75.3565    4.5840 C   0  0  0  0  0  0  0  0  0  0  0  0
   23.5081   74.6225    6.1034 H   0  0  0  0  0  0  0  0  0  0  0  0
   21.6793   72.6467   -4.1417 O   0  0  0  0  0  0  0  0  0  0  0  0
   21.2738   73.0856   -5.6439 P   0  0  2  0  0  0  0  0  0  0  0  0
   22.3937   72.3565   -6.5574 O   0  0  0  0  0  0  0  0  0  0  0  0
   21.1802   74.5701   -5.8476 O   0  0  0  0  0  0  0  0  0  0  0  0
   19.9101   72.2804   -5.9515 O   0  0  0  0  0  0  0  0  0  0  0  0
   19.2119   70.1336   -5.2355 O   0  0  0  0  0  0  0  0  0  0  0  0
   17.4480   70.3916   -8.9624 O   0  0  0  0  0  0  0  0  0  0  0  0
   20.1840   71.3293   -8.5509 O   0  0  0  0  0  0  0  0  0  0  0  0
   15.8418   70.7210   -6.5619 O   0  0  0  0  0  0  0  0  0  0  0  0
   17.9479   70.8865   -7.7202 C   0  0  2  0  0  0  0  0  0  0  0  0
   19.4392   70.5696   -7.6060 C   0  0  2  0  0  0  0  0  0  0  0  0
   17.1708   70.2042   -6.5921 C   0  0  1  0  0  0  0  0  0  0  0  0
   19.9577   70.8766   -6.2004 C   0  0  1  0  0  0  0  0  0  0  0  0
   17.8228   70.4552   -5.2355 C   0  0  1  0  0  0  0  0  0  0  0  0
   17.9271   70.8113   -9.6942 H   0  0  0  0  0  0  0  0  0  0  0  0
   19.8601   71.1396   -9.4450 H   0  0  0  0  0  0  0  0  0  0  0  0
   15.4156   70.5678   -7.4197 H   0  0  0  0  0  0  0  0  0  0  0  0
   16.0983   70.0177   -3.7070 O   0  0  0  0  0  0  0  0  0  0  0  0
   17.7811   68.4851   -3.8433 O   0  0  0  0  0  0  0  0  0  0  0  0
   17.2650   69.5335   -4.2003 C   0  0  0  0  0  0  0  0  0  0  0  0
  1  4  1  0
  1 24  1  0
  1  2  1  6
  1  3  2  0
 25 28  1  0
 25 24  1  0
 25 26  1  6
 25 27  2  0
  6 11  1  0
  6 12  1  0
 29 36  1  0
 29 37  1  0
  9  7  1  1
  7 13  1  0
 10  8  1  1
  8 14  1  0
  4  5  1  0
 36 28  1  1
 33 30  1  6
 30 38  1  0
 34 31  1  6
 31 39  1  0
 35 32  1  1
 32 40  1  0
 41 43  1  0
 15 19  2  0
 42 43  2  0
 16 22  2  0
 12 17  1  6
 17 19  1  0
 17 20  1  0
 18 19  1  0
 18 22  1  0
 18 23  1  0
  9 10  1  0
  9 11  1  0
 10 12  1  0
 11  5  1  6
 33 34  1  0
 33 35  1  0
 34 36  1  0
 35 37  1  0
 37 43  1  1
 20 21  2  0
 21 22  1  0
M  CHG  3   2  -1  26  -1  41  -1
M  END
>  <COMPND>  (138) 
    udp_gluA.pdb 

>  <AUTHOR>  (138) 
    GENERATED BY OPEN BABEL 3.1.1

>  <MASTER>  (138) 
        0    0    0    0    0    0    0    0   56    0   56    0

>  <minimizedAffinity>  (138) 
-7.26469

>  <CNNscore>  (138) 
0.4171050191

>  <CNNaffinity>  (138) 
4.0177049637

>  <CNN_VS>  (138) 
1.6758048534

>  <CNNaffinity_variance>  (138) 
0.1378415674

$$$$
139
     RDKit          3D

 43 45  0  0  0  0  0  0  0  0999 V2000
   22.7486   74.1018   -5.0874 P   0  0  2  0  0  0  0  0  0  0  0  0
   23.1287   73.3099   -6.4465 O   0  0  0  0  0  0  0  0  0  0  0  0
   23.1467   75.5485   -5.0646 O   0  0  0  0  0  0  0  0  0  0  0  0
   23.3760   73.1819   -3.9134 O   0  0  0  0  0  0  0  0  0  0  0  0
   22.7824   73.2272   -2.6288 C   0  0  0  0  0  0  0  0  0  0  0  0
   23.1960   71.1175   -1.5538 O   0  0  0  0  0  0  0  0  0  0  0  0
   20.2243   70.7197   -1.6056 O   0  0  0  0  0  0  0  0  0  0  0  0
   20.6760   71.5019    0.9673 O   0  0  0  0  0  0  0  0  0  0  0  0
   20.9721   71.9202   -1.4096 C   0  0  1  0  0  0  0  0  0  0  0  0
   21.5827   71.9369   -0.0242 C   0  0  2  0  0  0  0  0  0  0  0  0
   22.2051   71.8564   -2.3005 C   0  0  1  0  0  0  0  0  0  0  0  0
   22.7644   70.9965   -0.1891 C   0  0  2  0  0  0  0  0  0  0  0  0
   19.4314   70.7374   -1.0465 H   0  0  0  0  0  0  0  0  0  0  0  0
   19.9423   72.1338    1.0341 H   0  0  0  0  0  0  0  0  0  0  0  0
   24.5093   69.1105    0.9833 O   0  0  0  0  0  0  0  0  0  0  0  0
   26.9251   72.4023    3.1214 O   0  0  0  0  0  0  0  0  0  0  0  0
   23.8578   71.3333    0.6780 N   0  0  0  0  0  0  0  0  0  0  0  0
   25.7103   70.7517    2.0479 N   0  0  0  0  0  0  0  0  0  0  0  0
   24.6743   70.3097    1.2145 C   0  0  0  0  0  0  0  0  0  0  0  0
   24.1133   72.6636    0.9874 C   0  0  0  0  0  0  0  0  0  0  0  0
   25.1046   73.0695    1.7833 C   0  0  0  0  0  0  0  0  0  0  0  0
   26.0034   72.0631    2.3854 C   0  0  0  0  0  0  0  0  0  0  0  0
   26.2909   70.0572    2.4350 H   0  0  0  0  0  0  0  0  0  0  0  0
   21.1601   73.8382   -4.9459 O   0  0  0  0  0  0  0  0  0  0  0  0
   19.9056   74.4524   -5.7599 P   0  0  2  0  0  0  0  0  0  0  0  0
   20.6063   75.4665   -6.8091 O   0  0  0  0  0  0  0  0  0  0  0  0
   18.8590   75.0874   -4.8908 O   0  0  0  0  0  0  0  0  0  0  0  0
   19.3705   73.2318   -6.6689 O   0  0  0  0  0  0  0  0  0  0  0  0
   18.8386   71.1225   -5.7323 O   0  0  0  0  0  0  0  0  0  0  0  0
   19.3722   70.1633   -9.7152 O   0  0  0  0  0  0  0  0  0  0  0  0
   21.1945   72.0165   -8.3813 O   0  0  0  0  0  0  0  0  0  0  0  0
   16.6927   70.3232   -8.5991 O   0  0  0  0  0  0  0  0  0  0  0  0
   19.0071   70.9927   -8.6121 C   0  0  2  0  0  0  0  0  0  0  0  0
   20.2247   71.2164   -7.7150 C   0  0  2  0  0  0  0  0  0  0  0  0
   17.8961   70.2835   -7.8345 C   0  0  1  0  0  0  0  0  0  0  0  0
   19.8234   71.9043   -6.4094 C   0  0  1  0  0  0  0  0  0  0  0  0
   17.6414   70.9561   -6.4887 C   0  0  1  0  0  0  0  0  0  0  0  0
   20.0771   70.5937  -10.2242 H   0  0  0  0  0  0  0  0  0  0  0  0
   21.4535   71.5861   -9.2108 H   0  0  0  0  0  0  0  0  0  0  0  0
   16.8413   69.8984   -9.4583 H   0  0  0  0  0  0  0  0  0  0  0  0
   16.5258   68.9095   -6.2273 O   0  0  0  0  0  0  0  0  0  0  0  0
   16.4289   70.3769   -4.4847 O   0  0  0  0  0  0  0  0  0  0  0  0
   16.8073   70.0830   -5.6087 C   0  0  0  0  0  0  0  0  0  0  0  0
  1  4  1  0
  1 24  1  0
  1  2  1  6
  1  3  2  0
 25 28  1  0
 25 24  1  0
 25 26  1  6
 25 27  2  0
  6 11  1  0
  6 12  1  0
 29 36  1  0
 29 37  1  0
  9  7  1  1
  7 13  1  0
 10  8  1  1
  8 14  1  0
  4  5  1  0
 36 28  1  6
 33 30  1  6
 30 38  1  0
 34 31  1  6
 31 39  1  0
 35 32  1  6
 32 40  1  0
 41 43  1  0
 15 19  2  0
 42 43  2  0
 16 22  2  0
 12 17  1  1
 17 19  1  0
 17 20  1  0
 18 19  1  0
 18 22  1  0
 18 23  1  0
  9 10  1  0
  9 11  1  0
 10 12  1  0
 11  5  1  1
 33 34  1  0
 33 35  1  0
 34 36  1  0
 35 37  1  0
 37 43  1  1
 20 21  2  0
 21 22  1  0
M  CHG  3   2  -1  26  -1  41  -1
M  END
>  <COMPND>  (139) 
    udp_gluA.pdb 

>  <AUTHOR>  (139) 
    GENERATED BY OPEN BABEL 3.1.1

>  <MASTER>  (139) 
        0    0    0    0    0    0    0    0   56    0   56    0

>  <minimizedAffinity>  (139) 
-7.04396

>  <CNNscore>  (139) 
0.4101729691

>  <CNNaffinity>  (139) 
4.1147956848

>  <CNN_VS>  (139) 
1.6877779961

>  <CNNaffinity_variance>  (139) 
0.0979132280

$$$$
140
     RDKit          3D

 43 45  0  0  0  0  0  0  0  0999 V2000
   15.4244   71.9056   -2.2045 P   0  0  2  0  0  0  0  0  0  0  0  0
   15.9680   73.1390   -1.3089 O   0  0  0  0  0  0  0  0  0  0  0  0
   14.2663   72.2351   -3.1001 O   0  0  0  0  0  0  0  0  0  0  0  0
   15.1659   70.7271   -1.1266 O   0  0  0  0  0  0  0  0  0  0  0  0
   13.9855   70.7717   -0.3460 C   0  0  0  0  0  0  0  0  0  0  0  0
   12.8829   68.6666   -0.7074 O   0  0  0  0  0  0  0  0  0  0  0  0
   10.6051   70.2635   -1.8268 O   0  0  0  0  0  0  0  0  0  0  0  0
    9.7360   69.6681    0.6884 O   0  0  0  0  0  0  0  0  0  0  0  0
   11.4802   70.5750   -0.7425 C   0  0  1  0  0  0  0  0  0  0  0  0
   11.1296   69.7397    0.4706 C   0  0  2  0  0  0  0  0  0  0  0  0
   12.8680   70.0575   -1.0953 C   0  0  1  0  0  0  0  0  0  0  0  0
   11.7355   68.3934    0.1124 C   0  0  2  0  0  0  0  0  0  0  0  0
    9.7119   70.5844   -1.6244 H   0  0  0  0  0  0  0  0  0  0  0  0
    9.3982   70.5496    0.9135 H   0  0  0  0  0  0  0  0  0  0  0  0
   11.8375   65.5747    0.2559 O   0  0  0  0  0  0  0  0  0  0  0  0
   13.3570   65.6689    4.6063 O   0  0  0  0  0  0  0  0  0  0  0  0
   12.1540   67.6553    1.2704 N   0  0  0  0  0  0  0  0  0  0  0  0
   12.5932   65.6243    2.4228 N   0  0  0  0  0  0  0  0  0  0  0  0
   12.1687   66.2408    1.2385 C   0  0  0  0  0  0  0  0  0  0  0  0
   12.5454   68.3313    2.4196 C   0  0  0  0  0  0  0  0  0  0  0  0
   12.9478   67.7298    3.5408 C   0  0  0  0  0  0  0  0  0  0  0  0
   12.9914   66.2537    3.5911 C   0  0  0  0  0  0  0  0  0  0  0  0
   12.6099   64.6399    2.4254 H   0  0  0  0  0  0  0  0  0  0  0  0
   16.7528   71.4057   -2.9780 O   0  0  0  0  0  0  0  0  0  0  0  0
   17.2997   69.9177   -3.2950 P   0  0  2  0  0  0  0  0  0  0  0  0
   15.9571   69.1081   -3.6977 O   0  0  0  0  0  0  0  0  0  0  0  0
   18.0830   69.2977   -2.1742 O   0  0  0  0  0  0  0  0  0  0  0  0
   18.1153   70.0676   -4.6788 O   0  0  0  0  0  0  0  0  0  0  0  0
   19.2871   71.8613   -5.6881 O   0  0  0  0  0  0  0  0  0  0  0  0
   17.5348   70.0530   -8.9634 O   0  0  0  0  0  0  0  0  0  0  0  0
   16.0284   70.4082   -6.4857 O   0  0  0  0  0  0  0  0  0  0  0  0
   20.3702   69.6861   -8.4373 O   0  0  0  0  0  0  0  0  0  0  0  0
   18.1267   70.1057   -7.6654 C   0  0  2  0  0  0  0  0  0  0  0  0
   17.2900   71.0075   -6.7576 C   0  0  2  0  0  0  0  0  0  0  0  0
   19.5428   70.6665   -7.8138 C   0  0  1  0  0  0  0  0  0  0  0  0
   18.0108   71.2725   -5.4351 C   0  0  1  0  0  0  0  0  0  0  0  0
   20.1457   71.0229   -6.4581 C   0  0  1  0  0  0  0  0  0  0  0  0
   16.6339   69.6996   -8.8941 H   0  0  0  0  0  0  0  0  0  0  0  0
   15.5656   70.2370   -7.3205 H   0  0  0  0  0  0  0  0  0  0  0  0
   19.9974   69.4504   -9.3011 H   0  0  0  0  0  0  0  0  0  0  0  0
   21.4737   72.3080   -7.9026 O   0  0  0  0  0  0  0  0  0  0  0  0
   22.1731   72.1168   -5.7408 O   0  0  0  0  0  0  0  0  0  0  0  0
   21.3708   71.8615   -6.6263 C   0  0  0  0  0  0  0  0  0  0  0  0
  1  4  1  0
  1 24  1  0
  1  2  1  1
  1  3  2  0
 25 28  1  0
 25 24  1  0
 25 26  1  6
 25 27  2  0
  6 11  1  0
  6 12  1  0
 29 36  1  0
 29 37  1  0
  9  7  1  6
  7 13  1  0
 10  8  1  6
  8 14  1  0
  4  5  1  0
 36 28  1  6
 33 30  1  6
 30 38  1  0
 34 31  1  1
 31 39  1  0
 35 32  1  1
 32 40  1  0
 41 43  1  0
 15 19  2  0
 42 43  2  0
 16 22  2  0
 12 17  1  1
 17 19  1  0
 17 20  1  0
 18 19  1  0
 18 22  1  0
 18 23  1  0
  9 10  1  0
  9 11  1  0
 10 12  1  0
 11  5  1  1
 33 34  1  0
 33 35  1  0
 34 36  1  0
 35 37  1  0
 37 43  1  6
 20 21  2  0
 21 22  1  0
M  CHG  3   2  -1  26  -1  41  -1
M  END
>  <COMPND>  (140) 
    udp_gluA.pdb 

>  <AUTHOR>  (140) 
    GENERATED BY OPEN BABEL 3.1.1

>  <MASTER>  (140) 
        0    0    0    0    0    0    0    0   56    0   56    0

>  <minimizedAffinity>  (140) 
-6.85972

>  <CNNscore>  (140) 
0.4030669332

>  <CNNaffinity>  (140) 
3.9729270935

>  <CNN_VS>  (140) 
1.6013555527

>  <CNNaffinity_variance>  (140) 
0.1736451089

$$$$
141
     RDKit          3D

 43 45  0  0  0  0  0  0  0  0999 V2000
   22.4178   71.6001   -2.8417 P   0  0  2  0  0  0  0  0  0  0  0  0
   22.1563   73.1808   -2.6138 O   0  0  0  0  0  0  0  0  0  0  0  0
   23.8449   71.2273   -3.1174 O   0  0  0  0  0  0  0  0  0  0  0  0
   21.3508   71.1909   -3.9871 O   0  0  0  0  0  0  0  0  0  0  0  0
   20.4206   70.1608   -3.7078 C   0  0  0  0  0  0  0  0  0  0  0  0
   18.7196   71.4898   -4.7652 O   0  0  0  0  0  0  0  0  0  0  0  0
   16.8330   70.3635   -2.7247 O   0  0  0  0  0  0  0  0  0  0  0  0
   16.2771   68.8710   -4.9382 O   0  0  0  0  0  0  0  0  0  0  0  0
   17.9336   69.7349   -3.3820 C   0  0  1  0  0  0  0  0  0  0  0  0
   17.5742   69.4164   -4.8178 C   0  0  2  0  0  0  0  0  0  0  0  0
   19.0345   70.7729   -3.5518 C   0  0  1  0  0  0  0  0  0  0  0  0
   17.7009   70.7761   -5.4836 C   0  0  2  0  0  0  0  0  0  0  0  0
   16.1169   69.7197   -2.6050 H   0  0  0  0  0  0  0  0  0  0  0  0
   16.2481   68.0060   -4.4988 H   0  0  0  0  0  0  0  0  0  0  0  0
   15.9234   70.1759   -7.5947 O   0  0  0  0  0  0  0  0  0  0  0  0
   19.2851   70.4215  -10.7384 O   0  0  0  0  0  0  0  0  0  0  0  0
   18.0850   70.6769   -6.8633 N   0  0  0  0  0  0  0  0  0  0  0  0
   17.5996   70.2978   -9.1583 N   0  0  0  0  0  0  0  0  0  0  0  0
   17.1142   70.3702   -7.8460 C   0  0  0  0  0  0  0  0  0  0  0  0
   19.4088   70.8840   -7.2313 C   0  0  0  0  0  0  0  0  0  0  0  0
   19.8564   70.8117   -8.4864 C   0  0  0  0  0  0  0  0  0  0  0  0
   18.9067   70.4951   -9.5732 C   0  0  0  0  0  0  0  0  0  0  0  0
   16.9426   70.0835   -9.8596 H   0  0  0  0  0  0  0  0  0  0  0  0
   21.7931   70.9331   -1.5083 O   0  0  0  0  0  0  0  0  0  0  0  0
   22.4332   70.6886   -0.0440 P   0  0  2  0  0  0  0  0  0  0  0  0
   23.8736   70.0284   -0.3755 O   0  0  0  0  0  0  0  0  0  0  0  0
   21.5740   69.8689    0.8746 O   0  0  0  0  0  0  0  0  0  0  0  0
   22.7788   72.1661    0.5035 O   0  0  0  0  0  0  0  0  0  0  0  0
   24.1952   73.9492   -0.1475 O   0  0  0  0  0  0  0  0  0  0  0  0
   24.7837   73.8577    3.9407 O   0  0  0  0  0  0  0  0  0  0  0  0
   24.6440   71.3742    2.4087 O   0  0  0  0  0  0  0  0  0  0  0  0
   23.1312   75.9322    2.7504 O   0  0  0  0  0  0  0  0  0  0  0  0
   24.0493   73.7048    2.7261 C   0  0  2  0  0  0  0  0  0  0  0  0
   24.7421   72.6729    1.8357 C   0  0  2  0  0  0  0  0  0  0  0  0
   24.0028   75.0653    2.0270 C   0  0  1  0  0  0  0  0  0  0  0  0
   24.1194   72.6493    0.4391 C   0  0  1  0  0  0  0  0  0  0  0  0
   23.4880   74.9392    0.5961 C   0  0  1  0  0  0  0  0  0  0  0  0
   24.8265   73.0055    4.4024 H   0  0  0  0  0  0  0  0  0  0  0  0
   25.0370   71.3819    3.2952 H   0  0  0  0  0  0  0  0  0  0  0  0
   23.4476   76.0209    3.6630 H   0  0  0  0  0  0  0  0  0  0  0  0
   22.7587   77.0926    0.0194 O   0  0  0  0  0  0  0  0  0  0  0  0
   24.7290   76.3849   -0.8840 O   0  0  0  0  0  0  0  0  0  0  0  0
   23.7528   76.1910   -0.1752 C   0  0  0  0  0  0  0  0  0  0  0  0
  1  4  1  0
  1 24  1  0
  1  2  1  1
  1  3  2  0
 25 28  1  0
 25 24  1  0
 25 26  1  6
 25 27  2  0
  6 11  1  0
  6 12  1  0
 29 36  1  0
 29 37  1  0
  9  7  1  1
  7 13  1  0
 10  8  1  1
  8 14  1  0
  4  5  1  0
 36 28  1  1
 33 30  1  1
 30 38  1  0
 34 31  1  1
 31 39  1  0
 35 32  1  1
 32 40  1  0
 41 43  1  0
 15 19  2  0
 42 43  2  0
 16 22  2  0
 12 17  1  6
 17 19  1  0
 17 20  1  0
 18 19  1  0
 18 22  1  0
 18 23  1  0
  9 10  1  0
  9 11  1  0
 10 12  1  0
 11  5  1  6
 33 34  1  0
 33 35  1  0
 34 36  1  0
 35 37  1  0
 37 43  1  6
 20 21  2  0
 21 22  1  0
M  CHG  3   2  -1  26  -1  41  -1
M  END
>  <COMPND>  (141) 
    udp_gluA.pdb 

>  <AUTHOR>  (141) 
    GENERATED BY OPEN BABEL 3.1.1

>  <MASTER>  (141) 
        0    0    0    0    0    0    0    0   56    0   56    0

>  <minimizedAffinity>  (141) 
-7.26634

>  <CNNscore>  (141) 
0.8992785215

>  <CNNaffinity>  (141) 
4.7576036453

>  <CNN_VS>  (141) 
4.2784109116

>  <CNNaffinity_variance>  (141) 
0.0373012088

$$$$
142
     RDKit          3D

 43 45  0  0  0  0  0  0  0  0999 V2000
   22.1761   71.5030   -2.9705 P   0  0  2  0  0  0  0  0  0  0  0  0
   21.6802   73.0310   -2.7751 O   0  0  0  0  0  0  0  0  0  0  0  0
   23.6351   71.3457   -3.2841 O   0  0  0  0  0  0  0  0  0  0  0  0
   21.1524   70.8997   -4.0686 O   0  0  0  0  0  0  0  0  0  0  0  0
   20.2272   69.9096   -3.6583 C   0  0  0  0  0  0  0  0  0  0  0  0
   18.5919   71.3164   -4.7186 O   0  0  0  0  0  0  0  0  0  0  0  0
   16.6108   70.1458   -2.7961 O   0  0  0  0  0  0  0  0  0  0  0  0
   16.1073   68.7584   -5.0890 O   0  0  0  0  0  0  0  0  0  0  0  0
   17.7223   69.5223   -3.4397 C   0  0  1  0  0  0  0  0  0  0  0  0
   17.4094   69.2713   -4.8996 C   0  0  2  0  0  0  0  0  0  0  0  0
   18.8484   70.5434   -3.5262 C   0  0  1  0  0  0  0  0  0  0  0  0
   17.5865   70.6545   -5.5024 C   0  0  2  0  0  0  0  0  0  0  0  0
   15.8785   69.5126   -2.7293 H   0  0  0  0  0  0  0  0  0  0  0  0
   16.0456   67.8767   -4.6879 H   0  0  0  0  0  0  0  0  0  0  0  0
   15.8645   70.2570   -7.7054 O   0  0  0  0  0  0  0  0  0  0  0  0
   19.3548   70.4815  -10.7073 O   0  0  0  0  0  0  0  0  0  0  0  0
   18.0187   70.6047   -6.8705 N   0  0  0  0  0  0  0  0  0  0  0  0
   17.6046   70.3682   -9.1983 N   0  0  0  0  0  0  0  0  0  0  0  0
   17.0726   70.4001   -7.9026 C   0  0  0  0  0  0  0  0  0  0  0  0
   19.3648   70.7593   -7.1787 C   0  0  0  0  0  0  0  0  0  0  0  0
   19.8568   70.7267   -8.4187 C   0  0  0  0  0  0  0  0  0  0  0  0
   18.9353   70.5163   -9.5544 C   0  0  0  0  0  0  0  0  0  0  0  0
   16.9655   70.2249   -9.9334 H   0  0  0  0  0  0  0  0  0  0  0  0
   21.7012   70.7893   -1.6001 O   0  0  0  0  0  0  0  0  0  0  0  0
   22.4513   70.6156   -0.1786 P   0  0  2  0  0  0  0  0  0  0  0  0
   23.7191   69.6768   -0.5416 O   0  0  0  0  0  0  0  0  0  0  0  0
   21.5773   70.0778    0.9172 O   0  0  0  0  0  0  0  0  0  0  0  0
   23.0916   72.0646    0.1260 O   0  0  0  0  0  0  0  0  0  0  0  0
   23.5771   73.0175    2.2392 O   0  0  0  0  0  0  0  0  0  0  0  0
   22.8458   76.3778   -0.0501 O   0  0  0  0  0  0  0  0  0  0  0  0
   21.1534   74.0110   -0.3113 O   0  0  0  0  0  0  0  0  0  0  0  0
   25.5724   75.6590    0.6571 O   0  0  0  0  0  0  0  0  0  0  0  0
   23.2876   75.0441    0.2027 C   0  0  2  0  0  0  0  0  0  0  0  0
   22.1169   74.2062    0.7174 C   0  0  2  0  0  0  0  0  0  0  0  0
   24.4001   75.1052    1.2517 C   0  0  1  0  0  0  0  0  0  0  0  0
   22.5974   72.8422    1.2150 C   0  0  1  0  0  0  0  0  0  0  0  0
   24.7353   73.7172    1.7899 C   0  0  1  0  0  0  0  0  0  0  0  0
   22.1385   76.3640   -0.7140 H   0  0  0  0  0  0  0  0  0  0  0  0
   20.8444   74.8724   -0.6320 H   0  0  0  0  0  0  0  0  0  0  0  0
   25.3725   76.5426    0.3105 H   0  0  0  0  0  0  0  0  0  0  0  0
   26.8889   73.7725    2.7175 O   0  0  0  0  0  0  0  0  0  0  0  0
   25.1304   73.9202    4.1614 O   0  0  0  0  0  0  0  0  0  0  0  0
   25.5690   73.8146    3.0259 C   0  0  0  0  0  0  0  0  0  0  0  0
  1  4  1  0
  1 24  1  0
  1  2  1  1
  1  3  2  0
 25 28  1  0
 25 24  1  0
 25 26  1  6
 25 27  2  0
  6 11  1  0
  6 12  1  0
 29 36  1  0
 29 37  1  0
  9  7  1  1
  7 13  1  0
 10  8  1  1
  8 14  1  0
  4  5  1  0
 36 28  1  6
 33 30  1  1
 30 38  1  0
 34 31  1  6
 31 39  1  0
 35 32  1  6
 32 40  1  0
 41 43  1  0
 15 19  2  0
 42 43  2  0
 16 22  2  0
 12 17  1  6
 17 19  1  0
 17 20  1  0
 18 19  1  0
 18 22  1  0
 18 23  1  0
  9 10  1  0
  9 11  1  0
 10 12  1  0
 11  5  1  6
 33 34  1  0
 33 35  1  0
 34 36  1  0
 35 37  1  0
 37 43  1  1
 20 21  2  0
 21 22  1  0
M  CHG  3   2  -1  26  -1  41  -1
M  END
>  <COMPND>  (142) 
    udp_gluA.pdb 

>  <AUTHOR>  (142) 
    GENERATED BY OPEN BABEL 3.1.1

>  <MASTER>  (142) 
        0    0    0    0    0    0    0    0   56    0   56    0

>  <minimizedAffinity>  (142) 
-7.24349

>  <CNNscore>  (142) 
0.8905940652

>  <CNNaffinity>  (142) 
4.7664861679

>  <CNN_VS>  (142) 
4.2450041771

>  <CNNaffinity_variance>  (142) 
0.0616531558

$$$$
143
     RDKit          3D

 43 45  0  0  0  0  0  0  0  0999 V2000
   22.8005   71.0280   -2.8500 P   0  0  2  0  0  0  0  0  0  0  0  0
   23.8799   72.0026   -3.5598 O   0  0  0  0  0  0  0  0  0  0  0  0
   23.3320   69.6859   -2.4401 O   0  0  0  0  0  0  0  0  0  0  0  0
   21.5577   71.0050   -3.8859 O   0  0  0  0  0  0  0  0  0  0  0  0
   20.5505   70.0254   -3.7118 C   0  0  0  0  0  0  0  0  0  0  0  0
   18.9002   71.4660   -4.7012 O   0  0  0  0  0  0  0  0  0  0  0  0
   17.0193   70.4445   -2.6011 O   0  0  0  0  0  0  0  0  0  0  0  0
   16.2936   69.0064   -4.8014 O   0  0  0  0  0  0  0  0  0  0  0  0
   18.0546   69.7533   -3.3003 C   0  0  1  0  0  0  0  0  0  0  0  0
   17.6258   69.4688   -4.7242 C   0  0  2  0  0  0  0  0  0  0  0  0
   19.2118   70.7218   -3.5036 C   0  0  1  0  0  0  0  0  0  0  0  0
   17.8142   70.8228   -5.3868 C   0  0  2  0  0  0  0  0  0  0  0  0
   16.2689   69.8458   -2.4595 H   0  0  0  0  0  0  0  0  0  0  0  0
   16.2258   68.1416   -4.3659 H   0  0  0  0  0  0  0  0  0  0  0  0
   15.9350   70.3114   -7.4323 O   0  0  0  0  0  0  0  0  0  0  0  0
   19.1875   70.4114  -10.6965 O   0  0  0  0  0  0  0  0  0  0  0  0
   18.1427   70.7102   -6.7798 N   0  0  0  0  0  0  0  0  0  0  0  0
   17.5569   70.3607   -9.0560 N   0  0  0  0  0  0  0  0  0  0  0  0
   17.1236   70.4514   -7.7266 C   0  0  0  0  0  0  0  0  0  0  0  0
   19.4604   70.8573   -7.1957 C   0  0  0  0  0  0  0  0  0  0  0  0
   19.8581   70.7682   -8.4664 C   0  0  0  0  0  0  0  0  0  0  0  0
   18.8557   70.4989   -9.5181 C   0  0  0  0  0  0  0  0  0  0  0  0
   16.8656   70.1790   -9.7331 H   0  0  0  0  0  0  0  0  0  0  0  0
   22.2415   71.9316   -1.6319 O   0  0  0  0  0  0  0  0  0  0  0  0
   22.0205   71.5855   -0.0682 P   0  0  2  0  0  0  0  0  0  0  0  0
   23.5281   71.5549    0.5205 O   0  0  0  0  0  0  0  0  0  0  0  0
   21.2342   70.3309    0.1797 O   0  0  0  0  0  0  0  0  0  0  0  0
   21.3660   72.9205    0.5579 O   0  0  0  0  0  0  0  0  0  0  0  0
   21.3182   72.6931    2.9148 O   0  0  0  0  0  0  0  0  0  0  0  0
   19.5735   76.4013    2.3926 O   0  0  0  0  0  0  0  0  0  0  0  0
   18.8868   74.1794    0.6246 O   0  0  0  0  0  0  0  0  0  0  0  0
   22.3165   76.1988    3.3338 O   0  0  0  0  0  0  0  0  0  0  0  0
   20.4532   75.3200    2.0845 C   0  0  2  0  0  0  0  0  0  0  0  0
   19.6365   74.0533    1.8273 C   0  0  2  0  0  0  0  0  0  0  0  0
   21.3889   75.1167    3.2783 C   0  0  1  0  0  0  0  0  0  0  0  0
   20.5458   72.8283    1.7213 C   0  0  1  0  0  0  0  0  0  0  0  0
   22.1692   73.8109    3.1585 C   0  0  1  0  0  0  0  0  0  0  0  0
   18.9693   76.5490    1.6480 H   0  0  0  0  0  0  0  0  0  0  0  0
   18.3078   74.9550    0.6848 H   0  0  0  0  0  0  0  0  0  0  0  0
   21.8326   77.0360    3.4099 H   0  0  0  0  0  0  0  0  0  0  0  0
   22.6470   72.1455    4.7395 O   0  0  0  0  0  0  0  0  0  0  0  0
   23.4273   74.2441    5.1712 O   0  0  0  0  0  0  0  0  0  0  0  0
   22.8196   73.4606    4.4572 C   0  0  0  0  0  0  0  0  0  0  0  0
  1  4  1  0
  1 24  1  0
  1  2  1  6
  1  3  2  0
 25 28  1  0
 25 24  1  0
 25 26  1  1
 25 27  2  0
  6 11  1  0
  6 12  1  0
 29 36  1  0
 29 37  1  0
  9  7  1  1
  7 13  1  0
 10  8  1  1
  8 14  1  0
  4  5  1  0
 36 28  1  6
 33 30  1  1
 30 38  1  0
 34 31  1  6
 31 39  1  0
 35 32  1  6
 32 40  1  0
 41 43  1  0
 15 19  2  0
 42 43  2  0
 16 22  2  0
 12 17  1  6
 17 19  1  0
 17 20  1  0
 18 19  1  0
 18 22  1  0
 18 23  1  0
  9 10  1  0
  9 11  1  0
 10 12  1  0
 11  5  1  6
 33 34  1  0
 33 35  1  0
 34 36  1  0
 35 37  1  0
 37 43  1  1
 20 21  2  0
 21 22  1  0
M  CHG  3   2  -1  26  -1  41  -1
M  END
>  <COMPND>  (143) 
    udp_gluA.pdb 

>  <AUTHOR>  (143) 
    GENERATED BY OPEN BABEL 3.1.1

>  <MASTER>  (143) 
        0    0    0    0    0    0    0    0   56    0   56    0

>  <minimizedAffinity>  (143) 
-6.91421

>  <CNNscore>  (143) 
0.8750335574

>  <CNNaffinity>  (143) 
4.6449942589

>  <CNN_VS>  (143) 
4.0645260811

>  <CNNaffinity_variance>  (143) 
0.0305178221

$$$$
144
     RDKit          3D

 43 45  0  0  0  0  0  0  0  0999 V2000
   21.9531   71.4295   -2.2827 P   0  0  2  0  0  0  0  0  0  0  0  0
   22.9630   70.3148   -2.8797 O   0  0  0  0  0  0  0  0  0  0  0  0
   22.3739   72.0291   -0.9730 O   0  0  0  0  0  0  0  0  0  0  0  0
   20.5132   70.6916   -2.2874 O   0  0  0  0  0  0  0  0  0  0  0  0
   19.9121   70.3898   -3.5332 C   0  0  0  0  0  0  0  0  0  0  0  0
   18.1873   71.5510   -4.7392 O   0  0  0  0  0  0  0  0  0  0  0  0
   16.2460   70.1918   -2.9020 O   0  0  0  0  0  0  0  0  0  0  0  0
   16.0681   68.6918   -5.1723 O   0  0  0  0  0  0  0  0  0  0  0  0
   17.4656   69.6963   -3.4547 C   0  0  1  0  0  0  0  0  0  0  0  0
   17.2816   69.3693   -4.9215 C   0  0  2  0  0  0  0  0  0  0  0  0
   18.4597   70.8483   -3.5074 C   0  0  1  0  0  0  0  0  0  0  0  0
   17.3247   70.7473   -5.5596 C   0  0  2  0  0  0  0  0  0  0  0  0
   15.5950   69.4735   -2.8583 H   0  0  0  0  0  0  0  0  0  0  0  0
   16.0903   67.8203   -4.7456 H   0  0  0  0  0  0  0  0  0  0  0  0
   15.7780   70.2298   -7.8654 O   0  0  0  0  0  0  0  0  0  0  0  0
   19.4364   70.6526  -10.6369 O   0  0  0  0  0  0  0  0  0  0  0  0
   17.8475   70.7161   -6.8962 N   0  0  0  0  0  0  0  0  0  0  0  0
   17.6018   70.4398   -9.2435 N   0  0  0  0  0  0  0  0  0  0  0  0
   16.9853   70.4466   -7.9853 C   0  0  0  0  0  0  0  0  0  0  0  0
   19.1988   70.9523   -7.1181 C   0  0  0  0  0  0  0  0  0  0  0  0
   19.7719   70.9427   -8.3232 C   0  0  0  0  0  0  0  0  0  0  0  0
   18.9412   70.6683   -9.5141 C   0  0  0  0  0  0  0  0  0  0  0  0
   17.0221   70.2525  -10.0169 H   0  0  0  0  0  0  0  0  0  0  0  0
   21.8227   72.4884   -3.4971 O   0  0  0  0  0  0  0  0  0  0  0  0
   22.8046   72.8012   -4.7427 P   0  0  2  0  0  0  0  0  0  0  0  0
   22.3953   71.6729   -5.8287 O   0  0  0  0  0  0  0  0  0  0  0  0
   24.2633   72.8177   -4.3879 O   0  0  0  0  0  0  0  0  0  0  0  0
   22.2509   74.1835   -5.3633 O   0  0  0  0  0  0  0  0  0  0  0  0
   23.8202   75.4619   -6.5930 O   0  0  0  0  0  0  0  0  0  0  0  0
   20.6998   78.1371   -6.1747 O   0  0  0  0  0  0  0  0  0  0  0  0
   21.5170   76.4527   -3.9321 O   0  0  0  0  0  0  0  0  0  0  0  0
   21.1494   76.8060   -8.7197 O   0  0  0  0  0  0  0  0  0  0  0  0
   21.3040   76.8514   -6.3157 C   0  0  2  0  0  0  0  0  0  0  0  0
   22.2510   76.5995   -5.1422 C   0  0  2  0  0  0  0  0  0  0  0  0
   22.0769   76.8344   -7.6365 C   0  0  1  0  0  0  0  0  0  0  0  0
   23.0864   75.3396   -5.3739 C   0  0  1  0  0  0  0  0  0  0  0  0
   22.9816   75.6097   -7.7367 C   0  0  1  0  0  0  0  0  0  0  0  0
   20.2030   78.1716   -5.3421 H   0  0  0  0  0  0  0  0  0  0  0  0
   20.9844   77.2485   -3.7789 H   0  0  0  0  0  0  0  0  0  0  0  0
   20.5675   77.5802   -8.6675 H   0  0  0  0  0  0  0  0  0  0  0  0
   25.2139   75.4489   -8.4388 O   0  0  0  0  0  0  0  0  0  0  0  0
   23.6822   76.1225   -9.9878 O   0  0  0  0  0  0  0  0  0  0  0  0
   23.9619   75.7643   -8.8536 C   0  0  0  0  0  0  0  0  0  0  0  0
  1  4  1  0
  1 24  1  0
  1  2  1  6
  1  3  2  0
 25 28  1  0
 25 24  1  0
 25 26  1  6
 25 27  2  0
  6 11  1  0
  6 12  1  0
 29 36  1  0
 29 37  1  0
  9  7  1  6
  7 13  1  0
 10  8  1  1
  8 14  1  0
  4  5  1  0
 36 28  1  6
 33 30  1  1
 30 38  1  0
 34 31  1  1
 31 39  1  0
 35 32  1  6
 32 40  1  0
 41 43  1  0
 15 19  2  0
 42 43  2  0
 16 22  2  0
 12 17  1  6
 17 19  1  0
 17 20  1  0
 18 19  1  0
 18 22  1  0
 18 23  1  0
  9 10  1  0
  9 11  1  0
 10 12  1  0
 11  5  1  6
 33 34  1  0
 33 35  1  0
 34 36  1  0
 35 37  1  0
 37 43  1  6
 20 21  2  0
 21 22  1  0
M  CHG  3   2  -1  26  -1  41  -1
M  END
>  <COMPND>  (144) 
    udp_gluA.pdb 

>  <AUTHOR>  (144) 
    GENERATED BY OPEN BABEL 3.1.1

>  <MASTER>  (144) 
        0    0    0    0    0    0    0    0   56    0   56    0

>  <minimizedAffinity>  (144) 
-6.98729

>  <CNNscore>  (144) 
0.8746517301

>  <CNNaffinity>  (144) 
4.6653485298

>  <CNN_VS>  (144) 
4.0805549622

>  <CNNaffinity_variance>  (144) 
0.1005480513

$$$$
145
     RDKit          3D

 43 45  0  0  0  0  0  0  0  0999 V2000
   21.8825   71.4522   -2.2354 P   0  0  2  0  0  0  0  0  0  0  0  0
   22.8921   70.3142   -2.7873 O   0  0  0  0  0  0  0  0  0  0  0  0
   22.2923   72.0883   -0.9395 O   0  0  0  0  0  0  0  0  0  0  0  0
   20.4382   70.7228   -2.2343 O   0  0  0  0  0  0  0  0  0  0  0  0
   19.8467   70.3923   -3.4774 C   0  0  0  0  0  0  0  0  0  0  0  0
   18.1243   71.5431   -4.6967 O   0  0  0  0  0  0  0  0  0  0  0  0
   16.1755   70.1497   -2.8933 O   0  0  0  0  0  0  0  0  0  0  0  0
   16.0423   68.6639   -5.1760 O   0  0  0  0  0  0  0  0  0  0  0  0
   17.4073   69.6715   -3.4342 C   0  0  1  0  0  0  0  0  0  0  0  0
   17.2451   69.3529   -4.9054 C   0  0  2  0  0  0  0  0  0  0  0  0
   18.3892   70.8347   -3.4665 C   0  0  1  0  0  0  0  0  0  0  0  0
   17.2808   70.7358   -5.5334 C   0  0  2  0  0  0  0  0  0  0  0  0
   15.5320   69.4240   -2.8627 H   0  0  0  0  0  0  0  0  0  0  0  0
   16.0688   67.7897   -4.7552 H   0  0  0  0  0  0  0  0  0  0  0  0
   15.7656   70.2330   -7.8632 O   0  0  0  0  0  0  0  0  0  0  0  0
   19.4563   70.6993  -10.5845 O   0  0  0  0  0  0  0  0  0  0  0  0
   17.8204   70.7198   -6.8636 N   0  0  0  0  0  0  0  0  0  0  0  0
   17.6054   70.4647   -9.2162 N   0  0  0  0  0  0  0  0  0  0  0  0
   16.9733   70.4566   -7.9659 C   0  0  0  0  0  0  0  0  0  0  0  0
   19.1732   70.9645   -7.0662 C   0  0  0  0  0  0  0  0  0  0  0  0
   19.7614   70.9690   -8.2641 C   0  0  0  0  0  0  0  0  0  0  0  0
   18.9470   70.7021   -9.4678 C   0  0  0  0  0  0  0  0  0  0  0  0
   17.0364   70.2820   -9.9986 H   0  0  0  0  0  0  0  0  0  0  0  0
   21.7721   72.4750   -3.4822 O   0  0  0  0  0  0  0  0  0  0  0  0
   22.8037   72.7986   -4.6842 P   0  0  2  0  0  0  0  0  0  0  0  0
   22.4337   71.6849   -5.7991 O   0  0  0  0  0  0  0  0  0  0  0  0
   24.2473   72.8049   -4.2718 O   0  0  0  0  0  0  0  0  0  0  0  0
   22.2800   74.1904   -5.3095 O   0  0  0  0  0  0  0  0  0  0  0  0
   20.3280   74.3468   -6.6415 O   0  0  0  0  0  0  0  0  0  0  0  0
   22.3840   77.7511   -7.7602 O   0  0  0  0  0  0  0  0  0  0  0  0
   23.7960   75.2188   -7.4024 O   0  0  0  0  0  0  0  0  0  0  0  0
   20.0932   77.9484   -5.9814 O   0  0  0  0  0  0  0  0  0  0  0  0
   21.9624   76.7162   -6.8718 C   0  0  2  0  0  0  0  0  0  0  0  0
   22.3802   75.3573   -7.4342 C   0  0  2  0  0  0  0  0  0  0  0  0
   20.4393   76.7939   -6.7442 C   0  0  1  0  0  0  0  0  0  0  0  0
   21.7501   74.2167   -6.6336 C   0  0  1  0  0  0  0  0  0  0  0  0
   19.8752   75.5603   -6.0453 C   0  0  1  0  0  0  0  0  0  0  0  0
   23.3489   77.7213   -7.8568 H   0  0  0  0  0  0  0  0  0  0  0  0
   24.2024   75.9394   -7.9083 H   0  0  0  0  0  0  0  0  0  0  0  0
   20.4465   78.7406   -6.4154 H   0  0  0  0  0  0  0  0  0  0  0  0
   18.0260   74.2666   -6.6840 O   0  0  0  0  0  0  0  0  0  0  0  0
   17.6114   76.3914   -5.9682 O   0  0  0  0  0  0  0  0  0  0  0  0
   18.3928   75.4853   -6.2160 C   0  0  0  0  0  0  0  0  0  0  0  0
  1  4  1  0
  1 24  1  0
  1  2  1  6
  1  3  2  0
 25 28  1  0
 25 24  1  0
 25 26  1  6
 25 27  2  0
  6 11  1  0
  6 12  1  0
 29 36  1  0
 29 37  1  0
  9  7  1  6
  7 13  1  0
 10  8  1  1
  8 14  1  0
  4  5  1  0
 36 28  1  1
 33 30  1  6
 30 38  1  0
 34 31  1  1
 31 39  1  0
 35 32  1  1
 32 40  1  0
 41 43  1  0
 15 19  2  0
 42 43  2  0
 16 22  2  0
 12 17  1  6
 17 19  1  0
 17 20  1  0
 18 19  1  0
 18 22  1  0
 18 23  1  0
  9 10  1  0
  9 11  1  0
 10 12  1  0
 11  5  1  6
 33 34  1  0
 33 35  1  0
 34 36  1  0
 35 37  1  0
 37 43  1  6
 20 21  2  0
 21 22  1  0
M  CHG  3   2  -1  26  -1  41  -1
M  END
>  <COMPND>  (145) 
    udp_gluA.pdb 

>  <AUTHOR>  (145) 
    GENERATED BY OPEN BABEL 3.1.1

>  <MASTER>  (145) 
        0    0    0    0    0    0    0    0   56    0   56    0

>  <minimizedAffinity>  (145) 
-6.62316

>  <CNNscore>  (145) 
0.8641889095

>  <CNNaffinity>  (145) 
4.6082181931

>  <CNN_VS>  (145) 
3.9823710918

>  <CNNaffinity_variance>  (145) 
0.2995744050

$$$$
146
     RDKit          3D

 43 45  0  0  0  0  0  0  0  0999 V2000
   22.5803   71.9646   -3.1421 P   0  0  2  0  0  0  0  0  0  0  0  0
   22.2179   73.5345   -2.9902 O   0  0  0  0  0  0  0  0  0  0  0  0
   23.9818   71.6790   -3.5958 O   0  0  0  0  0  0  0  0  0  0  0  0
   21.4033   71.3840   -4.0884 O   0  0  0  0  0  0  0  0  0  0  0  0
   20.6062   70.3205   -3.6006 C   0  0  0  0  0  0  0  0  0  0  0  0
   18.7690   71.4990   -4.6073 O   0  0  0  0  0  0  0  0  0  0  0  0
   17.0485   70.2399   -2.4987 O   0  0  0  0  0  0  0  0  0  0  0  0
   16.5427   68.6898   -4.6844 O   0  0  0  0  0  0  0  0  0  0  0  0
   18.1742   69.6973   -3.1893 C   0  0  1  0  0  0  0  0  0  0  0  0
   17.7945   69.3394   -4.6106 C   0  0  2  0  0  0  0  0  0  0  0  0
   19.1809   70.8196   -3.4014 C   0  0  1  0  0  0  0  0  0  0  0  0
   17.7884   70.6995   -5.2874 C   0  0  2  0  0  0  0  0  0  0  0  0
   16.3913   69.5412   -2.3517 H   0  0  0  0  0  0  0  0  0  0  0  0
   16.5985   67.8288   -4.2398 H   0  0  0  0  0  0  0  0  0  0  0  0
   15.9597   70.0922   -7.3521 O   0  0  0  0  0  0  0  0  0  0  0  0
   19.2236   70.4247  -10.5895 O   0  0  0  0  0  0  0  0  0  0  0  0
   18.1335   70.6208   -6.6786 N   0  0  0  0  0  0  0  0  0  0  0  0
   17.5872   70.2574   -8.9624 N   0  0  0  0  0  0  0  0  0  0  0  0
   17.1394   70.3084   -7.6358 C   0  0  0  0  0  0  0  0  0  0  0  0
   19.4425   70.8531   -7.0828 C   0  0  0  0  0  0  0  0  0  0  0  0
   19.8543   70.8010   -8.3510 C   0  0  0  0  0  0  0  0  0  0  0  0
   18.8783   70.4802   -9.4130 C   0  0  0  0  0  0  0  0  0  0  0  0
   16.9136   70.0397   -9.6466 H   0  0  0  0  0  0  0  0  0  0  0  0
   22.2075   71.3638   -1.6885 O   0  0  0  0  0  0  0  0  0  0  0  0
   23.1157   70.5986   -0.5915 P   0  0  2  0  0  0  0  0  0  0  0  0
   22.0197   69.9288    0.3936 O   0  0  0  0  0  0  0  0  0  0  0  0
   24.1150   71.4784    0.1022 O   0  0  0  0  0  0  0  0  0  0  0  0
   23.7601   69.3538   -1.3901 O   0  0  0  0  0  0  0  0  0  0  0  0
   24.7078   67.6668   -0.0245 O   0  0  0  0  0  0  0  0  0  0  0  0
   26.0385   66.5584   -3.7753 O   0  0  0  0  0  0  0  0  0  0  0  0
   26.0488   69.3667   -2.9705 O   0  0  0  0  0  0  0  0  0  0  0  0
   23.8667   65.0999   -2.5075 O   0  0  0  0  0  0  0  0  0  0  0  0
   25.1322   67.1248   -2.8288 C   0  0  2  0  0  0  0  0  0  0  0  0
   25.8172   68.2741   -2.0889 C   0  0  2  0  0  0  0  0  0  0  0  0
   24.7271   66.0248   -1.8451 C   0  0  1  0  0  0  0  0  0  0  0  0
   24.9637   68.7542   -0.9142 C   0  0  1  0  0  0  0  0  0  0  0  0
   23.9893   66.5997   -0.6394 C   0  0  1  0  0  0  0  0  0  0  0  0
   26.3098   67.2392   -4.4110 H   0  0  0  0  0  0  0  0  0  0  0  0
   26.5895   69.0691   -3.7184 H   0  0  0  0  0  0  0  0  0  0  0  0
   24.3243   64.7268   -3.2771 H   0  0  0  0  0  0  0  0  0  0  0  0
   24.5478   66.0135    1.5619 O   0  0  0  0  0  0  0  0  0  0  0  0
   23.3005   64.5206    0.3725 O   0  0  0  0  0  0  0  0  0  0  0  0
   23.8911   65.5871    0.4547 C   0  0  0  0  0  0  0  0  0  0  0  0
  1  4  1  0
  1 24  1  0
  1  2  1  1
  1  3  2  0
 25 28  1  0
 25 24  1  0
 25 26  1  1
 25 27  2  0
  6 11  1  0
  6 12  1  0
 29 36  1  0
 29 37  1  0
  9  7  1  1
  7 13  1  0
 10  8  1  1
  8 14  1  0
  4  5  1  0
 36 28  1  6
 33 30  1  6
 30 38  1  0
 34 31  1  6
 31 39  1  0
 35 32  1  6
 32 40  1  0
 41 43  1  0
 15 19  2  0
 42 43  2  0
 16 22  2  0
 12 17  1  6
 17 19  1  0
 17 20  1  0
 18 19  1  0
 18 22  1  0
 18 23  1  0
  9 10  1  0
  9 11  1  0
 10 12  1  0
 11  5  1  6
 33 34  1  0
 33 35  1  0
 34 36  1  0
 35 37  1  0
 37 43  1  1
 20 21  2  0
 21 22  1  0
M  CHG  3   2  -1  26  -1  41  -1
M  END
>  <COMPND>  (146) 
    udp_gluA.pdb 

>  <AUTHOR>  (146) 
    GENERATED BY OPEN BABEL 3.1.1

>  <MASTER>  (146) 
        0    0    0    0    0    0    0    0   56    0   56    0

>  <minimizedAffinity>  (146) 
-9.56487

>  <CNNscore>  (146) 
0.8361020684

>  <CNNaffinity>  (146) 
5.0468144417

>  <CNN_VS>  (146) 
4.2196521759

>  <CNNaffinity_variance>  (146) 
0.0491004698

$$$$
147
     RDKit          3D

 43 45  0  0  0  0  0  0  0  0999 V2000
   23.0375   70.7599   -2.6621 P   0  0  2  0  0  0  0  0  0  0  0  0
   24.1513   71.7330   -3.3188 O   0  0  0  0  0  0  0  0  0  0  0  0
   23.4171   69.3092   -2.6064 O   0  0  0  0  0  0  0  0  0  0  0  0
   21.6880   71.1019   -3.4867 O   0  0  0  0  0  0  0  0  0  0  0  0
   20.7077   70.0903   -3.6286 C   0  0  0  0  0  0  0  0  0  0  0  0
   18.9447   71.4256   -4.5700 O   0  0  0  0  0  0  0  0  0  0  0  0
   17.1825   70.2691   -2.4373 O   0  0  0  0  0  0  0  0  0  0  0  0
   16.5035   68.8006   -4.6324 O   0  0  0  0  0  0  0  0  0  0  0  0
   18.2449   69.6520   -3.1645 C   0  0  1  0  0  0  0  0  0  0  0  0
   17.8039   69.3491   -4.5808 C   0  0  2  0  0  0  0  0  0  0  0  0
   19.3312   70.6958   -3.3855 C   0  0  1  0  0  0  0  0  0  0  0  0
   17.8881   70.7168   -5.2367 C   0  0  2  0  0  0  0  0  0  0  0  0
   16.4763   69.6215   -2.2840 H   0  0  0  0  0  0  0  0  0  0  0  0
   16.5023   67.9305   -4.2024 H   0  0  0  0  0  0  0  0  0  0  0  0
   15.9782   70.2166   -7.2563 O   0  0  0  0  0  0  0  0  0  0  0  0
   19.1671   70.4248  -10.5777 O   0  0  0  0  0  0  0  0  0  0  0  0
   18.1919   70.6351   -6.6374 N   0  0  0  0  0  0  0  0  0  0  0  0
   17.5685   70.3197   -8.9085 N   0  0  0  0  0  0  0  0  0  0  0  0
   17.1590   70.3793   -7.5700 C   0  0  0  0  0  0  0  0  0  0  0  0
   19.4993   70.8090   -7.0748 C   0  0  0  0  0  0  0  0  0  0  0  0
   19.8743   70.7495   -8.3541 C   0  0  0  0  0  0  0  0  0  0  0  0
   18.8563   70.4854   -9.3920 C   0  0  0  0  0  0  0  0  0  0  0  0
   16.8673   70.1407   -9.5761 H   0  0  0  0  0  0  0  0  0  0  0  0
   22.7652   71.4403   -1.2213 O   0  0  0  0  0  0  0  0  0  0  0  0
   22.2398   70.8061    0.1698 P   0  0  2  0  0  0  0  0  0  0  0  0
   23.2068   69.5251    0.3808 O   0  0  0  0  0  0  0  0  0  0  0  0
   20.7737   70.4832    0.1846 O   0  0  0  0  0  0  0  0  0  0  0  0
   22.7051   71.8581    1.3008 O   0  0  0  0  0  0  0  0  0  0  0  0
   24.5356   71.2605    2.6798 O   0  0  0  0  0  0  0  0  0  0  0  0
   22.9299   74.4540    4.7513 O   0  0  0  0  0  0  0  0  0  0  0  0
   21.1869   72.4356    3.5586 O   0  0  0  0  0  0  0  0  0  0  0  0
   25.3695   74.7944    3.2075 O   0  0  0  0  0  0  0  0  0  0  0  0
   23.2652   73.6868    3.5951 C   0  0  2  0  0  0  0  0  0  0  0  0
   22.5992   72.3133    3.6815 C   0  0  2  0  0  0  0  0  0  0  0  0
   24.7877   73.5383    3.5513 C   0  0  1  0  0  0  0  0  0  0  0  0
   23.1162   71.3845    2.5820 C   0  0  1  0  0  0  0  0  0  0  0  0
   25.2169   72.5023    2.5163 C   0  0  1  0  0  0  0  0  0  0  0  0
   21.9669   74.5615    4.8002 H   0  0  0  0  0  0  0  0  0  0  0  0
   20.8521   73.0239    4.2530 H   0  0  0  0  0  0  0  0  0  0  0  0
   25.1040   75.4627    3.8584 H   0  0  0  0  0  0  0  0  0  0  0  0
   26.9012   70.9087    2.1627 O   0  0  0  0  0  0  0  0  0  0  0  0
   27.4882   72.8150    3.2676 O   0  0  0  0  0  0  0  0  0  0  0  0
   26.6504   72.1260    2.7053 C   0  0  0  0  0  0  0  0  0  0  0  0
  1  4  1  0
  1 24  1  0
  1  2  1  6
  1  3  2  0
 25 28  1  0
 25 24  1  0
 25 26  1  1
 25 27  2  0
  6 11  1  0
  6 12  1  0
 29 36  1  0
 29 37  1  0
  9  7  1  1
  7 13  1  0
 10  8  1  1
  8 14  1  0
  4  5  1  0
 36 28  1  6
 33 30  1  1
 30 38  1  0
 34 31  1  6
 31 39  1  0
 35 32  1  6
 32 40  1  0
 41 43  1  0
 15 19  2  0
 42 43  2  0
 16 22  2  0
 12 17  1  6
 17 19  1  0
 17 20  1  0
 18 19  1  0
 18 22  1  0
 18 23  1  0
  9 10  1  0
  9 11  1  0
 10 12  1  0
 11  5  1  6
 33 34  1  0
 33 35  1  0
 34 36  1  0
 35 37  1  0
 37 43  1  1
 20 21  2  0
 21 22  1  0
M  CHG  3   2  -1  26  -1  41  -1
M  END
>  <COMPND>  (147) 
    udp_gluA.pdb 

>  <AUTHOR>  (147) 
    GENERATED BY OPEN BABEL 3.1.1

>  <MASTER>  (147) 
        0    0    0    0    0    0    0    0   56    0   56    0

>  <minimizedAffinity>  (147) 
-8.13583

>  <CNNscore>  (147) 
0.8349514604

>  <CNNaffinity>  (147) 
4.7560415268

>  <CNN_VS>  (147) 
3.9710638523

>  <CNNaffinity_variance>  (147) 
0.0681711882

$$$$
148
     RDKit          3D

 43 45  0  0  0  0  0  0  0  0999 V2000
   22.9680   71.1753   -2.7496 P   0  0  2  0  0  0  0  0  0  0  0  0
   24.1522   71.7538   -3.6887 O   0  0  0  0  0  0  0  0  0  0  0  0
   23.2505   69.8411   -2.1235 O   0  0  0  0  0  0  0  0  0  0  0  0
   21.6551   71.2451   -3.6927 O   0  0  0  0  0  0  0  0  0  0  0  0
   20.7486   70.1578   -3.6711 C   0  0  0  0  0  0  0  0  0  0  0  0
   18.9310   71.4262   -4.6011 O   0  0  0  0  0  0  0  0  0  0  0  0
   17.2078   70.1367   -2.5132 O   0  0  0  0  0  0  0  0  0  0  0  0
   16.6225   68.6869   -4.7473 O   0  0  0  0  0  0  0  0  0  0  0  0
   18.3061   69.5891   -3.2427 C   0  0  1  0  0  0  0  0  0  0  0  0
   17.8938   69.2971   -4.6700 C   0  0  2  0  0  0  0  0  0  0  0  0
   19.3418   70.6895   -3.4290 C   0  0  1  0  0  0  0  0  0  0  0  0
   17.9168   70.6818   -5.2944 C   0  0  2  0  0  0  0  0  0  0  0  0
   16.5329   69.4520   -2.3817 H   0  0  0  0  0  0  0  0  0  0  0  0
   16.6601   67.8083   -4.3368 H   0  0  0  0  0  0  0  0  0  0  0  0
   16.0534   70.1323   -7.3444 O   0  0  0  0  0  0  0  0  0  0  0  0
   19.2588   70.5740  -10.6269 O   0  0  0  0  0  0  0  0  0  0  0  0
   18.2374   70.6469   -6.6933 N   0  0  0  0  0  0  0  0  0  0  0  0
   17.6519   70.3518   -8.9772 N   0  0  0  0  0  0  0  0  0  0  0  0
   17.2274   70.3608   -7.6420 C   0  0  0  0  0  0  0  0  0  0  0  0
   19.5385   70.8956   -7.1131 C   0  0  0  0  0  0  0  0  0  0  0  0
   19.9280   70.8837   -8.3894 C   0  0  0  0  0  0  0  0  0  0  0  0
   18.9342   70.5924   -9.4434 C   0  0  0  0  0  0  0  0  0  0  0  0
   16.9668   70.1531   -9.6558 H   0  0  0  0  0  0  0  0  0  0  0  0
   22.7221   72.3754   -1.6951 O   0  0  0  0  0  0  0  0  0  0  0  0
   21.4128   73.2761   -1.3984 P   0  0  2  0  0  0  0  0  0  0  0  0
   22.0194   74.5731   -0.6434 O   0  0  0  0  0  0  0  0  0  0  0  0
   20.3353   72.5631   -0.6338 O   0  0  0  0  0  0  0  0  0  0  0  0
   20.9563   73.8238   -2.8455 O   0  0  0  0  0  0  0  0  0  0  0  0
   22.3503   74.4318   -4.6610 O   0  0  0  0  0  0  0  0  0  0  0  0
   19.0525   76.8395   -5.2902 O   0  0  0  0  0  0  0  0  0  0  0  0
   20.1204   76.4649   -2.5969 O   0  0  0  0  0  0  0  0  0  0  0  0
   19.4708   74.4790   -6.9345 O   0  0  0  0  0  0  0  0  0  0  0  0
   19.7494   75.6705   -4.8590 C   0  0  2  0  0  0  0  0  0  0  0  0
   20.7747   76.0508   -3.7906 C   0  0  2  0  0  0  0  0  0  0  0  0
   20.4495   75.0616   -6.0759 C   0  0  1  0  0  0  0  0  0  0  0  0
   21.6947   74.8717   -3.4710 C   0  0  1  0  0  0  0  0  0  0  0  0
   21.4428   73.9791   -5.6633 C   0  0  1  0  0  0  0  0  0  0  0  0
   18.5997   77.2438   -4.5333 H   0  0  0  0  0  0  0  0  0  0  0  0
   19.5348   77.2127   -2.7924 H   0  0  0  0  0  0  0  0  0  0  0  0
   18.8323   75.1575   -7.2043 H   0  0  0  0  0  0  0  0  0  0  0  0
   22.9412   72.4277   -6.5850 O   0  0  0  0  0  0  0  0  0  0  0  0
   22.5285   74.3182   -7.7912 O   0  0  0  0  0  0  0  0  0  0  0  0
   22.3465   73.6273   -6.7999 C   0  0  0  0  0  0  0  0  0  0  0  0
  1  4  1  0
  1 24  1  0
  1  2  1  6
  1  3  2  0
 25 28  1  0
 25 24  1  0
 25 26  1  1
 25 27  2  0
  6 11  1  0
  6 12  1  0
 29 36  1  0
 29 37  1  0
  9  7  1  1
  7 13  1  0
 10  8  1  1
  8 14  1  0
  4  5  1  0
 36 28  1  6
 33 30  1  6
 30 38  1  0
 34 31  1  1
 31 39  1  0
 35 32  1  6
 32 40  1  0
 41 43  1  0
 15 19  2  0
 42 43  2  0
 16 22  2  0
 12 17  1  6
 17 19  1  0
 17 20  1  0
 18 19  1  0
 18 22  1  0
 18 23  1  0
  9 10  1  0
  9 11  1  0
 10 12  1  0
 11  5  1  6
 33 34  1  0
 33 35  1  0
 34 36  1  0
 35 37  1  0
 37 43  1  6
 20 21  2  0
 21 22  1  0
M  CHG  3   2  -1  26  -1  41  -1
M  END
>  <COMPND>  (148) 
    udp_gluA.pdb 

>  <AUTHOR>  (148) 
    GENERATED BY OPEN BABEL 3.1.1

>  <MASTER>  (148) 
        0    0    0    0    0    0    0    0   56    0   56    0

>  <minimizedAffinity>  (148) 
-6.72989

>  <CNNscore>  (148) 
0.8277878761

>  <CNNaffinity>  (148) 
4.4218873978

>  <CNN_VS>  (148) 
3.6603848934

>  <CNNaffinity_variance>  (148) 
0.3622131348

$$$$
149
     RDKit          3D

 43 45  0  0  0  0  0  0  0  0999 V2000
   22.5801   71.4934   -2.9092 P   0  0  2  0  0  0  0  0  0  0  0  0
   23.9272   71.7695   -3.7625 O   0  0  0  0  0  0  0  0  0  0  0  0
   22.7204   70.4756   -1.8155 O   0  0  0  0  0  0  0  0  0  0  0  0
   21.4668   71.1647   -4.0363 O   0  0  0  0  0  0  0  0  0  0  0  0
   20.5094   70.1569   -3.7673 C   0  0  0  0  0  0  0  0  0  0  0  0
   18.8208   71.5268   -4.7918 O   0  0  0  0  0  0  0  0  0  0  0  0
   16.9519   70.4592   -2.7040 O   0  0  0  0  0  0  0  0  0  0  0  0
   16.3061   68.9734   -4.8976 O   0  0  0  0  0  0  0  0  0  0  0  0
   18.0201   69.7988   -3.3833 C   0  0  1  0  0  0  0  0  0  0  0  0
   17.6197   69.4845   -4.8091 C   0  0  2  0  0  0  0  0  0  0  0  0
   19.1440   70.8065   -3.5827 C   0  0  1  0  0  0  0  0  0  0  0  0
   17.7673   70.8377   -5.4837 C   0  0  2  0  0  0  0  0  0  0  0  0
   16.2218   69.8351   -2.5652 H   0  0  0  0  0  0  0  0  0  0  0  0
   16.2641   68.1113   -4.4538 H   0  0  0  0  0  0  0  0  0  0  0  0
   15.9147   70.3589   -7.5610 O   0  0  0  0  0  0  0  0  0  0  0  0
   19.2219   70.4164  -10.7709 O   0  0  0  0  0  0  0  0  0  0  0  0
   18.1170   70.7230   -6.8713 N   0  0  0  0  0  0  0  0  0  0  0  0
   17.5638   70.3870   -9.1576 N   0  0  0  0  0  0  0  0  0  0  0  0
   17.1099   70.4816   -7.8354 C   0  0  0  0  0  0  0  0  0  0  0  0
   19.4435   70.8510   -7.2651 C   0  0  0  0  0  0  0  0  0  0  0  0
   19.8607   70.7585   -8.5293 C   0  0  0  0  0  0  0  0  0  0  0  0
   18.8719   70.5065   -9.5980 C   0  0  0  0  0  0  0  0  0  0  0  0
   16.8811   70.2171   -9.8465 H   0  0  0  0  0  0  0  0  0  0  0  0
   22.1610   72.9707   -2.4045 O   0  0  0  0  0  0  0  0  0  0  0  0
   23.0627   74.2247   -1.9269 P   0  0  2  0  0  0  0  0  0  0  0  0
   21.9668   75.2764   -1.3671 O   0  0  0  0  0  0  0  0  0  0  0  0
   23.9622   74.7782   -2.9939 O   0  0  0  0  0  0  0  0  0  0  0  0
   23.8314   73.6981   -0.6100 O   0  0  0  0  0  0  0  0  0  0  0  0
   23.3235   72.0050    0.9663 O   0  0  0  0  0  0  0  0  0  0  0  0
   25.0731   74.8834    3.3584 O   0  0  0  0  0  0  0  0  0  0  0  0
   23.1822   75.6460    1.2662 O   0  0  0  0  0  0  0  0  0  0  0  0
   26.5592   72.4949    2.6254 O   0  0  0  0  0  0  0  0  0  0  0  0
   24.8607   74.1388    2.1591 C   0  0  2  0  0  0  0  0  0  0  0  0
   23.4125   74.3105    1.6998 C   0  0  2  0  0  0  0  0  0  0  0  0
   25.1532   72.6668    2.4582 C   0  0  1  0  0  0  0  0  0  0  0  0
   23.0844   73.3514    0.5547 C   0  0  1  0  0  0  0  0  0  0  0  0
   24.6830   71.7633    1.3220 C   0  0  1  0  0  0  0  0  0  0  0  0
   24.8931   75.8222    3.1926 H   0  0  0  0  0  0  0  0  0  0  0  0
   23.3887   76.2600    1.9878 H   0  0  0  0  0  0  0  0  0  0  0  0
   26.8713   73.0647    3.3456 H   0  0  0  0  0  0  0  0  0  0  0  0
   24.4401   69.5162    0.6949 O   0  0  0  0  0  0  0  0  0  0  0  0
   24.8382   69.9438    2.8990 O   0  0  0  0  0  0  0  0  0  0  0  0
   24.6677   70.3329    1.7533 C   0  0  0  0  0  0  0  0  0  0  0  0
  1  4  1  0
  1 24  1  0
  1  2  1  6
  1  3  2  0
 25 28  1  0
 25 24  1  0
 25 26  1  1
 25 27  2  0
  6 11  1  0
  6 12  1  0
 29 36  1  0
 29 37  1  0
  9  7  1  1
  7 13  1  0
 10  8  1  1
  8 14  1  0
  4  5  1  0
 36 28  1  6
 33 30  1  1
 30 38  1  0
 34 31  1  6
 31 39  1  0
 35 32  1  6
 32 40  1  0
 41 43  1  0
 15 19  2  0
 42 43  2  0
 16 22  2  0
 12 17  1  6
 17 19  1  0
 17 20  1  0
 18 19  1  0
 18 22  1  0
 18 23  1  0
  9 10  1  0
  9 11  1  0
 10 12  1  0
 11  5  1  6
 33 34  1  0
 33 35  1  0
 34 36  1  0
 35 37  1  0
 37 43  1  1
 20 21  2  0
 21 22  1  0
M  CHG  3   2  -1  26  -1  41  -1
M  END
>  <COMPND>  (149) 
    udp_gluA.pdb 

>  <AUTHOR>  (149) 
    GENERATED BY OPEN BABEL 3.1.1

>  <MASTER>  (149) 
        0    0    0    0    0    0    0    0   56    0   56    0

>  <minimizedAffinity>  (149) 
-7.32347

>  <CNNscore>  (149) 
0.8162053227

>  <CNNaffinity>  (149) 
4.6477212906

>  <CNN_VS>  (149) 
3.7934949398

>  <CNNaffinity_variance>  (149) 
0.0341040678

$$$$
150
     RDKit          3D

 43 45  0  0  0  0  0  0  0  0999 V2000
   23.2779   72.0950   -3.2971 P   0  0  2  0  0  0  0  0  0  0  0  0
   23.4300   70.5484   -2.8457 O   0  0  0  0  0  0  0  0  0  0  0  0
   24.5061   72.6992   -3.9122 O   0  0  0  0  0  0  0  0  0  0  0  0
   22.7205   72.8340   -1.9701 O   0  0  0  0  0  0  0  0  0  0  0  0
   22.9179   72.2094   -0.7150 C   0  0  0  0  0  0  0  0  0  0  0  0
   22.9680   72.7560    1.6252 O   0  0  0  0  0  0  0  0  0  0  0  0
   21.5826   75.3055    0.8691 O   0  0  0  0  0  0  0  0  0  0  0  0
   24.1708   76.1045    1.1837 O   0  0  0  0  0  0  0  0  0  0  0  0
   22.5826   74.5754    0.1582 C   0  0  1  0  0  0  0  0  0  0  0  0
   23.9340   74.7620    0.8149 C   0  0  2  0  0  0  0  0  0  0  0  0
   22.3245   73.0908    0.3766 C   0  0  1  0  0  0  0  0  0  0  0  0
   23.8324   73.8353    2.0144 C   0  0  2  0  0  0  0  0  0  0  0  0
   21.7267   76.2571    0.7446 H   0  0  0  0  0  0  0  0  0  0  0  0
   24.2275   76.6538    0.3856 H   0  0  0  0  0  0  0  0  0  0  0  0
   25.7830   75.2535    3.4841 O   0  0  0  0  0  0  0  0  0  0  0  0
   28.6833   71.6716    3.4407 O   0  0  0  0  0  0  0  0  0  0  0  0
   25.1061   73.2973    2.4008 N   0  0  0  0  0  0  0  0  0  0  0  0
   27.2261   73.4685    3.4602 N   0  0  0  0  0  0  0  0  0  0  0  0
   26.0142   74.0935    3.1380 C   0  0  0  0  0  0  0  0  0  0  0  0
   25.4439   71.9955    2.0515 C   0  0  0  0  0  0  0  0  0  0  0  0
   26.6029   71.4135    2.3659 C   0  0  0  0  0  0  0  0  0  0  0  0
   27.6076   72.1770    3.1346 C   0  0  0  0  0  0  0  0  0  0  0  0
   27.8753   74.0037    3.9715 H   0  0  0  0  0  0  0  0  0  0  0  0
   21.9847   72.0646   -4.2665 O   0  0  0  0  0  0  0  0  0  0  0  0
   21.6572   72.8776   -5.6250 P   0  0  2  0  0  0  0  0  0  0  0  0
   22.7868   72.3462   -6.6555 O   0  0  0  0  0  0  0  0  0  0  0  0
   21.6254   74.3692   -5.4575 O   0  0  0  0  0  0  0  0  0  0  0  0
   20.2793   72.2349   -6.1644 O   0  0  0  0  0  0  0  0  0  0  0  0
   19.5716   70.1036   -5.4123 O   0  0  0  0  0  0  0  0  0  0  0  0
   17.3198   70.5746   -8.8439 O   0  0  0  0  0  0  0  0  0  0  0  0
   20.1338   71.3583   -8.8000 O   0  0  0  0  0  0  0  0  0  0  0  0
   16.0862   70.9048   -6.2324 O   0  0  0  0  0  0  0  0  0  0  0  0
   18.0152   71.0019   -7.6727 C   0  0  2  0  0  0  0  0  0  0  0  0
   19.4882   70.6062   -7.7791 C   0  0  2  0  0  0  0  0  0  0  0  0
   17.3676   70.3227   -6.4639 C   0  0  1  0  0  0  0  0  0  0  0  0
   20.2145   70.8396   -6.4537 C   0  0  1  0  0  0  0  0  0  0  0  0
   18.2160   70.4950   -5.2073 C   0  0  1  0  0  0  0  0  0  0  0  0
   17.7140   70.9936   -9.6251 H   0  0  0  0  0  0  0  0  0  0  0  0
   19.6779   71.2151   -9.6438 H   0  0  0  0  0  0  0  0  0  0  0  0
   15.5364   70.8020   -7.0248 H   0  0  0  0  0  0  0  0  0  0  0  0
   16.8614   68.6750   -4.6119 O   0  0  0  0  0  0  0  0  0  0  0  0
   18.1385   69.6033   -2.9667 O   0  0  0  0  0  0  0  0  0  0  0  0
   17.7590   69.5688   -4.1276 C   0  0  0  0  0  0  0  0  0  0  0  0
  1  4  1  0
  1 24  1  0
  1  2  1  1
  1  3  2  0
 25 28  1  0
 25 24  1  0
 25 26  1  6
 25 27  2  0
  6 11  1  0
  6 12  1  0
 29 36  1  0
 29 37  1  0
  9  7  1  1
  7 13  1  0
 10  8  1  1
  8 14  1  0
  4  5  1  0
 36 28  1  1
 33 30  1  6
 30 38  1  0
 34 31  1  6
 31 39  1  0
 35 32  1  1
 32 40  1  0
 41 43  1  0
 15 19  2  0
 42 43  2  0
 16 22  2  0
 12 17  1  6
 17 19  1  0
 17 20  1  0
 18 19  1  0
 18 22  1  0
 18 23  1  0
  9 10  1  0
  9 11  1  0
 10 12  1  0
 11  5  1  6
 33 34  1  0
 33 35  1  0
 34 36  1  0
 35 37  1  0
 37 43  1  1
 20 21  2  0
 21 22  1  0
M  CHG  3   2  -1  26  -1  41  -1
M  END
>  <COMPND>  (150) 
    udp_gluA.pdb 

>  <AUTHOR>  (150) 
    GENERATED BY OPEN BABEL 3.1.1

>  <MASTER>  (150) 
        0    0    0    0    0    0    0    0   56    0   56    0

>  <minimizedAffinity>  (150) 
-6.72898

>  <CNNscore>  (150) 
0.6841068864

>  <CNNaffinity>  (150) 
4.3860387802

>  <CNN_VS>  (150) 
3.0005192757

>  <CNNaffinity_variance>  (150) 
0.1039724573

$$$$
151
     RDKit          3D

 43 45  0  0  0  0  0  0  0  0999 V2000
   21.9015   72.7871   -5.7275 P   0  0  2  0  0  0  0  0  0  0  0  0
   21.8325   74.2121   -6.4915 O   0  0  0  0  0  0  0  0  0  0  0  0
   23.2615   72.4047   -5.2215 O   0  0  0  0  0  0  0  0  0  0  0  0
   21.2241   71.7533   -6.7717 O   0  0  0  0  0  0  0  0  0  0  0  0
   19.9234   72.0351   -7.2545 C   0  0  0  0  0  0  0  0  0  0  0  0
   18.6477   70.0794   -6.6837 O   0  0  0  0  0  0  0  0  0  0  0  0
   18.1018   69.8063   -9.6195 O   0  0  0  0  0  0  0  0  0  0  0  0
   15.7939   70.9184   -8.6852 O   0  0  0  0  0  0  0  0  0  0  0  0
   18.2201   70.9891   -8.8285 C   0  0  1  0  0  0  0  0  0  0  0  0
   16.9857   71.1720   -7.9712 C   0  0  2  0  0  0  0  0  0  0  0  0
   19.3012   70.7492   -7.7835 C   0  0  1  0  0  0  0  0  0  0  0  0
   17.2244   70.1679   -6.8564 C   0  0  2  0  0  0  0  0  0  0  0  0
   17.4167   69.9355  -10.2945 H   0  0  0  0  0  0  0  0  0  0  0  0
   15.6872   71.5843   -9.3831 H   0  0  0  0  0  0  0  0  0  0  0  0
   16.8435   68.4645   -4.6361 O   0  0  0  0  0  0  0  0  0  0  0  0
   14.9251   71.8363   -2.1472 O   0  0  0  0  0  0  0  0  0  0  0  0
   16.6279   70.5746   -5.6156 N   0  0  0  0  0  0  0  0  0  0  0  0
   15.8874   70.1452   -3.3989 N   0  0  0  0  0  0  0  0  0  0  0  0
   16.4827   69.6407   -4.5626 C   0  0  0  0  0  0  0  0  0  0  0  0
   16.1958   71.8849   -5.4504 C   0  0  0  0  0  0  0  0  0  0  0  0
   15.6304   72.3512   -4.3352 C   0  0  0  0  0  0  0  0  0  0  0  0
   15.4412   71.4397   -3.1876 C   0  0  0  0  0  0  0  0  0  0  0  0
   15.7738   69.5131   -2.6527 H   0  0  0  0  0  0  0  0  0  0  0  0
   20.7732   72.9357   -4.5796 O   0  0  0  0  0  0  0  0  0  0  0  0
   20.3960   71.9794   -3.3319 P   0  0  2  0  0  0  0  0  0  0  0  0
   21.3851   70.7126   -3.5247 O   0  0  0  0  0  0  0  0  0  0  0  0
   18.9406   71.6206   -3.2490 O   0  0  0  0  0  0  0  0  0  0  0  0
   20.9702   72.7509   -2.0367 O   0  0  0  0  0  0  0  0  0  0  0  0
   23.0382   73.1981   -0.9724 O   0  0  0  0  0  0  0  0  0  0  0  0
   20.7444   71.8405    2.1841 O   0  0  0  0  0  0  0  0  0  0  0  0
   20.6146   70.5177   -0.4173 O   0  0  0  0  0  0  0  0  0  0  0  0
   21.3066   74.6789    1.9036 O   0  0  0  0  0  0  0  0  0  0  0  0
   20.9915   72.4936    0.9390 C   0  0  2  0  0  0  0  0  0  0  0  0
   21.5841   71.4939   -0.0545 C   0  0  2  0  0  0  0  0  0  0  0  0
   21.9748   73.6385    1.1925 C   0  0  1  0  0  0  0  0  0  0  0  0
   22.0738   72.2030   -1.3179 C   0  0  1  0  0  0  0  0  0  0  0  0
   22.5136   74.2101   -0.1158 C   0  0  1  0  0  0  0  0  0  0  0  0
   20.1219   71.1089    2.0478 H   0  0  0  0  0  0  0  0  0  0  0  0
   20.2992   70.0640    0.3796 H   0  0  0  0  0  0  0  0  0  0  0  0
   20.9588   74.3282    2.7384 H   0  0  0  0  0  0  0  0  0  0  0  0
   24.6903   74.8125   -0.7488 O   0  0  0  0  0  0  0  0  0  0  0  0
   23.7720   75.9316    1.0129 O   0  0  0  0  0  0  0  0  0  0  0  0
   23.6988   75.0844    0.1355 C   0  0  0  0  0  0  0  0  0  0  0  0
  1  4  1  0
  1 24  1  0
  1  2  1  6
  1  3  2  0
 25 28  1  0
 25 24  1  0
 25 26  1  6
 25 27  2  0
  6 11  1  0
  6 12  1  0
 29 36  1  0
 29 37  1  0
  9  7  1  6
  7 13  1  0
 10  8  1  6
  8 14  1  0
  4  5  1  0
 36 28  1  1
 33 30  1  1
 30 38  1  0
 34 31  1  6
 31 39  1  0
 35 32  1  6
 32 40  1  0
 41 43  1  0
 15 19  2  0
 42 43  2  0
 16 22  2  0
 12 17  1  1
 17 19  1  0
 17 20  1  0
 18 19  1  0
 18 22  1  0
 18 23  1  0
  9 10  1  0
  9 11  1  0
 10 12  1  0
 11  5  1  1
 33 34  1  0
 33 35  1  0
 34 36  1  0
 35 37  1  0
 37 43  1  1
 20 21  2  0
 21 22  1  0
M  CHG  3   2  -1  26  -1  41  -1
M  END
>  <COMPND>  (151) 
    udp_gluA.pdb 

>  <AUTHOR>  (151) 
    GENERATED BY OPEN BABEL 3.1.1

>  <MASTER>  (151) 
        0    0    0    0    0    0    0    0   56    0   56    0

>  <minimizedAffinity>  (151) 
-6.71192

>  <CNNscore>  (151) 
0.6780363917

>  <CNNaffinity>  (151) 
4.4523859024

>  <CNN_VS>  (151) 
3.0188796520

>  <CNNaffinity_variance>  (151) 
0.1494449377

$$$$
152
     RDKit          3D

 43 45  0  0  0  0  0  0  0  0999 V2000
   22.6844   72.4106   -3.8676 P   0  0  2  0  0  0  0  0  0  0  0  0
   22.1224   70.9192   -3.5870 O   0  0  0  0  0  0  0  0  0  0  0  0
   24.0643   72.4677   -4.4545 O   0  0  0  0  0  0  0  0  0  0  0  0
   22.4907   73.1713   -2.4527 O   0  0  0  0  0  0  0  0  0  0  0  0
   22.4561   74.5867   -2.4453 C   0  0  0  0  0  0  0  0  0  0  0  0
   21.2359   73.9626   -0.4706 O   0  0  0  0  0  0  0  0  0  0  0  0
   20.8492   76.8997   -0.0068 O   0  0  0  0  0  0  0  0  0  0  0  0
   22.8759   76.2869    1.7116 O   0  0  0  0  0  0  0  0  0  0  0  0
   21.9774   76.2109   -0.5465 C   0  0  1  0  0  0  0  0  0  0  0  0
   22.7279   75.4914    0.5540 C   0  0  2  0  0  0  0  0  0  0  0  0
   21.4615   75.0531   -1.3900 C   0  0  1  0  0  0  0  0  0  0  0  0
   21.8510   74.2735    0.7897 C   0  0  2  0  0  0  0  0  0  0  0  0
   21.1538   77.6441    0.5361 H   0  0  0  0  0  0  0  0  0  0  0  0
   23.4423   77.0488    1.5100 H   0  0  0  0  0  0  0  0  0  0  0  0
   20.7425   72.0689    2.1636 O   0  0  0  0  0  0  0  0  0  0  0  0
   24.8310   69.9607    2.4532 O   0  0  0  0  0  0  0  0  0  0  0  0
   22.6030   73.1349    1.2357 N   0  0  0  0  0  0  0  0  0  0  0  0
   22.7800   71.0215    2.3074 N   0  0  0  0  0  0  0  0  0  0  0  0
   21.9501   72.0807    1.9173 C   0  0  0  0  0  0  0  0  0  0  0  0
   23.9701   73.0693    0.9958 C   0  0  0  0  0  0  0  0  0  0  0  0
   24.7480   72.0530    1.3736 C   0  0  0  0  0  0  0  0  0  0  0  0
   24.1443   70.9116    2.0921 C   0  0  0  0  0  0  0  0  0  0  0  0
   22.3484   70.2768    2.7854 H   0  0  0  0  0  0  0  0  0  0  0  0
   21.5316   73.0648   -4.7927 O   0  0  0  0  0  0  0  0  0  0  0  0
   19.9342   73.1825   -4.5734 P   0  0  2  0  0  0  0  0  0  0  0  0
   19.6423   74.7560   -4.8172 O   0  0  0  0  0  0  0  0  0  0  0  0
   19.4544   72.6625   -3.2493 O   0  0  0  0  0  0  0  0  0  0  0  0
   19.2896   72.4454   -5.8555 O   0  0  0  0  0  0  0  0  0  0  0  0
   18.8687   70.1288   -5.6005 O   0  0  0  0  0  0  0  0  0  0  0  0
   18.3319   70.6383   -9.6650 O   0  0  0  0  0  0  0  0  0  0  0  0
   20.5468   71.9539   -8.2874 O   0  0  0  0  0  0  0  0  0  0  0  0
   16.0301   70.3281   -7.9168 O   0  0  0  0  0  0  0  0  0  0  0  0
   18.3079   71.0195   -8.2895 C   0  0  2  0  0  0  0  0  0  0  0  0
   19.7222   70.9464   -7.7134 C   0  0  2  0  0  0  0  0  0  0  0  0
   17.3804   70.0545   -7.5475 C   0  0  1  0  0  0  0  0  0  0  0  0
   19.7040   71.1232   -6.1944 C   0  0  1  0  0  0  0  0  0  0  0  0
   17.5129   70.2067   -6.0350 C   0  0  1  0  0  0  0  0  0  0  0  0
   18.9153   71.2377  -10.1566 H   0  0  0  0  0  0  0  0  0  0  0  0
   20.5627   71.8479   -9.2511 H   0  0  0  0  0  0  0  0  0  0  0  0
   15.9323   70.2349   -8.8773 H   0  0  0  0  0  0  0  0  0  0  0  0
   17.3204   68.9673   -4.0529 O   0  0  0  0  0  0  0  0  0  0  0  0
   16.0429   68.3053   -5.8219 O   0  0  0  0  0  0  0  0  0  0  0  0
   16.8676   69.0595   -5.3279 C   0  0  0  0  0  0  0  0  0  0  0  0
  1  4  1  0
  1 24  1  0
  1  2  1  1
  1  3  2  0
 25 28  1  0
 25 24  1  0
 25 26  1  6
 25 27  2  0
  6 11  1  0
  6 12  1  0
 29 36  1  0
 29 37  1  0
  9  7  1  1
  7 13  1  0
 10  8  1  1
  8 14  1  0
  4  5  1  0
 36 28  1  6
 33 30  1  6
 30 38  1  0
 34 31  1  6
 31 39  1  0
 35 32  1  6
 32 40  1  0
 41 43  1  0
 15 19  2  0
 42 43  2  0
 16 22  2  0
 12 17  1  6
 17 19  1  0
 17 20  1  0
 18 19  1  0
 18 22  1  0
 18 23  1  0
  9 10  1  0
  9 11  1  0
 10 12  1  0
 11  5  1  6
 33 34  1  0
 33 35  1  0
 34 36  1  0
 35 37  1  0
 37 43  1  1
 20 21  2  0
 21 22  1  0
M  CHG  3   2  -1  26  -1  41  -1
M  END
>  <COMPND>  (152) 
    udp_gluA.pdb 

>  <AUTHOR>  (152) 
    GENERATED BY OPEN BABEL 3.1.1

>  <MASTER>  (152) 
        0    0    0    0    0    0    0    0   56    0   56    0

>  <minimizedAffinity>  (152) 
-6.91014

>  <CNNscore>  (152) 
0.6507419348

>  <CNNaffinity>  (152) 
4.4430465698

>  <CNN_VS>  (152) 
2.8912768364

>  <CNNaffinity_variance>  (152) 
0.1216311082

$$$$
153
     RDKit          3D

 43 45  0  0  0  0  0  0  0  0999 V2000
   22.9586   72.5318   -4.0153 P   0  0  2  0  0  0  0  0  0  0  0  0
   23.3686   73.5808   -5.1772 O   0  0  0  0  0  0  0  0  0  0  0  0
   24.0533   71.5977   -3.5900 O   0  0  0  0  0  0  0  0  0  0  0  0
   21.6161   71.8289   -4.5824 O   0  0  0  0  0  0  0  0  0  0  0  0
   20.9951   70.8264   -3.7990 C   0  0  0  0  0  0  0  0  0  0  0  0
   19.0096   71.8043   -4.7367 O   0  0  0  0  0  0  0  0  0  0  0  0
   17.5358   70.5559   -2.4430 O   0  0  0  0  0  0  0  0  0  0  0  0
   17.0050   68.8415   -4.4961 O   0  0  0  0  0  0  0  0  0  0  0  0
   18.6510   70.0549   -3.1805 C   0  0  1  0  0  0  0  0  0  0  0  0
   18.2055   69.5836   -4.5486 C   0  0  2  0  0  0  0  0  0  0  0  0
   19.5522   71.2322   -3.5269 C   0  0  1  0  0  0  0  0  0  0  0  0
   18.0498   70.8954   -5.2988 C   0  0  2  0  0  0  0  0  0  0  0  0
   16.9455   69.8218   -2.2103 H   0  0  0  0  0  0  0  0  0  0  0  0
   17.1563   68.0159   -4.0088 H   0  0  0  0  0  0  0  0  0  0  0  0
   16.1465   70.0056   -7.1862 O   0  0  0  0  0  0  0  0  0  0  0  0
   19.1428   70.4009  -10.6662 O   0  0  0  0  0  0  0  0  0  0  0  0
   18.3059   70.7565   -6.7045 N   0  0  0  0  0  0  0  0  0  0  0  0
   17.6410   70.2024   -8.9175 N   0  0  0  0  0  0  0  0  0  0  0  0
   17.2808   70.3010   -7.5671 C   0  0  0  0  0  0  0  0  0  0  0  0
   19.5592   71.0710   -7.2156 C   0  0  0  0  0  0  0  0  0  0  0  0
   19.8875   70.9720   -8.5053 C   0  0  0  0  0  0  0  0  0  0  0  0
   18.8741   70.5029   -9.4730 C   0  0  0  0  0  0  0  0  0  0  0  0
   16.9445   69.8855   -9.5370 H   0  0  0  0  0  0  0  0  0  0  0  0
   22.3982   73.4913   -2.8413 O   0  0  0  0  0  0  0  0  0  0  0  0
   23.1682   74.2917   -1.6666 P   0  0  2  0  0  0  0  0  0  0  0  0
   21.9835   75.1354   -0.9559 O   0  0  0  0  0  0  0  0  0  0  0  0
   24.3214   75.1264   -2.1436 O   0  0  0  0  0  0  0  0  0  0  0  0
   23.5631   73.1577   -0.5893 O   0  0  0  0  0  0  0  0  0  0  0  0
   22.9930   70.8614   -0.4833 O   0  0  0  0  0  0  0  0  0  0  0  0
   23.1790   71.8671    3.5194 O   0  0  0  0  0  0  0  0  0  0  0  0
   21.9212   73.6709    1.5962 O   0  0  0  0  0  0  0  0  0  0  0  0
   25.3332   70.3467    2.2953 O   0  0  0  0  0  0  0  0  0  0  0  0
   23.5348   71.9424    2.1390 C   0  0  2  0  0  0  0  0  0  0  0  0
   22.3072   72.3307    1.3145 C   0  0  2  0  0  0  0  0  0  0  0  0
   24.0522   70.5681    1.7084 C   0  0  1  0  0  0  0  0  0  0  0  0
   22.5893   72.1979   -0.1827 C   0  0  1  0  0  0  0  0  0  0  0  0
   24.1879   70.4742    0.1914 C   0  0  1  0  0  0  0  0  0  0  0  0
   22.8472   72.7294    3.8155 H   0  0  0  0  0  0  0  0  0  0  0  0
   21.7409   73.7624    2.5447 H   0  0  0  0  0  0  0  0  0  0  0  0
   25.2607   70.4039    3.2609 H   0  0  0  0  0  0  0  0  0  0  0  0
   24.5084   68.9761   -1.5848 O   0  0  0  0  0  0  0  0  0  0  0  0
   24.3963   68.0922    0.5141 O   0  0  0  0  0  0  0  0  0  0  0  0
   24.3707   69.0548   -0.2380 C   0  0  0  0  0  0  0  0  0  0  0  0
  1  4  1  0
  1 24  1  0
  1  2  1  6
  1  3  2  0
 25 28  1  0
 25 24  1  0
 25 26  1  1
 25 27  2  0
  6 11  1  0
  6 12  1  0
 29 36  1  0
 29 37  1  0
  9  7  1  1
  7 13  1  0
 10  8  1  1
  8 14  1  0
  4  5  1  0
 36 28  1  1
 33 30  1  1
 30 38  1  0
 34 31  1  6
 31 39  1  0
 35 32  1  1
 32 40  1  0
 41 43  1  0
 15 19  2  0
 42 43  2  0
 16 22  2  0
 12 17  1  6
 17 19  1  0
 17 20  1  0
 18 19  1  0
 18 22  1  0
 18 23  1  0
  9 10  1  0
  9 11  1  0
 10 12  1  0
 11  5  1  6
 33 34  1  0
 33 35  1  0
 34 36  1  0
 35 37  1  0
 37 43  1  1
 20 21  2  0
 21 22  1  0
M  CHG  3   2  -1  26  -1  41  -1
M  END
>  <COMPND>  (153) 
    udp_gluA.pdb 

>  <AUTHOR>  (153) 
    GENERATED BY OPEN BABEL 3.1.1

>  <MASTER>  (153) 
        0    0    0    0    0    0    0    0   56    0   56    0

>  <minimizedAffinity>  (153) 
-7.85403

>  <CNNscore>  (153) 
0.6433668137

>  <CNNaffinity>  (153) 
4.5284786224

>  <CNN_VS>  (153) 
2.9134728909

>  <CNNaffinity_variance>  (153) 
0.1024424583

$$$$
154
     RDKit          3D

 43 45  0  0  0  0  0  0  0  0999 V2000
   21.0897   72.4241   -1.4718 P   0  0  2  0  0  0  0  0  0  0  0  0
   20.5181   73.2515   -0.2039 O   0  0  0  0  0  0  0  0  0  0  0  0
   22.0944   73.1608   -2.3082 O   0  0  0  0  0  0  0  0  0  0  0  0
   19.7575   71.9306   -2.2462 O   0  0  0  0  0  0  0  0  0  0  0  0
   19.5056   72.4330   -3.5457 C   0  0  0  0  0  0  0  0  0  0  0  0
   18.6393   70.2011   -3.7601 O   0  0  0  0  0  0  0  0  0  0  0  0
   18.6343   70.6869   -6.7190 O   0  0  0  0  0  0  0  0  0  0  0  0
   16.0164   71.0552   -6.0503 O   0  0  0  0  0  0  0  0  0  0  0  0
   18.3538   71.5952   -5.6537 C   0  0  1  0  0  0  0  0  0  0  0  0
   16.9923   71.3020   -5.0597 C   0  0  2  0  0  0  0  0  0  0  0  0
   19.2848   71.2629   -4.4957 C   0  0  1  0  0  0  0  0  0  0  0  0
   17.2784   70.0802   -4.2034 C   0  0  2  0  0  0  0  0  0  0  0  0
   18.0514   70.8797   -7.4706 H   0  0  0  0  0  0  0  0  0  0  0  0
   15.8699   71.8628   -6.5681 H   0  0  0  0  0  0  0  0  0  0  0  0
   17.3975   68.0359   -2.2583 O   0  0  0  0  0  0  0  0  0  0  0  0
   13.9311   69.8798    0.1559 O   0  0  0  0  0  0  0  0  0  0  0  0
   16.4188   70.0017   -3.0562 N   0  0  0  0  0  0  0  0  0  0  0  0
   15.6703   68.9557   -1.0583 N   0  0  0  0  0  0  0  0  0  0  0  0
   16.5612   68.9333   -2.1394 C   0  0  0  0  0  0  0  0  0  0  0  0
   15.4500   70.9757   -2.8475 C   0  0  0  0  0  0  0  0  0  0  0  0
   14.6081   70.9836   -1.8121 C   0  0  0  0  0  0  0  0  0  0  0  0
   14.6899   69.9023   -0.8085 C   0  0  0  0  0  0  0  0  0  0  0  0
   15.7488   68.2209   -0.4076 H   0  0  0  0  0  0  0  0  0  0  0  0
   21.6431   71.0633   -0.7974 O   0  0  0  0  0  0  0  0  0  0  0  0
   23.0775   70.7118   -0.1396 P   0  0  2  0  0  0  0  0  0  0  0  0
   22.6790   70.0217    1.2694 O   0  0  0  0  0  0  0  0  0  0  0  0
   24.0016   71.8882   -0.0126 O   0  0  0  0  0  0  0  0  0  0  0  0
   23.6538   69.5015   -1.0371 O   0  0  0  0  0  0  0  0  0  0  0  0
   24.7288   67.7921    0.2004 O   0  0  0  0  0  0  0  0  0  0  0  0
   25.6825   66.7467   -3.6810 O   0  0  0  0  0  0  0  0  0  0  0  0
   25.7761   69.5411   -2.8345 O   0  0  0  0  0  0  0  0  0  0  0  0
   23.6438   65.2669   -2.2303 O   0  0  0  0  0  0  0  0  0  0  0  0
   24.8745   67.2971   -2.6407 C   0  0  2  0  0  0  0  0  0  0  0  0
   25.6307   68.4339   -1.9527 C   0  0  2  0  0  0  0  0  0  0  0  0
   24.5665   66.1807   -1.6404 C   0  0  1  0  0  0  0  0  0  0  0  0
   24.8975   68.8942   -0.6919 C   0  0  1  0  0  0  0  0  0  0  0  0
   23.9517   66.7353   -0.3586 C   0  0  1  0  0  0  0  0  0  0  0  0
   25.8911   67.4381   -4.3288 H   0  0  0  0  0  0  0  0  0  0  0  0
   26.2403   69.2561   -3.6368 H   0  0  0  0  0  0  0  0  0  0  0  0
   24.0229   64.9067   -3.0472 H   0  0  0  0  0  0  0  0  0  0  0  0
   24.6569   66.1456    1.7993 O   0  0  0  0  0  0  0  0  0  0  0  0
   23.4146   64.6132    0.6560 O   0  0  0  0  0  0  0  0  0  0  0  0
   23.9600   65.7045    0.7229 C   0  0  0  0  0  0  0  0  0  0  0  0
  1  4  1  0
  1 24  1  0
  1  2  1  1
  1  3  2  0
 25 28  1  0
 25 24  1  0
 25 26  1  1
 25 27  2  0
  6 11  1  0
  6 12  1  0
 29 36  1  0
 29 37  1  0
  9  7  1  6
  7 13  1  0
 10  8  1  6
  8 14  1  0
  4  5  1  0
 36 28  1  6
 33 30  1  6
 30 38  1  0
 34 31  1  6
 31 39  1  0
 35 32  1  6
 32 40  1  0
 41 43  1  0
 15 19  2  0
 42 43  2  0
 16 22  2  0
 12 17  1  1
 17 19  1  0
 17 20  1  0
 18 19  1  0
 18 22  1  0
 18 23  1  0
  9 10  1  0
  9 11  1  0
 10 12  1  0
 11  5  1  1
 33 34  1  0
 33 35  1  0
 34 36  1  0
 35 37  1  0
 37 43  1  1
 20 21  2  0
 21 22  1  0
M  CHG  3   2  -1  26  -1  41  -1
M  END
>  <COMPND>  (154) 
    udp_gluA.pdb 

>  <AUTHOR>  (154) 
    GENERATED BY OPEN BABEL 3.1.1

>  <MASTER>  (154) 
        0    0    0    0    0    0    0    0   56    0   56    0

>  <minimizedAffinity>  (154) 
-7.74835

>  <CNNscore>  (154) 
0.6291759610

>  <CNNaffinity>  (154) 
4.4848484993

>  <CNN_VS>  (154) 
2.8217587471

>  <CNNaffinity_variance>  (154) 
0.0911163464

$$$$
155
     RDKit          3D

 43 45  0  0  0  0  0  0  0  0999 V2000
   20.6084   71.8771   -4.8065 P   0  0  2  0  0  0  0  0  0  0  0  0
   19.6533   70.9496   -3.8864 O   0  0  0  0  0  0  0  0  0  0  0  0
   20.1531   73.2986   -4.9605 O   0  0  0  0  0  0  0  0  0  0  0  0
   20.7607   71.0354   -6.1800 O   0  0  0  0  0  0  0  0  0  0  0  0
   20.2218   71.5805   -7.3703 C   0  0  0  0  0  0  0  0  0  0  0  0
   18.6353   69.8084   -7.0231 O   0  0  0  0  0  0  0  0  0  0  0  0
   17.9240   70.1295   -9.9184 O   0  0  0  0  0  0  0  0  0  0  0  0
   15.9005   71.4529   -8.6573 O   0  0  0  0  0  0  0  0  0  0  0  0
   18.2903   71.1244   -8.9622 C   0  0  1  0  0  0  0  0  0  0  0  0
   17.1480   71.3727   -8.0001 C   0  0  2  0  0  0  0  0  0  0  0  0
   19.3528   70.5291   -8.0484 C   0  0  1  0  0  0  0  0  0  0  0  0
   17.2462   70.1702   -7.0769 C   0  0  2  0  0  0  0  0  0  0  0  0
   17.2459   70.4867  -10.5136 H   0  0  0  0  0  0  0  0  0  0  0  0
   15.8878   72.2345   -9.2326 H   0  0  0  0  0  0  0  0  0  0  0  0
   16.4814   68.2128   -5.1901 O   0  0  0  0  0  0  0  0  0  0  0  0
   15.5029   71.4002   -2.0078 O   0  0  0  0  0  0  0  0  0  0  0  0
   16.7877   70.4608   -5.7479 N   0  0  0  0  0  0  0  0  0  0  0  0
   15.9938   69.8022   -3.6073 N   0  0  0  0  0  0  0  0  0  0  0  0
   16.4277   69.4040   -4.8786 C   0  0  0  0  0  0  0  0  0  0  0  0
   16.6998   71.7790   -5.3172 C   0  0  0  0  0  0  0  0  0  0  0  0
   16.2846   72.1430   -4.1024 C   0  0  0  0  0  0  0  0  0  0  0  0
   15.8889   71.0999   -3.1334 C   0  0  0  0  0  0  0  0  0  0  0  0
   15.7358   69.0842   -2.9850 H   0  0  0  0  0  0  0  0  0  0  0  0
   22.0582   71.7057   -4.1126 O   0  0  0  0  0  0  0  0  0  0  0  0
   23.0632   72.7972   -3.4704 P   0  0  2  0  0  0  0  0  0  0  0  0
   22.2506   74.1879   -3.6312 O   0  0  0  0  0  0  0  0  0  0  0  0
   24.4339   72.8075   -4.0829 O   0  0  0  0  0  0  0  0  0  0  0  0
   23.0400   72.4928   -1.8864 O   0  0  0  0  0  0  0  0  0  0  0  0
   23.5776   70.5399   -0.6591 O   0  0  0  0  0  0  0  0  0  0  0  0
   20.4865   72.1171    1.5826 O   0  0  0  0  0  0  0  0  0  0  0  0
   20.3419   72.1019   -1.3352 O   0  0  0  0  0  0  0  0  0  0  0  0
   23.2318   72.3615    2.5070 O   0  0  0  0  0  0  0  0  0  0  0  0
   21.6254   72.1578    0.7229 C   0  0  2  0  0  0  0  0  0  0  0  0
   21.3175   71.4030   -0.5706 C   0  0  2  0  0  0  0  0  0  0  0  0
   22.7959   71.4999    1.4572 C   0  0  1  0  0  0  0  0  0  0  0  0
   22.5801   71.2273   -1.4153 C   0  0  1  0  0  0  0  0  0  0  0  0
   23.9703   71.2440    0.5170 C   0  0  1  0  0  0  0  0  0  0  0  0
   19.7299   72.5298    1.1369 H   0  0  0  0  0  0  0  0  0  0  0  0
   19.5381   72.2171   -0.8051 H   0  0  0  0  0  0  0  0  0  0  0  0
   22.4935   72.5325    3.1125 H   0  0  0  0  0  0  0  0  0  0  0  0
   24.6812   69.0310    0.8316 O   0  0  0  0  0  0  0  0  0  0  0  0
   25.9001   70.6693    1.8462 O   0  0  0  0  0  0  0  0  0  0  0  0
   24.9617   70.3200    1.1459 C   0  0  0  0  0  0  0  0  0  0  0  0
  1  4  1  0
  1 24  1  0
  1  2  1  1
  1  3  2  0
 25 28  1  0
 25 24  1  0
 25 26  1  1
 25 27  2  0
  6 11  1  0
  6 12  1  0
 29 36  1  0
 29 37  1  0
  9  7  1  6
  7 13  1  0
 10  8  1  6
  8 14  1  0
  4  5  1  0
 36 28  1  1
 33 30  1  1
 30 38  1  0
 34 31  1  6
 31 39  1  0
 35 32  1  1
 32 40  1  0
 41 43  1  0
 15 19  2  0
 42 43  2  0
 16 22  2  0
 12 17  1  1
 17 19  1  0
 17 20  1  0
 18 19  1  0
 18 22  1  0
 18 23  1  0
  9 10  1  0
  9 11  1  0
 10 12  1  0
 11  5  1  1
 33 34  1  0
 33 35  1  0
 34 36  1  0
 35 37  1  0
 37 43  1  1
 20 21  2  0
 21 22  1  0
M  CHG  3   2  -1  26  -1  41  -1
M  END
>  <COMPND>  (155) 
    udp_gluA.pdb 

>  <AUTHOR>  (155) 
    GENERATED BY OPEN BABEL 3.1.1

>  <MASTER>  (155) 
        0    0    0    0    0    0    0    0   56    0   56    0

>  <minimizedAffinity>  (155) 
-7.42169

>  <CNNscore>  (155) 
0.6290166974

>  <CNNaffinity>  (155) 
4.2971315384

>  <CNN_VS>  (155) 
2.7029674053

>  <CNNaffinity_variance>  (155) 
0.2327173203

$$$$
156
     RDKit          3D

 43 45  0  0  0  0  0  0  0  0999 V2000
   22.7309   71.1813   -2.7178 P   0  0  2  0  0  0  0  0  0  0  0  0
   24.2708   70.7465   -2.9599 O   0  0  0  0  0  0  0  0  0  0  0  0
   21.7172   70.1167   -3.0190 O   0  0  0  0  0  0  0  0  0  0  0  0
   22.5782   72.5550   -3.5590 O   0  0  0  0  0  0  0  0  0  0  0  0
   21.2890   72.9359   -4.0034 C   0  0  0  0  0  0  0  0  0  0  0  0
   20.8086   71.9856   -6.1584 O   0  0  0  0  0  0  0  0  0  0  0  0
   20.9521   74.7867   -7.2189 O   0  0  0  0  0  0  0  0  0  0  0  0
   18.2657   74.3563   -7.0346 O   0  0  0  0  0  0  0  0  0  0  0  0
   20.4499   74.3192   -5.9668 C   0  0  1  0  0  0  0  0  0  0  0  0
   19.1113   73.6387   -6.1602 C   0  0  2  0  0  0  0  0  0  0  0  0
   21.3308   73.1649   -5.5088 C   0  0  1  0  0  0  0  0  0  0  0  0
   19.5222   72.2881   -6.7214 C   0  0  2  0  0  0  0  0  0  0  0  0
   20.4051   75.5247   -7.5318 H   0  0  0  0  0  0  0  0  0  0  0  0
   18.0322   75.2080   -6.6320 H   0  0  0  0  0  0  0  0  0  0  0  0
   18.0572   70.7561   -8.5877 O   0  0  0  0  0  0  0  0  0  0  0  0
   16.0170   68.3119   -5.2549 O   0  0  0  0  0  0  0  0  0  0  0  0
   18.6011   71.2450   -6.3688 N   0  0  0  0  0  0  0  0  0  0  0  0
   17.0417   69.5409   -6.9259 N   0  0  0  0  0  0  0  0  0  0  0  0
   17.9157   70.5358   -7.3834 C   0  0  0  0  0  0  0  0  0  0  0  0
   18.3858   70.9325   -5.0320 C   0  0  0  0  0  0  0  0  0  0  0  0
   17.5496   69.9814   -4.6114 C   0  0  0  0  0  0  0  0  0  0  0  0
   16.7937   69.1942   -5.6076 C   0  0  0  0  0  0  0  0  0  0  0  0
   16.5516   69.0350   -7.6138 H   0  0  0  0  0  0  0  0  0  0  0  0
   22.7350   71.6927   -1.1844 O   0  0  0  0  0  0  0  0  0  0  0  0
   22.3440   70.9340    0.1886 P   0  0  2  0  0  0  0  0  0  0  0  0
   23.3907   69.7003    0.2403 O   0  0  0  0  0  0  0  0  0  0  0  0
   20.9020   70.5257    0.2775 O   0  0  0  0  0  0  0  0  0  0  0  0
   22.8311   71.9306    1.3599 O   0  0  0  0  0  0  0  0  0  0  0  0
   24.6549   71.2787    2.7230 O   0  0  0  0  0  0  0  0  0  0  0  0
   23.0110   74.3573    4.9340 O   0  0  0  0  0  0  0  0  0  0  0  0
   21.2914   72.3878    3.6307 O   0  0  0  0  0  0  0  0  0  0  0  0
   25.4601   74.7882    3.4283 O   0  0  0  0  0  0  0  0  0  0  0  0
   23.3606   73.6493    3.7446 C   0  0  2  0  0  0  0  0  0  0  0  0
   22.7036   72.2689    3.7589 C   0  0  2  0  0  0  0  0  0  0  0  0
   24.8844   73.5131    3.7060 C   0  0  1  0  0  0  0  0  0  0  0  0
   23.2355   71.3980    2.6199 C   0  0  1  0  0  0  0  0  0  0  0  0
   25.3288   72.5315    2.6255 C   0  0  1  0  0  0  0  0  0  0  0  0
   22.0469   74.4559    4.9802 H   0  0  0  0  0  0  0  0  0  0  0  0
   20.9472   72.9394    4.3501 H   0  0  0  0  0  0  0  0  0  0  0  0
   25.1850   75.4223    4.1088 H   0  0  0  0  0  0  0  0  0  0  0  0
   27.0141   70.9426    2.2562 O   0  0  0  0  0  0  0  0  0  0  0  0
   27.6020   72.8422    3.3719 O   0  0  0  0  0  0  0  0  0  0  0  0
   26.7633   72.1558    2.8076 C   0  0  0  0  0  0  0  0  0  0  0  0
  1  4  1  0
  1 24  1  0
  1  2  1  6
  1  3  2  0
 25 28  1  0
 25 24  1  0
 25 26  1  1
 25 27  2  0
  6 11  1  0
  6 12  1  0
 29 36  1  0
 29 37  1  0
  9  7  1  6
  7 13  1  0
 10  8  1  6
  8 14  1  0
  4  5  1  0
 36 28  1  6
 33 30  1  1
 30 38  1  0
 34 31  1  6
 31 39  1  0
 35 32  1  6
 32 40  1  0
 41 43  1  0
 15 19  2  0
 42 43  2  0
 16 22  2  0
 12 17  1  1
 17 19  1  0
 17 20  1  0
 18 19  1  0
 18 22  1  0
 18 23  1  0
  9 10  1  0
  9 11  1  0
 10 12  1  0
 11  5  1  1
 33 34  1  0
 33 35  1  0
 34 36  1  0
 35 37  1  0
 37 43  1  1
 20 21  2  0
 21 22  1  0
M  CHG  3   2  -1  26  -1  41  -1
M  END
>  <COMPND>  (156) 
    udp_gluA.pdb 

>  <AUTHOR>  (156) 
    GENERATED BY OPEN BABEL 3.1.1

>  <MASTER>  (156) 
        0    0    0    0    0    0    0    0   56    0   56    0

>  <minimizedAffinity>  (156) 
-7.05208

>  <CNNscore>  (156) 
0.5978223681

>  <CNNaffinity>  (156) 
4.2222213745

>  <CNN_VS>  (156) 
2.5241384506

>  <CNNaffinity_variance>  (156) 
0.0133874537

$$$$
157
     RDKit          3D

 43 45  0  0  0  0  0  0  0  0999 V2000
   21.8554   72.5406   -5.7699 P   0  0  2  0  0  0  0  0  0  0  0  0
   21.3204   73.9946   -5.3023 O   0  0  0  0  0  0  0  0  0  0  0  0
   23.0473   72.5671   -6.6812 O   0  0  0  0  0  0  0  0  0  0  0  0
   20.5363   71.8123   -6.3593 O   0  0  0  0  0  0  0  0  0  0  0  0
   20.2330   71.9713   -7.7331 C   0  0  0  0  0  0  0  0  0  0  0  0
   19.0225   69.9957   -7.0934 O   0  0  0  0  0  0  0  0  0  0  0  0
   18.1042   69.8607   -9.9447 O   0  0  0  0  0  0  0  0  0  0  0  0
   15.9447   70.9361   -8.6735 O   0  0  0  0  0  0  0  0  0  0  0  0
   18.3334   71.0051   -9.1224 C   0  0  1  0  0  0  0  0  0  0  0  0
   17.2201   71.1523   -8.1069 C   0  0  2  0  0  0  0  0  0  0  0  0
   19.5366   70.7134   -8.2362 C   0  0  1  0  0  0  0  0  0  0  0  0
   17.5897   70.0969   -7.0786 C   0  0  2  0  0  0  0  0  0  0  0  0
   17.3399   70.0233  -10.5201 H   0  0  0  0  0  0  0  0  0  0  0  0
   15.7561   71.6340   -9.3211 H   0  0  0  0  0  0  0  0  0  0  0  0
   16.5376   68.2639   -5.2052 O   0  0  0  0  0  0  0  0  0  0  0  0
   15.9735   71.5548   -2.0279 O   0  0  0  0  0  0  0  0  0  0  0  0
   17.1601   70.4477   -5.7545 N   0  0  0  0  0  0  0  0  0  0  0  0
   16.2567   69.9049   -3.6249 N   0  0  0  0  0  0  0  0  0  0  0  0
   16.6462   69.4508   -4.8918 C   0  0  0  0  0  0  0  0  0  0  0  0
   17.2512   71.7652   -5.3221 C   0  0  0  0  0  0  0  0  0  0  0  0
   16.8760   72.1827   -4.1114 C   0  0  0  0  0  0  0  0  0  0  0  0
   16.3275   71.2043   -3.1495 C   0  0  0  0  0  0  0  0  0  0  0  0
   15.8939   69.2293   -3.0073 H   0  0  0  0  0  0  0  0  0  0  0  0
   22.0972   71.7746   -4.3672 O   0  0  0  0  0  0  0  0  0  0  0  0
   21.0504   71.1948   -3.2802 P   0  0  2  0  0  0  0  0  0  0  0  0
   20.4319   69.8943   -4.0194 O   0  0  0  0  0  0  0  0  0  0  0  0
   20.0253   72.1906   -2.8204 O   0  0  0  0  0  0  0  0  0  0  0  0
   21.9743   70.5928   -2.1027 O   0  0  0  0  0  0  0  0  0  0  0  0
   23.6393   72.0497   -1.2573 O   0  0  0  0  0  0  0  0  0  0  0  0
   24.7481   68.4415    0.4218 O   0  0  0  0  0  0  0  0  0  0  0  0
   23.8675   68.5716   -2.3606 O   0  0  0  0  0  0  0  0  0  0  0  0
   23.4352   70.4643    2.0452 O   0  0  0  0  0  0  0  0  0  0  0  0
   23.8389   69.4174   -0.0869 C   0  0  2  0  0  0  0  0  0  0  0  0
   24.1641   69.7048   -1.5529 C   0  0  2  0  0  0  0  0  0  0  0  0
   23.9918   70.6886    0.7513 C   0  0  1  0  0  0  0  0  0  0  0  0
   23.3658   70.9044   -2.0654 C   0  0  1  0  0  0  0  0  0  0  0  0
   23.2710   71.8700    0.1084 C   0  0  1  0  0  0  0  0  0  0  0  0
   24.6688   67.6246   -0.0956 H   0  0  0  0  0  0  0  0  0  0  0  0
   24.3704   67.8066   -2.0409 H   0  0  0  0  0  0  0  0  0  0  0  0
   23.8852   69.7147    2.4653 H   0  0  0  0  0  0  0  0  0  0  0  0
   24.3622   73.9304   -0.1475 O   0  0  0  0  0  0  0  0  0  0  0  0
   23.4647   73.4758    1.8987 O   0  0  0  0  0  0  0  0  0  0  0  0
   23.6916   73.1563    0.7413 C   0  0  0  0  0  0  0  0  0  0  0  0
  1  4  1  0
  1 24  1  0
  1  2  1  1
  1  3  2  0
 25 28  1  0
 25 24  1  0
 25 26  1  6
 25 27  2  0
  6 11  1  0
  6 12  1  0
 29 36  1  0
 29 37  1  0
  9  7  1  6
  7 13  1  0
 10  8  1  6
  8 14  1  0
  4  5  1  0
 36 28  1  1
 33 30  1  1
 30 38  1  0
 34 31  1  6
 31 39  1  0
 35 32  1  1
 32 40  1  0
 41 43  1  0
 15 19  2  0
 42 43  2  0
 16 22  2  0
 12 17  1  1
 17 19  1  0
 17 20  1  0
 18 19  1  0
 18 22  1  0
 18 23  1  0
  9 10  1  0
  9 11  1  0
 10 12  1  0
 11  5  1  1
 33 34  1  0
 33 35  1  0
 34 36  1  0
 35 37  1  0
 37 43  1  1
 20 21  2  0
 21 22  1  0
M  CHG  3   2  -1  26  -1  41  -1
M  END
>  <COMPND>  (157) 
    udp_gluA.pdb 

>  <AUTHOR>  (157) 
    GENERATED BY OPEN BABEL 3.1.1

>  <MASTER>  (157) 
        0    0    0    0    0    0    0    0   56    0   56    0

>  <minimizedAffinity>  (157) 
-7.76906

>  <CNNscore>  (157) 
0.5773376822

>  <CNNaffinity>  (157) 
4.3811731339

>  <CNN_VS>  (157) 
2.5294163227

>  <CNNaffinity_variance>  (157) 
0.1770645678

$$$$
158
     RDKit          3D

 43 45  0  0  0  0  0  0  0  0999 V2000
   22.1072   74.9698   -3.7301 P   0  0  2  0  0  0  0  0  0  0  0  0
   23.6555   74.5920   -4.0112 O   0  0  0  0  0  0  0  0  0  0  0  0
   21.7198   76.3714   -4.1004 O   0  0  0  0  0  0  0  0  0  0  0  0
   21.8841   74.5656   -2.1794 O   0  0  0  0  0  0  0  0  0  0  0  0
   21.4738   73.2446   -1.8773 C   0  0  0  0  0  0  0  0  0  0  0  0
   22.8707   73.0434    0.0684 O   0  0  0  0  0  0  0  0  0  0  0  0
   23.6150   70.3326   -0.9752 O   0  0  0  0  0  0  0  0  0  0  0  0
   21.7779   69.7452    0.9525 O   0  0  0  0  0  0  0  0  0  0  0  0
   22.3611   71.0125   -1.0390 C   0  0  1  0  0  0  0  0  0  0  0  0
   21.6907   71.0042    0.3185 C   0  0  2  0  0  0  0  0  0  0  0  0
   22.6404   72.4947   -1.2473 C   0  0  1  0  0  0  0  0  0  0  0  0
   22.4608   72.0854    1.0572 C   0  0  2  0  0  0  0  0  0  0  0  0
   23.4622   69.3836   -0.8424 H   0  0  0  0  0  0  0  0  0  0  0  0
   21.2715   69.0915    0.4443 H   0  0  0  0  0  0  0  0  0  0  0  0
   22.8571   71.8570    3.8442 O   0  0  0  0  0  0  0  0  0  0  0  0
   19.3290   74.6776    4.7612 O   0  0  0  0  0  0  0  0  0  0  0  0
   21.6604   72.7493    2.0469 N   0  0  0  0  0  0  0  0  0  0  0  0
   21.0989   73.2613    4.2983 N   0  0  0  0  0  0  0  0  0  0  0  0
   21.9430   72.5674    3.4213 C   0  0  0  0  0  0  0  0  0  0  0  0
   20.6108   73.5705    1.6532 C   0  0  0  0  0  0  0  0  0  0  0  0
   19.8149   74.2254    2.5008 C   0  0  0  0  0  0  0  0  0  0  0  0
   20.0421   74.0887    3.9545 C   0  0  0  0  0  0  0  0  0  0  0  0
   21.2749   73.1486    5.2604 H   0  0  0  0  0  0  0  0  0  0  0  0
   21.3020   73.8160   -4.5259 O   0  0  0  0  0  0  0  0  0  0  0  0
   21.3827   73.3358   -6.0675 P   0  0  2  0  0  0  0  0  0  0  0  0
   22.5987   72.2673   -6.0588 O   0  0  0  0  0  0  0  0  0  0  0  0
   21.5506   74.4557   -7.0533 O   0  0  0  0  0  0  0  0  0  0  0  0
   20.0575   72.4428   -6.2879 O   0  0  0  0  0  0  0  0  0  0  0  0
   19.1749   70.2583   -6.0472 O   0  0  0  0  0  0  0  0  0  0  0  0
   18.6523   70.9355  -10.0891 O   0  0  0  0  0  0  0  0  0  0  0  0
   21.1247   71.7442   -8.7596 O   0  0  0  0  0  0  0  0  0  0  0  0
   16.3808   71.0760   -8.2803 O   0  0  0  0  0  0  0  0  0  0  0  0
   18.7419   71.2903   -8.7092 C   0  0  2  0  0  0  0  0  0  0  0  0
   20.1249   70.9182   -8.1740 C   0  0  2  0  0  0  0  0  0  0  0  0
   17.6546   70.5243   -7.9523 C   0  0  1  0  0  0  0  0  0  0  0  0
   20.1819   71.0695   -6.6532 C   0  0  1  0  0  0  0  0  0  0  0  0
   17.8536   70.6206   -6.4425 C   0  0  1  0  0  0  0  0  0  0  0  0
   19.3340   71.4102  -10.5902 H   0  0  0  0  0  0  0  0  0  0  0  0
   21.0941   71.6533   -9.7246 H   0  0  0  0  0  0  0  0  0  0  0  0
   16.2417   71.0209   -9.2387 H   0  0  0  0  0  0  0  0  0  0  0  0
   17.2103   69.6816   -4.3916 O   0  0  0  0  0  0  0  0  0  0  0  0
   16.2259   68.8479   -6.2717 O   0  0  0  0  0  0  0  0  0  0  0  0
   17.0039   69.6190   -5.7304 C   0  0  0  0  0  0  0  0  0  0  0  0
  1  4  1  0
  1 24  1  0
  1  2  1  6
  1  3  2  0
 25 28  1  0
 25 24  1  0
 25 26  1  1
 25 27  2  0
  6 11  1  0
  6 12  1  0
 29 36  1  0
 29 37  1  0
  9  7  1  1
  7 13  1  0
 10  8  1  1
  8 14  1  0
  4  5  1  0
 36 28  1  6
 33 30  1  6
 30 38  1  0
 34 31  1  6
 31 39  1  0
 35 32  1  1
 32 40  1  0
 41 43  1  0
 15 19  2  0
 42 43  2  0
 16 22  2  0
 12 17  1  1
 17 19  1  0
 17 20  1  0
 18 19  1  0
 18 22  1  0
 18 23  1  0
  9 10  1  0
  9 11  1  0
 10 12  1  0
 11  5  1  1
 33 34  1  0
 33 35  1  0
 34 36  1  0
 35 37  1  0
 37 43  1  1
 20 21  2  0
 21 22  1  0
M  CHG  3   2  -1  26  -1  41  -1
M  END
>  <COMPND>  (158) 
    udp_gluA.pdb 

>  <AUTHOR>  (158) 
    GENERATED BY OPEN BABEL 3.1.1

>  <MASTER>  (158) 
        0    0    0    0    0    0    0    0   56    0   56    0

>  <minimizedAffinity>  (158) 
-6.87523

>  <CNNscore>  (158) 
0.5369780660

>  <CNNaffinity>  (158) 
4.1970682144

>  <CNN_VS>  (158) 
2.2537336349

>  <CNNaffinity_variance>  (158) 
0.0535771474

$$$$
159
     RDKit          3D

 43 45  0  0  0  0  0  0  0  0999 V2000
   22.8350   74.7150   -4.0489 P   0  0  2  0  0  0  0  0  0  0  0  0
   24.2121   74.7069   -4.8987 O   0  0  0  0  0  0  0  0  0  0  0  0
   22.1689   76.0548   -3.9345 O   0  0  0  0  0  0  0  0  0  0  0  0
   23.2376   74.0087   -2.6499 O   0  0  0  0  0  0  0  0  0  0  0  0
   22.2476   73.8850   -1.6455 C   0  0  0  0  0  0  0  0  0  0  0  0
   23.0399   71.6991   -1.0359 O   0  0  0  0  0  0  0  0  0  0  0  0
   20.1538   70.9345   -0.7570 O   0  0  0  0  0  0  0  0  0  0  0  0
   20.9164   71.3365    1.8301 O   0  0  0  0  0  0  0  0  0  0  0  0
   20.7943   72.1730   -0.4497 C   0  0  1  0  0  0  0  0  0  0  0  0
   21.6079   72.0414    0.8204 C   0  0  2  0  0  0  0  0  0  0  0  0
   21.8737   72.4159   -1.4957 C   0  0  1  0  0  0  0  0  0  0  0  0
   22.8407   71.3014    0.3300 C   0  0  2  0  0  0  0  0  0  0  0  0
   19.4600   70.7577   -0.1020 H   0  0  0  0  0  0  0  0  0  0  0  0
   20.1405   71.8487    2.1086 H   0  0  0  0  0  0  0  0  0  0  0  0
   24.7047   69.4066    1.2847 O   0  0  0  0  0  0  0  0  0  0  0  0
   27.3086   72.6761    3.2274 O   0  0  0  0  0  0  0  0  0  0  0  0
   24.0147   71.6301    1.0879 N   0  0  0  0  0  0  0  0  0  0  0  0
   25.9993   71.0367    2.2522 N   0  0  0  0  0  0  0  0  0  0  0  0
   24.8864   70.6027    1.5201 C   0  0  0  0  0  0  0  0  0  0  0  0
   24.2937   72.9564    1.3943 C   0  0  0  0  0  0  0  0  0  0  0  0
   25.3586   73.3547    2.0930 C   0  0  0  0  0  0  0  0  0  0  0  0
   26.3188   72.3438    2.5824 C   0  0  0  0  0  0  0  0  0  0  0  0
   26.6195   70.3393    2.5657 H   0  0  0  0  0  0  0  0  0  0  0  0
   21.9474   73.5825   -4.7854 O   0  0  0  0  0  0  0  0  0  0  0  0
   21.6929   73.2874   -6.3544 P   0  0  2  0  0  0  0  0  0  0  0  0
   22.8552   72.2230   -6.7239 O   0  0  0  0  0  0  0  0  0  0  0  0
   21.6817   74.5154   -7.2180 O   0  0  0  0  0  0  0  0  0  0  0  0
   20.3275   72.4291   -6.3932 O   0  0  0  0  0  0  0  0  0  0  0  0
   19.9106   70.2696   -5.5147 O   0  0  0  0  0  0  0  0  0  0  0  0
   17.3314   70.3773   -8.7402 O   0  0  0  0  0  0  0  0  0  0  0  0
   20.0431   71.4381   -8.9764 O   0  0  0  0  0  0  0  0  0  0  0  0
   16.3032   70.6869   -6.0388 O   0  0  0  0  0  0  0  0  0  0  0  0
   18.0789   70.9180   -7.6508 C   0  0  2  0  0  0  0  0  0  0  0  0
   19.5697   70.6668   -7.8784 C   0  0  2  0  0  0  0  0  0  0  0  0
   17.6124   70.2264   -6.3678 C   0  0  1  0  0  0  0  0  0  0  0  0
   20.3812   71.0239   -6.6323 C   0  0  1  0  0  0  0  0  0  0  0  0
   18.5450   70.5322   -5.1994 C   0  0  1  0  0  0  0  0  0  0  0  0
   17.6108   70.8019   -9.5666 H   0  0  0  0  0  0  0  0  0  0  0  0
   19.5324   71.2168   -9.7705 H   0  0  0  0  0  0  0  0  0  0  0  0
   15.6997   70.4985   -6.7744 H   0  0  0  0  0  0  0  0  0  0  0  0
   17.3224   68.7066   -4.3785 O   0  0  0  0  0  0  0  0  0  0  0  0
   18.8491   69.6522   -2.9735 O   0  0  0  0  0  0  0  0  0  0  0  0
   18.2815   69.6088   -4.0547 C   0  0  0  0  0  0  0  0  0  0  0  0
  1  4  1  0
  1 24  1  0
  1  2  1  6
  1  3  2  0
 25 28  1  0
 25 24  1  0
 25 26  1  6
 25 27  2  0
  6 11  1  0
  6 12  1  0
 29 36  1  0
 29 37  1  0
  9  7  1  6
  7 13  1  0
 10  8  1  1
  8 14  1  0
  4  5  1  0
 36 28  1  1
 33 30  1  6
 30 38  1  0
 34 31  1  6
 31 39  1  0
 35 32  1  1
 32 40  1  0
 41 43  1  0
 15 19  2  0
 42 43  2  0
 16 22  2  0
 12 17  1  1
 17 19  1  0
 17 20  1  0
 18 19  1  0
 18 22  1  0
 18 23  1  0
  9 10  1  0
  9 11  1  0
 10 12  1  0
 11  5  1  1
 33 34  1  0
 33 35  1  0
 34 36  1  0
 35 37  1  0
 37 43  1  1
 20 21  2  0
 21 22  1  0
M  CHG  3   2  -1  26  -1  41  -1
M  END
>  <COMPND>  (159) 
    udp_gluA.pdb 

>  <AUTHOR>  (159) 
    GENERATED BY OPEN BABEL 3.1.1

>  <MASTER>  (159) 
        0    0    0    0    0    0    0    0   56    0   56    0

>  <minimizedAffinity>  (159) 
-7.23223

>  <CNNscore>  (159) 
0.5225067735

>  <CNNaffinity>  (159) 
4.3063797951

>  <CNN_VS>  (159) 
2.2501125336

>  <CNNaffinity_variance>  (159) 
0.0259878822

$$$$
160
     RDKit          3D

 43 45  0  0  0  0  0  0  0  0999 V2000
   19.2632   72.2135   -2.9491 P   0  0  2  0  0  0  0  0  0  0  0  0
   17.7888   72.4805   -3.5603 O   0  0  0  0  0  0  0  0  0  0  0  0
   19.7108   70.7815   -2.9768 O   0  0  0  0  0  0  0  0  0  0  0  0
   19.2086   72.9044   -1.4870 O   0  0  0  0  0  0  0  0  0  0  0  0
   20.4084   73.0070   -0.7424 C   0  0  0  0  0  0  0  0  0  0  0  0
   20.9136   70.8177    0.1116 O   0  0  0  0  0  0  0  0  0  0  0  0
   20.5517   72.0029    2.8422 O   0  0  0  0  0  0  0  0  0  0  0  0
   23.2649   71.9311    2.5786 O   0  0  0  0  0  0  0  0  0  0  0  0
   21.1097   72.5927    1.6678 C   0  0  1  0  0  0  0  0  0  0  0  0
   22.4892   72.0280    1.4024 C   0  0  2  0  0  0  0  0  0  0  0  0
   20.3217   72.0858    0.4677 C   0  0  1  0  0  0  0  0  0  0  0  0
   22.1643   70.6706    0.8026 C   0  0  2  0  0  0  0  0  0  0  0  0
   21.0390   72.3119    3.6224 H   0  0  0  0  0  0  0  0  0  0  0  0
   23.4451   72.8211    2.9213 H   0  0  0  0  0  0  0  0  0  0  0  0
   24.5758   69.3956    1.5347 O   0  0  0  0  0  0  0  0  0  0  0  0
   25.9247   69.0229   -2.8569 O   0  0  0  0  0  0  0  0  0  0  0  0
   23.1635   70.2298   -0.1291 N   0  0  0  0  0  0  0  0  0  0  0  0
   25.2458   69.2121   -0.6532 N   0  0  0  0  0  0  0  0  0  0  0  0
   24.3396   69.6001    0.3425 C   0  0  0  0  0  0  0  0  0  0  0  0
   22.9731   70.4209   -1.4923 C   0  0  0  0  0  0  0  0  0  0  0  0
   23.8459   70.0455   -2.4294 C   0  0  0  0  0  0  0  0  0  0  0  0
   25.1009   69.3812   -2.0207 C   0  0  0  0  0  0  0  0  0  0  0  0
   26.0730   68.7734   -0.3490 H   0  0  0  0  0  0  0  0  0  0  0  0
   20.1958   73.2270   -3.7952 O   0  0  0  0  0  0  0  0  0  0  0  0
   20.7086   73.1689   -5.3273 P   0  0  2  0  0  0  0  0  0  0  0  0
   21.9831   72.1738   -5.2533 O   0  0  0  0  0  0  0  0  0  0  0  0
   21.0067   74.5120   -5.9283 O   0  0  0  0  0  0  0  0  0  0  0  0
   19.5766   72.3235   -6.1060 O   0  0  0  0  0  0  0  0  0  0  0  0
   18.9071   70.0556   -5.9737 O   0  0  0  0  0  0  0  0  0  0  0  0
   18.4561   70.8313  -10.0064 O   0  0  0  0  0  0  0  0  0  0  0  0
   20.7902   71.8267   -8.5589 O   0  0  0  0  0  0  0  0  0  0  0  0
   16.1224   70.6803   -8.2796 O   0  0  0  0  0  0  0  0  0  0  0  0
   18.4638   71.1405   -8.6127 C   0  0  2  0  0  0  0  0  0  0  0  0
   19.8580   70.8854   -8.0396 C   0  0  2  0  0  0  0  0  0  0  0  0
   17.4328   70.2438   -7.9236 C   0  0  1  0  0  0  0  0  0  0  0  0
   19.8486   70.9838   -6.5135 C   0  0  1  0  0  0  0  0  0  0  0  0
   17.5705   70.3018   -6.4050 C   0  0  1  0  0  0  0  0  0  0  0  0
   19.1039   71.3891  -10.4651 H   0  0  0  0  0  0  0  0  0  0  0  0
   20.8012   71.7700   -9.5269 H   0  0  0  0  0  0  0  0  0  0  0  0
   16.0217   70.6484   -9.2438 H   0  0  0  0  0  0  0  0  0  0  0  0
   17.1993   69.0206   -4.4757 O   0  0  0  0  0  0  0  0  0  0  0  0
   15.9289   68.5363   -6.3062 O   0  0  0  0  0  0  0  0  0  0  0  0
   16.8007   69.1956   -5.7600 C   0  0  0  0  0  0  0  0  0  0  0  0
  1  4  1  0
  1 24  1  0
  1  2  1  6
  1  3  2  0
 25 28  1  0
 25 24  1  0
 25 26  1  1
 25 27  2  0
  6 11  1  0
  6 12  1  0
 29 36  1  0
 29 37  1  0
  9  7  1  1
  7 13  1  0
 10  8  1  1
  8 14  1  0
  4  5  1  0
 36 28  1  6
 33 30  1  6
 30 38  1  0
 34 31  1  6
 31 39  1  0
 35 32  1  1
 32 40  1  0
 41 43  1  0
 15 19  2  0
 42 43  2  0
 16 22  2  0
 12 17  1  6
 17 19  1  0
 17 20  1  0
 18 19  1  0
 18 22  1  0
 18 23  1  0
  9 10  1  0
  9 11  1  0
 10 12  1  0
 11  5  1  6
 33 34  1  0
 33 35  1  0
 34 36  1  0
 35 37  1  0
 37 43  1  1
 20 21  2  0
 21 22  1  0
M  CHG  3   2  -1  26  -1  41  -1
M  END
>  <COMPND>  (160) 
    udp_gluA.pdb 

>  <AUTHOR>  (160) 
    GENERATED BY OPEN BABEL 3.1.1

>  <MASTER>  (160) 
        0    0    0    0    0    0    0    0   56    0   56    0

>  <minimizedAffinity>  (160) 
-8.26156

>  <CNNscore>  (160) 
0.5068343878

>  <CNNaffinity>  (160) 
4.2237963676

>  <CNN_VS>  (160) 
2.1407651901

>  <CNNaffinity_variance>  (160) 
0.2271500379

$$$$
161
     RDKit          3D

 43 45  0  0  0  0  0  0  0  0999 V2000
   22.5432   72.0369   -3.1135 P   0  0  2  0  0  0  0  0  0  0  0  0
   22.0224   73.5241   -2.7449 O   0  0  0  0  0  0  0  0  0  0  0  0
   23.9550   71.9668   -3.6172 O   0  0  0  0  0  0  0  0  0  0  0  0
   21.4099   71.4661   -4.1173 O   0  0  0  0  0  0  0  0  0  0  0  0
   20.6023   70.3877   -3.6821 C   0  0  0  0  0  0  0  0  0  0  0  0
   18.7674   71.5533   -4.7079 O   0  0  0  0  0  0  0  0  0  0  0  0
   17.0371   70.2973   -2.6057 O   0  0  0  0  0  0  0  0  0  0  0  0
   16.5538   68.7341   -4.7872 O   0  0  0  0  0  0  0  0  0  0  0  0
   18.1700   69.7561   -3.2853 C   0  0  1  0  0  0  0  0  0  0  0  0
   17.8023   69.3895   -4.7075 C   0  0  2  0  0  0  0  0  0  0  0  0
   19.1735   70.8817   -3.4958 C   0  0  1  0  0  0  0  0  0  0  0  0
   17.7952   70.7462   -5.3911 C   0  0  2  0  0  0  0  0  0  0  0  0
   16.3818   69.5964   -2.4599 H   0  0  0  0  0  0  0  0  0  0  0  0
   16.6101   67.8757   -4.3380 H   0  0  0  0  0  0  0  0  0  0  0  0
   15.9859   70.1126   -7.4651 O   0  0  0  0  0  0  0  0  0  0  0  0
   19.2700   70.4519  -10.6813 O   0  0  0  0  0  0  0  0  0  0  0  0
   18.1507   70.6622   -6.7794 N   0  0  0  0  0  0  0  0  0  0  0  0
   17.6235   70.2812   -9.0649 N   0  0  0  0  0  0  0  0  0  0  0  0
   17.1659   70.3364   -7.7418 C   0  0  0  0  0  0  0  0  0  0  0  0
   19.4607   70.9024   -7.1757 C   0  0  0  0  0  0  0  0  0  0  0  0
   19.8819   70.8462   -8.4407 C   0  0  0  0  0  0  0  0  0  0  0  0
   18.9160   70.5115   -9.5077 C   0  0  0  0  0  0  0  0  0  0  0  0
   16.9564   70.0543   -9.7525 H   0  0  0  0  0  0  0  0  0  0  0  0
   22.2724   71.2096   -1.7515 O   0  0  0  0  0  0  0  0  0  0  0  0
   23.2951   70.5072   -0.7151 P   0  0  2  0  0  0  0  0  0  0  0  0
   22.3109   69.7093    0.2923 O   0  0  0  0  0  0  0  0  0  0  0  0
   24.2347   71.4607   -0.0355 O   0  0  0  0  0  0  0  0  0  0  0  0
   24.0206   69.3516   -1.5758 O   0  0  0  0  0  0  0  0  0  0  0  0
   24.8236   67.6464   -0.1416 O   0  0  0  0  0  0  0  0  0  0  0  0
   26.1934   66.3636   -3.8221 O   0  0  0  0  0  0  0  0  0  0  0  0
   26.3511   69.1861   -3.0849 O   0  0  0  0  0  0  0  0  0  0  0  0
   23.9007   65.0716   -2.5872 O   0  0  0  0  0  0  0  0  0  0  0  0
   25.2960   67.0078   -2.9178 C   0  0  2  0  0  0  0  0  0  0  0  0
   26.0277   68.1324   -2.1849 C   0  0  2  0  0  0  0  0  0  0  0  0
   24.7961   65.9598   -1.9210 C   0  0  1  0  0  0  0  0  0  0  0  0
   25.1711   68.6931   -1.0489 C   0  0  1  0  0  0  0  0  0  0  0  0
   24.0597   66.6090   -0.7527 C   0  0  1  0  0  0  0  0  0  0  0  0
   26.5242   67.0104   -4.4653 H   0  0  0  0  0  0  0  0  0  0  0  0
   26.8944   68.8373   -3.8085 H   0  0  0  0  0  0  0  0  0  0  0  0
   24.3571   64.6519   -3.3332 H   0  0  0  0  0  0  0  0  0  0  0  0
   24.5074   66.0527    1.4816 O   0  0  0  0  0  0  0  0  0  0  0  0
   23.2237   64.5973    0.2845 O   0  0  0  0  0  0  0  0  0  0  0  0
   23.8680   65.6326    0.3619 C   0  0  0  0  0  0  0  0  0  0  0  0
  1  4  1  0
  1 24  1  0
  1  2  1  1
  1  3  2  0
 25 28  1  0
 25 24  1  0
 25 26  1  1
 25 27  2  0
  6 11  1  0
  6 12  1  0
 29 36  1  0
 29 37  1  0
  9  7  1  1
  7 13  1  0
 10  8  1  1
  8 14  1  0
  4  5  1  0
 36 28  1  6
 33 30  1  6
 30 38  1  0
 34 31  1  6
 31 39  1  0
 35 32  1  6
 32 40  1  0
 41 43  1  0
 15 19  2  0
 42 43  2  0
 16 22  2  0
 12 17  1  6
 17 19  1  0
 17 20  1  0
 18 19  1  0
 18 22  1  0
 18 23  1  0
  9 10  1  0
  9 11  1  0
 10 12  1  0
 11  5  1  6
 33 34  1  0
 33 35  1  0
 34 36  1  0
 35 37  1  0
 37 43  1  1
 20 21  2  0
 21 22  1  0
M  CHG  3   2  -1  26  -1  41  -1
M  END
>  <COMPND>  (161) 
    udp_gluA.pdb 

>  <AUTHOR>  (161) 
    GENERATED BY OPEN BABEL 3.1.1

>  <MASTER>  (161) 
        0    0    0    0    0    0    0    0   56    0   56    0

>  <minimizedAffinity>  (161) 
-9.55784

>  <CNNscore>  (161) 
0.8474133611

>  <CNNaffinity>  (161) 
5.0518670082

>  <CNN_VS>  (161) 
4.2810196877

>  <CNNaffinity_variance>  (161) 
0.0450443588

$$$$
162
     RDKit          3D

 43 45  0  0  0  0  0  0  0  0999 V2000
   21.0637   72.2695   -2.7459 P   0  0  2  0  0  0  0  0  0  0  0  0
   20.5382   72.4236   -1.2231 O   0  0  0  0  0  0  0  0  0  0  0  0
   21.8174   73.4527   -3.2788 O   0  0  0  0  0  0  0  0  0  0  0  0
   19.7384   71.8497   -3.5737 O   0  0  0  0  0  0  0  0  0  0  0  0
   19.0516   70.6702   -3.1975 C   0  0  0  0  0  0  0  0  0  0  0  0
   17.3558   71.5510   -4.6556 O   0  0  0  0  0  0  0  0  0  0  0  0
   15.4154   69.8647   -3.1120 O   0  0  0  0  0  0  0  0  0  0  0  0
   15.8222   68.3899   -5.3693 O   0  0  0  0  0  0  0  0  0  0  0  0
   16.7677   69.5841   -3.4740 C   0  0  1  0  0  0  0  0  0  0  0  0
   16.8576   69.2533   -4.9487 C   0  0  2  0  0  0  0  0  0  0  0  0
   17.5559   70.8841   -3.3905 C   0  0  1  0  0  0  0  0  0  0  0  0
   16.7671   70.6291   -5.5866 C   0  0  2  0  0  0  0  0  0  0  0  0
   14.8921   69.0488   -3.1579 H   0  0  0  0  0  0  0  0  0  0  0  0
   15.9242   67.5275   -4.9357 H   0  0  0  0  0  0  0  0  0  0  0  0
   15.6055   70.1630   -8.1184 O   0  0  0  0  0  0  0  0  0  0  0  0
   19.5928   70.9440  -10.2944 O   0  0  0  0  0  0  0  0  0  0  0  0
   17.4787   70.7039   -6.8312 N   0  0  0  0  0  0  0  0  0  0  0  0
   17.5928   70.5514   -9.1997 N   0  0  0  0  0  0  0  0  0  0  0  0
   16.8016   70.4516   -8.0477 C   0  0  0  0  0  0  0  0  0  0  0  0
   18.8305   71.0257   -6.8389 C   0  0  0  0  0  0  0  0  0  0  0  0
   19.5713   71.1171   -7.9451 C   0  0  0  0  0  0  0  0  0  0  0  0
   18.9404   70.8676   -9.2577 C   0  0  0  0  0  0  0  0  0  0  0  0
   17.1439   70.3780  -10.0586 H   0  0  0  0  0  0  0  0  0  0  0  0
   21.9135   70.8953   -2.6991 O   0  0  0  0  0  0  0  0  0  0  0  0
   23.4379   70.6048   -2.2460 P   0  0  2  0  0  0  0  0  0  0  0  0
   24.2977   71.6199   -3.1683 O   0  0  0  0  0  0  0  0  0  0  0  0
   23.8506   69.1658   -2.3597 O   0  0  0  0  0  0  0  0  0  0  0  0
   23.5460   71.2166   -0.7572 O   0  0  0  0  0  0  0  0  0  0  0  0
   24.8283   70.5752    1.1278 O   0  0  0  0  0  0  0  0  0  0  0  0
   21.3332   71.8887    2.8961 O   0  0  0  0  0  0  0  0  0  0  0  0
   21.2452   70.2558    0.4753 O   0  0  0  0  0  0  0  0  0  0  0  0
   23.7188   73.5482    2.9697 O   0  0  0  0  0  0  0  0  0  0  0  0
   22.3640   71.8619    1.9088 C   0  0  2  0  0  0  0  0  0  0  0  0
   22.4127   70.4796    1.2573 C   0  0  2  0  0  0  0  0  0  0  0  0
   23.6923   72.1700    2.6035 C   0  0  1  0  0  0  0  0  0  0  0  0
   23.6455   70.3394    0.3632 C   0  0  1  0  0  0  0  0  0  0  0  0
   24.8791   71.8857    1.6874 C   0  0  1  0  0  0  0  0  0  0  0  0
   20.4794   71.6955    2.4778 H   0  0  0  0  0  0  0  0  0  0  0  0
   20.4591   70.3435    1.0363 H   0  0  0  0  0  0  0  0  0  0  0  0
   22.9684   73.7424    3.5528 H   0  0  0  0  0  0  0  0  0  0  0  0
   26.3773   73.0747    3.0451 O   0  0  0  0  0  0  0  0  0  0  0  0
   26.9025   70.9082    2.5659 O   0  0  0  0  0  0  0  0  0  0  0  0
   26.1560   71.8701    2.4630 C   0  0  0  0  0  0  0  0  0  0  0  0
  1  4  1  0
  1 24  1  0
  1  2  1  1
  1  3  2  0
 25 28  1  0
 25 24  1  0
 25 26  1  6
 25 27  2  0
  6 11  1  0
  6 12  1  0
 29 36  1  0
 29 37  1  0
  9  7  1  6
  7 13  1  0
 10  8  1  6
  8 14  1  0
  4  5  1  0
 36 28  1  6
 33 30  1  1
 30 38  1  0
 34 31  1  6
 31 39  1  0
 35 32  1  6
 32 40  1  0
 41 43  1  0
 15 19  2  0
 42 43  2  0
 16 22  2  0
 12 17  1  6
 17 19  1  0
 17 20  1  0
 18 19  1  0
 18 22  1  0
 18 23  1  0
  9 10  1  0
  9 11  1  0
 10 12  1  0
 11  5  1  6
 33 34  1  0
 33 35  1  0
 34 36  1  0
 35 37  1  0
 37 43  1  1
 20 21  2  0
 21 22  1  0
M  CHG  3   2  -1  26  -1  41  -1
M  END
>  <COMPND>  (162) 
    udp_gluA.pdb 

>  <AUTHOR>  (162) 
    GENERATED BY OPEN BABEL 3.1.1

>  <MASTER>  (162) 
        0    0    0    0    0    0    0    0   56    0   56    0

>  <minimizedAffinity>  (162) 
-7.98588

>  <CNNscore>  (162) 
0.7872943282

>  <CNNaffinity>  (162) 
4.5009050369

>  <CNN_VS>  (162) 
3.5435369015

>  <CNNaffinity_variance>  (162) 
0.0756551176

$$$$
163
     RDKit          3D

 43 45  0  0  0  0  0  0  0  0999 V2000
   23.3378   70.3668   -2.3532 P   0  0  2  0  0  0  0  0  0  0  0  0
   23.8212   71.5440   -3.3528 O   0  0  0  0  0  0  0  0  0  0  0  0
   24.0904   69.0752   -2.4846 O   0  0  0  0  0  0  0  0  0  0  0  0
   21.7413   70.2781   -2.6008 O   0  0  0  0  0  0  0  0  0  0  0  0
   21.1883   70.9744   -3.7025 C   0  0  0  0  0  0  0  0  0  0  0  0
   19.1381   71.8598   -4.5916 O   0  0  0  0  0  0  0  0  0  0  0  0
   17.7804   70.5574   -2.2567 O   0  0  0  0  0  0  0  0  0  0  0  0
   17.2732   68.8126   -4.2900 O   0  0  0  0  0  0  0  0  0  0  0  0
   18.8972   70.1029   -3.0212 C   0  0  1  0  0  0  0  0  0  0  0  0
   18.4380   69.6066   -4.3759 C   0  0  2  0  0  0  0  0  0  0  0  0
   19.7364   71.3173   -3.3945 C   0  0  1  0  0  0  0  0  0  0  0  0
   18.2052   70.9071   -5.1259 C   0  0  2  0  0  0  0  0  0  0  0  0
   17.2292   69.7989   -2.0065 H   0  0  0  0  0  0  0  0  0  0  0  0
   17.4733   67.9965   -3.8043 H   0  0  0  0  0  0  0  0  0  0  0  0
   16.2784   69.9737   -6.9678 O   0  0  0  0  0  0  0  0  0  0  0  0
   19.1816   70.4361  -10.5178 O   0  0  0  0  0  0  0  0  0  0  0  0
   18.4310   70.7736   -6.5373 N   0  0  0  0  0  0  0  0  0  0  0  0
   17.7265   70.2039   -8.7340 N   0  0  0  0  0  0  0  0  0  0  0  0
   17.3964   70.2948   -7.3754 C   0  0  0  0  0  0  0  0  0  0  0  0
   19.6643   71.1164   -7.0779 C   0  0  0  0  0  0  0  0  0  0  0  0
   19.9641   71.0245   -8.3750 C   0  0  0  0  0  0  0  0  0  0  0  0
   18.9390   70.5323   -9.3186 C   0  0  0  0  0  0  0  0  0  0  0  0
   17.0229   69.8711   -9.3369 H   0  0  0  0  0  0  0  0  0  0  0  0
   23.4416   71.0615   -0.8973 O   0  0  0  0  0  0  0  0  0  0  0  0
   23.1710   70.4700    0.5827 P   0  0  2  0  0  0  0  0  0  0  0  0
   24.3308   69.3537    0.7527 O   0  0  0  0  0  0  0  0  0  0  0  0
   21.7779   69.9514    0.7934 O   0  0  0  0  0  0  0  0  0  0  0  0
   23.6010   71.6597    1.5838 O   0  0  0  0  0  0  0  0  0  0  0  0
   22.2283   73.0790    2.8917 O   0  0  0  0  0  0  0  0  0  0  0  0
   25.4501   75.5359    2.0844 O   0  0  0  0  0  0  0  0  0  0  0  0
   24.3343   73.8233   -0.0027 O   0  0  0  0  0  0  0  0  0  0  0  0
   25.1561   74.3317    4.7140 O   0  0  0  0  0  0  0  0  0  0  0  0
   24.7864   74.2968    2.3334 C   0  0  2  0  0  0  0  0  0  0  0  0
   23.7234   74.0609    1.2602 C   0  0  2  0  0  0  0  0  0  0  0  0
   24.1372   74.3776    3.7169 C   0  0  1  0  0  0  0  0  0  0  0  0
   22.8397   72.8654    1.6188 C   0  0  1  0  0  0  0  0  0  0  0  0
   23.1747   73.2166    3.9493 C   0  0  1  0  0  0  0  0  0  0  0  0
   25.8703   75.5080    1.2104 H   0  0  0  0  0  0  0  0  0  0  0  0
   24.8968   74.5778   -0.2364 H   0  0  0  0  0  0  0  0  0  0  0  0
   25.7756   75.0655    4.5773 H   0  0  0  0  0  0  0  0  0  0  0  0
   21.0812   73.8985    4.7581 O   0  0  0  0  0  0  0  0  0  0  0  0
   22.6562   73.3231    6.3033 O   0  0  0  0  0  0  0  0  0  0  0  0
   22.3109   73.4740    5.1409 C   0  0  0  0  0  0  0  0  0  0  0  0
  1  4  1  0
  1 24  1  0
  1  2  1  6
  1  3  2  0
 25 28  1  0
 25 24  1  0
 25 26  1  1
 25 27  2  0
  6 11  1  0
  6 12  1  0
 29 36  1  0
 29 37  1  0
  9  7  1  1
  7 13  1  0
 10  8  1  1
  8 14  1  0
  4  5  1  0
 36 28  1  1
 33 30  1  6
 30 38  1  0
 34 31  1  6
 31 39  1  0
 35 32  1  1
 32 40  1  0
 41 43  1  0
 15 19  2  0
 42 43  2  0
 16 22  2  0
 12 17  1  6
 17 19  1  0
 17 20  1  0
 18 19  1  0
 18 22  1  0
 18 23  1  0
  9 10  1  0
  9 11  1  0
 10 12  1  0
 11  5  1  6
 33 34  1  0
 33 35  1  0
 34 36  1  0
 35 37  1  0
 37 43  1  1
 20 21  2  0
 21 22  1  0
M  CHG  3   2  -1  26  -1  41  -1
M  END
>  <COMPND>  (163) 
    udp_gluA.pdb 

>  <AUTHOR>  (163) 
    GENERATED BY OPEN BABEL 3.1.1

>  <MASTER>  (163) 
        0    0    0    0    0    0    0    0   56    0   56    0

>  <minimizedAffinity>  (163) 
-7.65230

>  <CNNscore>  (163) 
0.6287091970

>  <CNNaffinity>  (163) 
4.4706811905

>  <CNN_VS>  (163) 
2.8107583523

>  <CNNaffinity_variance>  (163) 
0.0527004115

$$$$
164
     RDKit          3D

 43 45  0  0  0  0  0  0  0  0999 V2000
   21.1075   72.9956   -5.2611 P   0  0  2  0  0  0  0  0  0  0  0  0
   20.1382   72.8060   -3.9792 O   0  0  0  0  0  0  0  0  0  0  0  0
   21.0907   74.3666   -5.8709 O   0  0  0  0  0  0  0  0  0  0  0  0
   20.6890   71.7829   -6.2472 O   0  0  0  0  0  0  0  0  0  0  0  0
   20.1001   72.0990   -7.4953 C   0  0  0  0  0  0  0  0  0  0  0  0
   18.9595   70.0406   -7.0054 O   0  0  0  0  0  0  0  0  0  0  0  0
   18.1724   70.0047   -9.8987 O   0  0  0  0  0  0  0  0  0  0  0  0
   15.9109   70.9156   -8.6772 O   0  0  0  0  0  0  0  0  0  0  0  0
   18.3107   71.1164   -9.0136 C   0  0  1  0  0  0  0  0  0  0  0  0
   17.1489   71.1619   -8.0437 C   0  0  2  0  0  0  0  0  0  0  0  0
   19.4872   70.8368   -8.0884 C   0  0  1  0  0  0  0  0  0  0  0  0
   17.5242   70.0751   -7.0508 C   0  0  2  0  0  0  0  0  0  0  0  0
   17.4266   70.1603  -10.4997 H   0  0  0  0  0  0  0  0  0  0  0  0
   15.7170   71.6353   -9.2989 H   0  0  0  0  0  0  0  0  0  0  0  0
   16.3607   68.1291   -5.3669 O   0  0  0  0  0  0  0  0  0  0  0  0
   15.6300   71.2046   -2.0126 O   0  0  0  0  0  0  0  0  0  0  0  0
   17.0216   70.3400   -5.7325 N   0  0  0  0  0  0  0  0  0  0  0  0
   15.9969   69.6630   -3.6983 N   0  0  0  0  0  0  0  0  0  0  0  0
   16.4559   69.2916   -4.9689 C   0  0  0  0  0  0  0  0  0  0  0  0
   17.0930   71.6249   -5.2082 C   0  0  0  0  0  0  0  0  0  0  0  0
   16.6515   71.9635   -3.9953 C   0  0  0  0  0  0  0  0  0  0  0  0
   16.0457   70.9272   -3.1336 C   0  0  0  0  0  0  0  0  0  0  0  0
   15.5972   68.9505   -3.1488 H   0  0  0  0  0  0  0  0  0  0  0  0
   22.5485   72.5261   -4.6991 O   0  0  0  0  0  0  0  0  0  0  0  0
   23.5236   73.1889   -3.5929 P   0  0  2  0  0  0  0  0  0  0  0  0
   22.6773   74.4668   -3.0720 O   0  0  0  0  0  0  0  0  0  0  0  0
   24.8960   73.5221   -4.1023 O   0  0  0  0  0  0  0  0  0  0  0  0
   23.5017   72.1542   -2.3555 O   0  0  0  0  0  0  0  0  0  0  0  0
   23.8660   69.8216   -2.5439 O   0  0  0  0  0  0  0  0  0  0  0  0
   21.6591   70.0489    0.9411 O   0  0  0  0  0  0  0  0  0  0  0  0
   20.9427   71.6798   -1.3743 O   0  0  0  0  0  0  0  0  0  0  0  0
   24.5245   69.5725    1.0570 O   0  0  0  0  0  0  0  0  0  0  0  0
   22.5908   70.4978   -0.0429 C   0  0  2  0  0  0  0  0  0  0  0  0
   21.8886   70.6170   -1.3958 C   0  0  2  0  0  0  0  0  0  0  0  0
   23.7260   69.4745   -0.1209 C   0  0  1  0  0  0  0  0  0  0  0  0
   22.8984   70.8716   -2.5157 C   0  0  1  0  0  0  0  0  0  0  0  0
   24.6161   69.7214   -1.3355 C   0  0  1  0  0  0  0  0  0  0  0  0
   20.9284   70.6837    1.0082 H   0  0  0  0  0  0  0  0  0  0  0  0
   20.2990   71.5249   -0.6658 H   0  0  0  0  0  0  0  0  0  0  0  0
   23.9698   69.4176    1.8375 H   0  0  0  0  0  0  0  0  0  0  0  0
   26.1855   68.7047   -2.7515 O   0  0  0  0  0  0  0  0  0  0  0  0
   25.6125   67.5773   -0.8541 O   0  0  0  0  0  0  0  0  0  0  0  0
   25.5052   68.5477   -1.5889 C   0  0  0  0  0  0  0  0  0  0  0  0
  1  4  1  0
  1 24  1  0
  1  2  1  1
  1  3  2  0
 25 28  1  0
 25 24  1  0
 25 26  1  1
 25 27  2  0
  6 11  1  0
  6 12  1  0
 29 36  1  0
 29 37  1  0
  9  7  1  6
  7 13  1  0
 10  8  1  6
  8 14  1  0
  4  5  1  0
 36 28  1  1
 33 30  1  1
 30 38  1  0
 34 31  1  1
 31 39  1  0
 35 32  1  1
 32 40  1  0
 41 43  1  0
 15 19  2  0
 42 43  2  0
 16 22  2  0
 12 17  1  1
 17 19  1  0
 17 20  1  0
 18 19  1  0
 18 22  1  0
 18 23  1  0
  9 10  1  0
  9 11  1  0
 10 12  1  0
 11  5  1  1
 33 34  1  0
 33 35  1  0
 34 36  1  0
 35 37  1  0
 37 43  1  6
 20 21  2  0
 21 22  1  0
M  CHG  3   2  -1  26  -1  41  -1
M  END
>  <COMPND>  (164) 
    udp_gluA.pdb 

>  <AUTHOR>  (164) 
    GENERATED BY OPEN BABEL 3.1.1

>  <MASTER>  (164) 
        0    0    0    0    0    0    0    0   56    0   56    0

>  <minimizedAffinity>  (164) 
-8.71364

>  <CNNscore>  (164) 
0.6026164889

>  <CNNaffinity>  (164) 
4.3063154221

>  <CNN_VS>  (164) 
2.5950567722

>  <CNNaffinity_variance>  (164) 
0.4788099229

$$$$
165
     RDKit          3D

 43 45  0  0  0  0  0  0  0  0999 V2000
   20.9825   72.8395   -3.4193 P   0  0  2  0  0  0  0  0  0  0  0  0
   20.8849   74.3429   -4.0102 O   0  0  0  0  0  0  0  0  0  0  0  0
   22.3411   72.2092   -3.5122 O   0  0  0  0  0  0  0  0  0  0  0  0
   19.7880   72.0483   -4.1711 O   0  0  0  0  0  0  0  0  0  0  0  0
   19.1382   70.9942   -3.4846 C   0  0  0  0  0  0  0  0  0  0  0  0
   17.3840   71.7567   -4.9403 O   0  0  0  0  0  0  0  0  0  0  0  0
   15.5376   70.0565   -3.2996 O   0  0  0  0  0  0  0  0  0  0  0  0
   15.9596   68.5162   -5.5099 O   0  0  0  0  0  0  0  0  0  0  0  0
   16.8929   69.8138   -3.6775 C   0  0  1  0  0  0  0  0  0  0  0  0
   16.9687   69.4327   -5.1409 C   0  0  2  0  0  0  0  0  0  0  0  0
   17.6321   71.1446   -3.6561 C   0  0  1  0  0  0  0  0  0  0  0  0
   16.8142   70.7798   -5.8259 C   0  0  2  0  0  0  0  0  0  0  0  0
   15.0450   69.2205   -3.3060 H   0  0  0  0  0  0  0  0  0  0  0  0
   16.1023   67.6748   -5.0477 H   0  0  0  0  0  0  0  0  0  0  0  0
   16.1181   72.5125   -7.9449 O   0  0  0  0  0  0  0  0  0  0  0  0
   19.5151   70.9079  -10.6151 O   0  0  0  0  0  0  0  0  0  0  0  0
   17.4998   70.8357   -7.0859 N   0  0  0  0  0  0  0  0  0  0  0  0
   17.8100   71.7109   -9.2732 N   0  0  0  0  0  0  0  0  0  0  0  0
   17.0699   71.7419   -8.0839 C   0  0  0  0  0  0  0  0  0  0  0  0
   18.5853   70.0010   -7.3225 C   0  0  0  0  0  0  0  0  0  0  0  0
   19.2810   69.9830   -8.4611 C   0  0  0  0  0  0  0  0  0  0  0  0
   18.8963   70.8985   -9.5553 C   0  0  0  0  0  0  0  0  0  0  0  0
   17.5282   72.3316   -9.9836 H   0  0  0  0  0  0  0  0  0  0  0  0
   20.4180   73.0040   -1.9136 O   0  0  0  0  0  0  0  0  0  0  0  0
   21.0548   73.7247   -0.6141 P   0  0  2  0  0  0  0  0  0  0  0  0
   19.8912   73.5723    0.5008 O   0  0  0  0  0  0  0  0  0  0  0  0
   21.5028   75.1379   -0.8513 O   0  0  0  0  0  0  0  0  0  0  0  0
   22.2225   72.7257   -0.1232 O   0  0  0  0  0  0  0  0  0  0  0  0
   22.6717   70.4956   -0.7818 O   0  0  0  0  0  0  0  0  0  0  0  0
   23.9587   70.4882    3.1439 O   0  0  0  0  0  0  0  0  0  0  0  0
   21.4739   71.8338    2.4027 O   0  0  0  0  0  0  0  0  0  0  0  0
   25.8924   70.5618    0.9746 O   0  0  0  0  0  0  0  0  0  0  0  0
   23.7046   71.0512    1.8569 C   0  0  2  0  0  0  0  0  0  0  0  0
   22.2097   70.9667    1.5475 C   0  0  2  0  0  0  0  0  0  0  0  0
   24.5074   70.2552    0.8256 C   0  0  1  0  0  0  0  0  0  0  0  0
   21.9298   71.3465    0.0928 C   0  0  1  0  0  0  0  0  0  0  0  0
   24.0819   70.6002   -0.5986 C   0  0  1  0  0  0  0  0  0  0  0  0
   23.4588   70.9781    3.8158 H   0  0  0  0  0  0  0  0  0  0  0  0
   21.6470   71.5987    3.3274 H   0  0  0  0  0  0  0  0  0  0  0  0
   26.1760   70.3469    1.8769 H   0  0  0  0  0  0  0  0  0  0  0  0
   24.8063   68.4003   -0.9687 O   0  0  0  0  0  0  0  0  0  0  0  0
   24.8632   69.8270   -2.7464 O   0  0  0  0  0  0  0  0  0  0  0  0
   24.6214   69.6015   -1.5701 C   0  0  0  0  0  0  0  0  0  0  0  0
  1  4  1  0
  1 24  1  0
  1  2  1  6
  1  3  2  0
 25 28  1  0
 25 24  1  0
 25 26  1  1
 25 27  2  0
  6 11  1  0
  6 12  1  0
 29 36  1  0
 29 37  1  0
  9  7  1  6
  7 13  1  0
 10  8  1  6
  8 14  1  0
  4  5  1  0
 36 28  1  1
 33 30  1  1
 30 38  1  0
 34 31  1  1
 31 39  1  0
 35 32  1  6
 32 40  1  0
 41 43  1  0
 15 19  2  0
 42 43  2  0
 16 22  2  0
 12 17  1  6
 17 19  1  0
 17 20  1  0
 18 19  1  0
 18 22  1  0
 18 23  1  0
  9 10  1  0
  9 11  1  0
 10 12  1  0
 11  5  1  6
 33 34  1  0
 33 35  1  0
 34 36  1  0
 35 37  1  0
 37 43  1  6
 20 21  2  0
 21 22  1  0
M  CHG  3   2  -1  26  -1  41  -1
M  END
>  <COMPND>  (165) 
    udp_gluA.pdb 

>  <AUTHOR>  (165) 
    GENERATED BY OPEN BABEL 3.1.1

>  <MASTER>  (165) 
        0    0    0    0    0    0    0    0   56    0   56    0

>  <minimizedAffinity>  (165) 
-7.37317

>  <CNNscore>  (165) 
0.5658823252

>  <CNNaffinity>  (165) 
4.4031209946

>  <CNN_VS>  (165) 
2.4916484356

>  <CNNaffinity_variance>  (165) 
0.1277916282

$$$$
166
     RDKit          3D

 43 45  0  0  0  0  0  0  0  0999 V2000
   20.6663   72.0755   -2.8421 P   0  0  2  0  0  0  0  0  0  0  0  0
   19.2294   72.8106   -2.9598 O   0  0  0  0  0  0  0  0  0  0  0  0
   20.6062   70.6219   -2.4744 O   0  0  0  0  0  0  0  0  0  0  0  0
   21.5051   73.0216   -1.8325 O   0  0  0  0  0  0  0  0  0  0  0  0
   21.9111   72.4874   -0.5857 C   0  0  0  0  0  0  0  0  0  0  0  0
   24.1478   72.8469    0.2177 O   0  0  0  0  0  0  0  0  0  0  0  0
   24.7777   70.1257   -0.8729 O   0  0  0  0  0  0  0  0  0  0  0  0
   24.4794   69.6442    1.7946 O   0  0  0  0  0  0  0  0  0  0  0  0
   23.5801   70.5962   -0.2541 C   0  0  1  0  0  0  0  0  0  0  0  0
   23.7835   70.7405    1.2392 C   0  0  2  0  0  0  0  0  0  0  0  0
   23.3635   72.0397   -0.6871 C   0  0  1  0  0  0  0  0  0  0  0  0
   24.5699   72.0373    1.3266 C   0  0  2  0  0  0  0  0  0  0  0  0
   24.9372   69.2049   -0.6110 H   0  0  0  0  0  0  0  0  0  0  0  0
   23.9373   68.8431    1.7148 H   0  0  0  0  0  0  0  0  0  0  0  0
   26.4565   73.6877    2.6279 O   0  0  0  0  0  0  0  0  0  0  0  0
   23.4948   74.7214    6.0050 O   0  0  0  0  0  0  0  0  0  0  0  0
   24.3182   72.7496    2.5473 N   0  0  0  0  0  0  0  0  0  0  0  0
   24.9799   74.2002    4.3092 N   0  0  0  0  0  0  0  0  0  0  0  0
   25.3342   73.5517    3.1188 C   0  0  0  0  0  0  0  0  0  0  0  0
   23.0771   72.6514    3.1643 C   0  0  0  0  0  0  0  0  0  0  0  0
   22.7542   73.2756    4.2988 C   0  0  0  0  0  0  0  0  0  0  0  0
   23.7592   74.1328    4.9610 C   0  0  0  0  0  0  0  0  0  0  0  0
   25.6716   74.7627    4.7269 H   0  0  0  0  0  0  0  0  0  0  0  0
   21.3481   72.3798   -4.2758 O   0  0  0  0  0  0  0  0  0  0  0  0
   20.8051   73.2051   -5.5556 P   0  0  2  0  0  0  0  0  0  0  0  0
   21.9969   73.0356   -6.6378 O   0  0  0  0  0  0  0  0  0  0  0  0
   20.4376   74.6301   -5.2585 O   0  0  0  0  0  0  0  0  0  0  0  0
   19.5963   72.3093   -6.1375 O   0  0  0  0  0  0  0  0  0  0  0  0
   19.0257   70.0708   -5.6154 O   0  0  0  0  0  0  0  0  0  0  0  0
   17.7581   70.3688   -9.5361 O   0  0  0  0  0  0  0  0  0  0  0  0
   20.3078   71.5323   -8.7116 O   0  0  0  0  0  0  0  0  0  0  0  0
   15.8212   70.4150   -7.3689 O   0  0  0  0  0  0  0  0  0  0  0  0
   18.0361   70.8388   -8.2171 C   0  0  2  0  0  0  0  0  0  0  0  0
   19.5228   70.6559   -7.9114 C   0  0  2  0  0  0  0  0  0  0  0  0
   17.1871   70.0263   -7.2368 C   0  0  1  0  0  0  0  0  0  0  0  0
   19.8160   70.9319   -6.4360 C   0  0  1  0  0  0  0  0  0  0  0  0
   17.6239   70.2617   -5.7938 C   0  0  1  0  0  0  0  0  0  0  0  0
   18.2865   70.8708  -10.1765 H   0  0  0  0  0  0  0  0  0  0  0  0
   20.1266   71.3629   -9.6491 H   0  0  0  0  0  0  0  0  0  0  0  0
   15.5307   70.2704   -8.2830 H   0  0  0  0  0  0  0  0  0  0  0  0
   17.5017   69.3818   -3.6230 O   0  0  0  0  0  0  0  0  0  0  0  0
   16.2211   68.3833   -5.2236 O   0  0  0  0  0  0  0  0  0  0  0  0
   17.0274   69.2366   -4.8851 C   0  0  0  0  0  0  0  0  0  0  0  0
  1  4  1  0
  1 24  1  0
  1  2  1  6
  1  3  2  0
 25 28  1  0
 25 24  1  0
 25 26  1  6
 25 27  2  0
  6 11  1  0
  6 12  1  0
 29 36  1  0
 29 37  1  0
  9  7  1  6
  7 13  1  0
 10  8  1  6
  8 14  1  0
  4  5  1  0
 36 28  1  1
 33 30  1  6
 30 38  1  0
 34 31  1  6
 31 39  1  0
 35 32  1  1
 32 40  1  0
 41 43  1  0
 15 19  2  0
 42 43  2  0
 16 22  2  0
 12 17  1  1
 17 19  1  0
 17 20  1  0
 18 19  1  0
 18 22  1  0
 18 23  1  0
  9 10  1  0
  9 11  1  0
 10 12  1  0
 11  5  1  1
 33 34  1  0
 33 35  1  0
 34 36  1  0
 35 37  1  0
 37 43  1  1
 20 21  2  0
 21 22  1  0
M  CHG  3   2  -1  26  -1  41  -1
M  END
>  <COMPND>  (166) 
    udp_gluA.pdb 

>  <AUTHOR>  (166) 
    GENERATED BY OPEN BABEL 3.1.1

>  <MASTER>  (166) 
        0    0    0    0    0    0    0    0   56    0   56    0

>  <minimizedAffinity>  (166) 
-6.78517

>  <CNNscore>  (166) 
0.5051388741

>  <CNNaffinity>  (166) 
4.1049938202

>  <CNN_VS>  (166) 
2.0735919476

>  <CNNaffinity_variance>  (166) 
0.0593513958

$$$$
167
     RDKit          3D

 43 45  0  0  0  0  0  0  0  0999 V2000
   20.6393   74.0753   -4.8477 P   0  0  2  0  0  0  0  0  0  0  0  0
   20.5195   75.5513   -4.1951 O   0  0  0  0  0  0  0  0  0  0  0  0
   21.2058   74.0408   -6.2368 O   0  0  0  0  0  0  0  0  0  0  0  0
   19.1549   73.4542   -4.6786 O   0  0  0  0  0  0  0  0  0  0  0  0
   18.9234   72.5315   -3.6300 C   0  0  0  0  0  0  0  0  0  0  0  0
   17.0617   72.0998   -5.0878 O   0  0  0  0  0  0  0  0  0  0  0  0
   15.9582   70.4077   -2.8718 O   0  0  0  0  0  0  0  0  0  0  0  0
   17.0164   68.5528   -4.5675 O   0  0  0  0  0  0  0  0  0  0  0  0
   17.3144   70.5925   -3.2781 C   0  0  1  0  0  0  0  0  0  0  0  0
   17.5811   69.8472   -4.5686 C   0  0  2  0  0  0  0  0  0  0  0  0
   17.4825   72.0436   -3.7075 C   0  0  1  0  0  0  0  0  0  0  0  0
   16.9429   70.7628   -5.5993 C   0  0  2  0  0  0  0  0  0  0  0  0
   15.8264   69.4876   -2.5929 H   0  0  0  0  0  0  0  0  0  0  0  0
   17.4564   68.0086   -3.8951 H   0  0  0  0  0  0  0  0  0  0  0  0
   15.5996   70.4541   -8.0644 O   0  0  0  0  0  0  0  0  0  0  0  0
   19.5532   70.5007  -10.4331 O   0  0  0  0  0  0  0  0  0  0  0  0
   17.5967   70.6913   -6.8754 N   0  0  0  0  0  0  0  0  0  0  0  0
   17.5700   70.4766   -9.2417 N   0  0  0  0  0  0  0  0  0  0  0  0
   16.8293   70.5354   -8.0539 C   0  0  0  0  0  0  0  0  0  0  0  0
   18.9816   70.7771   -6.9509 C   0  0  0  0  0  0  0  0  0  0  0  0
   19.6735   70.7196   -8.0905 C   0  0  0  0  0  0  0  0  0  0  0  0
   18.9475   70.5567   -9.3671 C   0  0  0  0  0  0  0  0  0  0  0  0
   17.0577   70.3662  -10.0752 H   0  0  0  0  0  0  0  0  0  0  0  0
   21.5011   73.2615   -3.7486 O   0  0  0  0  0  0  0  0  0  0  0  0
   23.0941   73.2046   -3.4787 P   0  0  2  0  0  0  0  0  0  0  0  0
   23.4086   74.6476   -2.8160 O   0  0  0  0  0  0  0  0  0  0  0  0
   23.9142   72.8914   -4.6966 O   0  0  0  0  0  0  0  0  0  0  0  0
   23.2666   72.1537   -2.2670 O   0  0  0  0  0  0  0  0  0  0  0  0
   23.7156   69.8383   -2.4820 O   0  0  0  0  0  0  0  0  0  0  0  0
   21.7772   69.9837    1.1635 O   0  0  0  0  0  0  0  0  0  0  0  0
   20.8141   71.5735   -1.0904 O   0  0  0  0  0  0  0  0  0  0  0  0
   24.6608   69.6315    1.0572 O   0  0  0  0  0  0  0  0  0  0  0  0
   22.6097   70.4685    0.1100 C   0  0  2  0  0  0  0  0  0  0  0  0
   21.8005   70.5523   -1.1845 C   0  0  2  0  0  0  0  0  0  0  0  0
   23.7786   69.4947   -0.0552 C   0  0  1  0  0  0  0  0  0  0  0  0
   22.7087   70.8457   -2.3794 C   0  0  1  0  0  0  0  0  0  0  0  0
   24.5606   69.7750   -1.3352 C   0  0  1  0  0  0  0  0  0  0  0  0
   21.0272   70.5868    1.2866 H   0  0  0  0  0  0  0  0  0  0  0  0
   20.2344   71.3938   -0.3340 H   0  0  0  0  0  0  0  0  0  0  0  0
   24.1754   69.4558    1.8784 H   0  0  0  0  0  0  0  0  0  0  0  0
   25.3407   67.6425   -0.7473 O   0  0  0  0  0  0  0  0  0  0  0  0
   26.2453   68.6051   -2.6059 O   0  0  0  0  0  0  0  0  0  0  0  0
   25.4773   68.6396   -1.6562 C   0  0  0  0  0  0  0  0  0  0  0  0
  1  4  1  0
  1 24  1  0
  1  2  1  1
  1  3  2  0
 25 28  1  0
 25 24  1  0
 25 26  1  1
 25 27  2  0
  6 11  1  0
  6 12  1  0
 29 36  1  0
 29 37  1  0
  9  7  1  6
  7 13  1  0
 10  8  1  1
  8 14  1  0
  4  5  1  0
 36 28  1  1
 33 30  1  1
 30 38  1  0
 34 31  1  1
 31 39  1  0
 35 32  1  1
 32 40  1  0
 41 43  1  0
 15 19  2  0
 42 43  2  0
 16 22  2  0
 12 17  1  6
 17 19  1  0
 17 20  1  0
 18 19  1  0
 18 22  1  0
 18 23  1  0
  9 10  1  0
  9 11  1  0
 10 12  1  0
 11  5  1  6
 33 34  1  0
 33 35  1  0
 34 36  1  0
 35 37  1  0
 37 43  1  6
 20 21  2  0
 21 22  1  0
M  CHG  3   2  -1  26  -1  41  -1
M  END
>  <COMPND>  (167) 
    udp_gluA.pdb 

>  <AUTHOR>  (167) 
    GENERATED BY OPEN BABEL 3.1.1

>  <MASTER>  (167) 
        0    0    0    0    0    0    0    0   56    0   56    0

>  <minimizedAffinity>  (167) 
-8.22012

>  <CNNscore>  (167) 
0.5038451552

>  <CNNaffinity>  (167) 
4.4566049576

>  <CNN_VS>  (167) 
2.2454388142

>  <CNNaffinity_variance>  (167) 
0.0645007864

$$$$
168
     RDKit          3D

 43 45  0  0  0  0  0  0  0  0999 V2000
   23.0073   73.4643   -4.0475 P   0  0  2  0  0  0  0  0  0  0  0  0
   23.5820   71.9520   -4.0874 O   0  0  0  0  0  0  0  0  0  0  0  0
   23.8850   74.4930   -4.6980 O   0  0  0  0  0  0  0  0  0  0  0  0
   22.6746   73.7123   -2.4836 O   0  0  0  0  0  0  0  0  0  0  0  0
   21.6359   74.6140   -2.1481 C   0  0  0  0  0  0  0  0  0  0  0  0
   21.0205   72.5712   -1.0409 O   0  0  0  0  0  0  0  0  0  0  0  0
   18.6079   74.0520   -0.0520 O   0  0  0  0  0  0  0  0  0  0  0  0
   20.2613   74.0912    2.1161 O   0  0  0  0  0  0  0  0  0  0  0  0
   19.9392   74.5264   -0.2543 C   0  0  1  0  0  0  0  0  0  0  0  0
   20.8521   74.0070    0.8361 C   0  0  2  0  0  0  0  0  0  0  0  0
   20.4994   73.8400   -1.4926 C   0  0  1  0  0  0  0  0  0  0  0  0
   21.0875   72.5728    0.3939 C   0  0  2  0  0  0  0  0  0  0  0  0
   18.2289   74.4766    0.7340 H   0  0  0  0  0  0  0  0  0  0  0  0
   20.1323   75.0238    2.3519 H   0  0  0  0  0  0  0  0  0  0  0  0
   21.6412   69.8646    0.9732 O   0  0  0  0  0  0  0  0  0  0  0  0
   26.0504   70.7856    1.9505 O   0  0  0  0  0  0  0  0  0  0  0  0
   22.3715   72.0773    0.8020 N   0  0  0  0  0  0  0  0  0  0  0  0
   23.8364   70.3261    1.4604 N   0  0  0  0  0  0  0  0  0  0  0  0
   22.5437   70.6985    1.0691 C   0  0  0  0  0  0  0  0  0  0  0  0
   23.4432   72.9522    0.9322 C   0  0  0  0  0  0  0  0  0  0  0  0
   24.6697   72.5824    1.3060 C   0  0  0  0  0  0  0  0  0  0  0  0
   24.9338   71.1595    1.6046 C   0  0  0  0  0  0  0  0  0  0  0  0
   23.9802   69.3715    1.6538 H   0  0  0  0  0  0  0  0  0  0  0  0
   21.5413   73.3131   -4.7114 O   0  0  0  0  0  0  0  0  0  0  0  0
   21.0356   73.5380   -6.2304 P   0  0  2  0  0  0  0  0  0  0  0  0
   22.2282   72.8949   -7.1162 O   0  0  0  0  0  0  0  0  0  0  0  0
   20.7153   74.9654   -6.5678 O   0  0  0  0  0  0  0  0  0  0  0  0
   19.8007   72.5151   -6.4063 O   0  0  0  0  0  0  0  0  0  0  0  0
   19.4172   70.3296   -5.5783 O   0  0  0  0  0  0  0  0  0  0  0  0
   17.6644   70.1328   -9.3142 O   0  0  0  0  0  0  0  0  0  0  0  0
   20.2311   71.4801   -8.9518 O   0  0  0  0  0  0  0  0  0  0  0  0
   16.0081   70.3487   -6.9349 O   0  0  0  0  0  0  0  0  0  0  0  0
   18.0769   70.7594   -8.0997 C   0  0  2  0  0  0  0  0  0  0  0  0
   19.5975   70.6700   -7.9685 C   0  0  2  0  0  0  0  0  0  0  0  0
   17.3986   70.0306   -6.9375 C   0  0  1  0  0  0  0  0  0  0  0  0
   20.0544   71.1223   -6.5808 C   0  0  1  0  0  0  0  0  0  0  0  0
   17.9961   70.4445   -5.5957 C   0  0  1  0  0  0  0  0  0  0  0  0
   18.0831   70.5792  -10.0670 H   0  0  0  0  0  0  0  0  0  0  0  0
   19.9454   71.1988   -9.8348 H   0  0  0  0  0  0  0  0  0  0  0  0
   15.6158   70.0904   -7.7836 H   0  0  0  0  0  0  0  0  0  0  0  0
   18.6046   69.2380   -3.6785 O   0  0  0  0  0  0  0  0  0  0  0  0
   16.4469   69.0424   -4.3892 O   0  0  0  0  0  0  0  0  0  0  0  0
   17.5704   69.5064   -4.5135 C   0  0  0  0  0  0  0  0  0  0  0  0
  1  4  1  0
  1 24  1  0
  1  2  1  1
  1  3  2  0
 25 28  1  0
 25 24  1  0
 25 26  1  6
 25 27  2  0
  6 11  1  0
  6 12  1  0
 29 36  1  0
 29 37  1  0
  9  7  1  1
  7 13  1  0
 10  8  1  1
  8 14  1  0
  4  5  1  0
 36 28  1  1
 33 30  1  6
 30 38  1  0
 34 31  1  6
 31 39  1  0
 35 32  1  1
 32 40  1  0
 41 43  1  0
 15 19  2  0
 42 43  2  0
 16 22  2  0
 12 17  1  6
 17 19  1  0
 17 20  1  0
 18 19  1  0
 18 22  1  0
 18 23  1  0
  9 10  1  0
  9 11  1  0
 10 12  1  0
 11  5  1  1
 33 34  1  0
 33 35  1  0
 34 36  1  0
 35 37  1  0
 37 43  1  1
 20 21  2  0
 21 22  1  0
M  CHG  3   2  -1  26  -1  41  -1
M  END
>  <COMPND>  (168) 
    udp_gluA.pdb 

>  <AUTHOR>  (168) 
    GENERATED BY OPEN BABEL 3.1.1

>  <MASTER>  (168) 
        0    0    0    0    0    0    0    0   56    0   56    0

>  <minimizedAffinity>  (168) 
-7.37882

>  <CNNscore>  (168) 
0.4941935241

>  <CNNaffinity>  (168) 
4.3538570404

>  <CNN_VS>  (168) 
2.1516480446

>  <CNNaffinity_variance>  (168) 
0.0797688141

$$$$
169
     RDKit          3D

 43 45  0  0  0  0  0  0  0  0999 V2000
   23.5384   72.8454   -3.6621 P   0  0  2  0  0  0  0  0  0  0  0  0
   24.2837   71.4135   -3.5471 O   0  0  0  0  0  0  0  0  0  0  0  0
   24.4541   74.0294   -3.7692 O   0  0  0  0  0  0  0  0  0  0  0  0
   22.5206   72.8557   -2.4043 O   0  0  0  0  0  0  0  0  0  0  0  0
   22.9217   73.5117   -1.2154 C   0  0  0  0  0  0  0  0  0  0  0  0
   23.4549   72.9234    1.0534 O   0  0  0  0  0  0  0  0  0  0  0  0
   24.1079   70.1945   -0.0040 O   0  0  0  0  0  0  0  0  0  0  0  0
   21.6231   69.8414    1.0625 O   0  0  0  0  0  0  0  0  0  0  0  0
   23.0854   71.1021   -0.4155 C   0  0  1  0  0  0  0  0  0  0  0  0
   21.9691   71.1326    0.6069 C   0  0  2  0  0  0  0  0  0  0  0  0
   23.6447   72.5150   -0.3187 C   0  0  1  0  0  0  0  0  0  0  0  0
   22.5683   71.9981    1.7023 C   0  0  2  0  0  0  0  0  0  0  0  0
   23.7739   69.2849   -0.0574 H   0  0  0  0  0  0  0  0  0  0  0  0
   21.2462   69.3299    0.3288 H   0  0  0  0  0  0  0  0  0  0  0  0
   22.6520   72.4921    4.4818 O   0  0  0  0  0  0  0  0  0  0  0  0
   18.6872   74.8398    4.3687 O   0  0  0  0  0  0  0  0  0  0  0  0
   21.5710   72.7357    2.4250 N   0  0  0  0  0  0  0  0  0  0  0  0
   20.6767   73.6601    4.4230 N   0  0  0  0  0  0  0  0  0  0  0  0
   21.7075   72.9270    3.8203 C   0  0  0  0  0  0  0  0  0  0  0  0
   20.4745   73.2617    1.7527 C   0  0  0  0  0  0  0  0  0  0  0  0
   19.5001   73.9584    2.3408 C   0  0  0  0  0  0  0  0  0  0  0  0
   19.5663   74.2025    3.7966 C   0  0  0  0  0  0  0  0  0  0  0  0
   20.7488   73.8045    5.3942 H   0  0  0  0  0  0  0  0  0  0  0  0
   22.5519   72.6405   -4.9261 O   0  0  0  0  0  0  0  0  0  0  0  0
   21.3505   73.5606   -5.4949 P   0  0  2  0  0  0  0  0  0  0  0  0
   21.7565   73.7817   -7.0462 O   0  0  0  0  0  0  0  0  0  0  0  0
   21.1310   74.8313   -4.7260 O   0  0  0  0  0  0  0  0  0  0  0  0
   20.0714   72.5788   -5.5447 O   0  0  0  0  0  0  0  0  0  0  0  0
   19.8767   70.3783   -4.6909 O   0  0  0  0  0  0  0  0  0  0  0  0
   17.2508   70.2785   -7.8789 O   0  0  0  0  0  0  0  0  0  0  0  0
   19.8445   71.5978   -8.1374 O   0  0  0  0  0  0  0  0  0  0  0  0
   16.2384   70.4537   -5.1594 O   0  0  0  0  0  0  0  0  0  0  0  0
   17.9594   70.8747   -6.7923 C   0  0  2  0  0  0  0  0  0  0  0  0
   19.4638   70.7708   -7.0439 C   0  0  2  0  0  0  0  0  0  0  0  0
   17.5807   70.1252   -5.5129 C   0  0  1  0  0  0  0  0  0  0  0  0
   20.2560   71.1884   -5.8042 C   0  0  1  0  0  0  0  0  0  0  0  0
   18.4972   70.5044   -4.3532 C   0  0  1  0  0  0  0  0  0  0  0  0
   17.4758   70.7385   -8.7029 H   0  0  0  0  0  0  0  0  0  0  0  0
   19.3455   71.3385   -8.9274 H   0  0  0  0  0  0  0  0  0  0  0  0
   15.6448   70.2175   -5.8893 H   0  0  0  0  0  0  0  0  0  0  0  0
   17.7970   68.3799   -3.6476 O   0  0  0  0  0  0  0  0  0  0  0  0
   18.6584   69.7716   -2.0601 O   0  0  0  0  0  0  0  0  0  0  0  0
   18.3407   69.5456   -3.2181 C   0  0  0  0  0  0  0  0  0  0  0  0
  1  4  1  0
  1 24  1  0
  1  2  1  1
  1  3  2  0
 25 28  1  0
 25 24  1  0
 25 26  1  6
 25 27  2  0
  6 11  1  0
  6 12  1  0
 29 36  1  0
 29 37  1  0
  9  7  1  1
  7 13  1  0
 10  8  1  1
  8 14  1  0
  4  5  1  0
 36 28  1  1
 33 30  1  6
 30 38  1  0
 34 31  1  6
 31 39  1  0
 35 32  1  1
 32 40  1  0
 41 43  1  0
 15 19  2  0
 42 43  2  0
 16 22  2  0
 12 17  1  6
 17 19  1  0
 17 20  1  0
 18 19  1  0
 18 22  1  0
 18 23  1  0
  9 10  1  0
  9 11  1  0
 10 12  1  0
 11  5  1  6
 33 34  1  0
 33 35  1  0
 34 36  1  0
 35 37  1  0
 37 43  1  1
 20 21  2  0
 21 22  1  0
M  CHG  3   2  -1  26  -1  41  -1
M  END
>  <COMPND>  (169) 
    udp_gluA.pdb 

>  <AUTHOR>  (169) 
    GENERATED BY OPEN BABEL 3.1.1

>  <MASTER>  (169) 
        0    0    0    0    0    0    0    0   56    0   56    0

>  <minimizedAffinity>  (169) 
-6.91830

>  <CNNscore>  (169) 
0.4845763445

>  <CNNaffinity>  (169) 
4.0142760277

>  <CNN_VS>  (169) 
1.9452232122

>  <CNNaffinity_variance>  (169) 
0.2902224064

$$$$
170
     RDKit          3D

 43 45  0  0  0  0  0  0  0  0999 V2000
   17.6773   69.8921   -2.8346 P   0  0  2  0  0  0  0  0  0  0  0  0
   17.4593   68.2985   -2.6558 O   0  0  0  0  0  0  0  0  0  0  0  0
   16.5594   70.7469   -2.3137 O   0  0  0  0  0  0  0  0  0  0  0  0
   18.0188   70.0634   -4.4069 O   0  0  0  0  0  0  0  0  0  0  0  0
   17.1306   69.5033   -5.3566 C   0  0  0  0  0  0  0  0  0  0  0  0
   17.4699   71.7668   -6.0908 O   0  0  0  0  0  0  0  0  0  0  0  0
   15.7906   71.0501   -8.4695 O   0  0  0  0  0  0  0  0  0  0  0  0
   18.3247   70.9216   -9.4686 O   0  0  0  0  0  0  0  0  0  0  0  0
   16.7344   70.2510   -7.7559 C   0  0  1  0  0  0  0  0  0  0  0  0
   18.1462   70.6856   -8.0877 C   0  0  2  0  0  0  0  0  0  0  0  0
   16.6301   70.6072   -6.2792 C   0  0  1  0  0  0  0  0  0  0  0  0
   18.2915   71.9480   -7.2551 C   0  0  2  0  0  0  0  0  0  0  0  0
   15.8387   70.8402   -9.4157 H   0  0  0  0  0  0  0  0  0  0  0  0
   18.2227   70.0879   -9.9549 H   0  0  0  0  0  0  0  0  0  0  0  0
   20.3905   70.0830   -7.5590 O   0  0  0  0  0  0  0  0  0  0  0  0
   23.4500   72.9357   -5.6238 O   0  0  0  0  0  0  0  0  0  0  0  0
   19.6463   72.1775   -6.8395 N   0  0  0  0  0  0  0  0  0  0  0  0
   21.9121   71.5052   -6.5939 N   0  0  0  0  0  0  0  0  0  0  0  0
   20.6248   71.1749   -7.0377 C   0  0  0  0  0  0  0  0  0  0  0  0
   19.9944   73.3842   -6.2448 C   0  0  0  0  0  0  0  0  0  0  0  0
   21.2257   73.6846   -5.8271 C   0  0  0  0  0  0  0  0  0  0  0  0
   22.3065   72.6914   -5.9964 C   0  0  0  0  0  0  0  0  0  0  0  0
   22.6100   70.8221   -6.7194 H   0  0  0  0  0  0  0  0  0  0  0  0
   19.1063   70.1450   -2.1228 O   0  0  0  0  0  0  0  0  0  0  0  0
   20.2982   71.1796   -2.4729 P   0  0  2  0  0  0  0  0  0  0  0  0
   19.5062   72.5224   -2.9086 O   0  0  0  0  0  0  0  0  0  0  0  0
   21.2705   70.6745   -3.4993 O   0  0  0  0  0  0  0  0  0  0  0  0
   20.9585   71.5413   -1.0461 O   0  0  0  0  0  0  0  0  0  0  0  0
   23.1939   72.3167   -1.1511 O   0  0  0  0  0  0  0  0  0  0  0  0
   22.6945   71.7385    2.9090 O   0  0  0  0  0  0  0  0  0  0  0  0
   21.6579   69.7882    0.9969 O   0  0  0  0  0  0  0  0  0  0  0  0
   22.6643   74.4270    1.8033 O   0  0  0  0  0  0  0  0  0  0  0  0
   22.2877   72.0579    1.5784 C   0  0  2  0  0  0  0  0  0  0  0  0
   22.5364   70.8572    0.6651 C   0  0  2  0  0  0  0  0  0  0  0  0
   23.1072   73.2622    1.1094 C   0  0  1  0  0  0  0  0  0  0  0  0
   22.3301   71.2342   -0.8026 C   0  0  1  0  0  0  0  0  0  0  0  0
   22.9454   73.4964   -0.3897 C   0  0  1  0  0  0  0  0  0  0  0  0
   22.1870   70.9758    3.2282 H   0  0  0  0  0  0  0  0  0  0  0  0
   21.7833   69.5440    1.9270 H   0  0  0  0  0  0  0  0  0  0  0  0
   22.7619   74.2909    2.7587 H   0  0  0  0  0  0  0  0  0  0  0  0
   23.7357   74.7859   -2.1825 O   0  0  0  0  0  0  0  0  0  0  0  0
   24.9271   74.8645   -0.2400 O   0  0  0  0  0  0  0  0  0  0  0  0
   23.9834   74.4456   -0.8934 C   0  0  0  0  0  0  0  0  0  0  0  0
  1  4  1  0
  1 24  1  0
  1  2  1  6
  1  3  2  0
 25 28  1  0
 25 24  1  0
 25 26  1  6
 25 27  2  0
  6 11  1  0
  6 12  1  0
 29 36  1  0
 29 37  1  0
  9  7  1  6
  7 13  1  0
 10  8  1  6
  8 14  1  0
  4  5  1  0
 36 28  1  1
 33 30  1  1
 30 38  1  0
 34 31  1  1
 31 39  1  0
 35 32  1  1
 32 40  1  0
 41 43  1  0
 15 19  2  0
 42 43  2  0
 16 22  2  0
 12 17  1  1
 17 19  1  0
 17 20  1  0
 18 19  1  0
 18 22  1  0
 18 23  1  0
  9 10  1  0
  9 11  1  0
 10 12  1  0
 11  5  1  1
 33 34  1  0
 33 35  1  0
 34 36  1  0
 35 37  1  0
 37 43  1  6
 20 21  2  0
 21 22  1  0
M  CHG  3   2  -1  26  -1  41  -1
M  END
>  <COMPND>  (170) 
    udp_gluA.pdb 

>  <AUTHOR>  (170) 
    GENERATED BY OPEN BABEL 3.1.1

>  <MASTER>  (170) 
        0    0    0    0    0    0    0    0   56    0   56    0

>  <minimizedAffinity>  (170) 
-7.28566

>  <CNNscore>  (170) 
0.4662699103

>  <CNNaffinity>  (170) 
4.2582836151

>  <CNN_VS>  (170) 
1.9855095148

>  <CNNaffinity_variance>  (170) 
0.1645322591

$$$$
171
     RDKit          3D

 43 45  0  0  0  0  0  0  0  0999 V2000
   22.9286   73.1387   -3.6134 P   0  0  2  0  0  0  0  0  0  0  0  0
   24.2470   72.7503   -4.4676 O   0  0  0  0  0  0  0  0  0  0  0  0
   22.8531   74.5740   -3.1821 O   0  0  0  0  0  0  0  0  0  0  0  0
   22.9015   72.0446   -2.4217 O   0  0  0  0  0  0  0  0  0  0  0  0
   23.3123   72.4445   -1.1272 C   0  0  0  0  0  0  0  0  0  0  0  0
   22.6835   70.1868   -0.5936 O   0  0  0  0  0  0  0  0  0  0  0  0
   22.4472   71.1209    2.2459 O   0  0  0  0  0  0  0  0  0  0  0  0
   24.8682   69.8661    2.2310 O   0  0  0  0  0  0  0  0  0  0  0  0
   23.3807   71.5145    1.2399 C   0  0  1  0  0  0  0  0  0  0  0  0
   24.4043   70.4212    1.0180 C   0  0  2  0  0  0  0  0  0  0  0  0
   22.6490   71.5416   -0.0951 C   0  0  1  0  0  0  0  0  0  0  0  0
   23.6236   69.4237    0.1793 C   0  0  2  0  0  0  0  0  0  0  0  0
   22.8917   71.0963    3.1081 H   0  0  0  0  0  0  0  0  0  0  0  0
   25.3588   70.5400    2.7282 H   0  0  0  0  0  0  0  0  0  0  0  0
   24.3610   66.7244    0.5615 O   0  0  0  0  0  0  0  0  0  0  0  0
   26.8631   66.6696   -3.3089 O   0  0  0  0  0  0  0  0  0  0  0  0
   24.4667   68.6796   -0.7130 N   0  0  0  0  0  0  0  0  0  0  0  0
   25.6073   66.7000   -1.3660 N   0  0  0  0  0  0  0  0  0  0  0  0
   24.7766   67.3285   -0.4291 C   0  0  0  0  0  0  0  0  0  0  0  0
   24.9754   69.2869   -1.8546 C   0  0  0  0  0  0  0  0  0  0  0  0
   25.7660   68.6748   -2.7385 C   0  0  0  0  0  0  0  0  0  0  0  0
   26.1383   67.2624   -2.5155 C   0  0  0  0  0  0  0  0  0  0  0  0
   25.8386   65.7596   -1.1887 H   0  0  0  0  0  0  0  0  0  0  0  0
   21.7198   72.6598   -4.5738 O   0  0  0  0  0  0  0  0  0  0  0  0
   21.0994   73.3242   -5.9107 P   0  0  2  0  0  0  0  0  0  0  0  0
   22.2058   72.9817   -7.0416 O   0  0  0  0  0  0  0  0  0  0  0  0
   20.7798   74.7854   -5.7809 O   0  0  0  0  0  0  0  0  0  0  0  0
   19.8357   72.3929   -6.2822 O   0  0  0  0  0  0  0  0  0  0  0  0
   19.3443   70.1921   -5.5580 O   0  0  0  0  0  0  0  0  0  0  0  0
   17.6278   70.2437   -9.3155 O   0  0  0  0  0  0  0  0  0  0  0  0
   20.2483   71.4548   -8.8678 O   0  0  0  0  0  0  0  0  0  0  0  0
   15.9556   70.4278   -6.9447 O   0  0  0  0  0  0  0  0  0  0  0  0
   18.0541   70.7956   -8.0699 C   0  0  2  0  0  0  0  0  0  0  0  0
   19.5675   70.6311   -7.9284 C   0  0  2  0  0  0  0  0  0  0  0  0
   17.3301   70.0471   -6.9485 C   0  0  1  0  0  0  0  0  0  0  0  0
   20.0283   70.9992   -6.5173 C   0  0  1  0  0  0  0  0  0  0  0  0
   17.9302   70.3725   -5.5837 C   0  0  1  0  0  0  0  0  0  0  0  0
   18.0749   70.7039  -10.0432 H   0  0  0  0  0  0  0  0  0  0  0  0
   19.9605   71.2268   -9.7654 H   0  0  0  0  0  0  0  0  0  0  0  0
   15.5618   70.2261   -7.8079 H   0  0  0  0  0  0  0  0  0  0  0  0
   18.4610   69.0558   -3.7165 O   0  0  0  0  0  0  0  0  0  0  0  0
   16.3057   68.9887   -4.4578 O   0  0  0  0  0  0  0  0  0  0  0  0
   17.4500   69.4071   -4.5493 C   0  0  0  0  0  0  0  0  0  0  0  0
  1  4  1  0
  1 24  1  0
  1  2  1  6
  1  3  2  0
 25 28  1  0
 25 24  1  0
 25 26  1  6
 25 27  2  0
  6 11  1  0
  6 12  1  0
 29 36  1  0
 29 37  1  0
  9  7  1  1
  7 13  1  0
 10  8  1  1
  8 14  1  0
  4  5  1  0
 36 28  1  1
 33 30  1  6
 30 38  1  0
 34 31  1  6
 31 39  1  0
 35 32  1  1
 32 40  1  0
 41 43  1  0
 15 19  2  0
 42 43  2  0
 16 22  2  0
 12 17  1  6
 17 19  1  0
 17 20  1  0
 18 19  1  0
 18 22  1  0
 18 23  1  0
  9 10  1  0
  9 11  1  0
 10 12  1  0
 11  5  1  6
 33 34  1  0
 33 35  1  0
 34 36  1  0
 35 37  1  0
 37 43  1  1
 20 21  2  0
 21 22  1  0
M  CHG  3   2  -1  26  -1  41  -1
M  END
>  <COMPND>  (171) 
    udp_gluA.pdb 

>  <AUTHOR>  (171) 
    GENERATED BY OPEN BABEL 3.1.1

>  <MASTER>  (171) 
        0    0    0    0    0    0    0    0   56    0   56    0

>  <minimizedAffinity>  (171) 
-8.98389

>  <CNNscore>  (171) 
0.4559989870

>  <CNNaffinity>  (171) 
4.4462270737

>  <CNN_VS>  (171) 
2.0274751186

>  <CNNaffinity_variance>  (171) 
0.2950102985

$$$$
172
     RDKit          3D

 43 45  0  0  0  0  0  0  0  0999 V2000
   23.1351   71.2822   -2.7041 P   0  0  2  0  0  0  0  0  0  0  0  0
   23.3292   69.7035   -2.4058 O   0  0  0  0  0  0  0  0  0  0  0  0
   24.1888   71.8959   -3.5786 O   0  0  0  0  0  0  0  0  0  0  0  0
   22.9724   71.9382   -1.2340 O   0  0  0  0  0  0  0  0  0  0  0  0
   23.6225   71.3167   -0.1406 C   0  0  0  0  0  0  0  0  0  0  0  0
   23.4226   71.3048    2.2547 O   0  0  0  0  0  0  0  0  0  0  0  0
   20.5352   71.9938    1.8312 O   0  0  0  0  0  0  0  0  0  0  0  0
   21.6341   74.4040    2.4786 O   0  0  0  0  0  0  0  0  0  0  0  0
   21.6817   72.4095    1.0887 C   0  0  1  0  0  0  0  0  0  0  0  0
   22.4681   73.4393    1.8719 C   0  0  2  0  0  0  0  0  0  0  0  0
   22.6549   71.2399    1.0334 C   0  0  1  0  0  0  0  0  0  0  0  0
   23.1966   72.5748    2.8867 C   0  0  2  0  0  0  0  0  0  0  0  0
   19.8988   72.7247    1.8802 H   0  0  0  0  0  0  0  0  0  0  0  0
   21.1932   74.9285    1.7912 H   0  0  0  0  0  0  0  0  0  0  0  0
   23.5217   74.5398    4.8892 O   0  0  0  0  0  0  0  0  0  0  0  0
   28.0915   74.6474    4.2981 O   0  0  0  0  0  0  0  0  0  0  0  0
   24.4602   73.1339    3.2762 N   0  0  0  0  0  0  0  0  0  0  0  0
   25.7973   74.5923    4.5921 N   0  0  0  0  0  0  0  0  0  0  0  0
   24.5140   74.1160    4.2935 C   0  0  0  0  0  0  0  0  0  0  0  0
   25.6280   72.7085    2.6548 C   0  0  0  0  0  0  0  0  0  0  0  0
   26.8441   73.1717    2.9504 C   0  0  0  0  0  0  0  0  0  0  0  0
   26.9877   74.2005    4.0013 C   0  0  0  0  0  0  0  0  0  0  0  0
   25.8599   75.2781    5.2957 H   0  0  0  0  0  0  0  0  0  0  0  0
   21.6356   71.3566   -3.3032 O   0  0  0  0  0  0  0  0  0  0  0  0
   20.1976   71.3796   -2.5648 P   0  0  2  0  0  0  0  0  0  0  0  0
   19.9811   72.9476   -2.2255 O   0  0  0  0  0  0  0  0  0  0  0  0
   20.1021   70.4704   -1.3740 O   0  0  0  0  0  0  0  0  0  0  0  0
   19.1319   71.0652   -3.7344 O   0  0  0  0  0  0  0  0  0  0  0  0
   19.0757   71.5874   -6.0438 O   0  0  0  0  0  0  0  0  0  0  0  0
   15.0936   71.9464   -5.0036 O   0  0  0  0  0  0  0  0  0  0  0  0
   17.1826   72.9886   -3.2475 O   0  0  0  0  0  0  0  0  0  0  0  0
   16.0124   69.6148   -6.4769 O   0  0  0  0  0  0  0  0  0  0  0  0
   16.4172   71.4167   -4.9295 C   0  0  2  0  0  0  0  0  0  0  0  0
   17.3976   72.5364   -4.5794 C   0  0  2  0  0  0  0  0  0  0  0  0
   16.7624   70.8141   -6.2932 C   0  0  1  0  0  0  0  0  0  0  0  0
   18.8442   72.0594   -4.7160 C   0  0  1  0  0  0  0  0  0  0  0  0
   18.2481   70.4807   -6.3949 C   0  0  1  0  0  0  0  0  0  0  0  0
   14.8522   72.3349   -4.1480 H   0  0  0  0  0  0  0  0  0  0  0  0
   16.2666   73.2925   -3.1536 H   0  0  0  0  0  0  0  0  0  0  0  0
   15.0650   69.8132   -6.4143 H   0  0  0  0  0  0  0  0  0  0  0  0
   17.5414   70.2034   -8.6142 O   0  0  0  0  0  0  0  0  0  0  0  0
   19.7767   70.0189   -8.2036 O   0  0  0  0  0  0  0  0  0  0  0  0
   18.6349   70.2088   -7.8122 C   0  0  0  0  0  0  0  0  0  0  0  0
  1  4  1  0
  1 24  1  0
  1  2  1  1
  1  3  2  0
 25 28  1  0
 25 24  1  0
 25 26  1  1
 25 27  2  0
  6 11  1  0
  6 12  1  0
 29 36  1  0
 29 37  1  0
  9  7  1  1
  7 13  1  0
 10  8  1  1
  8 14  1  0
  4  5  1  0
 36 28  1  1
 33 30  1  6
 30 38  1  0
 34 31  1  1
 31 39  1  0
 35 32  1  1
 32 40  1  0
 41 43  1  0
 15 19  2  0
 42 43  2  0
 16 22  2  0
 12 17  1  6
 17 19  1  0
 17 20  1  0
 18 19  1  0
 18 22  1  0
 18 23  1  0
  9 10  1  0
  9 11  1  0
 10 12  1  0
 11  5  1  6
 33 34  1  0
 33 35  1  0
 34 36  1  0
 35 37  1  0
 37 43  1  6
 20 21  2  0
 21 22  1  0
M  CHG  3   2  -1  26  -1  41  -1
M  END
>  <COMPND>  (172) 
    udp_gluA.pdb 

>  <AUTHOR>  (172) 
    GENERATED BY OPEN BABEL 3.1.1

>  <MASTER>  (172) 
        0    0    0    0    0    0    0    0   56    0   56    0

>  <minimizedAffinity>  (172) 
-6.46355

>  <CNNscore>  (172) 
0.4525731504

>  <CNNaffinity>  (172) 
4.1298356056

>  <CNN_VS>  (172) 
1.8690527678

>  <CNNaffinity_variance>  (172) 
0.0509934425

$$$$
173
     RDKit          3D

 43 45  0  0  0  0  0  0  0  0999 V2000
   19.9610   71.2765   -1.9481 P   0  0  2  0  0  0  0  0  0  0  0  0
   19.5925   72.5384   -1.0043 O   0  0  0  0  0  0  0  0  0  0  0  0
   19.0111   70.1184   -1.8568 O   0  0  0  0  0  0  0  0  0  0  0  0
   21.5023   70.9518   -1.5784 O   0  0  0  0  0  0  0  0  0  0  0  0
   22.1990   71.8503   -0.7346 C   0  0  0  0  0  0  0  0  0  0  0  0
   22.6631   69.7723    0.3808 O   0  0  0  0  0  0  0  0  0  0  0  0
   23.5325   71.4361    2.7191 O   0  0  0  0  0  0  0  0  0  0  0  0
   25.9052   70.7265    1.5777 O   0  0  0  0  0  0  0  0  0  0  0  0
   23.6872   71.6894    1.3225 C   0  0  1  0  0  0  0  0  0  0  0  0
   24.7670   70.7993    0.7447 C   0  0  2  0  0  0  0  0  0  0  0  0
   22.4406   71.1803    0.6119 C   0  0  1  0  0  0  0  0  0  0  0  0
   24.0460   69.4677    0.6221 C   0  0  2  0  0  0  0  0  0  0  0  0
   24.3170   71.7529    3.1943 H   0  0  0  0  0  0  0  0  0  0  0  0
   26.3289   71.5985    1.6231 H   0  0  0  0  0  0  0  0  0  0  0  0
   24.3135   66.6571    0.6959 O   0  0  0  0  0  0  0  0  0  0  0  0
   25.9730   66.5195   -3.6019 O   0  0  0  0  0  0  0  0  0  0  0  0
   24.5452   68.6722   -0.4636 N   0  0  0  0  0  0  0  0  0  0  0  0
   25.1407   66.5914   -1.4443 N   0  0  0  0  0  0  0  0  0  0  0  0
   24.6398   67.2673   -0.3239 C   0  0  0  0  0  0  0  0  0  0  0  0
   24.9330   69.2830   -1.6499 C   0  0  0  0  0  0  0  0  0  0  0  0
   25.4085   68.6254   -2.7093 C   0  0  0  0  0  0  0  0  0  0  0  0
   25.5399   67.1550   -2.6454 C   0  0  0  0  0  0  0  0  0  0  0  0
   25.2177   65.6126   -1.3702 H   0  0  0  0  0  0  0  0  0  0  0  0
   20.0720   71.9421   -3.4169 O   0  0  0  0  0  0  0  0  0  0  0  0
   19.0722   72.9336   -4.2112 P   0  0  2  0  0  0  0  0  0  0  0  0
   19.9221   74.3071   -4.3192 O   0  0  0  0  0  0  0  0  0  0  0  0
   17.7231   73.0899   -3.5715 O   0  0  0  0  0  0  0  0  0  0  0  0
   19.0361   72.3577   -5.7177 O   0  0  0  0  0  0  0  0  0  0  0  0
   18.5563   70.0789   -5.2863 O   0  0  0  0  0  0  0  0  0  0  0  0
   17.9502   70.3079   -9.3665 O   0  0  0  0  0  0  0  0  0  0  0  0
   20.2287   71.6546   -8.1301 O   0  0  0  0  0  0  0  0  0  0  0  0
   15.6772   70.1927   -7.5579 O   0  0  0  0  0  0  0  0  0  0  0  0
   17.9651   70.7883   -8.0223 C   0  0  2  0  0  0  0  0  0  0  0  0
   19.3884   70.7159   -7.4688 C   0  0  2  0  0  0  0  0  0  0  0  0
   17.0267   69.9072   -7.1947 C   0  0  1  0  0  0  0  0  0  0  0  0
   19.4065   71.0029   -5.9667 C   0  0  1  0  0  0  0  0  0  0  0  0
   17.1945   70.1647   -5.7001 C   0  0  1  0  0  0  0  0  0  0  0  0
   18.5397   70.8527   -9.9114 H   0  0  0  0  0  0  0  0  0  0  0  0
   20.2218   71.4785   -9.0836 H   0  0  0  0  0  0  0  0  0  0  0  0
   15.5570   70.0329   -8.5070 H   0  0  0  0  0  0  0  0  0  0  0  0
   16.2278   68.0278   -5.6835 O   0  0  0  0  0  0  0  0  0  0  0  0
   16.2962   69.1538   -3.7020 O   0  0  0  0  0  0  0  0  0  0  0  0
   16.5323   69.0913   -4.8992 C   0  0  0  0  0  0  0  0  0  0  0  0
  1  4  1  0
  1 24  1  0
  1  2  1  1
  1  3  2  0
 25 28  1  0
 25 24  1  0
 25 26  1  6
 25 27  2  0
  6 11  1  0
  6 12  1  0
 29 36  1  0
 29 37  1  0
  9  7  1  1
  7 13  1  0
 10  8  1  1
  8 14  1  0
  4  5  1  0
 36 28  1  6
 33 30  1  6
 30 38  1  0
 34 31  1  6
 31 39  1  0
 35 32  1  6
 32 40  1  0
 41 43  1  0
 15 19  2  0
 42 43  2  0
 16 22  2  0
 12 17  1  6
 17 19  1  0
 17 20  1  0
 18 19  1  0
 18 22  1  0
 18 23  1  0
  9 10  1  0
  9 11  1  0
 10 12  1  0
 11  5  1  6
 33 34  1  0
 33 35  1  0
 34 36  1  0
 35 37  1  0
 37 43  1  1
 20 21  2  0
 21 22  1  0
M  CHG  3   2  -1  26  -1  41  -1
M  END
>  <COMPND>  (173) 
    udp_gluA.pdb 

>  <AUTHOR>  (173) 
    GENERATED BY OPEN BABEL 3.1.1

>  <MASTER>  (173) 
        0    0    0    0    0    0    0    0   56    0   56    0

>  <minimizedAffinity>  (173) 
-8.86785

>  <CNNscore>  (173) 
0.4220297039

>  <CNNaffinity>  (173) 
4.3051376343

>  <CNN_VS>  (173) 
1.8168959618

>  <CNNaffinity_variance>  (173) 
0.4324556291

$$$$
174
     RDKit          3D

 43 45  0  0  0  0  0  0  0  0999 V2000
   21.2281   72.1679   -1.2744 P   0  0  2  0  0  0  0  0  0  0  0  0
   20.3191   71.9813    0.0514 O   0  0  0  0  0  0  0  0  0  0  0  0
   22.0786   73.4040   -1.2906 O   0  0  0  0  0  0  0  0  0  0  0  0
   20.1725   72.0253   -2.4923 O   0  0  0  0  0  0  0  0  0  0  0  0
   20.3374   72.8516   -3.6301 C   0  0  0  0  0  0  0  0  0  0  0  0
   20.3279   71.4187   -5.5600 O   0  0  0  0  0  0  0  0  0  0  0  0
   23.1495   72.3254   -6.0162 O   0  0  0  0  0  0  0  0  0  0  0  0
   21.7435   73.8315   -7.8025 O   0  0  0  0  0  0  0  0  0  0  0  0
   22.0337   73.0615   -5.5145 C   0  0  1  0  0  0  0  0  0  0  0  0
   21.0750   73.3914   -6.6389 C   0  0  2  0  0  0  0  0  0  0  0  0
   21.2016   72.1231   -4.6513 C   0  0  1  0  0  0  0  0  0  0  0  0
   20.3589   72.0670   -6.8415 C   0  0  2  0  0  0  0  0  0  0  0  0
   23.6961   72.9043   -6.5709 H   0  0  0  0  0  0  0  0  0  0  0  0
   22.1830   74.6778   -7.6223 H   0  0  0  0  0  0  0  0  0  0  0  0
   19.1726   70.5159   -8.8819 O   0  0  0  0  0  0  0  0  0  0  0  0
   15.1884   72.8111   -8.5618 O   0  0  0  0  0  0  0  0  0  0  0  0
   19.0131   72.2379   -7.3110 N   0  0  0  0  0  0  0  0  0  0  0  0
   17.1897   71.6612   -8.7212 N   0  0  0  0  0  0  0  0  0  0  0  0
   18.5139   71.4061   -8.3410 C   0  0  0  0  0  0  0  0  0  0  0  0
   18.2028   73.2186   -6.7519 C   0  0  0  0  0  0  0  0  0  0  0  0
   16.9425   73.4497   -7.1247 C   0  0  0  0  0  0  0  0  0  0  0  0
   16.3448   72.6252   -8.1954 C   0  0  0  0  0  0  0  0  0  0  0  0
   16.8207   71.0961   -9.4381 H   0  0  0  0  0  0  0  0  0  0  0  0
   22.0548   70.7807   -1.3458 O   0  0  0  0  0  0  0  0  0  0  0  0
   23.6399   70.4828   -1.2341 P   0  0  2  0  0  0  0  0  0  0  0  0
   24.2356   71.1374   -2.5894 O   0  0  0  0  0  0  0  0  0  0  0  0
   23.9822   69.0333   -1.0452 O   0  0  0  0  0  0  0  0  0  0  0  0
   24.1563   71.4522   -0.0526 O   0  0  0  0  0  0  0  0  0  0  0  0
   25.5530   71.6147    1.8532 O   0  0  0  0  0  0  0  0  0  0  0  0
   21.8162   72.2621    3.4918 O   0  0  0  0  0  0  0  0  0  0  0  0
   22.2097   70.1840    1.4766 O   0  0  0  0  0  0  0  0  0  0  0  0
   23.6376   74.4911    3.0862 O   0  0  0  0  0  0  0  0  0  0  0  0
   22.8203   72.3077    2.4781 C   0  0  2  0  0  0  0  0  0  0  0  0
   23.2610   70.8857    2.1299 C   0  0  2  0  0  0  0  0  0  0  0  0
   24.0029   73.1139    3.0198 C   0  0  1  0  0  0  0  0  0  0  0  0
   24.4901   70.9013    1.2201 C   0  0  1  0  0  0  0  0  0  0  0  0
   25.2286   72.9771    2.1213 C   0  0  1  0  0  0  0  0  0  0  0  0
   21.0545   71.7545    3.1701 H   0  0  0  0  0  0  0  0  0  0  0  0
   21.4264   70.1705    2.0482 H   0  0  0  0  0  0  0  0  0  0  0  0
   22.8585   74.5919    3.6551 H   0  0  0  0  0  0  0  0  0  0  0  0
   26.5190   74.8359    2.7388 O   0  0  0  0  0  0  0  0  0  0  0  0
   27.2825   72.7829    3.3724 O   0  0  0  0  0  0  0  0  0  0  0  0
   26.4524   73.4835    2.8128 C   0  0  0  0  0  0  0  0  0  0  0  0
  1  4  1  0
  1 24  1  0
  1  2  1  1
  1  3  2  0
 25 28  1  0
 25 24  1  0
 25 26  1  6
 25 27  2  0
  6 11  1  0
  6 12  1  0
 29 36  1  0
 29 37  1  0
  9  7  1  6
  7 13  1  0
 10  8  1  6
  8 14  1  0
  4  5  1  0
 36 28  1  6
 33 30  1  1
 30 38  1  0
 34 31  1  6
 31 39  1  0
 35 32  1  6
 32 40  1  0
 41 43  1  0
 15 19  2  0
 42 43  2  0
 16 22  2  0
 12 17  1  1
 17 19  1  0
 17 20  1  0
 18 19  1  0
 18 22  1  0
 18 23  1  0
  9 10  1  0
  9 11  1  0
 10 12  1  0
 11  5  1  1
 33 34  1  0
 33 35  1  0
 34 36  1  0
 35 37  1  0
 37 43  1  1
 20 21  2  0
 21 22  1  0
M  CHG  3   2  -1  26  -1  41  -1
M  END
>  <COMPND>  (174) 
    udp_gluA.pdb 

>  <AUTHOR>  (174) 
    GENERATED BY OPEN BABEL 3.1.1

>  <MASTER>  (174) 
        0    0    0    0    0    0    0    0   56    0   56    0

>  <minimizedAffinity>  (174) 
-6.62065

>  <CNNscore>  (174) 
0.4168438613

>  <CNNaffinity>  (174) 
4.2176852226

>  <CNN_VS>  (174) 
1.7581162453

>  <CNNaffinity_variance>  (174) 
0.0775931850

$$$$
175
     RDKit          3D

 43 45  0  0  0  0  0  0  0  0999 V2000
   22.8191   73.1777   -3.7741 P   0  0  2  0  0  0  0  0  0  0  0  0
   24.1510   72.6080   -4.4954 O   0  0  0  0  0  0  0  0  0  0  0  0
   22.8339   74.6509   -3.4890 O   0  0  0  0  0  0  0  0  0  0  0  0
   22.6320   72.2148   -2.4873 O   0  0  0  0  0  0  0  0  0  0  0  0
   22.2311   72.7964   -1.2603 C   0  0  0  0  0  0  0  0  0  0  0  0
   23.3888   72.5741    0.8344 O   0  0  0  0  0  0  0  0  0  0  0  0
   21.7271   70.1180    1.2795 O   0  0  0  0  0  0  0  0  0  0  0  0
   20.4517   71.9846    2.8043 O   0  0  0  0  0  0  0  0  0  0  0  0
   21.3715   71.3470    0.6457 C   0  0  1  0  0  0  0  0  0  0  0  0
   21.1804   72.4347    1.6814 C   0  0  2  0  0  0  0  0  0  0  0  0
   22.5868   71.8483   -0.1224 C   0  0  1  0  0  0  0  0  0  0  0  0
   22.6148   72.8001    2.0232 C   0  0  2  0  0  0  0  0  0  0  0  0
   20.9661   69.7782    1.7766 H   0  0  0  0  0  0  0  0  0  0  0  0
   19.5456   71.7649    2.5348 H   0  0  0  0  0  0  0  0  0  0  0  0
   24.2506   73.6987    4.1430 O   0  0  0  0  0  0  0  0  0  0  0  0
   23.0627   78.0959    3.4380 O   0  0  0  0  0  0  0  0  0  0  0  0
   22.7516   74.1744    2.4151 N   0  0  0  0  0  0  0  0  0  0  0  0
   23.6566   75.8878    3.7905 N   0  0  0  0  0  0  0  0  0  0  0  0
   23.5994   74.5196    3.4941 C   0  0  0  0  0  0  0  0  0  0  0  0
   22.0527   75.1630    1.7332 C   0  0  0  0  0  0  0  0  0  0  0  0
   22.1175   76.4631    2.0272 C   0  0  0  0  0  0  0  0  0  0  0  0
   22.9798   76.9079    3.1416 C   0  0  0  0  0  0  0  0  0  0  0  0
   24.2387   76.1523    4.5392 H   0  0  0  0  0  0  0  0  0  0  0  0
   21.6358   72.6954   -4.7640 O   0  0  0  0  0  0  0  0  0  0  0  0
   20.8276   73.4887   -5.9178 P   0  0  2  0  0  0  0  0  0  0  0  0
   21.8591   73.4788   -7.1653 O   0  0  0  0  0  0  0  0  0  0  0  0
   20.3603   74.8567   -5.5127 O   0  0  0  0  0  0  0  0  0  0  0  0
   19.6472   72.4809   -6.3574 O   0  0  0  0  0  0  0  0  0  0  0  0
   19.2526   70.2694   -5.6073 O   0  0  0  0  0  0  0  0  0  0  0  0
   17.7215   70.1420   -9.4423 O   0  0  0  0  0  0  0  0  0  0  0  0
   20.2405   71.5180   -8.8984 O   0  0  0  0  0  0  0  0  0  0  0  0
   15.9275   70.2721   -7.1585 O   0  0  0  0  0  0  0  0  0  0  0  0
   18.0529   70.7435   -8.1908 C   0  0  2  0  0  0  0  0  0  0  0  0
   19.5647   70.6736   -7.9738 C   0  0  2  0  0  0  0  0  0  0  0  0
   17.3208   69.9751   -7.0882 C   0  0  1  0  0  0  0  0  0  0  0  0
   19.9334   71.0970   -6.5512 C   0  0  1  0  0  0  0  0  0  0  0  0
   17.8331   70.3634   -5.7042 C   0  0  1  0  0  0  0  0  0  0  0  0
   18.1754   70.6138  -10.1583 H   0  0  0  0  0  0  0  0  0  0  0  0
   20.0109   71.2551   -9.8032 H   0  0  0  0  0  0  0  0  0  0  0  0
   15.5890   70.0298   -8.0346 H   0  0  0  0  0  0  0  0  0  0  0  0
   18.3696   69.0643   -3.8265 O   0  0  0  0  0  0  0  0  0  0  0  0
   16.2249   68.9499   -4.5921 O   0  0  0  0  0  0  0  0  0  0  0  0
   17.3613   69.3917   -4.6721 C   0  0  0  0  0  0  0  0  0  0  0  0
  1  4  1  0
  1 24  1  0
  1  2  1  6
  1  3  2  0
 25 28  1  0
 25 24  1  0
 25 26  1  6
 25 27  2  0
  6 11  1  0
  6 12  1  0
 29 36  1  0
 29 37  1  0
  9  7  1  1
  7 13  1  0
 10  8  1  1
  8 14  1  0
  4  5  1  0
 36 28  1  1
 33 30  1  6
 30 38  1  0
 34 31  1  6
 31 39  1  0
 35 32  1  1
 32 40  1  0
 41 43  1  0
 15 19  2  0
 42 43  2  0
 16 22  2  0
 12 17  1  6
 17 19  1  0
 17 20  1  0
 18 19  1  0
 18 22  1  0
 18 23  1  0
  9 10  1  0
  9 11  1  0
 10 12  1  0
 11  5  1  6
 33 34  1  0
 33 35  1  0
 34 36  1  0
 35 37  1  0
 37 43  1  1
 20 21  2  0
 21 22  1  0
M  CHG  3   2  -1  26  -1  41  -1
M  END
>  <COMPND>  (175) 
    udp_gluA.pdb 

>  <AUTHOR>  (175) 
    GENERATED BY OPEN BABEL 3.1.1

>  <MASTER>  (175) 
        0    0    0    0    0    0    0    0   56    0   56    0

>  <minimizedAffinity>  (175) 
-7.13672

>  <CNNscore>  (175) 
0.4048873782

>  <CNNaffinity>  (175) 
4.2258334160

>  <CNN_VS>  (175) 
1.7109866142

>  <CNNaffinity_variance>  (175) 
0.1253616363

$$$$
176
     RDKit          3D

 43 45  0  0  0  0  0  0  0  0999 V2000
   22.9362   72.2390   -2.7341 P   0  0  2  0  0  0  0  0  0  0  0  0
   23.1133   73.7493   -2.1804 O   0  0  0  0  0  0  0  0  0  0  0  0
   24.0968   71.7152   -3.5281 O   0  0  0  0  0  0  0  0  0  0  0  0
   21.5147   72.2725   -3.5063 O   0  0  0  0  0  0  0  0  0  0  0  0
   21.3961   73.0699   -4.6701 C   0  0  0  0  0  0  0  0  0  0  0  0
   20.8342   70.9246   -5.5973 O   0  0  0  0  0  0  0  0  0  0  0  0
   21.3600   72.1545   -8.2810 O   0  0  0  0  0  0  0  0  0  0  0  0
   18.6376   72.1951   -8.1301 O   0  0  0  0  0  0  0  0  0  0  0  0
   20.7791   72.7414   -7.1163 C   0  0  1  0  0  0  0  0  0  0  0  0
   19.3669   72.2315   -6.9212 C   0  0  2  0  0  0  0  0  0  0  0  0
   21.4940   72.1735   -5.8978 C   0  0  1  0  0  0  0  0  0  0  0  0
   19.6083   70.8479   -6.3421 C   0  0  2  0  0  0  0  0  0  0  0  0
   20.9194   72.5021   -9.0727 H   0  0  0  0  0  0  0  0  0  0  0  0
   18.5100   73.0996   -8.4580 H   0  0  0  0  0  0  0  0  0  0  0  0
   17.1620   69.7309   -7.2048 O   0  0  0  0  0  0  0  0  0  0  0  0
   15.6323   69.2814   -2.8802 O   0  0  0  0  0  0  0  0  0  0  0  0
   18.5532   70.4302   -5.4629 N   0  0  0  0  0  0  0  0  0  0  0  0
   16.4020   69.5090   -5.0501 N   0  0  0  0  0  0  0  0  0  0  0  0
   17.3639   69.8814   -5.9983 C   0  0  0  0  0  0  0  0  0  0  0  0
   18.7023   70.5639   -4.0878 C   0  0  0  0  0  0  0  0  0  0  0  0
   17.7766   70.2043   -3.1964 C   0  0  0  0  0  0  0  0  0  0  0  0
   16.5045   69.6231   -3.6731 C   0  0  0  0  0  0  0  0  0  0  0  0
   15.5647   69.1264   -5.3991 H   0  0  0  0  0  0  0  0  0  0  0  0
   22.6024   71.3981   -1.3946 O   0  0  0  0  0  0  0  0  0  0  0  0
   23.5499   70.4985   -0.4425 P   0  0  2  0  0  0  0  0  0  0  0  0
   22.4897   69.6590    0.4473 O   0  0  0  0  0  0  0  0  0  0  0  0
   24.5431   71.2876    0.3605 O   0  0  0  0  0  0  0  0  0  0  0  0
   24.2058   69.4063   -1.4321 O   0  0  0  0  0  0  0  0  0  0  0  0
   25.0332   67.6596   -0.0633 O   0  0  0  0  0  0  0  0  0  0  0  0
   25.9319   66.2613   -3.8455 O   0  0  0  0  0  0  0  0  0  0  0  0
   26.3543   69.0710   -3.1664 O   0  0  0  0  0  0  0  0  0  0  0  0
   23.6945   65.1379   -2.3680 O   0  0  0  0  0  0  0  0  0  0  0  0
   25.1767   66.9715   -2.8641 C   0  0  2  0  0  0  0  0  0  0  0  0
   26.0535   68.0481   -2.2241 C   0  0  2  0  0  0  0  0  0  0  0  0
   24.7109   65.9670   -1.8077 C   0  0  1  0  0  0  0  0  0  0  0  0
   25.3566   68.6739   -1.0151 C   0  0  1  0  0  0  0  0  0  0  0  0
   24.1428   66.6730   -0.5799 C   0  0  1  0  0  0  0  0  0  0  0  0
   26.2386   66.8794   -4.5275 H   0  0  0  0  0  0  0  0  0  0  0  0
   26.7964   68.6810   -3.9363 H   0  0  0  0  0  0  0  0  0  0  0  0
   24.0432   64.6829   -3.1504 H   0  0  0  0  0  0  0  0  0  0  0  0
   23.2208   64.6664    0.2107 O   0  0  0  0  0  0  0  0  0  0  0  0
   24.5126   65.8603    1.6615 O   0  0  0  0  0  0  0  0  0  0  0  0
   23.9998   65.7195    0.5614 C   0  0  0  0  0  0  0  0  0  0  0  0
  1  4  1  0
  1 24  1  0
  1  2  1  1
  1  3  2  0
 25 28  1  0
 25 24  1  0
 25 26  1  1
 25 27  2  0
  6 11  1  0
  6 12  1  0
 29 36  1  0
 29 37  1  0
  9  7  1  6
  7 13  1  0
 10  8  1  6
  8 14  1  0
  4  5  1  0
 36 28  1  6
 33 30  1  6
 30 38  1  0
 34 31  1  6
 31 39  1  0
 35 32  1  6
 32 40  1  0
 41 43  1  0
 15 19  2  0
 42 43  2  0
 16 22  2  0
 12 17  1  1
 17 19  1  0
 17 20  1  0
 18 19  1  0
 18 22  1  0
 18 23  1  0
  9 10  1  0
  9 11  1  0
 10 12  1  0
 11  5  1  1
 33 34  1  0
 33 35  1  0
 34 36  1  0
 35 37  1  0
 37 43  1  1
 20 21  2  0
 21 22  1  0
M  CHG  3   2  -1  26  -1  41  -1
M  END
>  <COMPND>  (176) 
    udp_gluA.pdb 

>  <AUTHOR>  (176) 
    GENERATED BY OPEN BABEL 3.1.1

>  <MASTER>  (176) 
        0    0    0    0    0    0    0    0   56    0   56    0

>  <minimizedAffinity>  (176) 
-9.29755

>  <CNNscore>  (176) 
0.3714133203

>  <CNNaffinity>  (176) 
4.4131364822

>  <CNN_VS>  (176) 
1.6390976906

>  <CNNaffinity_variance>  (176) 
0.3034625053

$$$$
177
     RDKit          3D

 43 45  0  0  0  0  0  0  0  0999 V2000
   22.9613   72.9312   -4.0524 P   0  0  2  0  0  0  0  0  0  0  0  0
   24.5740   72.8447   -4.1560 O   0  0  0  0  0  0  0  0  0  0  0  0
   22.4235   74.2724   -3.6481 O   0  0  0  0  0  0  0  0  0  0  0  0
   22.5673   71.6955   -3.0851 O   0  0  0  0  0  0  0  0  0  0  0  0
   23.6061   70.9959   -2.4248 C   0  0  0  0  0  0  0  0  0  0  0  0
   24.0350   71.3389   -0.0847 O   0  0  0  0  0  0  0  0  0  0  0  0
   21.2379   70.3634    0.3806 O   0  0  0  0  0  0  0  0  0  0  0  0
   20.9681   73.0689    0.5902 O   0  0  0  0  0  0  0  0  0  0  0  0
   21.7522   71.1561   -0.6898 C   0  0  1  0  0  0  0  0  0  0  0  0
   22.0148   72.5698   -0.2160 C   0  0  2  0  0  0  0  0  0  0  0  0
   23.1563   70.6609   -1.0085 C   0  0  1  0  0  0  0  0  0  0  0  0
   23.3169   72.4090    0.5499 C   0  0  2  0  0  0  0  0  0  0  0  0
   20.3413   70.6613    0.6021 H   0  0  0  0  0  0  0  0  0  0  0  0
   20.1615   73.1534    0.0569 H   0  0  0  0  0  0  0  0  0  0  0  0
   24.9719   73.2741    2.6687 O   0  0  0  0  0  0  0  0  0  0  0  0
   26.3644   76.9809    0.3098 O   0  0  0  0  0  0  0  0  0  0  0  0
   24.1228   73.5966    0.5161 N   0  0  0  0  0  0  0  0  0  0  0  0
   25.6631   75.1200    1.4922 N   0  0  0  0  0  0  0  0  0  0  0  0
   24.9186   73.9416    1.6340 C   0  0  0  0  0  0  0  0  0  0  0  0
   24.1211   74.4040   -0.6149 C   0  0  0  0  0  0  0  0  0  0  0  0
   24.8361   75.5242   -0.7353 C   0  0  0  0  0  0  0  0  0  0  0  0
   25.6936   75.9561    0.3879 C   0  0  0  0  0  0  0  0  0  0  0  0
   26.2233   75.3819    2.2583 H   0  0  0  0  0  0  0  0  0  0  0  0
   22.4764   72.4221   -5.5080 O   0  0  0  0  0  0  0  0  0  0  0  0
   21.9157   73.2389   -6.7855 P   0  0  2  0  0  0  0  0  0  0  0  0
   23.2307   73.4265   -7.7107 O   0  0  0  0  0  0  0  0  0  0  0  0
   21.2160   74.5210   -6.4381 O   0  0  0  0  0  0  0  0  0  0  0  0
   21.0044   72.1740   -7.5843 O   0  0  0  0  0  0  0  0  0  0  0  0
   19.0544   72.1197   -6.2413 O   0  0  0  0  0  0  0  0  0  0  0  0
   17.8430   69.9919   -9.5689 O   0  0  0  0  0  0  0  0  0  0  0  0
   20.5002   69.5726   -8.4297 O   0  0  0  0  0  0  0  0  0  0  0  0
   16.9415   72.7279   -9.1786 O   0  0  0  0  0  0  0  0  0  0  0  0
   18.5753   70.9872   -8.8540 C   0  0  2  0  0  0  0  0  0  0  0  0
   19.4605   70.3156   -7.8038 C   0  0  2  0  0  0  0  0  0  0  0  0
   17.5686   71.9233   -8.1817 C   0  0  1  0  0  0  0  0  0  0  0  0
   20.0832   71.3531   -6.8687 C   0  0  1  0  0  0  0  0  0  0  0  0
   18.2503   72.8417   -7.1716 C   0  0  1  0  0  0  0  0  0  0  0  0
   18.4621   69.3852  -10.0046 H   0  0  0  0  0  0  0  0  0  0  0  0
   20.1122   68.9125   -9.0247 H   0  0  0  0  0  0  0  0  0  0  0  0
   16.5039   72.1555   -9.8280 H   0  0  0  0  0  0  0  0  0  0  0  0
   16.8970   74.7206   -6.7977 O   0  0  0  0  0  0  0  0  0  0  0  0
   16.7809   73.0340   -5.2676 O   0  0  0  0  0  0  0  0  0  0  0  0
   17.2407   73.5088   -6.2953 C   0  0  0  0  0  0  0  0  0  0  0  0
  1  4  1  0
  1 24  1  0
  1  2  1  6
  1  3  2  0
 25 28  1  0
 25 24  1  0
 25 26  1  6
 25 27  2  0
  6 11  1  0
  6 12  1  0
 29 36  1  0
 29 37  1  0
  9  7  1  1
  7 13  1  0
 10  8  1  1
  8 14  1  0
  4  5  1  0
 36 28  1  6
 33 30  1  1
 30 38  1  0
 34 31  1  6
 31 39  1  0
 35 32  1  6
 32 40  1  0
 41 43  1  0
 15 19  2  0
 42 43  2  0
 16 22  2  0
 12 17  1  6
 17 19  1  0
 17 20  1  0
 18 19  1  0
 18 22  1  0
 18 23  1  0
  9 10  1  0
  9 11  1  0
 10 12  1  0
 11  5  1  6
 33 34  1  0
 33 35  1  0
 34 36  1  0
 35 37  1  0
 37 43  1  1
 20 21  2  0
 21 22  1  0
M  CHG  3   2  -1  26  -1  41  -1
M  END
>  <COMPND>  (177) 
    udp_gluA.pdb 

>  <AUTHOR>  (177) 
    GENERATED BY OPEN BABEL 3.1.1

>  <MASTER>  (177) 
        0    0    0    0    0    0    0    0   56    0   56    0

>  <minimizedAffinity>  (177) 
-6.91391

>  <CNNscore>  (177) 
0.3663159609

>  <CNNaffinity>  (177) 
3.8814873695

>  <CNN_VS>  (177) 
1.4218508005

>  <CNNaffinity_variance>  (177) 
0.1404011250

$$$$
178
     RDKit          3D

 43 45  0  0  0  0  0  0  0  0999 V2000
   20.9959   71.2292   -0.5056 P   0  0  2  0  0  0  0  0  0  0  0  0
   21.4576   70.1245    0.5832 O   0  0  0  0  0  0  0  0  0  0  0  0
   20.0734   70.7191   -1.5736 O   0  0  0  0  0  0  0  0  0  0  0  0
   22.3887   71.8673   -1.0262 O   0  0  0  0  0  0  0  0  0  0  0  0
   22.9552   71.3681   -2.2239 C   0  0  0  0  0  0  0  0  0  0  0  0
   23.8983   72.2220   -4.2633 O   0  0  0  0  0  0  0  0  0  0  0  0
   24.3962   74.7628   -2.7508 O   0  0  0  0  0  0  0  0  0  0  0  0
   22.1506   75.3514   -4.1815 O   0  0  0  0  0  0  0  0  0  0  0  0
   23.3011   73.8520   -2.6517 C   0  0  1  0  0  0  0  0  0  0  0  0
   22.3870   73.9992   -3.8496 C   0  0  2  0  0  0  0  0  0  0  0  0
   23.8447   72.4419   -2.8371 C   0  0  1  0  0  0  0  0  0  0  0  0
   23.1589   73.2585   -4.9283 C   0  0  2  0  0  0  0  0  0  0  0  0
   24.0735   75.6707   -2.6356 H   0  0  0  0  0  0  0  0  0  0  0  0
   21.6564   75.7788   -3.4639 H   0  0  0  0  0  0  0  0  0  0  0  0
   23.2562   73.8211   -7.6942 O   0  0  0  0  0  0  0  0  0  0  0  0
   19.7987   70.9091   -8.5939 O   0  0  0  0  0  0  0  0  0  0  0  0
   22.2958   72.6615   -5.9078 N   0  0  0  0  0  0  0  0  0  0  0  0
   21.5334   72.3710   -8.1395 N   0  0  0  0  0  0  0  0  0  0  0  0
   22.4269   73.0130   -7.2721 C   0  0  0  0  0  0  0  0  0  0  0  0
   21.3344   71.7385   -5.5145 C   0  0  0  0  0  0  0  0  0  0  0  0
   20.4899   71.1347   -6.3530 C   0  0  0  0  0  0  0  0  0  0  0  0
   20.5601   71.4469   -7.7956 C   0  0  0  0  0  0  0  0  0  0  0  0
   21.6042   72.6012   -9.0942 H   0  0  0  0  0  0  0  0  0  0  0  0
   20.3772   72.4071    0.4123 O   0  0  0  0  0  0  0  0  0  0  0  0
   20.8733   73.9242    0.6689 P   0  0  2  0  0  0  0  0  0  0  0  0
   19.9026   74.4343    1.8597 O   0  0  0  0  0  0  0  0  0  0  0  0
   20.8583   74.7924   -0.5558 O   0  0  0  0  0  0  0  0  0  0  0  0
   22.3216   73.7696    1.3623 O   0  0  0  0  0  0  0  0  0  0  0  0
   23.2680   71.9964    2.6150 O   0  0  0  0  0  0  0  0  0  0  0  0
   24.9448   75.3025    4.4387 O   0  0  0  0  0  0  0  0  0  0  0  0
   22.1253   75.3039    3.6739 O   0  0  0  0  0  0  0  0  0  0  0  0
   26.5329   73.6705    2.6318 O   0  0  0  0  0  0  0  0  0  0  0  0
   24.4073   74.5445    3.3550 C   0  0  2  0  0  0  0  0  0  0  0  0
   22.9632   74.1538    3.6703 C   0  0  2  0  0  0  0  0  0  0  0  0
   25.2708   73.2934    3.1790 C   0  0  1  0  0  0  0  0  0  0  0  0
   22.4307   73.1529    2.6439 C   0  0  1  0  0  0  0  0  0  0  0  0
   24.6115   72.2893    2.2378 C   0  0  1  0  0  0  0  0  0  0  0  0
   24.4120   76.1028    4.5694 H   0  0  0  0  0  0  0  0  0  0  0  0
   22.4575   75.9434    4.3227 H   0  0  0  0  0  0  0  0  0  0  0  0
   26.9629   74.3095    3.2212 H   0  0  0  0  0  0  0  0  0  0  0  0
   26.5553   71.0311    1.8639 O   0  0  0  0  0  0  0  0  0  0  0  0
   24.7657   69.9389    2.7604 O   0  0  0  0  0  0  0  0  0  0  0  0
   25.2832   70.9578    2.3277 C   0  0  0  0  0  0  0  0  0  0  0  0
  1  4  1  0
  1 24  1  0
  1  2  1  1
  1  3  2  0
 25 28  1  0
 25 24  1  0
 25 26  1  1
 25 27  2  0
  6 11  1  0
  6 12  1  0
 29 36  1  0
 29 37  1  0
  9  7  1  6
  7 13  1  0
 10  8  1  6
  8 14  1  0
  4  5  1  0
 36 28  1  6
 33 30  1  1
 30 38  1  0
 34 31  1  6
 31 39  1  0
 35 32  1  6
 32 40  1  0
 41 43  1  0
 15 19  2  0
 42 43  2  0
 16 22  2  0
 12 17  1  6
 17 19  1  0
 17 20  1  0
 18 19  1  0
 18 22  1  0
 18 23  1  0
  9 10  1  0
  9 11  1  0
 10 12  1  0
 11  5  1  1
 33 34  1  0
 33 35  1  0
 34 36  1  0
 35 37  1  0
 37 43  1  1
 20 21  2  0
 21 22  1  0
M  CHG  3   2  -1  26  -1  41  -1
M  END
>  <COMPND>  (178) 
    udp_gluA.pdb 

>  <AUTHOR>  (178) 
    GENERATED BY OPEN BABEL 3.1.1

>  <MASTER>  (178) 
        0    0    0    0    0    0    0    0   56    0   56    0

>  <minimizedAffinity>  (178) 
-6.44499

>  <CNNscore>  (178) 
0.3486866355

>  <CNNaffinity>  (178) 
3.7594451904

>  <CNN_VS>  (178) 
1.3108682632

>  <CNNaffinity_variance>  (178) 
0.0992232785

$$$$
179
     RDKit          3D

 43 45  0  0  0  0  0  0  0  0999 V2000
   17.3665   70.2380   -2.8300 P   0  0  2  0  0  0  0  0  0  0  0  0
   16.6172   68.8045   -2.7788 O   0  0  0  0  0  0  0  0  0  0  0  0
   16.5612   71.3927   -2.3105 O   0  0  0  0  0  0  0  0  0  0  0  0
   17.8635   70.3620   -4.3648 O   0  0  0  0  0  0  0  0  0  0  0  0
   17.0109   69.8898   -5.3918 C   0  0  0  0  0  0  0  0  0  0  0  0
   17.4042   72.1931   -5.9557 O   0  0  0  0  0  0  0  0  0  0  0  0
   15.6855   71.7037   -8.3635 O   0  0  0  0  0  0  0  0  0  0  0  0
   18.2062   71.5859   -9.3969 O   0  0  0  0  0  0  0  0  0  0  0  0
   16.6138   70.8282   -7.7229 C   0  0  1  0  0  0  0  0  0  0  0  0
   18.0337   71.2500   -8.0360 C   0  0  2  0  0  0  0  0  0  0  0  0
   16.5321   71.0735   -6.2224 C   0  0  1  0  0  0  0  0  0  0  0  0
   18.2200   72.4411   -7.1116 C   0  0  2  0  0  0  0  0  0  0  0  0
   15.7196   71.5653   -9.3234 H   0  0  0  0  0  0  0  0  0  0  0  0
   18.0778   70.7945   -9.9440 H   0  0  0  0  0  0  0  0  0  0  0  0
   19.3305   74.8718   -6.1976 O   0  0  0  0  0  0  0  0  0  0  0  0
   23.4654   72.9455   -5.5370 O   0  0  0  0  0  0  0  0  0  0  0  0
   19.5841   72.6030   -6.6944 N   0  0  0  0  0  0  0  0  0  0  0  0
   21.3891   73.9103   -5.8704 N   0  0  0  0  0  0  0  0  0  0  0  0
   20.0418   73.8668   -6.2525 C   0  0  0  0  0  0  0  0  0  0  0  0
   20.4517   71.5180   -6.7239 C   0  0  0  0  0  0  0  0  0  0  0  0
   21.7333   71.5748   -6.3565 C   0  0  0  0  0  0  0  0  0  0  0  0
   22.2910   72.8586   -5.8828 C   0  0  0  0  0  0  0  0  0  0  0  0
   21.7313   74.7800   -5.5610 H   0  0  0  0  0  0  0  0  0  0  0  0
   18.7399   69.9585   -2.0248 O   0  0  0  0  0  0  0  0  0  0  0  0
   20.0479   70.8827   -1.8043 P   0  0  2  0  0  0  0  0  0  0  0  0
   20.9838   70.5072   -3.0706 O   0  0  0  0  0  0  0  0  0  0  0  0
   20.7116   70.7023   -0.4698 O   0  0  0  0  0  0  0  0  0  0  0  0
   19.5425   72.3853   -2.1030 O   0  0  0  0  0  0  0  0  0  0  0  0
   21.0125   73.9306   -1.0734 O   0  0  0  0  0  0  0  0  0  0  0  0
   18.1631   76.4389   -2.7035 O   0  0  0  0  0  0  0  0  0  0  0  0
   17.3691   73.9610   -1.3754 O   0  0  0  0  0  0  0  0  0  0  0  0
   20.7702   76.1786   -3.9630 O   0  0  0  0  0  0  0  0  0  0  0  0
   18.9816   75.2718   -2.6275 C   0  0  2  0  0  0  0  0  0  0  0  0
   18.6781   74.5173   -1.3328 C   0  0  2  0  0  0  0  0  0  0  0  0
   20.4452   75.7181   -2.6527 C   0  0  1  0  0  0  0  0  0  0  0  0
   19.6897   73.3933   -1.1045 C   0  0  1  0  0  0  0  0  0  0  0  0
   21.3839   74.5703   -2.2923 C   0  0  1  0  0  0  0  0  0  0  0  0
   17.2282   76.1799   -2.6890 H   0  0  0  0  0  0  0  0  0  0  0  0
   16.7221   74.6686   -1.5202 H   0  0  0  0  0  0  0  0  0  0  0  0
   20.1797   76.9092   -4.2046 H   0  0  0  0  0  0  0  0  0  0  0  0
   23.4387   75.3098   -3.1483 O   0  0  0  0  0  0  0  0  0  0  0  0
   23.2107   75.2700   -0.8800 O   0  0  0  0  0  0  0  0  0  0  0  0
   22.7572   75.0804   -1.9986 C   0  0  0  0  0  0  0  0  0  0  0  0
  1  4  1  0
  1 24  1  0
  1  2  1  6
  1  3  2  0
 25 28  1  0
 25 24  1  0
 25 26  1  6
 25 27  2  0
  6 11  1  0
  6 12  1  0
 29 36  1  0
 29 37  1  0
  9  7  1  6
  7 13  1  0
 10  8  1  6
  8 14  1  0
  4  5  1  0
 36 28  1  6
 33 30  1  1
 30 38  1  0
 34 31  1  6
 31 39  1  0
 35 32  1  6
 32 40  1  0
 41 43  1  0
 15 19  2  0
 42 43  2  0
 16 22  2  0
 12 17  1  1
 17 19  1  0
 17 20  1  0
 18 19  1  0
 18 22  1  0
 18 23  1  0
  9 10  1  0
  9 11  1  0
 10 12  1  0
 11  5  1  1
 33 34  1  0
 33 35  1  0
 34 36  1  0
 35 37  1  0
 37 43  1  1
 20 21  2  0
 21 22  1  0
M  CHG  3   2  -1  26  -1  41  -1
M  END
>  <COMPND>  (179) 
    udp_gluA.pdb 

>  <AUTHOR>  (179) 
    GENERATED BY OPEN BABEL 3.1.1

>  <MASTER>  (179) 
        0    0    0    0    0    0    0    0   56    0   56    0

>  <minimizedAffinity>  (179) 
-5.49175

>  <CNNscore>  (179) 
0.3413920105

>  <CNNaffinity>  (179) 
3.9130890369

>  <CNN_VS>  (179) 
1.3358973265

>  <CNNaffinity_variance>  (179) 
0.3308452368

$$$$
180
     RDKit          3D

 43 45  0  0  0  0  0  0  0  0999 V2000
   21.5518   72.1304   -3.2645 P   0  0  2  0  0  0  0  0  0  0  0  0
   20.7304   73.1507   -2.3142 O   0  0  0  0  0  0  0  0  0  0  0  0
   20.7546   70.9724   -3.7892 O   0  0  0  0  0  0  0  0  0  0  0  0
   22.8552   71.7457   -2.3864 O   0  0  0  0  0  0  0  0  0  0  0  0
   23.0051   72.3318   -1.1064 C   0  0  0  0  0  0  0  0  0  0  0  0
   22.5354   70.0429   -0.5427 O   0  0  0  0  0  0  0  0  0  0  0  0
   22.2458   70.9936    2.2864 O   0  0  0  0  0  0  0  0  0  0  0  0
   24.7474   69.9084    2.2756 O   0  0  0  0  0  0  0  0  0  0  0  0
   23.1462   71.4381    1.2714 C   0  0  1  0  0  0  0  0  0  0  0  0
   24.2419   70.4152    1.0582 C   0  0  2  0  0  0  0  0  0  0  0  0
   22.4095   71.3982   -0.0605 C   0  0  1  0  0  0  0  0  0  0  0  0
   23.5286   69.3560    0.2351 C   0  0  2  0  0  0  0  0  0  0  0  0
   22.6942   71.0104    3.1468 H   0  0  0  0  0  0  0  0  0  0  0  0
   25.1923   70.6206    2.7624 H   0  0  0  0  0  0  0  0  0  0  0  0
   24.3446   66.6736    0.5748 O   0  0  0  0  0  0  0  0  0  0  0  0
   26.9428   66.7908   -3.2305 O   0  0  0  0  0  0  0  0  0  0  0  0
   24.4177   68.6607   -0.6519 N   0  0  0  0  0  0  0  0  0  0  0  0
   25.6387   66.7348   -1.3202 N   0  0  0  0  0  0  0  0  0  0  0  0
   24.7647   67.3140   -0.3909 C   0  0  0  0  0  0  0  0  0  0  0  0
   24.9345   69.3108   -1.7661 C   0  0  0  0  0  0  0  0  0  0  0  0
   25.7665   68.7455   -2.6430 C   0  0  0  0  0  0  0  0  0  0  0  0
   26.1794   67.3410   -2.4426 C   0  0  0  0  0  0  0  0  0  0  0  0
   25.8963   65.7985   -1.1584 H   0  0  0  0  0  0  0  0  0  0  0  0
   22.1562   73.1036   -4.4049 O   0  0  0  0  0  0  0  0  0  0  0  0
   23.2354   74.3038   -4.3132 P   0  0  2  0  0  0  0  0  0  0  0  0
   24.6555   73.5276   -4.3458 O   0  0  0  0  0  0  0  0  0  0  0  0
   23.0518   75.2078   -3.1287 O   0  0  0  0  0  0  0  0  0  0  0  0
   23.1443   75.0463   -5.7425 O   0  0  0  0  0  0  0  0  0  0  0  0
   24.8231   75.7292   -7.2670 O   0  0  0  0  0  0  0  0  0  0  0  0
   22.0119   78.7231   -7.7158 O   0  0  0  0  0  0  0  0  0  0  0  0
   22.6768   77.7020   -5.0607 O   0  0  0  0  0  0  0  0  0  0  0  0
   22.2807   76.6579   -9.7441 O   0  0  0  0  0  0  0  0  0  0  0  0
   22.4736   77.3969   -7.4590 C   0  0  2  0  0  0  0  0  0  0  0  0
   23.4050   77.4051   -6.2466 C   0  0  2  0  0  0  0  0  0  0  0  0
   23.2213   76.9075   -8.7013 C   0  0  1  0  0  0  0  0  0  0  0  0
   24.0980   76.0520   -6.0799 C   0  0  1  0  0  0  0  0  0  0  0  0
   23.9889   75.6194   -8.4181 C   0  0  1  0  0  0  0  0  0  0  0  0
   21.5335   79.0550   -6.9398 H   0  0  0  0  0  0  0  0  0  0  0  0
   22.2343   78.5592   -5.1596 H   0  0  0  0  0  0  0  0  0  0  0  0
   21.7854   77.4700   -9.9339 H   0  0  0  0  0  0  0  0  0  0  0  0
   26.2322   75.3178   -9.0330 O   0  0  0  0  0  0  0  0  0  0  0  0
   24.6679   75.1320  -10.6815 O   0  0  0  0  0  0  0  0  0  0  0  0
   24.9640   75.3314   -9.5129 C   0  0  0  0  0  0  0  0  0  0  0  0
  1  4  1  0
  1 24  1  0
  1  2  1  1
  1  3  2  0
 25 28  1  0
 25 24  1  0
 25 26  1  1
 25 27  2  0
  6 11  1  0
  6 12  1  0
 29 36  1  0
 29 37  1  0
  9  7  1  1
  7 13  1  0
 10  8  1  1
  8 14  1  0
  4  5  1  0
 36 28  1  6
 33 30  1  6
 30 38  1  0
 34 31  1  1
 31 39  1  0
 35 32  1  6
 32 40  1  0
 41 43  1  0
 15 19  2  0
 42 43  2  0
 16 22  2  0
 12 17  1  6
 17 19  1  0
 17 20  1  0
 18 19  1  0
 18 22  1  0
 18 23  1  0
  9 10  1  0
  9 11  1  0
 10 12  1  0
 11  5  1  6
 33 34  1  0
 33 35  1  0
 34 36  1  0
 35 37  1  0
 37 43  1  6
 20 21  2  0
 21 22  1  0
M  CHG  3   2  -1  26  -1  41  -1
M  END
>  <COMPND>  (180) 
    udp_gluA.pdb 

>  <AUTHOR>  (180) 
    GENERATED BY OPEN BABEL 3.1.1

>  <MASTER>  (180) 
        0    0    0    0    0    0    0    0   56    0   56    0

>  <minimizedAffinity>  (180) 
-6.70708

>  <CNNscore>  (180) 
0.3071874976

>  <CNNaffinity>  (180) 
3.9870712757

>  <CNN_VS>  (180) 
1.2247784138

>  <CNNaffinity_variance>  (180) 
0.1643022597

$$$$
181
     RDKit          3D

 43 45  0  0  0  0  0  0  0  0999 V2000
   23.0777   70.8788   -2.5631 P   0  0  2  0  0  0  0  0  0  0  0  0
   24.1995   71.7174   -3.3738 O   0  0  0  0  0  0  0  0  0  0  0  0
   23.3133   69.3979   -2.5044 O   0  0  0  0  0  0  0  0  0  0  0  0
   21.6825   71.3419   -3.2389 O   0  0  0  0  0  0  0  0  0  0  0  0
   20.7633   70.3441   -3.6438 C   0  0  0  0  0  0  0  0  0  0  0  0
   18.9038   71.5276   -4.6028 O   0  0  0  0  0  0  0  0  0  0  0  0
   17.2369   70.2810   -2.4443 O   0  0  0  0  0  0  0  0  0  0  0  0
   16.6649   68.7273   -4.6111 O   0  0  0  0  0  0  0  0  0  0  0  0
   18.3410   69.7320   -3.1641 C   0  0  1  0  0  0  0  0  0  0  0  0
   17.9210   69.3720   -4.5734 C   0  0  2  0  0  0  0  0  0  0  0  0
   19.3460   70.8496   -3.4069 C   0  0  1  0  0  0  0  0  0  0  0  0
   17.9017   70.7303   -5.2534 C   0  0  2  0  0  0  0  0  0  0  0  0
   16.5813   69.5854   -2.2774 H   0  0  0  0  0  0  0  0  0  0  0  0
   16.7295   67.8673   -4.1659 H   0  0  0  0  0  0  0  0  0  0  0  0
   16.0152   70.1210   -7.2651 O   0  0  0  0  0  0  0  0  0  0  0  0
   19.1892   70.4363  -10.5923 O   0  0  0  0  0  0  0  0  0  0  0  0
   18.2080   70.6467   -6.6535 N   0  0  0  0  0  0  0  0  0  0  0  0
   17.5981   70.2776   -8.9202 N   0  0  0  0  0  0  0  0  0  0  0  0
   17.1871   70.3337   -7.5819 C   0  0  0  0  0  0  0  0  0  0  0  0
   19.5059   70.8748   -7.0943 C   0  0  0  0  0  0  0  0  0  0  0  0
   19.8823   70.8179   -8.3733 C   0  0  0  0  0  0  0  0  0  0  0  0
   18.8767   70.4961   -9.4070 C   0  0  0  0  0  0  0  0  0  0  0  0
   16.9053   70.0594   -9.5848 H   0  0  0  0  0  0  0  0  0  0  0  0
   23.0456   71.6131   -1.1235 O   0  0  0  0  0  0  0  0  0  0  0  0
   21.8797   71.7115   -0.0079 P   0  0  2  0  0  0  0  0  0  0  0  0
   22.7036   71.7668    1.3843 O   0  0  0  0  0  0  0  0  0  0  0  0
   20.8626   70.6097   -0.0813 O   0  0  0  0  0  0  0  0  0  0  0  0
   21.2722   73.1960   -0.1807 O   0  0  0  0  0  0  0  0  0  0  0  0
   19.0169   73.7575    0.2751 O   0  0  0  0  0  0  0  0  0  0  0  0
   20.1191   76.7608   -2.3389 O   0  0  0  0  0  0  0  0  0  0  0  0
   20.9431   74.0002   -2.8229 O   0  0  0  0  0  0  0  0  0  0  0  0
   19.8860   77.3147    0.5054 O   0  0  0  0  0  0  0  0  0  0  0  0
   20.3170   75.7908   -1.3103 C   0  0  2  0  0  0  0  0  0  0  0  0
   19.9854   74.3989   -1.8490 C   0  0  2  0  0  0  0  0  0  0  0  0
   19.3926   76.1440   -0.1430 C   0  0  1  0  0  0  0  0  0  0  0  0
   19.9630   73.3667   -0.7207 C   0  0  1  0  0  0  0  0  0  0  0  0
   19.3272   75.0118    0.8780 C   0  0  1  0  0  0  0  0  0  0  0  0
   20.6964   76.5567   -3.0915 H   0  0  0  0  0  0  0  0  0  0  0  0
   20.9628   74.6508   -3.5417 H   0  0  0  0  0  0  0  0  0  0  0  0
   19.9327   78.0429   -0.1336 H   0  0  0  0  0  0  0  0  0  0  0  0
   18.5602   76.0351    2.8443 O   0  0  0  0  0  0  0  0  0  0  0  0
   17.0801   74.7245    1.7083 O   0  0  0  0  0  0  0  0  0  0  0  0
   18.1915   75.2180    1.8267 C   0  0  0  0  0  0  0  0  0  0  0  0
  1  4  1  0
  1 24  1  0
  1  2  1  6
  1  3  2  0
 25 28  1  0
 25 24  1  0
 25 26  1  1
 25 27  2  0
  6 11  1  0
  6 12  1  0
 29 36  1  0
 29 37  1  0
  9  7  1  1
  7 13  1  0
 10  8  1  1
  8 14  1  0
  4  5  1  0
 36 28  1  1
 33 30  1  6
 30 38  1  0
 34 31  1  6
 31 39  1  0
 35 32  1  1
 32 40  1  0
 41 43  1  0
 15 19  2  0
 42 43  2  0
 16 22  2  0
 12 17  1  6
 17 19  1  0
 17 20  1  0
 18 19  1  0
 18 22  1  0
 18 23  1  0
  9 10  1  0
  9 11  1  0
 10 12  1  0
 11  5  1  6
 33 34  1  0
 33 35  1  0
 34 36  1  0
 35 37  1  0
 37 43  1  1
 20 21  2  0
 21 22  1  0
M  CHG  3   2  -1  26  -1  41  -1
M  END
>  <COMPND>  (181) 
    udp_gluA.pdb 

>  <AUTHOR>  (181) 
    GENERATED BY OPEN BABEL 3.1.1

>  <MASTER>  (181) 
        0    0    0    0    0    0    0    0   56    0   56    0

>  <minimizedAffinity>  (181) 
-6.24729

>  <CNNscore>  (181) 
0.8938127160

>  <CNNaffinity>  (181) 
4.7500500679

>  <CNN_VS>  (181) 
4.2456550598

>  <CNNaffinity_variance>  (181) 
0.0558477119

$$$$
182
     RDKit          3D

 43 45  0  0  0  0  0  0  0  0999 V2000
   23.0066   70.7909   -2.6220 P   0  0  2  0  0  0  0  0  0  0  0  0
   24.1365   71.7392   -3.2876 O   0  0  0  0  0  0  0  0  0  0  0  0
   23.3768   69.3403   -2.5198 O   0  0  0  0  0  0  0  0  0  0  0  0
   21.6725   71.1170   -3.4774 O   0  0  0  0  0  0  0  0  0  0  0  0
   20.6896   70.1065   -3.6085 C   0  0  0  0  0  0  0  0  0  0  0  0
   18.9374   71.4412   -4.5708 O   0  0  0  0  0  0  0  0  0  0  0  0
   17.1583   70.3087   -2.4392 O   0  0  0  0  0  0  0  0  0  0  0  0
   16.4862   68.8254   -4.6265 O   0  0  0  0  0  0  0  0  0  0  0  0
   18.2225   69.6816   -3.1554 C   0  0  1  0  0  0  0  0  0  0  0  0
   17.7885   69.3691   -4.5718 C   0  0  2  0  0  0  0  0  0  0  0  0
   19.3142   70.7193   -3.3783 C   0  0  1  0  0  0  0  0  0  0  0  0
   17.8819   70.7313   -5.2380 C   0  0  2  0  0  0  0  0  0  0  0  0
   16.4487   69.6651   -2.2849 H   0  0  0  0  0  0  0  0  0  0  0  0
   16.4791   67.9587   -4.1896 H   0  0  0  0  0  0  0  0  0  0  0  0
   15.9775   70.2509   -7.2675 O   0  0  0  0  0  0  0  0  0  0  0  0
   19.1909   70.3901  -10.5688 O   0  0  0  0  0  0  0  0  0  0  0  0
   18.1935   70.6372   -6.6362 N   0  0  0  0  0  0  0  0  0  0  0  0
   17.5799   70.3197   -8.9097 N   0  0  0  0  0  0  0  0  0  0  0  0
   17.1627   70.3930   -7.5742 C   0  0  0  0  0  0  0  0  0  0  0  0
   19.5064   70.7877   -7.0658 C   0  0  0  0  0  0  0  0  0  0  0  0
   19.8887   70.7153   -8.3423 C   0  0  0  0  0  0  0  0  0  0  0  0
   18.8733   70.4621   -9.3855 C   0  0  0  0  0  0  0  0  0  0  0  0
   16.8803   70.1484   -9.5809 H   0  0  0  0  0  0  0  0  0  0  0  0
   22.7155   71.5130   -1.2053 O   0  0  0  0  0  0  0  0  0  0  0  0
   22.4257   70.8961    0.2607 P   0  0  2  0  0  0  0  0  0  0  0  0
   23.6349   69.8390    0.4628 O   0  0  0  0  0  0  0  0  0  0  0  0
   21.0548   70.3053    0.4202 O   0  0  0  0  0  0  0  0  0  0  0  0
   22.7601   72.0977    1.2837 O   0  0  0  0  0  0  0  0  0  0  0  0
   21.5147   73.1062    3.0275 O   0  0  0  0  0  0  0  0  0  0  0  0
   23.5459   76.3457    1.4630 O   0  0  0  0  0  0  0  0  0  0  0  0
   22.3623   74.3449   -0.3062 O   0  0  0  0  0  0  0  0  0  0  0  0
   24.3991   75.1648    3.9787 O   0  0  0  0  0  0  0  0  0  0  0  0
   23.3519   74.9764    1.8170 C   0  0  2  0  0  0  0  0  0  0  0  0
   22.1207   74.4303    1.0935 C   0  0  2  0  0  0  0  0  0  0  0  0
   23.1546   74.9032    3.3328 C   0  0  1  0  0  0  0  0  0  0  0  0
   21.7470   73.0439    1.6198 C   0  0  1  0  0  0  0  0  0  0  0  0
   22.6612   73.5252    3.7644 C   0  0  1  0  0  0  0  0  0  0  0  0
   23.6735   76.4170    0.5039 H   0  0  0  0  0  0  0  0  0  0  0  0
   22.6002   75.2211   -0.6468 H   0  0  0  0  0  0  0  0  0  0  0  0
   24.7241   76.0390    3.7123 H   0  0  0  0  0  0  0  0  0  0  0  0
   21.1217   74.4193    5.2915 O   0  0  0  0  0  0  0  0  0  0  0  0
   22.6201   72.8996    6.0943 O   0  0  0  0  0  0  0  0  0  0  0  0
   22.1619   73.5575    5.1722 C   0  0  0  0  0  0  0  0  0  0  0  0
  1  4  1  0
  1 24  1  0
  1  2  1  6
  1  3  2  0
 25 28  1  0
 25 24  1  0
 25 26  1  1
 25 27  2  0
  6 11  1  0
  6 12  1  0
 29 36  1  0
 29 37  1  0
  9  7  1  1
  7 13  1  0
 10  8  1  1
  8 14  1  0
  4  5  1  0
 36 28  1  1
 33 30  1  6
 30 38  1  0
 34 31  1  6
 31 39  1  0
 35 32  1  1
 32 40  1  0
 41 43  1  0
 15 19  2  0
 42 43  2  0
 16 22  2  0
 12 17  1  6
 17 19  1  0
 17 20  1  0
 18 19  1  0
 18 22  1  0
 18 23  1  0
  9 10  1  0
  9 11  1  0
 10 12  1  0
 11  5  1  6
 33 34  1  0
 33 35  1  0
 34 36  1  0
 35 37  1  0
 37 43  1  1
 20 21  2  0
 21 22  1  0
M  CHG  3   2  -1  26  -1  41  -1
M  END
>  <COMPND>  (182) 
    udp_gluA.pdb 

>  <AUTHOR>  (182) 
    GENERATED BY OPEN BABEL 3.1.1

>  <MASTER>  (182) 
        0    0    0    0    0    0    0    0   56    0   56    0

>  <minimizedAffinity>  (182) 
-7.34554

>  <CNNscore>  (182) 
0.8302895427

>  <CNNaffinity>  (182) 
4.6993856430

>  <CNN_VS>  (182) 
3.9018507004

>  <CNNaffinity_variance>  (182) 
0.0690193102

$$$$
183
     RDKit          3D

 43 45  0  0  0  0  0  0  0  0999 V2000
   22.6994   72.0096   -3.1012 P   0  0  2  0  0  0  0  0  0  0  0  0
   22.3712   73.5900   -2.9861 O   0  0  0  0  0  0  0  0  0  0  0  0
   24.1003   71.6829   -3.5285 O   0  0  0  0  0  0  0  0  0  0  0  0
   21.5230   71.4367   -4.0529 O   0  0  0  0  0  0  0  0  0  0  0  0
   20.7382   70.3565   -3.5820 C   0  0  0  0  0  0  0  0  0  0  0  0
   18.8716   71.5225   -4.5485 O   0  0  0  0  0  0  0  0  0  0  0  0
   17.2028   70.2384   -2.4136 O   0  0  0  0  0  0  0  0  0  0  0  0
   16.6699   68.6933   -4.5965 O   0  0  0  0  0  0  0  0  0  0  0  0
   18.3201   69.7092   -3.1278 C   0  0  1  0  0  0  0  0  0  0  0  0
   17.9170   69.3541   -4.5433 C   0  0  2  0  0  0  0  0  0  0  0  0
   19.3124   70.8417   -3.3537 C   0  0  1  0  0  0  0  0  0  0  0  0
   17.8857   70.7170   -5.2136 C   0  0  2  0  0  0  0  0  0  0  0  0
   16.5549   69.5331   -2.2575 H   0  0  0  0  0  0  0  0  0  0  0  0
   16.7419   67.8310   -4.1570 H   0  0  0  0  0  0  0  0  0  0  0  0
   16.0198   70.1207   -7.2482 O   0  0  0  0  0  0  0  0  0  0  0  0
   19.2231   70.4779  -10.5429 O   0  0  0  0  0  0  0  0  0  0  0  0
   18.2051   70.6476   -6.6115 N   0  0  0  0  0  0  0  0  0  0  0  0
   17.6172   70.2982   -8.8871 N   0  0  0  0  0  0  0  0  0  0  0  0
   17.1938   70.3402   -7.5522 C   0  0  0  0  0  0  0  0  0  0  0  0
   19.5062   70.8842   -7.0382 C   0  0  0  0  0  0  0  0  0  0  0  0
   19.8946   70.8407   -8.3141 C   0  0  0  0  0  0  0  0  0  0  0  0
   18.8995   70.5254   -9.3600 C   0  0  0  0  0  0  0  0  0  0  0  0
   16.9313   70.0841   -9.5601 H   0  0  0  0  0  0  0  0  0  0  0  0
   22.2922   71.4471   -1.6415 O   0  0  0  0  0  0  0  0  0  0  0  0
   23.1556   70.6463   -0.5338 P   0  0  2  0  0  0  0  0  0  0  0  0
   22.0210   69.9935    0.4184 O   0  0  0  0  0  0  0  0  0  0  0  0
   24.1610   71.4920    0.1927 O   0  0  0  0  0  0  0  0  0  0  0  0
   23.7861   69.3947   -1.3328 O   0  0  0  0  0  0  0  0  0  0  0  0
   24.7860   67.7424    0.0381 O   0  0  0  0  0  0  0  0  0  0  0  0
   25.9984   66.5556   -3.7288 O   0  0  0  0  0  0  0  0  0  0  0  0
   26.0218   69.3812   -2.9873 O   0  0  0  0  0  0  0  0  0  0  0  0
   23.8761   65.1173   -2.3583 O   0  0  0  0  0  0  0  0  0  0  0  0
   25.1209   67.1395   -2.7659 C   0  0  2  0  0  0  0  0  0  0  0  0
   25.8243   68.3077   -2.0745 C   0  0  2  0  0  0  0  0  0  0  0  0
   24.7533   66.0602   -1.7452 C   0  0  1  0  0  0  0  0  0  0  0  0
   25.0075   68.8106   -0.8835 C   0  0  1  0  0  0  0  0  0  0  0  0
   24.0527   66.6590   -0.5290 C   0  0  1  0  0  0  0  0  0  0  0  0
   26.2456   67.2232   -4.3879 H   0  0  0  0  0  0  0  0  0  0  0  0
   26.5392   69.0691   -3.7458 H   0  0  0  0  0  0  0  0  0  0  0  0
   24.3101   64.7288   -3.1340 H   0  0  0  0  0  0  0  0  0  0  0  0
   23.2451   64.5960    0.2413 O   0  0  0  0  0  0  0  0  0  0  0  0
   24.5466   65.8034    1.6722 O   0  0  0  0  0  0  0  0  0  0  0  0
   23.9951   65.6707    0.5900 C   0  0  0  0  0  0  0  0  0  0  0  0
  1  4  1  0
  1 24  1  0
  1  2  1  1
  1  3  2  0
 25 28  1  0
 25 24  1  0
 25 26  1  1
 25 27  2  0
  6 11  1  0
  6 12  1  0
 29 36  1  0
 29 37  1  0
  9  7  1  1
  7 13  1  0
 10  8  1  1
  8 14  1  0
  4  5  1  0
 36 28  1  6
 33 30  1  6
 30 38  1  0
 34 31  1  6
 31 39  1  0
 35 32  1  6
 32 40  1  0
 41 43  1  0
 15 19  2  0
 42 43  2  0
 16 22  2  0
 12 17  1  6
 17 19  1  0
 17 20  1  0
 18 19  1  0
 18 22  1  0
 18 23  1  0
  9 10  1  0
  9 11  1  0
 10 12  1  0
 11  5  1  6
 33 34  1  0
 33 35  1  0
 34 36  1  0
 35 37  1  0
 37 43  1  1
 20 21  2  0
 21 22  1  0
M  CHG  3   2  -1  26  -1  41  -1
M  END
>  <COMPND>  (183) 
    udp_gluA.pdb 

>  <AUTHOR>  (183) 
    GENERATED BY OPEN BABEL 3.1.1

>  <MASTER>  (183) 
        0    0    0    0    0    0    0    0   56    0   56    0

>  <minimizedAffinity>  (183) 
-9.61568

>  <CNNscore>  (183) 
0.8285397291

>  <CNNaffinity>  (183) 
4.9975566864

>  <CNN_VS>  (183) 
4.1406741142

>  <CNNaffinity_variance>  (183) 
0.0711566061

$$$$
184
     RDKit          3D

 43 45  0  0  0  0  0  0  0  0999 V2000
   23.2692   70.3793   -2.3202 P   0  0  2  0  0  0  0  0  0  0  0  0
   23.9042   71.4443   -3.3602 O   0  0  0  0  0  0  0  0  0  0  0  0
   24.0527   69.1101   -2.1557 O   0  0  0  0  0  0  0  0  0  0  0  0
   21.7434   70.2022   -2.8286 O   0  0  0  0  0  0  0  0  0  0  0  0
   21.2351   71.1235   -3.7759 C   0  0  0  0  0  0  0  0  0  0  0  0
   19.1400   71.9231   -4.6413 O   0  0  0  0  0  0  0  0  0  0  0  0
   17.8692   70.6079   -2.2650 O   0  0  0  0  0  0  0  0  0  0  0  0
   17.3898   68.8168   -4.2646 O   0  0  0  0  0  0  0  0  0  0  0  0
   18.9884   70.1819   -3.0425 C   0  0  1  0  0  0  0  0  0  0  0  0
   18.5241   69.6500   -4.3819 C   0  0  2  0  0  0  0  0  0  0  0  0
   19.7775   71.4195   -3.4474 C   0  0  1  0  0  0  0  0  0  0  0  0
   18.2326   70.9304   -5.1458 C   0  0  2  0  0  0  0  0  0  0  0  0
   17.3497   69.8342   -1.9946 H   0  0  0  0  0  0  0  0  0  0  0  0
   17.6270   68.0155   -3.7711 H   0  0  0  0  0  0  0  0  0  0  0  0
   16.2991   69.9297   -6.9448 O   0  0  0  0  0  0  0  0  0  0  0  0
   19.1339   70.4142  -10.5466 O   0  0  0  0  0  0  0  0  0  0  0  0
   18.4390   70.7844   -6.5590 N   0  0  0  0  0  0  0  0  0  0  0  0
   17.7132   70.1710   -8.7368 N   0  0  0  0  0  0  0  0  0  0  0  0
   17.4026   70.2713   -7.3743 C   0  0  0  0  0  0  0  0  0  0  0  0
   19.6552   71.1488   -7.1236 C   0  0  0  0  0  0  0  0  0  0  0  0
   19.9364   71.0475   -8.4242 C   0  0  0  0  0  0  0  0  0  0  0  0
   18.9082   70.5199   -9.3449 C   0  0  0  0  0  0  0  0  0  0  0  0
   17.0080   69.8145   -9.3242 H   0  0  0  0  0  0  0  0  0  0  0  0
   23.1029   71.2481   -0.9673 O   0  0  0  0  0  0  0  0  0  0  0  0
   22.8144   70.7937    0.5572 P   0  0  2  0  0  0  0  0  0  0  0  0
   24.1659   70.0041    0.9698 O   0  0  0  0  0  0  0  0  0  0  0  0
   21.5542   69.9972    0.7343 O   0  0  0  0  0  0  0  0  0  0  0  0
   22.8666   72.1627    1.4091 O   0  0  0  0  0  0  0  0  0  0  0  0
   24.1912   72.7872    3.2703 O   0  0  0  0  0  0  0  0  0  0  0  0
   20.6508   74.7662    4.0562 O   0  0  0  0  0  0  0  0  0  0  0  0
   20.6225   72.0250    3.0466 O   0  0  0  0  0  0  0  0  0  0  0  0
   22.9561   76.2363    3.0685 O   0  0  0  0  0  0  0  0  0  0  0  0
   21.6746   74.2029    3.2361 C   0  0  2  0  0  0  0  0  0  0  0  0
   21.7838   72.7030    3.5118 C   0  0  2  0  0  0  0  0  0  0  0  0
   22.9919   74.9037    3.5760 C   0  0  1  0  0  0  0  0  0  0  0  0
   23.0153   72.1091    2.8267 C   0  0  1  0  0  0  0  0  0  0  0  0
   24.1842   74.1786    2.9586 C   0  0  1  0  0  0  0  0  0  0  0  0
   19.8041   74.3361    3.8578 H   0  0  0  0  0  0  0  0  0  0  0  0
   19.8372   72.3970    3.4770 H   0  0  0  0  0  0  0  0  0  0  0  0
   22.2015   76.7087    3.4536 H   0  0  0  0  0  0  0  0  0  0  0  0
   26.3207   73.6289    3.7553 O   0  0  0  0  0  0  0  0  0  0  0  0
   25.7184   75.8270    3.8247 O   0  0  0  0  0  0  0  0  0  0  0  0
   25.4660   74.6624    3.5546 C   0  0  0  0  0  0  0  0  0  0  0  0
  1  4  1  0
  1 24  1  0
  1  2  1  6
  1  3  2  0
 25 28  1  0
 25 24  1  0
 25 26  1  1
 25 27  2  0
  6 11  1  0
  6 12  1  0
 29 36  1  0
 29 37  1  0
  9  7  1  1
  7 13  1  0
 10  8  1  1
  8 14  1  0
  4  5  1  0
 36 28  1  6
 33 30  1  1
 30 38  1  0
 34 31  1  6
 31 39  1  0
 35 32  1  6
 32 40  1  0
 41 43  1  0
 15 19  2  0
 42 43  2  0
 16 22  2  0
 12 17  1  6
 17 19  1  0
 17 20  1  0
 18 19  1  0
 18 22  1  0
 18 23  1  0
  9 10  1  0
  9 11  1  0
 10 12  1  0
 11  5  1  6
 33 34  1  0
 33 35  1  0
 34 36  1  0
 35 37  1  0
 37 43  1  1
 20 21  2  0
 21 22  1  0
M  CHG  3   2  -1  26  -1  41  -1
M  END
>  <COMPND>  (184) 
    udp_gluA.pdb 

>  <AUTHOR>  (184) 
    GENERATED BY OPEN BABEL 3.1.1

>  <MASTER>  (184) 
        0    0    0    0    0    0    0    0   56    0   56    0

>  <minimizedAffinity>  (184) 
-7.60228

>  <CNNscore>  (184) 
0.8029927015

>  <CNNaffinity>  (184) 
4.6066713333

>  <CNN_VS>  (184) 
3.6991233826

>  <CNNaffinity_variance>  (184) 
0.0671334565

$$$$
185
     RDKit          3D

 43 45  0  0  0  0  0  0  0  0999 V2000
   23.0096   71.7402   -2.5591 P   0  0  2  0  0  0  0  0  0  0  0  0
   23.0831   73.2852   -2.0833 O   0  0  0  0  0  0  0  0  0  0  0  0
   24.2390   71.2318   -3.2532 O   0  0  0  0  0  0  0  0  0  0  0  0
   21.6374   71.6615   -3.4129 O   0  0  0  0  0  0  0  0  0  0  0  0
   21.0328   72.8705   -3.8339 C   0  0  0  0  0  0  0  0  0  0  0  0
   20.7616   71.8163   -5.9770 O   0  0  0  0  0  0  0  0  0  0  0  0
   21.0321   74.5611   -7.1536 O   0  0  0  0  0  0  0  0  0  0  0  0
   18.3373   74.1483   -7.2174 O   0  0  0  0  0  0  0  0  0  0  0  0
   20.4041   74.1575   -5.9365 C   0  0  1  0  0  0  0  0  0  0  0  0
   19.0860   73.4723   -6.2289 C   0  0  2  0  0  0  0  0  0  0  0  0
   21.2260   73.0246   -5.3370 C   0  0  1  0  0  0  0  0  0  0  0  0
   19.5401   72.0944   -6.6797 C   0  0  2  0  0  0  0  0  0  0  0  0
   20.5247   75.2842   -7.5552 H   0  0  0  0  0  0  0  0  0  0  0  0
   18.0717   75.0195   -6.8823 H   0  0  0  0  0  0  0  0  0  0  0  0
   17.5182   71.2176   -8.4460 O   0  0  0  0  0  0  0  0  0  0  0  0
   15.9130   68.1679   -5.3855 O   0  0  0  0  0  0  0  0  0  0  0  0
   18.5803   71.0727   -6.3701 N   0  0  0  0  0  0  0  0  0  0  0  0
   16.7200   69.7002   -6.9196 N   0  0  0  0  0  0  0  0  0  0  0  0
   17.6055   70.7063   -7.3280 C   0  0  0  0  0  0  0  0  0  0  0  0
   18.6115   70.4443   -5.1310 C   0  0  0  0  0  0  0  0  0  0  0  0
   17.7608   69.4869   -4.7562 C   0  0  0  0  0  0  0  0  0  0  0  0
   16.7110   69.0463   -5.6982 C   0  0  0  0  0  0  0  0  0  0  0  0
   16.0311   69.4297   -7.5689 H   0  0  0  0  0  0  0  0  0  0  0  0
   22.6342   70.9580   -1.1952 O   0  0  0  0  0  0  0  0  0  0  0  0
   21.3053   71.0053   -0.2758 P   0  0  2  0  0  0  0  0  0  0  0  0
   21.6391   69.9563    0.9110 O   0  0  0  0  0  0  0  0  0  0  0  0
   20.0327   70.7155   -1.0176 O   0  0  0  0  0  0  0  0  0  0  0  0
   21.3510   72.4527    0.4353 O   0  0  0  0  0  0  0  0  0  0  0  0
   23.2036   73.7064    1.2132 O   0  0  0  0  0  0  0  0  0  0  0  0
   20.2570   74.8120    3.8896 O   0  0  0  0  0  0  0  0  0  0  0  0
   20.5331   72.0248    3.0591 O   0  0  0  0  0  0  0  0  0  0  0  0
   21.0640   76.6340    1.7731 O   0  0  0  0  0  0  0  0  0  0  0  0
   20.7839   74.3992    2.6286 C   0  0  2  0  0  0  0  0  0  0  0  0
   21.4826   73.0481    2.7835 C   0  0  2  0  0  0  0  0  0  0  0  0
   21.7798   75.4630    2.1612 C   0  0  1  0  0  0  0  0  0  0  0  0
   22.2545   72.6828    1.5148 C   0  0  1  0  0  0  0  0  0  0  0  0
   22.5985   74.9744    0.9698 C   0  0  1  0  0  0  0  0  0  0  0  0
   19.6214   74.1510    4.2066 H   0  0  0  0  0  0  0  0  0  0  0  0
   20.0395   72.2502    3.8627 H   0  0  0  0  0  0  0  0  0  0  0  0
   20.5387   76.9552    2.5225 H   0  0  0  0  0  0  0  0  0  0  0  0
   24.9218   75.1465    0.6976 O   0  0  0  0  0  0  0  0  0  0  0  0
   23.7154   77.0780    0.5844 O   0  0  0  0  0  0  0  0  0  0  0  0
   23.7731   75.8665    0.7317 C   0  0  0  0  0  0  0  0  0  0  0  0
  1  4  1  0
  1 24  1  0
  1  2  1  1
  1  3  2  0
 25 28  1  0
 25 24  1  0
 25 26  1  1
 25 27  2  0
  6 11  1  0
  6 12  1  0
 29 36  1  0
 29 37  1  0
  9  7  1  6
  7 13  1  0
 10  8  1  6
  8 14  1  0
  4  5  1  0
 36 28  1  6
 33 30  1  1
 30 38  1  0
 34 31  1  6
 31 39  1  0
 35 32  1  6
 32 40  1  0
 41 43  1  0
 15 19  2  0
 42 43  2  0
 16 22  2  0
 12 17  1  1
 17 19  1  0
 17 20  1  0
 18 19  1  0
 18 22  1  0
 18 23  1  0
  9 10  1  0
  9 11  1  0
 10 12  1  0
 11  5  1  1
 33 34  1  0
 33 35  1  0
 34 36  1  0
 35 37  1  0
 37 43  1  1
 20 21  2  0
 21 22  1  0
M  CHG  3   2  -1  26  -1  41  -1
M  END
>  <COMPND>  (185) 
    udp_gluA.pdb 

>  <AUTHOR>  (185) 
    GENERATED BY OPEN BABEL 3.1.1

>  <MASTER>  (185) 
        0    0    0    0    0    0    0    0   56    0   56    0

>  <minimizedAffinity>  (185) 
-6.48970

>  <CNNscore>  (185) 
0.7519496679

>  <CNNaffinity>  (185) 
4.3315410614

>  <CNN_VS>  (185) 
3.2571008205

>  <CNNaffinity_variance>  (185) 
0.0803950578

$$$$
186
     RDKit          3D

 43 45  0  0  0  0  0  0  0  0999 V2000
   23.0655   72.9662   -4.5388 P   0  0  2  0  0  0  0  0  0  0  0  0
   23.6245   74.4726   -4.3458 O   0  0  0  0  0  0  0  0  0  0  0  0
   23.1108   72.4492   -5.9468 O   0  0  0  0  0  0  0  0  0  0  0  0
   21.6014   73.0040   -3.8510 O   0  0  0  0  0  0  0  0  0  0  0  0
   20.5255   73.5638   -4.5814 C   0  0  0  0  0  0  0  0  0  0  0  0
   18.3551   72.7355   -5.1985 O   0  0  0  0  0  0  0  0  0  0  0  0
   18.2859   71.4404   -2.4950 O   0  0  0  0  0  0  0  0  0  0  0  0
   18.9445   69.3630   -4.1341 O   0  0  0  0  0  0  0  0  0  0  0  0
   19.3917   71.6303   -3.3779 C   0  0  1  0  0  0  0  0  0  0  0  0
   19.3043   70.6663   -4.5422 C   0  0  2  0  0  0  0  0  0  0  0  0
   19.2176   72.9773   -4.0659 C   0  0  1  0  0  0  0  0  0  0  0  0
   18.2452   71.3195   -5.4137 C   0  0  2  0  0  0  0  0  0  0  0  0
   18.3750   70.5859   -2.0437 H   0  0  0  0  0  0  0  0  0  0  0  0
   19.6508   68.9904   -3.5824 H   0  0  0  0  0  0  0  0  0  0  0  0
   16.2660   70.2345   -7.1112 O   0  0  0  0  0  0  0  0  0  0  0  0
   19.0925   70.3003  -10.7514 O   0  0  0  0  0  0  0  0  0  0  0  0
   18.4371   71.0430   -6.8092 N   0  0  0  0  0  0  0  0  0  0  0  0
   17.6759   70.2673   -8.9224 N   0  0  0  0  0  0  0  0  0  0  0  0
   17.3780   70.4977   -7.5728 C   0  0  0  0  0  0  0  0  0  0  0  0
   19.6617   71.3130   -7.4079 C   0  0  0  0  0  0  0  0  0  0  0  0
   19.9307   71.0882   -8.6955 C   0  0  0  0  0  0  0  0  0  0  0  0
   18.8785   70.5188   -9.5628 C   0  0  0  0  0  0  0  0  0  0  0  0
   16.9548   69.8861   -9.4737 H   0  0  0  0  0  0  0  0  0  0  0  0
   23.9423   72.1153   -3.4805 O   0  0  0  0  0  0  0  0  0  0  0  0
   23.5592   70.8340   -2.5722 P   0  0  2  0  0  0  0  0  0  0  0  0
   24.9028   69.9324   -2.6191 O   0  0  0  0  0  0  0  0  0  0  0  0
   22.3168   70.1158   -3.0133 O   0  0  0  0  0  0  0  0  0  0  0  0
   23.5035   71.4035   -1.0639 O   0  0  0  0  0  0  0  0  0  0  0  0
   24.6376   70.7209    0.9001 O   0  0  0  0  0  0  0  0  0  0  0  0
   20.9976   71.9531    2.4166 O   0  0  0  0  0  0  0  0  0  0  0  0
   21.1221   70.3880   -0.0470 O   0  0  0  0  0  0  0  0  0  0  0  0
   23.3511   73.6312    2.7270 O   0  0  0  0  0  0  0  0  0  0  0  0
   22.1044   71.9632    1.5150 C   0  0  2  0  0  0  0  0  0  0  0  0
   22.2206   70.6002    0.8322 C   0  0  2  0  0  0  0  0  0  0  0  0
   23.3693   72.2635    2.3224 C   0  0  1  0  0  0  0  0  0  0  0  0
   23.5226   70.4961    0.0366 C   0  0  1  0  0  0  0  0  0  0  0  0
   24.6288   72.0156    1.4974 C   0  0  1  0  0  0  0  0  0  0  0  0
   20.1823   71.7642    1.9258 H   0  0  0  0  0  0  0  0  0  0  0  0
   20.2926   70.4530    0.4511 H   0  0  0  0  0  0  0  0  0  0  0  0
   22.5542   73.8022    3.2528 H   0  0  0  0  0  0  0  0  0  0  0  0
   26.4753   70.7958    2.2746 O   0  0  0  0  0  0  0  0  0  0  0  0
   26.2138   72.9129    3.0798 O   0  0  0  0  0  0  0  0  0  0  0  0
   25.8395   71.9896    2.3725 C   0  0  0  0  0  0  0  0  0  0  0  0
  1  4  1  0
  1 24  1  0
  1  2  1  6
  1  3  2  0
 25 28  1  0
 25 24  1  0
 25 26  1  1
 25 27  2  0
  6 11  1  0
  6 12  1  0
 29 36  1  0
 29 37  1  0
  9  7  1  1
  7 13  1  0
 10  8  1  1
  8 14  1  0
  4  5  1  0
 36 28  1  6
 33 30  1  1
 30 38  1  0
 34 31  1  6
 31 39  1  0
 35 32  1  6
 32 40  1  0
 41 43  1  0
 15 19  2  0
 42 43  2  0
 16 22  2  0
 12 17  1  6
 17 19  1  0
 17 20  1  0
 18 19  1  0
 18 22  1  0
 18 23  1  0
  9 10  1  0
  9 11  1  0
 10 12  1  0
 11  5  1  6
 33 34  1  0
 33 35  1  0
 34 36  1  0
 35 37  1  0
 37 43  1  1
 20 21  2  0
 21 22  1  0
M  CHG  3   2  -1  26  -1  41  -1
M  END
>  <COMPND>  (186) 
    udp_gluA.pdb 

>  <AUTHOR>  (186) 
    GENERATED BY OPEN BABEL 3.1.1

>  <MASTER>  (186) 
        0    0    0    0    0    0    0    0   56    0   56    0

>  <minimizedAffinity>  (186) 
-7.99622

>  <CNNscore>  (186) 
0.7096399069

>  <CNNaffinity>  (186) 
4.4828858376

>  <CNN_VS>  (186) 
3.1812345982

>  <CNNaffinity_variance>  (186) 
0.0750834793

$$$$
187
     RDKit          3D

 43 45  0  0  0  0  0  0  0  0999 V2000
   21.3223   73.1819   -3.7323 P   0  0  2  0  0  0  0  0  0  0  0  0
   21.6357   74.2673   -4.8909 O   0  0  0  0  0  0  0  0  0  0  0  0
   22.1576   71.9365   -3.7881 O   0  0  0  0  0  0  0  0  0  0  0  0
   19.7226   72.9599   -3.8303 O   0  0  0  0  0  0  0  0  0  0  0  0
   19.1776   71.7457   -3.3473 C   0  0  0  0  0  0  0  0  0  0  0  0
   17.3571   72.1957   -4.8509 O   0  0  0  0  0  0  0  0  0  0  0  0
   15.6417   70.6451   -2.9418 O   0  0  0  0  0  0  0  0  0  0  0  0
   16.1153   68.8332   -4.9239 O   0  0  0  0  0  0  0  0  0  0  0  0
   17.0022   70.4269   -3.3159 C   0  0  1  0  0  0  0  0  0  0  0  0
   17.0752   69.8473   -4.7127 C   0  0  2  0  0  0  0  0  0  0  0  0
   17.6626   71.7864   -3.5002 C   0  0  1  0  0  0  0  0  0  0  0  0
   16.8304   71.0732   -5.5760 C   0  0  2  0  0  0  0  0  0  0  0  0
   15.1990   69.7905   -2.8184 H   0  0  0  0  0  0  0  0  0  0  0  0
   16.3149   68.0749   -4.3519 H   0  0  0  0  0  0  0  0  0  0  0  0
   15.6356   70.0631   -7.9273 O   0  0  0  0  0  0  0  0  0  0  0  0
   19.4555   70.7940  -10.4007 O   0  0  0  0  0  0  0  0  0  0  0  0
   17.4899   70.9880   -6.8482 N   0  0  0  0  0  0  0  0  0  0  0  0
   17.5396   70.4272   -9.1568 N   0  0  0  0  0  0  0  0  0  0  0  0
   16.8002   70.4644   -7.9672 C   0  0  0  0  0  0  0  0  0  0  0  0
   18.8037   71.4216   -6.9788 C   0  0  0  0  0  0  0  0  0  0  0  0
   19.4953   71.3799   -8.1193 C   0  0  0  0  0  0  0  0  0  0  0  0
   18.8481   70.8460   -9.3356 C   0  0  0  0  0  0  0  0  0  0  0  0
   17.0812   70.0647   -9.9491 H   0  0  0  0  0  0  0  0  0  0  0  0
   21.4871   74.0429   -2.3742 O   0  0  0  0  0  0  0  0  0  0  0  0
   22.8083   74.5333   -1.5821 P   0  0  2  0  0  0  0  0  0  0  0  0
   22.4339   76.0442   -1.1380 O   0  0  0  0  0  0  0  0  0  0  0  0
   24.0789   74.4183   -2.3735 O   0  0  0  0  0  0  0  0  0  0  0  0
   22.7975   73.6902   -0.2068 O   0  0  0  0  0  0  0  0  0  0  0  0
   23.3213   71.4203    0.2202 O   0  0  0  0  0  0  0  0  0  0  0  0
   20.3345   72.1283    2.9853 O   0  0  0  0  0  0  0  0  0  0  0  0
   20.1073   73.1624    0.2625 O   0  0  0  0  0  0  0  0  0  0  0  0
   23.1100   71.9895    3.8387 O   0  0  0  0  0  0  0  0  0  0  0  0
   21.4494   72.4599    2.1576 C   0  0  2  0  0  0  0  0  0  0  0  0
   21.0865   72.2233    0.6914 C   0  0  2  0  0  0  0  0  0  0  0  0
   22.6236   71.5675    2.5660 C   0  0  1  0  0  0  0  0  0  0  0  0
   22.3201   72.3460   -0.2042 C   0  0  1  0  0  0  0  0  0  0  0  0
   23.7642   71.6506    1.5558 C   0  0  1  0  0  0  0  0  0  0  0  0
   19.5761   72.6831    2.7439 H   0  0  0  0  0  0  0  0  0  0  0  0
   19.3218   73.0903    0.8267 H   0  0  0  0  0  0  0  0  0  0  0  0
   22.3936   71.9414    4.4908 H   0  0  0  0  0  0  0  0  0  0  0  0
   25.5414   70.3900    0.6874 O   0  0  0  0  0  0  0  0  0  0  0  0
   24.8391   69.8823    2.7964 O   0  0  0  0  0  0  0  0  0  0  0  0
   24.7499   70.5498    1.7769 C   0  0  0  0  0  0  0  0  0  0  0  0
  1  4  1  0
  1 24  1  0
  1  2  1  6
  1  3  2  0
 25 28  1  0
 25 24  1  0
 25 26  1  1
 25 27  2  0
  6 11  1  0
  6 12  1  0
 29 36  1  0
 29 37  1  0
  9  7  1  6
  7 13  1  0
 10  8  1  1
  8 14  1  0
  4  5  1  0
 36 28  1  1
 33 30  1  1
 30 38  1  0
 34 31  1  6
 31 39  1  0
 35 32  1  1
 32 40  1  0
 41 43  1  0
 15 19  2  0
 42 43  2  0
 16 22  2  0
 12 17  1  6
 17 19  1  0
 17 20  1  0
 18 19  1  0
 18 22  1  0
 18 23  1  0
  9 10  1  0
  9 11  1  0
 10 12  1  0
 11  5  1  6
 33 34  1  0
 33 35  1  0
 34 36  1  0
 35 37  1  0
 37 43  1  1
 20 21  2  0
 21 22  1  0
M  CHG  3   2  -1  26  -1  41  -1
M  END
>  <COMPND>  (187) 
    udp_gluA.pdb 

>  <AUTHOR>  (187) 
    GENERATED BY OPEN BABEL 3.1.1

>  <MASTER>  (187) 
        0    0    0    0    0    0    0    0   56    0   56    0

>  <minimizedAffinity>  (187) 
-7.07547

>  <CNNscore>  (187) 
0.6451726556

>  <CNNaffinity>  (187) 
4.2789993286

>  <CNN_VS>  (187) 
2.7606933117

>  <CNNaffinity_variance>  (187) 
0.0625397712

$$$$
188
     RDKit          3D

 43 45  0  0  0  0  0  0  0  0999 V2000
   23.3638   70.3223   -2.3391 P   0  0  2  0  0  0  0  0  0  0  0  0
   23.9638   71.4456   -3.3378 O   0  0  0  0  0  0  0  0  0  0  0  0
   24.1525   69.0475   -2.2725 O   0  0  0  0  0  0  0  0  0  0  0  0
   21.8220   70.1711   -2.8060 O   0  0  0  0  0  0  0  0  0  0  0  0
   21.3030   71.1028   -3.7372 C   0  0  0  0  0  0  0  0  0  0  0  0
   19.1962   71.9008   -4.5751 O   0  0  0  0  0  0  0  0  0  0  0  0
   17.9552   70.5667   -2.1936 O   0  0  0  0  0  0  0  0  0  0  0  0
   17.4602   68.7865   -4.1990 O   0  0  0  0  0  0  0  0  0  0  0  0
   19.0673   70.1493   -2.9857 C   0  0  1  0  0  0  0  0  0  0  0  0
   18.5904   69.6241   -4.3233 C   0  0  2  0  0  0  0  0  0  0  0  0
   19.8480   71.3919   -3.3913 C   0  0  1  0  0  0  0  0  0  0  0  0
   18.2867   70.9082   -5.0761 C   0  0  2  0  0  0  0  0  0  0  0  0
   17.4410   69.7897   -1.9225 H   0  0  0  0  0  0  0  0  0  0  0  0
   17.7052   67.9829   -3.7130 H   0  0  0  0  0  0  0  0  0  0  0  0
   16.3389   69.9077   -6.8598 O   0  0  0  0  0  0  0  0  0  0  0  0
   19.1316   70.4285  -10.4894 O   0  0  0  0  0  0  0  0  0  0  0  0
   18.4783   70.7716   -6.4922 N   0  0  0  0  0  0  0  0  0  0  0  0
   17.7320   70.1671   -8.6657 N   0  0  0  0  0  0  0  0  0  0  0  0
   17.4358   70.2578   -7.2993 C   0  0  0  0  0  0  0  0  0  0  0  0
   19.6864   71.1459   -7.0679 C   0  0  0  0  0  0  0  0  0  0  0  0
   19.9539   71.0537   -8.3721 C   0  0  0  0  0  0  0  0  0  0  0  0
   18.9185   70.5260   -9.2846 C   0  0  0  0  0  0  0  0  0  0  0  0
   17.0224   69.8103   -9.2474 H   0  0  0  0  0  0  0  0  0  0  0  0
   23.2423   71.1131   -0.9346 O   0  0  0  0  0  0  0  0  0  0  0  0
   23.0286   70.5713    0.5735 P   0  0  2  0  0  0  0  0  0  0  0  0
   24.3270   69.6362    0.8180 O   0  0  0  0  0  0  0  0  0  0  0  0
   21.7160   69.8781    0.7986 O   0  0  0  0  0  0  0  0  0  0  0  0
   23.2737   71.8615    1.5105 O   0  0  0  0  0  0  0  0  0  0  0  0
   23.4906   74.1171    0.8219 O   0  0  0  0  0  0  0  0  0  0  0  0
   25.7324   74.0781    4.2919 O   0  0  0  0  0  0  0  0  0  0  0  0
   25.9133   71.8705    2.3871 O   0  0  0  0  0  0  0  0  0  0  0  0
   23.0832   75.2749    4.2796 O   0  0  0  0  0  0  0  0  0  0  0  0
   24.6737   73.6823    3.4199 C   0  0  2  0  0  0  0  0  0  0  0  0
   25.2605   73.1084    2.1301 C   0  0  2  0  0  0  0  0  0  0  0  0
   23.8252   74.9188    3.1147 C   0  0  1  0  0  0  0  0  0  0  0  0
   24.1680   72.8872    1.0830 C   0  0  1  0  0  0  0  0  0  0  0  0
   22.8460   74.6548    1.9745 C   0  0  1  0  0  0  0  0  0  0  0  0
   26.2852   73.3084    4.4998 H   0  0  0  0  0  0  0  0  0  0  0  0
   26.6076   72.0033    3.0509 H   0  0  0  0  0  0  0  0  0  0  0  0
   23.6948   75.4454    5.0129 H   0  0  0  0  0  0  0  0  0  0  0  0
   21.2531   76.3512    2.2685 O   0  0  0  0  0  0  0  0  0  0  0  0
   22.6443   76.5310    0.4709 O   0  0  0  0  0  0  0  0  0  0  0  0
   22.2648   75.9344    1.4674 C   0  0  0  0  0  0  0  0  0  0  0  0
  1  4  1  0
  1 24  1  0
  1  2  1  6
  1  3  2  0
 25 28  1  0
 25 24  1  0
 25 26  1  1
 25 27  2  0
  6 11  1  0
  6 12  1  0
 29 36  1  0
 29 37  1  0
  9  7  1  1
  7 13  1  0
 10  8  1  1
  8 14  1  0
  4  5  1  0
 36 28  1  1
 33 30  1  1
 30 38  1  0
 34 31  1  1
 31 39  1  0
 35 32  1  1
 32 40  1  0
 41 43  1  0
 15 19  2  0
 42 43  2  0
 16 22  2  0
 12 17  1  6
 17 19  1  0
 17 20  1  0
 18 19  1  0
 18 22  1  0
 18 23  1  0
  9 10  1  0
  9 11  1  0
 10 12  1  0
 11  5  1  6
 33 34  1  0
 33 35  1  0
 34 36  1  0
 35 37  1  0
 37 43  1  6
 20 21  2  0
 21 22  1  0
M  CHG  3   2  -1  26  -1  41  -1
M  END
>  <COMPND>  (188) 
    udp_gluA.pdb 

>  <AUTHOR>  (188) 
    GENERATED BY OPEN BABEL 3.1.1

>  <MASTER>  (188) 
        0    0    0    0    0    0    0    0   56    0   56    0

>  <minimizedAffinity>  (188) 
-7.25091

>  <CNNscore>  (188) 
0.6421912313

>  <CNNaffinity>  (188) 
4.4477667809

>  <CNN_VS>  (188) 
2.8563168049

>  <CNNaffinity_variance>  (188) 
0.0355605297

$$$$
189
     RDKit          3D

 43 45  0  0  0  0  0  0  0  0999 V2000
   21.1092   74.0271   -4.4441 P   0  0  2  0  0  0  0  0  0  0  0  0
   21.4200   75.5945   -4.7002 O   0  0  0  0  0  0  0  0  0  0  0  0
   21.2951   73.1407   -5.6406 O   0  0  0  0  0  0  0  0  0  0  0  0
   19.6284   74.0261   -3.7922 O   0  0  0  0  0  0  0  0  0  0  0  0
   18.5086   73.9930   -4.6578 C   0  0  0  0  0  0  0  0  0  0  0  0
   17.0053   72.2685   -5.3954 O   0  0  0  0  0  0  0  0  0  0  0  0
   17.3151   71.0859   -2.6573 O   0  0  0  0  0  0  0  0  0  0  0  0
   18.9711   69.5330   -4.1680 O   0  0  0  0  0  0  0  0  0  0  0  0
   18.2814   71.7566   -3.4666 C   0  0  1  0  0  0  0  0  0  0  0  0
   18.7330   70.8571   -4.5976 C   0  0  2  0  0  0  0  0  0  0  0  0
   17.5716   72.8769   -4.2144 C   0  0  1  0  0  0  0  0  0  0  0  0
   17.5660   70.9570   -5.5652 C   0  0  2  0  0  0  0  0  0  0  0  0
   17.7452   70.3655   -2.1697 H   0  0  0  0  0  0  0  0  0  0  0  0
   19.7230   69.5224   -3.5544 H   0  0  0  0  0  0  0  0  0  0  0  0
   15.8287   70.2343   -7.6713 O   0  0  0  0  0  0  0  0  0  0  0  0
   19.2359   70.3702  -10.7724 O   0  0  0  0  0  0  0  0  0  0  0  0
   17.9727   70.7966   -6.9326 N   0  0  0  0  0  0  0  0  0  0  0  0
   17.5275   70.3017   -9.2136 N   0  0  0  0  0  0  0  0  0  0  0  0
   17.0209   70.4310   -7.9137 C   0  0  0  0  0  0  0  0  0  0  0  0
   19.2996   71.0021   -7.2902 C   0  0  0  0  0  0  0  0  0  0  0  0
   19.7675   70.8751   -8.5335 C   0  0  0  0  0  0  0  0  0  0  0  0
   18.8385   70.4950   -9.6179 C   0  0  0  0  0  0  0  0  0  0  0  0
   16.8841   70.0459   -9.9136 H   0  0  0  0  0  0  0  0  0  0  0  0
   22.0601   73.6693   -3.1869 O   0  0  0  0  0  0  0  0  0  0  0  0
   23.6504   73.3909   -3.1042 P   0  0  2  0  0  0  0  0  0  0  0  0
   24.2090   74.6747   -2.2918 O   0  0  0  0  0  0  0  0  0  0  0  0
   24.3067   73.1684   -4.4360 O   0  0  0  0  0  0  0  0  0  0  0  0
   23.7973   72.1602   -2.0716 O   0  0  0  0  0  0  0  0  0  0  0  0
   24.0507   69.8359   -2.4492 O   0  0  0  0  0  0  0  0  0  0  0  0
   21.8163   69.8844    1.0254 O   0  0  0  0  0  0  0  0  0  0  0  0
   21.2070   71.7332   -1.1529 O   0  0  0  0  0  0  0  0  0  0  0  0
   24.6538   69.2598    1.1238 O   0  0  0  0  0  0  0  0  0  0  0  0
   22.7802   70.3662    0.0891 C   0  0  2  0  0  0  0  0  0  0  0  0
   22.1006   70.6305   -1.2547 C   0  0  2  0  0  0  0  0  0  0  0  0
   23.8655   69.2982   -0.0643 C   0  0  1  0  0  0  0  0  0  0  0  0
   23.1347   70.9263   -2.3419 C   0  0  1  0  0  0  0  0  0  0  0  0
   24.7808   69.6000   -1.2474 C   0  0  1  0  0  0  0  0  0  0  0  0
   21.1165   70.5466    1.1391 H   0  0  0  0  0  0  0  0  0  0  0  0
   20.5483   71.5524   -0.4646 H   0  0  0  0  0  0  0  0  0  0  0  0
   24.0831   69.0687    1.8845 H   0  0  0  0  0  0  0  0  0  0  0  0
   26.2729   68.6055   -2.7594 O   0  0  0  0  0  0  0  0  0  0  0  0
   25.7004   67.3944   -0.9142 O   0  0  0  0  0  0  0  0  0  0  0  0
   25.6150   68.4088   -1.5900 C   0  0  0  0  0  0  0  0  0  0  0  0
  1  4  1  0
  1 24  1  0
  1  2  1  6
  1  3  2  0
 25 28  1  0
 25 24  1  0
 25 26  1  1
 25 27  2  0
  6 11  1  0
  6 12  1  0
 29 36  1  0
 29 37  1  0
  9  7  1  1
  7 13  1  0
 10  8  1  1
  8 14  1  0
  4  5  1  0
 36 28  1  1
 33 30  1  1
 30 38  1  0
 34 31  1  1
 31 39  1  0
 35 32  1  1
 32 40  1  0
 41 43  1  0
 15 19  2  0
 42 43  2  0
 16 22  2  0
 12 17  1  6
 17 19  1  0
 17 20  1  0
 18 19  1  0
 18 22  1  0
 18 23  1  0
  9 10  1  0
  9 11  1  0
 10 12  1  0
 11  5  1  6
 33 34  1  0
 33 35  1  0
 34 36  1  0
 35 37  1  0
 37 43  1  6
 20 21  2  0
 21 22  1  0
M  CHG  3   2  -1  26  -1  41  -1
M  END
>  <COMPND>  (189) 
    udp_gluA.pdb 

>  <AUTHOR>  (189) 
    GENERATED BY OPEN BABEL 3.1.1

>  <MASTER>  (189) 
        0    0    0    0    0    0    0    0   56    0   56    0

>  <minimizedAffinity>  (189) 
-8.33206

>  <CNNscore>  (189) 
0.6036214232

>  <CNNaffinity>  (189) 
4.5323386192

>  <CNN_VS>  (189) 
2.7358167171

>  <CNNaffinity_variance>  (189) 
0.0595788732

$$$$
190
     RDKit          3D

 43 45  0  0  0  0  0  0  0  0999 V2000
   23.0107   71.8808   -2.6559 P   0  0  2  0  0  0  0  0  0  0  0  0
   23.1507   73.4316   -2.2149 O   0  0  0  0  0  0  0  0  0  0  0  0
   24.2287   71.2952   -3.3080 O   0  0  0  0  0  0  0  0  0  0  0  0
   21.6563   71.8492   -3.5405 O   0  0  0  0  0  0  0  0  0  0  0  0
   21.5457   72.7349   -4.6396 C   0  0  0  0  0  0  0  0  0  0  0  0
   20.7692   70.7102   -5.6766 O   0  0  0  0  0  0  0  0  0  0  0  0
   21.2547   72.0860   -8.2964 O   0  0  0  0  0  0  0  0  0  0  0  0
   18.5552   72.3214   -7.9910 O   0  0  0  0  0  0  0  0  0  0  0  0
   20.7817   72.6301   -7.0640 C   0  0  1  0  0  0  0  0  0  0  0  0
   19.3452   72.2158   -6.8251 C   0  0  2  0  0  0  0  0  0  0  0  0
   21.5100   71.9239   -5.9286 C   0  0  1  0  0  0  0  0  0  0  0  0
   19.5051   70.7800   -6.3551 C   0  0  2  0  0  0  0  0  0  0  0  0
   20.8036   72.5217   -9.0369 H   0  0  0  0  0  0  0  0  0  0  0  0
   18.4833   73.2542   -8.2494 H   0  0  0  0  0  0  0  0  0  0  0  0
   16.9886   69.7780   -7.1550 O   0  0  0  0  0  0  0  0  0  0  0  0
   15.5947   69.2817   -2.7898 O   0  0  0  0  0  0  0  0  0  0  0  0
   18.4659   70.3813   -5.4485 N   0  0  0  0  0  0  0  0  0  0  0  0
   16.2964   69.5327   -4.9801 N   0  0  0  0  0  0  0  0  0  0  0  0
   17.2383   69.8913   -5.9534 C   0  0  0  0  0  0  0  0  0  0  0  0
   18.6681   70.4757   -4.0770 C   0  0  0  0  0  0  0  0  0  0  0  0
   17.7609   70.1300   -3.1615 C   0  0  0  0  0  0  0  0  0  0  0  0
   16.4512   69.6093   -3.6054 C   0  0  0  0  0  0  0  0  0  0  0  0
   15.4331   69.1908   -5.3075 H   0  0  0  0  0  0  0  0  0  0  0  0
   22.5654   71.1521   -1.2835 O   0  0  0  0  0  0  0  0  0  0  0  0
   21.5466   71.6164   -0.1173 P   0  0  2  0  0  0  0  0  0  0  0  0
   21.1153   70.2183    0.5753 O   0  0  0  0  0  0  0  0  0  0  0  0
   20.3943   72.4480   -0.6015 O   0  0  0  0  0  0  0  0  0  0  0  0
   22.4821   72.3421    0.9784 O   0  0  0  0  0  0  0  0  0  0  0  0
   24.3051   71.6898    2.3425 O   0  0  0  0  0  0  0  0  0  0  0  0
   22.0864   73.9995    4.9523 O   0  0  0  0  0  0  0  0  0  0  0  0
   20.7656   72.1128    3.1549 O   0  0  0  0  0  0  0  0  0  0  0  0
   24.5207   75.0624    3.7712 O   0  0  0  0  0  0  0  0  0  0  0  0
   22.6068   73.6016    3.6838 C   0  0  2  0  0  0  0  0  0  0  0  0
   22.1698   72.1687    3.3780 C   0  0  2  0  0  0  0  0  0  0  0  0
   24.1331   73.6899    3.7501 C   0  0  1  0  0  0  0  0  0  0  0  0
   22.8923   71.6282    2.1433 C   0  0  1  0  0  0  0  0  0  0  0  0
   24.7829   73.0181    2.5439 C   0  0  1  0  0  0  0  0  0  0  0  0
   21.1175   73.9512    4.9340 H   0  0  0  0  0  0  0  0  0  0  0  0
   20.3009   72.4546    3.9344 H   0  0  0  0  0  0  0  0  0  0  0  0
   24.1137   75.5017    4.5342 H   0  0  0  0  0  0  0  0  0  0  0  0
   26.5952   71.5292    2.5328 O   0  0  0  0  0  0  0  0  0  0  0  0
   27.0266   73.6885    3.1247 O   0  0  0  0  0  0  0  0  0  0  0  0
   26.2456   72.8173    2.7726 C   0  0  0  0  0  0  0  0  0  0  0  0
  1  4  1  0
  1 24  1  0
  1  2  1  1
  1  3  2  0
 25 28  1  0
 25 24  1  0
 25 26  1  1
 25 27  2  0
  6 11  1  0
  6 12  1  0
 29 36  1  0
 29 37  1  0
  9  7  1  6
  7 13  1  0
 10  8  1  6
  8 14  1  0
  4  5  1  0
 36 28  1  6
 33 30  1  1
 30 38  1  0
 34 31  1  6
 31 39  1  0
 35 32  1  6
 32 40  1  0
 41 43  1  0
 15 19  2  0
 42 43  2  0
 16 22  2  0
 12 17  1  1
 17 19  1  0
 17 20  1  0
 18 19  1  0
 18 22  1  0
 18 23  1  0
  9 10  1  0
  9 11  1  0
 10 12  1  0
 11  5  1  1
 33 34  1  0
 33 35  1  0
 34 36  1  0
 35 37  1  0
 37 43  1  1
 20 21  2  0
 21 22  1  0
M  CHG  3   2  -1  26  -1  41  -1
M  END
>  <COMPND>  (190) 
    udp_gluA.pdb 

>  <AUTHOR>  (190) 
    GENERATED BY OPEN BABEL 3.1.1

>  <MASTER>  (190) 
        0    0    0    0    0    0    0    0   56    0   56    0

>  <minimizedAffinity>  (190) 
-7.42078

>  <CNNscore>  (190) 
0.5669894814

>  <CNNaffinity>  (190) 
4.1615686417

>  <CNN_VS>  (190) 
2.3595657349

>  <CNNaffinity_variance>  (190) 
0.1313640922

$$$$
191
     RDKit          3D

 43 45  0  0  0  0  0  0  0  0999 V2000
   21.9956   72.8855   -5.9784 P   0  0  2  0  0  0  0  0  0  0  0  0
   21.3718   74.3788   -5.9743 O   0  0  0  0  0  0  0  0  0  0  0  0
   23.1887   72.6998   -6.8694 O   0  0  0  0  0  0  0  0  0  0  0  0
   20.7258   71.9349   -6.2973 O   0  0  0  0  0  0  0  0  0  0  0  0
   19.9227   72.2347   -7.4241 C   0  0  0  0  0  0  0  0  0  0  0  0
   18.8081   70.1730   -6.8905 O   0  0  0  0  0  0  0  0  0  0  0  0
   18.1125   70.0113   -9.8028 O   0  0  0  0  0  0  0  0  0  0  0  0
   15.7966   70.9205   -8.6866 O   0  0  0  0  0  0  0  0  0  0  0  0
   18.2012   71.1584   -8.9572 C   0  0  1  0  0  0  0  0  0  0  0  0
   17.0091   71.2163   -8.0257 C   0  0  2  0  0  0  0  0  0  0  0  0
   19.3536   70.9386   -7.9867 C   0  0  1  0  0  0  0  0  0  0  0  0
   17.3745   70.1758   -6.9808 C   0  0  2  0  0  0  0  0  0  0  0  0
   17.3829   70.1286  -10.4318 H   0  0  0  0  0  0  0  0  0  0  0  0
   15.6081   71.6120   -9.3411 H   0  0  0  0  0  0  0  0  0  0  0  0
   16.6252   68.2361   -5.0696 O   0  0  0  0  0  0  0  0  0  0  0  0
   15.2802   71.4570   -2.0594 O   0  0  0  0  0  0  0  0  0  0  0  0
   16.8259   70.4798   -5.6895 N   0  0  0  0  0  0  0  0  0  0  0  0
   15.9551   69.8421   -3.5726 N   0  0  0  0  0  0  0  0  0  0  0  0
   16.4824   69.4311   -4.8039 C   0  0  0  0  0  0  0  0  0  0  0  0
   16.6348   71.8031   -5.3112 C   0  0  0  0  0  0  0  0  0  0  0  0
   16.1313   72.1794   -4.1340 C   0  0  0  0  0  0  0  0  0  0  0  0
   15.7458   71.1453   -3.1514 C   0  0  0  0  0  0  0  0  0  0  0  0
   15.7065   69.1297   -2.9401 H   0  0  0  0  0  0  0  0  0  0  0  0
   22.2753   72.6048   -4.4113 O   0  0  0  0  0  0  0  0  0  0  0  0
   23.4077   73.1859   -3.4145 P   0  0  2  0  0  0  0  0  0  0  0  0
   22.7275   74.5321   -2.8268 O   0  0  0  0  0  0  0  0  0  0  0  0
   24.7457   73.4005   -4.0608 O   0  0  0  0  0  0  0  0  0  0  0  0
   23.4224   72.1602   -2.1695 O   0  0  0  0  0  0  0  0  0  0  0  0
   23.7721   69.8280   -2.3885 O   0  0  0  0  0  0  0  0  0  0  0  0
   21.7684   70.0427    1.2181 O   0  0  0  0  0  0  0  0  0  0  0  0
   20.9231   71.6845   -1.0456 O   0  0  0  0  0  0  0  0  0  0  0  0
   24.6351   69.5625    1.1678 O   0  0  0  0  0  0  0  0  0  0  0  0
   22.6430   70.4948    0.1843 C   0  0  2  0  0  0  0  0  0  0  0  0
   21.8647   70.6207   -1.1257 C   0  0  2  0  0  0  0  0  0  0  0  0
   23.7704   69.4705    0.0371 C   0  0  1  0  0  0  0  0  0  0  0  0
   22.8092   70.8790   -2.3005 C   0  0  1  0  0  0  0  0  0  0  0  0
   24.5900   69.7216   -1.2253 C   0  0  1  0  0  0  0  0  0  0  0  0
   21.0437   70.6780    1.3296 H   0  0  0  0  0  0  0  0  0  0  0  0
   20.3207   71.5273   -0.3020 H   0  0  0  0  0  0  0  0  0  0  0  0
   24.1257   69.4048    1.9781 H   0  0  0  0  0  0  0  0  0  0  0  0
   26.0964   68.7222   -2.7198 O   0  0  0  0  0  0  0  0  0  0  0  0
   25.5918   67.5642   -0.8215 O   0  0  0  0  0  0  0  0  0  0  0  0
   25.4615   68.5480   -1.5342 C   0  0  0  0  0  0  0  0  0  0  0  0
  1  4  1  0
  1 24  1  0
  1  2  1  1
  1  3  2  0
 25 28  1  0
 25 24  1  0
 25 26  1  1
 25 27  2  0
  6 11  1  0
  6 12  1  0
 29 36  1  0
 29 37  1  0
  9  7  1  6
  7 13  1  0
 10  8  1  6
  8 14  1  0
  4  5  1  0
 36 28  1  1
 33 30  1  1
 30 38  1  0
 34 31  1  1
 31 39  1  0
 35 32  1  1
 32 40  1  0
 41 43  1  0
 15 19  2  0
 42 43  2  0
 16 22  2  0
 12 17  1  1
 17 19  1  0
 17 20  1  0
 18 19  1  0
 18 22  1  0
 18 23  1  0
  9 10  1  0
  9 11  1  0
 10 12  1  0
 11  5  1  1
 33 34  1  0
 33 35  1  0
 34 36  1  0
 35 37  1  0
 37 43  1  6
 20 21  2  0
 21 22  1  0
M  CHG  3   2  -1  26  -1  41  -1
M  END
>  <COMPND>  (191) 
    udp_gluA.pdb 

>  <AUTHOR>  (191) 
    GENERATED BY OPEN BABEL 3.1.1

>  <MASTER>  (191) 
        0    0    0    0    0    0    0    0   56    0   56    0

>  <minimizedAffinity>  (191) 
-8.89971

>  <CNNscore>  (191) 
0.5478093624

>  <CNNaffinity>  (191) 
4.3042316437

>  <CNN_VS>  (191) 
2.3578984737

>  <CNNaffinity_variance>  (191) 
0.3941084445

$$$$
192
     RDKit          3D

 43 45  0  0  0  0  0  0  0  0999 V2000
   23.6191   72.7212   -3.6618 P   0  0  2  0  0  0  0  0  0  0  0  0
   24.0879   71.2329   -3.2328 O   0  0  0  0  0  0  0  0  0  0  0  0
   24.6772   73.5515   -4.3271 O   0  0  0  0  0  0  0  0  0  0  0  0
   22.9927   73.3379   -2.3034 O   0  0  0  0  0  0  0  0  0  0  0  0
   21.6975   73.9074   -2.3539 C   0  0  0  0  0  0  0  0  0  0  0  0
   21.2535   72.1963   -0.7252 O   0  0  0  0  0  0  0  0  0  0  0  0
   18.3619   72.5146   -1.4526 O   0  0  0  0  0  0  0  0  0  0  0  0
   18.5489   73.9213    0.8760 O   0  0  0  0  0  0  0  0  0  0  0  0
   19.3868   73.5050   -1.3683 C   0  0  1  0  0  0  0  0  0  0  0  0
   19.7099   73.8030    0.0806 C   0  0  2  0  0  0  0  0  0  0  0  0
   20.6848   72.8811   -1.8623 C   0  0  1  0  0  0  0  0  0  0  0  0
   20.5634   72.6068    0.4658 C   0  0  2  0  0  0  0  0  0  0  0  0
   17.5227   72.8900   -1.1421 H   0  0  0  0  0  0  0  0  0  0  0  0
   18.0399   74.6973    0.5918 H   0  0  0  0  0  0  0  0  0  0  0  0
   20.0757   72.4442    3.2429 O   0  0  0  0  0  0  0  0  0  0  0  0
   24.3434   73.8571    4.2600 O   0  0  0  0  0  0  0  0  0  0  0  0
   21.5294   72.9263    1.4786 N   0  0  0  0  0  0  0  0  0  0  0  0
   22.2014   73.1490    3.7468 N   0  0  0  0  0  0  0  0  0  0  0  0
   21.1831   72.8112    2.8457 C   0  0  0  0  0  0  0  0  0  0  0  0
   22.8029   73.3462    1.1145 C   0  0  0  0  0  0  0  0  0  0  0  0
   23.7630   73.6646    1.9849 C   0  0  0  0  0  0  0  0  0  0  0  0
   23.4827   73.5723    3.4328 C   0  0  0  0  0  0  0  0  0  0  0  0
   21.9833   73.0788    4.7044 H   0  0  0  0  0  0  0  0  0  0  0  0
   22.3118   72.4420   -4.5707 O   0  0  0  0  0  0  0  0  0  0  0  0
   21.8672   73.0439   -6.0037 P   0  0  2  0  0  0  0  0  0  0  0  0
   22.9160   72.3637   -7.0321 O   0  0  0  0  0  0  0  0  0  0  0  0
   21.8325   74.5438   -6.0577 O   0  0  0  0  0  0  0  0  0  0  0  0
   20.4575   72.3296   -6.3281 O   0  0  0  0  0  0  0  0  0  0  0  0
   19.9145   70.2191   -5.4005 O   0  0  0  0  0  0  0  0  0  0  0  0
   17.2793   70.4457   -8.5741 O   0  0  0  0  0  0  0  0  0  0  0  0
   20.0508   71.3151   -8.8857 O   0  0  0  0  0  0  0  0  0  0  0  0
   16.3331   70.8718   -5.8586 O   0  0  0  0  0  0  0  0  0  0  0  0
   18.0851   70.9532   -7.5106 C   0  0  2  0  0  0  0  0  0  0  0  0
   19.5502   70.5972   -7.7639 C   0  0  2  0  0  0  0  0  0  0  0  0
   17.6007   70.3175   -6.2055 C   0  0  1  0  0  0  0  0  0  0  0  0
   20.4108   70.9200   -6.5416 C   0  0  1  0  0  0  0  0  0  0  0  0
   18.5770   70.5795   -5.0624 C   0  0  1  0  0  0  0  0  0  0  0  0
   17.5688   70.8359   -9.4139 H   0  0  0  0  0  0  0  0  0  0  0  0
   19.5092   71.1153   -9.6649 H   0  0  0  0  0  0  0  0  0  0  0  0
   15.7025   70.7121   -6.5781 H   0  0  0  0  0  0  0  0  0  0  0  0
   17.3827   68.7363   -4.2391 O   0  0  0  0  0  0  0  0  0  0  0  0
   18.7660   69.8144   -2.7820 O   0  0  0  0  0  0  0  0  0  0  0  0
   18.2765   69.6964   -3.8953 C   0  0  0  0  0  0  0  0  0  0  0  0
  1  4  1  0
  1 24  1  0
  1  2  1  1
  1  3  2  0
 25 28  1  0
 25 24  1  0
 25 26  1  6
 25 27  2  0
  6 11  1  0
  6 12  1  0
 29 36  1  0
 29 37  1  0
  9  7  1  1
  7 13  1  0
 10  8  1  1
  8 14  1  0
  4  5  1  0
 36 28  1  1
 33 30  1  6
 30 38  1  0
 34 31  1  6
 31 39  1  0
 35 32  1  1
 32 40  1  0
 41 43  1  0
 15 19  2  0
 42 43  2  0
 16 22  2  0
 12 17  1  1
 17 19  1  0
 17 20  1  0
 18 19  1  0
 18 22  1  0
 18 23  1  0
  9 10  1  0
  9 11  1  0
 10 12  1  0
 11  5  1  1
 33 34  1  0
 33 35  1  0
 34 36  1  0
 35 37  1  0
 37 43  1  1
 20 21  2  0
 21 22  1  0
M  CHG  3   2  -1  26  -1  41  -1
M  END
>  <COMPND>  (192) 
    udp_gluA.pdb 

>  <AUTHOR>  (192) 
    GENERATED BY OPEN BABEL 3.1.1

>  <MASTER>  (192) 
        0    0    0    0    0    0    0    0   56    0   56    0

>  <minimizedAffinity>  (192) 
-6.39254

>  <CNNscore>  (192) 
0.5422864556

>  <CNNaffinity>  (192) 
4.2193861008

>  <CNN_VS>  (192) 
2.2881159782

>  <CNNaffinity_variance>  (192) 
0.0433473215

$$$$
193
     RDKit          3D

 43 45  0  0  0  0  0  0  0  0999 V2000
   22.9287   73.0866   -3.5868 P   0  0  2  0  0  0  0  0  0  0  0  0
   24.2475   72.6396   -4.4114 O   0  0  0  0  0  0  0  0  0  0  0  0
   22.8926   74.5319   -3.1848 O   0  0  0  0  0  0  0  0  0  0  0  0
   22.8476   72.0179   -2.3747 O   0  0  0  0  0  0  0  0  0  0  0  0
   23.2658   72.4253   -1.0849 C   0  0  0  0  0  0  0  0  0  0  0  0
   22.6683   70.1611   -0.5429 O   0  0  0  0  0  0  0  0  0  0  0  0
   22.4529   71.0949    2.2984 O   0  0  0  0  0  0  0  0  0  0  0  0
   24.8875   69.8673    2.2576 O   0  0  0  0  0  0  0  0  0  0  0  0
   23.3708   71.4981    1.2819 C   0  0  1  0  0  0  0  0  0  0  0  0
   24.4040   70.4161    1.0495 C   0  0  2  0  0  0  0  0  0  0  0  0
   22.6242   71.5159   -0.0450 C   0  0  1  0  0  0  0  0  0  0  0  0
   23.6254   69.4093    0.2201 C   0  0  2  0  0  0  0  0  0  0  0  0
   22.9072   71.0760    3.1557 H   0  0  0  0  0  0  0  0  0  0  0  0
   25.3760   70.5470    2.7489 H   0  0  0  0  0  0  0  0  0  0  0  0
   24.3300   66.6947    0.5530 O   0  0  0  0  0  0  0  0  0  0  0  0
   26.8603   66.6900   -3.2995 O   0  0  0  0  0  0  0  0  0  0  0  0
   24.4668   68.6739   -0.6809 N   0  0  0  0  0  0  0  0  0  0  0  0
   25.5904   66.6952   -1.3656 N   0  0  0  0  0  0  0  0  0  0  0  0
   24.7597   67.3140   -0.4221 C   0  0  0  0  0  0  0  0  0  0  0  0
   24.9908   69.2984   -1.8063 C   0  0  0  0  0  0  0  0  0  0  0  0
   25.7811   68.6954   -2.6966 C   0  0  0  0  0  0  0  0  0  0  0  0
   26.1362   67.2747   -2.4995 C   0  0  0  0  0  0  0  0  0  0  0  0
   25.8100   65.7489   -1.2056 H   0  0  0  0  0  0  0  0  0  0  0  0
   21.7207   72.6274   -4.5577 O   0  0  0  0  0  0  0  0  0  0  0  0
   21.0644   73.3464   -5.8484 P   0  0  2  0  0  0  0  0  0  0  0  0
   22.1514   73.0733   -7.0164 O   0  0  0  0  0  0  0  0  0  0  0  0
   20.7291   74.7952   -5.6421 O   0  0  0  0  0  0  0  0  0  0  0  0
   19.8051   72.4167   -6.2386 O   0  0  0  0  0  0  0  0  0  0  0  0
   19.2655   70.2137   -5.5569 O   0  0  0  0  0  0  0  0  0  0  0  0
   17.7331   70.3059   -9.3924 O   0  0  0  0  0  0  0  0  0  0  0  0
   20.3365   71.4960   -8.8088 O   0  0  0  0  0  0  0  0  0  0  0  0
   15.9493   70.4827   -7.1038 O   0  0  0  0  0  0  0  0  0  0  0  0
   18.1021   70.8453   -8.1232 C   0  0  2  0  0  0  0  0  0  0  0  0
   19.6058   70.6695   -7.9101 C   0  0  2  0  0  0  0  0  0  0  0  0
   17.3200   70.0928   -7.0442 C   0  0  1  0  0  0  0  0  0  0  0  0
   20.0001   71.0236   -6.4755 C   0  0  1  0  0  0  0  0  0  0  0  0
   17.8553   70.4036   -5.6494 C   0  0  1  0  0  0  0  0  0  0  0  0
   18.2178   70.7687  -10.0939 H   0  0  0  0  0  0  0  0  0  0  0  0
   20.0910   71.2769   -9.7211 H   0  0  0  0  0  0  0  0  0  0  0  0
   15.5965   70.2903   -7.9867 H   0  0  0  0  0  0  0  0  0  0  0  0
   18.0333   69.4918   -3.4957 O   0  0  0  0  0  0  0  0  0  0  0  0
   16.3687   68.6886   -4.8310 O   0  0  0  0  0  0  0  0  0  0  0  0
   17.3197   69.4335   -4.6473 C   0  0  0  0  0  0  0  0  0  0  0  0
  1  4  1  0
  1 24  1  0
  1  2  1  6
  1  3  2  0
 25 28  1  0
 25 24  1  0
 25 26  1  6
 25 27  2  0
  6 11  1  0
  6 12  1  0
 29 36  1  0
 29 37  1  0
  9  7  1  1
  7 13  1  0
 10  8  1  1
  8 14  1  0
  4  5  1  0
 36 28  1  1
 33 30  1  6
 30 38  1  0
 34 31  1  6
 31 39  1  0
 35 32  1  1
 32 40  1  0
 41 43  1  0
 15 19  2  0
 42 43  2  0
 16 22  2  0
 12 17  1  6
 17 19  1  0
 17 20  1  0
 18 19  1  0
 18 22  1  0
 18 23  1  0
  9 10  1  0
  9 11  1  0
 10 12  1  0
 11  5  1  6
 33 34  1  0
 33 35  1  0
 34 36  1  0
 35 37  1  0
 37 43  1  1
 20 21  2  0
 21 22  1  0
M  CHG  3   2  -1  26  -1  41  -1
M  END
>  <COMPND>  (193) 
    udp_gluA.pdb 

>  <AUTHOR>  (193) 
    GENERATED BY OPEN BABEL 3.1.1

>  <MASTER>  (193) 
        0    0    0    0    0    0    0    0   56    0   56    0

>  <minimizedAffinity>  (193) 
-8.96589

>  <CNNscore>  (193) 
0.5105506182

>  <CNNaffinity>  (193) 
4.5238695145

>  <CNN_VS>  (193) 
2.3096644878

>  <CNNaffinity_variance>  (193) 
0.2429775745

$$$$
194
     RDKit          3D

 43 45  0  0  0  0  0  0  0  0999 V2000
   22.6796   72.1722   -2.9148 P   0  0  2  0  0  0  0  0  0  0  0  0
   24.2321   72.0437   -3.3531 O   0  0  0  0  0  0  0  0  0  0  0  0
   22.2568   73.5432   -2.4751 O   0  0  0  0  0  0  0  0  0  0  0  0
   22.4850   70.9933   -1.8238 O   0  0  0  0  0  0  0  0  0  0  0  0
   21.4153   71.0950   -0.9020 C   0  0  0  0  0  0  0  0  0  0  0  0
   22.4823   69.3801    0.4013 O   0  0  0  0  0  0  0  0  0  0  0  0
   23.0439   71.5242    2.4209 O   0  0  0  0  0  0  0  0  0  0  0  0
   25.4357   71.2757    1.1351 O   0  0  0  0  0  0  0  0  0  0  0  0
   23.0309   71.6065    0.9956 C   0  0  1  0  0  0  0  0  0  0  0  0
   24.2639   70.9419    0.4209 C   0  0  2  0  0  0  0  0  0  0  0  0
   21.9154   70.7057    0.4832 C   0  0  1  0  0  0  0  0  0  0  0  0
   23.9099   69.4689    0.5339 C   0  0  2  0  0  0  0  0  0  0  0  0
   23.7487   72.0917    2.7714 H   0  0  0  0  0  0  0  0  0  0  0  0
   25.6185   72.2233    1.0316 H   0  0  0  0  0  0  0  0  0  0  0  0
   24.2438   66.6674    0.6640 O   0  0  0  0  0  0  0  0  0  0  0  0
   26.2817   66.5352   -3.4680 O   0  0  0  0  0  0  0  0  0  0  0  0
   24.5244   68.6772   -0.4939 N   0  0  0  0  0  0  0  0  0  0  0  0
   25.2594   66.6044   -1.3936 N   0  0  0  0  0  0  0  0  0  0  0  0
   24.6433   67.2768   -0.3300 C   0  0  0  0  0  0  0  0  0  0  0  0
   24.9998   69.2873   -1.6483 C   0  0  0  0  0  0  0  0  0  0  0  0
   25.5847   68.6331   -2.6536 C   0  0  0  0  0  0  0  0  0  0  0  0
   25.7487   67.1675   -2.5612 C   0  0  0  0  0  0  0  0  0  0  0  0
   25.3553   65.6289   -1.3015 H   0  0  0  0  0  0  0  0  0  0  0  0
   21.8898   71.6060   -4.2065 O   0  0  0  0  0  0  0  0  0  0  0  0
   20.3400   71.1907   -4.4051 P   0  0  2  0  0  0  0  0  0  0  0  0
   19.5388   72.5177   -3.9387 O   0  0  0  0  0  0  0  0  0  0  0  0
   19.9398   69.9393   -3.6785 O   0  0  0  0  0  0  0  0  0  0  0  0
   20.1338   71.1315   -6.0040 O   0  0  0  0  0  0  0  0  0  0  0  0
   18.0014   70.2258   -6.4957 O   0  0  0  0  0  0  0  0  0  0  0  0
   19.5790   70.7623  -10.2761 O   0  0  0  0  0  0  0  0  0  0  0  0
   21.2351   69.6978   -8.1177 O   0  0  0  0  0  0  0  0  0  0  0  0
   17.5653   72.5971   -9.2614 O   0  0  0  0  0  0  0  0  0  0  0  0
   19.3803   71.0559   -8.8932 C   0  0  2  0  0  0  0  0  0  0  0  0
   19.8234   69.8616   -8.0477 C   0  0  2  0  0  0  0  0  0  0  0  0
   17.8913   71.3367   -8.6786 C   0  0  1  0  0  0  0  0  0  0  0  0
   19.4152   70.0451   -6.5853 C   0  0  1  0  0  0  0  0  0  0  0  0
   17.5410   71.3806   -7.1940 C   0  0  1  0  0  0  0  0  0  0  0  0
   20.5183   70.5803  -10.4364 H   0  0  0  0  0  0  0  0  0  0  0  0
   21.5012   69.5812   -9.0429 H   0  0  0  0  0  0  0  0  0  0  0  0
   17.7836   72.5826  -10.2063 H   0  0  0  0  0  0  0  0  0  0  0  0
   15.5360   70.2398   -7.6184 O   0  0  0  0  0  0  0  0  0  0  0  0
   15.4069   72.1377   -6.3612 O   0  0  0  0  0  0  0  0  0  0  0  0
   16.0611   71.3243   -6.9963 C   0  0  0  0  0  0  0  0  0  0  0  0
  1  4  1  0
  1 24  1  0
  1  2  1  6
  1  3  2  0
 25 28  1  0
 25 24  1  0
 25 26  1  1
 25 27  2  0
  6 11  1  0
  6 12  1  0
 29 36  1  0
 29 37  1  0
  9  7  1  1
  7 13  1  0
 10  8  1  1
  8 14  1  0
  4  5  1  0
 36 28  1  6
 33 30  1  6
 30 38  1  0
 34 31  1  1
 31 39  1  0
 35 32  1  1
 32 40  1  0
 41 43  1  0
 15 19  2  0
 42 43  2  0
 16 22  2  0
 12 17  1  6
 17 19  1  0
 17 20  1  0
 18 19  1  0
 18 22  1  0
 18 23  1  0
  9 10  1  0
  9 11  1  0
 10 12  1  0
 11  5  1  6
 33 34  1  0
 33 35  1  0
 34 36  1  0
 35 37  1  0
 37 43  1  6
 20 21  2  0
 21 22  1  0
M  CHG  3   2  -1  26  -1  41  -1
M  END
>  <COMPND>  (194) 
    udp_gluA.pdb 

>  <AUTHOR>  (194) 
    GENERATED BY OPEN BABEL 3.1.1

>  <MASTER>  (194) 
        0    0    0    0    0    0    0    0   56    0   56    0

>  <minimizedAffinity>  (194) 
-8.01633

>  <CNNscore>  (194) 
0.4924398065

>  <CNNaffinity>  (194) 
4.3298950195

>  <CNN_VS>  (194) 
2.1322126389

>  <CNNaffinity_variance>  (194) 
0.1246653348

$$$$
195
     RDKit          3D

 43 45  0  0  0  0  0  0  0  0999 V2000
   23.3035   73.8206   -4.2787 P   0  0  2  0  0  0  0  0  0  0  0  0
   24.2127   72.4820   -4.2963 O   0  0  0  0  0  0  0  0  0  0  0  0
   23.8947   74.9976   -4.9977 O   0  0  0  0  0  0  0  0  0  0  0  0
   22.9761   74.0473   -2.7104 O   0  0  0  0  0  0  0  0  0  0  0  0
   22.2715   73.0359   -2.0138 C   0  0  0  0  0  0  0  0  0  0  0  0
   23.1259   72.9251    0.2302 O   0  0  0  0  0  0  0  0  0  0  0  0
   24.0876   70.1727   -0.4704 O   0  0  0  0  0  0  0  0  0  0  0  0
   21.8156   69.6665    0.9502 O   0  0  0  0  0  0  0  0  0  0  0  0
   22.8971   70.8456   -0.8808 C   0  0  1  0  0  0  0  0  0  0  0  0
   21.9035   70.8958    0.2605 C   0  0  2  0  0  0  0  0  0  0  0  0
   23.2330   72.3179   -1.0756 C   0  0  1  0  0  0  0  0  0  0  0  0
   22.4698   72.0109    1.1229 C   0  0  2  0  0  0  0  0  0  0  0  0
   23.8978   69.2301   -0.3396 H   0  0  0  0  0  0  0  0  0  0  0  0
   21.4494   68.9895    0.3589 H   0  0  0  0  0  0  0  0  0  0  0  0
   22.3605   72.2113    3.9380 O   0  0  0  0  0  0  0  0  0  0  0  0
   18.5104   74.7410    3.7909 O   0  0  0  0  0  0  0  0  0  0  0  0
   21.4498   72.7159    1.8464 N   0  0  0  0  0  0  0  0  0  0  0  0
   20.4425   73.4702    3.8621 N   0  0  0  0  0  0  0  0  0  0  0  0
   21.4868   72.7558    3.2603 C   0  0  0  0  0  0  0  0  0  0  0  0
   20.4291   73.3591    1.1569 C   0  0  0  0  0  0  0  0  0  0  0  0
   19.4406   74.0363    1.7443 C   0  0  0  0  0  0  0  0  0  0  0  0
   19.4051   74.1257    3.2188 C   0  0  0  0  0  0  0  0  0  0  0  0
   20.4458   73.5102    4.8458 H   0  0  0  0  0  0  0  0  0  0  0  0
   21.8910   73.3078   -4.8743 O   0  0  0  0  0  0  0  0  0  0  0  0
   21.1924   73.5551   -6.3111 P   0  0  2  0  0  0  0  0  0  0  0  0
   22.2380   72.8870   -7.3507 O   0  0  0  0  0  0  0  0  0  0  0  0
   20.8677   74.9924   -6.5987 O   0  0  0  0  0  0  0  0  0  0  0  0
   19.9184   72.5656   -6.3225 O   0  0  0  0  0  0  0  0  0  0  0  0
   19.5150   70.3855   -5.4898 O   0  0  0  0  0  0  0  0  0  0  0  0
   17.5060   70.2921   -9.0986 O   0  0  0  0  0  0  0  0  0  0  0  0
   20.1375   71.5452   -8.9007 O   0  0  0  0  0  0  0  0  0  0  0  0
   16.0243   70.5384   -6.6097 O   0  0  0  0  0  0  0  0  0  0  0  0
   18.0222   70.8902   -7.9096 C   0  0  2  0  0  0  0  0  0  0  0  0
   19.5441   70.7466   -7.8835 C   0  0  2  0  0  0  0  0  0  0  0  0
   17.3992   70.1723   -6.7102 C   0  0  1  0  0  0  0  0  0  0  0  0
   20.1101   71.1669   -6.5265 C   0  0  1  0  0  0  0  0  0  0  0  0
   18.1009   70.5499   -5.4089 C   0  0  1  0  0  0  0  0  0  0  0  0
   17.8880   70.7322   -9.8743 H   0  0  0  0  0  0  0  0  0  0  0  0
   19.7826   71.2841   -9.7645 H   0  0  0  0  0  0  0  0  0  0  0  0
   15.5662   70.3035   -7.4318 H   0  0  0  0  0  0  0  0  0  0  0  0
   18.6186   69.6700   -3.2972 O   0  0  0  0  0  0  0  0  0  0  0  0
   16.7274   68.8981   -4.3104 O   0  0  0  0  0  0  0  0  0  0  0  0
   17.7169   69.6150   -4.3085 C   0  0  0  0  0  0  0  0  0  0  0  0
  1  4  1  0
  1 24  1  0
  1  2  1  1
  1  3  2  0
 25 28  1  0
 25 24  1  0
 25 26  1  6
 25 27  2  0
  6 11  1  0
  6 12  1  0
 29 36  1  0
 29 37  1  0
  9  7  1  1
  7 13  1  0
 10  8  1  1
  8 14  1  0
  4  5  1  0
 36 28  1  1
 33 30  1  6
 30 38  1  0
 34 31  1  6
 31 39  1  0
 35 32  1  1
 32 40  1  0
 41 43  1  0
 15 19  2  0
 42 43  2  0
 16 22  2  0
 12 17  1  6
 17 19  1  0
 17 20  1  0
 18 19  1  0
 18 22  1  0
 18 23  1  0
  9 10  1  0
  9 11  1  0
 10 12  1  0
 11  5  1  6
 33 34  1  0
 33 35  1  0
 34 36  1  0
 35 37  1  0
 37 43  1  1
 20 21  2  0
 21 22  1  0
M  CHG  3   2  -1  26  -1  41  -1
M  END
>  <COMPND>  (195) 
    udp_gluA.pdb 

>  <AUTHOR>  (195) 
    GENERATED BY OPEN BABEL 3.1.1

>  <MASTER>  (195) 
        0    0    0    0    0    0    0    0   56    0   56    0

>  <minimizedAffinity>  (195) 
-7.44782

>  <CNNscore>  (195) 
0.4542718828

>  <CNNaffinity>  (195) 
4.1420035362

>  <CNN_VS>  (195) 
1.8815957308

>  <CNNaffinity_variance>  (195) 
0.1572862566

$$$$
196
     RDKit          3D

 43 45  0  0  0  0  0  0  0  0999 V2000
   21.9366   74.0276   -5.5584 P   0  0  2  0  0  0  0  0  0  0  0  0
   20.6636   75.0246   -5.6241 O   0  0  0  0  0  0  0  0  0  0  0  0
   23.1170   74.4520   -6.3819 O   0  0  0  0  0  0  0  0  0  0  0  0
   21.3138   72.5781   -5.9178 O   0  0  0  0  0  0  0  0  0  0  0  0
   20.9063   72.3290   -7.2506 C   0  0  0  0  0  0  0  0  0  0  0  0
   19.7272   70.4921   -6.2440 O   0  0  0  0  0  0  0  0  0  0  0  0
   19.8276   69.1908   -8.9437 O   0  0  0  0  0  0  0  0  0  0  0  0
   17.2834   70.1675   -8.8472 O   0  0  0  0  0  0  0  0  0  0  0  0
   19.6696   70.5702   -8.6107 C   0  0  1  0  0  0  0  0  0  0  0  0
   18.2732   70.8259   -8.0846 C   0  0  2  0  0  0  0  0  0  0  0  0
   20.5289   70.8596   -7.3875 C   0  0  1  0  0  0  0  0  0  0  0  0
   18.3684   70.2929   -6.6652 C   0  0  2  0  0  0  0  0  0  0  0  0
   19.2878   68.9820   -9.7226 H   0  0  0  0  0  0  0  0  0  0  0  0
   17.2620   70.5427   -9.7420 H   0  0  0  0  0  0  0  0  0  0  0  0
   16.5747   69.0171   -4.8956 O   0  0  0  0  0  0  0  0  0  0  0  0
   15.0585   73.0426   -3.2401 O   0  0  0  0  0  0  0  0  0  0  0  0
   17.4933   70.9834   -5.7607 N   0  0  0  0  0  0  0  0  0  0  0  0
   15.8205   71.0232   -4.0735 N   0  0  0  0  0  0  0  0  0  0  0  0
   16.6306   70.2481   -4.9137 C   0  0  0  0  0  0  0  0  0  0  0  0
   17.4961   72.3723   -5.7174 C   0  0  0  0  0  0  0  0  0  0  0  0
   16.7183   73.0972   -4.9111 C   0  0  0  0  0  0  0  0  0  0  0  0
   15.7873   72.4061   -3.9951 C   0  0  0  0  0  0  0  0  0  0  0  0
   15.2100   70.5336   -3.4761 H   0  0  0  0  0  0  0  0  0  0  0  0
   22.2277   73.9148   -3.9723 O   0  0  0  0  0  0  0  0  0  0  0  0
   23.4978   73.3235   -3.1657 P   0  0  2  0  0  0  0  0  0  0  0  0
   24.2606   74.6547   -2.6496 O   0  0  0  0  0  0  0  0  0  0  0  0
   24.3572   72.3905   -3.9688 O   0  0  0  0  0  0  0  0  0  0  0  0
   22.8679   72.6719   -1.8312 O   0  0  0  0  0  0  0  0  0  0  0  0
   23.6664   73.2126    0.3320 O   0  0  0  0  0  0  0  0  0  0  0  0
   21.7700   69.6059    1.0131 O   0  0  0  0  0  0  0  0  0  0  0  0
   23.4193   69.9853   -1.3681 O   0  0  0  0  0  0  0  0  0  0  0  0
   20.5146   72.0938    1.8409 O   0  0  0  0  0  0  0  0  0  0  0  0
   21.9836   70.8664    0.3778 C   0  0  2  0  0  0  0  0  0  0  0  0
   23.3694   70.8859   -0.2676 C   0  0  2  0  0  0  0  0  0  0  0  0
   21.8782   71.9579    1.4453 C   0  0  1  0  0  0  0  0  0  0  0  0
   23.7253   72.2904   -0.7569 C   0  0  1  0  0  0  0  0  0  0  0  0
   22.3694   73.3027    0.9174 C   0  0  1  0  0  0  0  0  0  0  0  0
   21.8323   68.8968    0.3540 H   0  0  0  0  0  0  0  0  0  0  0  0
   23.1942   69.0921   -1.0649 H   0  0  0  0  0  0  0  0  0  0  0  0
   20.1897   71.2446    2.1788 H   0  0  0  0  0  0  0  0  0  0  0  0
   22.8474   75.5080    1.5573 O   0  0  0  0  0  0  0  0  0  0  0  0
   22.5028   73.9924    3.2256 O   0  0  0  0  0  0  0  0  0  0  0  0
   22.5735   74.2699    2.0378 C   0  0  0  0  0  0  0  0  0  0  0  0
  1  4  1  0
  1 24  1  0
  1  2  1  1
  1  3  2  0
 25 28  1  0
 25 24  1  0
 25 26  1  1
 25 27  2  0
  6 11  1  0
  6 12  1  0
 29 36  1  0
 29 37  1  0
  9  7  1  1
  7 13  1  0
 10  8  1  6
  8 14  1  0
  4  5  1  0
 36 28  1  6
 33 30  1  1
 30 38  1  0
 34 31  1  6
 31 39  1  0
 35 32  1  6
 32 40  1  0
 41 43  1  0
 15 19  2  0
 42 43  2  0
 16 22  2  0
 12 17  1  1
 17 19  1  0
 17 20  1  0
 18 19  1  0
 18 22  1  0
 18 23  1  0
  9 10  1  0
  9 11  1  0
 10 12  1  0
 11  5  1  1
 33 34  1  0
 33 35  1  0
 34 36  1  0
 35 37  1  0
 37 43  1  1
 20 21  2  0
 21 22  1  0
M  CHG  3   2  -1  26  -1  41  -1
M  END
>  <COMPND>  (196) 
    udp_gluA.pdb 

>  <AUTHOR>  (196) 
    GENERATED BY OPEN BABEL 3.1.1

>  <MASTER>  (196) 
        0    0    0    0    0    0    0    0   56    0   56    0

>  <minimizedAffinity>  (196) 
-6.96666

>  <CNNscore>  (196) 
0.4414732456

>  <CNNaffinity>  (196) 
4.2096643448

>  <CNN_VS>  (196) 
1.8584542274

>  <CNNaffinity_variance>  (196) 
0.1870533824

$$$$
197
     RDKit          3D

 43 45  0  0  0  0  0  0  0  0999 V2000
   17.2551   69.8394   -3.1490 P   0  0  2  0  0  0  0  0  0  0  0  0
   17.2368   68.3820   -2.4455 O   0  0  0  0  0  0  0  0  0  0  0  0
   16.0305   70.6733   -2.9107 O   0  0  0  0  0  0  0  0  0  0  0  0
   17.5965   69.5190   -4.6977 O   0  0  0  0  0  0  0  0  0  0  0  0
   16.5260   69.4142   -5.6184 C   0  0  0  0  0  0  0  0  0  0  0  0
   16.0623   70.6211   -7.6447 O   0  0  0  0  0  0  0  0  0  0  0  0
   18.9849   70.3470   -8.2570 O   0  0  0  0  0  0  0  0  0  0  0  0
   18.8070   72.9069   -7.3344 O   0  0  0  0  0  0  0  0  0  0  0  0
   18.3399   70.5444   -6.9986 C   0  0  1  0  0  0  0  0  0  0  0  0
   17.8513   71.9724   -6.8784 C   0  0  2  0  0  0  0  0  0  0  0  0
   17.0344   69.7610   -7.0118 C   0  0  1  0  0  0  0  0  0  0  0  0
   16.5986   71.9505   -7.7376 C   0  0  2  0  0  0  0  0  0  0  0  0
   19.8217   70.8381   -8.2724 H   0  0  0  0  0  0  0  0  0  0  0  0
   19.5850   72.8828   -6.7547 H   0  0  0  0  0  0  0  0  0  0  0  0
   15.0561   73.5879   -9.4452 O   0  0  0  0  0  0  0  0  0  0  0  0
   12.8271   75.5040   -5.8950 O   0  0  0  0  0  0  0  0  0  0  0  0
   15.6080   72.8862   -7.2862 N   0  0  0  0  0  0  0  0  0  0  0  0
   13.9481   74.5414   -7.6753 N   0  0  0  0  0  0  0  0  0  0  0  0
   14.8885   73.6610   -8.2264 C   0  0  0  0  0  0  0  0  0  0  0  0
   15.3564   73.0281   -5.9269 C   0  0  0  0  0  0  0  0  0  0  0  0
   14.4568   73.8714   -5.4167 C   0  0  0  0  0  0  0  0  0  0  0  0
   13.6630   74.7183   -6.3311 C   0  0  0  0  0  0  0  0  0  0  0  0
   13.4363   75.0930   -8.3102 H   0  0  0  0  0  0  0  0  0  0  0  0
   18.6297   70.4897   -2.6008 O   0  0  0  0  0  0  0  0  0  0  0  0
   20.0964   70.5942   -3.2729 P   0  0  2  0  0  0  0  0  0  0  0  0
   20.0119   71.9622   -4.1341 O   0  0  0  0  0  0  0  0  0  0  0  0
   20.4965   69.3859   -4.0690 O   0  0  0  0  0  0  0  0  0  0  0  0
   21.0843   70.9453   -2.0468 O   0  0  0  0  0  0  0  0  0  0  0  0
   23.1632   71.2710   -3.1336 O   0  0  0  0  0  0  0  0  0  0  0  0
   24.0324   72.4745    0.7218 O   0  0  0  0  0  0  0  0  0  0  0  0
   22.4105   70.0921    0.2443 O   0  0  0  0  0  0  0  0  0  0  0  0
   23.6530   74.4531   -1.3739 O   0  0  0  0  0  0  0  0  0  0  0  0
   23.2099   72.2816   -0.4290 C   0  0  2  0  0  0  0  0  0  0  0  0
   23.1357   70.7910   -0.7609 C   0  0  2  0  0  0  0  0  0  0  0  0
   23.8348   73.0553   -1.5920 C   0  0  1  0  0  0  0  0  0  0  0  0
   22.4574   70.5646   -2.1127 C   0  0  1  0  0  0  0  0  0  0  0  0
   23.1873   72.6809   -2.9221 C   0  0  1  0  0  0  0  0  0  0  0  0
   23.6549   71.9917    1.4739 H   0  0  0  0  0  0  0  0  0  0  0  0
   22.8353   70.2316    1.1048 H   0  0  0  0  0  0  0  0  0  0  0  0
   24.0605   74.7045   -0.5303 H   0  0  0  0  0  0  0  0  0  0  0  0
   23.4963   72.7386   -5.2464 O   0  0  0  0  0  0  0  0  0  0  0  0
   24.9965   73.8860   -3.9690 O   0  0  0  0  0  0  0  0  0  0  0  0
   24.0055   73.1783   -4.0690 C   0  0  0  0  0  0  0  0  0  0  0  0
  1  4  1  0
  1 24  1  0
  1  2  1  1
  1  3  2  0
 25 28  1  0
 25 24  1  0
 25 26  1  6
 25 27  2  0
  6 11  1  0
  6 12  1  0
 29 36  1  0
 29 37  1  0
  9  7  1  6
  7 13  1  0
 10  8  1  6
  8 14  1  0
  4  5  1  0
 36 28  1  1
 33 30  1  1
 30 38  1  0
 34 31  1  1
 31 39  1  0
 35 32  1  1
 32 40  1  0
 41 43  1  0
 15 19  2  0
 42 43  2  0
 16 22  2  0
 12 17  1  1
 17 19  1  0
 17 20  1  0
 18 19  1  0
 18 22  1  0
 18 23  1  0
  9 10  1  0
  9 11  1  0
 10 12  1  0
 11  5  1  1
 33 34  1  0
 33 35  1  0
 34 36  1  0
 35 37  1  0
 37 43  1  6
 20 21  2  0
 21 22  1  0
M  CHG  3   2  -1  26  -1  41  -1
M  END
>  <COMPND>  (197) 
    udp_gluA.pdb 

>  <AUTHOR>  (197) 
    GENERATED BY OPEN BABEL 3.1.1

>  <MASTER>  (197) 
        0    0    0    0    0    0    0    0   56    0   56    0

>  <minimizedAffinity>  (197) 
-6.73521

>  <CNNscore>  (197) 
0.3984790444

>  <CNNaffinity>  (197) 
3.9820809364

>  <CNN_VS>  (197) 
1.5867757797

>  <CNNaffinity_variance>  (197) 
0.2275504172

$$$$
198
     RDKit          3D

 43 45  0  0  0  0  0  0  0  0999 V2000
   17.4312   69.3655   -3.5258 P   0  0  2  0  0  0  0  0  0  0  0  0
   18.1554   67.9323   -3.3248 O   0  0  0  0  0  0  0  0  0  0  0  0
   16.0075   69.4273   -3.0556 O   0  0  0  0  0  0  0  0  0  0  0  0
   17.6701   69.7056   -5.0895 O   0  0  0  0  0  0  0  0  0  0  0  0
   16.6082   69.4848   -5.9994 C   0  0  0  0  0  0  0  0  0  0  0  0
   15.9691   70.8272   -7.8881 O   0  0  0  0  0  0  0  0  0  0  0  0
   18.8692   70.8040   -8.6500 O   0  0  0  0  0  0  0  0  0  0  0  0
   18.5758   73.2574   -7.4965 O   0  0  0  0  0  0  0  0  0  0  0  0
   18.2763   70.8488   -7.3519 C   0  0  1  0  0  0  0  0  0  0  0  0
   17.7049   72.2250   -7.0840 C   0  0  2  0  0  0  0  0  0  0  0  0
   17.0238   69.9833   -7.3775 C   0  0  1  0  0  0  0  0  0  0  0  0
   16.4151   72.1927   -7.8859 C   0  0  2  0  0  0  0  0  0  0  0  0
   19.6715   71.3498   -8.6584 H   0  0  0  0  0  0  0  0  0  0  0  0
   19.3816   73.2360   -6.9559 H   0  0  0  0  0  0  0  0  0  0  0  0
   14.7212   73.8995   -9.3671 O   0  0  0  0  0  0  0  0  0  0  0  0
   12.5209   75.3111   -5.5711 O   0  0  0  0  0  0  0  0  0  0  0  0
   15.3909   73.0174   -7.3100 N   0  0  0  0  0  0  0  0  0  0  0  0
   13.6276   74.6017   -7.4750 N   0  0  0  0  0  0  0  0  0  0  0  0
   14.5949   73.8390   -8.1427 C   0  0  0  0  0  0  0  0  0  0  0  0
   15.1821   73.0061   -5.9362 C   0  0  0  0  0  0  0  0  0  0  0  0
   14.2561   73.7385   -5.3142 C   0  0  0  0  0  0  0  0  0  0  0  0
   13.3828   74.6246   -6.1115 C   0  0  0  0  0  0  0  0  0  0  0  0
   13.0626   75.1831   -8.0335 H   0  0  0  0  0  0  0  0  0  0  0  0
   18.4334   70.3871   -2.7744 O   0  0  0  0  0  0  0  0  0  0  0  0
   18.4936   72.0027   -2.7679 P   0  0  2  0  0  0  0  0  0  0  0  0
   18.6759   72.3597   -1.1996 O   0  0  0  0  0  0  0  0  0  0  0  0
   17.3148   72.6654   -3.4201 O   0  0  0  0  0  0  0  0  0  0  0  0
   19.9176   72.3619   -3.4355 O   0  0  0  0  0  0  0  0  0  0  0  0
   20.8060   71.9207   -5.5861 O   0  0  0  0  0  0  0  0  0  0  0  0
   24.1698   71.6122   -3.2075 O   0  0  0  0  0  0  0  0  0  0  0  0
   21.6286   70.4654   -2.3346 O   0  0  0  0  0  0  0  0  0  0  0  0
   23.7582   73.9726   -4.8537 O   0  0  0  0  0  0  0  0  0  0  0  0
   22.8895   72.1103   -3.5958 C   0  0  2  0  0  0  0  0  0  0  0  0
   21.8854   70.9584   -3.6445 C   0  0  2  0  0  0  0  0  0  0  0  0
   23.0310   72.7518   -4.9779 C   0  0  1  0  0  0  0  0  0  0  0  0
   20.5667   71.4084   -4.2747 C   0  0  1  0  0  0  0  0  0  0  0  0
   21.6681   73.0564   -5.5929 C   0  0  1  0  0  0  0  0  0  0  0  0
   24.1044   71.1998   -2.3317 H   0  0  0  0  0  0  0  0  0  0  0  0
   22.4611   70.1784   -1.9286 H   0  0  0  0  0  0  0  0  0  0  0  0
   24.6277   73.7927   -4.4633 H   0  0  0  0  0  0  0  0  0  0  0  0
   21.3738   72.3251   -7.8020 O   0  0  0  0  0  0  0  0  0  0  0  0
   22.2304   74.4171   -7.5043 O   0  0  0  0  0  0  0  0  0  0  0  0
   21.8005   73.3684   -7.0480 C   0  0  0  0  0  0  0  0  0  0  0  0
  1  4  1  0
  1 24  1  0
  1  2  1  6
  1  3  2  0
 25 28  1  0
 25 24  1  0
 25 26  1  1
 25 27  2  0
  6 11  1  0
  6 12  1  0
 29 36  1  0
 29 37  1  0
  9  7  1  6
  7 13  1  0
 10  8  1  6
  8 14  1  0
  4  5  1  0
 36 28  1  1
 33 30  1  6
 30 38  1  0
 34 31  1  1
 31 39  1  0
 35 32  1  1
 32 40  1  0
 41 43  1  0
 15 19  2  0
 42 43  2  0
 16 22  2  0
 12 17  1  1
 17 19  1  0
 17 20  1  0
 18 19  1  0
 18 22  1  0
 18 23  1  0
  9 10  1  0
  9 11  1  0
 10 12  1  0
 11  5  1  1
 33 34  1  0
 33 35  1  0
 34 36  1  0
 35 37  1  0
 37 43  1  6
 20 21  2  0
 21 22  1  0
M  CHG  3   2  -1  26  -1  41  -1
M  END
>  <COMPND>  (198) 
    udp_gluA.pdb 

>  <AUTHOR>  (198) 
    GENERATED BY OPEN BABEL 3.1.1

>  <MASTER>  (198) 
        0    0    0    0    0    0    0    0   56    0   56    0

>  <minimizedAffinity>  (198) 
-6.44364

>  <CNNscore>  (198) 
0.3743464649

>  <CNNaffinity>  (198) 
3.9134261608

>  <CNN_VS>  (198) 
1.4649772644

>  <CNNaffinity_variance>  (198) 
0.3367556334

$$$$
199
     RDKit          3D

 43 45  0  0  0  0  0  0  0  0999 V2000
   25.3919   75.7513   -3.5815 P   0  0  2  0  0  0  0  0  0  0  0  0
   24.2474   76.1124   -4.6671 O   0  0  0  0  0  0  0  0  0  0  0  0
   25.7879   76.8824   -2.6784 O   0  0  0  0  0  0  0  0  0  0  0  0
   26.5830   75.1121   -4.4707 O   0  0  0  0  0  0  0  0  0  0  0  0
   27.3617   75.9755   -5.2785 C   0  0  0  0  0  0  0  0  0  0  0  0
   29.5117   75.1537   -4.5858 O   0  0  0  0  0  0  0  0  0  0  0  0
   30.2783   78.0267   -4.1994 O   0  0  0  0  0  0  0  0  0  0  0  0
   31.4256   77.4214   -6.5980 O   0  0  0  0  0  0  0  0  0  0  0  0
   29.4394   77.4414   -5.1955 C   0  0  1  0  0  0  0  0  0  0  0  0
   30.2763   76.6962   -6.2136 C   0  0  2  0  0  0  0  0  0  0  0  0
   28.6522   76.3133   -4.5430 C   0  0  1  0  0  0  0  0  0  0  0  0
   30.6145   75.4166   -5.4679 C   0  0  2  0  0  0  0  0  0  0  0  0
   30.7914   78.7504   -4.5928 H   0  0  0  0  0  0  0  0  0  0  0  0
   31.1573   78.2264   -7.0691 H   0  0  0  0  0  0  0  0  0  0  0  0
   32.2055   73.1562   -4.8880 O   0  0  0  0  0  0  0  0  0  0  0  0
   31.1922   71.1797   -8.9266 O   0  0  0  0  0  0  0  0  0  0  0  0
   30.7841   74.2967   -6.3500 N   0  0  0  0  0  0  0  0  0  0  0  0
   31.7001   72.1744   -6.9004 N   0  0  0  0  0  0  0  0  0  0  0  0
   31.6056   73.2115   -5.9631 C   0  0  0  0  0  0  0  0  0  0  0  0
   30.1400   74.2799   -7.5812 C   0  0  0  0  0  0  0  0  0  0  0  0
   30.2397   73.2841   -8.4640 C   0  0  0  0  0  0  0  0  0  0  0  0
   31.0792   72.1128   -8.1375 C   0  0  0  0  0  0  0  0  0  0  0  0
   32.2681   71.4088   -6.6543 H   0  0  0  0  0  0  0  0  0  0  0  0
   24.7767   74.4652   -2.8198 O   0  0  0  0  0  0  0  0  0  0  0  0
   23.6079   73.4348   -3.2510 P   0  0  2  0  0  0  0  0  0  0  0  0
   24.1926   72.7552   -4.5988 O   0  0  0  0  0  0  0  0  0  0  0  0
   22.2571   74.0693   -3.4142 O   0  0  0  0  0  0  0  0  0  0  0  0
   23.6675   72.2621   -2.1448 O   0  0  0  0  0  0  0  0  0  0  0  0
   23.9620   69.9351   -2.4726 O   0  0  0  0  0  0  0  0  0  0  0  0
   21.6684   70.0165    0.9627 O   0  0  0  0  0  0  0  0  0  0  0  0
   21.0686   71.8133   -1.2613 O   0  0  0  0  0  0  0  0  0  0  0  0
   24.5129   69.4374    1.1206 O   0  0  0  0  0  0  0  0  0  0  0  0
   22.6408   70.4948    0.0333 C   0  0  2  0  0  0  0  0  0  0  0  0
   21.9802   70.7228   -1.3266 C   0  0  2  0  0  0  0  0  0  0  0  0
   23.7444   69.4408   -0.0810 C   0  0  1  0  0  0  0  0  0  0  0  0
   23.0281   71.0132   -2.4020 C   0  0  1  0  0  0  0  0  0  0  0  0
   24.6750   69.7336   -1.2544 C   0  0  1  0  0  0  0  0  0  0  0  0
   20.9569   70.6701    1.0516 H   0  0  0  0  0  0  0  0  0  0  0  0
   20.4010   71.6359   -0.5807 H   0  0  0  0  0  0  0  0  0  0  0  0
   23.9322   69.2524    1.8752 H   0  0  0  0  0  0  0  0  0  0  0  0
   26.2283   68.7446   -2.7072 O   0  0  0  0  0  0  0  0  0  0  0  0
   25.6052   67.5401   -0.8741 O   0  0  0  0  0  0  0  0  0  0  0  0
   25.5327   68.5489   -1.5596 C   0  0  0  0  0  0  0  0  0  0  0  0
  1  4  1  0
  1 24  1  0
  1  2  1  6
  1  3  2  0
 25 28  1  0
 25 24  1  0
 25 26  1  6
 25 27  2  0
  6 11  1  0
  6 12  1  0
 29 36  1  0
 29 37  1  0
  9  7  1  1
  7 13  1  0
 10  8  1  1
  8 14  1  0
  4  5  1  0
 36 28  1  1
 33 30  1  1
 30 38  1  0
 34 31  1  1
 31 39  1  0
 35 32  1  1
 32 40  1  0
 41 43  1  0
 15 19  2  0
 42 43  2  0
 16 22  2  0
 12 17  1  6
 17 19  1  0
 17 20  1  0
 18 19  1  0
 18 22  1  0
 18 23  1  0
  9 10  1  0
  9 11  1  0
 10 12  1  0
 11  5  1  6
 33 34  1  0
 33 35  1  0
 34 36  1  0
 35 37  1  0
 37 43  1  6
 20 21  2  0
 21 22  1  0
M  CHG  3   2  -1  26  -1  41  -1
M  END
>  <COMPND>  (199) 
    udp_gluA.pdb 

>  <AUTHOR>  (199) 
    GENERATED BY OPEN BABEL 3.1.1

>  <MASTER>  (199) 
        0    0    0    0    0    0    0    0   56    0   56    0

>  <minimizedAffinity>  (199) 
-7.31043

>  <CNNscore>  (199) 
0.3670017123

>  <CNNaffinity>  (199) 
3.9731681347

>  <CNN_VS>  (199) 
1.4581595659

>  <CNNaffinity_variance>  (199) 
0.1843509823

$$$$
200
     RDKit          3D

 43 45  0  0  0  0  0  0  0  0999 V2000
   23.0412   72.1109   -2.7210 P   0  0  2  0  0  0  0  0  0  0  0  0
   23.1901   73.7108   -2.5283 O   0  0  0  0  0  0  0  0  0  0  0  0
   24.2440   71.4282   -3.3031 O   0  0  0  0  0  0  0  0  0  0  0  0
   21.6663   71.9468   -3.5581 O   0  0  0  0  0  0  0  0  0  0  0  0
   21.4458   72.7960   -4.6693 C   0  0  0  0  0  0  0  0  0  0  0  0
   20.7077   70.7355   -5.6629 O   0  0  0  0  0  0  0  0  0  0  0  0
   21.1774   72.0607   -8.3115 O   0  0  0  0  0  0  0  0  0  0  0  0
   18.4733   72.2560   -8.0187 O   0  0  0  0  0  0  0  0  0  0  0  0
   20.6913   72.6239   -7.0928 C   0  0  1  0  0  0  0  0  0  0  0  0
   19.2614   72.1902   -6.8486 C   0  0  2  0  0  0  0  0  0  0  0  0
   21.4281   71.9560   -5.9399 C   0  0  1  0  0  0  0  0  0  0  0  0
   19.4446   70.7682   -6.3462 C   0  0  2  0  0  0  0  0  0  0  0  0
   20.7211   72.4719   -9.0627 H   0  0  0  0  0  0  0  0  0  0  0  0
   18.3861   73.1814   -8.2981 H   0  0  0  0  0  0  0  0  0  0  0  0
   16.9458   69.7111   -7.1304 O   0  0  0  0  0  0  0  0  0  0  0  0
   15.5499   69.2819   -2.7588 O   0  0  0  0  0  0  0  0  0  0  0  0
   18.4097   70.3719   -5.4337 N   0  0  0  0  0  0  0  0  0  0  0  0
   16.2525   69.4993   -4.9524 N   0  0  0  0  0  0  0  0  0  0  0  0
   17.1910   69.8527   -5.9309 C   0  0  0  0  0  0  0  0  0  0  0  0
   18.6073   70.4973   -4.0640 C   0  0  0  0  0  0  0  0  0  0  0  0
   17.7034   70.1561   -3.1434 C   0  0  0  0  0  0  0  0  0  0  0  0
   16.4031   69.6062   -3.5793 C   0  0  0  0  0  0  0  0  0  0  0  0
   15.3955   69.1373   -5.2745 H   0  0  0  0  0  0  0  0  0  0  0  0
   22.6290   71.6041   -1.2424 O   0  0  0  0  0  0  0  0  0  0  0  0
   23.3466   70.5577   -0.2407 P   0  0  2  0  0  0  0  0  0  0  0  0
   22.0989   69.8329    0.4930 O   0  0  0  0  0  0  0  0  0  0  0  0
   24.3370   71.1839    0.6979 O   0  0  0  0  0  0  0  0  0  0  0  0
   23.9649   69.4239   -1.2075 O   0  0  0  0  0  0  0  0  0  0  0  0
   24.9338   67.6981    0.0933 O   0  0  0  0  0  0  0  0  0  0  0  0
   25.8339   66.4638   -3.7452 O   0  0  0  0  0  0  0  0  0  0  0  0
   26.0904   69.2756   -2.9954 O   0  0  0  0  0  0  0  0  0  0  0  0
   23.7075   65.1583   -2.2535 O   0  0  0  0  0  0  0  0  0  0  0  0
   25.0572   67.0968   -2.7283 C   0  0  2  0  0  0  0  0  0  0  0  0
   25.8775   68.2103   -2.0765 C   0  0  2  0  0  0  0  0  0  0  0  0
   24.6811   66.0360   -1.6913 C   0  0  1  0  0  0  0  0  0  0  0  0
   25.1696   68.7566   -0.8358 C   0  0  1  0  0  0  0  0  0  0  0  0
   24.0970   66.6702   -0.4323 C   0  0  1  0  0  0  0  0  0  0  0  0
   26.0846   67.1188   -4.4156 H   0  0  0  0  0  0  0  0  0  0  0  0
   26.5389   68.9360   -3.7852 H   0  0  0  0  0  0  0  0  0  0  0  0
   24.0668   64.7481   -3.0558 H   0  0  0  0  0  0  0  0  0  0  0  0
   23.2510   64.6282    0.3526 O   0  0  0  0  0  0  0  0  0  0  0  0
   24.6266   65.7906    1.7511 O   0  0  0  0  0  0  0  0  0  0  0  0
   24.0416   65.6790    0.6842 C   0  0  0  0  0  0  0  0  0  0  0  0
  1  4  1  0
  1 24  1  0
  1  2  1  1
  1  3  2  0
 25 28  1  0
 25 24  1  0
 25 26  1  1
 25 27  2  0
  6 11  1  0
  6 12  1  0
 29 36  1  0
 29 37  1  0
  9  7  1  6
  7 13  1  0
 10  8  1  6
  8 14  1  0
  4  5  1  0
 36 28  1  6
 33 30  1  6
 30 38  1  0
 34 31  1  6
 31 39  1  0
 35 32  1  6
 32 40  1  0
 41 43  1  0
 15 19  2  0
 42 43  2  0
 16 22  2  0
 12 17  1  1
 17 19  1  0
 17 20  1  0
 18 19  1  0
 18 22  1  0
 18 23  1  0
  9 10  1  0
  9 11  1  0
 10 12  1  0
 11  5  1  1
 33 34  1  0
 33 35  1  0
 34 36  1  0
 35 37  1  0
 37 43  1  1
 20 21  2  0
 21 22  1  0
M  CHG  3   2  -1  26  -1  41  -1
M  END
