1
     RDKit          3D

 43 45  0  0  0  0  0  0  0  0999 V2000
   22.7340   71.6285   -3.1658 P   0  0  2  0  0  0  0  0  0  0  0  0
   22.3000   72.0767   -4.6590 O   0  0  0  0  0  0  0  0  0  0  0  0
   24.1231   71.0731   -3.0496 O   0  0  0  0  0  0  0  0  0  0  0  0
   21.5412   70.6423   -2.6941 O   0  0  0  0  0  0  0  0  0  0  0  0
   20.6544   70.1364   -3.6750 C   0  0  0  0  0  0  0  0  0  0  0  0
   18.8989   71.4620   -4.6441 O   0  0  0  0  0  0  0  0  0  0  0  0
   17.1134   70.3065   -2.5303 O   0  0  0  0  0  0  0  0  0  0  0  0
   16.4683   68.8278   -4.7287 O   0  0  0  0  0  0  0  0  0  0  0  0
   18.1874   69.6908   -3.2414 C   0  0  1  0  0  0  0  0  0  0  0  0
   17.7659   69.3812   -4.6623 C   0  0  2  0  0  0  0  0  0  0  0  0
   19.2727   70.7377   -3.4520 C   0  0  1  0  0  0  0  0  0  0  0  0
   17.8537   70.7469   -5.3219 C   0  0  2  0  0  0  0  0  0  0  0  0
   16.4076   69.6568   -2.3839 H   0  0  0  0  0  0  0  0  0  0  0  0
   16.4647   67.9592   -4.2957 H   0  0  0  0  0  0  0  0  0  0  0  0
   15.9704   70.2430   -7.3654 O   0  0  0  0  0  0  0  0  0  0  0  0
   19.2032   70.4402  -10.6447 O   0  0  0  0  0  0  0  0  0  0  0  0
   18.1760   70.6614   -6.7182 N   0  0  0  0  0  0  0  0  0  0  0  0
   17.5825   70.3407   -8.9966 N   0  0  0  0  0  0  0  0  0  0  0  0
   17.1553   70.4040   -7.6637 C   0  0  0  0  0  0  0  0  0  0  0  0
   19.4892   70.8331   -7.1386 C   0  0  0  0  0  0  0  0  0  0  0  0
   19.8811   70.7701   -8.4127 C   0  0  0  0  0  0  0  0  0  0  0  0
   18.8767   70.5041   -9.4633 C   0  0  0  0  0  0  0  0  0  0  0  0
   16.8901   70.1605   -9.6729 H   0  0  0  0  0  0  0  0  0  0  0  0
   22.4675   72.9636   -2.2944 O   0  0  0  0  0  0  0  0  0  0  0  0
   23.4201   74.2301   -1.9745 P   0  0  2  0  0  0  0  0  0  0  0  0
   22.3733   75.3698   -1.4997 O   0  0  0  0  0  0  0  0  0  0  0  0
   24.3042   74.6396   -3.1166 O   0  0  0  0  0  0  0  0  0  0  0  0
   24.2109   73.8181   -0.6301 O   0  0  0  0  0  0  0  0  0  0  0  0
   22.5754   73.3022    1.0033 O   0  0  0  0  0  0  0  0  0  0  0  0
   26.0812   72.5964    3.0719 O   0  0  0  0  0  0  0  0  0  0  0  0
   25.8303   74.9335    1.3371 O   0  0  0  0  0  0  0  0  0  0  0  0
   24.4949   70.3687    2.0860 O   0  0  0  0  0  0  0  0  0  0  0  0
   25.2350   72.6558    1.9237 C   0  0  2  0  0  0  0  0  0  0  0  0
   24.7492   74.0911    1.7197 C   0  0  2  0  0  0  0  0  0  0  0  0
   24.0473   71.7208    2.1627 C   0  0  1  0  0  0  0  0  0  0  0  0
   23.6641   74.1537    0.6439 C   0  0  1  0  0  0  0  0  0  0  0  0
   22.9533   71.9323    1.1201 C   0  0  1  0  0  0  0  0  0  0  0  0
   26.8432   73.1829    2.9429 H   0  0  0  0  0  0  0  0  0  0  0  0
   26.5227   74.8983    2.0151 H   0  0  0  0  0  0  0  0  0  0  0  0
   25.1916   70.2209    2.7445 H   0  0  0  0  0  0  0  0  0  0  0  0
   21.6385   69.9901    1.0927 O   0  0  0  0  0  0  0  0  0  0  0  0
   20.8015   71.7971    2.2033 O   0  0  0  0  0  0  0  0  0  0  0  0
   21.6829   71.2687    1.5422 C   0  0  0  0  0  0  0  0  0  0  0  0
  1  4  1  0
  1 24  1  0
  1  2  1  6
  1  3  2  0
 25 28  1  0
 25 24  1  0
 25 26  1  1
 25 27  2  0
  6 11  1  0
  6 12  1  0
 29 36  1  0
 29 37  1  0
  9  7  1  1
  7 13  1  0
 10  8  1  1
  8 14  1  0
  4  5  1  0
 36 28  1  6
 33 30  1  1
 30 38  1  0
 34 31  1  6
 31 39  1  0
 35 32  1  6
 32 40  1  0
 41 43  1  0
 15 19  2  0
 42 43  2  0
 16 22  2  0
 12 17  1  6
 17 19  1  0
 17 20  1  0
 18 19  1  0
 18 22  1  0
 18 23  1  0
  9 10  1  0
  9 11  1  0
 10 12  1  0
 11  5  1  6
 33 34  1  0
 33 35  1  0
 34 36  1  0
 35 37  1  0
 37 43  1  1
 20 21  2  0
 21 22  1  0
M  CHG  3   2  -1  26  -1  41  -1
M  END
>  <COMPND>  (1) 
    udp_gluA.pdb 

>  <AUTHOR>  (1) 
    GENERATED BY OPEN BABEL 3.1.1

>  <MASTER>  (1) 
        0    0    0    0    0    0    0    0   56    0   56    0

>  <minimizedAffinity>  (1) 
-8.10003

>  <CNNscore>  (1) 
0.9382327199

>  <CNNaffinity>  (1) 
4.9313430786

>  <CNN_VS>  (1) 
4.6267476082

>  <CNNaffinity_variance>  (1) 
0.0344383754

$$$$
2
     RDKit          3D

 43 45  0  0  0  0  0  0  0  0999 V2000
   23.0255   71.7342   -2.6072 P   0  0  2  0  0  0  0  0  0  0  0  0
   23.2989   73.2598   -2.1418 O   0  0  0  0  0  0  0  0  0  0  0  0
   24.2269   71.0092   -3.1392 O   0  0  0  0  0  0  0  0  0  0  0  0
   21.7719   71.8565   -3.6228 O   0  0  0  0  0  0  0  0  0  0  0  0
   20.9238   70.7350   -3.7881 C   0  0  0  0  0  0  0  0  0  0  0  0
   18.9657   71.7542   -4.7394 O   0  0  0  0  0  0  0  0  0  0  0  0
   17.4435   70.5017   -2.4798 O   0  0  0  0  0  0  0  0  0  0  0  0
   16.9134   68.8199   -4.5599 O   0  0  0  0  0  0  0  0  0  0  0  0
   18.5604   69.9923   -3.2090 C   0  0  1  0  0  0  0  0  0  0  0  0
   18.1256   69.5440   -4.5882 C   0  0  2  0  0  0  0  0  0  0  0  0
   19.4839   71.1596   -3.5298 C   0  0  1  0  0  0  0  0  0  0  0  0
   17.9996   70.8668   -5.3246 C   0  0  2  0  0  0  0  0  0  0  0  0
   16.8391   69.7740   -2.2635 H   0  0  0  0  0  0  0  0  0  0  0  0
   17.0458   67.9864   -4.0807 H   0  0  0  0  0  0  0  0  0  0  0  0
   16.0937   70.0782   -7.2539 O   0  0  0  0  0  0  0  0  0  0  0  0
   19.1552   70.4162  -10.6827 O   0  0  0  0  0  0  0  0  0  0  0  0
   18.2717   70.7405   -6.7285 N   0  0  0  0  0  0  0  0  0  0  0  0
   17.6206   70.2464   -8.9596 N   0  0  0  0  0  0  0  0  0  0  0  0
   17.2438   70.3372   -7.6132 C   0  0  0  0  0  0  0  0  0  0  0  0
   19.5434   71.0162   -7.2160 C   0  0  0  0  0  0  0  0  0  0  0  0
   19.8875   70.9252   -8.5021 C   0  0  0  0  0  0  0  0  0  0  0  0
   18.8723   70.5095   -9.4921 C   0  0  0  0  0  0  0  0  0  0  0  0
   16.9224   69.9654   -9.5944 H   0  0  0  0  0  0  0  0  0  0  0  0
   22.3639   71.0666   -1.2921 O   0  0  0  0  0  0  0  0  0  0  0  0
   21.4724   71.7124   -0.1082 P   0  0  2  0  0  0  0  0  0  0  0  0
   20.8289   70.4171    0.6188 O   0  0  0  0  0  0  0  0  0  0  0  0
   20.4654   72.7226   -0.5766 O   0  0  0  0  0  0  0  0  0  0  0  0
   22.5484   72.2810    0.9508 O   0  0  0  0  0  0  0  0  0  0  0  0
   24.3229   71.3926    2.2436 O   0  0  0  0  0  0  0  0  0  0  0  0
   22.4539   73.8697    4.9710 O   0  0  0  0  0  0  0  0  0  0  0  0
   20.8782   72.1908    3.1730 O   0  0  0  0  0  0  0  0  0  0  0  0
   24.9593   74.6816    3.7402 O   0  0  0  0  0  0  0  0  0  0  0  0
   22.8903   73.4485    3.6787 C   0  0  2  0  0  0  0  0  0  0  0  0
   22.2854   72.0823    3.3544 C   0  0  2  0  0  0  0  0  0  0  0  0
   24.4181   73.3625    3.7002 C   0  0  1  0  0  0  0  0  0  0  0  0
   22.9072   71.4957    2.0863 C   0  0  1  0  0  0  0  0  0  0  0  0
   24.9536   72.6529    2.4600 C   0  0  1  0  0  0  0  0  0  0  0  0
   21.4857   73.9315    4.9813 H   0  0  0  0  0  0  0  0  0  0  0  0
   20.4771   72.5626    3.9738 H   0  0  0  0  0  0  0  0  0  0  0  0
   24.6261   75.1442    4.5250 H   0  0  0  0  0  0  0  0  0  0  0  0
   26.6017   70.9946    2.2724 O   0  0  0  0  0  0  0  0  0  0  0  0
   27.2607   73.0320    3.0561 O   0  0  0  0  0  0  0  0  0  0  0  0
   26.3900   72.2828    2.6393 C   0  0  0  0  0  0  0  0  0  0  0  0
  1  4  1  0
  1 24  1  0
  1  2  1  1
  1  3  2  0
 25 28  1  0
 25 24  1  0
 25 26  1  1
 25 27  2  0
  6 11  1  0
  6 12  1  0
 29 36  1  0
 29 37  1  0
  9  7  1  1
  7 13  1  0
 10  8  1  1
  8 14  1  0
  4  5  1  0
 36 28  1  6
 33 30  1  1
 30 38  1  0
 34 31  1  6
 31 39  1  0
 35 32  1  6
 32 40  1  0
 41 43  1  0
 15 19  2  0
 42 43  2  0
 16 22  2  0
 12 17  1  6
 17 19  1  0
 17 20  1  0
 18 19  1  0
 18 22  1  0
 18 23  1  0
  9 10  1  0
  9 11  1  0
 10 12  1  0
 11  5  1  6
 33 34  1  0
 33 35  1  0
 34 36  1  0
 35 37  1  0
 37 43  1  1
 20 21  2  0
 21 22  1  0
M  CHG  3   2  -1  26  -1  41  -1
M  END
>  <COMPND>  (2) 
    udp_gluA.pdb 

>  <AUTHOR>  (2) 
    GENERATED BY OPEN BABEL 3.1.1

>  <MASTER>  (2) 
        0    0    0    0    0    0    0    0   56    0   56    0

>  <minimizedAffinity>  (2) 
-8.21499

>  <CNNscore>  (2) 
0.9275237322

>  <CNNaffinity>  (2) 
4.7606444359

>  <CNN_VS>  (2) 
4.4156107903

>  <CNNaffinity_variance>  (2) 
0.0323112831

$$$$
3
     RDKit          3D

 43 45  0  0  0  0  0  0  0  0999 V2000
   21.5857   72.2854   -4.5487 P   0  0  2  0  0  0  0  0  0  0  0  0
   20.7306   73.6592   -4.5331 O   0  0  0  0  0  0  0  0  0  0  0  0
   22.7195   72.2559   -5.5313 O   0  0  0  0  0  0  0  0  0  0  0  0
   20.4655   71.1326   -4.7337 O   0  0  0  0  0  0  0  0  0  0  0  0
   19.8462   70.5999   -3.5773 C   0  0  0  0  0  0  0  0  0  0  0  0
   18.0753   71.6208   -4.8420 O   0  0  0  0  0  0  0  0  0  0  0  0
   16.1909   70.2791   -2.9340 O   0  0  0  0  0  0  0  0  0  0  0  0
   16.0809   68.6546   -5.1215 O   0  0  0  0  0  0  0  0  0  0  0  0
   17.4315   69.8075   -3.4605 C   0  0  1  0  0  0  0  0  0  0  0  0
   17.2640   69.3957   -4.9078 C   0  0  2  0  0  0  0  0  0  0  0  0
   18.3755   70.9966   -3.5748 C   0  0  1  0  0  0  0  0  0  0  0  0
   17.2491   70.7385   -5.6181 C   0  0  2  0  0  0  0  0  0  0  0  0
   15.5711   69.5369   -2.8519 H   0  0  0  0  0  0  0  0  0  0  0  0
   16.1396   67.8087   -4.6493 H   0  0  0  0  0  0  0  0  0  0  0  0
   15.7030   70.1631   -7.9104 O   0  0  0  0  0  0  0  0  0  0  0  0
   19.3725   70.4586  -10.6837 O   0  0  0  0  0  0  0  0  0  0  0  0
   17.7750   70.6590   -6.9515 N   0  0  0  0  0  0  0  0  0  0  0  0
   17.5322   70.3098   -9.2894 N   0  0  0  0  0  0  0  0  0  0  0  0
   16.9127   70.3634   -8.0338 C   0  0  0  0  0  0  0  0  0  0  0  0
   19.1292   70.8739   -7.1770 C   0  0  0  0  0  0  0  0  0  0  0  0
   19.7051   70.8196   -8.3796 C   0  0  0  0  0  0  0  0  0  0  0  0
   18.8747   70.5156   -9.5634 C   0  0  0  0  0  0  0  0  0  0  0  0
   16.9526   70.1037  -10.0580 H   0  0  0  0  0  0  0  0  0  0  0  0
   22.0293   72.1165   -3.0035 O   0  0  0  0  0  0  0  0  0  0  0  0
   23.4873   72.1630   -2.3066 P   0  0  2  0  0  0  0  0  0  0  0  0
   24.0367   73.6349   -2.6963 O   0  0  0  0  0  0  0  0  0  0  0  0
   24.3970   71.0376   -2.7062 O   0  0  0  0  0  0  0  0  0  0  0  0
   23.1823   72.2479   -0.7247 O   0  0  0  0  0  0  0  0  0  0  0  0
   24.5752   71.1633    0.8541 O   0  0  0  0  0  0  0  0  0  0  0  0
   21.1194   71.7457    3.0419 O   0  0  0  0  0  0  0  0  0  0  0  0
   20.9801   70.8636    0.2604 O   0  0  0  0  0  0  0  0  0  0  0  0
   23.4410   73.4332    3.5042 O   0  0  0  0  0  0  0  0  0  0  0  0
   22.1030   72.0513    2.0534 C   0  0  2  0  0  0  0  0  0  0  0  0
   22.1737   70.9146    1.0334 C   0  0  2  0  0  0  0  0  0  0  0  0
   23.4498   72.2157    2.7612 C   0  0  1  0  0  0  0  0  0  0  0  0
   23.3676   71.0952    0.0948 C   0  0  1  0  0  0  0  0  0  0  0  0
   24.6022   72.2623    1.7621 C   0  0  1  0  0  0  0  0  0  0  0  0
   20.2549   71.6367    2.6153 H   0  0  0  0  0  0  0  0  0  0  0  0
   20.2185   70.7494    0.8496 H   0  0  0  0  0  0  0  0  0  0  0  0
   22.7119   73.4165    4.1437 H   0  0  0  0  0  0  0  0  0  0  0  0
   26.3736   70.8243    2.3062 O   0  0  0  0  0  0  0  0  0  0  0  0
   26.4995   72.9671    3.0756 O   0  0  0  0  0  0  0  0  0  0  0  0
   25.9138   72.0911    2.4569 C   0  0  0  0  0  0  0  0  0  0  0  0
  1  4  1  0
  1 24  1  0
  1  2  1  1
  1  3  2  0
 25 28  1  0
 25 24  1  0
 25 26  1  6
 25 27  2  0
  6 11  1  0
  6 12  1  0
 29 36  1  0
 29 37  1  0
  9  7  1  6
  7 13  1  0
 10  8  1  1
  8 14  1  0
  4  5  1  0
 36 28  1  1
 33 30  1  1
 30 38  1  0
 34 31  1  6
 31 39  1  0
 35 32  1  6
 32 40  1  0
 41 43  1  0
 15 19  2  0
 42 43  2  0
 16 22  2  0
 12 17  1  6
 17 19  1  0
 17 20  1  0
 18 19  1  0
 18 22  1  0
 18 23  1  0
  9 10  1  0
  9 11  1  0
 10 12  1  0
 11  5  1  6
 33 34  1  0
 33 35  1  0
 34 36  1  0
 35 37  1  0
 37 43  1  1
 20 21  2  0
 21 22  1  0
M  CHG  3   2  -1  26  -1  41  -1
M  END
>  <COMPND>  (3) 
    udp_gluA.pdb 

>  <AUTHOR>  (3) 
    GENERATED BY OPEN BABEL 3.1.1

>  <MASTER>  (3) 
        0    0    0    0    0    0    0    0   56    0   56    0

>  <minimizedAffinity>  (3) 
-8.35211

>  <CNNscore>  (3) 
0.9046729207

>  <CNNaffinity>  (3) 
4.8456206322

>  <CNN_VS>  (3) 
4.3837018013

>  <CNNaffinity_variance>  (3) 
0.0573945642

$$$$
4
     RDKit          3D

 43 45  0  0  0  0  0  0  0  0999 V2000
   21.6844   72.0190   -3.1784 P   0  0  2  0  0  0  0  0  0  0  0  0
   22.0552   73.3123   -4.0777 O   0  0  0  0  0  0  0  0  0  0  0  0
   22.8632   71.2677   -2.6328 O   0  0  0  0  0  0  0  0  0  0  0  0
   20.6819   71.1660   -4.1194 O   0  0  0  0  0  0  0  0  0  0  0  0
   19.8770   70.1677   -3.5195 C   0  0  0  0  0  0  0  0  0  0  0  0
   18.1807   71.3963   -4.6987 O   0  0  0  0  0  0  0  0  0  0  0  0
   16.2028   70.0046   -2.9259 O   0  0  0  0  0  0  0  0  0  0  0  0
   16.0224   68.5867   -5.2483 O   0  0  0  0  0  0  0  0  0  0  0  0
   17.4197   69.5097   -3.4853 C   0  0  1  0  0  0  0  0  0  0  0  0
   17.2437   69.2364   -4.9641 C   0  0  2  0  0  0  0  0  0  0  0  0
   18.4315   70.6474   -3.4898 C   0  0  1  0  0  0  0  0  0  0  0  0
   17.3132   70.6348   -5.5537 C   0  0  2  0  0  0  0  0  0  0  0  0
   15.5407   69.2953   -2.9126 H   0  0  0  0  0  0  0  0  0  0  0  0
   16.0275   67.7008   -4.8519 H   0  0  0  0  0  0  0  0  0  0  0  0
   15.7708   70.2741   -7.8919 O   0  0  0  0  0  0  0  0  0  0  0  0
   19.4684   70.6802  -10.6134 O   0  0  0  0  0  0  0  0  0  0  0  0
   17.8473   70.6417   -6.8862 N   0  0  0  0  0  0  0  0  0  0  0  0
   17.6140   70.4757   -9.2451 N   0  0  0  0  0  0  0  0  0  0  0  0
   16.9863   70.4512   -7.9927 C   0  0  0  0  0  0  0  0  0  0  0  0
   19.2083   70.8372   -7.0869 C   0  0  0  0  0  0  0  0  0  0  0  0
   19.7921   70.8582   -8.2867 C   0  0  0  0  0  0  0  0  0  0  0  0
   18.9634   70.6660   -9.4949 C   0  0  0  0  0  0  0  0  0  0  0  0
   17.0353   70.3432  -10.0305 H   0  0  0  0  0  0  0  0  0  0  0  0
   20.6962   72.6297   -2.0545 O   0  0  0  0  0  0  0  0  0  0  0  0
   20.9914   73.6008   -0.7960 P   0  0  2  0  0  0  0  0  0  0  0  0
   19.5543   73.6960   -0.0572 O   0  0  0  0  0  0  0  0  0  0  0  0
   21.5844   74.9287   -1.1687 O   0  0  0  0  0  0  0  0  0  0  0  0
   21.9027   72.7161    0.1986 O   0  0  0  0  0  0  0  0  0  0  0  0
   23.0141   74.1043    1.7628 O   0  0  0  0  0  0  0  0  0  0  0  0
   24.5702   70.3892    2.6816 O   0  0  0  0  0  0  0  0  0  0  0  0
   24.2137   71.1980   -0.1029 O   0  0  0  0  0  0  0  0  0  0  0  0
   22.5613   71.5959    4.4019 O   0  0  0  0  0  0  0  0  0  0  0  0
   23.5763   71.3117    2.2353 C   0  0  2  0  0  0  0  0  0  0  0  0
   24.0948   72.0714    1.0141 C   0  0  2  0  0  0  0  0  0  0  0  0
   23.2835   72.2826    3.3814 C   0  0  1  0  0  0  0  0  0  0  0  0
   23.1579   73.2234    0.6480 C   0  0  1  0  0  0  0  0  0  0  0  0
   22.4489   73.4687    2.9072 C   0  0  1  0  0  0  0  0  0  0  0  0
   24.7726   69.7620    1.9695 H   0  0  0  0  0  0  0  0  0  0  0  0
   24.8066   70.4645    0.1225 H   0  0  0  0  0  0  0  0  0  0  0  0
   23.0816   70.8384    4.7123 H   0  0  0  0  0  0  0  0  0  0  0  0
   22.9879   75.6930    3.4206 O   0  0  0  0  0  0  0  0  0  0  0  0
   22.0168   74.4513    5.0680 O   0  0  0  0  0  0  0  0  0  0  0  0
   22.4469   74.5584    3.9294 C   0  0  0  0  0  0  0  0  0  0  0  0
  1  4  1  0
  1 24  1  0
  1  2  1  6
  1  3  2  0
 25 28  1  0
 25 24  1  0
 25 26  1  1
 25 27  2  0
  6 11  1  0
  6 12  1  0
 29 36  1  0
 29 37  1  0
  9  7  1  6
  7 13  1  0
 10  8  1  1
  8 14  1  0
  4  5  1  0
 36 28  1  1
 33 30  1  1
 30 38  1  0
 34 31  1  6
 31 39  1  0
 35 32  1  1
 32 40  1  0
 41 43  1  0
 15 19  2  0
 42 43  2  0
 16 22  2  0
 12 17  1  6
 17 19  1  0
 17 20  1  0
 18 19  1  0
 18 22  1  0
 18 23  1  0
  9 10  1  0
  9 11  1  0
 10 12  1  0
 11  5  1  6
 33 34  1  0
 33 35  1  0
 34 36  1  0
 35 37  1  0
 37 43  1  1
 20 21  2  0
 21 22  1  0
M  CHG  3   2  -1  26  -1  41  -1
M  END
>  <COMPND>  (4) 
    udp_gluA.pdb 

>  <AUTHOR>  (4) 
    GENERATED BY OPEN BABEL 3.1.1

>  <MASTER>  (4) 
        0    0    0    0    0    0    0    0   56    0   56    0

>  <minimizedAffinity>  (4) 
-6.96825

>  <CNNscore>  (4) 
0.8765538335

>  <CNNaffinity>  (4) 
4.7070574760

>  <CNN_VS>  (4) 
4.1259894371

>  <CNNaffinity_variance>  (4) 
0.0192878582

$$$$
5
     RDKit          3D

 43 45  0  0  0  0  0  0  0  0999 V2000
   22.4227   71.9014   -2.4455 P   0  0  2  0  0  0  0  0  0  0  0  0
   22.5962   73.4544   -2.0250 O   0  0  0  0  0  0  0  0  0  0  0  0
   23.6788   71.2279   -2.9149 O   0  0  0  0  0  0  0  0  0  0  0  0
   21.1981   71.9197   -3.5029 O   0  0  0  0  0  0  0  0  0  0  0  0
   20.4138   70.7501   -3.6494 C   0  0  0  0  0  0  0  0  0  0  0  0
   18.5185   71.7174   -4.7674 O   0  0  0  0  0  0  0  0  0  0  0  0
   16.8367   70.3759   -2.6785 O   0  0  0  0  0  0  0  0  0  0  0  0
   16.5644   68.7119   -4.8216 O   0  0  0  0  0  0  0  0  0  0  0  0
   18.0345   69.9173   -3.3057 C   0  0  1  0  0  0  0  0  0  0  0  0
   17.7473   69.4775   -4.7257 C   0  0  2  0  0  0  0  0  0  0  0  0
   18.9417   71.1208   -3.5223 C   0  0  1  0  0  0  0  0  0  0  0  0
   17.6438   70.8073   -5.4529 C   0  0  2  0  0  0  0  0  0  0  0  0
   16.2410   69.6244   -2.5299 H   0  0  0  0  0  0  0  0  0  0  0  0
   16.6809   67.8756   -4.3432 H   0  0  0  0  0  0  0  0  0  0  0  0
   15.9191   70.1309   -7.5848 O   0  0  0  0  0  0  0  0  0  0  0  0
   19.3142   70.4787  -10.6826 O   0  0  0  0  0  0  0  0  0  0  0  0
   18.0507   70.7139   -6.8264 N   0  0  0  0  0  0  0  0  0  0  0  0
   17.6120   70.3038   -9.1255 N   0  0  0  0  0  0  0  0  0  0  0  0
   17.1057   70.3665   -7.8206 C   0  0  0  0  0  0  0  0  0  0  0  0
   19.3714   70.9663   -7.1772 C   0  0  0  0  0  0  0  0  0  0  0  0
   19.8391   70.9027   -8.4254 C   0  0  0  0  0  0  0  0  0  0  0  0
   18.9169   70.5456   -9.5233 C   0  0  0  0  0  0  0  0  0  0  0  0
   16.9732   70.0619   -9.8346 H   0  0  0  0  0  0  0  0  0  0  0  0
   21.7563   71.2412   -1.1291 O   0  0  0  0  0  0  0  0  0  0  0  0
   22.2697   71.1785    0.4026 P   0  0  2  0  0  0  0  0  0  0  0  0
   23.8711   70.9988    0.2489 O   0  0  0  0  0  0  0  0  0  0  0  0
   21.6051   70.1180    1.2319 O   0  0  0  0  0  0  0  0  0  0  0  0
   22.0802   72.6806    0.9596 O   0  0  0  0  0  0  0  0  0  0  0  0
   21.0853   72.9975    3.0854 O   0  0  0  0  0  0  0  0  0  0  0  0
   20.8102   76.7838    1.4557 O   0  0  0  0  0  0  0  0  0  0  0  0
   20.2329   74.4263   -0.1701 O   0  0  0  0  0  0  0  0  0  0  0  0
   22.8135   76.2096    3.4824 O   0  0  0  0  0  0  0  0  0  0  0  0
   21.3904   75.4977    1.6733 C   0  0  2  0  0  0  0  0  0  0  0  0
   20.4042   74.4118    1.2424 C   0  0  2  0  0  0  0  0  0  0  0  0
   21.7066   75.3679    3.1650 C   0  0  1  0  0  0  0  0  0  0  0  0
   20.8932   73.0275    1.6706 C   0  0  1  0  0  0  0  0  0  0  0  0
   22.0641   73.9315    3.5357 C   0  0  1  0  0  0  0  0  0  0  0  0
   20.6007   76.8891    0.5142 H   0  0  0  0  0  0  0  0  0  0  0  0
   19.9230   75.3018   -0.4489 H   0  0  0  0  0  0  0  0  0  0  0  0
   22.5991   77.1268    3.2511 H   0  0  0  0  0  0  0  0  0  0  0  0
   21.5742   74.8581    5.6340 O   0  0  0  0  0  0  0  0  0  0  0  0
   22.4062   72.7354    5.6030 O   0  0  0  0  0  0  0  0  0  0  0  0
   22.0473   73.7464    5.0182 C   0  0  0  0  0  0  0  0  0  0  0  0
  1  4  1  0
  1 24  1  0
  1  2  1  1
  1  3  2  0
 25 28  1  0
 25 24  1  0
 25 26  1  6
 25 27  2  0
  6 11  1  0
  6 12  1  0
 29 36  1  0
 29 37  1  0
  9  7  1  6
  7 13  1  0
 10  8  1  1
  8 14  1  0
  4  5  1  0
 36 28  1  6
 33 30  1  1
 30 38  1  0
 34 31  1  6
 31 39  1  0
 35 32  1  6
 32 40  1  0
 41 43  1  0
 15 19  2  0
 42 43  2  0
 16 22  2  0
 12 17  1  6
 17 19  1  0
 17 20  1  0
 18 19  1  0
 18 22  1  0
 18 23  1  0
  9 10  1  0
  9 11  1  0
 10 12  1  0
 11  5  1  6
 33 34  1  0
 33 35  1  0
 34 36  1  0
 35 37  1  0
 37 43  1  1
 20 21  2  0
 21 22  1  0
M  CHG  3   2  -1  26  -1  41  -1
M  END
>  <COMPND>  (5) 
    udp_gluA.pdb 

>  <AUTHOR>  (5) 
    GENERATED BY OPEN BABEL 3.1.1

>  <MASTER>  (5) 
        0    0    0    0    0    0    0    0   56    0   56    0

>  <minimizedAffinity>  (5) 
-7.05704

>  <CNNscore>  (5) 
0.8715372682

>  <CNNaffinity>  (5) 
4.6457343102

>  <CNN_VS>  (5) 
4.0489306450

>  <CNNaffinity_variance>  (5) 
0.0480755791

$$$$
6
     RDKit          3D

 43 45  0  0  0  0  0  0  0  0999 V2000
   22.9154   72.7109   -4.0089 P   0  0  2  0  0  0  0  0  0  0  0  0
   23.2516   73.8173   -5.1410 O   0  0  0  0  0  0  0  0  0  0  0  0
   24.0759   71.8538   -3.5962 O   0  0  0  0  0  0  0  0  0  0  0  0
   21.6357   71.9209   -4.6056 O   0  0  0  0  0  0  0  0  0  0  0  0
   21.0329   70.9142   -3.8134 C   0  0  0  0  0  0  0  0  0  0  0  0
   19.0216   71.8533   -4.7356 O   0  0  0  0  0  0  0  0  0  0  0  0
   17.5984   70.6247   -2.3997 O   0  0  0  0  0  0  0  0  0  0  0  0
   17.0569   68.8713   -4.4168 O   0  0  0  0  0  0  0  0  0  0  0  0
   18.7081   70.1250   -3.1464 C   0  0  1  0  0  0  0  0  0  0  0  0
   18.2474   69.6265   -4.4998 C   0  0  2  0  0  0  0  0  0  0  0  0
   19.5896   71.3071   -3.5255 C   0  0  1  0  0  0  0  0  0  0  0  0
   18.0644   70.9242   -5.2682 C   0  0  2  0  0  0  0  0  0  0  0  0
   17.0206   69.8874   -2.1462 H   0  0  0  0  0  0  0  0  0  0  0  0
   17.2256   68.0555   -3.9189 H   0  0  0  0  0  0  0  0  0  0  0  0
   16.1303   70.0223   -7.1182 O   0  0  0  0  0  0  0  0  0  0  0  0
   19.0814   70.3543  -10.6430 O   0  0  0  0  0  0  0  0  0  0  0  0
   18.3005   70.7657   -6.6754 N   0  0  0  0  0  0  0  0  0  0  0  0
   17.6023   70.1875   -8.8718 N   0  0  0  0  0  0  0  0  0  0  0  0
   17.2611   70.3057   -7.5181 C   0  0  0  0  0  0  0  0  0  0  0  0
   19.5486   71.0658   -7.2073 C   0  0  0  0  0  0  0  0  0  0  0  0
   19.8588   70.9482   -8.4999 C   0  0  0  0  0  0  0  0  0  0  0  0
   18.8296   70.4732   -9.4478 C   0  0  0  0  0  0  0  0  0  0  0  0
   16.8955   69.8672   -9.4778 H   0  0  0  0  0  0  0  0  0  0  0  0
   22.2736   73.5946   -2.8172 O   0  0  0  0  0  0  0  0  0  0  0  0
   22.9685   74.5328   -1.6989 P   0  0  2  0  0  0  0  0  0  0  0  0
   22.0301   75.8517   -1.6876 O   0  0  0  0  0  0  0  0  0  0  0  0
   24.4231   74.8109   -1.9458 O   0  0  0  0  0  0  0  0  0  0  0  0
   22.6559   73.7986   -0.2969 O   0  0  0  0  0  0  0  0  0  0  0  0
   23.2735   71.5593    0.1648 O   0  0  0  0  0  0  0  0  0  0  0  0
   20.2008   72.1569    2.8610 O   0  0  0  0  0  0  0  0  0  0  0  0
   19.9833   73.1529    0.1233 O   0  0  0  0  0  0  0  0  0  0  0  0
   22.9614   72.1535    3.7720 O   0  0  0  0  0  0  0  0  0  0  0  0
   21.3164   72.5310    2.0526 C   0  0  2  0  0  0  0  0  0  0  0  0
   20.9951   72.2638    0.5819 C   0  0  2  0  0  0  0  0  0  0  0  0
   22.5212   71.6973    2.4943 C   0  0  1  0  0  0  0  0  0  0  0  0
   22.2402   72.4341   -0.2897 C   0  0  1  0  0  0  0  0  0  0  0  0
   23.6776   71.8226    1.5066 C   0  0  1  0  0  0  0  0  0  0  0  0
   19.4230   72.6740    2.5983 H   0  0  0  0  0  0  0  0  0  0  0  0
   19.1904   73.0504    0.6721 H   0  0  0  0  0  0  0  0  0  0  0  0
   22.2345   72.0791    4.4100 H   0  0  0  0  0  0  0  0  0  0  0  0
   25.6155   70.7375    0.7527 O   0  0  0  0  0  0  0  0  0  0  0  0
   24.7368   70.0377    2.7369 O   0  0  0  0  0  0  0  0  0  0  0  0
   24.7076   70.7703    1.7594 C   0  0  0  0  0  0  0  0  0  0  0  0
  1  4  1  0
  1 24  1  0
  1  2  1  6
  1  3  2  0
 25 28  1  0
 25 24  1  0
 25 26  1  1
 25 27  2  0
  6 11  1  0
  6 12  1  0
 29 36  1  0
 29 37  1  0
  9  7  1  1
  7 13  1  0
 10  8  1  1
  8 14  1  0
  4  5  1  0
 36 28  1  1
 33 30  1  1
 30 38  1  0
 34 31  1  6
 31 39  1  0
 35 32  1  1
 32 40  1  0
 41 43  1  0
 15 19  2  0
 42 43  2  0
 16 22  2  0
 12 17  1  6
 17 19  1  0
 17 20  1  0
 18 19  1  0
 18 22  1  0
 18 23  1  0
  9 10  1  0
  9 11  1  0
 10 12  1  0
 11  5  1  6
 33 34  1  0
 33 35  1  0
 34 36  1  0
 35 37  1  0
 37 43  1  1
 20 21  2  0
 21 22  1  0
M  CHG  3   2  -1  26  -1  41  -1
M  END
>  <COMPND>  (6) 
    udp_gluA.pdb 

>  <AUTHOR>  (6) 
    GENERATED BY OPEN BABEL 3.1.1

>  <MASTER>  (6) 
        0    0    0    0    0    0    0    0   56    0   56    0

>  <minimizedAffinity>  (6) 
-7.93117

>  <CNNscore>  (6) 
0.8084139228

>  <CNNaffinity>  (6) 
4.6303396225

>  <CNN_VS>  (6) 
3.7432310581

>  <CNNaffinity_variance>  (6) 
0.0393636711

$$$$
7
     RDKit          3D

 43 45  0  0  0  0  0  0  0  0999 V2000
   20.6559   71.2686   -1.0283 P   0  0  2  0  0  0  0  0  0  0  0  0
   20.9128   70.4639    0.3520 O   0  0  0  0  0  0  0  0  0  0  0  0
   20.3176   72.7210   -0.8613 O   0  0  0  0  0  0  0  0  0  0  0  0
   19.5503   70.3739   -1.7997 O   0  0  0  0  0  0  0  0  0  0  0  0
   19.2539   70.6812   -3.1496 C   0  0  0  0  0  0  0  0  0  0  0  0
   17.5130   71.5704   -4.5482 O   0  0  0  0  0  0  0  0  0  0  0  0
   15.6180   69.8991   -2.9335 O   0  0  0  0  0  0  0  0  0  0  0  0
   15.9350   68.4180   -5.2012 O   0  0  0  0  0  0  0  0  0  0  0  0
   16.9548   69.6092   -3.3429 C   0  0  1  0  0  0  0  0  0  0  0  0
   16.9902   69.2755   -4.8192 C   0  0  2  0  0  0  0  0  0  0  0  0
   17.7536   70.9043   -3.2897 C   0  0  1  0  0  0  0  0  0  0  0  0
   16.8857   70.6508   -5.4560 C   0  0  2  0  0  0  0  0  0  0  0  0
   15.0882   69.0865   -2.9594 H   0  0  0  0  0  0  0  0  0  0  0  0
   16.0469   67.5558   -4.7699 H   0  0  0  0  0  0  0  0  0  0  0  0
   15.6454   70.1330   -7.9400 O   0  0  0  0  0  0  0  0  0  0  0  0
   19.5437   70.9429  -10.2620 O   0  0  0  0  0  0  0  0  0  0  0  0
   17.5531   70.7192   -6.7252 N   0  0  0  0  0  0  0  0  0  0  0  0
   17.5884   70.5359   -9.0940 N   0  0  0  0  0  0  0  0  0  0  0  0
   16.8387   70.4402   -7.9143 C   0  0  0  0  0  0  0  0  0  0  0  0
   18.8988   71.0607   -6.7837 C   0  0  0  0  0  0  0  0  0  0  0  0
   19.5999   71.1479   -7.9158 C   0  0  0  0  0  0  0  0  0  0  0  0
   18.9283   70.8712   -9.2025 C   0  0  0  0  0  0  0  0  0  0  0  0
   17.1131   70.3442   -9.9346 H   0  0  0  0  0  0  0  0  0  0  0  0
   22.0057   70.9842   -1.8709 O   0  0  0  0  0  0  0  0  0  0  0  0
   23.1624   71.9862   -2.3923 P   0  0  2  0  0  0  0  0  0  0  0  0
   24.2480   70.9848   -3.0549 O   0  0  0  0  0  0  0  0  0  0  0  0
   23.7206   72.8882   -1.3300 O   0  0  0  0  0  0  0  0  0  0  0  0
   22.5015   72.7572   -3.6458 O   0  0  0  0  0  0  0  0  0  0  0  0
   23.2281   74.2425   -5.3414 O   0  0  0  0  0  0  0  0  0  0  0  0
   19.6716   75.9848   -4.1651 O   0  0  0  0  0  0  0  0  0  0  0  0
   21.5209   74.9062   -2.1773 O   0  0  0  0  0  0  0  0  0  0  0  0
   19.8144   74.5016   -6.6612 O   0  0  0  0  0  0  0  0  0  0  0  0
   20.5765   74.9086   -4.4121 C   0  0  2  0  0  0  0  0  0  0  0  0
   21.8297   75.0866   -3.5546 C   0  0  2  0  0  0  0  0  0  0  0  0
   20.9412   74.9290   -5.8982 C   0  0  1  0  0  0  0  0  0  0  0  0
   22.9145   74.0866   -3.9569 C   0  0  1  0  0  0  0  0  0  0  0  0
   22.1137   73.9992   -6.1969 C   0  0  1  0  0  0  0  0  0  0  0  0
   19.4258   75.9918   -3.2266 H   0  0  0  0  0  0  0  0  0  0  0  0
   20.8329   75.5374   -1.9153 H   0  0  0  0  0  0  0  0  0  0  0  0
   19.0611   75.0852   -6.4801 H   0  0  0  0  0  0  0  0  0  0  0  0
   22.3249   75.5089   -7.9795 O   0  0  0  0  0  0  0  0  0  0  0  0
   23.3461   73.4829   -8.2059 O   0  0  0  0  0  0  0  0  0  0  0  0
   22.6702   74.2674   -7.5573 C   0  0  0  0  0  0  0  0  0  0  0  0
  1  4  1  0
  1 24  1  0
  1  2  1  1
  1  3  2  0
 25 28  1  0
 25 24  1  0
 25 26  1  6
 25 27  2  0
  6 11  1  0
  6 12  1  0
 29 36  1  0
 29 37  1  0
  9  7  1  6
  7 13  1  0
 10  8  1  6
  8 14  1  0
  4  5  1  0
 36 28  1  6
 33 30  1  6
 30 38  1  0
 34 31  1  1
 31 39  1  0
 35 32  1  6
 32 40  1  0
 41 43  1  0
 15 19  2  0
 42 43  2  0
 16 22  2  0
 12 17  1  6
 17 19  1  0
 17 20  1  0
 18 19  1  0
 18 22  1  0
 18 23  1  0
  9 10  1  0
  9 11  1  0
 10 12  1  0
 11  5  1  6
 33 34  1  0
 33 35  1  0
 34 36  1  0
 35 37  1  0
 37 43  1  6
 20 21  2  0
 21 22  1  0
M  CHG  3   2  -1  26  -1  41  -1
M  END
>  <COMPND>  (7) 
    udp_gluA.pdb 

>  <AUTHOR>  (7) 
    GENERATED BY OPEN BABEL 3.1.1

>  <MASTER>  (7) 
        0    0    0    0    0    0    0    0   56    0   56    0

>  <minimizedAffinity>  (7) 
-7.73307

>  <CNNscore>  (7) 
0.7527698874

>  <CNNaffinity>  (7) 
4.4498672485

>  <CNN_VS>  (7) 
3.3497259617

>  <CNNaffinity_variance>  (7) 
0.3609685898

$$$$
8
     RDKit          3D

 43 45  0  0  0  0  0  0  0  0999 V2000
   23.5438   72.6057   -3.5935 P   0  0  2  0  0  0  0  0  0  0  0  0
   23.9955   71.1145   -3.1564 O   0  0  0  0  0  0  0  0  0  0  0  0
   24.5638   73.3701   -4.3855 O   0  0  0  0  0  0  0  0  0  0  0  0
   23.0736   73.2918   -2.2057 O   0  0  0  0  0  0  0  0  0  0  0  0
   22.1238   74.3404   -2.2576 C   0  0  0  0  0  0  0  0  0  0  0  0
   21.2113   72.7194   -0.7353 O   0  0  0  0  0  0  0  0  0  0  0  0
   19.1855   74.8099   -0.0161 O   0  0  0  0  0  0  0  0  0  0  0  0
   20.9535   74.9560    2.0549 O   0  0  0  0  0  0  0  0  0  0  0  0
   20.5661   74.9649   -0.3455 C   0  0  1  0  0  0  0  0  0  0  0  0
   21.4346   74.5048    0.8061 C   0  0  2  0  0  0  0  0  0  0  0  0
   20.9077   73.9497   -1.4276 C   0  0  1  0  0  0  0  0  0  0  0  0
   21.3698   72.9935    0.6658 C   0  0  2  0  0  0  0  0  0  0  0  0
   18.9437   75.4482    0.6737 H   0  0  0  0  0  0  0  0  0  0  0  0
   21.0159   75.9237    2.0949 H   0  0  0  0  0  0  0  0  0  0  0  0
   21.5618   70.2409    1.2681 O   0  0  0  0  0  0  0  0  0  0  0  0
   25.9968   70.6250    2.4625 O   0  0  0  0  0  0  0  0  0  0  0  0
   22.5626   72.3479    1.1359 N   0  0  0  0  0  0  0  0  0  0  0  0
   23.7702   70.4351    1.8634 N   0  0  0  0  0  0  0  0  0  0  0  0
   22.5529   70.9596    1.4094 C   0  0  0  0  0  0  0  0  0  0  0  0
   23.7249   73.0870    1.3200 C   0  0  0  0  0  0  0  0  0  0  0  0
   24.8776   72.5729    1.7533 C   0  0  0  0  0  0  0  0  0  0  0  0
   24.9521   71.1300    2.0626 C   0  0  0  0  0  0  0  0  0  0  0  0
   23.7874   69.4710    2.0623 H   0  0  0  0  0  0  0  0  0  0  0  0
   22.1462   72.3502   -4.3644 O   0  0  0  0  0  0  0  0  0  0  0  0
   21.5373   73.0148   -5.7065 P   0  0  2  0  0  0  0  0  0  0  0  0
   22.5207   72.4667   -6.8696 O   0  0  0  0  0  0  0  0  0  0  0  0
   21.4164   74.5103   -5.6528 O   0  0  0  0  0  0  0  0  0  0  0  0
   20.1444   72.2389   -5.9518 O   0  0  0  0  0  0  0  0  0  0  0  0
   19.4569   70.0718   -5.2882 O   0  0  0  0  0  0  0  0  0  0  0  0
   17.4758   70.5174   -8.8861 O   0  0  0  0  0  0  0  0  0  0  0  0
   20.2460   71.4002   -8.6017 O   0  0  0  0  0  0  0  0  0  0  0  0
   16.0226   70.7613   -6.3801 O   0  0  0  0  0  0  0  0  0  0  0  0
   18.0574   70.9503   -7.6564 C   0  0  2  0  0  0  0  0  0  0  0  0
   19.5477   70.6092   -7.6471 C   0  0  2  0  0  0  0  0  0  0  0  0
   17.3392   70.2290   -6.5137 C   0  0  1  0  0  0  0  0  0  0  0  0
   20.1548   70.8470   -6.2637 C   0  0  1  0  0  0  0  0  0  0  0  0
   18.0756   70.4113   -5.1897 C   0  0  1  0  0  0  0  0  0  0  0  0
   17.9165   70.9627   -9.6269 H   0  0  0  0  0  0  0  0  0  0  0  0
   19.8659   71.2544   -9.4819 H   0  0  0  0  0  0  0  0  0  0  0  0
   15.5432   70.6517   -7.2162 H   0  0  0  0  0  0  0  0  0  0  0  0
   18.5480   69.1242   -3.2865 O   0  0  0  0  0  0  0  0  0  0  0  0
   16.4252   69.0196   -4.1122 O   0  0  0  0  0  0  0  0  0  0  0  0
   17.5668   69.4521   -4.1633 C   0  0  0  0  0  0  0  0  0  0  0  0
  1  4  1  0
  1 24  1  0
  1  2  1  1
  1  3  2  0
 25 28  1  0
 25 24  1  0
 25 26  1  6
 25 27  2  0
  6 11  1  0
  6 12  1  0
 29 36  1  0
 29 37  1  0
  9  7  1  1
  7 13  1  0
 10  8  1  1
  8 14  1  0
  4  5  1  0
 36 28  1  1
 33 30  1  6
 30 38  1  0
 34 31  1  6
 31 39  1  0
 35 32  1  1
 32 40  1  0
 41 43  1  0
 15 19  2  0
 42 43  2  0
 16 22  2  0
 12 17  1  6
 17 19  1  0
 17 20  1  0
 18 19  1  0
 18 22  1  0
 18 23  1  0
  9 10  1  0
  9 11  1  0
 10 12  1  0
 11  5  1  1
 33 34  1  0
 33 35  1  0
 34 36  1  0
 35 37  1  0
 37 43  1  1
 20 21  2  0
 21 22  1  0
M  CHG  3   2  -1  26  -1  41  -1
M  END
>  <COMPND>  (8) 
    udp_gluA.pdb 

>  <AUTHOR>  (8) 
    GENERATED BY OPEN BABEL 3.1.1

>  <MASTER>  (8) 
        0    0    0    0    0    0    0    0   56    0   56    0

>  <minimizedAffinity>  (8) 
-7.85357

>  <CNNscore>  (8) 
0.7388129830

>  <CNNaffinity>  (8) 
4.6088156700

>  <CNN_VS>  (8) 
3.4050529003

>  <CNNaffinity_variance>  (8) 
0.0547971725

$$$$
9
     RDKit          3D

 43 45  0  0  0  0  0  0  0  0999 V2000
   23.4225   73.7347   -4.0715 P   0  0  2  0  0  0  0  0  0  0  0  0
   24.2325   72.3388   -4.1912 O   0  0  0  0  0  0  0  0  0  0  0  0
   24.0834   74.9093   -4.7312 O   0  0  0  0  0  0  0  0  0  0  0  0
   23.1416   73.8861   -2.4852 O   0  0  0  0  0  0  0  0  0  0  0  0
   21.8335   73.6387   -2.0036 C   0  0  0  0  0  0  0  0  0  0  0  0
   22.9561   71.7181   -1.0935 O   0  0  0  0  0  0  0  0  0  0  0  0
   20.2288   70.5227   -0.7413 O   0  0  0  0  0  0  0  0  0  0  0  0
   20.8296   71.3876    1.7741 O   0  0  0  0  0  0  0  0  0  0  0  0
   20.6452   71.8811   -0.5997 C   0  0  1  0  0  0  0  0  0  0  0  0
   21.4275   72.0583    0.6844 C   0  0  2  0  0  0  0  0  0  0  0  0
   21.7031   72.1608   -1.6584 C   0  0  1  0  0  0  0  0  0  0  0  0
   22.7810   71.4778    0.3119 C   0  0  2  0  0  0  0  0  0  0  0  0
   19.5527   70.3203   -0.0752 H   0  0  0  0  0  0  0  0  0  0  0  0
   19.9710   71.7944    1.9724 H   0  0  0  0  0  0  0  0  0  0  0  0
   24.6394   70.0812    1.9158 O   0  0  0  0  0  0  0  0  0  0  0  0
   26.8766   73.9570    3.0187 O   0  0  0  0  0  0  0  0  0  0  0  0
   23.8592   72.0972    1.0294 N   0  0  0  0  0  0  0  0  0  0  0  0
   25.7512   72.0130    2.4644 N   0  0  0  0  0  0  0  0  0  0  0  0
   24.7367   71.3049    1.8068 C   0  0  0  0  0  0  0  0  0  0  0  0
   24.0399   73.4731    0.9578 C   0  0  0  0  0  0  0  0  0  0  0  0
   25.0117   74.1338    1.5901 C   0  0  0  0  0  0  0  0  0  0  0  0
   25.9709   73.3804    2.4242 C   0  0  0  0  0  0  0  0  0  0  0  0
   26.3734   71.4831    3.0134 H   0  0  0  0  0  0  0  0  0  0  0  0
   21.9659   73.3610   -4.6644 O   0  0  0  0  0  0  0  0  0  0  0  0
   21.3319   73.5758   -6.1359 P   0  0  2  0  0  0  0  0  0  0  0  0
   22.4290   72.8974   -7.1140 O   0  0  0  0  0  0  0  0  0  0  0  0
   21.0097   75.0048   -6.4650 O   0  0  0  0  0  0  0  0  0  0  0  0
   20.0673   72.5756   -6.1868 O   0  0  0  0  0  0  0  0  0  0  0  0
   19.7132   70.3778   -5.3783 O   0  0  0  0  0  0  0  0  0  0  0  0
   17.6298   70.3073   -8.9452 O   0  0  0  0  0  0  0  0  0  0  0  0
   20.2465   71.5962   -8.7838 O   0  0  0  0  0  0  0  0  0  0  0  0
   16.1977   70.4954   -6.4223 O   0  0  0  0  0  0  0  0  0  0  0  0
   18.1623   70.8956   -7.7585 C   0  0  2  0  0  0  0  0  0  0  0  0
   19.6864   70.7741   -7.7665 C   0  0  2  0  0  0  0  0  0  0  0  0
   17.5753   70.1511   -6.5571 C   0  0  1  0  0  0  0  0  0  0  0  0
   20.2749   71.1830   -6.4155 C   0  0  1  0  0  0  0  0  0  0  0  0
   18.2989   70.5201   -5.2653 C   0  0  1  0  0  0  0  0  0  0  0  0
   17.9889   70.7643   -9.7220 H   0  0  0  0  0  0  0  0  0  0  0  0
   19.8772   71.3424   -9.6439 H   0  0  0  0  0  0  0  0  0  0  0  0
   15.7258   70.2658   -7.2381 H   0  0  0  0  0  0  0  0  0  0  0  0
   18.8549   69.6422   -3.1625 O   0  0  0  0  0  0  0  0  0  0  0  0
   16.9881   68.8127   -4.1755 O   0  0  0  0  0  0  0  0  0  0  0  0
   17.9519   69.5637   -4.1712 C   0  0  0  0  0  0  0  0  0  0  0  0
  1  4  1  0
  1 24  1  0
  1  2  1  1
  1  3  2  0
 25 28  1  0
 25 24  1  0
 25 26  1  6
 25 27  2  0
  6 11  1  0
  6 12  1  0
 29 36  1  0
 29 37  1  0
  9  7  1  6
  7 13  1  0
 10  8  1  1
  8 14  1  0
  4  5  1  0
 36 28  1  1
 33 30  1  6
 30 38  1  0
 34 31  1  6
 31 39  1  0
 35 32  1  1
 32 40  1  0
 41 43  1  0
 15 19  2  0
 42 43  2  0
 16 22  2  0
 12 17  1  1
 17 19  1  0
 17 20  1  0
 18 19  1  0
 18 22  1  0
 18 23  1  0
  9 10  1  0
  9 11  1  0
 10 12  1  0
 11  5  1  1
 33 34  1  0
 33 35  1  0
 34 36  1  0
 35 37  1  0
 37 43  1  1
 20 21  2  0
 21 22  1  0
M  CHG  3   2  -1  26  -1  41  -1
M  END
>  <COMPND>  (9) 
    udp_gluA.pdb 

>  <AUTHOR>  (9) 
    GENERATED BY OPEN BABEL 3.1.1

>  <MASTER>  (9) 
        0    0    0    0    0    0    0    0   56    0   56    0

>  <minimizedAffinity>  (9) 
-7.78443

>  <CNNscore>  (9) 
0.6951403618

>  <CNNaffinity>  (9) 
4.4832487106

>  <CNN_VS>  (9) 
3.1164870262

>  <CNNaffinity_variance>  (9) 
0.1052264422

$$$$
10
     RDKit          3D

 43 45  0  0  0  0  0  0  0  0999 V2000
   21.9510   72.6488   -5.7419 P   0  0  2  0  0  0  0  0  0  0  0  0
   21.4439   74.1261   -5.3185 O   0  0  0  0  0  0  0  0  0  0  0  0
   23.0767   72.6255   -6.7339 O   0  0  0  0  0  0  0  0  0  0  0  0
   20.5971   71.8891   -6.1975 O   0  0  0  0  0  0  0  0  0  0  0  0
   20.0704   72.1592   -7.4837 C   0  0  0  0  0  0  0  0  0  0  0  0
   18.9595   70.0920   -6.9638 O   0  0  0  0  0  0  0  0  0  0  0  0
   18.1908   69.9921   -9.8605 O   0  0  0  0  0  0  0  0  0  0  0  0
   15.9078   70.8885   -8.6687 O   0  0  0  0  0  0  0  0  0  0  0  0
   18.3061   71.1214   -8.9946 C   0  0  1  0  0  0  0  0  0  0  0  0
   17.1378   71.1657   -8.0325 C   0  0  2  0  0  0  0  0  0  0  0  0
   19.4812   70.8771   -8.0577 C   0  0  1  0  0  0  0  0  0  0  0  0
   17.5241   70.1027   -7.0182 C   0  0  2  0  0  0  0  0  0  0  0  0
   17.4464   70.1251  -10.4686 H   0  0  0  0  0  0  0  0  0  0  0  0
   15.7064   71.5938   -9.3043 H   0  0  0  0  0  0  0  0  0  0  0  0
   16.3733   68.1703   -5.3101 O   0  0  0  0  0  0  0  0  0  0  0  0
   15.5819   71.2912   -2.0120 O   0  0  0  0  0  0  0  0  0  0  0  0
   17.0093   70.3830   -5.7078 N   0  0  0  0  0  0  0  0  0  0  0  0
   15.9793   69.7267   -3.6695 N   0  0  0  0  0  0  0  0  0  0  0  0
   16.4514   69.3403   -4.9308 C   0  0  0  0  0  0  0  0  0  0  0  0
   17.0613   71.6771   -5.2043 C   0  0  0  0  0  0  0  0  0  0  0  0
   16.6073   72.0300   -4.0001 C   0  0  0  0  0  0  0  0  0  0  0  0
   16.0085   71.0006   -3.1254 C   0  0  0  0  0  0  0  0  0  0  0  0
   15.5846   69.0185   -3.1110 H   0  0  0  0  0  0  0  0  0  0  0  0
   22.2926   71.9609   -4.3196 O   0  0  0  0  0  0  0  0  0  0  0  0
   23.5723   72.1186   -3.3443 P   0  0  2  0  0  0  0  0  0  0  0  0
   24.5117   73.1738   -4.1345 O   0  0  0  0  0  0  0  0  0  0  0  0
   24.2495   70.8230   -3.0026 O   0  0  0  0  0  0  0  0  0  0  0  0
   23.0182   72.9404   -2.0716 O   0  0  0  0  0  0  0  0  0  0  0  0
   21.2794   72.1370   -0.6786 O   0  0  0  0  0  0  0  0  0  0  0  0
   21.1350   76.2000    0.0555 O   0  0  0  0  0  0  0  0  0  0  0  0
   21.5064   75.1987   -2.6637 O   0  0  0  0  0  0  0  0  0  0  0  0
   22.3092   74.4037    2.0165 O   0  0  0  0  0  0  0  0  0  0  0  0
   21.7558   74.9545   -0.2629 C   0  0  2  0  0  0  0  0  0  0  0  0
   21.1467   74.3927   -1.5477 C   0  0  2  0  0  0  0  0  0  0  0  0
   21.5155   73.9944    0.9043 C   0  0  1  0  0  0  0  0  0  0  0  0
   21.6188   72.9594   -1.7958 C   0  0  1  0  0  0  0  0  0  0  0  0
   21.8943   72.5630    0.5353 C   0  0  1  0  0  0  0  0  0  0  0  0
   21.2746   76.8263   -0.6722 H   0  0  0  0  0  0  0  0  0  0  0  0
   21.2101   76.1097   -2.5130 H   0  0  0  0  0  0  0  0  0  0  0  0
   22.0779   75.3133    2.2614 H   0  0  0  0  0  0  0  0  0  0  0  0
   21.5524   70.3194    1.1276 O   0  0  0  0  0  0  0  0  0  0  0  0
   20.8190   71.9052    2.5925 O   0  0  0  0  0  0  0  0  0  0  0  0
   21.3578   71.5964    1.5403 C   0  0  0  0  0  0  0  0  0  0  0  0
  1  4  1  0
  1 24  1  0
  1  2  1  1
  1  3  2  0
 25 28  1  0
 25 24  1  0
 25 26  1  6
 25 27  2  0
  6 11  1  0
  6 12  1  0
 29 36  1  0
 29 37  1  0
  9  7  1  6
  7 13  1  0
 10  8  1  6
  8 14  1  0
  4  5  1  0
 36 28  1  1
 33 30  1  1
 30 38  1  0
 34 31  1  6
 31 39  1  0
 35 32  1  1
 32 40  1  0
 41 43  1  0
 15 19  2  0
 42 43  2  0
 16 22  2  0
 12 17  1  1
 17 19  1  0
 17 20  1  0
 18 19  1  0
 18 22  1  0
 18 23  1  0
  9 10  1  0
  9 11  1  0
 10 12  1  0
 11  5  1  1
 33 34  1  0
 33 35  1  0
 34 36  1  0
 35 37  1  0
 37 43  1  1
 20 21  2  0
 21 22  1  0
M  CHG  3   2  -1  26  -1  41  -1
M  END
>  <COMPND>  (10) 
    udp_gluA.pdb 

>  <AUTHOR>  (10) 
    GENERATED BY OPEN BABEL 3.1.1

>  <MASTER>  (10) 
        0    0    0    0    0    0    0    0   56    0   56    0

>  <minimizedAffinity>  (10) 
-7.99362

>  <CNNscore>  (10) 
0.6850738525

>  <CNNaffinity>  (10) 
4.4367713928

>  <CNN_VS>  (10) 
3.0395159721

>  <CNNaffinity_variance>  (10) 
0.3911912739

$$$$
11
     RDKit          3D

 43 45  0  0  0  0  0  0  0  0999 V2000
   23.5648   73.6705   -4.1522 P   0  0  2  0  0  0  0  0  0  0  0  0
   22.6990   74.9890   -4.5140 O   0  0  0  0  0  0  0  0  0  0  0  0
   25.0481   73.8866   -4.0807 O   0  0  0  0  0  0  0  0  0  0  0  0
   23.0661   72.5707   -5.2290 O   0  0  0  0  0  0  0  0  0  0  0  0
   21.6752   72.3516   -5.3770 C   0  0  0  0  0  0  0  0  0  0  0  0
   20.6519   70.3645   -6.2612 O   0  0  0  0  0  0  0  0  0  0  0  0
   20.9111   71.6542   -8.9558 O   0  0  0  0  0  0  0  0  0  0  0  0
   18.2878   72.0768   -8.3429 O   0  0  0  0  0  0  0  0  0  0  0  0
   20.6239   72.2523   -7.6916 C   0  0  1  0  0  0  0  0  0  0  0  0
   19.2021   71.9405   -7.2751 C   0  0  2  0  0  0  0  0  0  0  0  0
   21.4345   71.5205   -6.6306 C   0  0  1  0  0  0  0  0  0  0  0  0
   19.3233   70.5064   -6.7886 C   0  0  2  0  0  0  0  0  0  0  0  0
   20.4045   72.1051   -9.6498 H   0  0  0  0  0  0  0  0  0  0  0  0
   18.2463   73.0072   -8.6161 H   0  0  0  0  0  0  0  0  0  0  0  0
   16.6307   69.7947   -7.2573 O   0  0  0  0  0  0  0  0  0  0  0  0
   15.7768   69.3365   -2.7512 O   0  0  0  0  0  0  0  0  0  0  0  0
   18.3754   70.1960   -5.7562 N   0  0  0  0  0  0  0  0  0  0  0  0
   16.2077   69.5682   -5.0125 N   0  0  0  0  0  0  0  0  0  0  0  0
   17.0467   69.8506   -6.0985 C   0  0  0  0  0  0  0  0  0  0  0  0
   18.7650   70.2338   -4.4228 C   0  0  0  0  0  0  0  0  0  0  0  0
   17.9539   69.9619   -3.3986 C   0  0  0  0  0  0  0  0  0  0  0  0
   16.5490   69.5930   -3.6699 C   0  0  0  0  0  0  0  0  0  0  0  0
   15.2773   69.3271   -5.2258 H   0  0  0  0  0  0  0  0  0  0  0  0
   22.8914   73.1611   -2.7739 O   0  0  0  0  0  0  0  0  0  0  0  0
   22.9064   71.7119   -2.0575 P   0  0  2  0  0  0  0  0  0  0  0  0
   24.2710   71.0397   -2.6110 O   0  0  0  0  0  0  0  0  0  0  0  0
   21.6715   70.8928   -2.2988 O   0  0  0  0  0  0  0  0  0  0  0  0
   23.2083   72.0263   -0.5043 O   0  0  0  0  0  0  0  0  0  0  0  0
   24.6589   71.0649    1.1022 O   0  0  0  0  0  0  0  0  0  0  0  0
   21.3189   71.9077    3.3831 O   0  0  0  0  0  0  0  0  0  0  0  0
   21.0359   70.7782    0.7038 O   0  0  0  0  0  0  0  0  0  0  0  0
   23.6831   73.5876    3.5814 O   0  0  0  0  0  0  0  0  0  0  0  0
   22.2588   72.1037    2.3266 C   0  0  2  0  0  0  0  0  0  0  0  0
   22.2653   70.8776    1.4134 C   0  0  2  0  0  0  0  0  0  0  0  0
   23.6397   72.3074    2.9540 C   0  0  1  0  0  0  0  0  0  0  0  0
   23.4159   70.9499    0.4085 C   0  0  1  0  0  0  0  0  0  0  0  0
   24.7442   72.2415    1.9031 C   0  0  1  0  0  0  0  0  0  0  0  0
   20.4337   71.7761    3.0083 H   0  0  0  0  0  0  0  0  0  0  0  0
   20.3014   70.7322    1.3353 H   0  0  0  0  0  0  0  0  0  0  0  0
   22.9849   73.6427    4.2525 H   0  0  0  0  0  0  0  0  0  0  0  0
   26.6207   70.8907    2.2977 O   0  0  0  0  0  0  0  0  0  0  0  0
   26.6309   72.9786    3.2141 O   0  0  0  0  0  0  0  0  0  0  0  0
   26.0847   72.1106    2.5499 C   0  0  0  0  0  0  0  0  0  0  0  0
  1  4  1  0
  1 24  1  0
  1  2  1  6
  1  3  2  0
 25 28  1  0
 25 24  1  0
 25 26  1  6
 25 27  2  0
  6 11  1  0
  6 12  1  0
 29 36  1  0
 29 37  1  0
  9  7  1  6
  7 13  1  0
 10  8  1  6
  8 14  1  0
  4  5  1  0
 36 28  1  6
 33 30  1  1
 30 38  1  0
 34 31  1  6
 31 39  1  0
 35 32  1  6
 32 40  1  0
 41 43  1  0
 15 19  2  0
 42 43  2  0
 16 22  2  0
 12 17  1  1
 17 19  1  0
 17 20  1  0
 18 19  1  0
 18 22  1  0
 18 23  1  0
  9 10  1  0
  9 11  1  0
 10 12  1  0
 11  5  1  1
 33 34  1  0
 33 35  1  0
 34 36  1  0
 35 37  1  0
 37 43  1  1
 20 21  2  0
 21 22  1  0
M  CHG  3   2  -1  26  -1  41  -1
M  END
>  <COMPND>  (11) 
    udp_gluA.pdb 

>  <AUTHOR>  (11) 
    GENERATED BY OPEN BABEL 3.1.1

>  <MASTER>  (11) 
        0    0    0    0    0    0    0    0   56    0   56    0

>  <minimizedAffinity>  (11) 
-8.14735

>  <CNNscore>  (11) 
0.6615941525

>  <CNNaffinity>  (11) 
4.3464860916

>  <CNN_VS>  (11) 
2.8756098747

>  <CNNaffinity_variance>  (11) 
0.1385411024

$$$$
12
     RDKit          3D

 43 45  0  0  0  0  0  0  0  0999 V2000
   22.0088   73.2118   -5.1194 P   0  0  2  0  0  0  0  0  0  0  0  0
   20.8603   74.3062   -5.4390 O   0  0  0  0  0  0  0  0  0  0  0  0
   23.4142   73.7358   -5.1672 O   0  0  0  0  0  0  0  0  0  0  0  0
   21.6781   71.9943   -6.1325 O   0  0  0  0  0  0  0  0  0  0  0  0
   20.8426   72.2498   -7.2466 C   0  0  0  0  0  0  0  0  0  0  0  0
   19.8150   70.1437   -6.7118 O   0  0  0  0  0  0  0  0  0  0  0  0
   19.1755   69.9254   -9.6332 O   0  0  0  0  0  0  0  0  0  0  0  0
   16.8023   70.7366   -8.5628 O   0  0  0  0  0  0  0  0  0  0  0  0
   19.1977   71.0825   -8.7971 C   0  0  1  0  0  0  0  0  0  0  0  0
   17.9890   71.0935   -7.8853 C   0  0  2  0  0  0  0  0  0  0  0  0
   20.3428   70.9241   -7.8062 C   0  0  1  0  0  0  0  0  0  0  0  0
   18.3845   70.0798   -6.8251 C   0  0  2  0  0  0  0  0  0  0  0  0
   18.4518   70.0035  -10.2749 H   0  0  0  0  0  0  0  0  0  0  0  0
   16.5931   71.4131   -9.2266 H   0  0  0  0  0  0  0  0  0  0  0  0
   16.4015   68.4991   -5.5819 O   0  0  0  0  0  0  0  0  0  0  0  0
   16.2194   71.2862   -1.9154 O   0  0  0  0  0  0  0  0  0  0  0  0
   17.8013   70.3693   -5.5456 N   0  0  0  0  0  0  0  0  0  0  0  0
   16.3120   69.8893   -3.7574 N   0  0  0  0  0  0  0  0  0  0  0  0
   16.8120   69.5109   -5.0104 C   0  0  0  0  0  0  0  0  0  0  0  0
   18.2107   71.4908   -4.8346 C   0  0  0  0  0  0  0  0  0  0  0  0
   17.7248   71.8385   -3.6413 C   0  0  0  0  0  0  0  0  0  0  0  0
   16.6871   70.9954   -3.0122 C   0  0  0  0  0  0  0  0  0  0  0  0
   15.6207   69.3082   -3.3654 H   0  0  0  0  0  0  0  0  0  0  0  0
   21.5586   72.6221   -3.6833 O   0  0  0  0  0  0  0  0  0  0  0  0
   21.9128   71.2248   -2.9513 P   0  0  2  0  0  0  0  0  0  0  0  0
   23.5159   71.1041   -3.1406 O   0  0  0  0  0  0  0  0  0  0  0  0
   21.1388   70.0461   -3.4667 O   0  0  0  0  0  0  0  0  0  0  0  0
   21.7098   71.5234   -1.3791 O   0  0  0  0  0  0  0  0  0  0  0  0
   21.3957   73.6048   -0.2935 O   0  0  0  0  0  0  0  0  0  0  0  0
   23.3343   71.4178    2.6266 O   0  0  0  0  0  0  0  0  0  0  0  0
   24.1958   71.2578   -0.1603 O   0  0  0  0  0  0  0  0  0  0  0  0
   20.4757   71.9072    2.8264 O   0  0  0  0  0  0  0  0  0  0  0  0
   22.4715   71.6204    1.5074 C   0  0  2  0  0  0  0  0  0  0  0  0
   23.2702   72.2126    0.3460 C   0  0  2  0  0  0  0  0  0  0  0  0
   21.3607   72.5825    1.9347 C   0  0  1  0  0  0  0  0  0  0  0  0
   22.3426   72.6560   -0.7861 C   0  0  1  0  0  0  0  0  0  0  0  0
   20.5596   73.0770    0.7339 C   0  0  1  0  0  0  0  0  0  0  0  0
   24.0483   70.8095    2.3786 H   0  0  0  0  0  0  0  0  0  0  0  0
   24.7874   70.9719    0.5528 H   0  0  0  0  0  0  0  0  0  0  0  0
   20.9732   71.5872    3.5951 H   0  0  0  0  0  0  0  0  0  0  0  0
   20.1460   74.8049    2.2652 O   0  0  0  0  0  0  0  0  0  0  0  0
   18.7529   74.6537    0.4665 O   0  0  0  0  0  0  0  0  0  0  0  0
   19.7095   74.2472    1.1088 C   0  0  0  0  0  0  0  0  0  0  0  0
  1  4  1  0
  1 24  1  0
  1  2  1  6
  1  3  2  0
 25 28  1  0
 25 24  1  0
 25 26  1  1
 25 27  2  0
  6 11  1  0
  6 12  1  0
 29 36  1  0
 29 37  1  0
  9  7  1  6
  7 13  1  0
 10  8  1  6
  8 14  1  0
  4  5  1  0
 36 28  1  1
 33 30  1  1
 30 38  1  0
 34 31  1  6
 31 39  1  0
 35 32  1  1
 32 40  1  0
 41 43  1  0
 15 19  2  0
 42 43  2  0
 16 22  2  0
 12 17  1  1
 17 19  1  0
 17 20  1  0
 18 19  1  0
 18 22  1  0
 18 23  1  0
  9 10  1  0
  9 11  1  0
 10 12  1  0
 11  5  1  1
 33 34  1  0
 33 35  1  0
 34 36  1  0
 35 37  1  0
 37 43  1  1
 20 21  2  0
 21 22  1  0
M  CHG  3   2  -1  26  -1  41  -1
M  END
>  <COMPND>  (12) 
    udp_gluA.pdb 

>  <AUTHOR>  (12) 
    GENERATED BY OPEN BABEL 3.1.1

>  <MASTER>  (12) 
        0    0    0    0    0    0    0    0   56    0   56    0

>  <minimizedAffinity>  (12) 
-6.65242

>  <CNNscore>  (12) 
0.6503772736

>  <CNNaffinity>  (12) 
4.4375572205

>  <CNN_VS>  (12) 
2.8860864639

>  <CNNaffinity_variance>  (12) 
0.2081389874

$$$$
13
     RDKit          3D

 43 45  0  0  0  0  0  0  0  0999 V2000
   20.1086   74.0856   -5.1490 P   0  0  2  0  0  0  0  0  0  0  0  0
   19.1997   74.4189   -6.4457 O   0  0  0  0  0  0  0  0  0  0  0  0
   21.1955   73.0769   -5.3794 O   0  0  0  0  0  0  0  0  0  0  0  0
   19.0291   73.7064   -4.0049 O   0  0  0  0  0  0  0  0  0  0  0  0
   19.0111   72.3820   -3.5047 C   0  0  0  0  0  0  0  0  0  0  0  0
   17.1138   71.9619   -4.9194 O   0  0  0  0  0  0  0  0  0  0  0  0
   16.1431   70.1250   -2.7572 O   0  0  0  0  0  0  0  0  0  0  0  0
   17.1992   68.3937   -4.5802 O   0  0  0  0  0  0  0  0  0  0  0  0
   17.4776   70.3752   -3.1987 C   0  0  1  0  0  0  0  0  0  0  0  0
   17.7223   69.7047   -4.5340 C   0  0  2  0  0  0  0  0  0  0  0  0
   17.5845   71.8507   -3.5588 C   0  0  1  0  0  0  0  0  0  0  0  0
   17.0195   70.6489   -5.4945 C   0  0  2  0  0  0  0  0  0  0  0  0
   16.0504   69.1883   -2.5215 H   0  0  0  0  0  0  0  0  0  0  0  0
   17.6796   67.8316   -3.9516 H   0  0  0  0  0  0  0  0  0  0  0  0
   15.6138   70.3112   -7.9207 O   0  0  0  0  0  0  0  0  0  0  0  0
   19.4643   70.7220  -10.4204 O   0  0  0  0  0  0  0  0  0  0  0  0
   17.6299   70.6633   -6.7937 N   0  0  0  0  0  0  0  0  0  0  0  0
   17.5331   70.5151   -9.1633 N   0  0  0  0  0  0  0  0  0  0  0  0
   16.8337   70.4841   -7.9496 C   0  0  0  0  0  0  0  0  0  0  0  0
   19.0010   70.8548   -6.9138 C   0  0  0  0  0  0  0  0  0  0  0  0
   19.6534   70.8820   -8.0776 C   0  0  0  0  0  0  0  0  0  0  0  0
   18.8954   70.7018   -9.3331 C   0  0  0  0  0  0  0  0  0  0  0  0
   17.0004   70.3906   -9.9819 H   0  0  0  0  0  0  0  0  0  0  0  0
   20.6305   75.5440   -4.6870 O   0  0  0  0  0  0  0  0  0  0  0  0
   22.0443   76.0162   -4.0608 P   0  0  2  0  0  0  0  0  0  0  0  0
   21.6384   77.2931   -3.1524 O   0  0  0  0  0  0  0  0  0  0  0  0
   23.1073   76.2973   -5.0830 O   0  0  0  0  0  0  0  0  0  0  0  0
   22.4258   74.8647   -2.9974 O   0  0  0  0  0  0  0  0  0  0  0  0
   24.0490   74.5624   -1.2994 O   0  0  0  0  0  0  0  0  0  0  0  0
   24.0772   70.8718   -3.1560 O   0  0  0  0  0  0  0  0  0  0  0  0
   23.9534   73.3246   -4.7382 O   0  0  0  0  0  0  0  0  0  0  0  0
   22.7626   71.2015   -0.5842 O   0  0  0  0  0  0  0  0  0  0  0  0
   23.5022   72.0949   -2.6961 C   0  0  2  0  0  0  0  0  0  0  0  0
   24.2265   73.2759   -3.3426 C   0  0  2  0  0  0  0  0  0  0  0  0
   23.6540   72.1459   -1.1741 C   0  0  1  0  0  0  0  0  0  0  0  0
   23.7960   74.5974   -2.7045 C   0  0  1  0  0  0  0  0  0  0  0  0
   23.3268   73.5326   -0.6278 C   0  0  1  0  0  0  0  0  0  0  0  0
   23.9924   70.8173   -4.1210 H   0  0  0  0  0  0  0  0  0  0  0  0
   24.2238   72.4890   -5.1495 H   0  0  0  0  0  0  0  0  0  0  0  0
   22.9601   70.3146   -0.9237 H   0  0  0  0  0  0  0  0  0  0  0  0
   22.8808   73.1289    1.6393 O   0  0  0  0  0  0  0  0  0  0  0  0
   24.8365   74.1880    1.1365 O   0  0  0  0  0  0  0  0  0  0  0  0
   23.7877   73.6677    0.7870 C   0  0  0  0  0  0  0  0  0  0  0  0
  1  4  1  0
  1 24  1  0
  1  2  1  6
  1  3  2  0
 25 28  1  0
 25 24  1  0
 25 26  1  1
 25 27  2  0
  6 11  1  0
  6 12  1  0
 29 36  1  0
 29 37  1  0
  9  7  1  6
  7 13  1  0
 10  8  1  1
  8 14  1  0
  4  5  1  0
 36 28  1  1
 33 30  1  6
 30 38  1  0
 34 31  1  6
 31 39  1  0
 35 32  1  1
 32 40  1  0
 41 43  1  0
 15 19  2  0
 42 43  2  0
 16 22  2  0
 12 17  1  6
 17 19  1  0
 17 20  1  0
 18 19  1  0
 18 22  1  0
 18 23  1  0
  9 10  1  0
  9 11  1  0
 10 12  1  0
 11  5  1  6
 33 34  1  0
 33 35  1  0
 34 36  1  0
 35 37  1  0
 37 43  1  1
 20 21  2  0
 21 22  1  0
M  CHG  3   2  -1  26  -1  41  -1
M  END
>  <COMPND>  (13) 
    udp_gluA.pdb 

>  <AUTHOR>  (13) 
    GENERATED BY OPEN BABEL 3.1.1

>  <MASTER>  (13) 
        0    0    0    0    0    0    0    0   56    0   56    0

>  <minimizedAffinity>  (13) 
-6.37133

>  <CNNscore>  (13) 
0.5766858459

>  <CNNaffinity>  (13) 
4.3261489868

>  <CNN_VS>  (13) 
2.4948289394

>  <CNNaffinity_variance>  (13) 
0.1562389135

$$$$
14
     RDKit          3D

 43 45  0  0  0  0  0  0  0  0999 V2000
   23.2059   72.5770   -3.9439 P   0  0  2  0  0  0  0  0  0  0  0  0
   24.1611   71.4056   -3.3657 O   0  0  0  0  0  0  0  0  0  0  0  0
   23.8999   73.8759   -4.2320 O   0  0  0  0  0  0  0  0  0  0  0  0
   21.9920   72.6506   -2.8767 O   0  0  0  0  0  0  0  0  0  0  0  0
   21.4953   73.9230   -2.5043 C   0  0  0  0  0  0  0  0  0  0  0  0
   20.7709   72.6094   -0.6262 O   0  0  0  0  0  0  0  0  0  0  0  0
   18.9862   74.9183    0.0631 O   0  0  0  0  0  0  0  0  0  0  0  0
   21.0729   75.2424    1.7884 O   0  0  0  0  0  0  0  0  0  0  0  0
   20.3001   74.9271   -0.4954 C   0  0  1  0  0  0  0  0  0  0  0  0
   21.3231   74.5811    0.5658 C   0  0  2  0  0  0  0  0  0  0  0  0
   20.4144   73.7434   -1.4461 C   0  0  1  0  0  0  0  0  0  0  0  0
   21.1679   73.0737    0.6738 C   0  0  2  0  0  0  0  0  0  0  0  0
   18.8892   75.6658    0.6742 H   0  0  0  0  0  0  0  0  0  0  0  0
   21.1848   76.1988    1.6674 H   0  0  0  0  0  0  0  0  0  0  0  0
   21.3896   70.3243    1.2803 O   0  0  0  0  0  0  0  0  0  0  0  0
   25.9109   70.6831    2.1006 O   0  0  0  0  0  0  0  0  0  0  0  0
   22.3910   72.4224    1.0488 N   0  0  0  0  0  0  0  0  0  0  0  0
   23.6410   70.5058    1.6893 N   0  0  0  0  0  0  0  0  0  0  0  0
   22.3941   71.0364    1.3333 C   0  0  0  0  0  0  0  0  0  0  0  0
   23.5696   73.1539    1.1301 C   0  0  0  0  0  0  0  0  0  0  0  0
   24.7506   72.6342    1.4707 C   0  0  0  0  0  0  0  0  0  0  0  0
   24.8403   71.1930    1.7845 C   0  0  0  0  0  0  0  0  0  0  0  0
   23.6679   69.5431    1.8939 H   0  0  0  0  0  0  0  0  0  0  0  0
   22.5172   71.8817   -5.2304 O   0  0  0  0  0  0  0  0  0  0  0  0
   21.0948   72.1531   -5.9492 P   0  0  2  0  0  0  0  0  0  0  0  0
   21.2976   71.5155   -7.4232 O   0  0  0  0  0  0  0  0  0  0  0  0
   20.6708   73.5934   -5.9514 O   0  0  0  0  0  0  0  0  0  0  0  0
   20.0659   71.1535   -5.2113 O   0  0  0  0  0  0  0  0  0  0  0  0
   17.8246   71.8995   -5.3829 O   0  0  0  0  0  0  0  0  0  0  0  0
   17.4417   68.6645   -2.8419 O   0  0  0  0  0  0  0  0  0  0  0  0
   19.6606   70.5388   -2.5291 O   0  0  0  0  0  0  0  0  0  0  0  0
   16.6280   68.4394   -5.6237 O   0  0  0  0  0  0  0  0  0  0  0  0
   18.0086   69.4220   -3.9110 C   0  0  2  0  0  0  0  0  0  0  0  0
   18.5348   70.7527   -3.3725 C   0  0  2  0  0  0  0  0  0  0  0  0
   16.9130   69.6647   -4.9515 C   0  0  1  0  0  0  0  0  0  0  0  0
   18.9390   71.6842   -4.5161 C   0  0  1  0  0  0  0  0  0  0  0  0
   17.3467   70.6991   -5.9861 C   0  0  1  0  0  0  0  0  0  0  0  0
   18.1198   68.4981   -2.1683 H   0  0  0  0  0  0  0  0  0  0  0  0
   19.4114   69.9483   -1.8014 H   0  0  0  0  0  0  0  0  0  0  0  0
   16.3509   67.7723   -4.9763 H   0  0  0  0  0  0  0  0  0  0  0  0
   15.9158   70.3088   -7.8032 O   0  0  0  0  0  0  0  0  0  0  0  0
   15.5377   72.1866   -6.5663 O   0  0  0  0  0  0  0  0  0  0  0  0
   16.1773   71.1694   -6.7884 C   0  0  0  0  0  0  0  0  0  0  0  0
  1  4  1  0
  1 24  1  0
  1  2  1  1
  1  3  2  0
 25 28  1  0
 25 24  1  0
 25 26  1  6
 25 27  2  0
  6 11  1  0
  6 12  1  0
 29 36  1  0
 29 37  1  0
  9  7  1  1
  7 13  1  0
 10  8  1  1
  8 14  1  0
  4  5  1  0
 36 28  1  6
 33 30  1  1
 30 38  1  0
 34 31  1  1
 31 39  1  0
 35 32  1  6
 32 40  1  0
 41 43  1  0
 15 19  2  0
 42 43  2  0
 16 22  2  0
 12 17  1  6
 17 19  1  0
 17 20  1  0
 18 19  1  0
 18 22  1  0
 18 23  1  0
  9 10  1  0
  9 11  1  0
 10 12  1  0
 11  5  1  6
 33 34  1  0
 33 35  1  0
 34 36  1  0
 35 37  1  0
 37 43  1  6
 20 21  2  0
 21 22  1  0
M  CHG  3   2  -1  26  -1  41  -1
M  END
>  <COMPND>  (14) 
    udp_gluA.pdb 

>  <AUTHOR>  (14) 
    GENERATED BY OPEN BABEL 3.1.1

>  <MASTER>  (14) 
        0    0    0    0    0    0    0    0   56    0   56    0

>  <minimizedAffinity>  (14) 
-7.10221

>  <CNNscore>  (14) 
0.5731810927

>  <CNNaffinity>  (14) 
4.2802834511

>  <CNN_VS>  (14) 
2.4533774853

>  <CNNaffinity_variance>  (14) 
0.0849982947

$$$$
15
     RDKit          3D

 43 45  0  0  0  0  0  0  0  0999 V2000
   20.6176   73.3844   -5.2506 P   0  0  2  0  0  0  0  0  0  0  0  0
   19.2536   74.1160   -4.7783 O   0  0  0  0  0  0  0  0  0  0  0  0
   21.5583   74.2466   -6.0403 O   0  0  0  0  0  0  0  0  0  0  0  0
   20.1017   72.0432   -5.9943 O   0  0  0  0  0  0  0  0  0  0  0  0
   20.0093   72.0465   -7.4071 C   0  0  0  0  0  0  0  0  0  0  0  0
   18.7651   70.1101   -6.7144 O   0  0  0  0  0  0  0  0  0  0  0  0
   18.0766   69.7466   -9.6101 O   0  0  0  0  0  0  0  0  0  0  0  0
   15.8160   70.8881   -8.5990 O   0  0  0  0  0  0  0  0  0  0  0  0
   18.2322   70.9532   -8.8629 C   0  0  1  0  0  0  0  0  0  0  0  0
   17.0410   71.1631   -7.9523 C   0  0  2  0  0  0  0  0  0  0  0  0
   19.3633   70.7452   -7.8650 C   0  0  1  0  0  0  0  0  0  0  0  0
   17.3350   70.1939   -6.8199 C   0  0  2  0  0  0  0  0  0  0  0  0
   17.3592   69.8552  -10.2545 H   0  0  0  0  0  0  0  0  0  0  0  0
   15.6746   71.5322   -9.3111 H   0  0  0  0  0  0  0  0  0  0  0  0
   16.8966   68.5184   -4.5890 O   0  0  0  0  0  0  0  0  0  0  0  0
   15.2755   72.0104   -2.0548 O   0  0  0  0  0  0  0  0  0  0  0  0
   16.7994   70.6391   -5.5646 N   0  0  0  0  0  0  0  0  0  0  0  0
   16.0887   70.2590   -3.3293 N   0  0  0  0  0  0  0  0  0  0  0  0
   16.6183   69.7162   -4.5074 C   0  0  0  0  0  0  0  0  0  0  0  0
   16.4615   71.9755   -5.3896 C   0  0  0  0  0  0  0  0  0  0  0  0
   15.9577   72.4781   -4.2607 C   0  0  0  0  0  0  0  0  0  0  0  0
   15.7367   71.5806   -3.1079 C   0  0  0  0  0  0  0  0  0  0  0  0
   15.9517   69.6354   -2.5799 H   0  0  0  0  0  0  0  0  0  0  0  0
   21.2256   72.8197   -3.8634 O   0  0  0  0  0  0  0  0  0  0  0  0
   20.6944   71.6656   -2.8636 P   0  0  2  0  0  0  0  0  0  0  0  0
   21.4685   70.3419   -3.3822 O   0  0  0  0  0  0  0  0  0  0  0  0
   19.1999   71.5300   -2.8184 O   0  0  0  0  0  0  0  0  0  0  0  0
   21.3790   72.0075   -1.4435 O   0  0  0  0  0  0  0  0  0  0  0  0
   21.7791   70.8664    0.5930 O   0  0  0  0  0  0  0  0  0  0  0  0
   20.4782   74.5506    1.9353 O   0  0  0  0  0  0  0  0  0  0  0  0
   19.1562   73.2446   -0.3188 O   0  0  0  0  0  0  0  0  0  0  0  0
   23.3024   73.8709    2.0471 O   0  0  0  0  0  0  0  0  0  0  0  0
   21.1242   73.6425    1.0431 C   0  0  2  0  0  0  0  0  0  0  0  0
   20.1100   72.6190    0.5318 C   0  0  2  0  0  0  0  0  0  0  0  0
   22.2462   72.9415    1.8123 C   0  0  1  0  0  0  0  0  0  0  0  0
   20.8063   71.4977   -0.2406 C   0  0  1  0  0  0  0  0  0  0  0  0
   22.8038   71.7573    1.0280 C   0  0  1  0  0  0  0  0  0  0  0  0
   19.7611   75.0079    1.4684 H   0  0  0  0  0  0  0  0  0  0  0  0
   18.7107   73.9574    0.1648 H   0  0  0  0  0  0  0  0  0  0  0  0
   22.9607   74.6296    2.5455 H   0  0  0  0  0  0  0  0  0  0  0  0
   23.4219   71.1665    3.2122 O   0  0  0  0  0  0  0  0  0  0  0  0
   24.4408   70.0502    1.5050 O   0  0  0  0  0  0  0  0  0  0  0  0
   23.6506   70.8924    1.9040 C   0  0  0  0  0  0  0  0  0  0  0  0
  1  4  1  0
  1 24  1  0
  1  2  1  1
  1  3  2  0
 25 28  1  0
 25 24  1  0
 25 26  1  6
 25 27  2  0
  6 11  1  0
  6 12  1  0
 29 36  1  0
 29 37  1  0
  9  7  1  6
  7 13  1  0
 10  8  1  6
  8 14  1  0
  4  5  1  0
 36 28  1  6
 33 30  1  1
 30 38  1  0
 34 31  1  6
 31 39  1  0
 35 32  1  6
 32 40  1  0
 41 43  1  0
 15 19  2  0
 42 43  2  0
 16 22  2  0
 12 17  1  1
 17 19  1  0
 17 20  1  0
 18 19  1  0
 18 22  1  0
 18 23  1  0
  9 10  1  0
  9 11  1  0
 10 12  1  0
 11  5  1  1
 33 34  1  0
 33 35  1  0
 34 36  1  0
 35 37  1  0
 37 43  1  1
 20 21  2  0
 21 22  1  0
M  CHG  3   2  -1  26  -1  41  -1
M  END
>  <COMPND>  (15) 
    udp_gluA.pdb 

>  <AUTHOR>  (15) 
    GENERATED BY OPEN BABEL 3.1.1

>  <MASTER>  (15) 
        0    0    0    0    0    0    0    0   56    0   56    0

>  <minimizedAffinity>  (15) 
-6.40957

>  <CNNscore>  (15) 
0.5652730465

>  <CNNaffinity>  (15) 
4.3208060265

>  <CNN_VS>  (15) 
2.4424352646

>  <CNNaffinity_variance>  (15) 
0.1635986269

$$$$
16
     RDKit          3D

 43 45  0  0  0  0  0  0  0  0999 V2000
   19.0055   74.1143   -3.0287 P   0  0  2  0  0  0  0  0  0  0  0  0
   17.8347   75.2208   -3.1834 O   0  0  0  0  0  0  0  0  0  0  0  0
   18.5259   72.7168   -2.7669 O   0  0  0  0  0  0  0  0  0  0  0  0
   19.9874   74.7421   -1.9064 O   0  0  0  0  0  0  0  0  0  0  0  0
   20.1971   74.0160   -0.7091 C   0  0  0  0  0  0  0  0  0  0  0  0
   22.3323   73.4742    0.2526 O   0  0  0  0  0  0  0  0  0  0  0  0
   22.2605   71.0025   -1.4437 O   0  0  0  0  0  0  0  0  0  0  0  0
   21.5274   70.0633    1.0092 O   0  0  0  0  0  0  0  0  0  0  0  0
   21.1896   71.6746   -0.7802 C   0  0  1  0  0  0  0  0  0  0  0  0
   21.2519   71.4158    0.7102 C   0  0  2  0  0  0  0  0  0  0  0  0
   21.4566   73.1717   -0.8550 C   0  0  1  0  0  0  0  0  0  0  0  0
   22.3676   72.3501    1.1462 C   0  0  2  0  0  0  0  0  0  0  0  0
   22.1121   70.0442   -1.4089 H   0  0  0  0  0  0  0  0  0  0  0  0
   20.7877   69.5095    0.7125 H   0  0  0  0  0  0  0  0  0  0  0  0
   19.8832   72.4855    2.4826 O   0  0  0  0  0  0  0  0  0  0  0  0
   21.8269   74.1629    6.3104 O   0  0  0  0  0  0  0  0  0  0  0  0
   22.1957   72.8182    2.4924 N   0  0  0  0  0  0  0  0  0  0  0  0
   20.8535   73.3218    4.3874 N   0  0  0  0  0  0  0  0  0  0  0  0
   20.9046   72.8462    3.0705 C   0  0  0  0  0  0  0  0  0  0  0  0
   23.2977   73.2413    3.2256 C   0  0  0  0  0  0  0  0  0  0  0  0
   23.2333   73.6920    4.4800 C   0  0  0  0  0  0  0  0  0  0  0  0
   21.9214   73.7541    5.1571 C   0  0  0  0  0  0  0  0  0  0  0  0
   19.9650   73.3525    4.8105 H   0  0  0  0  0  0  0  0  0  0  0  0
   19.8538   74.2905   -4.3933 O   0  0  0  0  0  0  0  0  0  0  0  0
   20.5621   73.1978   -5.3514 P   0  0  2  0  0  0  0  0  0  0  0  0
   21.3875   72.2729   -4.3105 O   0  0  0  0  0  0  0  0  0  0  0  0
   21.3976   73.7905   -6.4489 O   0  0  0  0  0  0  0  0  0  0  0  0
   19.3547   72.2578   -5.8624 O   0  0  0  0  0  0  0  0  0  0  0  0
   18.7423   70.0169   -5.4014 O   0  0  0  0  0  0  0  0  0  0  0  0
   17.8202   70.3314   -9.4162 O   0  0  0  0  0  0  0  0  0  0  0  0
   20.2878   71.4920   -8.3682 O   0  0  0  0  0  0  0  0  0  0  0  0
   15.7022   70.3678   -7.4254 O   0  0  0  0  0  0  0  0  0  0  0  0
   17.9822   70.7958   -8.0761 C   0  0  2  0  0  0  0  0  0  0  0  0
   19.4368   70.6119   -7.6430 C   0  0  2  0  0  0  0  0  0  0  0  0
   17.0517   69.9788   -7.1767 C   0  0  1  0  0  0  0  0  0  0  0  0
   19.6004   70.8817   -6.1465 C   0  0  1  0  0  0  0  0  0  0  0  0
   17.3613   70.2081   -5.7002 C   0  0  1  0  0  0  0  0  0  0  0  0
   18.4020   70.8362  -10.0061 H   0  0  0  0  0  0  0  0  0  0  0  0
   20.1889   71.3266   -9.3186 H   0  0  0  0  0  0  0  0  0  0  0  0
   15.4924   70.2269   -8.3619 H   0  0  0  0  0  0  0  0  0  0  0  0
   16.2325   68.1539   -5.6128 O   0  0  0  0  0  0  0  0  0  0  0  0
   16.5647   69.2431   -3.6373 O   0  0  0  0  0  0  0  0  0  0  0  0
   16.6887   69.1790   -4.8512 C   0  0  0  0  0  0  0  0  0  0  0  0
  1  4  1  0
  1 24  1  0
  1  2  1  6
  1  3  2  0
 25 28  1  0
 25 24  1  0
 25 26  1  1
 25 27  2  0
  6 11  1  0
  6 12  1  0
 29 36  1  0
 29 37  1  0
  9  7  1  6
  7 13  1  0
 10  8  1  6
  8 14  1  0
  4  5  1  0
 36 28  1  6
 33 30  1  6
 30 38  1  0
 34 31  1  6
 31 39  1  0
 35 32  1  1
 32 40  1  0
 41 43  1  0
 15 19  2  0
 42 43  2  0
 16 22  2  0
 12 17  1  1
 17 19  1  0
 17 20  1  0
 18 19  1  0
 18 22  1  0
 18 23  1  0
  9 10  1  0
  9 11  1  0
 10 12  1  0
 11  5  1  1
 33 34  1  0
 33 35  1  0
 34 36  1  0
 35 37  1  0
 37 43  1  1
 20 21  2  0
 21 22  1  0
M  CHG  3   2  -1  26  -1  41  -1
M  END
>  <COMPND>  (16) 
    udp_gluA.pdb 

>  <AUTHOR>  (16) 
    GENERATED BY OPEN BABEL 3.1.1

>  <MASTER>  (16) 
        0    0    0    0    0    0    0    0   56    0   56    0

>  <minimizedAffinity>  (16) 
-6.84030

>  <CNNscore>  (16) 
0.5117793083

>  <CNNaffinity>  (16) 
4.1879630089

>  <CNN_VS>  (16) 
2.1433129311

>  <CNNaffinity_variance>  (16) 
0.1746993065

$$$$
17
     RDKit          3D

 43 45  0  0  0  0  0  0  0  0999 V2000
   22.7871   73.9078   -2.3881 P   0  0  2  0  0  0  0  0  0  0  0  0
   23.2344   75.4592   -2.2787 O   0  0  0  0  0  0  0  0  0  0  0  0
   23.7135   72.9329   -1.7225 O   0  0  0  0  0  0  0  0  0  0  0  0
   22.5504   73.6825   -3.9728 O   0  0  0  0  0  0  0  0  0  0  0  0
   22.3006   72.3693   -4.4391 C   0  0  0  0  0  0  0  0  0  0  0  0
   21.0970   71.3500   -6.2530 O   0  0  0  0  0  0  0  0  0  0  0  0
   21.5849   73.8953   -7.7613 O   0  0  0  0  0  0  0  0  0  0  0  0
   19.0043   74.1818   -6.9281 O   0  0  0  0  0  0  0  0  0  0  0  0
   21.3225   73.7050   -6.3708 C   0  0  1  0  0  0  0  0  0  0  0  0
   19.8621   73.3697   -6.1541 C   0  0  2  0  0  0  0  0  0  0  0  0
   22.0127   72.4201   -5.9340 C   0  0  1  0  0  0  0  0  0  0  0  0
   19.8101   71.9076   -6.5636 C   0  0  2  0  0  0  0  0  0  0  0  0
   21.1539   74.7105   -8.0635 H   0  0  0  0  0  0  0  0  0  0  0  0
   19.0735   75.1024   -6.6288 H   0  0  0  0  0  0  0  0  0  0  0  0
   17.1163   71.6991   -7.3860 O   0  0  0  0  0  0  0  0  0  0  0  0
   16.0223   69.0715   -3.7607 O   0  0  0  0  0  0  0  0  0  0  0  0
   18.8001   71.1752   -5.8534 N   0  0  0  0  0  0  0  0  0  0  0  0
   16.5738   70.3914   -5.5791 N   0  0  0  0  0  0  0  0  0  0  0  0
   17.4766   71.1336   -6.3519 C   0  0  0  0  0  0  0  0  0  0  0  0
   19.1246   70.5073   -4.6789 C   0  0  0  0  0  0  0  0  0  0  0  0
   18.2532   69.8038   -3.9532 C   0  0  0  0  0  0  0  0  0  0  0  0
   16.8491   69.7107   -4.4042 C   0  0  0  0  0  0  0  0  0  0  0  0
   15.6457   70.3496   -5.9049 H   0  0  0  0  0  0  0  0  0  0  0  0
   21.2837   73.9209   -1.7944 O   0  0  0  0  0  0  0  0  0  0  0  0
   20.5355   72.9116   -0.7770 P   0  0  2  0  0  0  0  0  0  0  0  0
   20.7762   71.4602   -1.4520 O   0  0  0  0  0  0  0  0  0  0  0  0
   19.0933   73.2460   -0.5273 O   0  0  0  0  0  0  0  0  0  0  0  0
   21.4595   72.9040    0.5453 O   0  0  0  0  0  0  0  0  0  0  0  0
   22.6435   71.1788    1.6550 O   0  0  0  0  0  0  0  0  0  0  0  0
   21.3550   73.4896    4.8280 O   0  0  0  0  0  0  0  0  0  0  0  0
   19.5694   72.9255    2.5857 O   0  0  0  0  0  0  0  0  0  0  0  0
   24.1302   73.6059    3.9703 O   0  0  0  0  0  0  0  0  0  0  0  0
   21.7973   73.2378    3.4942 C   0  0  2  0  0  0  0  0  0  0  0  0
   20.8215   72.2853    2.8028 C   0  0  2  0  0  0  0  0  0  0  0  0
   23.1911   72.6104    3.5686 C   0  0  1  0  0  0  0  0  0  0  0  0
   21.3784   71.8119    1.4594 C   0  0  1  0  0  0  0  0  0  0  0  0
   23.6226   72.0500    2.2165 C   0  0  1  0  0  0  0  0  0  0  0  0
   20.4709   73.8885    4.8058 H   0  0  0  0  0  0  0  0  0  0  0  0
   19.2104   73.2287    3.4340 H   0  0  0  0  0  0  0  0  0  0  0  0
   23.8670   73.9708    4.8296 H   0  0  0  0  0  0  0  0  0  0  0  0
   25.9525   71.8969    2.4397 O   0  0  0  0  0  0  0  0  0  0  0  0
   24.7789   69.9421    2.4189 O   0  0  0  0  0  0  0  0  0  0  0  0
   24.8150   71.1623    2.3663 C   0  0  0  0  0  0  0  0  0  0  0  0
  1  4  1  0
  1 24  1  0
  1  2  1  6
  1  3  2  0
 25 28  1  0
 25 24  1  0
 25 26  1  6
 25 27  2  0
  6 11  1  0
  6 12  1  0
 29 36  1  0
 29 37  1  0
  9  7  1  6
  7 13  1  0
 10  8  1  6
  8 14  1  0
  4  5  1  0
 36 28  1  6
 33 30  1  1
 30 38  1  0
 34 31  1  6
 31 39  1  0
 35 32  1  6
 32 40  1  0
 41 43  1  0
 15 19  2  0
 42 43  2  0
 16 22  2  0
 12 17  1  1
 17 19  1  0
 17 20  1  0
 18 19  1  0
 18 22  1  0
 18 23  1  0
  9 10  1  0
  9 11  1  0
 10 12  1  0
 11  5  1  1
 33 34  1  0
 33 35  1  0
 34 36  1  0
 35 37  1  0
 37 43  1  1
 20 21  2  0
 21 22  1  0
M  CHG  3   2  -1  26  -1  41  -1
M  END
>  <COMPND>  (17) 
    udp_gluA.pdb 

>  <AUTHOR>  (17) 
    GENERATED BY OPEN BABEL 3.1.1

>  <MASTER>  (17) 
        0    0    0    0    0    0    0    0   56    0   56    0

>  <minimizedAffinity>  (17) 
-6.22914

>  <CNNscore>  (17) 
0.5092654228

>  <CNNaffinity>  (17) 
4.1429753304

>  <CNN_VS>  (17) 
2.1098740101

>  <CNNaffinity_variance>  (17) 
0.0369533785

$$$$
18
     RDKit          3D

 43 45  0  0  0  0  0  0  0  0999 V2000
   23.3839   72.4940   -3.0737 P   0  0  2  0  0  0  0  0  0  0  0  0
   24.1499   71.0690   -3.1155 O   0  0  0  0  0  0  0  0  0  0  0  0
   24.2314   73.6796   -3.4314 O   0  0  0  0  0  0  0  0  0  0  0  0
   22.7101   72.5299   -1.6031 O   0  0  0  0  0  0  0  0  0  0  0  0
   23.5588   72.6014   -0.4722 C   0  0  0  0  0  0  0  0  0  0  0  0
   23.9732   71.6375    1.6904 O   0  0  0  0  0  0  0  0  0  0  0  0
   21.4757   70.0375    1.2499 O   0  0  0  0  0  0  0  0  0  0  0  0
   20.6225   72.0305    2.9040 O   0  0  0  0  0  0  0  0  0  0  0  0
   21.7694   71.3796    0.8612 C   0  0  1  0  0  0  0  0  0  0  0  0
   21.7283   72.2952    2.0662 C   0  0  2  0  0  0  0  0  0  0  0  0
   23.2377   71.4427    0.4631 C   0  0  1  0  0  0  0  0  0  0  0  0
   23.0567   71.9922    2.7381 C   0  0  2  0  0  0  0  0  0  0  0  0
   20.5427   69.9723    1.5087 H   0  0  0  0  0  0  0  0  0  0  0  0
   19.8012   72.2394    2.4310 H   0  0  0  0  0  0  0  0  0  0  0  0
   22.4136   72.6220    5.4151 O   0  0  0  0  0  0  0  0  0  0  0  0
   25.1216   76.3515    5.3800 O   0  0  0  0  0  0  0  0  0  0  0  0
   23.5794   73.1219    3.4531 N   0  0  0  0  0  0  0  0  0  0  0  0
   23.7622   74.4795    5.3947 N   0  0  0  0  0  0  0  0  0  0  0  0
   23.1925   73.3486    4.7951 C   0  0  0  0  0  0  0  0  0  0  0  0
   24.4656   73.9897    2.8265 C   0  0  0  0  0  0  0  0  0  0  0  0
   25.0005   75.0635    3.4111 C   0  0  0  0  0  0  0  0  0  0  0  0
   24.6473   75.3722    4.8124 C   0  0  0  0  0  0  0  0  0  0  0  0
   23.5061   74.6591    6.3283 H   0  0  0  0  0  0  0  0  0  0  0  0
   22.1168   72.2535   -4.0482 O   0  0  0  0  0  0  0  0  0  0  0  0
   21.7035   72.9554   -5.4447 P   0  0  2  0  0  0  0  0  0  0  0  0
   22.8062   72.3875   -6.4847 O   0  0  0  0  0  0  0  0  0  0  0  0
   21.6265   74.4535   -5.3818 O   0  0  0  0  0  0  0  0  0  0  0  0
   20.3273   72.2318   -5.8749 O   0  0  0  0  0  0  0  0  0  0  0  0
   19.6410   70.0498   -5.2613 O   0  0  0  0  0  0  0  0  0  0  0  0
   17.6361   70.5884   -8.8332 O   0  0  0  0  0  0  0  0  0  0  0  0
   20.4096   71.4598   -8.5457 O   0  0  0  0  0  0  0  0  0  0  0  0
   16.2004   70.7713   -6.3120 O   0  0  0  0  0  0  0  0  0  0  0  0
   18.2268   70.9895   -7.5970 C   0  0  2  0  0  0  0  0  0  0  0  0
   19.7166   70.6461   -7.6064 C   0  0  2  0  0  0  0  0  0  0  0  0
   17.5152   70.2407   -6.4679 C   0  0  1  0  0  0  0  0  0  0  0  0
   20.3334   70.8482   -6.2217 C   0  0  1  0  0  0  0  0  0  0  0  0
   18.2609   70.3886   -5.1448 C   0  0  1  0  0  0  0  0  0  0  0  0
   18.0725   71.0515   -9.5655 H   0  0  0  0  0  0  0  0  0  0  0  0
   20.0232   71.3367   -9.4266 H   0  0  0  0  0  0  0  0  0  0  0  0
   15.7151   70.6834   -7.1473 H   0  0  0  0  0  0  0  0  0  0  0  0
   16.7260   68.6860   -4.6477 O   0  0  0  0  0  0  0  0  0  0  0  0
   18.2089   69.2593   -3.0133 O   0  0  0  0  0  0  0  0  0  0  0  0
   17.7576   69.4046   -4.1394 C   0  0  0  0  0  0  0  0  0  0  0  0
  1  4  1  0
  1 24  1  0
  1  2  1  1
  1  3  2  0
 25 28  1  0
 25 24  1  0
 25 26  1  6
 25 27  2  0
  6 11  1  0
  6 12  1  0
 29 36  1  0
 29 37  1  0
  9  7  1  1
  7 13  1  0
 10  8  1  1
  8 14  1  0
  4  5  1  0
 36 28  1  1
 33 30  1  6
 30 38  1  0
 34 31  1  6
 31 39  1  0
 35 32  1  1
 32 40  1  0
 41 43  1  0
 15 19  2  0
 42 43  2  0
 16 22  2  0
 12 17  1  6
 17 19  1  0
 17 20  1  0
 18 19  1  0
 18 22  1  0
 18 23  1  0
  9 10  1  0
  9 11  1  0
 10 12  1  0
 11  5  1  6
 33 34  1  0
 33 35  1  0
 34 36  1  0
 35 37  1  0
 37 43  1  1
 20 21  2  0
 21 22  1  0
M  CHG  3   2  -1  26  -1  41  -1
M  END
>  <COMPND>  (18) 
    udp_gluA.pdb 

>  <AUTHOR>  (18) 
    GENERATED BY OPEN BABEL 3.1.1

>  <MASTER>  (18) 
        0    0    0    0    0    0    0    0   56    0   56    0

>  <minimizedAffinity>  (18) 
-7.82389

>  <CNNscore>  (18) 
0.4973089099

>  <CNNaffinity>  (18) 
4.1512999535

>  <CNN_VS>  (18) 
2.0644783974

>  <CNNaffinity_variance>  (18) 
0.1740357578

$$$$
19
     RDKit          3D

 43 45  0  0  0  0  0  0  0  0999 V2000
   23.5945   72.3798   -3.3362 P   0  0  2  0  0  0  0  0  0  0  0  0
   24.1794   70.8754   -3.2201 O   0  0  0  0  0  0  0  0  0  0  0  0
   24.5636   73.3975   -3.8624 O   0  0  0  0  0  0  0  0  0  0  0  0
   22.9934   72.6776   -1.8638 O   0  0  0  0  0  0  0  0  0  0  0  0
   22.8319   71.5936   -0.9675 C   0  0  0  0  0  0  0  0  0  0  0  0
   21.0857   70.9671    0.5609 O   0  0  0  0  0  0  0  0  0  0  0  0
   19.1658   71.9675   -1.5138 O   0  0  0  0  0  0  0  0  0  0  0  0
   19.2422   74.0283    0.2704 O   0  0  0  0  0  0  0  0  0  0  0  0
   20.4518   72.4729   -1.1542 C   0  0  1  0  0  0  0  0  0  0  0  0
   20.3784   73.1951    0.1745 C   0  0  2  0  0  0  0  0  0  0  0  0
   21.3469   71.2865   -0.8229 C   0  0  1  0  0  0  0  0  0  0  0  0
   20.3411   72.0395    1.1599 C   0  0  2  0  0  0  0  0  0  0  0  0
   18.5762   72.7074   -1.7298 H   0  0  0  0  0  0  0  0  0  0  0  0
   19.3136   74.7482   -0.3765 H   0  0  0  0  0  0  0  0  0  0  0  0
   19.0441   73.4983    3.2011 O   0  0  0  0  0  0  0  0  0  0  0  0
   22.7307   73.2704    5.9581 O   0  0  0  0  0  0  0  0  0  0  0  0
   20.9387   72.3754    2.4212 N   0  0  0  0  0  0  0  0  0  0  0  0
   20.8818   73.3843    4.5719 N   0  0  0  0  0  0  0  0  0  0  0  0
   20.2010   73.1119    3.3780 C   0  0  0  0  0  0  0  0  0  0  0  0
   22.2397   71.9752    2.7008 C   0  0  0  0  0  0  0  0  0  0  0  0
   22.8754   72.2423    3.8433 C   0  0  0  0  0  0  0  0  0  0  0  0
   22.1754   73.0081    4.8954 C   0  0  0  0  0  0  0  0  0  0  0  0
   20.3893   73.8976    5.2525 H   0  0  0  0  0  0  0  0  0  0  0  0
   22.2673   72.1846   -4.2379 O   0  0  0  0  0  0  0  0  0  0  0  0
   21.7626   72.9575   -5.5651 P   0  0  2  0  0  0  0  0  0  0  0  0
   22.7955   72.4505   -6.7037 O   0  0  0  0  0  0  0  0  0  0  0  0
   21.6882   74.4497   -5.4179 O   0  0  0  0  0  0  0  0  0  0  0  0
   20.3621   72.2514   -5.9424 O   0  0  0  0  0  0  0  0  0  0  0  0
   19.6530   70.1030   -5.2416 O   0  0  0  0  0  0  0  0  0  0  0  0
   17.5509   70.5736   -8.7669 O   0  0  0  0  0  0  0  0  0  0  0  0
   20.3481   71.3975   -8.5894 O   0  0  0  0  0  0  0  0  0  0  0  0
   16.1965   70.8614   -6.2108 O   0  0  0  0  0  0  0  0  0  0  0  0
   18.1866   70.9999   -7.5618 C   0  0  2  0  0  0  0  0  0  0  0  0
   19.6685   70.6266   -7.6052 C   0  0  2  0  0  0  0  0  0  0  0  0
   17.4955   70.3001   -6.3894 C   0  0  1  0  0  0  0  0  0  0  0  0
   20.3311   70.8580   -6.2464 C   0  0  1  0  0  0  0  0  0  0  0  0
   18.2839   70.4729   -5.0944 C   0  0  1  0  0  0  0  0  0  0  0  0
   17.9735   71.0056   -9.5259 H   0  0  0  0  0  0  0  0  0  0  0  0
   19.9327   71.2556   -9.4541 H   0  0  0  0  0  0  0  0  0  0  0  0
   15.6844   70.7581   -7.0280 H   0  0  0  0  0  0  0  0  0  0  0  0
   18.6737   69.4578   -3.0161 O   0  0  0  0  0  0  0  0  0  0  0  0
   16.7424   68.9079   -4.0963 O   0  0  0  0  0  0  0  0  0  0  0  0
   17.7927   69.5301   -4.0445 C   0  0  0  0  0  0  0  0  0  0  0  0
  1  4  1  0
  1 24  1  0
  1  2  1  1
  1  3  2  0
 25 28  1  0
 25 24  1  0
 25 26  1  6
 25 27  2  0
  6 11  1  0
  6 12  1  0
 29 36  1  0
 29 37  1  0
  9  7  1  1
  7 13  1  0
 10  8  1  6
  8 14  1  0
  4  5  1  0
 36 28  1  1
 33 30  1  6
 30 38  1  0
 34 31  1  6
 31 39  1  0
 35 32  1  1
 32 40  1  0
 41 43  1  0
 15 19  2  0
 42 43  2  0
 16 22  2  0
 12 17  1  1
 17 19  1  0
 17 20  1  0
 18 19  1  0
 18 22  1  0
 18 23  1  0
  9 10  1  0
  9 11  1  0
 10 12  1  0
 11  5  1  1
 33 34  1  0
 33 35  1  0
 34 36  1  0
 35 37  1  0
 37 43  1  1
 20 21  2  0
 21 22  1  0
M  CHG  3   2  -1  26  -1  41  -1
M  END
>  <COMPND>  (19) 
    udp_gluA.pdb 

>  <AUTHOR>  (19) 
    GENERATED BY OPEN BABEL 3.1.1

>  <MASTER>  (19) 
        0    0    0    0    0    0    0    0   56    0   56    0

>  <minimizedAffinity>  (19) 
-7.45403

>  <CNNscore>  (19) 
0.4932883382

>  <CNNaffinity>  (19) 
4.0697402954

>  <CNN_VS>  (19) 
2.0075554848

>  <CNNaffinity_variance>  (19) 
0.2223988324

$$$$
20
     RDKit          3D

 43 45  0  0  0  0  0  0  0  0999 V2000
   22.2682   75.3680   -4.6754 P   0  0  2  0  0  0  0  0  0  0  0  0
   23.7685   74.8675   -5.0177 O   0  0  0  0  0  0  0  0  0  0  0  0
   22.0361   76.8403   -4.8501 O   0  0  0  0  0  0  0  0  0  0  0  0
   21.9931   74.7846   -3.1915 O   0  0  0  0  0  0  0  0  0  0  0  0
   23.0331   74.8557   -2.2335 C   0  0  0  0  0  0  0  0  0  0  0  0
   23.8491   73.2363   -0.6557 O   0  0  0  0  0  0  0  0  0  0  0  0
   23.5687   71.2226   -2.8598 O   0  0  0  0  0  0  0  0  0  0  0  0
   21.3436   70.7676   -1.3504 O   0  0  0  0  0  0  0  0  0  0  0  0
   22.7453   72.3483   -2.5541 C   0  0  1  0  0  0  0  0  0  0  0  0
   21.9030   72.0642   -1.3285 C   0  0  2  0  0  0  0  0  0  0  0  0
   23.6489   73.4725   -2.0662 C   0  0  1  0  0  0  0  0  0  0  0  0
   22.9089   72.2483   -0.2050 C   0  0  2  0  0  0  0  0  0  0  0  0
   23.0135   70.4913   -3.1738 H   0  0  0  0  0  0  0  0  0  0  0  0
   20.7101   70.7012   -2.0827 H   0  0  0  0  0  0  0  0  0  0  0  0
   21.7518   70.5537    1.7356 O   0  0  0  0  0  0  0  0  0  0  0  0
   20.5860   74.1171    4.4166 O   0  0  0  0  0  0  0  0  0  0  0  0
   22.2961   72.7066    1.0095 N   0  0  0  0  0  0  0  0  0  0  0  0
   21.1713   72.3301    3.0685 N   0  0  0  0  0  0  0  0  0  0  0  0
   21.7440   71.7726    1.9178 C   0  0  0  0  0  0  0  0  0  0  0  0
   22.2477   74.0664    1.2917 C   0  0  0  0  0  0  0  0  0  0  0  0
   21.6986   74.5828    2.3929 C   0  0  0  0  0  0  0  0  0  0  0  0
   21.0987   73.6752    3.3928 C   0  0  0  0  0  0  0  0  0  0  0  0
   20.7786   71.6997    3.7148 H   0  0  0  0  0  0  0  0  0  0  0  0
   21.3484   74.4255   -5.6127 O   0  0  0  0  0  0  0  0  0  0  0  0
   21.7388   73.2070   -6.6009 P   0  0  2  0  0  0  0  0  0  0  0  0
   22.6139   72.2285   -5.6537 O   0  0  0  0  0  0  0  0  0  0  0  0
   22.4356   73.6343   -7.8601 O   0  0  0  0  0  0  0  0  0  0  0  0
   20.3547   72.4130   -6.8381 O   0  0  0  0  0  0  0  0  0  0  0  0
   19.9470   70.3000   -5.8489 O   0  0  0  0  0  0  0  0  0  0  0  0
   17.2078   70.3231   -8.9416 O   0  0  0  0  0  0  0  0  0  0  0  0
   19.9213   71.3214   -9.3593 O   0  0  0  0  0  0  0  0  0  0  0  0
   16.3250   70.7638   -6.2071 O   0  0  0  0  0  0  0  0  0  0  0  0
   18.0192   70.8941   -7.9152 C   0  0  2  0  0  0  0  0  0  0  0  0
   19.4920   70.6054   -8.2071 C   0  0  2  0  0  0  0  0  0  0  0  0
   17.6076   70.2652   -6.5821 C   0  0  1  0  0  0  0  0  0  0  0  0
   20.3723   70.9983   -7.0199 C   0  0  1  0  0  0  0  0  0  0  0  0
   18.6040   70.6013   -5.4764 C   0  0  1  0  0  0  0  0  0  0  0  0
   17.4515   70.7078   -9.7982 H   0  0  0  0  0  0  0  0  0  0  0  0
   19.3668   71.0771  -10.1165 H   0  0  0  0  0  0  0  0  0  0  0  0
   15.6814   70.5566   -6.9026 H   0  0  0  0  0  0  0  0  0  0  0  0
   19.3188   69.9787   -3.3309 O   0  0  0  0  0  0  0  0  0  0  0  0
   17.4869   68.9097   -4.1679 O   0  0  0  0  0  0  0  0  0  0  0  0
   18.3841   69.7314   -4.2817 C   0  0  0  0  0  0  0  0  0  0  0  0
  1  4  1  0
  1 24  1  0
  1  2  1  6
  1  3  2  0
 25 28  1  0
 25 24  1  0
 25 26  1  1
 25 27  2  0
  6 11  1  0
  6 12  1  0
 29 36  1  0
 29 37  1  0
  9  7  1  1
  7 13  1  0
 10  8  1  6
  8 14  1  0
  4  5  1  0
 36 28  1  1
 33 30  1  6
 30 38  1  0
 34 31  1  6
 31 39  1  0
 35 32  1  1
 32 40  1  0
 41 43  1  0
 15 19  2  0
 42 43  2  0
 16 22  2  0
 12 17  1  1
 17 19  1  0
 17 20  1  0
 18 19  1  0
 18 22  1  0
 18 23  1  0
  9 10  1  0
  9 11  1  0
 10 12  1  0
 11  5  1  1
 33 34  1  0
 33 35  1  0
 34 36  1  0
 35 37  1  0
 37 43  1  1
 20 21  2  0
 21 22  1  0
M  CHG  3   2  -1  26  -1  41  -1
M  END
>  <COMPND>  (20) 
    udp_gluA.pdb 

>  <AUTHOR>  (20) 
    GENERATED BY OPEN BABEL 3.1.1

>  <MASTER>  (20) 
        0    0    0    0    0    0    0    0   56    0   56    0

>  <minimizedAffinity>  (20) 
-6.64469

>  <CNNscore>  (20) 
0.4903817773

>  <CNNaffinity>  (20) 
4.2640638351

>  <CNN_VS>  (20) 
2.0910191536

>  <CNNaffinity_variance>  (20) 
0.0665600747

$$$$
21
     RDKit          3D

 43 45  0  0  0  0  0  0  0  0999 V2000
   22.7767   71.7828   -2.8415 P   0  0  2  0  0  0  0  0  0  0  0  0
   22.7205   73.3678   -2.5196 O   0  0  0  0  0  0  0  0  0  0  0  0
   24.1212   71.2701   -3.2674 O   0  0  0  0  0  0  0  0  0  0  0  0
   21.5721   71.5579   -3.8980 O   0  0  0  0  0  0  0  0  0  0  0  0
   20.7171   70.4434   -3.7214 C   0  0  0  0  0  0  0  0  0  0  0  0
   18.8565   71.6039   -4.7057 O   0  0  0  0  0  0  0  0  0  0  0  0
   17.1816   70.3632   -2.5501 O   0  0  0  0  0  0  0  0  0  0  0  0
   16.6394   68.7863   -4.7077 O   0  0  0  0  0  0  0  0  0  0  0  0
   18.2957   69.8165   -3.2560 C   0  0  1  0  0  0  0  0  0  0  0  0
   17.8901   69.4410   -4.6655 C   0  0  2  0  0  0  0  0  0  0  0  0
   19.2941   70.9399   -3.5004 C   0  0  1  0  0  0  0  0  0  0  0  0
   17.8659   70.7932   -5.3576 C   0  0  2  0  0  0  0  0  0  0  0  0
   16.5299   69.6640   -2.3824 H   0  0  0  0  0  0  0  0  0  0  0  0
   16.7070   67.9307   -4.2545 H   0  0  0  0  0  0  0  0  0  0  0  0
   16.0094   70.1136   -7.3745 O   0  0  0  0  0  0  0  0  0  0  0  0
   19.1990   70.4647  -10.6832 O   0  0  0  0  0  0  0  0  0  0  0  0
   18.1843   70.6997   -6.7542 N   0  0  0  0  0  0  0  0  0  0  0  0
   17.6000   70.2881   -9.0204 N   0  0  0  0  0  0  0  0  0  0  0  0
   17.1781   70.3507   -7.6858 C   0  0  0  0  0  0  0  0  0  0  0  0
   19.4795   70.9538   -7.1888 C   0  0  0  0  0  0  0  0  0  0  0  0
   19.8666   70.8903   -8.4643 C   0  0  0  0  0  0  0  0  0  0  0  0
   18.8765   70.5315   -9.5009 C   0  0  0  0  0  0  0  0  0  0  0  0
   16.9176   70.0450   -9.6871 H   0  0  0  0  0  0  0  0  0  0  0  0
   22.2005   71.1166   -1.4862 O   0  0  0  0  0  0  0  0  0  0  0  0
   21.3538   71.7556   -0.2661 P   0  0  2  0  0  0  0  0  0  0  0  0
   20.6865   70.4605    0.4392 O   0  0  0  0  0  0  0  0  0  0  0  0
   20.3685   72.8080   -0.6851 O   0  0  0  0  0  0  0  0  0  0  0  0
   22.4684   72.2623    0.7843 O   0  0  0  0  0  0  0  0  0  0  0  0
   24.2019   71.3492    2.1148 O   0  0  0  0  0  0  0  0  0  0  0  0
   22.2543   73.7828    4.8262 O   0  0  0  0  0  0  0  0  0  0  0  0
   20.7317   72.1372    2.9532 O   0  0  0  0  0  0  0  0  0  0  0  0
   24.7967   74.6112    3.6857 O   0  0  0  0  0  0  0  0  0  0  0  0
   22.7290   73.3828    3.5407 C   0  0  2  0  0  0  0  0  0  0  0  0
   22.1326   72.0234    3.1751 C   0  0  2  0  0  0  0  0  0  0  0  0
   24.2554   73.2939    3.6069 C   0  0  1  0  0  0  0  0  0  0  0  0
   22.7918   71.4573    1.9167 C   0  0  1  0  0  0  0  0  0  0  0  0
   24.8273   72.6046    2.3716 C   0  0  1  0  0  0  0  0  0  0  0  0
   21.2863   73.8460    4.8084 H   0  0  0  0  0  0  0  0  0  0  0  0
   20.3070   72.4961    3.7477 H   0  0  0  0  0  0  0  0  0  0  0  0
   24.4404   75.0610    4.4677 H   0  0  0  0  0  0  0  0  0  0  0  0
   26.4682   70.9331    2.2491 O   0  0  0  0  0  0  0  0  0  0  0  0
   27.1238   72.9804    3.0093 O   0  0  0  0  0  0  0  0  0  0  0  0
   26.2572   72.2290    2.5879 C   0  0  0  0  0  0  0  0  0  0  0  0
  1  4  1  0
  1 24  1  0
  1  2  1  1
  1  3  2  0
 25 28  1  0
 25 24  1  0
 25 26  1  1
 25 27  2  0
  6 11  1  0
  6 12  1  0
 29 36  1  0
 29 37  1  0
  9  7  1  1
  7 13  1  0
 10  8  1  1
  8 14  1  0
  4  5  1  0
 36 28  1  6
 33 30  1  1
 30 38  1  0
 34 31  1  6
 31 39  1  0
 35 32  1  6
 32 40  1  0
 41 43  1  0
 15 19  2  0
 42 43  2  0
 16 22  2  0
 12 17  1  6
 17 19  1  0
 17 20  1  0
 18 19  1  0
 18 22  1  0
 18 23  1  0
  9 10  1  0
  9 11  1  0
 10 12  1  0
 11  5  1  6
 33 34  1  0
 33 35  1  0
 34 36  1  0
 35 37  1  0
 37 43  1  1
 20 21  2  0
 21 22  1  0
M  CHG  3   2  -1  26  -1  41  -1
M  END
>  <COMPND>  (21) 
    udp_gluA.pdb 

>  <AUTHOR>  (21) 
    GENERATED BY OPEN BABEL 3.1.1

>  <MASTER>  (21) 
        0    0    0    0    0    0    0    0   56    0   56    0

>  <minimizedAffinity>  (21) 
-8.13589

>  <CNNscore>  (21) 
0.9351183772

>  <CNNaffinity>  (21) 
4.8286561966

>  <CNN_VS>  (21) 
4.5153651237

>  <CNNaffinity_variance>  (21) 
0.0313688032

$$$$
22
     RDKit          3D

 43 45  0  0  0  0  0  0  0  0999 V2000
   22.9147   71.7535   -2.3225 P   0  0  2  0  0  0  0  0  0  0  0  0
   24.1656   71.0208   -3.0417 O   0  0  0  0  0  0  0  0  0  0  0  0
   22.4053   71.0705   -1.0872 O   0  0  0  0  0  0  0  0  0  0  0  0
   21.8379   71.9437   -3.5150 O   0  0  0  0  0  0  0  0  0  0  0  0
   20.9873   70.8587   -3.8373 C   0  0  0  0  0  0  0  0  0  0  0  0
   18.9986   71.8263   -4.7790 O   0  0  0  0  0  0  0  0  0  0  0  0
   17.5299   70.5880   -2.4766 O   0  0  0  0  0  0  0  0  0  0  0  0
   17.0014   68.8602   -4.5190 O   0  0  0  0  0  0  0  0  0  0  0  0
   18.6456   70.0853   -3.2121 C   0  0  1  0  0  0  0  0  0  0  0  0
   18.2000   69.6048   -4.5770 C   0  0  2  0  0  0  0  0  0  0  0  0
   19.5437   71.2626   -3.5664 C   0  0  1  0  0  0  0  0  0  0  0  0
   18.0405   70.9117   -5.3349 C   0  0  2  0  0  0  0  0  0  0  0  0
   16.9415   69.8538   -2.2390 H   0  0  0  0  0  0  0  0  0  0  0  0
   17.1551   68.0379   -4.0269 H   0  0  0  0  0  0  0  0  0  0  0  0
   16.1323   70.0234   -7.2180 O   0  0  0  0  0  0  0  0  0  0  0  0
   19.1302   70.3871  -10.7000 O   0  0  0  0  0  0  0  0  0  0  0  0
   18.2956   70.7650   -6.7399 N   0  0  0  0  0  0  0  0  0  0  0  0
   17.6276   70.2044   -8.9503 N   0  0  0  0  0  0  0  0  0  0  0  0
   17.2681   70.3111   -7.6003 C   0  0  0  0  0  0  0  0  0  0  0  0
   19.5505   71.0707   -7.2526 C   0  0  0  0  0  0  0  0  0  0  0  0
   19.8782   70.9641   -8.5418 C   0  0  0  0  0  0  0  0  0  0  0  0
   18.8622   70.4959   -9.5073 C   0  0  0  0  0  0  0  0  0  0  0  0
   16.9293   69.8884   -9.5683 H   0  0  0  0  0  0  0  0  0  0  0  0
   23.4621   73.2557   -2.0842 O   0  0  0  0  0  0  0  0  0  0  0  0
   23.7008   74.0949   -0.7232 P   0  0  2  0  0  0  0  0  0  0  0  0
   24.6115   75.3408   -1.2118 O   0  0  0  0  0  0  0  0  0  0  0  0
   24.2984   73.2941    0.3973 O   0  0  0  0  0  0  0  0  0  0  0  0
   22.2642   74.7476   -0.3875 O   0  0  0  0  0  0  0  0  0  0  0  0
   20.0844   74.1996   -1.1339 O   0  0  0  0  0  0  0  0  0  0  0  0
   19.8415   78.3080   -0.7735 O   0  0  0  0  0  0  0  0  0  0  0  0
   22.2161   77.0609   -1.9311 O   0  0  0  0  0  0  0  0  0  0  0  0
   18.6099   76.5926    1.2244 O   0  0  0  0  0  0  0  0  0  0  0  0
   20.2987   76.9959   -0.4460 C   0  0  2  0  0  0  0  0  0  0  0  0
   20.9969   76.3798   -1.6586 C   0  0  2  0  0  0  0  0  0  0  0  0
   19.0823   76.1566   -0.0489 C   0  0  1  0  0  0  0  0  0  0  0  0
   21.2957   74.8984   -1.4238 C   0  0  1  0  0  0  0  0  0  0  0  0
   19.4339   74.6745    0.0427 C   0  0  1  0  0  0  0  0  0  0  0  0
   20.5975   78.8597   -1.0291 H   0  0  0  0  0  0  0  0  0  0  0  0
   22.0341   78.0015   -2.0808 H   0  0  0  0  0  0  0  0  0  0  0  0
   18.3828   77.5345    1.1798 H   0  0  0  0  0  0  0  0  0  0  0  0
   18.1105   73.0329   -0.9845 O   0  0  0  0  0  0  0  0  0  0  0  0
   17.3732   73.8687    1.0047 O   0  0  0  0  0  0  0  0  0  0  0  0
   18.1970   73.8386    0.1028 C   0  0  0  0  0  0  0  0  0  0  0  0
  1  4  1  0
  1 24  1  0
  1  2  1  6
  1  3  2  0
 25 28  1  0
 25 24  1  0
 25 26  1  6
 25 27  2  0
  6 11  1  0
  6 12  1  0
 29 36  1  0
 29 37  1  0
  9  7  1  1
  7 13  1  0
 10  8  1  1
  8 14  1  0
  4  5  1  0
 36 28  1  1
 33 30  1  6
 30 38  1  0
 34 31  1  1
 31 39  1  0
 35 32  1  1
 32 40  1  0
 41 43  1  0
 15 19  2  0
 42 43  2  0
 16 22  2  0
 12 17  1  6
 17 19  1  0
 17 20  1  0
 18 19  1  0
 18 22  1  0
 18 23  1  0
  9 10  1  0
  9 11  1  0
 10 12  1  0
 11  5  1  6
 33 34  1  0
 33 35  1  0
 34 36  1  0
 35 37  1  0
 37 43  1  6
 20 21  2  0
 21 22  1  0
M  CHG  3   2  -1  26  -1  41  -1
M  END
>  <COMPND>  (22) 
    udp_gluA.pdb 

>  <AUTHOR>  (22) 
    GENERATED BY OPEN BABEL 3.1.1

>  <MASTER>  (22) 
        0    0    0    0    0    0    0    0   56    0   56    0

>  <minimizedAffinity>  (22) 
-6.00153

>  <CNNscore>  (22) 
0.9015945196

>  <CNNaffinity>  (22) 
4.6646990776

>  <CNN_VS>  (22) 
4.2056670189

>  <CNNaffinity_variance>  (22) 
0.1472889781

$$$$
23
     RDKit          3D

 43 45  0  0  0  0  0  0  0  0999 V2000
   21.1643   72.1132   -1.6193 P   0  0  2  0  0  0  0  0  0  0  0  0
   22.4010   71.3923   -0.8644 O   0  0  0  0  0  0  0  0  0  0  0  0
   20.4636   73.1714   -0.8188 O   0  0  0  0  0  0  0  0  0  0  0  0
   20.2407   70.8810   -2.1158 O   0  0  0  0  0  0  0  0  0  0  0  0
   19.7854   70.8747   -3.4564 C   0  0  0  0  0  0  0  0  0  0  0  0
   17.9826   71.8009   -4.7486 O   0  0  0  0  0  0  0  0  0  0  0  0
   16.1425   70.3659   -2.8655 O   0  0  0  0  0  0  0  0  0  0  0  0
   16.1487   68.7351   -5.0510 O   0  0  0  0  0  0  0  0  0  0  0  0
   17.4134   69.9585   -3.3730 C   0  0  1  0  0  0  0  0  0  0  0  0
   17.2885   69.5368   -4.8217 C   0  0  2  0  0  0  0  0  0  0  0  0
   18.2962   71.1948   -3.4760 C   0  0  1  0  0  0  0  0  0  0  0  0
   17.2146   70.8761   -5.5348 C   0  0  2  0  0  0  0  0  0  0  0  0
   15.5609   69.5927   -2.7908 H   0  0  0  0  0  0  0  0  0  0  0  0
   16.2442   67.8940   -4.5763 H   0  0  0  0  0  0  0  0  0  0  0  0
   15.7445   70.1740   -7.8419 O   0  0  0  0  0  0  0  0  0  0  0  0
   19.4225   70.7024  -10.5690 O   0  0  0  0  0  0  0  0  0  0  0  0
   17.7631   70.8222   -6.8604 N   0  0  0  0  0  0  0  0  0  0  0  0
   17.5780   70.4368   -9.1978 N   0  0  0  0  0  0  0  0  0  0  0  0
   16.9389   70.4576   -7.9511 C   0  0  0  0  0  0  0  0  0  0  0  0
   19.1020   71.1297   -7.0699 C   0  0  0  0  0  0  0  0  0  0  0  0
   19.6970   71.1056   -8.2641 C   0  0  0  0  0  0  0  0  0  0  0  0
   18.9064   70.7340   -9.4559 C   0  0  0  0  0  0  0  0  0  0  0  0
   17.0250   70.1839   -9.9720 H   0  0  0  0  0  0  0  0  0  0  0  0
   21.8350   72.6409   -2.9921 O   0  0  0  0  0  0  0  0  0  0  0  0
   23.2442   73.3835   -3.2679 P   0  0  2  0  0  0  0  0  0  0  0  0
   24.2222   72.1702   -3.7058 O   0  0  0  0  0  0  0  0  0  0  0  0
   23.7482   74.1973   -2.1113 O   0  0  0  0  0  0  0  0  0  0  0  0
   23.0055   74.2238   -4.6242 O   0  0  0  0  0  0  0  0  0  0  0  0
   21.1327   75.1173   -5.7659 O   0  0  0  0  0  0  0  0  0  0  0  0
   23.3522   73.5585   -8.8824 O   0  0  0  0  0  0  0  0  0  0  0  0
   23.0579   72.0714   -6.3851 O   0  0  0  0  0  0  0  0  0  0  0  0
   23.3004   76.4281   -8.4202 O   0  0  0  0  0  0  0  0  0  0  0  0
   23.1432   74.1655   -7.6073 C   0  0  2  0  0  0  0  0  0  0  0  0
   22.3106   73.2331   -6.7269 C   0  0  2  0  0  0  0  0  0  0  0  0
   22.4057   75.4881   -7.8283 C   0  0  1  0  0  0  0  0  0  0  0  0
   21.8727   73.9393   -5.4431 C   0  0  1  0  0  0  0  0  0  0  0  0
   21.8914   76.0657   -6.5129 C   0  0  1  0  0  0  0  0  0  0  0  0
   23.8195   72.7161   -8.7670 H   0  0  0  0  0  0  0  0  0  0  0  0
   23.3392   71.6185   -7.1951 H   0  0  0  0  0  0  0  0  0  0  0  0
   23.6351   76.0725   -9.2583 H   0  0  0  0  0  0  0  0  0  0  0  0
   20.4703   77.1277   -8.0471 O   0  0  0  0  0  0  0  0  0  0  0  0
   20.5371   77.9761   -5.9317 O   0  0  0  0  0  0  0  0  0  0  0  0
   20.9063   77.1607   -6.7635 C   0  0  0  0  0  0  0  0  0  0  0  0
  1  4  1  0
  1 24  1  0
  1  2  1  1
  1  3  2  0
 25 28  1  0
 25 24  1  0
 25 26  1  6
 25 27  2  0
  6 11  1  0
  6 12  1  0
 29 36  1  0
 29 37  1  0
  9  7  1  6
  7 13  1  0
 10  8  1  1
  8 14  1  0
  4  5  1  0
 36 28  1  6
 33 30  1  6
 30 38  1  0
 34 31  1  1
 31 39  1  0
 35 32  1  1
 32 40  1  0
 41 43  1  0
 15 19  2  0
 42 43  2  0
 16 22  2  0
 12 17  1  6
 17 19  1  0
 17 20  1  0
 18 19  1  0
 18 22  1  0
 18 23  1  0
  9 10  1  0
  9 11  1  0
 10 12  1  0
 11  5  1  6
 33 34  1  0
 33 35  1  0
 34 36  1  0
 35 37  1  0
 37 43  1  6
 20 21  2  0
 21 22  1  0
M  CHG  3   2  -1  26  -1  41  -1
M  END
>  <COMPND>  (23) 
    udp_gluA.pdb 

>  <AUTHOR>  (23) 
    GENERATED BY OPEN BABEL 3.1.1

>  <MASTER>  (23) 
        0    0    0    0    0    0    0    0   56    0   56    0

>  <minimizedAffinity>  (23) 
-7.17244

>  <CNNscore>  (23) 
0.9005370736

>  <CNNaffinity>  (23) 
4.7207708359

>  <CNN_VS>  (23) 
4.2512292862

>  <CNNaffinity_variance>  (23) 
0.2764659822

$$$$
24
     RDKit          3D

 43 45  0  0  0  0  0  0  0  0999 V2000
   21.8265   71.9875   -1.7446 P   0  0  2  0  0  0  0  0  0  0  0  0
   20.7057   72.7104   -0.8280 O   0  0  0  0  0  0  0  0  0  0  0  0
   22.4780   72.8736   -2.7654 O   0  0  0  0  0  0  0  0  0  0  0  0
   21.0685   70.6826   -2.3283 O   0  0  0  0  0  0  0  0  0  0  0  0
   20.4814   70.7605   -3.6143 C   0  0  0  0  0  0  0  0  0  0  0  0
   18.5688   71.7277   -4.7025 O   0  0  0  0  0  0  0  0  0  0  0  0
   16.9182   70.3675   -2.6008 O   0  0  0  0  0  0  0  0  0  0  0  0
   16.6248   68.7156   -4.7505 O   0  0  0  0  0  0  0  0  0  0  0  0
   18.1096   69.9171   -3.2459 C   0  0  1  0  0  0  0  0  0  0  0  0
   17.8061   69.4848   -4.6648 C   0  0  2  0  0  0  0  0  0  0  0  0
   19.0098   71.1251   -3.4665 C   0  0  1  0  0  0  0  0  0  0  0  0
   17.6888   70.8186   -5.3825 C   0  0  2  0  0  0  0  0  0  0  0  0
   16.3270   69.6130   -2.4493 H   0  0  0  0  0  0  0  0  0  0  0  0
   16.7502   67.8768   -4.2787 H   0  0  0  0  0  0  0  0  0  0  0  0
   15.9803   69.9970   -7.4760 O   0  0  0  0  0  0  0  0  0  0  0  0
   19.2924   70.5355  -10.6357 O   0  0  0  0  0  0  0  0  0  0  0  0
   18.0788   70.7350   -6.7616 N   0  0  0  0  0  0  0  0  0  0  0  0
   17.6319   70.2650   -9.0475 N   0  0  0  0  0  0  0  0  0  0  0  0
   17.1438   70.3103   -7.7350 C   0  0  0  0  0  0  0  0  0  0  0  0
   19.3730   71.0728   -7.1381 C   0  0  0  0  0  0  0  0  0  0  0  0
   19.8236   71.0247   -8.3932 C   0  0  0  0  0  0  0  0  0  0  0  0
   18.9104   70.5905   -9.4707 C   0  0  0  0  0  0  0  0  0  0  0  0
   16.9998   69.9703   -9.7425 H   0  0  0  0  0  0  0  0  0  0  0  0
   22.8397   71.3608   -0.6521 O   0  0  0  0  0  0  0  0  0  0  0  0
   22.6378   71.0343    0.9183 P   0  0  2  0  0  0  0  0  0  0  0  0
   24.0356   70.3309    1.3325 O   0  0  0  0  0  0  0  0  0  0  0  0
   21.4182   70.2144    1.2250 O   0  0  0  0  0  0  0  0  0  0  0  0
   22.6761   72.4746    1.6440 O   0  0  0  0  0  0  0  0  0  0  0  0
   23.1437   73.3469    3.7957 O   0  0  0  0  0  0  0  0  0  0  0  0
   19.6665   75.3502    2.8139 O   0  0  0  0  0  0  0  0  0  0  0  0
   19.9548   72.5047    2.2182 O   0  0  0  0  0  0  0  0  0  0  0  0
   22.2257   76.7236    2.6923 O   0  0  0  0  0  0  0  0  0  0  0  0
   20.9152   74.7062    2.5609 C   0  0  2  0  0  0  0  0  0  0  0  0
   20.8473   73.2541    3.0347 C   0  0  2  0  0  0  0  0  0  0  0  0
   22.0021   75.4652    3.3254 C   0  0  1  0  0  0  0  0  0  0  0  0
   22.2290   72.5998    2.9928 C   0  0  1  0  0  0  0  0  0  0  0  0
   23.3155   74.6885    3.3443 C   0  0  1  0  0  0  0  0  0  0  0  0
   18.9603   74.8850    2.3381 H   0  0  0  0  0  0  0  0  0  0  0  0
   19.0761   72.9145    2.2399 H   0  0  0  0  0  0  0  0  0  0  0  0
   21.3973   77.2279    2.6736 H   0  0  0  0  0  0  0  0  0  0  0  0
   24.5688   74.3417    5.2963 O   0  0  0  0  0  0  0  0  0  0  0  0
   24.6934   76.4046    4.3330 O   0  0  0  0  0  0  0  0  0  0  0  0
   24.2572   75.2634    4.3517 C   0  0  0  0  0  0  0  0  0  0  0  0
  1  4  1  0
  1 24  1  0
  1  2  1  1
  1  3  2  0
 25 28  1  0
 25 24  1  0
 25 26  1  1
 25 27  2  0
  6 11  1  0
  6 12  1  0
 29 36  1  0
 29 37  1  0
  9  7  1  6
  7 13  1  0
 10  8  1  1
  8 14  1  0
  4  5  1  0
 36 28  1  6
 33 30  1  1
 30 38  1  0
 34 31  1  6
 31 39  1  0
 35 32  1  6
 32 40  1  0
 41 43  1  0
 15 19  2  0
 42 43  2  0
 16 22  2  0
 12 17  1  6
 17 19  1  0
 17 20  1  0
 18 19  1  0
 18 22  1  0
 18 23  1  0
  9 10  1  0
  9 11  1  0
 10 12  1  0
 11  5  1  6
 33 34  1  0
 33 35  1  0
 34 36  1  0
 35 37  1  0
 37 43  1  1
 20 21  2  0
 21 22  1  0
M  CHG  3   2  -1  26  -1  41  -1
M  END
>  <COMPND>  (24) 
    udp_gluA.pdb 

>  <AUTHOR>  (24) 
    GENERATED BY OPEN BABEL 3.1.1

>  <MASTER>  (24) 
        0    0    0    0    0    0    0    0   56    0   56    0

>  <minimizedAffinity>  (24) 
-7.01348

>  <CNNscore>  (24) 
0.8869134188

>  <CNNaffinity>  (24) 
4.6305246353

>  <CNN_VS>  (24) 
4.1068744659

>  <CNNaffinity_variance>  (24) 
0.1140130907

$$$$
25
     RDKit          3D

 43 45  0  0  0  0  0  0  0  0999 V2000
   22.6636   71.9725   -3.7076 P   0  0  2  0  0  0  0  0  0  0  0  0
   23.4020   72.8159   -4.8748 O   0  0  0  0  0  0  0  0  0  0  0  0
   23.5391   70.9918   -2.9840 O   0  0  0  0  0  0  0  0  0  0  0  0
   21.3654   71.3464   -4.4426 O   0  0  0  0  0  0  0  0  0  0  0  0
   20.6166   70.3549   -3.7638 C   0  0  0  0  0  0  0  0  0  0  0  0
   18.7836   71.5363   -4.7748 O   0  0  0  0  0  0  0  0  0  0  0  0
   17.0564   70.2815   -2.6691 O   0  0  0  0  0  0  0  0  0  0  0  0
   16.5522   68.7312   -4.8551 O   0  0  0  0  0  0  0  0  0  0  0  0
   18.1825   69.7364   -3.3571 C   0  0  1  0  0  0  0  0  0  0  0  0
   17.8051   69.3785   -4.7790 C   0  0  2  0  0  0  0  0  0  0  0  0
   19.1918   70.8568   -3.5677 C   0  0  1  0  0  0  0  0  0  0  0  0
   17.8029   70.7383   -5.4565 C   0  0  2  0  0  0  0  0  0  0  0  0
   16.3977   69.5841   -2.5231 H   0  0  0  0  0  0  0  0  0  0  0  0
   16.6055   67.8704   -4.4100 H   0  0  0  0  0  0  0  0  0  0  0  0
   15.9915   70.0691   -7.5174 O   0  0  0  0  0  0  0  0  0  0  0  0
   19.2477   70.4616  -10.7559 O   0  0  0  0  0  0  0  0  0  0  0  0
   18.1507   70.6583   -6.8470 N   0  0  0  0  0  0  0  0  0  0  0  0
   17.6152   70.2642   -9.1283 N   0  0  0  0  0  0  0  0  0  0  0  0
   17.1654   70.3135   -7.8023 C   0  0  0  0  0  0  0  0  0  0  0  0
   19.4535   70.9213   -7.2523 C   0  0  0  0  0  0  0  0  0  0  0  0
   19.8672   70.8705   -8.5200 C   0  0  0  0  0  0  0  0  0  0  0  0
   18.9004   70.5169   -9.5800 C   0  0  0  0  0  0  0  0  0  0  0  0
   16.9478   70.0243   -9.8111 H   0  0  0  0  0  0  0  0  0  0  0  0
   22.0294   73.1274   -2.7712 O   0  0  0  0  0  0  0  0  0  0  0  0
   22.7259   74.1595   -1.7401 P   0  0  2  0  0  0  0  0  0  0  0  0
   21.8251   75.4962   -1.8897 O   0  0  0  0  0  0  0  0  0  0  0  0
   24.1928   74.3724   -1.9785 O   0  0  0  0  0  0  0  0  0  0  0  0
   22.3618   73.5849   -0.2773 O   0  0  0  0  0  0  0  0  0  0  0  0
   23.0839   71.4082    0.3139 O   0  0  0  0  0  0  0  0  0  0  0  0
   20.2104   72.1502    3.1880 O   0  0  0  0  0  0  0  0  0  0  0  0
   19.7514   72.9091    0.4045 O   0  0  0  0  0  0  0  0  0  0  0  0
   23.0316   72.2924    3.8745 O   0  0  0  0  0  0  0  0  0  0  0  0
   21.2480   72.4839    2.2660 C   0  0  2  0  0  0  0  0  0  0  0  0
   20.8232   72.0871    0.8519 C   0  0  2  0  0  0  0  0  0  0  0  0
   22.5091   71.7205    2.6768 C   0  0  1  0  0  0  0  0  0  0  0  0
   21.9915   72.2157   -0.1266 C   0  0  1  0  0  0  0  0  0  0  0  0
   23.5815   71.7924    1.5937 C   0  0  1  0  0  0  0  0  0  0  0  0
   19.3987   72.6238    2.9468 H   0  0  0  0  0  0  0  0  0  0  0  0
   19.0067   72.8326    1.0209 H   0  0  0  0  0  0  0  0  0  0  0  0
   22.3588   72.2530    4.5720 H   0  0  0  0  0  0  0  0  0  0  0  0
   25.5901   70.8275    0.8614 O   0  0  0  0  0  0  0  0  0  0  0  0
   24.7086   70.0410    2.8117 O   0  0  0  0  0  0  0  0  0  0  0  0
   24.6608   70.7911    1.8484 C   0  0  0  0  0  0  0  0  0  0  0  0
  1  4  1  0
  1 24  1  0
  1  2  1  6
  1  3  2  0
 25 28  1  0
 25 24  1  0
 25 26  1  1
 25 27  2  0
  6 11  1  0
  6 12  1  0
 29 36  1  0
 29 37  1  0
  9  7  1  1
  7 13  1  0
 10  8  1  1
  8 14  1  0
  4  5  1  0
 36 28  1  1
 33 30  1  1
 30 38  1  0
 34 31  1  6
 31 39  1  0
 35 32  1  1
 32 40  1  0
 41 43  1  0
 15 19  2  0
 42 43  2  0
 16 22  2  0
 12 17  1  6
 17 19  1  0
 17 20  1  0
 18 19  1  0
 18 22  1  0
 18 23  1  0
  9 10  1  0
  9 11  1  0
 10 12  1  0
 11  5  1  6
 33 34  1  0
 33 35  1  0
 34 36  1  0
 35 37  1  0
 37 43  1  1
 20 21  2  0
 21 22  1  0
M  CHG  3   2  -1  26  -1  41  -1
M  END
>  <COMPND>  (25) 
    udp_gluA.pdb 

>  <AUTHOR>  (25) 
    GENERATED BY OPEN BABEL 3.1.1

>  <MASTER>  (25) 
        0    0    0    0    0    0    0    0   56    0   56    0

>  <minimizedAffinity>  (25) 
-8.10380

>  <CNNscore>  (25) 
0.8532279134

>  <CNNaffinity>  (25) 
4.6649198532

>  <CNN_VS>  (25) 
3.9802398682

>  <CNNaffinity_variance>  (25) 
0.0308328681

$$$$
26
     RDKit          3D

 43 45  0  0  0  0  0  0  0  0999 V2000
   20.8936   74.0417   -3.0060 P   0  0  2  0  0  0  0  0  0  0  0  0
   21.8062   73.8671   -1.6810 O   0  0  0  0  0  0  0  0  0  0  0  0
   20.6109   75.4623   -3.3979 O   0  0  0  0  0  0  0  0  0  0  0  0
   19.5953   73.1235   -2.7073 O   0  0  0  0  0  0  0  0  0  0  0  0
   19.3572   71.9995   -3.5347 C   0  0  0  0  0  0  0  0  0  0  0  0
   17.4160   71.9745   -4.9520 O   0  0  0  0  0  0  0  0  0  0  0  0
   16.1258   70.2807   -2.8407 O   0  0  0  0  0  0  0  0  0  0  0  0
   16.8502   68.4418   -4.7195 O   0  0  0  0  0  0  0  0  0  0  0  0
   17.4838   70.2970   -3.2811 C   0  0  1  0  0  0  0  0  0  0  0  0
   17.6032   69.6338   -4.6368 C   0  0  2  0  0  0  0  0  0  0  0  0
   17.8578   71.7386   -3.5976 C   0  0  1  0  0  0  0  0  0  0  0  0
   17.0847   70.7186   -5.5654 C   0  0  2  0  0  0  0  0  0  0  0  0
   15.8639   69.3698   -2.6325 H   0  0  0  0  0  0  0  0  0  0  0  0
   17.2199   67.7830   -4.1102 H   0  0  0  0  0  0  0  0  0  0  0  0
   15.6518   70.3706   -7.9741 O   0  0  0  0  0  0  0  0  0  0  0  0
   19.5048   70.5116  -10.4997 O   0  0  0  0  0  0  0  0  0  0  0  0
   17.6884   70.6608   -6.8666 N   0  0  0  0  0  0  0  0  0  0  0  0
   17.5723   70.4401   -9.2296 N   0  0  0  0  0  0  0  0  0  0  0  0
   16.8785   70.4829   -8.0131 C   0  0  0  0  0  0  0  0  0  0  0  0
   19.0665   70.7813   -6.9978 C   0  0  0  0  0  0  0  0  0  0  0  0
   19.7134   70.7387   -8.1641 C   0  0  0  0  0  0  0  0  0  0  0  0
   18.9411   70.5547   -9.4104 C   0  0  0  0  0  0  0  0  0  0  0  0
   17.0299   70.3150  -10.0417 H   0  0  0  0  0  0  0  0  0  0  0  0
   21.6975   73.1843   -4.1158 O   0  0  0  0  0  0  0  0  0  0  0  0
   23.2725   73.1255   -4.4755 P   0  0  2  0  0  0  0  0  0  0  0  0
   23.2776   72.8246   -6.0661 O   0  0  0  0  0  0  0  0  0  0  0  0
   24.0548   72.1395   -3.6571 O   0  0  0  0  0  0  0  0  0  0  0  0
   23.7786   74.6520   -4.3483 O   0  0  0  0  0  0  0  0  0  0  0  0
   26.1022   74.9713   -4.0192 O   0  0  0  0  0  0  0  0  0  0  0  0
   24.6102   78.7324   -3.1848 O   0  0  0  0  0  0  0  0  0  0  0  0
   23.2383   76.3450   -2.2088 O   0  0  0  0  0  0  0  0  0  0  0  0
   25.9560   78.2239   -5.7109 O   0  0  0  0  0  0  0  0  0  0  0  0
   24.6521   77.4616   -3.8338 C   0  0  2  0  0  0  0  0  0  0  0  0
   24.5369   76.3501   -2.7903 C   0  0  2  0  0  0  0  0  0  0  0  0
   25.9840   77.3552   -4.5799 C   0  0  1  0  0  0  0  0  0  0  0  0
   24.8074   74.9814   -3.4168 C   0  0  1  0  0  0  0  0  0  0  0  0
   26.2387   75.9310   -5.0649 C   0  0  1  0  0  0  0  0  0  0  0  0
   23.7724   78.8227   -2.7039 H   0  0  0  0  0  0  0  0  0  0  0  0
   23.0599   77.2106   -1.8096 H   0  0  0  0  0  0  0  0  0  0  0  0
   25.7945   79.1337   -5.4160 H   0  0  0  0  0  0  0  0  0  0  0  0
   28.5045   76.2431   -4.5455 O   0  0  0  0  0  0  0  0  0  0  0  0
   28.0218   75.2592   -6.5450 O   0  0  0  0  0  0  0  0  0  0  0  0
   27.6605   75.7622   -5.4917 C   0  0  0  0  0  0  0  0  0  0  0  0
  1  4  1  0
  1 24  1  0
  1  2  1  1
  1  3  2  0
 25 28  1  0
 25 24  1  0
 25 26  1  6
 25 27  2  0
  6 11  1  0
  6 12  1  0
 29 36  1  0
 29 37  1  0
  9  7  1  6
  7 13  1  0
 10  8  1  1
  8 14  1  0
  4  5  1  0
 36 28  1  6
 33 30  1  1
 30 38  1  0
 34 31  1  6
 31 39  1  0
 35 32  1  6
 32 40  1  0
 41 43  1  0
 15 19  2  0
 42 43  2  0
 16 22  2  0
 12 17  1  6
 17 19  1  0
 17 20  1  0
 18 19  1  0
 18 22  1  0
 18 23  1  0
  9 10  1  0
  9 11  1  0
 10 12  1  0
 11  5  1  6
 33 34  1  0
 33 35  1  0
 34 36  1  0
 35 37  1  0
 37 43  1  1
 20 21  2  0
 21 22  1  0
M  CHG  3   2  -1  26  -1  41  -1
M  END
>  <COMPND>  (26) 
    udp_gluA.pdb 

>  <AUTHOR>  (26) 
    GENERATED BY OPEN BABEL 3.1.1

>  <MASTER>  (26) 
        0    0    0    0    0    0    0    0   56    0   56    0

>  <minimizedAffinity>  (26) 
-6.34821

>  <CNNscore>  (26) 
0.8472240567

>  <CNNaffinity>  (26) 
4.5759468079

>  <CNN_VS>  (26) 
3.8768522739

>  <CNNaffinity_variance>  (26) 
0.0896372348

$$$$
27
     RDKit          3D

 43 45  0  0  0  0  0  0  0  0999 V2000
   20.4958   72.8835   -2.3961 P   0  0  2  0  0  0  0  0  0  0  0  0
   20.4508   71.9755   -1.0573 O   0  0  0  0  0  0  0  0  0  0  0  0
   19.5466   74.0457   -2.4057 O   0  0  0  0  0  0  0  0  0  0  0  0
   20.3102   71.8148   -3.5967 O   0  0  0  0  0  0  0  0  0  0  0  0
   19.5840   70.6272   -3.3385 C   0  0  0  0  0  0  0  0  0  0  0  0
   17.8156   71.6095   -4.6367 O   0  0  0  0  0  0  0  0  0  0  0  0
   15.9289   70.0576   -2.8979 O   0  0  0  0  0  0  0  0  0  0  0  0
   16.0224   68.5509   -5.1688 O   0  0  0  0  0  0  0  0  0  0  0  0
   17.2196   69.6891   -3.3846 C   0  0  1  0  0  0  0  0  0  0  0  0
   17.1463   69.3475   -4.8578 C   0  0  2  0  0  0  0  0  0  0  0  0
   18.0933   70.9361   -3.3898 C   0  0  1  0  0  0  0  0  0  0  0  0
   17.0827   70.7238   -5.4979 C   0  0  2  0  0  0  0  0  0  0  0  0
   15.3527   69.2769   -2.8854 H   0  0  0  0  0  0  0  0  0  0  0  0
   16.1105   67.6855   -4.7383 H   0  0  0  0  0  0  0  0  0  0  0  0
   15.7002   70.1224   -7.8861 O   0  0  0  0  0  0  0  0  0  0  0  0
   19.4556   70.8482  -10.4579 O   0  0  0  0  0  0  0  0  0  0  0  0
   17.6749   70.7479   -6.8054 N   0  0  0  0  0  0  0  0  0  0  0  0
   17.5722   70.4835   -9.1646 N   0  0  0  0  0  0  0  0  0  0  0  0
   16.8926   70.4291   -7.9405 C   0  0  0  0  0  0  0  0  0  0  0  0
   19.0145   71.0858   -6.9539 C   0  0  0  0  0  0  0  0  0  0  0  0
   19.6483   71.1335   -8.1273 C   0  0  0  0  0  0  0  0  0  0  0  0
   18.9032   70.8135   -9.3625 C   0  0  0  0  0  0  0  0  0  0  0  0
   17.0488   70.2635   -9.9690 H   0  0  0  0  0  0  0  0  0  0  0  0
   22.0568   73.2881   -2.5080 O   0  0  0  0  0  0  0  0  0  0  0  0
   22.9443   74.3392   -1.6588 P   0  0  2  0  0  0  0  0  0  0  0  0
   22.0245   75.6711   -1.6419 O   0  0  0  0  0  0  0  0  0  0  0  0
   24.3298   74.5512   -2.1969 O   0  0  0  0  0  0  0  0  0  0  0  0
   22.8917   73.7887   -0.1433 O   0  0  0  0  0  0  0  0  0  0  0  0
   24.9810   73.8104    0.9719 O   0  0  0  0  0  0  0  0  0  0  0  0
   22.6355   71.6790    3.6222 O   0  0  0  0  0  0  0  0  0  0  0  0
   22.4377   71.1935    0.7482 O   0  0  0  0  0  0  0  0  0  0  0  0
   23.3275   74.4458    4.1850 O   0  0  0  0  0  0  0  0  0  0  0  0
   22.9092   72.6605    2.6222 C   0  0  2  0  0  0  0  0  0  0  0  0
   23.4522   71.9754    1.3679 C   0  0  2  0  0  0  0  0  0  0  0  0
   23.9450   73.6351    3.1871 C   0  0  1  0  0  0  0  0  0  0  0  0
   23.9708   73.0052    0.3631 C   0  0  1  0  0  0  0  0  0  0  0  0
   24.5061   74.5448    2.0980 C   0  0  1  0  0  0  0  0  0  0  0  0
   21.9795   71.0484    3.2855 H   0  0  0  0  0  0  0  0  0  0  0  0
   22.1039   70.5381    1.3802 H   0  0  0  0  0  0  0  0  0  0  0  0
   22.9661   73.8789    4.8842 H   0  0  0  0  0  0  0  0  0  0  0  0
   26.2047   74.6770    3.7101 O   0  0  0  0  0  0  0  0  0  0  0  0
   26.2435   76.2175    2.0295 O   0  0  0  0  0  0  0  0  0  0  0  0
   25.7311   75.2531    2.5775 C   0  0  0  0  0  0  0  0  0  0  0  0
  1  4  1  0
  1 24  1  0
  1  2  1  1
  1  3  2  0
 25 28  1  0
 25 24  1  0
 25 26  1  1
 25 27  2  0
  6 11  1  0
  6 12  1  0
 29 36  1  0
 29 37  1  0
  9  7  1  6
  7 13  1  0
 10  8  1  1
  8 14  1  0
  4  5  1  0
 36 28  1  1
 33 30  1  1
 30 38  1  0
 34 31  1  6
 31 39  1  0
 35 32  1  1
 32 40  1  0
 41 43  1  0
 15 19  2  0
 42 43  2  0
 16 22  2  0
 12 17  1  6
 17 19  1  0
 17 20  1  0
 18 19  1  0
 18 22  1  0
 18 23  1  0
  9 10  1  0
  9 11  1  0
 10 12  1  0
 11  5  1  6
 33 34  1  0
 33 35  1  0
 34 36  1  0
 35 37  1  0
 37 43  1  1
 20 21  2  0
 21 22  1  0
M  CHG  3   2  -1  26  -1  41  -1
M  END
>  <COMPND>  (27) 
    udp_gluA.pdb 

>  <AUTHOR>  (27) 
    GENERATED BY OPEN BABEL 3.1.1

>  <MASTER>  (27) 
        0    0    0    0    0    0    0    0   56    0   56    0

>  <minimizedAffinity>  (27) 
-6.13363

>  <CNNscore>  (27) 
0.8406885266

>  <CNNaffinity>  (27) 
4.5568947792

>  <CNN_VS>  (27) 
3.8309290409

>  <CNNaffinity_variance>  (27) 
0.0708206370

$$$$
28
     RDKit          3D

 43 45  0  0  0  0  0  0  0  0999 V2000
   20.6087   73.3868   -3.0542 P   0  0  2  0  0  0  0  0  0  0  0  0
   20.3977   72.8148   -1.5551 O   0  0  0  0  0  0  0  0  0  0  0  0
   20.0121   74.7406   -3.3056 O   0  0  0  0  0  0  0  0  0  0  0  0
   20.0694   72.1938   -4.0048 O   0  0  0  0  0  0  0  0  0  0  0  0
   19.4102   71.0950   -3.4026 C   0  0  0  0  0  0  0  0  0  0  0  0
   17.6453   71.7803   -4.8836 O   0  0  0  0  0  0  0  0  0  0  0  0
   15.7900   70.2837   -3.0643 O   0  0  0  0  0  0  0  0  0  0  0  0
   16.1191   68.5462   -5.1400 O   0  0  0  0  0  0  0  0  0  0  0  0
   17.1292   69.9692   -3.4468 C   0  0  1  0  0  0  0  0  0  0  0  0
   17.1614   69.4610   -4.8726 C   0  0  2  0  0  0  0  0  0  0  0  0
   17.9053   71.2745   -3.5562 C   0  0  1  0  0  0  0  0  0  0  0  0
   17.0288   70.7477   -5.6692 C   0  0  2  0  0  0  0  0  0  0  0  0
   15.2745   69.4652   -2.9879 H   0  0  0  0  0  0  0  0  0  0  0  0
   16.2489   67.7441   -4.6093 H   0  0  0  0  0  0  0  0  0  0  0  0
   15.6973   70.3923   -8.1344 O   0  0  0  0  0  0  0  0  0  0  0  0
   19.6560   70.4796  -10.4934 O   0  0  0  0  0  0  0  0  0  0  0  0
   17.6871   70.6741   -6.9428 N   0  0  0  0  0  0  0  0  0  0  0  0
   17.6703   70.4351   -9.3068 N   0  0  0  0  0  0  0  0  0  0  0  0
   16.9255   70.4937   -8.1216 C   0  0  0  0  0  0  0  0  0  0  0  0
   19.0706   70.7817   -7.0157 C   0  0  0  0  0  0  0  0  0  0  0  0
   19.7665   70.7241   -8.1529 C   0  0  0  0  0  0  0  0  0  0  0  0
   19.0466   70.5365   -9.4296 C   0  0  0  0  0  0  0  0  0  0  0  0
   17.1622   70.3080  -10.1405 H   0  0  0  0  0  0  0  0  0  0  0  0
   22.2115   73.3107   -3.2494 O   0  0  0  0  0  0  0  0  0  0  0  0
   23.1139   73.1989   -4.5862 P   0  0  2  0  0  0  0  0  0  0  0  0
   22.5422   71.8675   -5.3080 O   0  0  0  0  0  0  0  0  0  0  0  0
   24.5931   73.1771   -4.3306 O   0  0  0  0  0  0  0  0  0  0  0  0
   22.6137   74.4152   -5.5204 O   0  0  0  0  0  0  0  0  0  0  0  0
   24.2019   75.6175   -6.8017 O   0  0  0  0  0  0  0  0  0  0  0  0
   20.9548   78.1706   -6.8771 O   0  0  0  0  0  0  0  0  0  0  0  0
   21.7009   76.7961   -4.4096 O   0  0  0  0  0  0  0  0  0  0  0  0
   21.6141   76.5788   -9.2185 O   0  0  0  0  0  0  0  0  0  0  0  0
   21.6187   76.9076   -6.8317 C   0  0  2  0  0  0  0  0  0  0  0  0
   22.5013   76.8379   -5.5853 C   0  0  2  0  0  0  0  0  0  0  0  0
   22.4713   76.7759   -8.0957 C   0  0  1  0  0  0  0  0  0  0  0  0
   23.4002   75.6011   -5.6199 C   0  0  1  0  0  0  0  0  0  0  0  0
   23.4299   75.5924   -8.0002 C   0  0  1  0  0  0  0  0  0  0  0  0
   20.4067   78.2766   -6.0836 H   0  0  0  0  0  0  0  0  0  0  0  0
   21.1277   77.5778   -4.3812 H   0  0  0  0  0  0  0  0  0  0  0  0
   20.9988   77.3251   -9.2905 H   0  0  0  0  0  0  0  0  0  0  0  0
   24.3046   76.7796   -9.8242 O   0  0  0  0  0  0  0  0  0  0  0  0
   25.3522   74.8381   -9.2480 O   0  0  0  0  0  0  0  0  0  0  0  0
   24.4698   75.6644   -9.0706 C   0  0  0  0  0  0  0  0  0  0  0  0
  1  4  1  0
  1 24  1  0
  1  2  1  1
  1  3  2  0
 25 28  1  0
 25 24  1  0
 25 26  1  6
 25 27  2  0
  6 11  1  0
  6 12  1  0
 29 36  1  0
 29 37  1  0
  9  7  1  6
  7 13  1  0
 10  8  1  1
  8 14  1  0
  4  5  1  0
 36 28  1  6
 33 30  1  6
 30 38  1  0
 34 31  1  1
 31 39  1  0
 35 32  1  6
 32 40  1  0
 41 43  1  0
 15 19  2  0
 42 43  2  0
 16 22  2  0
 12 17  1  6
 17 19  1  0
 17 20  1  0
 18 19  1  0
 18 22  1  0
 18 23  1  0
  9 10  1  0
  9 11  1  0
 10 12  1  0
 11  5  1  6
 33 34  1  0
 33 35  1  0
 34 36  1  0
 35 37  1  0
 37 43  1  6
 20 21  2  0
 21 22  1  0
M  CHG  3   2  -1  26  -1  41  -1
M  END
>  <COMPND>  (28) 
    udp_gluA.pdb 

>  <AUTHOR>  (28) 
    GENERATED BY OPEN BABEL 3.1.1

>  <MASTER>  (28) 
        0    0    0    0    0    0    0    0   56    0   56    0

>  <minimizedAffinity>  (28) 
-6.69733

>  <CNNscore>  (28) 
0.8388561606

>  <CNNaffinity>  (28) 
4.6572356224

>  <CNN_VS>  (28) 
3.9067506790

>  <CNNaffinity_variance>  (28) 
0.0840023309

$$$$
29
     RDKit          3D

 43 45  0  0  0  0  0  0  0  0999 V2000
   22.2198   72.2578   -2.2139 P   0  0  2  0  0  0  0  0  0  0  0  0
   21.7541   73.7641   -1.8490 O   0  0  0  0  0  0  0  0  0  0  0  0
   23.4330   72.1650   -3.0922 O   0  0  0  0  0  0  0  0  0  0  0  0
   20.8773   71.5661   -2.7948 O   0  0  0  0  0  0  0  0  0  0  0  0
   20.2709   72.1270   -3.9446 C   0  0  0  0  0  0  0  0  0  0  0  0
   18.1625   72.2899   -5.0873 O   0  0  0  0  0  0  0  0  0  0  0  0
   16.9861   70.8558   -2.7313 O   0  0  0  0  0  0  0  0  0  0  0  0
   17.2186   68.8680   -4.5835 O   0  0  0  0  0  0  0  0  0  0  0  0
   18.2620   70.6842   -3.3487 C   0  0  1  0  0  0  0  0  0  0  0  0
   18.1121   69.9584   -4.6689 C   0  0  2  0  0  0  0  0  0  0  0  0
   18.7570   72.0540   -3.7926 C   0  0  1  0  0  0  0  0  0  0  0  0
   17.6022   71.0622   -5.5796 C   0  0  2  0  0  0  0  0  0  0  0  0
   16.6493   69.9938   -2.4392 H   0  0  0  0  0  0  0  0  0  0  0  0
   17.5884   68.1925   -3.9928 H   0  0  0  0  0  0  0  0  0  0  0  0
   15.9198   70.0815   -7.6251 O   0  0  0  0  0  0  0  0  0  0  0  0
   19.2659   70.3960  -10.7792 O   0  0  0  0  0  0  0  0  0  0  0  0
   18.0080   70.8779   -6.9443 N   0  0  0  0  0  0  0  0  0  0  0  0
   17.5882   70.2381   -9.1938 N   0  0  0  0  0  0  0  0  0  0  0  0
   17.0852   70.3788   -7.8937 C   0  0  0  0  0  0  0  0  0  0  0  0
   19.3055   71.1915   -7.3304 C   0  0  0  0  0  0  0  0  0  0  0  0
   19.7703   71.0520   -8.5735 C   0  0  0  0  0  0  0  0  0  0  0  0
   18.8706   70.5358   -9.6258 C   0  0  0  0  0  0  0  0  0  0  0  0
   16.9649   69.8904   -9.8720 H   0  0  0  0  0  0  0  0  0  0  0  0
   22.3853   71.5673   -0.7618 O   0  0  0  0  0  0  0  0  0  0  0  0
   21.5128   71.7180    0.5908 P   0  0  2  0  0  0  0  0  0  0  0  0
   21.5992   70.2434    1.2529 O   0  0  0  0  0  0  0  0  0  0  0  0
   20.1137   72.2152    0.3690 O   0  0  0  0  0  0  0  0  0  0  0  0
   22.4096   72.6503    1.5546 O   0  0  0  0  0  0  0  0  0  0  0  0
   21.5661   73.9458    3.3489 O   0  0  0  0  0  0  0  0  0  0  0  0
   25.0456   75.9678    2.4151 O   0  0  0  0  0  0  0  0  0  0  0  0
   23.3017   74.9650    0.2967 O   0  0  0  0  0  0  0  0  0  0  0  0
   24.9312   74.2729    4.7741 O   0  0  0  0  0  0  0  0  0  0  0  0
   24.1963   74.8281    2.5477 C   0  0  2  0  0  0  0  0  0  0  0  0
   22.9539   75.0114    1.6757 C   0  0  2  0  0  0  0  0  0  0  0  0
   23.7993   74.7030    4.0204 C   0  0  1  0  0  0  0  0  0  0  0  0
   21.9174   73.9247    1.9648 C   0  0  1  0  0  0  0  0  0  0  0  0
   22.6736   73.6903    4.2098 C   0  0  1  0  0  0  0  0  0  0  0  0
   25.3108   76.0675    1.4872 H   0  0  0  0  0  0  0  0  0  0  0  0
   23.9593   75.6518    0.1063 H   0  0  0  0  0  0  0  0  0  0  0  0
   25.6550   74.9089    4.6620 H   0  0  0  0  0  0  0  0  0  0  0  0
   20.7414   74.0487    5.4902 O   0  0  0  0  0  0  0  0  0  0  0  0
   22.6917   73.7117    6.6224 O   0  0  0  0  0  0  0  0  0  0  0  0
   22.0741   73.8123    5.5729 C   0  0  0  0  0  0  0  0  0  0  0  0
  1  4  1  0
  1 24  1  0
  1  2  1  1
  1  3  2  0
 25 28  1  0
 25 24  1  0
 25 26  1  1
 25 27  2  0
  6 11  1  0
  6 12  1  0
 29 36  1  0
 29 37  1  0
  9  7  1  6
  7 13  1  0
 10  8  1  1
  8 14  1  0
  4  5  1  0
 36 28  1  1
 33 30  1  1
 30 38  1  0
 34 31  1  6
 31 39  1  0
 35 32  1  1
 32 40  1  0
 41 43  1  0
 15 19  2  0
 42 43  2  0
 16 22  2  0
 12 17  1  6
 17 19  1  0
 17 20  1  0
 18 19  1  0
 18 22  1  0
 18 23  1  0
  9 10  1  0
  9 11  1  0
 10 12  1  0
 11  5  1  6
 33 34  1  0
 33 35  1  0
 34 36  1  0
 35 37  1  0
 37 43  1  1
 20 21  2  0
 21 22  1  0
M  CHG  3   2  -1  26  -1  41  -1
M  END
>  <COMPND>  (29) 
    udp_gluA.pdb 

>  <AUTHOR>  (29) 
    GENERATED BY OPEN BABEL 3.1.1

>  <MASTER>  (29) 
        0    0    0    0    0    0    0    0   56    0   56    0

>  <minimizedAffinity>  (29) 
-6.73253

>  <CNNscore>  (29) 
0.8274420500

>  <CNNaffinity>  (29) 
4.5189628601

>  <CNN_VS>  (29) 
3.7391798496

>  <CNNaffinity_variance>  (29) 
0.0904910862

$$$$
30
     RDKit          3D

 43 45  0  0  0  0  0  0  0  0999 V2000
   23.0127   73.1173   -4.1307 P   0  0  2  0  0  0  0  0  0  0  0  0
   23.4725   74.1105   -5.3227 O   0  0  0  0  0  0  0  0  0  0  0  0
   24.0781   72.1821   -3.6387 O   0  0  0  0  0  0  0  0  0  0  0  0
   21.6725   72.4157   -4.7048 O   0  0  0  0  0  0  0  0  0  0  0  0
   21.1348   71.3095   -4.0036 C   0  0  0  0  0  0  0  0  0  0  0  0
   19.0304   72.0342   -4.9111 O   0  0  0  0  0  0  0  0  0  0  0  0
   17.7674   70.7632   -2.5068 O   0  0  0  0  0  0  0  0  0  0  0  0
   17.3474   68.9016   -4.4546 O   0  0  0  0  0  0  0  0  0  0  0  0
   18.9032   70.3395   -3.2612 C   0  0  1  0  0  0  0  0  0  0  0  0
   18.4636   69.7566   -4.5876 C   0  0  2  0  0  0  0  0  0  0  0  0
   19.6678   71.5819   -3.6969 C   0  0  1  0  0  0  0  0  0  0  0  0
   18.1504   71.0062   -5.3929 C   0  0  2  0  0  0  0  0  0  0  0  0
   17.2630   69.9864   -2.2173 H   0  0  0  0  0  0  0  0  0  0  0  0
   17.5979   68.1213   -3.9347 H   0  0  0  0  0  0  0  0  0  0  0  0
   16.2431   69.9427   -7.1838 O   0  0  0  0  0  0  0  0  0  0  0  0
   19.1143   70.3447  -10.7670 O   0  0  0  0  0  0  0  0  0  0  0  0
   18.3732   70.8220   -6.7990 N   0  0  0  0  0  0  0  0  0  0  0  0
   17.6753   70.1430   -8.9665 N   0  0  0  0  0  0  0  0  0  0  0  0
   17.3491   70.2794   -7.6108 C   0  0  0  0  0  0  0  0  0  0  0  0
   19.5933   71.1784   -7.3605 C   0  0  0  0  0  0  0  0  0  0  0  0
   19.8894   71.0425   -8.6546 C   0  0  0  0  0  0  0  0  0  0  0  0
   18.8747   70.4825   -9.5712 C   0  0  0  0  0  0  0  0  0  0  0  0
   16.9789   69.7655   -9.5512 H   0  0  0  0  0  0  0  0  0  0  0  0
   22.4400   74.1338   -3.0119 O   0  0  0  0  0  0  0  0  0  0  0  0
   23.1363   74.7676   -1.6978 P   0  0  2  0  0  0  0  0  0  0  0  0
   22.3656   76.1794   -1.5153 O   0  0  0  0  0  0  0  0  0  0  0  0
   24.6302   74.8858   -1.7888 O   0  0  0  0  0  0  0  0  0  0  0  0
   22.6102   73.8555   -0.4756 O   0  0  0  0  0  0  0  0  0  0  0  0
   23.6710   73.5267    1.6162 O   0  0  0  0  0  0  0  0  0  0  0  0
   21.5466   70.0092    1.1888 O   0  0  0  0  0  0  0  0  0  0  0  0
   22.9693   71.1657   -1.0857 O   0  0  0  0  0  0  0  0  0  0  0  0
   20.6053   72.0702    3.0100 O   0  0  0  0  0  0  0  0  0  0  0  0
   21.8031   71.4044    1.0284 C   0  0  2  0  0  0  0  0  0  0  0  0
   23.1117   71.5994    0.2621 C   0  0  2  0  0  0  0  0  0  0  0  0
   21.9039   72.0298    2.4214 C   0  0  1  0  0  0  0  0  0  0  0  0
   23.5368   73.0684    0.2703 C   0  0  1  0  0  0  0  0  0  0  0  0
   22.4539   73.4517    2.3552 C   0  0  1  0  0  0  0  0  0  0  0  0
   21.4786   69.5904    0.3162 H   0  0  0  0  0  0  0  0  0  0  0  0
   22.6993   70.2344   -1.0984 H   0  0  0  0  0  0  0  0  0  0  0  0
   20.2438   71.1714    3.0578 H   0  0  0  0  0  0  0  0  0  0  0  0
   24.1539   74.3211    3.7175 O   0  0  0  0  0  0  0  0  0  0  0  0
   22.1219   73.9659    4.6891 O   0  0  0  0  0  0  0  0  0  0  0  0
   22.8558   73.9287    3.7129 C   0  0  0  0  0  0  0  0  0  0  0  0
  1  4  1  0
  1 24  1  0
  1  2  1  6
  1  3  2  0
 25 28  1  0
 25 24  1  0
 25 26  1  1
 25 27  2  0
  6 11  1  0
  6 12  1  0
 29 36  1  0
 29 37  1  0
  9  7  1  1
  7 13  1  0
 10  8  1  1
  8 14  1  0
  4  5  1  0
 36 28  1  1
 33 30  1  1
 30 38  1  0
 34 31  1  6
 31 39  1  0
 35 32  1  6
 32 40  1  0
 41 43  1  0
 15 19  2  0
 42 43  2  0
 16 22  2  0
 12 17  1  6
 17 19  1  0
 17 20  1  0
 18 19  1  0
 18 22  1  0
 18 23  1  0
  9 10  1  0
  9 11  1  0
 10 12  1  0
 11  5  1  6
 33 34  1  0
 33 35  1  0
 34 36  1  0
 35 37  1  0
 37 43  1  1
 20 21  2  0
 21 22  1  0
M  CHG  3   2  -1  26  -1  41  -1
M  END
>  <COMPND>  (30) 
    udp_gluA.pdb 

>  <AUTHOR>  (30) 
    GENERATED BY OPEN BABEL 3.1.1

>  <MASTER>  (30) 
        0    0    0    0    0    0    0    0   56    0   56    0

>  <minimizedAffinity>  (30) 
-7.55698

>  <CNNscore>  (30) 
0.8237362504

>  <CNNaffinity>  (30) 
4.5946388245

>  <CNN_VS>  (30) 
3.7847704887

>  <CNNaffinity_variance>  (30) 
0.0373771228

$$$$
31
     RDKit          3D

 43 45  0  0  0  0  0  0  0  0999 V2000
   22.9127   71.7532   -2.0981 P   0  0  2  0  0  0  0  0  0  0  0  0
   24.1970   71.1761   -2.8958 O   0  0  0  0  0  0  0  0  0  0  0  0
   22.3056   70.8060   -1.1050 O   0  0  0  0  0  0  0  0  0  0  0  0
   21.9255   72.2682   -3.2720 O   0  0  0  0  0  0  0  0  0  0  0  0
   21.1227   71.3166   -3.9463 C   0  0  0  0  0  0  0  0  0  0  0  0
   19.0264   72.0544   -4.8621 O   0  0  0  0  0  0  0  0  0  0  0  0
   17.7471   70.8008   -2.4572 O   0  0  0  0  0  0  0  0  0  0  0  0
   17.3184   68.9361   -4.4002 O   0  0  0  0  0  0  0  0  0  0  0  0
   18.8817   70.3660   -3.2071 C   0  0  1  0  0  0  0  0  0  0  0  0
   18.4414   69.7822   -4.5328 C   0  0  2  0  0  0  0  0  0  0  0  0
   19.6570   71.6011   -3.6447 C   0  0  1  0  0  0  0  0  0  0  0  0
   18.1400   71.0314   -5.3430 C   0  0  2  0  0  0  0  0  0  0  0  0
   17.2360   70.0287   -2.1667 H   0  0  0  0  0  0  0  0  0  0  0  0
   17.5615   68.1556   -3.8771 H   0  0  0  0  0  0  0  0  0  0  0  0
   16.2216   69.9987   -7.1402 O   0  0  0  0  0  0  0  0  0  0  0  0
   19.1141   70.3441  -10.7120 O   0  0  0  0  0  0  0  0  0  0  0  0
   18.3652   70.8410   -6.7479 N   0  0  0  0  0  0  0  0  0  0  0  0
   17.6644   70.1708   -8.9172 N   0  0  0  0  0  0  0  0  0  0  0  0
   17.3351   70.3152   -7.5631 C   0  0  0  0  0  0  0  0  0  0  0  0
   19.5937   71.1749   -7.3049 C   0  0  0  0  0  0  0  0  0  0  0  0
   19.8927   71.0317   -8.5975 C   0  0  0  0  0  0  0  0  0  0  0  0
   18.8721   70.4882   -9.5174 C   0  0  0  0  0  0  0  0  0  0  0  0
   16.9639   69.8046   -9.5042 H   0  0  0  0  0  0  0  0  0  0  0  0
   23.4697   73.1305   -1.4614 O   0  0  0  0  0  0  0  0  0  0  0  0
   23.8202   73.5285    0.0658 P   0  0  2  0  0  0  0  0  0  0  0  0
   24.4882   74.9959   -0.0784 O   0  0  0  0  0  0  0  0  0  0  0  0
   24.6783   72.5261    0.7819 O   0  0  0  0  0  0  0  0  0  0  0  0
   22.3881   73.7991    0.7572 O   0  0  0  0  0  0  0  0  0  0  0  0
   22.0329   72.9013    2.9198 O   0  0  0  0  0  0  0  0  0  0  0  0
   18.1907   73.9141    1.7887 O   0  0  0  0  0  0  0  0  0  0  0  0
   20.0103   72.6499   -0.1153 O   0  0  0  0  0  0  0  0  0  0  0  0
   19.6330   75.5655    3.6976 O   0  0  0  0  0  0  0  0  0  0  0  0
   19.6120   74.0398    1.8329 C   0  0  2  0  0  0  0  0  0  0  0  0
   20.2557   72.7675    1.2813 C   0  0  2  0  0  0  0  0  0  0  0  0
   20.0226   74.2549    3.2913 C   0  0  1  0  0  0  0  0  0  0  0  0
   21.7658   72.7692    1.5232 C   0  0  1  0  0  0  0  0  0  0  0  0
   21.5316   74.1169    3.4714 C   0  0  1  0  0  0  0  0  0  0  0  0
   17.9064   73.7766    0.8713 H   0  0  0  0  0  0  0  0  0  0  0  0
   19.0539   72.6484   -0.2761 H   0  0  0  0  0  0  0  0  0  0  0  0
   18.6745   75.6664    3.5878 H   0  0  0  0  0  0  0  0  0  0  0  0
   22.4612   72.7991    5.1745 O   0  0  0  0  0  0  0  0  0  0  0  0
   21.6870   74.8620    5.7609 O   0  0  0  0  0  0  0  0  0  0  0  0
   21.8847   73.9995    4.9184 C   0  0  0  0  0  0  0  0  0  0  0  0
  1  4  1  0
  1 24  1  0
  1  2  1  6
  1  3  2  0
 25 28  1  0
 25 24  1  0
 25 26  1  6
 25 27  2  0
  6 11  1  0
  6 12  1  0
 29 36  1  0
 29 37  1  0
  9  7  1  1
  7 13  1  0
 10  8  1  1
  8 14  1  0
  4  5  1  0
 36 28  1  6
 33 30  1  1
 30 38  1  0
 34 31  1  6
 31 39  1  0
 35 32  1  6
 32 40  1  0
 41 43  1  0
 15 19  2  0
 42 43  2  0
 16 22  2  0
 12 17  1  6
 17 19  1  0
 17 20  1  0
 18 19  1  0
 18 22  1  0
 18 23  1  0
  9 10  1  0
  9 11  1  0
 10 12  1  0
 11  5  1  6
 33 34  1  0
 33 35  1  0
 34 36  1  0
 35 37  1  0
 37 43  1  1
 20 21  2  0
 21 22  1  0
M  CHG  3   2  -1  26  -1  41  -1
M  END
>  <COMPND>  (31) 
    udp_gluA.pdb 

>  <AUTHOR>  (31) 
    GENERATED BY OPEN BABEL 3.1.1

>  <MASTER>  (31) 
        0    0    0    0    0    0    0    0   56    0   56    0

>  <minimizedAffinity>  (31) 
-6.42584

>  <CNNscore>  (31) 
0.7936677933

>  <CNNaffinity>  (31) 
4.4845099449

>  <CNN_VS>  (31) 
3.5592110157

>  <CNNaffinity_variance>  (31) 
0.0643209815

$$$$
32
     RDKit          3D

 43 45  0  0  0  0  0  0  0  0999 V2000
   21.9240   72.6177   -5.8721 P   0  0  2  0  0  0  0  0  0  0  0  0
   20.7809   73.6223   -5.3217 O   0  0  0  0  0  0  0  0  0  0  0  0
   23.0429   73.2805   -6.6209 O   0  0  0  0  0  0  0  0  0  0  0  0
   21.0944   71.4983   -6.6946 O   0  0  0  0  0  0  0  0  0  0  0  0
   20.4255   71.8879   -7.8801 C   0  0  0  0  0  0  0  0  0  0  0  0
   19.2212   69.8792   -7.3396 O   0  0  0  0  0  0  0  0  0  0  0  0
   18.1319   70.0029  -10.1305 O   0  0  0  0  0  0  0  0  0  0  0  0
   16.0713   70.9903   -8.6423 O   0  0  0  0  0  0  0  0  0  0  0  0
   18.4297   71.0689   -9.2286 C   0  0  1  0  0  0  0  0  0  0  0  0
   17.3819   71.1411   -8.1382 C   0  0  2  0  0  0  0  0  0  0  0  0
   19.6785   70.6869   -8.4458 C   0  0  1  0  0  0  0  0  0  0  0  0
   17.7938   69.9961   -7.2287 C   0  0  2  0  0  0  0  0  0  0  0  0
   17.3375   70.2241  -10.6421 H   0  0  0  0  0  0  0  0  0  0  0  0
   15.8564   71.7440   -9.2149 H   0  0  0  0  0  0  0  0  0  0  0  0
   16.2859   68.2234   -5.6287 O   0  0  0  0  0  0  0  0  0  0  0  0
   16.5356   71.0200   -1.9736 O   0  0  0  0  0  0  0  0  0  0  0  0
   17.4503   70.2361   -5.8556 N   0  0  0  0  0  0  0  0  0  0  0  0
   16.4108   69.6184   -3.8101 N   0  0  0  0  0  0  0  0  0  0  0  0
   16.6886   69.2813   -5.1413 C   0  0  0  0  0  0  0  0  0  0  0  0
   17.8677   71.4047   -5.2303 C   0  0  0  0  0  0  0  0  0  0  0  0
   17.5952   71.7121   -3.9606 C   0  0  0  0  0  0  0  0  0  0  0  0
   16.8035   70.7684   -3.1446 C   0  0  0  0  0  0  0  0  0  0  0  0
   15.8802   68.9700   -3.2931 H   0  0  0  0  0  0  0  0  0  0  0  0
   22.3822   71.8247   -4.5402 O   0  0  0  0  0  0  0  0  0  0  0  0
   23.5584   72.1310   -3.4742 P   0  0  2  0  0  0  0  0  0  0  0  0
   24.4798   73.2179   -4.2424 O   0  0  0  0  0  0  0  0  0  0  0  0
   24.2995   70.9116   -3.0076 O   0  0  0  0  0  0  0  0  0  0  0  0
   22.8374   72.9671   -2.2981 O   0  0  0  0  0  0  0  0  0  0  0  0
   21.6968   71.6379   -0.7039 O   0  0  0  0  0  0  0  0  0  0  0  0
   20.4423   75.4390    0.3189 O   0  0  0  0  0  0  0  0  0  0  0  0
   20.6274   74.6455   -2.4865 O   0  0  0  0  0  0  0  0  0  0  0  0
   22.4308   74.0729    1.9408 O   0  0  0  0  0  0  0  0  0  0  0  0
   21.3504   74.4561   -0.1784 C   0  0  2  0  0  0  0  0  0  0  0  0
   20.7307   73.7507   -1.3850 C   0  0  2  0  0  0  0  0  0  0  0  0
   21.6214   73.4518    0.9440 C   0  0  1  0  0  0  0  0  0  0  0  0
   21.5693   72.5418   -1.8022 C   0  0  1  0  0  0  0  0  0  0  0  0
   22.3512   72.2172    0.4227 C   0  0  1  0  0  0  0  0  0  0  0  0
   20.2552   76.0883   -0.3773 H   0  0  0  0  0  0  0  0  0  0  0  0
   20.0968   75.4151   -2.2288 H   0  0  0  0  0  0  0  0  0  0  0  0
   21.9777   74.8602    2.2808 H   0  0  0  0  0  0  0  0  0  0  0  0
   21.4176   70.1674    1.0770 O   0  0  0  0  0  0  0  0  0  0  0  0
   23.0082   71.0682    2.4400 O   0  0  0  0  0  0  0  0  0  0  0  0
   22.3191   71.1162    1.4321 C   0  0  0  0  0  0  0  0  0  0  0  0
  1  4  1  0
  1 24  1  0
  1  2  1  1
  1  3  2  0
 25 28  1  0
 25 24  1  0
 25 26  1  6
 25 27  2  0
  6 11  1  0
  6 12  1  0
 29 36  1  0
 29 37  1  0
  9  7  1  6
  7 13  1  0
 10  8  1  6
  8 14  1  0
  4  5  1  0
 36 28  1  1
 33 30  1  1
 30 38  1  0
 34 31  1  6
 31 39  1  0
 35 32  1  1
 32 40  1  0
 41 43  1  0
 15 19  2  0
 42 43  2  0
 16 22  2  0
 12 17  1  1
 17 19  1  0
 17 20  1  0
 18 19  1  0
 18 22  1  0
 18 23  1  0
  9 10  1  0
  9 11  1  0
 10 12  1  0
 11  5  1  1
 33 34  1  0
 33 35  1  0
 34 36  1  0
 35 37  1  0
 37 43  1  1
 20 21  2  0
 21 22  1  0
M  CHG  3   2  -1  26  -1  41  -1
M  END
>  <COMPND>  (32) 
    udp_gluA.pdb 

>  <AUTHOR>  (32) 
    GENERATED BY OPEN BABEL 3.1.1

>  <MASTER>  (32) 
        0    0    0    0    0    0    0    0   56    0   56    0

>  <minimizedAffinity>  (32) 
-8.03182

>  <CNNscore>  (32) 
0.7807139158

>  <CNNaffinity>  (32) 
4.5809011459

>  <CNN_VS>  (32) 
3.5763733387

>  <CNNaffinity_variance>  (32) 
0.2489041388

$$$$
33
     RDKit          3D

 43 45  0  0  0  0  0  0  0  0999 V2000
   23.6796   73.2945   -3.7582 P   0  0  2  0  0  0  0  0  0  0  0  0
   24.1938   71.7601   -3.7530 O   0  0  0  0  0  0  0  0  0  0  0  0
   24.5963   74.2676   -4.4399 O   0  0  0  0  0  0  0  0  0  0  0  0
   23.3597   73.6023   -2.2023 O   0  0  0  0  0  0  0  0  0  0  0  0
   22.0272   73.4612   -1.7452 C   0  0  0  0  0  0  0  0  0  0  0  0
   23.0369   71.5426   -0.7074 O   0  0  0  0  0  0  0  0  0  0  0  0
   20.2437   70.5534   -0.2478 O   0  0  0  0  0  0  0  0  0  0  0  0
   20.9299   71.5562    2.1934 O   0  0  0  0  0  0  0  0  0  0  0  0
   20.7474   71.8888   -0.2083 C   0  0  1  0  0  0  0  0  0  0  0  0
   21.5554   72.1071    1.0533 C   0  0  2  0  0  0  0  0  0  0  0  0
   21.8075   72.0233   -1.2929 C   0  0  1  0  0  0  0  0  0  0  0  0
   22.8646   71.4155    0.7130 C   0  0  2  0  0  0  0  0  0  0  0  0
   19.5646   70.4432    0.4365 H   0  0  0  0  0  0  0  0  0  0  0  0
   20.1014   72.0304    2.3686 H   0  0  0  0  0  0  0  0  0  0  0  0
   24.7920   69.9796    2.1961 O   0  0  0  0  0  0  0  0  0  0  0  0
   27.1358   73.8163    3.2110 O   0  0  0  0  0  0  0  0  0  0  0  0
   23.9888   72.0142    1.3752 N   0  0  0  0  0  0  0  0  0  0  0  0
   25.9570   71.8920    2.7010 N   0  0  0  0  0  0  0  0  0  0  0  0
   24.8985   71.2032    2.0942 C   0  0  0  0  0  0  0  0  0  0  0  0
   24.1825   73.3885    1.3075 C   0  0  0  0  0  0  0  0  0  0  0  0
   25.1963   74.0307    1.8910 C   0  0  0  0  0  0  0  0  0  0  0  0
   26.1912   73.2570    2.6624 C   0  0  0  0  0  0  0  0  0  0  0  0
   26.6022   71.3488    3.2089 H   0  0  0  0  0  0  0  0  0  0  0  0
   22.2076   73.1817   -4.4164 O   0  0  0  0  0  0  0  0  0  0  0  0
   21.7207   73.2963   -5.9537 P   0  0  2  0  0  0  0  0  0  0  0  0
   22.8166   72.4151   -6.7555 O   0  0  0  0  0  0  0  0  0  0  0  0
   21.5769   74.7057   -6.4507 O   0  0  0  0  0  0  0  0  0  0  0  0
   20.3670   72.4214   -6.0206 O   0  0  0  0  0  0  0  0  0  0  0  0
   19.8797   70.2437   -5.2273 O   0  0  0  0  0  0  0  0  0  0  0  0
   17.5770   70.4255   -8.6526 O   0  0  0  0  0  0  0  0  0  0  0  0
   20.2984   71.4876   -8.6397 O   0  0  0  0  0  0  0  0  0  0  0  0
   16.3280   70.6771   -6.0396 O   0  0  0  0  0  0  0  0  0  0  0  0
   18.2312   70.9412   -7.4933 C   0  0  2  0  0  0  0  0  0  0  0  0
   19.7359   70.6931   -7.6019 C   0  0  2  0  0  0  0  0  0  0  0  0
   17.6602   70.2222   -6.2689 C   0  0  1  0  0  0  0  0  0  0  0  0
   20.4410   71.0217   -6.2852 C   0  0  1  0  0  0  0  0  0  0  0  0
   18.4926   70.5010   -5.0207 C   0  0  1  0  0  0  0  0  0  0  0  0
   17.9237   70.8678   -9.4434 H   0  0  0  0  0  0  0  0  0  0  0  0
   19.8554   71.2845   -9.4780 H   0  0  0  0  0  0  0  0  0  0  0  0
   15.7878   70.5057   -6.8267 H   0  0  0  0  0  0  0  0  0  0  0  0
   18.8872   69.7934   -2.8196 O   0  0  0  0  0  0  0  0  0  0  0  0
   17.2834   68.6807   -3.9981 O   0  0  0  0  0  0  0  0  0  0  0  0
   18.1355   69.5532   -3.9224 C   0  0  0  0  0  0  0  0  0  0  0  0
  1  4  1  0
  1 24  1  0
  1  2  1  1
  1  3  2  0
 25 28  1  0
 25 24  1  0
 25 26  1  6
 25 27  2  0
  6 11  1  0
  6 12  1  0
 29 36  1  0
 29 37  1  0
  9  7  1  1
  7 13  1  0
 10  8  1  1
  8 14  1  0
  4  5  1  0
 36 28  1  1
 33 30  1  6
 30 38  1  0
 34 31  1  6
 31 39  1  0
 35 32  1  1
 32 40  1  0
 41 43  1  0
 15 19  2  0
 42 43  2  0
 16 22  2  0
 12 17  1  1
 17 19  1  0
 17 20  1  0
 18 19  1  0
 18 22  1  0
 18 23  1  0
  9 10  1  0
  9 11  1  0
 10 12  1  0
 11  5  1  1
 33 34  1  0
 33 35  1  0
 34 36  1  0
 35 37  1  0
 37 43  1  1
 20 21  2  0
 21 22  1  0
M  CHG  3   2  -1  26  -1  41  -1
M  END
>  <COMPND>  (33) 
    udp_gluA.pdb 

>  <AUTHOR>  (33) 
    GENERATED BY OPEN BABEL 3.1.1

>  <MASTER>  (33) 
        0    0    0    0    0    0    0    0   56    0   56    0

>  <minimizedAffinity>  (33) 
-7.86180

>  <CNNscore>  (33) 
0.7806081772

>  <CNNaffinity>  (33) 
4.5766601562

>  <CNN_VS>  (33) 
3.5725784302

>  <CNNaffinity_variance>  (33) 
0.0551569462

$$$$
34
     RDKit          3D

 43 45  0  0  0  0  0  0  0  0999 V2000
   23.6004   72.7146   -3.5566 P   0  0  2  0  0  0  0  0  0  0  0  0
   23.9722   71.2018   -3.1184 O   0  0  0  0  0  0  0  0  0  0  0  0
   24.6684   73.4308   -4.3301 O   0  0  0  0  0  0  0  0  0  0  0  0
   23.1432   73.4184   -2.1733 O   0  0  0  0  0  0  0  0  0  0  0  0
   22.1807   74.4553   -2.2282 C   0  0  0  0  0  0  0  0  0  0  0  0
   21.2386   72.7748   -0.7908 O   0  0  0  0  0  0  0  0  0  0  0  0
   19.1745   74.8231   -0.0589 O   0  0  0  0  0  0  0  0  0  0  0  0
   20.8802   74.9101    2.0669 O   0  0  0  0  0  0  0  0  0  0  0  0
   20.5627   75.0003   -0.3420 C   0  0  1  0  0  0  0  0  0  0  0  0
   21.4013   74.5067    0.8178 C   0  0  2  0  0  0  0  0  0  0  0  0
   20.9444   74.0264   -1.4484 C   0  0  1  0  0  0  0  0  0  0  0  0
   21.3538   73.0008    0.6231 C   0  0  2  0  0  0  0  0  0  0  0  0
   18.9072   75.4350    0.6453 H   0  0  0  0  0  0  0  0  0  0  0  0
   20.9329   75.8762    2.1425 H   0  0  0  0  0  0  0  0  0  0  0  0
   21.5269   70.2450    1.2162 O   0  0  0  0  0  0  0  0  0  0  0  0
   25.9484   70.6057    2.4670 O   0  0  0  0  0  0  0  0  0  0  0  0
   22.5381   72.3483    1.1052 N   0  0  0  0  0  0  0  0  0  0  0  0
   23.7286   70.4274    1.8396 N   0  0  0  0  0  0  0  0  0  0  0  0
   22.5192   70.9590    1.3727 C   0  0  0  0  0  0  0  0  0  0  0  0
   23.7009   73.0818    1.3068 C   0  0  0  0  0  0  0  0  0  0  0  0
   24.8461   72.5611    1.7521 C   0  0  0  0  0  0  0  0  0  0  0  0
   24.9108   71.1166    2.0563 C   0  0  0  0  0  0  0  0  0  0  0  0
   23.7394   69.4625    2.0347 H   0  0  0  0  0  0  0  0  0  0  0  0
   22.2039   72.5300   -4.3493 O   0  0  0  0  0  0  0  0  0  0  0  0
   21.7343   73.0482   -5.8069 P   0  0  2  0  0  0  0  0  0  0  0  0
   22.7881   72.3376   -6.8093 O   0  0  0  0  0  0  0  0  0  0  0  0
   21.6679   74.5424   -5.9373 O   0  0  0  0  0  0  0  0  0  0  0  0
   20.3371   72.2895   -6.0804 O   0  0  0  0  0  0  0  0  0  0  0  0
   19.6971   70.1352   -5.3331 O   0  0  0  0  0  0  0  0  0  0  0  0
   17.5083   70.5008   -8.8179 O   0  0  0  0  0  0  0  0  0  0  0  0
   20.2873   71.3958   -8.7138 O   0  0  0  0  0  0  0  0  0  0  0  0
   16.2026   70.7936   -6.2371 O   0  0  0  0  0  0  0  0  0  0  0  0
   18.1590   70.9607   -7.6334 C   0  0  2  0  0  0  0  0  0  0  0  0
   19.6486   70.6234   -7.7039 C   0  0  2  0  0  0  0  0  0  0  0  0
   17.5111   70.2618   -6.4361 C   0  0  1  0  0  0  0  0  0  0  0  0
   20.3343   70.8915   -6.3635 C   0  0  1  0  0  0  0  0  0  0  0  0
   18.3227   70.4734   -5.1613 C   0  0  1  0  0  0  0  0  0  0  0  0
   17.9036   70.9316   -9.5922 H   0  0  0  0  0  0  0  0  0  0  0  0
   19.8570   71.2308   -9.5671 H   0  0  0  0  0  0  0  0  0  0  0  0
   15.6758   70.6655   -7.0414 H   0  0  0  0  0  0  0  0  0  0  0  0
   18.6998   69.6141   -3.0117 O   0  0  0  0  0  0  0  0  0  0  0  0
   16.9074   68.7958   -4.1592 O   0  0  0  0  0  0  0  0  0  0  0  0
   17.8779   69.5347   -4.0874 C   0  0  0  0  0  0  0  0  0  0  0  0
  1  4  1  0
  1 24  1  0
  1  2  1  1
  1  3  2  0
 25 28  1  0
 25 24  1  0
 25 26  1  6
 25 27  2  0
  6 11  1  0
  6 12  1  0
 29 36  1  0
 29 37  1  0
  9  7  1  1
  7 13  1  0
 10  8  1  1
  8 14  1  0
  4  5  1  0
 36 28  1  1
 33 30  1  6
 30 38  1  0
 34 31  1  6
 31 39  1  0
 35 32  1  1
 32 40  1  0
 41 43  1  0
 15 19  2  0
 42 43  2  0
 16 22  2  0
 12 17  1  6
 17 19  1  0
 17 20  1  0
 18 19  1  0
 18 22  1  0
 18 23  1  0
  9 10  1  0
  9 11  1  0
 10 12  1  0
 11  5  1  1
 33 34  1  0
 33 35  1  0
 34 36  1  0
 35 37  1  0
 37 43  1  1
 20 21  2  0
 21 22  1  0
M  CHG  3   2  -1  26  -1  41  -1
M  END
>  <COMPND>  (34) 
    udp_gluA.pdb 

>  <AUTHOR>  (34) 
    GENERATED BY OPEN BABEL 3.1.1

>  <MASTER>  (34) 
        0    0    0    0    0    0    0    0   56    0   56    0

>  <minimizedAffinity>  (34) 
-7.87524

>  <CNNscore>  (34) 
0.7728143334

>  <CNNaffinity>  (34) 
4.6478180885

>  <CNN_VS>  (34) 
3.5919003487

>  <CNNaffinity_variance>  (34) 
0.0628850982

$$$$
35
     RDKit          3D

 43 45  0  0  0  0  0  0  0  0999 V2000
   19.0290   72.6514   -1.7727 P   0  0  2  0  0  0  0  0  0  0  0  0
   18.7999   71.1108   -2.2119 O   0  0  0  0  0  0  0  0  0  0  0  0
   17.8531   73.5560   -1.9978 O   0  0  0  0  0  0  0  0  0  0  0  0
   20.3948   73.0727   -2.5312 O   0  0  0  0  0  0  0  0  0  0  0  0
   20.3549   73.2775   -3.9316 C   0  0  0  0  0  0  0  0  0  0  0  0
   20.7069   71.1787   -5.0492 O   0  0  0  0  0  0  0  0  0  0  0  0
   23.2812   72.3521   -6.0431 O   0  0  0  0  0  0  0  0  0  0  0  0
   21.6371   72.6062   -8.2038 O   0  0  0  0  0  0  0  0  0  0  0  0
   22.0201   72.9876   -5.8331 C   0  0  1  0  0  0  0  0  0  0  0  0
   21.0454   72.5907   -6.9215 C   0  0  2  0  0  0  0  0  0  0  0  0
   21.3836   72.3708   -4.5950 C   0  0  1  0  0  0  0  0  0  0  0  0
   20.6351   71.1950   -6.4838 C   0  0  2  0  0  0  0  0  0  0  0  0
   23.7070   72.7297   -6.8291 H   0  0  0  0  0  0  0  0  0  0  0  0
   21.8803   73.5165   -8.4366 H   0  0  0  0  0  0  0  0  0  0  0  0
   19.9681   69.9679   -8.9386 O   0  0  0  0  0  0  0  0  0  0  0  0
   15.4709   69.9748   -7.9294 O   0  0  0  0  0  0  0  0  0  0  0  0
   19.2977   70.8649   -6.8881 N   0  0  0  0  0  0  0  0  0  0  0  0
   17.7288   69.9735   -8.4340 N   0  0  0  0  0  0  0  0  0  0  0  0
   19.0709   70.2501   -8.1421 C   0  0  0  0  0  0  0  0  0  0  0  0
   18.2289   71.1481   -6.0465 C   0  0  0  0  0  0  0  0  0  0  0  0
   16.9550   70.8784   -6.3385 C   0  0  0  0  0  0  0  0  0  0  0  0
   16.6318   70.2370   -7.6298 C   0  0  0  0  0  0  0  0  0  0  0  0
   17.5457   69.5473   -9.3025 H   0  0  0  0  0  0  0  0  0  0  0  0
   19.4947   72.5236   -0.2301 O   0  0  0  0  0  0  0  0  0  0  0  0
   20.8743   71.9887    0.4213 P   0  0  2  0  0  0  0  0  0  0  0  0
   21.2079   70.6674   -0.4522 O   0  0  0  0  0  0  0  0  0  0  0  0
   20.8042   71.7498    1.9018 O   0  0  0  0  0  0  0  0  0  0  0  0
   21.9856   73.0671   -0.0310 O   0  0  0  0  0  0  0  0  0  0  0  0
   23.6464   73.0380   -1.7191 O   0  0  0  0  0  0  0  0  0  0  0  0
   25.5617   75.0946    1.3091 O   0  0  0  0  0  0  0  0  0  0  0  0
   23.9481   72.7351    1.9118 O   0  0  0  0  0  0  0  0  0  0  0  0
   24.5255   76.5267   -0.9987 O   0  0  0  0  0  0  0  0  0  0  0  0
   24.4464   74.6649    0.5285 C   0  0  2  0  0  0  0  0  0  0  0  0
   24.3264   73.1425    0.6020 C   0  0  2  0  0  0  0  0  0  0  0  0
   24.6805   75.1112   -0.9165 C   0  0  1  0  0  0  0  0  0  0  0  0
   23.2914   72.6263   -0.3986 C   0  0  1  0  0  0  0  0  0  0  0  0
   23.6860   74.4553   -1.8701 C   0  0  1  0  0  0  0  0  0  0  0  0
   25.4352   74.8220    2.2316 H   0  0  0  0  0  0  0  0  0  0  0  0
   24.6003   73.0594    2.5519 H   0  0  0  0  0  0  0  0  0  0  0  0
   25.1527   76.9562   -0.3963 H   0  0  0  0  0  0  0  0  0  0  0  0
   24.6402   73.4762   -3.7760 O   0  0  0  0  0  0  0  0  0  0  0  0
   24.0172   75.6641   -3.9318 O   0  0  0  0  0  0  0  0  0  0  0  0
   24.1184   74.6295   -3.2896 C   0  0  0  0  0  0  0  0  0  0  0  0
  1  4  1  0
  1 24  1  0
  1  2  1  6
  1  3  2  0
 25 28  1  0
 25 24  1  0
 25 26  1  6
 25 27  2  0
  6 11  1  0
  6 12  1  0
 29 36  1  0
 29 37  1  0
  9  7  1  6
  7 13  1  0
 10  8  1  6
  8 14  1  0
  4  5  1  0
 36 28  1  1
 33 30  1  1
 30 38  1  0
 34 31  1  1
 31 39  1  0
 35 32  1  1
 32 40  1  0
 41 43  1  0
 15 19  2  0
 42 43  2  0
 16 22  2  0
 12 17  1  1
 17 19  1  0
 17 20  1  0
 18 19  1  0
 18 22  1  0
 18 23  1  0
  9 10  1  0
  9 11  1  0
 10 12  1  0
 11  5  1  6
 33 34  1  0
 33 35  1  0
 34 36  1  0
 35 37  1  0
 37 43  1  6
 20 21  2  0
 21 22  1  0
M  CHG  3   2  -1  26  -1  41  -1
M  END
>  <COMPND>  (35) 
    udp_gluA.pdb 

>  <AUTHOR>  (35) 
    GENERATED BY OPEN BABEL 3.1.1

>  <MASTER>  (35) 
        0    0    0    0    0    0    0    0   56    0   56    0

>  <minimizedAffinity>  (35) 
-6.33476

>  <CNNscore>  (35) 
0.6530896425

>  <CNNaffinity>  (35) 
4.2440576553

>  <CNN_VS>  (35) 
2.7717502117

>  <CNNaffinity_variance>  (35) 
0.0874049515

$$$$
36
     RDKit          3D

 43 45  0  0  0  0  0  0  0  0999 V2000
   20.3503   74.3806   -4.5339 P   0  0  2  0  0  0  0  0  0  0  0  0
   20.1160   74.7101   -2.9669 O   0  0  0  0  0  0  0  0  0  0  0  0
   19.9908   75.4922   -5.4757 O   0  0  0  0  0  0  0  0  0  0  0  0
   19.5619   72.9858   -4.7597 O   0  0  0  0  0  0  0  0  0  0  0  0
   19.1116   72.2719   -3.6230 C   0  0  0  0  0  0  0  0  0  0  0  0
   17.2575   72.1623   -5.1488 O   0  0  0  0  0  0  0  0  0  0  0  0
   15.8262   70.6272   -3.0072 O   0  0  0  0  0  0  0  0  0  0  0  0
   16.6403   68.6581   -4.7089 O   0  0  0  0  0  0  0  0  0  0  0  0
   17.2081   70.6038   -3.3657 C   0  0  1  0  0  0  0  0  0  0  0  0
   17.4001   69.8477   -4.6633 C   0  0  2  0  0  0  0  0  0  0  0  0
   17.6158   72.0175   -3.7574 C   0  0  1  0  0  0  0  0  0  0  0  0
   16.9493   70.8693   -5.6933 C   0  0  2  0  0  0  0  0  0  0  0  0
   15.5426   69.7347   -2.7530 H   0  0  0  0  0  0  0  0  0  0  0  0
   16.9661   68.0404   -4.0349 H   0  0  0  0  0  0  0  0  0  0  0  0
   15.6500   70.5264   -8.1774 O   0  0  0  0  0  0  0  0  0  0  0  0
   19.6549   70.2973  -10.4472 O   0  0  0  0  0  0  0  0  0  0  0  0
   17.6282   70.7177   -6.9491 N   0  0  0  0  0  0  0  0  0  0  0  0
   17.6459   70.4116   -9.3054 N   0  0  0  0  0  0  0  0  0  0  0  0
   16.8816   70.5511   -8.1395 C   0  0  0  0  0  0  0  0  0  0  0  0
   19.0169   70.7364   -6.9935 C   0  0  0  0  0  0  0  0  0  0  0  0
   19.7315   70.6022   -8.1125 C   0  0  0  0  0  0  0  0  0  0  0  0
   19.0282   70.4230   -9.3996 C   0  0  0  0  0  0  0  0  0  0  0  0
   17.1483   70.2923  -10.1465 H   0  0  0  0  0  0  0  0  0  0  0  0
   21.9026   73.9325   -4.5824 O   0  0  0  0  0  0  0  0  0  0  0  0
   22.6357   72.5873   -4.0659 P   0  0  2  0  0  0  0  0  0  0  0  0
   24.2034   72.9900   -4.0844 O   0  0  0  0  0  0  0  0  0  0  0  0
   22.3031   71.3597   -4.8637 O   0  0  0  0  0  0  0  0  0  0  0  0
   22.2584   72.4908   -2.5004 O   0  0  0  0  0  0  0  0  0  0  0  0
   22.4324   74.0069   -0.6892 O   0  0  0  0  0  0  0  0  0  0  0  0
   23.3855   70.4188    1.1234 O   0  0  0  0  0  0  0  0  0  0  0  0
   24.4386   71.0665   -1.5235 O   0  0  0  0  0  0  0  0  0  0  0  0
   20.7719   71.6190    1.5476 O   0  0  0  0  0  0  0  0  0  0  0  0
   22.7283   71.2708    0.1851 C   0  0  2  0  0  0  0  0  0  0  0  0
   23.7711   71.9898   -0.6710 C   0  0  2  0  0  0  0  0  0  0  0  0
   21.8938   72.2848    0.9708 C   0  0  1  0  0  0  0  0  0  0  0  0
   23.1205   73.0774   -1.5271 C   0  0  1  0  0  0  0  0  0  0  0  0
   21.3851   73.4056    0.0689 C   0  0  1  0  0  0  0  0  0  0  0  0
   23.9221   69.7659    0.6469 H   0  0  0  0  0  0  0  0  0  0  0  0
   24.8535   70.3735   -0.9869 H   0  0  0  0  0  0  0  0  0  0  0  0
   21.0820   70.9031    2.1239 H   0  0  0  0  0  0  0  0  0  0  0  0
   21.1973   74.3943    2.1876 O   0  0  0  0  0  0  0  0  0  0  0  0
   20.2239   75.4879    0.4395 O   0  0  0  0  0  0  0  0  0  0  0  0
   20.8628   74.5451    0.8820 C   0  0  0  0  0  0  0  0  0  0  0  0
  1  4  1  0
  1 24  1  0
  1  2  1  1
  1  3  2  0
 25 28  1  0
 25 24  1  0
 25 26  1  1
 25 27  2  0
  6 11  1  0
  6 12  1  0
 29 36  1  0
 29 37  1  0
  9  7  1  6
  7 13  1  0
 10  8  1  1
  8 14  1  0
  4  5  1  0
 36 28  1  6
 33 30  1  1
 30 38  1  0
 34 31  1  6
 31 39  1  0
 35 32  1  6
 32 40  1  0
 41 43  1  0
 15 19  2  0
 42 43  2  0
 16 22  2  0
 12 17  1  6
 17 19  1  0
 17 20  1  0
 18 19  1  0
 18 22  1  0
 18 23  1  0
  9 10  1  0
  9 11  1  0
 10 12  1  0
 11  5  1  6
 33 34  1  0
 33 35  1  0
 34 36  1  0
 35 37  1  0
 37 43  1  1
 20 21  2  0
 21 22  1  0
M  CHG  3   2  -1  26  -1  41  -1
M  END
>  <COMPND>  (36) 
    udp_gluA.pdb 

>  <AUTHOR>  (36) 
    GENERATED BY OPEN BABEL 3.1.1

>  <MASTER>  (36) 
        0    0    0    0    0    0    0    0   56    0   56    0

>  <minimizedAffinity>  (36) 
-6.21485

>  <CNNscore>  (36) 
0.6444391012

>  <CNNaffinity>  (36) 
4.5270462036

>  <CNN_VS>  (36) 
2.9174056053

>  <CNNaffinity_variance>  (36) 
0.1523723155

$$$$
37
     RDKit          3D

 43 45  0  0  0  0  0  0  0  0999 V2000
   21.6833   75.3005   -2.5706 P   0  0  2  0  0  0  0  0  0  0  0  0
   21.4867   76.2610   -3.8581 O   0  0  0  0  0  0  0  0  0  0  0  0
   23.0975   74.8711   -2.3105 O   0  0  0  0  0  0  0  0  0  0  0  0
   20.6192   74.1056   -2.8113 O   0  0  0  0  0  0  0  0  0  0  0  0
   20.2999   73.7425   -4.1419 C   0  0  0  0  0  0  0  0  0  0  0  0
   20.5851   71.5291   -5.0349 O   0  0  0  0  0  0  0  0  0  0  0  0
   23.3106   72.4310   -5.9009 O   0  0  0  0  0  0  0  0  0  0  0  0
   21.8692   72.5884   -8.2103 O   0  0  0  0  0  0  0  0  0  0  0  0
   22.0869   73.1654   -5.8583 C   0  0  1  0  0  0  0  0  0  0  0  0
   21.1765   72.7328   -6.9881 C   0  0  2  0  0  0  0  0  0  0  0  0
   21.3091   72.7114   -4.6307 C   0  0  1  0  0  0  0  0  0  0  0  0
   20.6305   71.4148   -6.4660 C   0  0  2  0  0  0  0  0  0  0  0  0
   23.8250   72.7039   -6.6771 H   0  0  0  0  0  0  0  0  0  0  0  0
   22.1967   73.4547   -8.5006 H   0  0  0  0  0  0  0  0  0  0  0  0
   20.0560   69.6556   -8.5995 O   0  0  0  0  0  0  0  0  0  0  0  0
   15.5247   70.4254   -8.2548 O   0  0  0  0  0  0  0  0  0  0  0  0
   19.3094   71.1370   -6.9544 N   0  0  0  0  0  0  0  0  0  0  0  0
   17.7998   70.0415   -8.4265 N   0  0  0  0  0  0  0  0  0  0  0  0
   19.1298   70.2374   -8.0316 C   0  0  0  0  0  0  0  0  0  0  0  0
   18.2097   71.7508   -6.3672 C   0  0  0  0  0  0  0  0  0  0  0  0
   16.9479   71.5540   -6.7544 C   0  0  0  0  0  0  0  0  0  0  0  0
   16.6735   70.6294   -7.8739 C   0  0  0  0  0  0  0  0  0  0  0  0
   17.6498   69.4210   -9.1760 H   0  0  0  0  0  0  0  0  0  0  0  0
   21.0078   76.1532   -1.3751 O   0  0  0  0  0  0  0  0  0  0  0  0
   21.6211   76.6979    0.0181 P   0  0  2  0  0  0  0  0  0  0  0  0
   20.4094   77.5739    0.6382 O   0  0  0  0  0  0  0  0  0  0  0  0
   22.9136   77.4473   -0.1293 O   0  0  0  0  0  0  0  0  0  0  0  0
   21.7072   75.3945    0.9647 O   0  0  0  0  0  0  0  0  0  0  0  0
   20.9988   73.1828    0.4998 O   0  0  0  0  0  0  0  0  0  0  0  0
   20.4981   73.3825    4.5959 O   0  0  0  0  0  0  0  0  0  0  0  0
   19.7212   75.6291    2.8978 O   0  0  0  0  0  0  0  0  0  0  0  0
   22.7523   71.9325    3.4704 O   0  0  0  0  0  0  0  0  0  0  0  0
   21.1066   73.6874    3.3410 C   0  0  2  0  0  0  0  0  0  0  0  0
   20.0764   74.3378    2.4173 C   0  0  2  0  0  0  0  0  0  0  0  0
   21.6164   72.3792    2.7323 C   0  0  1  0  0  0  0  0  0  0  0  0
   20.6225   74.4685    0.9948 C   0  0  1  0  0  0  0  0  0  0  0  0
   22.0247   72.5652    1.2738 C   0  0  1  0  0  0  0  0  0  0  0  0
   20.1664   74.1991    5.0015 H   0  0  0  0  0  0  0  0  0  0  0  0
   19.3741   75.5537    3.8001 H   0  0  0  0  0  0  0  0  0  0  0  0
   22.5059   71.8103    4.4005 H   0  0  0  0  0  0  0  0  0  0  0  0
   21.5001   70.2793    1.2441 O   0  0  0  0  0  0  0  0  0  0  0  0
   22.8853   71.0500   -0.3949 O   0  0  0  0  0  0  0  0  0  0  0  0
   22.2034   71.2436    0.6003 C   0  0  0  0  0  0  0  0  0  0  0  0
  1  4  1  0
  1 24  1  0
  1  2  1  6
  1  3  2  0
 25 28  1  0
 25 24  1  0
 25 26  1  1
 25 27  2  0
  6 11  1  0
  6 12  1  0
 29 36  1  0
 29 37  1  0
  9  7  1  6
  7 13  1  0
 10  8  1  6
  8 14  1  0
  4  5  1  0
 36 28  1  1
 33 30  1  1
 30 38  1  0
 34 31  1  1
 31 39  1  0
 35 32  1  1
 32 40  1  0
 41 43  1  0
 15 19  2  0
 42 43  2  0
 16 22  2  0
 12 17  1  6
 17 19  1  0
 17 20  1  0
 18 19  1  0
 18 22  1  0
 18 23  1  0
  9 10  1  0
  9 11  1  0
 10 12  1  0
 11  5  1  6
 33 34  1  0
 33 35  1  0
 34 36  1  0
 35 37  1  0
 37 43  1  6
 20 21  2  0
 21 22  1  0
M  CHG  3   2  -1  26  -1  41  -1
M  END
>  <COMPND>  (37) 
    udp_gluA.pdb 

>  <AUTHOR>  (37) 
    GENERATED BY OPEN BABEL 3.1.1

>  <MASTER>  (37) 
        0    0    0    0    0    0    0    0   56    0   56    0

>  <minimizedAffinity>  (37) 
-6.17054

>  <CNNscore>  (37) 
0.6106390953

>  <CNNaffinity>  (37) 
4.2537474632

>  <CNN_VS>  (37) 
2.5975046158

>  <CNNaffinity_variance>  (37) 
0.0496192649

$$$$
38
     RDKit          3D

 43 45  0  0  0  0  0  0  0  0999 V2000
   23.1210   71.6668   -2.6471 P   0  0  2  0  0  0  0  0  0  0  0  0
   23.3295   73.2476   -2.3703 O   0  0  0  0  0  0  0  0  0  0  0  0
   24.3304   70.9507   -3.1728 O   0  0  0  0  0  0  0  0  0  0  0  0
   21.8053   71.6072   -3.5871 O   0  0  0  0  0  0  0  0  0  0  0  0
   21.6802   72.5504   -4.6356 C   0  0  0  0  0  0  0  0  0  0  0  0
   20.7879   70.6191   -5.7542 O   0  0  0  0  0  0  0  0  0  0  0  0
   21.2898   72.0999   -8.3129 O   0  0  0  0  0  0  0  0  0  0  0  0
   18.6109   72.4467   -7.9393 O   0  0  0  0  0  0  0  0  0  0  0  0
   20.8668   72.6033   -7.0455 C   0  0  1  0  0  0  0  0  0  0  0  0
   19.4167   72.2457   -6.7970 C   0  0  2  0  0  0  0  0  0  0  0  0
   21.5814   71.8076   -5.9618 C   0  0  1  0  0  0  0  0  0  0  0  0
   19.5161   70.7822   -6.4016 C   0  0  2  0  0  0  0  0  0  0  0  0
   20.8464   72.5930   -9.0214 H   0  0  0  0  0  0  0  0  0  0  0  0
   18.5792   73.3936   -8.1500 H   0  0  0  0  0  0  0  0  0  0  0  0
   16.9763   69.8388   -7.1990 O   0  0  0  0  0  0  0  0  0  0  0  0
   15.6038   69.2984   -2.8323 O   0  0  0  0  0  0  0  0  0  0  0  0
   18.4761   70.3880   -5.4939 N   0  0  0  0  0  0  0  0  0  0  0  0
   16.2948   69.5715   -5.0234 N   0  0  0  0  0  0  0  0  0  0  0  0
   17.2363   69.9284   -5.9977 C   0  0  0  0  0  0  0  0  0  0  0  0
   18.6895   70.4570   -4.1226 C   0  0  0  0  0  0  0  0  0  0  0  0
   17.7825   70.1131   -3.2062 C   0  0  0  0  0  0  0  0  0  0  0  0
   16.4605   69.6234   -3.6488 C   0  0  0  0  0  0  0  0  0  0  0  0
   15.4232   69.2504   -5.3499 H   0  0  0  0  0  0  0  0  0  0  0  0
   22.5780   71.1183   -1.2269 O   0  0  0  0  0  0  0  0  0  0  0  0
   21.5391   71.7608   -0.1679 P   0  0  2  0  0  0  0  0  0  0  0  0
   20.8446   70.4618    0.5035 O   0  0  0  0  0  0  0  0  0  0  0  0
   20.5711   72.7377   -0.7701 O   0  0  0  0  0  0  0  0  0  0  0  0
   22.4700   72.3733    0.9986 O   0  0  0  0  0  0  0  0  0  0  0  0
   24.2603   71.4714    2.2597 O   0  0  0  0  0  0  0  0  0  0  0  0
   22.3602   73.8327    5.0672 O   0  0  0  0  0  0  0  0  0  0  0  0
   20.8061   72.1878    3.2196 O   0  0  0  0  0  0  0  0  0  0  0  0
   24.8506   74.7206    3.8585 O   0  0  0  0  0  0  0  0  0  0  0  0
   22.8002   73.4591    3.7614 C   0  0  2  0  0  0  0  0  0  0  0  0
   22.2151   72.0949    3.3951 C   0  0  2  0  0  0  0  0  0  0  0  0
   24.3291   73.3955    3.7777 C   0  0  1  0  0  0  0  0  0  0  0  0
   22.8430   71.5581    2.1081 C   0  0  1  0  0  0  0  0  0  0  0  0
   24.8726   72.7336    2.5148 C   0  0  1  0  0  0  0  0  0  0  0  0
   21.3913   73.8795    5.0810 H   0  0  0  0  0  0  0  0  0  0  0  0
   20.4012   72.5281    4.0324 H   0  0  0  0  0  0  0  0  0  0  0  0
   24.5121   75.1531    4.6580 H   0  0  0  0  0  0  0  0  0  0  0  0
   26.5317   71.0848    2.3403 O   0  0  0  0  0  0  0  0  0  0  0  0
   27.1854   73.1456    3.0650 O   0  0  0  0  0  0  0  0  0  0  0  0
   26.3147   72.3796    2.6800 C   0  0  0  0  0  0  0  0  0  0  0  0
  1  4  1  0
  1 24  1  0
  1  2  1  1
  1  3  2  0
 25 28  1  0
 25 24  1  0
 25 26  1  1
 25 27  2  0
  6 11  1  0
  6 12  1  0
 29 36  1  0
 29 37  1  0
  9  7  1  6
  7 13  1  0
 10  8  1  6
  8 14  1  0
  4  5  1  0
 36 28  1  6
 33 30  1  1
 30 38  1  0
 34 31  1  6
 31 39  1  0
 35 32  1  6
 32 40  1  0
 41 43  1  0
 15 19  2  0
 42 43  2  0
 16 22  2  0
 12 17  1  1
 17 19  1  0
 17 20  1  0
 18 19  1  0
 18 22  1  0
 18 23  1  0
  9 10  1  0
  9 11  1  0
 10 12  1  0
 11  5  1  1
 33 34  1  0
 33 35  1  0
 34 36  1  0
 35 37  1  0
 37 43  1  1
 20 21  2  0
 21 22  1  0
M  CHG  3   2  -1  26  -1  41  -1
M  END
>  <COMPND>  (38) 
    udp_gluA.pdb 

>  <AUTHOR>  (38) 
    GENERATED BY OPEN BABEL 3.1.1

>  <MASTER>  (38) 
        0    0    0    0    0    0    0    0   56    0   56    0

>  <minimizedAffinity>  (38) 
-7.87460

>  <CNNscore>  (38) 
0.5927166343

>  <CNNaffinity>  (38) 
4.2721567154

>  <CNN_VS>  (38) 
2.5321784019

>  <CNNaffinity_variance>  (38) 
0.2037206441

$$$$
39
     RDKit          3D

 43 45  0  0  0  0  0  0  0  0999 V2000
   19.9927   75.2955   -2.6131 P   0  0  2  0  0  0  0  0  0  0  0  0
   19.5058   75.8747   -1.1826 O   0  0  0  0  0  0  0  0  0  0  0  0
   19.5445   76.0905   -3.8043 O   0  0  0  0  0  0  0  0  0  0  0  0
   19.5242   73.7470   -2.5852 O   0  0  0  0  0  0  0  0  0  0  0  0
   18.8023   73.2390   -3.6921 C   0  0  0  0  0  0  0  0  0  0  0  0
   17.6120   71.3176   -4.5101 O   0  0  0  0  0  0  0  0  0  0  0  0
   18.7263   69.8516   -2.1435 O   0  0  0  0  0  0  0  0  0  0  0  0
   20.3523   69.0304   -4.1728 O   0  0  0  0  0  0  0  0  0  0  0  0
   19.3324   70.8652   -2.9459 C   0  0  1  0  0  0  0  0  0  0  0  0
   19.7389   70.2971   -4.2891 C   0  0  2  0  0  0  0  0  0  0  0  0
   18.2515   71.8641   -3.3363 C   0  0  1  0  0  0  0  0  0  0  0  0
   18.4094   70.2380   -5.0219 C   0  0  2  0  0  0  0  0  0  0  0  0
   19.3976   69.2016   -1.8818 H   0  0  0  0  0  0  0  0  0  0  0  0
   21.1947   69.1213   -3.6995 H   0  0  0  0  0  0  0  0  0  0  0  0
   16.4266   69.5708   -6.9192 O   0  0  0  0  0  0  0  0  0  0  0  0
   19.0891   70.8987  -10.4394 O   0  0  0  0  0  0  0  0  0  0  0  0
   18.5581   70.3992   -6.4407 N   0  0  0  0  0  0  0  0  0  0  0  0
   17.7549   70.2319   -8.6707 N   0  0  0  0  0  0  0  0  0  0  0  0
   17.5012   70.0330   -7.3072 C   0  0  0  0  0  0  0  0  0  0  0  0
   19.7388   70.9160   -6.9600 C   0  0  0  0  0  0  0  0  0  0  0  0
   19.9660   71.0998   -8.2621 C   0  0  0  0  0  0  0  0  0  0  0  0
   18.9130   70.7419   -9.2350 C   0  0  0  0  0  0  0  0  0  0  0  0
   17.0346   69.9824   -9.2937 H   0  0  0  0  0  0  0  0  0  0  0  0
   21.5962   75.1932   -2.4364 O   0  0  0  0  0  0  0  0  0  0  0  0
   22.5442   73.9406   -2.0545 P   0  0  2  0  0  0  0  0  0  0  0  0
   24.0039   74.6196   -1.8852 O   0  0  0  0  0  0  0  0  0  0  0  0
   22.4987   72.8104   -3.0417 O   0  0  0  0  0  0  0  0  0  0  0  0
   22.1060   73.5379   -0.5551 O   0  0  0  0  0  0  0  0  0  0  0  0
   22.8966   71.4743    0.2968 O   0  0  0  0  0  0  0  0  0  0  0  0
   19.9401   72.4305    3.0195 O   0  0  0  0  0  0  0  0  0  0  0  0
   19.5093   72.8434    0.1597 O   0  0  0  0  0  0  0  0  0  0  0  0
   22.7397   72.7621    3.7289 O   0  0  0  0  0  0  0  0  0  0  0  0
   20.9829   72.6957    2.0813 C   0  0  2  0  0  0  0  0  0  0  0  0
   20.6018   72.1216    0.7166 C   0  0  2  0  0  0  0  0  0  0  0  0
   22.2631   72.0352    2.5980 C   0  0  1  0  0  0  0  0  0  0  0  0
   21.7839   72.1818   -0.2518 C   0  0  1  0  0  0  0  0  0  0  0  0
   23.3537   72.0234    1.5308 C   0  0  1  0  0  0  0  0  0  0  0  0
   19.1163   72.8407    2.7121 H   0  0  0  0  0  0  0  0  0  0  0  0
   18.7558   72.8096    0.7691 H   0  0  0  0  0  0  0  0  0  0  0  0
   22.0548   72.7773    4.4156 H   0  0  0  0  0  0  0  0  0  0  0  0
   25.4161   71.7663    2.6179 O   0  0  0  0  0  0  0  0  0  0  0  0
   24.5143   69.9113    1.6459 O   0  0  0  0  0  0  0  0  0  0  0  0
   24.4641   71.1016    1.9173 C   0  0  0  0  0  0  0  0  0  0  0  0
  1  4  1  0
  1 24  1  0
  1  2  1  1
  1  3  2  0
 25 28  1  0
 25 24  1  0
 25 26  1  1
 25 27  2  0
  6 11  1  0
  6 12  1  0
 29 36  1  0
 29 37  1  0
  9  7  1  1
  7 13  1  0
 10  8  1  1
  8 14  1  0
  4  5  1  0
 36 28  1  1
 33 30  1  1
 30 38  1  0
 34 31  1  6
 31 39  1  0
 35 32  1  1
 32 40  1  0
 41 43  1  0
 15 19  2  0
 42 43  2  0
 16 22  2  0
 12 17  1  6
 17 19  1  0
 17 20  1  0
 18 19  1  0
 18 22  1  0
 18 23  1  0
  9 10  1  0
  9 11  1  0
 10 12  1  0
 11  5  1  6
 33 34  1  0
 33 35  1  0
 34 36  1  0
 35 37  1  0
 37 43  1  1
 20 21  2  0
 21 22  1  0
M  CHG  3   2  -1  26  -1  41  -1
M  END
>  <COMPND>  (39) 
    udp_gluA.pdb 

>  <AUTHOR>  (39) 
    GENERATED BY OPEN BABEL 3.1.1

>  <MASTER>  (39) 
        0    0    0    0    0    0    0    0   56    0   56    0

>  <minimizedAffinity>  (39) 
-6.48942

>  <CNNscore>  (39) 
0.5893300772

>  <CNNaffinity>  (39) 
4.2419052124

>  <CNN_VS>  (39) 
2.4998822212

>  <CNNaffinity_variance>  (39) 
0.0770556480

$$$$
40
     RDKit          3D

 43 45  0  0  0  0  0  0  0  0999 V2000
   17.8976   75.0974   -4.3964 P   0  0  2  0  0  0  0  0  0  0  0  0
   18.4455   76.4616   -3.7198 O   0  0  0  0  0  0  0  0  0  0  0  0
   17.0524   75.2926   -5.6208 O   0  0  0  0  0  0  0  0  0  0  0  0
   17.1890   74.3134   -3.1711 O   0  0  0  0  0  0  0  0  0  0  0  0
   17.5502   72.9655   -2.9319 C   0  0  0  0  0  0  0  0  0  0  0  0
   18.6658   71.7763   -1.1659 O   0  0  0  0  0  0  0  0  0  0  0  0
   17.4843   73.8079    0.6964 O   0  0  0  0  0  0  0  0  0  0  0  0
   20.0493   74.6867    0.4055 O   0  0  0  0  0  0  0  0  0  0  0  0
   17.9696   73.9774   -0.6357 C   0  0  1  0  0  0  0  0  0  0  0  0
   19.4831   73.9396   -0.6508 C   0  0  2  0  0  0  0  0  0  0  0  0
   17.6118   72.7278   -1.4285 C   0  0  1  0  0  0  0  0  0  0  0  0
   19.7627   72.4513   -0.5299 C   0  0  2  0  0  0  0  0  0  0  0  0
   17.7012   74.5941    1.2223 H   0  0  0  0  0  0  0  0  0  0  0  0
   19.8436   75.6273    0.2828 H   0  0  0  0  0  0  0  0  0  0  0  0
   22.3391   72.8813    0.5440 O   0  0  0  0  0  0  0  0  0  0  0  0
   24.3827   70.9431   -3.1044 O   0  0  0  0  0  0  0  0  0  0  0  0
   20.9852   72.0690   -1.1780 N   0  0  0  0  0  0  0  0  0  0  0  0
   23.3545   71.9165   -1.2746 N   0  0  0  0  0  0  0  0  0  0  0  0
   22.2273   72.3308   -0.5530 C   0  0  0  0  0  0  0  0  0  0  0  0
   20.9464   71.4410   -2.4170 C   0  0  0  0  0  0  0  0  0  0  0  0
   22.0293   71.0518   -3.0926 C   0  0  0  0  0  0  0  0  0  0  0  0
   23.3663   71.2890   -2.5098 C   0  0  0  0  0  0  0  0  0  0  0  0
   24.2308   72.0899   -0.8606 H   0  0  0  0  0  0  0  0  0  0  0  0
   19.2492   74.2449   -4.6401 O   0  0  0  0  0  0  0  0  0  0  0  0
   20.0707   73.9221   -5.9945 P   0  0  2  0  0  0  0  0  0  0  0  0
   21.3998   73.1743   -5.4515 O   0  0  0  0  0  0  0  0  0  0  0  0
   20.3439   75.1248   -6.8506 O   0  0  0  0  0  0  0  0  0  0  0  0
   19.2193   72.7614   -6.7228 O   0  0  0  0  0  0  0  0  0  0  0  0
   19.0749   70.6135   -5.7354 O   0  0  0  0  0  0  0  0  0  0  0  0
   17.8908   69.8360   -9.6163 O   0  0  0  0  0  0  0  0  0  0  0  0
   20.1433   71.6186   -9.0842 O   0  0  0  0  0  0  0  0  0  0  0  0
   15.9176   69.9553   -7.4848 O   0  0  0  0  0  0  0  0  0  0  0  0
   18.0338   70.6154   -8.4288 C   0  0  2  0  0  0  0  0  0  0  0  0
   19.5182   70.7926   -8.1087 C   0  0  2  0  0  0  0  0  0  0  0  0
   17.3283   69.8757   -7.2899 C   0  0  1  0  0  0  0  0  0  0  0  0
   19.7088   71.4215   -6.7277 C   0  0  1  0  0  0  0  0  0  0  0  0
   17.6686   70.4868   -5.9337 C   0  0  1  0  0  0  0  0  0  0  0  0
   18.3316   70.2865  -10.3539 H   0  0  0  0  0  0  0  0  0  0  0  0
   20.0261   71.2257   -9.9630 H   0  0  0  0  0  0  0  0  0  0  0  0
   15.6877   69.5698   -8.3447 H   0  0  0  0  0  0  0  0  0  0  0  0
   18.0923   69.7014   -3.7646 O   0  0  0  0  0  0  0  0  0  0  0  0
   16.2916   68.8251   -4.8548 O   0  0  0  0  0  0  0  0  0  0  0  0
   17.2537   69.5776   -4.8231 C   0  0  0  0  0  0  0  0  0  0  0  0
  1  4  1  0
  1 24  1  0
  1  2  1  1
  1  3  2  0
 25 28  1  0
 25 24  1  0
 25 26  1  1
 25 27  2  0
  6 11  1  0
  6 12  1  0
 29 36  1  0
 29 37  1  0
  9  7  1  1
  7 13  1  0
 10  8  1  1
  8 14  1  0
  4  5  1  0
 36 28  1  6
 33 30  1  6
 30 38  1  0
 34 31  1  6
 31 39  1  0
 35 32  1  6
 32 40  1  0
 41 43  1  0
 15 19  2  0
 42 43  2  0
 16 22  2  0
 12 17  1  6
 17 19  1  0
 17 20  1  0
 18 19  1  0
 18 22  1  0
 18 23  1  0
  9 10  1  0
  9 11  1  0
 10 12  1  0
 11  5  1  6
 33 34  1  0
 33 35  1  0
 34 36  1  0
 35 37  1  0
 37 43  1  1
 20 21  2  0
 21 22  1  0
M  CHG  3   2  -1  26  -1  41  -1
M  END
>  <COMPND>  (40) 
    udp_gluA.pdb 

>  <AUTHOR>  (40) 
    GENERATED BY OPEN BABEL 3.1.1

>  <MASTER>  (40) 
        0    0    0    0    0    0    0    0   56    0   56    0

>  <minimizedAffinity>  (40) 
-6.20610

>  <CNNscore>  (40) 
0.5680956244

>  <CNNaffinity>  (40) 
4.1608657837

>  <CNN_VS>  (40) 
2.3637695312

>  <CNNaffinity_variance>  (40) 
0.5763975978

$$$$
41
     RDKit          3D

 43 45  0  0  0  0  0  0  0  0999 V2000
   22.8091   71.5570   -2.6613 P   0  0  2  0  0  0  0  0  0  0  0  0
   22.7844   73.1319   -2.2897 O   0  0  0  0  0  0  0  0  0  0  0  0
   24.1582   71.0147   -3.0325 O   0  0  0  0  0  0  0  0  0  0  0  0
   21.6569   71.4054   -3.7871 O   0  0  0  0  0  0  0  0  0  0  0  0
   20.7434   70.3291   -3.6790 C   0  0  0  0  0  0  0  0  0  0  0  0
   18.9255   71.5672   -4.6486 O   0  0  0  0  0  0  0  0  0  0  0  0
   17.2186   70.4029   -2.4755 O   0  0  0  0  0  0  0  0  0  0  0  0
   16.5894   68.8476   -4.6252 O   0  0  0  0  0  0  0  0  0  0  0  0
   18.3017   69.8077   -3.1905 C   0  0  1  0  0  0  0  0  0  0  0  0
   17.8674   69.4480   -4.5956 C   0  0  2  0  0  0  0  0  0  0  0  0
   19.3451   70.8867   -3.4460 C   0  0  1  0  0  0  0  0  0  0  0  0
   17.8950   70.7989   -5.2899 C   0  0  2  0  0  0  0  0  0  0  0  0
   16.5391   69.7325   -2.3006 H   0  0  0  0  0  0  0  0  0  0  0  0
   16.6242   67.9906   -4.1710 H   0  0  0  0  0  0  0  0  0  0  0  0
   15.9951   70.1846   -7.2872 O   0  0  0  0  0  0  0  0  0  0  0  0
   19.1639   70.4062  -10.6268 O   0  0  0  0  0  0  0  0  0  0  0  0
   18.1964   70.6898   -6.6892 N   0  0  0  0  0  0  0  0  0  0  0  0
   17.5753   70.2945   -8.9485 N   0  0  0  0  0  0  0  0  0  0  0  0
   17.1688   70.3765   -7.6102 C   0  0  0  0  0  0  0  0  0  0  0  0
   19.4960   70.8937   -7.1368 C   0  0  0  0  0  0  0  0  0  0  0  0
   19.8682   70.8122   -8.4157 C   0  0  0  0  0  0  0  0  0  0  0  0
   18.8554   70.4883   -9.4418 C   0  0  0  0  0  0  0  0  0  0  0  0
   16.8779   70.0756   -9.6080 H   0  0  0  0  0  0  0  0  0  0  0  0
   22.1403   70.8669   -1.3616 O   0  0  0  0  0  0  0  0  0  0  0  0
   21.5834   71.5098    0.0132 P   0  0  2  0  0  0  0  0  0  0  0  0
   21.2412   70.2111    0.9168 O   0  0  0  0  0  0  0  0  0  0  0  0
   20.4320   72.4555   -0.1713 O   0  0  0  0  0  0  0  0  0  0  0  0
   22.8809   72.1634    0.7145 O   0  0  0  0  0  0  0  0  0  0  0  0
   24.3695   71.6272    2.4767 O   0  0  0  0  0  0  0  0  0  0  0  0
   23.5892   75.6155    3.2198 O   0  0  0  0  0  0  0  0  0  0  0  0
   21.4349   73.8072    2.4301 O   0  0  0  0  0  0  0  0  0  0  0  0
   26.1262   74.8193    2.0449 O   0  0  0  0  0  0  0  0  0  0  0  0
   23.7738   74.4520    2.4135 C   0  0  2  0  0  0  0  0  0  0  0  0
   22.7437   73.3912    2.8025 C   0  0  2  0  0  0  0  0  0  0  0  0
   25.1921   73.9300    2.6540 C   0  0  1  0  0  0  0  0  0  0  0  0
   23.0527   72.0547    2.1263 C   0  0  1  0  0  0  0  0  0  0  0  0
   25.3824   72.5387    2.0570 C   0  0  1  0  0  0  0  0  0  0  0  0
   22.6944   75.9649    3.0835 H   0  0  0  0  0  0  0  0  0  0  0  0
   21.2323   74.6549    2.8553 H   0  0  0  0  0  0  0  0  0  0  0  0
   26.0155   75.7086    2.4160 H   0  0  0  0  0  0  0  0  0  0  0  0
   27.2757   72.7427    3.4265 O   0  0  0  0  0  0  0  0  0  0  0  0
   27.0343   70.7929    2.2693 O   0  0  0  0  0  0  0  0  0  0  0  0
   26.6354   71.9078    2.5710 C   0  0  0  0  0  0  0  0  0  0  0  0
  1  4  1  0
  1 24  1  0
  1  2  1  1
  1  3  2  0
 25 28  1  0
 25 24  1  0
 25 26  1  1
 25 27  2  0
  6 11  1  0
  6 12  1  0
 29 36  1  0
 29 37  1  0
  9  7  1  1
  7 13  1  0
 10  8  1  1
  8 14  1  0
  4  5  1  0
 36 28  1  6
 33 30  1  1
 30 38  1  0
 34 31  1  6
 31 39  1  0
 35 32  1  6
 32 40  1  0
 41 43  1  0
 15 19  2  0
 42 43  2  0
 16 22  2  0
 12 17  1  6
 17 19  1  0
 17 20  1  0
 18 19  1  0
 18 22  1  0
 18 23  1  0
  9 10  1  0
  9 11  1  0
 10 12  1  0
 11  5  1  6
 33 34  1  0
 33 35  1  0
 34 36  1  0
 35 37  1  0
 37 43  1  1
 20 21  2  0
 21 22  1  0
M  CHG  3   2  -1  26  -1  41  -1
M  END
>  <COMPND>  (41) 
    udp_gluA.pdb 

>  <AUTHOR>  (41) 
    GENERATED BY OPEN BABEL 3.1.1

>  <MASTER>  (41) 
        0    0    0    0    0    0    0    0   56    0   56    0

>  <minimizedAffinity>  (41) 
-7.88007

>  <CNNscore>  (41) 
0.9353085160

>  <CNNaffinity>  (41) 
4.7956833839

>  <CNN_VS>  (41) 
4.4854435921

>  <CNNaffinity_variance>  (41) 
0.0371172056

$$$$
42
     RDKit          3D

 43 45  0  0  0  0  0  0  0  0999 V2000
   22.9079   71.5063   -2.4061 P   0  0  2  0  0  0  0  0  0  0  0  0
   22.7309   73.1105   -2.2869 O   0  0  0  0  0  0  0  0  0  0  0  0
   24.2091   71.0551   -3.0020 O   0  0  0  0  0  0  0  0  0  0  0  0
   21.5740   71.0250   -3.1850 O   0  0  0  0  0  0  0  0  0  0  0  0
   20.9274   71.9418   -4.0487 C   0  0  0  0  0  0  0  0  0  0  0  0
   18.7216   72.2247   -4.9607 O   0  0  0  0  0  0  0  0  0  0  0  0
   17.7256   70.8461   -2.4911 O   0  0  0  0  0  0  0  0  0  0  0  0
   17.6507   68.8572   -4.3551 O   0  0  0  0  0  0  0  0  0  0  0  0
   18.9173   70.6081   -3.2406 C   0  0  1  0  0  0  0  0  0  0  0  0
   18.5884   69.8976   -4.5365 C   0  0  2  0  0  0  0  0  0  0  0  0
   19.4365   71.9508   -3.7364 C   0  0  1  0  0  0  0  0  0  0  0  0
   18.0457   71.0318   -5.3891 C   0  0  2  0  0  0  0  0  0  0  0  0
   17.3752   70.0025   -2.1638 H   0  0  0  0  0  0  0  0  0  0  0  0
   18.0437   68.1598   -3.8063 H   0  0  0  0  0  0  0  0  0  0  0  0
   16.0728   70.2851   -7.2670 O   0  0  0  0  0  0  0  0  0  0  0  0
   19.1096   70.2931  -10.7342 O   0  0  0  0  0  0  0  0  0  0  0  0
   18.2934   70.8319   -6.7889 N   0  0  0  0  0  0  0  0  0  0  0  0
   17.5874   70.2888   -8.9919 N   0  0  0  0  0  0  0  0  0  0  0  0
   17.2325   70.4574   -7.6470 C   0  0  0  0  0  0  0  0  0  0  0  0
   19.5740   71.0082   -7.2988 C   0  0  0  0  0  0  0  0  0  0  0  0
   19.8969   70.8440   -8.5832 C   0  0  0  0  0  0  0  0  0  0  0  0
   18.8468   70.4520   -9.5459 C   0  0  0  0  0  0  0  0  0  0  0  0
   16.8660   70.0261   -9.6081 H   0  0  0  0  0  0  0  0  0  0  0  0
   22.6483   70.9993   -0.8934 O   0  0  0  0  0  0  0  0  0  0  0  0
   21.5957   71.4985    0.2275 P   0  0  2  0  0  0  0  0  0  0  0  0
   21.5150   70.2420    1.2449 O   0  0  0  0  0  0  0  0  0  0  0  0
   20.2690   71.9338   -0.3241 O   0  0  0  0  0  0  0  0  0  0  0  0
   22.3851   72.6391    1.0511 O   0  0  0  0  0  0  0  0  0  0  0  0
   24.5520   73.4853    0.6064 O   0  0  0  0  0  0  0  0  0  0  0  0
   24.2462   74.0596    4.6862 O   0  0  0  0  0  0  0  0  0  0  0  0
   23.2862   71.5865    3.4628 O   0  0  0  0  0  0  0  0  0  0  0  0
   23.9777   76.3144    2.8711 O   0  0  0  0  0  0  0  0  0  0  0  0
   23.7683   73.9613    3.3446 C   0  0  2  0  0  0  0  0  0  0  0  0
   24.0709   72.5673    2.7944 C   0  0  2  0  0  0  0  0  0  0  0  0
   24.4793   75.0289    2.5099 C   0  0  1  0  0  0  0  0  0  0  0  0
   23.7836   72.4972    1.2939 C   0  0  1  0  0  0  0  0  0  0  0  0
   24.2456   74.8159    1.0171 C   0  0  1  0  0  0  0  0  0  0  0  0
   23.8083   73.3904    5.2355 H   0  0  0  0  0  0  0  0  0  0  0  0
   23.4633   71.6256    4.4154 H   0  0  0  0  0  0  0  0  0  0  0  0
   24.1201   76.4624    3.8191 H   0  0  0  0  0  0  0  0  0  0  0  0
   24.9797   75.4542   -1.1172 O   0  0  0  0  0  0  0  0  0  0  0  0
   26.0410   76.3902    0.6707 O   0  0  0  0  0  0  0  0  0  0  0  0
   25.1918   75.6428    0.2088 C   0  0  0  0  0  0  0  0  0  0  0  0
  1  4  1  0
  1 24  1  0
  1  2  1  1
  1  3  2  0
 25 28  1  0
 25 24  1  0
 25 26  1  1
 25 27  2  0
  6 11  1  0
  6 12  1  0
 29 36  1  0
 29 37  1  0
  9  7  1  1
  7 13  1  0
 10  8  1  1
  8 14  1  0
  4  5  1  0
 36 28  1  1
 33 30  1  1
 30 38  1  0
 34 31  1  1
 31 39  1  0
 35 32  1  1
 32 40  1  0
 41 43  1  0
 15 19  2  0
 42 43  2  0
 16 22  2  0
 12 17  1  6
 17 19  1  0
 17 20  1  0
 18 19  1  0
 18 22  1  0
 18 23  1  0
  9 10  1  0
  9 11  1  0
 10 12  1  0
 11  5  1  6
 33 34  1  0
 33 35  1  0
 34 36  1  0
 35 37  1  0
 37 43  1  6
 20 21  2  0
 21 22  1  0
M  CHG  3   2  -1  26  -1  41  -1
M  END
>  <COMPND>  (42) 
    udp_gluA.pdb 

>  <AUTHOR>  (42) 
    GENERATED BY OPEN BABEL 3.1.1

>  <MASTER>  (42) 
        0    0    0    0    0    0    0    0   56    0   56    0

>  <minimizedAffinity>  (42) 
-7.31234

>  <CNNscore>  (42) 
0.9318681955

>  <CNNaffinity>  (42) 
4.6762242317

>  <CNN_VS>  (42) 
4.3576245308

>  <CNNaffinity_variance>  (42) 
0.0331368670

$$$$
43
     RDKit          3D

 43 45  0  0  0  0  0  0  0  0999 V2000
   22.7680   71.6169   -2.6122 P   0  0  2  0  0  0  0  0  0  0  0  0
   22.8433   73.1996   -2.2831 O   0  0  0  0  0  0  0  0  0  0  0  0
   24.0865   70.9706   -2.9212 O   0  0  0  0  0  0  0  0  0  0  0  0
   21.6460   71.5146   -3.7736 O   0  0  0  0  0  0  0  0  0  0  0  0
   20.7356   70.4308   -3.7406 C   0  0  0  0  0  0  0  0  0  0  0  0
   18.9027   71.6310   -4.7293 O   0  0  0  0  0  0  0  0  0  0  0  0
   17.2071   70.4687   -2.5463 O   0  0  0  0  0  0  0  0  0  0  0  0
   16.6055   68.8789   -4.6786 O   0  0  0  0  0  0  0  0  0  0  0  0
   18.3004   69.8805   -3.2516 C   0  0  1  0  0  0  0  0  0  0  0  0
   17.8748   69.4977   -4.6532 C   0  0  2  0  0  0  0  0  0  0  0  0
   19.3290   70.9711   -3.5176 C   0  0  1  0  0  0  0  0  0  0  0  0
   17.8849   70.8405   -5.3637 C   0  0  2  0  0  0  0  0  0  0  0  0
   16.5367   69.7909   -2.3650 H   0  0  0  0  0  0  0  0  0  0  0  0
   16.6514   68.0280   -4.2140 H   0  0  0  0  0  0  0  0  0  0  0  0
   15.9968   70.1852   -7.3592 O   0  0  0  0  0  0  0  0  0  0  0  0
   19.1728   70.4013  -10.6925 O   0  0  0  0  0  0  0  0  0  0  0  0
   18.1913   70.7189   -6.7609 N   0  0  0  0  0  0  0  0  0  0  0  0
   17.5806   70.2924   -9.0173 N   0  0  0  0  0  0  0  0  0  0  0  0
   17.1696   70.3852   -7.6811 C   0  0  0  0  0  0  0  0  0  0  0  0
   19.4901   70.9307   -7.2071 C   0  0  0  0  0  0  0  0  0  0  0  0
   19.8667   70.8387   -8.4840 C   0  0  0  0  0  0  0  0  0  0  0  0
   18.8602   70.4934   -9.5092 C   0  0  0  0  0  0  0  0  0  0  0  0
   16.8872   70.0593   -9.6762 H   0  0  0  0  0  0  0  0  0  0  0  0
   22.0087   71.0131   -1.3193 O   0  0  0  0  0  0  0  0  0  0  0  0
   22.2728   71.2247    0.2616 P   0  0  2  0  0  0  0  0  0  0  0  0
   23.8779   71.4166    0.3459 O   0  0  0  0  0  0  0  0  0  0  0  0
   21.7354   70.1231    1.1286 O   0  0  0  0  0  0  0  0  0  0  0  0
   21.6704   72.6857    0.5853 O   0  0  0  0  0  0  0  0  0  0  0  0
   22.5438   74.6788    1.5203 O   0  0  0  0  0  0  0  0  0  0  0  0
   18.7828   74.5291    3.2232 O   0  0  0  0  0  0  0  0  0  0  0  0
   20.4010   72.1079    2.9917 O   0  0  0  0  0  0  0  0  0  0  0  0
   19.3275   76.3805    1.0492 O   0  0  0  0  0  0  0  0  0  0  0  0
   19.7632   74.3137    2.2082 C   0  0  2  0  0  0  0  0  0  0  0  0
   20.8811   73.4265    2.7565 C   0  0  2  0  0  0  0  0  0  0  0  0
   20.3209   75.6768    1.7925 C   0  0  1  0  0  0  0  0  0  0  0  0
   22.0567   73.3618    1.7805 C   0  0  1  0  0  0  0  0  0  0  0  0
   21.5661   75.5276    0.9231 C   0  0  1  0  0  0  0  0  0  0  0  0
   18.4142   73.6764    3.5032 H   0  0  0  0  0  0  0  0  0  0  0  0
   19.6547   72.1415    3.6100 H   0  0  0  0  0  0  0  0  0  0  0  0
   18.5296   76.4821    1.5913 H   0  0  0  0  0  0  0  0  0  0  0  0
   23.5862   76.6311    0.4728 O   0  0  0  0  0  0  0  0  0  0  0  0
   21.7776   77.9307    0.9619 O   0  0  0  0  0  0  0  0  0  0  0  0
   22.2850   76.8313    0.7980 C   0  0  0  0  0  0  0  0  0  0  0  0
  1  4  1  0
  1 24  1  0
  1  2  1  1
  1  3  2  0
 25 28  1  0
 25 24  1  0
 25 26  1  6
 25 27  2  0
  6 11  1  0
  6 12  1  0
 29 36  1  0
 29 37  1  0
  9  7  1  1
  7 13  1  0
 10  8  1  1
  8 14  1  0
  4  5  1  0
 36 28  1  6
 33 30  1  1
 30 38  1  0
 34 31  1  6
 31 39  1  0
 35 32  1  6
 32 40  1  0
 41 43  1  0
 15 19  2  0
 42 43  2  0
 16 22  2  0
 12 17  1  6
 17 19  1  0
 17 20  1  0
 18 19  1  0
 18 22  1  0
 18 23  1  0
  9 10  1  0
  9 11  1  0
 10 12  1  0
 11  5  1  6
 33 34  1  0
 33 35  1  0
 34 36  1  0
 35 37  1  0
 37 43  1  1
 20 21  2  0
 21 22  1  0
M  CHG  3   2  -1  26  -1  41  -1
M  END
>  <COMPND>  (43) 
    udp_gluA.pdb 

>  <AUTHOR>  (43) 
    GENERATED BY OPEN BABEL 3.1.1

>  <MASTER>  (43) 
        0    0    0    0    0    0    0    0   56    0   56    0

>  <minimizedAffinity>  (43) 
-7.24732

>  <CNNscore>  (43) 
0.9239528775

>  <CNNaffinity>  (43) 
4.8248906136

>  <CNN_VS>  (43) 
4.4579715729

>  <CNNaffinity_variance>  (43) 
0.0795202255

$$$$
44
     RDKit          3D

 43 45  0  0  0  0  0  0  0  0999 V2000
   23.0027   71.4947   -2.3111 P   0  0  2  0  0  0  0  0  0  0  0  0
   22.8039   73.0992   -2.3810 O   0  0  0  0  0  0  0  0  0  0  0  0
   24.2316   70.9780   -2.9999 O   0  0  0  0  0  0  0  0  0  0  0  0
   21.5953   70.9050   -2.8489 O   0  0  0  0  0  0  0  0  0  0  0  0
   20.9815   71.5296   -3.9614 C   0  0  0  0  0  0  0  0  0  0  0  0
   18.8436   72.1006   -4.9001 O   0  0  0  0  0  0  0  0  0  0  0  0
   17.6416   70.7792   -2.4916 O   0  0  0  0  0  0  0  0  0  0  0  0
   17.3679   68.8688   -4.4181 O   0  0  0  0  0  0  0  0  0  0  0  0
   18.8113   70.4225   -3.2286 C   0  0  1  0  0  0  0  0  0  0  0  0
   18.4261   69.7945   -4.5513 C   0  0  2  0  0  0  0  0  0  0  0  0
   19.4963   71.7075   -3.6734 C   0  0  1  0  0  0  0  0  0  0  0  0
   18.0394   71.0099   -5.3767 C   0  0  2  0  0  0  0  0  0  0  0  0
   17.1868   69.9743   -2.1967 H   0  0  0  0  0  0  0  0  0  0  0  0
   17.6642   68.1137   -3.8851 H   0  0  0  0  0  0  0  0  0  0  0  0
   16.1765   69.9184   -7.1973 O   0  0  0  0  0  0  0  0  0  0  0  0
   19.1070   70.3389  -10.7299 O   0  0  0  0  0  0  0  0  0  0  0  0
   18.2894   70.8229   -6.7779 N   0  0  0  0  0  0  0  0  0  0  0  0
   17.6382   70.1279   -8.9548 N   0  0  0  0  0  0  0  0  0  0  0  0
   17.2862   70.2658   -7.6057 C   0  0  0  0  0  0  0  0  0  0  0  0
   19.5154   71.1908   -7.3188 C   0  0  0  0  0  0  0  0  0  0  0  0
   19.8362   71.0534   -8.6068 C   0  0  0  0  0  0  0  0  0  0  0  0
   18.8445   70.4786   -9.5392 C   0  0  0  0  0  0  0  0  0  0  0  0
   16.9567   69.7404   -9.5504 H   0  0  0  0  0  0  0  0  0  0  0  0
   22.9418   71.1903   -0.7247 O   0  0  0  0  0  0  0  0  0  0  0  0
   21.8422   71.5895    0.3912 P   0  0  2  0  0  0  0  0  0  0  0  0
   21.5715   70.1912    1.1605 O   0  0  0  0  0  0  0  0  0  0  0  0
   20.6079   72.2384   -0.1650 O   0  0  0  0  0  0  0  0  0  0  0  0
   22.6500   72.4911    1.4575 O   0  0  0  0  0  0  0  0  0  0  0  0
   22.0200   74.4341    2.6564 O   0  0  0  0  0  0  0  0  0  0  0  0
   26.0388   75.1230    1.9907 O   0  0  0  0  0  0  0  0  0  0  0  0
   24.3560   74.0150   -0.1247 O   0  0  0  0  0  0  0  0  0  0  0  0
   25.1158   74.2987    4.6212 O   0  0  0  0  0  0  0  0  0  0  0  0
   24.8733   74.3323    2.2243 C   0  0  2  0  0  0  0  0  0  0  0  0
   23.8668   74.5586    1.0959 C   0  0  2  0  0  0  0  0  0  0  0  0
   24.2736   74.7589    3.5660 C   0  0  1  0  0  0  0  0  0  0  0  0
   22.5209   73.9114    1.4254 C   0  0  1  0  0  0  0  0  0  0  0  0
   22.8787   74.1727    3.7643 C   0  0  1  0  0  0  0  0  0  0  0  0
   26.4372   74.8696    1.1431 H   0  0  0  0  0  0  0  0  0  0  0  0
   25.2099   74.4211   -0.3397 H   0  0  0  0  0  0  0  0  0  0  0  0
   26.0068   74.6645    4.5067 H   0  0  0  0  0  0  0  0  0  0  0  0
   20.8327   74.7185    4.7729 O   0  0  0  0  0  0  0  0  0  0  0  0
   22.7301   75.4297    5.8184 O   0  0  0  0  0  0  0  0  0  0  0  0
   22.1769   74.8455    4.8987 C   0  0  0  0  0  0  0  0  0  0  0  0
  1  4  1  0
  1 24  1  0
  1  2  1  1
  1  3  2  0
 25 28  1  0
 25 24  1  0
 25 26  1  1
 25 27  2  0
  6 11  1  0
  6 12  1  0
 29 36  1  0
 29 37  1  0
  9  7  1  1
  7 13  1  0
 10  8  1  1
  8 14  1  0
  4  5  1  0
 36 28  1  1
 33 30  1  6
 30 38  1  0
 34 31  1  6
 31 39  1  0
 35 32  1  1
 32 40  1  0
 41 43  1  0
 15 19  2  0
 42 43  2  0
 16 22  2  0
 12 17  1  6
 17 19  1  0
 17 20  1  0
 18 19  1  0
 18 22  1  0
 18 23  1  0
  9 10  1  0
  9 11  1  0
 10 12  1  0
 11  5  1  6
 33 34  1  0
 33 35  1  0
 34 36  1  0
 35 37  1  0
 37 43  1  1
 20 21  2  0
 21 22  1  0
M  CHG  3   2  -1  26  -1  41  -1
M  END
>  <COMPND>  (44) 
    udp_gluA.pdb 

>  <AUTHOR>  (44) 
    GENERATED BY OPEN BABEL 3.1.1

>  <MASTER>  (44) 
        0    0    0    0    0    0    0    0   56    0   56    0

>  <minimizedAffinity>  (44) 
-7.23885

>  <CNNscore>  (44) 
0.8903407454

>  <CNNaffinity>  (44) 
4.6338019371

>  <CNN_VS>  (44) 
4.1256628036

>  <CNNaffinity_variance>  (44) 
0.0527236536

$$$$
45
     RDKit          3D

 43 45  0  0  0  0  0  0  0  0999 V2000
   22.7037   71.6184   -3.2799 P   0  0  2  0  0  0  0  0  0  0  0  0
   22.2905   71.9415   -4.8109 O   0  0  0  0  0  0  0  0  0  0  0  0
   24.0941   71.0840   -3.0983 O   0  0  0  0  0  0  0  0  0  0  0  0
   21.5095   70.6651   -2.7481 O   0  0  0  0  0  0  0  0  0  0  0  0
   20.5897   70.1443   -3.6900 C   0  0  0  0  0  0  0  0  0  0  0  0
   18.9001   71.5326   -4.6879 O   0  0  0  0  0  0  0  0  0  0  0  0
   17.0560   70.4943   -2.5637 O   0  0  0  0  0  0  0  0  0  0  0  0
   16.3521   69.0109   -4.7409 O   0  0  0  0  0  0  0  0  0  0  0  0
   18.1034   69.8187   -3.2601 C   0  0  1  0  0  0  0  0  0  0  0  0
   17.6734   69.5056   -4.6777 C   0  0  2  0  0  0  0  0  0  0  0  0
   19.2361   70.8115   -3.4827 C   0  0  1  0  0  0  0  0  0  0  0  0
   17.8258   70.8550   -5.3587 C   0  0  2  0  0  0  0  0  0  0  0  0
   16.3207   69.8799   -2.4099 H   0  0  0  0  0  0  0  0  0  0  0  0
   16.3073   68.1506   -4.2940 H   0  0  0  0  0  0  0  0  0  0  0  0
   15.9300   70.3951   -7.4010 O   0  0  0  0  0  0  0  0  0  0  0  0
   19.1793   70.4011  -10.6700 O   0  0  0  0  0  0  0  0  0  0  0  0
   18.1489   70.7322   -6.7521 N   0  0  0  0  0  0  0  0  0  0  0  0
   17.5502   70.3975   -9.0271 N   0  0  0  0  0  0  0  0  0  0  0  0
   17.1216   70.5014   -7.6972 C   0  0  0  0  0  0  0  0  0  0  0  0
   19.4696   70.8418   -7.1700 C   0  0  0  0  0  0  0  0  0  0  0  0
   19.8628   70.7406   -8.4412 C   0  0  0  0  0  0  0  0  0  0  0  0
   18.8517   70.4988   -9.4913 C   0  0  0  0  0  0  0  0  0  0  0  0
   16.8532   70.2348   -9.7031 H   0  0  0  0  0  0  0  0  0  0  0  0
   22.4160   73.0176   -2.5234 O   0  0  0  0  0  0  0  0  0  0  0  0
   23.3223   74.3476   -2.3707 P   0  0  2  0  0  0  0  0  0  0  0  0
   22.2272   75.5164   -2.1356 O   0  0  0  0  0  0  0  0  0  0  0  0
   24.2526   74.5945   -3.5228 O   0  0  0  0  0  0  0  0  0  0  0  0
   24.0543   74.1823   -0.9426 O   0  0  0  0  0  0  0  0  0  0  0  0
   22.9085   73.1123    0.8325 O   0  0  0  0  0  0  0  0  0  0  0  0
   25.9577   75.0431    2.8430 O   0  0  0  0  0  0  0  0  0  0  0  0
   24.5224   76.3894    0.6839 O   0  0  0  0  0  0  0  0  0  0  0  0
   26.0901   72.1730    2.4002 O   0  0  0  0  0  0  0  0  0  0  0  0
   25.3432   74.3681    1.7454 C   0  0  2  0  0  0  0  0  0  0  0  0
   24.1219   75.1596    1.2769 C   0  0  2  0  0  0  0  0  0  0  0  0
   24.9244   72.9753    2.2213 C   0  0  1  0  0  0  0  0  0  0  0  0
   23.3078   74.3582    0.2601 C   0  0  1  0  0  0  0  0  0  0  0  0
   24.0122   72.2910    1.2073 C   0  0  1  0  0  0  0  0  0  0  0  0
   26.2322   75.9309    2.5641 H   0  0  0  0  0  0  0  0  0  0  0  0
   25.0397   76.9029    1.3235 H   0  0  0  0  0  0  0  0  0  0  0  0
   26.6792   72.5976    3.0432 H   0  0  0  0  0  0  0  0  0  0  0  0
   23.8606   70.8358    3.0406 O   0  0  0  0  0  0  0  0  0  0  0  0
   22.4694   70.4373    1.2786 O   0  0  0  0  0  0  0  0  0  0  0  0
   23.3507   71.0951    1.8111 C   0  0  0  0  0  0  0  0  0  0  0  0
  1  4  1  0
  1 24  1  0
  1  2  1  6
  1  3  2  0
 25 28  1  0
 25 24  1  0
 25 26  1  1
 25 27  2  0
  6 11  1  0
  6 12  1  0
 29 36  1  0
 29 37  1  0
  9  7  1  1
  7 13  1  0
 10  8  1  1
  8 14  1  0
  4  5  1  0
 36 28  1  6
 33 30  1  1
 30 38  1  0
 34 31  1  6
 31 39  1  0
 35 32  1  6
 32 40  1  0
 41 43  1  0
 15 19  2  0
 42 43  2  0
 16 22  2  0
 12 17  1  6
 17 19  1  0
 17 20  1  0
 18 19  1  0
 18 22  1  0
 18 23  1  0
  9 10  1  0
  9 11  1  0
 10 12  1  0
 11  5  1  6
 33 34  1  0
 33 35  1  0
 34 36  1  0
 35 37  1  0
 37 43  1  1
 20 21  2  0
 21 22  1  0
M  CHG  3   2  -1  26  -1  41  -1
M  END
>  <COMPND>  (45) 
    udp_gluA.pdb 

>  <AUTHOR>  (45) 
    GENERATED BY OPEN BABEL 3.1.1

>  <MASTER>  (45) 
        0    0    0    0    0    0    0    0   56    0   56    0

>  <minimizedAffinity>  (45) 
-7.37310

>  <CNNscore>  (45) 
0.8900428414

>  <CNNaffinity>  (45) 
4.7303442955

>  <CNN_VS>  (45) 
4.2102088928

>  <CNNaffinity_variance>  (45) 
0.0516554639

$$$$
46
     RDKit          3D

 43 45  0  0  0  0  0  0  0  0999 V2000
   22.4308   72.7687   -3.7971 P   0  0  2  0  0  0  0  0  0  0  0  0
   21.7867   73.0448   -5.2558 O   0  0  0  0  0  0  0  0  0  0  0  0
   23.7889   72.1308   -3.8147 O   0  0  0  0  0  0  0  0  0  0  0  0
   21.2786   71.9469   -3.0128 O   0  0  0  0  0  0  0  0  0  0  0  0
   20.5250   70.9872   -3.7308 C   0  0  0  0  0  0  0  0  0  0  0  0
   18.5796   71.8556   -4.8438 O   0  0  0  0  0  0  0  0  0  0  0  0
   16.9795   70.5245   -2.6853 O   0  0  0  0  0  0  0  0  0  0  0  0
   16.7276   68.7866   -4.7715 O   0  0  0  0  0  0  0  0  0  0  0  0
   18.1814   70.0867   -3.3196 C   0  0  1  0  0  0  0  0  0  0  0  0
   17.8854   69.5937   -4.7201 C   0  0  2  0  0  0  0  0  0  0  0  0
   19.0436   71.3124   -3.5889 C   0  0  1  0  0  0  0  0  0  0  0  0
   17.7247   70.8961   -5.4856 C   0  0  2  0  0  0  0  0  0  0  0  0
   16.4121   69.7585   -2.5032 H   0  0  0  0  0  0  0  0  0  0  0  0
   16.8803   67.9698   -4.2700 H   0  0  0  0  0  0  0  0  0  0  0  0
   15.9949   70.0726   -7.5607 O   0  0  0  0  0  0  0  0  0  0  0  0
   19.3168   70.4623  -10.7320 O   0  0  0  0  0  0  0  0  0  0  0  0
   18.1115   70.7736   -6.8626 N   0  0  0  0  0  0  0  0  0  0  0  0
   17.6513   70.2665   -9.1380 N   0  0  0  0  0  0  0  0  0  0  0  0
   17.1655   70.3516   -7.8266 C   0  0  0  0  0  0  0  0  0  0  0  0
   19.4133   71.0714   -7.2465 C   0  0  0  0  0  0  0  0  0  0  0  0
   19.8616   70.9857   -8.5005 C   0  0  0  0  0  0  0  0  0  0  0  0
   18.9371   70.5513   -9.5683 C   0  0  0  0  0  0  0  0  0  0  0  0
   17.0117   69.9728   -9.8264 H   0  0  0  0  0  0  0  0  0  0  0  0
   22.3797   74.2245   -3.0963 O   0  0  0  0  0  0  0  0  0  0  0  0
   23.1014   74.7868   -1.7634 P   0  0  2  0  0  0  0  0  0  0  0  0
   22.3721   76.2115   -1.5211 O   0  0  0  0  0  0  0  0  0  0  0  0
   24.5974   74.8664   -1.8602 O   0  0  0  0  0  0  0  0  0  0  0  0
   22.5567   73.8430   -0.5739 O   0  0  0  0  0  0  0  0  0  0  0  0
   23.4850   73.7359    1.6023 O   0  0  0  0  0  0  0  0  0  0  0  0
   21.6659   70.0405    1.2816 O   0  0  0  0  0  0  0  0  0  0  0  0
   23.1589   71.1563   -0.9679 O   0  0  0  0  0  0  0  0  0  0  0  0
   20.4439   72.1341    2.8861 O   0  0  0  0  0  0  0  0  0  0  0  0
   21.8284   71.4383    1.0411 C   0  0  2  0  0  0  0  0  0  0  0  0
   23.1706   71.6864    0.3525 C   0  0  2  0  0  0  0  0  0  0  0  0
   21.7811   72.1589    2.3904 C   0  0  1  0  0  0  0  0  0  0  0  0
   23.4832   73.1820    0.2860 C   0  0  1  0  0  0  0  0  0  0  0  0
   22.2266   73.6126    2.2614 C   0  0  1  0  0  0  0  0  0  0  0  0
   21.6927   69.5619    0.4381 H   0  0  0  0  0  0  0  0  0  0  0  0
   22.9609   70.2077   -0.9333 H   0  0  0  0  0  0  0  0  0  0  0  0
   20.1481   71.2144    2.9727 H   0  0  0  0  0  0  0  0  0  0  0  0
   21.9910   75.4649    3.6810 O   0  0  0  0  0  0  0  0  0  0  0  0
   23.0781   73.6440    4.5187 O   0  0  0  0  0  0  0  0  0  0  0  0
   22.4925   74.2072    3.6061 C   0  0  0  0  0  0  0  0  0  0  0  0
  1  4  1  0
  1 24  1  0
  1  2  1  6
  1  3  2  0
 25 28  1  0
 25 24  1  0
 25 26  1  1
 25 27  2  0
  6 11  1  0
  6 12  1  0
 29 36  1  0
 29 37  1  0
  9  7  1  6
  7 13  1  0
 10  8  1  1
  8 14  1  0
  4  5  1  0
 36 28  1  6
 33 30  1  1
 30 38  1  0
 34 31  1  6
 31 39  1  0
 35 32  1  6
 32 40  1  0
 41 43  1  0
 15 19  2  0
 42 43  2  0
 16 22  2  0
 12 17  1  6
 17 19  1  0
 17 20  1  0
 18 19  1  0
 18 22  1  0
 18 23  1  0
  9 10  1  0
  9 11  1  0
 10 12  1  0
 11  5  1  6
 33 34  1  0
 33 35  1  0
 34 36  1  0
 35 37  1  0
 37 43  1  1
 20 21  2  0
 21 22  1  0
M  CHG  3   2  -1  26  -1  41  -1
M  END
>  <COMPND>  (46) 
    udp_gluA.pdb 

>  <AUTHOR>  (46) 
    GENERATED BY OPEN BABEL 3.1.1

>  <MASTER>  (46) 
        0    0    0    0    0    0    0    0   56    0   56    0

>  <minimizedAffinity>  (46) 
-7.40686

>  <CNNscore>  (46) 
0.8723620772

>  <CNNaffinity>  (46) 
4.6524815559

>  <CNN_VS>  (46) 
4.0586485863

>  <CNNaffinity_variance>  (46) 
0.0300014317

$$$$
47
     RDKit          3D

 43 45  0  0  0  0  0  0  0  0999 V2000
   21.6523   72.5484   -2.2670 P   0  0  2  0  0  0  0  0  0  0  0  0
   22.5244   71.1852   -2.2771 O   0  0  0  0  0  0  0  0  0  0  0  0
   21.9913   73.5092   -1.1653 O   0  0  0  0  0  0  0  0  0  0  0  0
   20.1201   72.0296   -2.3002 O   0  0  0  0  0  0  0  0  0  0  0  0
   19.6300   71.4448   -3.4928 C   0  0  0  0  0  0  0  0  0  0  0  0
   17.8070   72.1341   -4.8996 O   0  0  0  0  0  0  0  0  0  0  0  0
   16.0119   70.7574   -2.9315 O   0  0  0  0  0  0  0  0  0  0  0  0
   16.1760   68.9419   -4.9596 O   0  0  0  0  0  0  0  0  0  0  0  0
   17.3183   70.3890   -3.3743 C   0  0  1  0  0  0  0  0  0  0  0  0
   17.2574   69.8325   -4.7810 C   0  0  2  0  0  0  0  0  0  0  0  0
   18.1248   71.6654   -3.5713 C   0  0  1  0  0  0  0  0  0  0  0  0
   17.1186   71.0954   -5.6141 C   0  0  2  0  0  0  0  0  0  0  0  0
   15.4778   69.9581   -2.7987 H   0  0  0  0  0  0  0  0  0  0  0  0
   16.3114   68.1544   -4.4087 H   0  0  0  0  0  0  0  0  0  0  0  0
   15.7259   70.1957   -7.9004 O   0  0  0  0  0  0  0  0  0  0  0  0
   19.4637   70.6106  -10.5651 O   0  0  0  0  0  0  0  0  0  0  0  0
   17.7035   70.9588   -6.9179 N   0  0  0  0  0  0  0  0  0  0  0  0
   17.5891   70.4022   -9.2252 N   0  0  0  0  0  0  0  0  0  0  0  0
   16.9166   70.4980   -7.9998 C   0  0  0  0  0  0  0  0  0  0  0  0
   19.0407   71.2810   -7.1154 C   0  0  0  0  0  0  0  0  0  0  0  0
   19.6679   71.1847   -8.2894 C   0  0  0  0  0  0  0  0  0  0  0  0
   18.9174   70.7103   -9.4706 C   0  0  0  0  0  0  0  0  0  0  0  0
   17.0625   70.0817   -9.9928 H   0  0  0  0  0  0  0  0  0  0  0  0
   21.8713   73.1304   -3.7591 O   0  0  0  0  0  0  0  0  0  0  0  0
   23.1506   73.0679   -4.7456 P   0  0  2  0  0  0  0  0  0  0  0  0
   22.6624   72.0684   -5.9215 O   0  0  0  0  0  0  0  0  0  0  0  0
   24.4274   72.6542   -4.0728 O   0  0  0  0  0  0  0  0  0  0  0  0
   23.2016   74.5221   -5.4422 O   0  0  0  0  0  0  0  0  0  0  0  0
   21.9173   76.5023   -5.2465 O   0  0  0  0  0  0  0  0  0  0  0  0
   22.5984   76.3411   -9.3181 O   0  0  0  0  0  0  0  0  0  0  0  0
   21.9159   73.9192   -7.8338 O   0  0  0  0  0  0  0  0  0  0  0  0
   24.0809   78.2163   -7.6638 O   0  0  0  0  0  0  0  0  0  0  0  0
   22.8980   76.1353   -7.9376 C   0  0  2  0  0  0  0  0  0  0  0  0
   21.8296   75.2395   -7.3101 C   0  0  2  0  0  0  0  0  0  0  0  0
   22.9181   77.5019   -7.2492 C   0  0  1  0  0  0  0  0  0  0  0  0
   21.9865   75.1835   -5.7899 C   0  0  1  0  0  0  0  0  0  0  0  0
   22.9486   77.3600   -5.7301 C   0  0  1  0  0  0  0  0  0  0  0  0
   22.5802   75.4860   -9.7762 H   0  0  0  0  0  0  0  0  0  0  0  0
   21.8174   73.9473   -8.7981 H   0  0  0  0  0  0  0  0  0  0  0  0
   24.0738   78.3133   -8.6289 H   0  0  0  0  0  0  0  0  0  0  0  0
   22.2467   78.4683   -3.7857 O   0  0  0  0  0  0  0  0  0  0  0  0
   22.7248   79.7591   -5.6036 O   0  0  0  0  0  0  0  0  0  0  0  0
   22.6382   78.6636   -5.0693 C   0  0  0  0  0  0  0  0  0  0  0  0
  1  4  1  0
  1 24  1  0
  1  2  1  1
  1  3  2  0
 25 28  1  0
 25 24  1  0
 25 26  1  6
 25 27  2  0
  6 11  1  0
  6 12  1  0
 29 36  1  0
 29 37  1  0
  9  7  1  6
  7 13  1  0
 10  8  1  1
  8 14  1  0
  4  5  1  0
 36 28  1  6
 33 30  1  6
 30 38  1  0
 34 31  1  6
 31 39  1  0
 35 32  1  6
 32 40  1  0
 41 43  1  0
 15 19  2  0
 42 43  2  0
 16 22  2  0
 12 17  1  6
 17 19  1  0
 17 20  1  0
 18 19  1  0
 18 22  1  0
 18 23  1  0
  9 10  1  0
  9 11  1  0
 10 12  1  0
 11  5  1  6
 33 34  1  0
 33 35  1  0
 34 36  1  0
 35 37  1  0
 37 43  1  1
 20 21  2  0
 21 22  1  0
M  CHG  3   2  -1  26  -1  41  -1
M  END
>  <COMPND>  (47) 
    udp_gluA.pdb 

>  <AUTHOR>  (47) 
    GENERATED BY OPEN BABEL 3.1.1

>  <MASTER>  (47) 
        0    0    0    0    0    0    0    0   56    0   56    0

>  <minimizedAffinity>  (47) 
-6.68691

>  <CNNscore>  (47) 
0.8586156964

>  <CNNaffinity>  (47) 
4.6758456230

>  <CNN_VS>  (47) 
4.0147542953

>  <CNNaffinity_variance>  (47) 
0.0816827565

$$$$
48
     RDKit          3D

 43 45  0  0  0  0  0  0  0  0999 V2000
   20.6275   71.8336   -1.7271 P   0  0  2  0  0  0  0  0  0  0  0  0
   20.4923   70.5659   -0.7303 O   0  0  0  0  0  0  0  0  0  0  0  0
   19.7239   72.9887   -1.4092 O   0  0  0  0  0  0  0  0  0  0  0  0
   20.4523   71.1893   -3.2009 O   0  0  0  0  0  0  0  0  0  0  0  0
   19.6061   70.0642   -3.3508 C   0  0  0  0  0  0  0  0  0  0  0  0
   17.9564   71.3249   -4.5620 O   0  0  0  0  0  0  0  0  0  0  0  0
   15.9097   69.8544   -2.9373 O   0  0  0  0  0  0  0  0  0  0  0  0
   15.8500   68.5236   -5.3167 O   0  0  0  0  0  0  0  0  0  0  0  0
   17.1555   69.3890   -3.4569 C   0  0  1  0  0  0  0  0  0  0  0  0
   17.0512   69.1703   -4.9514 C   0  0  2  0  0  0  0  0  0  0  0  0
   18.1568   70.5328   -3.3714 C   0  0  1  0  0  0  0  0  0  0  0  0
   17.1364   70.5902   -5.4846 C   0  0  2  0  0  0  0  0  0  0  0  0
   15.2537   69.1406   -2.9815 H   0  0  0  0  0  0  0  0  0  0  0  0
   15.8442   67.6234   -4.9537 H   0  0  0  0  0  0  0  0  0  0  0  0
   15.7206   70.2340   -7.9023 O   0  0  0  0  0  0  0  0  0  0  0  0
   19.5248   70.8438  -10.4322 O   0  0  0  0  0  0  0  0  0  0  0  0
   17.7321   70.6508   -6.7893 N   0  0  0  0  0  0  0  0  0  0  0  0
   17.6169   70.5371   -9.1600 N   0  0  0  0  0  0  0  0  0  0  0  0
   16.9321   70.4576   -7.9403 C   0  0  0  0  0  0  0  0  0  0  0  0
   19.0929   70.9006   -6.9196 C   0  0  0  0  0  0  0  0  0  0  0  0
   19.7315   70.9736   -8.0890 C   0  0  0  0  0  0  0  0  0  0  0  0
   18.9685   70.7826   -9.3400 C   0  0  0  0  0  0  0  0  0  0  0  0
   17.0812   70.4039   -9.9753 H   0  0  0  0  0  0  0  0  0  0  0  0
   22.2059   72.1767   -1.6657 O   0  0  0  0  0  0  0  0  0  0  0  0
   23.1783   72.8959   -2.7385 P   0  0  2  0  0  0  0  0  0  0  0  0
   24.0343   71.6637   -3.3462 O   0  0  0  0  0  0  0  0  0  0  0  0
   24.0122   74.0056   -2.1666 O   0  0  0  0  0  0  0  0  0  0  0  0
   22.2005   73.3445   -3.9407 O   0  0  0  0  0  0  0  0  0  0  0  0
   22.7342   75.5542   -4.6052 O   0  0  0  0  0  0  0  0  0  0  0  0
   19.5140   74.6966   -7.0471 O   0  0  0  0  0  0  0  0  0  0  0  0
   19.4922   73.9052   -4.2350 O   0  0  0  0  0  0  0  0  0  0  0  0
   22.2113   74.6846   -8.1312 O   0  0  0  0  0  0  0  0  0  0  0  0
   20.6866   74.4058   -6.2866 C   0  0  2  0  0  0  0  0  0  0  0  0
   20.4518   74.7766   -4.8221 C   0  0  2  0  0  0  0  0  0  0  0  0
   21.8411   75.2271   -6.8650 C   0  0  1  0  0  0  0  0  0  0  0  0
   21.7526   74.6964   -4.0220 C   0  0  1  0  0  0  0  0  0  0  0  0
   23.0598   75.1986   -5.9470 C   0  0  1  0  0  0  0  0  0  0  0  0
   18.7668   74.1858   -6.6976 H   0  0  0  0  0  0  0  0  0  0  0  0
   18.6643   73.9509   -4.7379 H   0  0  0  0  0  0  0  0  0  0  0  0
   21.4444   74.6969   -8.7249 H   0  0  0  0  0  0  0  0  0  0  0  0
   23.4345   77.2473   -7.0258 O   0  0  0  0  0  0  0  0  0  0  0  0
   25.2410   76.2203   -6.0872 O   0  0  0  0  0  0  0  0  0  0  0  0
   24.0464   76.2486   -6.3424 C   0  0  0  0  0  0  0  0  0  0  0  0
  1  4  1  0
  1 24  1  0
  1  2  1  1
  1  3  2  0
 25 28  1  0
 25 24  1  0
 25 26  1  6
 25 27  2  0
  6 11  1  0
  6 12  1  0
 29 36  1  0
 29 37  1  0
  9  7  1  6
  7 13  1  0
 10  8  1  1
  8 14  1  0
  4  5  1  0
 36 28  1  6
 33 30  1  6
 30 38  1  0
 34 31  1  1
 31 39  1  0
 35 32  1  6
 32 40  1  0
 41 43  1  0
 15 19  2  0
 42 43  2  0
 16 22  2  0
 12 17  1  6
 17 19  1  0
 17 20  1  0
 18 19  1  0
 18 22  1  0
 18 23  1  0
  9 10  1  0
  9 11  1  0
 10 12  1  0
 11  5  1  6
 33 34  1  0
 33 35  1  0
 34 36  1  0
 35 37  1  0
 37 43  1  6
 20 21  2  0
 21 22  1  0
M  CHG  3   2  -1  26  -1  41  -1
M  END
>  <COMPND>  (48) 
    udp_gluA.pdb 

>  <AUTHOR>  (48) 
    GENERATED BY OPEN BABEL 3.1.1

>  <MASTER>  (48) 
        0    0    0    0    0    0    0    0   56    0   56    0

>  <minimizedAffinity>  (48) 
-7.11849

>  <CNNscore>  (48) 
0.8103558421

>  <CNNaffinity>  (48) 
4.4861450195

>  <CNN_VS>  (48) 
3.6353738308

>  <CNNaffinity_variance>  (48) 
0.5130843520

$$$$
49
     RDKit          3D

 43 45  0  0  0  0  0  0  0  0999 V2000
   22.3019   73.1427   -4.5222 P   0  0  2  0  0  0  0  0  0  0  0  0
   21.9910   74.6969   -4.8491 O   0  0  0  0  0  0  0  0  0  0  0  0
   23.5025   72.5760   -5.2217 O   0  0  0  0  0  0  0  0  0  0  0  0
   20.8980   72.3950   -4.8186 O   0  0  0  0  0  0  0  0  0  0  0  0
   20.3931   71.4956   -3.8487 C   0  0  0  0  0  0  0  0  0  0  0  0
   18.3801   72.1048   -5.0126 O   0  0  0  0  0  0  0  0  0  0  0  0
   16.9012   70.7843   -2.7630 O   0  0  0  0  0  0  0  0  0  0  0  0
   16.8153   68.8919   -4.7244 O   0  0  0  0  0  0  0  0  0  0  0  0
   18.1400   70.4156   -3.3695 C   0  0  1  0  0  0  0  0  0  0  0  0
   17.8946   69.8028   -4.7320 C   0  0  2  0  0  0  0  0  0  0  0  0
   18.8878   71.6934   -3.7248 C   0  0  1  0  0  0  0  0  0  0  0  0
   17.6183   71.0296   -5.5844 C   0  0  2  0  0  0  0  0  0  0  0  0
   16.4054   69.9842   -2.5271 H   0  0  0  0  0  0  0  0  0  0  0  0
   17.0403   68.1287   -4.1686 H   0  0  0  0  0  0  0  0  0  0  0  0
   15.9339   70.0358   -7.6220 O   0  0  0  0  0  0  0  0  0  0  0  0
   19.2622   70.3778  -10.7922 O   0  0  0  0  0  0  0  0  0  0  0  0
   18.0190   70.8488   -6.9510 N   0  0  0  0  0  0  0  0  0  0  0  0
   17.5935   70.2062   -9.1988 N   0  0  0  0  0  0  0  0  0  0  0  0
   17.0957   70.3426   -7.8962 C   0  0  0  0  0  0  0  0  0  0  0  0
   19.3120   71.1729   -7.3434 C   0  0  0  0  0  0  0  0  0  0  0  0
   19.7720   71.0374   -8.5887 C   0  0  0  0  0  0  0  0  0  0  0  0
   18.8713   70.5143   -9.6368 C   0  0  0  0  0  0  0  0  0  0  0  0
   16.9697   69.8536   -9.8740 H   0  0  0  0  0  0  0  0  0  0  0  0
   22.3910   73.1222   -2.9084 O   0  0  0  0  0  0  0  0  0  0  0  0
   22.2649   74.3138   -1.8231 P   0  0  2  0  0  0  0  0  0  0  0  0
   20.6993   74.7183   -1.8982 O   0  0  0  0  0  0  0  0  0  0  0  0
   23.2106   75.4572   -2.0513 O   0  0  0  0  0  0  0  0  0  0  0  0
   22.4288   73.5844   -0.3935 O   0  0  0  0  0  0  0  0  0  0  0  0
   23.2360   71.4240    0.1452 O   0  0  0  0  0  0  0  0  0  0  0  0
   20.3805   72.0089    3.0730 O   0  0  0  0  0  0  0  0  0  0  0  0
   19.8542   72.8033    0.3115 O   0  0  0  0  0  0  0  0  0  0  0  0
   23.2047   72.2385    3.7226 O   0  0  0  0  0  0  0  0  0  0  0  0
   21.3921   72.3966    2.1433 C   0  0  2  0  0  0  0  0  0  0  0  0
   20.9609   72.0117    0.7279 C   0  0  2  0  0  0  0  0  0  0  0  0
   22.6853   71.6710    2.5216 C   0  0  1  0  0  0  0  0  0  0  0  0
   22.1093   72.2003   -0.2642 C   0  0  1  0  0  0  0  0  0  0  0  0
   23.7385   71.8016    1.4251 C   0  0  1  0  0  0  0  0  0  0  0  0
   19.5491   72.4577    2.8524 H   0  0  0  0  0  0  0  0  0  0  0  0
   19.1218   72.6887    0.9367 H   0  0  0  0  0  0  0  0  0  0  0  0
   22.5440   72.1620    4.4286 H   0  0  0  0  0  0  0  0  0  0  0  0
   24.6298   70.0857    2.7527 O   0  0  0  0  0  0  0  0  0  0  0  0
   25.8405   70.7258    0.9297 O   0  0  0  0  0  0  0  0  0  0  0  0
   24.8561   70.8348    1.6452 C   0  0  0  0  0  0  0  0  0  0  0  0
  1  4  1  0
  1 24  1  0
  1  2  1  6
  1  3  2  0
 25 28  1  0
 25 24  1  0
 25 26  1  1
 25 27  2  0
  6 11  1  0
  6 12  1  0
 29 36  1  0
 29 37  1  0
  9  7  1  6
  7 13  1  0
 10  8  1  1
  8 14  1  0
  4  5  1  0
 36 28  1  1
 33 30  1  1
 30 38  1  0
 34 31  1  6
 31 39  1  0
 35 32  1  1
 32 40  1  0
 41 43  1  0
 15 19  2  0
 42 43  2  0
 16 22  2  0
 12 17  1  6
 17 19  1  0
 17 20  1  0
 18 19  1  0
 18 22  1  0
 18 23  1  0
  9 10  1  0
  9 11  1  0
 10 12  1  0
 11  5  1  6
 33 34  1  0
 33 35  1  0
 34 36  1  0
 35 37  1  0
 37 43  1  1
 20 21  2  0
 21 22  1  0
M  CHG  3   2  -1  26  -1  41  -1
M  END
>  <COMPND>  (49) 
    udp_gluA.pdb 

>  <AUTHOR>  (49) 
    GENERATED BY OPEN BABEL 3.1.1

>  <MASTER>  (49) 
        0    0    0    0    0    0    0    0   56    0   56    0

>  <minimizedAffinity>  (49) 
-7.78799

>  <CNNscore>  (49) 
0.7735266089

>  <CNNaffinity>  (49) 
4.4840574265

>  <CNN_VS>  (49) 
3.4685378075

>  <CNNaffinity_variance>  (49) 
0.0270908717

$$$$
50
     RDKit          3D

 43 45  0  0  0  0  0  0  0  0999 V2000
   23.7656   73.4173   -3.7262 P   0  0  2  0  0  0  0  0  0  0  0  0
   24.2219   71.8665   -3.8011 O   0  0  0  0  0  0  0  0  0  0  0  0
   24.7229   74.3902   -4.3496 O   0  0  0  0  0  0  0  0  0  0  0  0
   23.4463   73.6530   -2.1576 O   0  0  0  0  0  0  0  0  0  0  0  0
   22.1112   73.5061   -1.7099 C   0  0  0  0  0  0  0  0  0  0  0  0
   23.1119   71.5655   -0.7049 O   0  0  0  0  0  0  0  0  0  0  0  0
   20.3144   70.5744   -0.2766 O   0  0  0  0  0  0  0  0  0  0  0  0
   20.9922   71.5282    2.1865 O   0  0  0  0  0  0  0  0  0  0  0  0
   20.8210   71.9075   -0.2091 C   0  0  1  0  0  0  0  0  0  0  0  0
   21.6240   72.0995    1.0600 C   0  0  2  0  0  0  0  0  0  0  0  0
   21.8862   72.0604   -1.2863 C   0  0  1  0  0  0  0  0  0  0  0  0
   22.9330   71.4114    0.7120 C   0  0  2  0  0  0  0  0  0  0  0  0
   19.6320   70.4527    0.4026 H   0  0  0  0  0  0  0  0  0  0  0  0
   20.1641   72.0010    2.3672 H   0  0  0  0  0  0  0  0  0  0  0  0
   24.8370   69.9451    2.1957 O   0  0  0  0  0  0  0  0  0  0  0  0
   27.1996   73.7531    3.2733 O   0  0  0  0  0  0  0  0  0  0  0  0
   24.0558   71.9945    1.3905 N   0  0  0  0  0  0  0  0  0  0  0  0
   26.0113   71.8432    2.7318 N   0  0  0  0  0  0  0  0  0  0  0  0
   24.9532   71.1689    2.1083 C   0  0  0  0  0  0  0  0  0  0  0  0
   24.2600   73.3680    1.3397 C   0  0  0  0  0  0  0  0  0  0  0  0
   25.2733   73.9963    1.9391 C   0  0  0  0  0  0  0  0  0  0  0  0
   26.2558   73.2068    2.7103 C   0  0  0  0  0  0  0  0  0  0  0  0
   26.6481   71.2897    3.2393 H   0  0  0  0  0  0  0  0  0  0  0  0
   22.2951   73.3957   -4.3971 O   0  0  0  0  0  0  0  0  0  0  0  0
   21.8338   73.4583   -5.9453 P   0  0  2  0  0  0  0  0  0  0  0  0
   22.9541   72.5675   -6.7013 O   0  0  0  0  0  0  0  0  0  0  0  0
   21.6818   74.8503   -6.4867 O   0  0  0  0  0  0  0  0  0  0  0  0
   20.4921   72.5649   -6.0090 O   0  0  0  0  0  0  0  0  0  0  0  0
   19.9861   70.3675   -5.2847 O   0  0  0  0  0  0  0  0  0  0  0  0
   17.8102   70.6200   -8.7875 O   0  0  0  0  0  0  0  0  0  0  0  0
   20.5244   71.6919   -8.6496 O   0  0  0  0  0  0  0  0  0  0  0  0
   16.4647   70.8062   -6.2174 O   0  0  0  0  0  0  0  0  0  0  0  0
   18.4189   71.1111   -7.5933 C   0  0  2  0  0  0  0  0  0  0  0  0
   19.9278   70.8714   -7.6519 C   0  0  2  0  0  0  0  0  0  0  0  0
   17.8066   70.3618   -6.4078 C   0  0  1  0  0  0  0  0  0  0  0  0
   20.5824   71.1720   -6.3029 C   0  0  1  0  0  0  0  0  0  0  0  0
   18.5911   70.6147   -5.1236 C   0  0  1  0  0  0  0  0  0  0  0  0
   18.1839   71.0819   -9.5546 H   0  0  0  0  0  0  0  0  0  0  0  0
   20.1135   71.5066   -9.5083 H   0  0  0  0  0  0  0  0  0  0  0  0
   15.9546   70.6510   -7.0277 H   0  0  0  0  0  0  0  0  0  0  0  0
   18.9908   69.7771   -2.9695 O   0  0  0  0  0  0  0  0  0  0  0  0
   17.2881   68.8303   -4.1543 O   0  0  0  0  0  0  0  0  0  0  0  0
   18.1982   69.6403   -4.0613 C   0  0  0  0  0  0  0  0  0  0  0  0
  1  4  1  0
  1 24  1  0
  1  2  1  1
  1  3  2  0
 25 28  1  0
 25 24  1  0
 25 26  1  6
 25 27  2  0
  6 11  1  0
  6 12  1  0
 29 36  1  0
 29 37  1  0
  9  7  1  1
  7 13  1  0
 10  8  1  1
  8 14  1  0
  4  5  1  0
 36 28  1  1
 33 30  1  6
 30 38  1  0
 34 31  1  6
 31 39  1  0
 35 32  1  1
 32 40  1  0
 41 43  1  0
 15 19  2  0
 42 43  2  0
 16 22  2  0
 12 17  1  1
 17 19  1  0
 17 20  1  0
 18 19  1  0
 18 22  1  0
 18 23  1  0
  9 10  1  0
  9 11  1  0
 10 12  1  0
 11  5  1  1
 33 34  1  0
 33 35  1  0
 34 36  1  0
 35 37  1  0
 37 43  1  1
 20 21  2  0
 21 22  1  0
M  CHG  3   2  -1  26  -1  41  -1
M  END
>  <COMPND>  (50) 
    udp_gluA.pdb 

>  <AUTHOR>  (50) 
    GENERATED BY OPEN BABEL 3.1.1

>  <MASTER>  (50) 
        0    0    0    0    0    0    0    0   56    0   56    0

>  <minimizedAffinity>  (50) 
-7.81433

>  <CNNscore>  (50) 
0.7438466549

>  <CNNaffinity>  (50) 
4.5299744606

>  <CNN_VS>  (50) 
3.3696062565

>  <CNNaffinity_variance>  (50) 
0.0466333441

$$$$
51
     RDKit          3D

 43 45  0  0  0  0  0  0  0  0999 V2000
   21.7616   72.7204   -5.7647 P   0  0  2  0  0  0  0  0  0  0  0  0
   21.5320   74.0636   -6.6377 O   0  0  0  0  0  0  0  0  0  0  0  0
   23.1925   72.4224   -5.4250 O   0  0  0  0  0  0  0  0  0  0  0  0
   20.9852   71.5748   -6.6029 O   0  0  0  0  0  0  0  0  0  0  0  0
   20.3006   71.9484   -7.7845 C   0  0  0  0  0  0  0  0  0  0  0  0
   19.1397   69.9080   -7.2679 O   0  0  0  0  0  0  0  0  0  0  0  0
   18.1348   69.9829  -10.0921 O   0  0  0  0  0  0  0  0  0  0  0  0
   16.0006   70.9176   -8.6753 O   0  0  0  0  0  0  0  0  0  0  0  0
   18.3728   71.0626   -9.1887 C   0  0  1  0  0  0  0  0  0  0  0  0
   17.2898   71.1101   -8.1318 C   0  0  2  0  0  0  0  0  0  0  0  0
   19.6072   70.7225   -8.3649 C   0  0  1  0  0  0  0  0  0  0  0  0
   17.7067   69.9832   -7.2021 C   0  0  2  0  0  0  0  0  0  0  0  0
   17.3506   70.1774  -10.6295 H   0  0  0  0  0  0  0  0  0  0  0  0
   15.7816   71.6611   -9.2594 H   0  0  0  0  0  0  0  0  0  0  0  0
   16.1716   68.1919   -5.6494 O   0  0  0  0  0  0  0  0  0  0  0  0
   16.2572   70.9995   -1.9951 O   0  0  0  0  0  0  0  0  0  0  0  0
   17.3136   70.2210   -5.8421 N   0  0  0  0  0  0  0  0  0  0  0  0
   16.2148   69.5924   -3.8311 N   0  0  0  0  0  0  0  0  0  0  0  0
   16.5422   69.2566   -5.1514 C   0  0  0  0  0  0  0  0  0  0  0  0
   17.6926   71.3969   -5.2060 C   0  0  0  0  0  0  0  0  0  0  0  0
   17.3730   71.7029   -3.9470 C   0  0  0  0  0  0  0  0  0  0  0  0
   16.5680   70.7494   -3.1557 C   0  0  0  0  0  0  0  0  0  0  0  0
   15.6765   68.9374   -3.3307 H   0  0  0  0  0  0  0  0  0  0  0  0
   20.7997   72.9499   -4.4860 O   0  0  0  0  0  0  0  0  0  0  0  0
   20.6270   74.2212   -3.5023 P   0  0  2  0  0  0  0  0  0  0  0  0
   19.1075   74.7030   -3.7840 O   0  0  0  0  0  0  0  0  0  0  0  0
   21.6610   75.2927   -3.6934 O   0  0  0  0  0  0  0  0  0  0  0  0
   20.5850   73.5882   -2.0190 O   0  0  0  0  0  0  0  0  0  0  0  0
   20.9276   74.0325    0.2819 O   0  0  0  0  0  0  0  0  0  0  0  0
   23.7166   71.0681   -0.4263 O   0  0  0  0  0  0  0  0  0  0  0  0
   23.3209   73.2216   -2.3603 O   0  0  0  0  0  0  0  0  0  0  0  0
   21.2537   70.4467    0.9876 O   0  0  0  0  0  0  0  0  0  0  0  0
   22.4861   71.7692   -0.6053 C   0  0  2  0  0  0  0  0  0  0  0  0
   22.7743   73.2044   -1.0466 C   0  0  2  0  0  0  0  0  0  0  0  0
   21.7395   71.7629    0.7305 C   0  0  1  0  0  0  0  0  0  0  0  0
   21.4998   74.0494   -1.0264 C   0  0  1  0  0  0  0  0  0  0  0  0
   20.5551   72.7249    0.7113 C   0  0  1  0  0  0  0  0  0  0  0  0
   24.2085   71.0591   -1.2625 H   0  0  0  0  0  0  0  0  0  0  0  0
   24.1298   72.6870   -2.3804 H   0  0  0  0  0  0  0  0  0  0  0  0
   21.9978   69.8246    1.0022 H   0  0  0  0  0  0  0  0  0  0  0  0
   20.7060   72.1901    2.9901 O   0  0  0  0  0  0  0  0  0  0  0  0
   19.1445   73.7380    2.3862 O   0  0  0  0  0  0  0  0  0  0  0  0
   20.0400   72.9598    2.0940 C   0  0  0  0  0  0  0  0  0  0  0  0
  1  4  1  0
  1 24  1  0
  1  2  1  6
  1  3  2  0
 25 28  1  0
 25 24  1  0
 25 26  1  6
 25 27  2  0
  6 11  1  0
  6 12  1  0
 29 36  1  0
 29 37  1  0
  9  7  1  6
  7 13  1  0
 10  8  1  6
  8 14  1  0
  4  5  1  0
 36 28  1  6
 33 30  1  1
 30 38  1  0
 34 31  1  6
 31 39  1  0
 35 32  1  6
 32 40  1  0
 41 43  1  0
 15 19  2  0
 42 43  2  0
 16 22  2  0
 12 17  1  1
 17 19  1  0
 17 20  1  0
 18 19  1  0
 18 22  1  0
 18 23  1  0
  9 10  1  0
  9 11  1  0
 10 12  1  0
 11  5  1  1
 33 34  1  0
 33 35  1  0
 34 36  1  0
 35 37  1  0
 37 43  1  1
 20 21  2  0
 21 22  1  0
M  CHG  3   2  -1  26  -1  41  -1
M  END
>  <COMPND>  (51) 
    udp_gluA.pdb 

>  <AUTHOR>  (51) 
    GENERATED BY OPEN BABEL 3.1.1

>  <MASTER>  (51) 
        0    0    0    0    0    0    0    0   56    0   56    0

>  <minimizedAffinity>  (51) 
-7.03328

>  <CNNscore>  (51) 
0.7010294795

>  <CNNaffinity>  (51) 
4.5083293915

>  <CNN_VS>  (51) 
3.1604719162

>  <CNNaffinity_variance>  (51) 
0.2660065591

$$$$
52
     RDKit          3D

 43 45  0  0  0  0  0  0  0  0999 V2000
   22.0495   72.5055   -5.6774 P   0  0  2  0  0  0  0  0  0  0  0  0
   23.0039   72.6149   -6.9797 O   0  0  0  0  0  0  0  0  0  0  0  0
   22.7075   71.9337   -4.4560 O   0  0  0  0  0  0  0  0  0  0  0  0
   20.7494   71.7059   -6.2145 O   0  0  0  0  0  0  0  0  0  0  0  0
   20.3531   71.8871   -7.5616 C   0  0  0  0  0  0  0  0  0  0  0  0
   18.9663   70.0514   -6.8654 O   0  0  0  0  0  0  0  0  0  0  0  0
   18.1664   69.8063   -9.7449 O   0  0  0  0  0  0  0  0  0  0  0  0
   16.0429   71.1175   -8.6461 O   0  0  0  0  0  0  0  0  0  0  0  0
   18.4472   70.9799   -8.9818 C   0  0  1  0  0  0  0  0  0  0  0  0
   17.3051   71.2732   -8.0320 C   0  0  2  0  0  0  0  0  0  0  0  0
   19.5841   70.6556   -8.0224 C   0  0  1  0  0  0  0  0  0  0  0  0
   17.5464   70.2599   -6.9262 C   0  0  2  0  0  0  0  0  0  0  0  0
   17.4430   69.9890  -10.3653 H   0  0  0  0  0  0  0  0  0  0  0  0
   15.9375   71.7855   -9.3423 H   0  0  0  0  0  0  0  0  0  0  0  0
   16.9880   68.5799   -4.7257 O   0  0  0  0  0  0  0  0  0  0  0  0
   15.7911   72.1514   -2.0694 O   0  0  0  0  0  0  0  0  0  0  0  0
   17.0875   70.7243   -5.6477 N   0  0  0  0  0  0  0  0  0  0  0  0
   16.3914   70.3602   -3.4051 N   0  0  0  0  0  0  0  0  0  0  0  0
   16.8361   69.7973   -4.6087 C   0  0  0  0  0  0  0  0  0  0  0  0
   16.8927   72.0832   -5.4325 C   0  0  0  0  0  0  0  0  0  0  0  0
   16.4685   72.6048   -4.2797 C   0  0  0  0  0  0  0  0  0  0  0  0
   16.1821   71.7046   -3.1435 C   0  0  0  0  0  0  0  0  0  0  0  0
   16.2078   69.7344   -2.6676 H   0  0  0  0  0  0  0  0  0  0  0  0
   21.5005   74.0157   -5.5019 O   0  0  0  0  0  0  0  0  0  0  0  0
   21.8144   75.1353   -4.3788 P   0  0  2  0  0  0  0  0  0  0  0  0
   21.0016   76.4304   -4.9103 O   0  0  0  0  0  0  0  0  0  0  0  0
   23.2771   75.3774   -4.1425 O   0  0  0  0  0  0  0  0  0  0  0  0
   20.9973   74.6484   -3.0758 O   0  0  0  0  0  0  0  0  0  0  0  0
   19.6814   72.6965   -2.8159 O   0  0  0  0  0  0  0  0  0  0  0  0
   17.8165   75.3188   -0.2249 O   0  0  0  0  0  0  0  0  0  0  0  0
   18.7149   76.2222   -2.8538 O   0  0  0  0  0  0  0  0  0  0  0  0
   19.5276   73.2106    0.8138 O   0  0  0  0  0  0  0  0  0  0  0  0
   18.9162   74.7503   -0.9358 C   0  0  2  0  0  0  0  0  0  0  0  0
   18.6658   74.8617   -2.4399 C   0  0  2  0  0  0  0  0  0  0  0  0
   19.0370   73.2814   -0.5237 C   0  0  1  0  0  0  0  0  0  0  0  0
   19.7052   74.0636   -3.2282 C   0  0  1  0  0  0  0  0  0  0  0  0
   19.9974   72.5240   -1.4362 C   0  0  1  0  0  0  0  0  0  0  0  0
   17.7203   76.2524   -0.4707 H   0  0  0  0  0  0  0  0  0  0  0  0
   18.0580   76.7346   -2.3574 H   0  0  0  0  0  0  0  0  0  0  0  0
   18.9254   73.6890    1.4048 H   0  0  0  0  0  0  0  0  0  0  0  0
   20.6951   70.6150   -0.2655 O   0  0  0  0  0  0  0  0  0  0  0  0
   19.1028   70.3260   -1.8718 O   0  0  0  0  0  0  0  0  0  0  0  0
   19.8608   71.0488   -1.2426 C   0  0  0  0  0  0  0  0  0  0  0  0
  1  4  1  0
  1 24  1  0
  1  2  1  6
  1  3  2  0
 25 28  1  0
 25 24  1  0
 25 26  1  6
 25 27  2  0
  6 11  1  0
  6 12  1  0
 29 36  1  0
 29 37  1  0
  9  7  1  6
  7 13  1  0
 10  8  1  6
  8 14  1  0
  4  5  1  0
 36 28  1  1
 33 30  1  1
 30 38  1  0
 34 31  1  6
 31 39  1  0
 35 32  1  1
 32 40  1  0
 41 43  1  0
 15 19  2  0
 42 43  2  0
 16 22  2  0
 12 17  1  1
 17 19  1  0
 17 20  1  0
 18 19  1  0
 18 22  1  0
 18 23  1  0
  9 10  1  0
  9 11  1  0
 10 12  1  0
 11  5  1  1
 33 34  1  0
 33 35  1  0
 34 36  1  0
 35 37  1  0
 37 43  1  1
 20 21  2  0
 21 22  1  0
M  CHG  3   2  -1  26  -1  41  -1
M  END
>  <COMPND>  (52) 
    udp_gluA.pdb 

>  <AUTHOR>  (52) 
    GENERATED BY OPEN BABEL 3.1.1

>  <MASTER>  (52) 
        0    0    0    0    0    0    0    0   56    0   56    0

>  <minimizedAffinity>  (52) 
-6.00428

>  <CNNscore>  (52) 
0.7007198930

>  <CNNaffinity>  (52) 
4.4064893723

>  <CNN_VS>  (52) 
3.0877146721

>  <CNNaffinity_variance>  (52) 
0.4424165189

$$$$
53
     RDKit          3D

 43 45  0  0  0  0  0  0  0  0999 V2000
   21.9693   72.6201   -5.7895 P   0  0  2  0  0  0  0  0  0  0  0  0
   21.3840   74.0717   -5.3783 O   0  0  0  0  0  0  0  0  0  0  0  0
   23.1254   72.6508   -6.7456 O   0  0  0  0  0  0  0  0  0  0  0  0
   20.6655   71.8029   -6.2896 O   0  0  0  0  0  0  0  0  0  0  0  0
   20.1455   72.0814   -7.5766 C   0  0  0  0  0  0  0  0  0  0  0  0
   19.0107   70.0310   -7.0423 O   0  0  0  0  0  0  0  0  0  0  0  0
   18.1703   69.9634   -9.9199 O   0  0  0  0  0  0  0  0  0  0  0  0
   15.9333   70.8926   -8.6675 O   0  0  0  0  0  0  0  0  0  0  0  0
   18.3267   71.0850   -9.0503 C   0  0  1  0  0  0  0  0  0  0  0  0
   17.1832   71.1437   -8.0598 C   0  0  2  0  0  0  0  0  0  0  0  0
   19.5197   70.8138   -8.1439 C   0  0  1  0  0  0  0  0  0  0  0  0
   17.5749   70.0676   -7.0616 C   0  0  2  0  0  0  0  0  0  0  0  0
   17.4138   70.1136  -10.5088 H   0  0  0  0  0  0  0  0  0  0  0  0
   15.7292   71.6054   -9.2937 H   0  0  0  0  0  0  0  0  0  0  0  0
   16.2888   68.1829   -5.3971 O   0  0  0  0  0  0  0  0  0  0  0  0
   15.7836   71.2561   -1.9994 O   0  0  0  0  0  0  0  0  0  0  0  0
   17.0971   70.3485   -5.7373 N   0  0  0  0  0  0  0  0  0  0  0  0
   16.0375   69.7156   -3.7068 N   0  0  0  0  0  0  0  0  0  0  0  0
   16.4647   69.3309   -4.9845 C   0  0  0  0  0  0  0  0  0  0  0  0
   17.2581   71.6184   -5.1967 C   0  0  0  0  0  0  0  0  0  0  0  0
   16.8458   71.9701   -3.9773 C   0  0  0  0  0  0  0  0  0  0  0  0
   16.1745   70.9660   -3.1260 C   0  0  0  0  0  0  0  0  0  0  0  0
   15.5925   69.0247   -3.1646 H   0  0  0  0  0  0  0  0  0  0  0  0
   22.2964   71.9422   -4.3590 O   0  0  0  0  0  0  0  0  0  0  0  0
   23.5605   72.1163   -3.3662 P   0  0  2  0  0  0  0  0  0  0  0  0
   24.4912   73.1928   -4.1377 O   0  0  0  0  0  0  0  0  0  0  0  0
   24.2560   70.8307   -3.0236 O   0  0  0  0  0  0  0  0  0  0  0  0
   22.9755   72.9202   -2.0958 O   0  0  0  0  0  0  0  0  0  0  0  0
   21.2638   72.0843   -0.6885 O   0  0  0  0  0  0  0  0  0  0  0  0
   20.9629   76.1551   -0.0513 O   0  0  0  0  0  0  0  0  0  0  0  0
   21.3811   75.1048   -2.7451 O   0  0  0  0  0  0  0  0  0  0  0  0
   22.1977   74.4516    1.9547 O   0  0  0  0  0  0  0  0  0  0  0  0
   21.6316   74.9269   -0.3385 C   0  0  2  0  0  0  0  0  0  0  0  0
   21.0485   74.3122   -1.6111 C   0  0  2  0  0  0  0  0  0  0  0  0
   21.4239   73.9862    0.8505 C   0  0  1  0  0  0  0  0  0  0  0  0
   21.5755   72.8924   -1.8239 C   0  0  1  0  0  0  0  0  0  0  0  0
   21.8580   72.5619    0.5165 C   0  0  1  0  0  0  0  0  0  0  0  0
   21.0811   76.7690   -0.7933 H   0  0  0  0  0  0  0  0  0  0  0  0
   21.0500   76.0071   -2.6167 H   0  0  0  0  0  0  0  0  0  0  0  0
   21.9314   75.3573    2.1773 H   0  0  0  0  0  0  0  0  0  0  0  0
   21.5628   70.3208    1.1424 O   0  0  0  0  0  0  0  0  0  0  0  0
   20.8303   71.9131    2.6008 O   0  0  0  0  0  0  0  0  0  0  0  0
   21.3552   71.5996    1.5429 C   0  0  0  0  0  0  0  0  0  0  0  0
  1  4  1  0
  1 24  1  0
  1  2  1  1
  1  3  2  0
 25 28  1  0
 25 24  1  0
 25 26  1  6
 25 27  2  0
  6 11  1  0
  6 12  1  0
 29 36  1  0
 29 37  1  0
  9  7  1  6
  7 13  1  0
 10  8  1  6
  8 14  1  0
  4  5  1  0
 36 28  1  1
 33 30  1  1
 30 38  1  0
 34 31  1  6
 31 39  1  0
 35 32  1  1
 32 40  1  0
 41 43  1  0
 15 19  2  0
 42 43  2  0
 16 22  2  0
 12 17  1  1
 17 19  1  0
 17 20  1  0
 18 19  1  0
 18 22  1  0
 18 23  1  0
  9 10  1  0
  9 11  1  0
 10 12  1  0
 11  5  1  1
 33 34  1  0
 33 35  1  0
 34 36  1  0
 35 37  1  0
 37 43  1  1
 20 21  2  0
 21 22  1  0
M  CHG  3   2  -1  26  -1  41  -1
M  END
>  <COMPND>  (53) 
    udp_gluA.pdb 

>  <AUTHOR>  (53) 
    GENERATED BY OPEN BABEL 3.1.1

>  <MASTER>  (53) 
        0    0    0    0    0    0    0    0   56    0   56    0

>  <minimizedAffinity>  (53) 
-8.03484

>  <CNNscore>  (53) 
0.6979042888

>  <CNNaffinity>  (53) 
4.4471197128

>  <CNN_VS>  (53) 
3.1036639214

>  <CNNaffinity_variance>  (53) 
0.3961021900

$$$$
54
     RDKit          3D

 43 45  0  0  0  0  0  0  0  0999 V2000
   21.6442   72.6213   -5.4886 P   0  0  2  0  0  0  0  0  0  0  0  0
   20.8081   73.9604   -5.8444 O   0  0  0  0  0  0  0  0  0  0  0  0
   23.1330   72.7485   -5.6266 O   0  0  0  0  0  0  0  0  0  0  0  0
   20.9496   71.4767   -6.3970 O   0  0  0  0  0  0  0  0  0  0  0  0
   20.5455   71.8102   -7.7123 C   0  0  0  0  0  0  0  0  0  0  0  0
   19.2361   69.8563   -7.2165 O   0  0  0  0  0  0  0  0  0  0  0  0
   18.2653   70.0161  -10.0490 O   0  0  0  0  0  0  0  0  0  0  0  0
   16.1908   71.0955   -8.6464 O   0  0  0  0  0  0  0  0  0  0  0  0
   18.5720   71.0718   -9.1380 C   0  0  1  0  0  0  0  0  0  0  0  0
   17.4855   71.1923   -8.0905 C   0  0  2  0  0  0  0  0  0  0  0  0
   19.7711   70.6400   -8.3051 C   0  0  1  0  0  0  0  0  0  0  0  0
   17.8118   70.0342   -7.1630 C   0  0  2  0  0  0  0  0  0  0  0  0
   17.5020   70.2690  -10.5924 H   0  0  0  0  0  0  0  0  0  0  0  0
   16.0313   71.8555   -9.2285 H   0  0  0  0  0  0  0  0  0  0  0  0
   16.3670   68.2266   -5.5439 O   0  0  0  0  0  0  0  0  0  0  0  0
   16.3794   71.1351   -1.9684 O   0  0  0  0  0  0  0  0  0  0  0  0
   17.4242   70.2935   -5.8053 N   0  0  0  0  0  0  0  0  0  0  0  0
   16.3737   69.6773   -3.7650 N   0  0  0  0  0  0  0  0  0  0  0  0
   16.6999   69.3185   -5.0795 C   0  0  0  0  0  0  0  0  0  0  0  0
   17.7626   71.5007   -5.2060 C   0  0  0  0  0  0  0  0  0  0  0  0
   17.4447   71.8283   -3.9520 C   0  0  0  0  0  0  0  0  0  0  0  0
   16.6874   70.8656   -3.1255 C   0  0  0  0  0  0  0  0  0  0  0  0
   15.8676   69.0154   -3.2405 H   0  0  0  0  0  0  0  0  0  0  0  0
   21.1347   72.2607   -3.9975 O   0  0  0  0  0  0  0  0  0  0  0  0
   21.3434   70.9351   -3.0960 P   0  0  2  0  0  0  0  0  0  0  0  0
   22.9482   70.7238   -3.1152 O   0  0  0  0  0  0  0  0  0  0  0  0
   20.5572   69.7438   -3.5615 O   0  0  0  0  0  0  0  0  0  0  0  0
   21.0130   71.4083   -1.5896 O   0  0  0  0  0  0  0  0  0  0  0  0
   22.4169   73.1719   -0.8630 O   0  0  0  0  0  0  0  0  0  0  0  0
   20.3655   72.2484    2.6021 O   0  0  0  0  0  0  0  0  0  0  0  0
   21.3521   70.1252    0.8547 O   0  0  0  0  0  0  0  0  0  0  0  0
   19.6742   74.6320    1.0884 O   0  0  0  0  0  0  0  0  0  0  0  0
   20.5467   72.3886    1.1930 C   0  0  2  0  0  0  0  0  0  0  0  0
   21.7026   71.4991    0.7346 C   0  0  2  0  0  0  0  0  0  0  0  0
   20.8575   73.8582    0.9001 C   0  0  1  0  0  0  0  0  0  0  0  0
   22.0757   71.7926   -0.7191 C   0  0  1  0  0  0  0  0  0  0  0  0
   21.3427   74.0499   -0.5339 C   0  0  1  0  0  0  0  0  0  0  0  0
   20.1669   71.3223    2.8121 H   0  0  0  0  0  0  0  0  0  0  0  0
   21.1139   69.9320    1.7747 H   0  0  0  0  0  0  0  0  0  0  0  0
   19.3549   74.5187    1.9972 H   0  0  0  0  0  0  0  0  0  0  0  0
   20.9848   76.3417   -0.8815 O   0  0  0  0  0  0  0  0  0  0  0  0
   23.1477   75.6418   -0.7051 O   0  0  0  0  0  0  0  0  0  0  0  0
   21.9493   75.4036   -0.7122 C   0  0  0  0  0  0  0  0  0  0  0  0
  1  4  1  0
  1 24  1  0
  1  2  1  6
  1  3  2  0
 25 28  1  0
 25 24  1  0
 25 26  1  1
 25 27  2  0
  6 11  1  0
  6 12  1  0
 29 36  1  0
 29 37  1  0
  9  7  1  6
  7 13  1  0
 10  8  1  6
  8 14  1  0
  4  5  1  0
 36 28  1  6
 33 30  1  1
 30 38  1  0
 34 31  1  6
 31 39  1  0
 35 32  1  6
 32 40  1  0
 41 43  1  0
 15 19  2  0
 42 43  2  0
 16 22  2  0
 12 17  1  1
 17 19  1  0
 17 20  1  0
 18 19  1  0
 18 22  1  0
 18 23  1  0
  9 10  1  0
  9 11  1  0
 10 12  1  0
 11  5  1  1
 33 34  1  0
 33 35  1  0
 34 36  1  0
 35 37  1  0
 37 43  1  1
 20 21  2  0
 21 22  1  0
M  CHG  3   2  -1  26  -1  41  -1
M  END
>  <COMPND>  (54) 
    udp_gluA.pdb 

>  <AUTHOR>  (54) 
    GENERATED BY OPEN BABEL 3.1.1

>  <MASTER>  (54) 
        0    0    0    0    0    0    0    0   56    0   56    0

>  <minimizedAffinity>  (54) 
-6.99703

>  <CNNscore>  (54) 
0.6920062304

>  <CNNaffinity>  (54) 
4.6003808975

>  <CNN_VS>  (54) 
3.1834921837

>  <CNNaffinity_variance>  (54) 
0.1682914793

$$$$
55
     RDKit          3D

 43 45  0  0  0  0  0  0  0  0999 V2000
   23.2167   73.5803   -4.1990 P   0  0  2  0  0  0  0  0  0  0  0  0
   24.1976   72.2937   -4.1610 O   0  0  0  0  0  0  0  0  0  0  0  0
   23.8044   74.8064   -4.8338 O   0  0  0  0  0  0  0  0  0  0  0  0
   22.7343   73.7466   -2.6636 O   0  0  0  0  0  0  0  0  0  0  0  0
   21.7809   74.7479   -2.3591 C   0  0  0  0  0  0  0  0  0  0  0  0
   20.9995   72.8197   -1.1554 O   0  0  0  0  0  0  0  0  0  0  0  0
   18.7084   74.5362   -0.2631 O   0  0  0  0  0  0  0  0  0  0  0  0
   20.3500   74.5547    1.9142 O   0  0  0  0  0  0  0  0  0  0  0  0
   20.0742   74.8924   -0.4779 C   0  0  1  0  0  0  0  0  0  0  0  0
   20.9379   74.3585    0.6452 C   0  0  2  0  0  0  0  0  0  0  0  0
   20.5834   74.1012   -1.6750 C   0  0  1  0  0  0  0  0  0  0  0  0
   21.0600   72.8894    0.2781 C   0  0  2  0  0  0  0  0  0  0  0  0
   18.3610   75.0293    0.4971 H   0  0  0  0  0  0  0  0  0  0  0  0
   20.2948   75.5054    2.1014 H   0  0  0  0  0  0  0  0  0  0  0  0
   21.3675   70.2068    1.1060 O   0  0  0  0  0  0  0  0  0  0  0  0
   25.8587   70.7937    1.9597 O   0  0  0  0  0  0  0  0  0  0  0  0
   22.2986   72.3148    0.7216 N   0  0  0  0  0  0  0  0  0  0  0  0
   23.6039   70.5019    1.5314 N   0  0  0  0  0  0  0  0  0  0  0  0
   22.3454   70.9568    1.1162 C   0  0  0  0  0  0  0  0  0  0  0  0
   23.4493   73.0928    0.7610 C   0  0  0  0  0  0  0  0  0  0  0  0
   24.6417   72.6451    1.1590 C   0  0  0  0  0  0  0  0  0  0  0  0
   24.7765   71.2377    1.5884 C   0  0  0  0  0  0  0  0  0  0  0  0
   23.6609   69.5602    1.8128 H   0  0  0  0  0  0  0  0  0  0  0  0
   21.8961   73.0082   -4.9349 O   0  0  0  0  0  0  0  0  0  0  0  0
   21.1218   73.5061   -6.2639 P   0  0  2  0  0  0  0  0  0  0  0  0
   22.1247   73.0757   -7.4594 O   0  0  0  0  0  0  0  0  0  0  0  0
   20.7587   74.9628   -6.2556 O   0  0  0  0  0  0  0  0  0  0  0  0
   19.8657   72.5038   -6.4054 O   0  0  0  0  0  0  0  0  0  0  0  0
   19.4729   70.3150   -5.5905 O   0  0  0  0  0  0  0  0  0  0  0  0
   17.6028   70.1895   -9.2722 O   0  0  0  0  0  0  0  0  0  0  0  0
   20.2007   71.4920   -8.9745 O   0  0  0  0  0  0  0  0  0  0  0  0
   16.0244   70.4035   -6.8404 O   0  0  0  0  0  0  0  0  0  0  0  0
   18.0625   70.7953   -8.0641 C   0  0  2  0  0  0  0  0  0  0  0  0
   19.5848   70.6805   -7.9811 C   0  0  2  0  0  0  0  0  0  0  0  0
   17.4088   70.0637   -6.8896 C   0  0  1  0  0  0  0  0  0  0  0  0
   20.0915   71.1093   -6.6033 C   0  0  1  0  0  0  0  0  0  0  0  0
   18.0539   70.4524   -5.5625 C   0  0  1  0  0  0  0  0  0  0  0  0
   18.0052   70.6381  -10.0326 H   0  0  0  0  0  0  0  0  0  0  0  0
   19.8835   71.2256   -9.8513 H   0  0  0  0  0  0  0  0  0  0  0  0
   15.6020   70.1613   -7.6793 H   0  0  0  0  0  0  0  0  0  0  0  0
   18.6577   69.3336   -3.5914 O   0  0  0  0  0  0  0  0  0  0  0  0
   16.5550   68.9665   -4.3934 O   0  0  0  0  0  0  0  0  0  0  0  0
   17.6468   69.5085   -4.4782 C   0  0  0  0  0  0  0  0  0  0  0  0
  1  4  1  0
  1 24  1  0
  1  2  1  1
  1  3  2  0
 25 28  1  0
 25 24  1  0
 25 26  1  6
 25 27  2  0
  6 11  1  0
  6 12  1  0
 29 36  1  0
 29 37  1  0
  9  7  1  1
  7 13  1  0
 10  8  1  1
  8 14  1  0
  4  5  1  0
 36 28  1  1
 33 30  1  6
 30 38  1  0
 34 31  1  6
 31 39  1  0
 35 32  1  1
 32 40  1  0
 41 43  1  0
 15 19  2  0
 42 43  2  0
 16 22  2  0
 12 17  1  6
 17 19  1  0
 17 20  1  0
 18 19  1  0
 18 22  1  0
 18 23  1  0
  9 10  1  0
  9 11  1  0
 10 12  1  0
 11  5  1  1
 33 34  1  0
 33 35  1  0
 34 36  1  0
 35 37  1  0
 37 43  1  1
 20 21  2  0
 21 22  1  0
M  CHG  3   2  -1  26  -1  41  -1
M  END
>  <COMPND>  (55) 
    udp_gluA.pdb 

>  <AUTHOR>  (55) 
    GENERATED BY OPEN BABEL 3.1.1

>  <MASTER>  (55) 
        0    0    0    0    0    0    0    0   56    0   56    0

>  <minimizedAffinity>  (55) 
-7.69822

>  <CNNscore>  (55) 
0.6708713770

>  <CNNaffinity>  (55) 
4.5902457237

>  <CNN_VS>  (55) 
3.0794644356

>  <CNNaffinity_variance>  (55) 
0.1132850498

$$$$
56
     RDKit          3D

 43 45  0  0  0  0  0  0  0  0999 V2000
   15.7009   70.6842   -2.5148 P   0  0  2  0  0  0  0  0  0  0  0  0
   15.0388   71.7709   -3.5147 O   0  0  0  0  0  0  0  0  0  0  0  0
   16.0101   69.3549   -3.1388 O   0  0  0  0  0  0  0  0  0  0  0  0
   14.6886   70.6496   -1.2531 O   0  0  0  0  0  0  0  0  0  0  0  0
   14.7988   69.5846   -0.3268 C   0  0  0  0  0  0  0  0  0  0  0  0
   13.7453   67.5523    0.4065 O   0  0  0  0  0  0  0  0  0  0  0  0
   11.5497   68.2122   -1.5263 O   0  0  0  0  0  0  0  0  0  0  0  0
   10.4902   68.9834    0.8651 O   0  0  0  0  0  0  0  0  0  0  0  0
   12.3341   69.0881   -0.7163 C   0  0  1  0  0  0  0  0  0  0  0  0
   11.8959   68.9975    0.7300 C   0  0  2  0  0  0  0  0  0  0  0  0
   13.7496   68.5304   -0.6559 C   0  0  1  0  0  0  0  0  0  0  0  0
   12.5391   67.6946    1.1734 C   0  0  2  0  0  0  0  0  0  0  0  0
   10.6409   68.5479   -1.5797 H   0  0  0  0  0  0  0  0  0  0  0  0
   10.1285   69.8344    0.5703 H   0  0  0  0  0  0  0  0  0  0  0  0
   11.8835   65.6154    2.9689 O   0  0  0  0  0  0  0  0  0  0  0  0
   13.8632   67.8024    6.5103 O   0  0  0  0  0  0  0  0  0  0  0  0
   12.8711   67.6949    2.5701 N   0  0  0  0  0  0  0  0  0  0  0  0
   12.8693   66.7071    4.7312 N   0  0  0  0  0  0  0  0  0  0  0  0
   12.4952   66.6011    3.3852 C   0  0  0  0  0  0  0  0  0  0  0  0
   13.5623   68.7684    3.1185 C   0  0  0  0  0  0  0  0  0  0  0  0
   13.9119   68.8552    4.4034 C   0  0  0  0  0  0  0  0  0  0  0  0
   13.5564   67.7546    5.3230 C   0  0  0  0  0  0  0  0  0  0  0  0
   12.6167   65.9586    5.3188 H   0  0  0  0  0  0  0  0  0  0  0  0
   16.9870   71.4677   -1.9275 O   0  0  0  0  0  0  0  0  0  0  0  0
   18.5674   71.2720   -2.2059 P   0  0  2  0  0  0  0  0  0  0  0  0
   18.7631   69.6677   -2.1152 O   0  0  0  0  0  0  0  0  0  0  0  0
   19.4566   72.0565   -1.2850 O   0  0  0  0  0  0  0  0  0  0  0  0
   18.7532   71.6171   -3.7708 O   0  0  0  0  0  0  0  0  0  0  0  0
   18.2657   70.0398   -5.4689 O   0  0  0  0  0  0  0  0  0  0  0  0
   20.7645   72.6648   -7.4520 O   0  0  0  0  0  0  0  0  0  0  0  0
   21.3603   71.8349   -4.7151 O   0  0  0  0  0  0  0  0  0  0  0  0
   17.8997   72.7253   -7.9420 O   0  0  0  0  0  0  0  0  0  0  0  0
   19.7758   72.2752   -6.4989 C   0  0  2  0  0  0  0  0  0  0  0  0
   20.3672   71.2395   -5.5423 C   0  0  2  0  0  0  0  0  0  0  0  0
   18.5914   71.6790   -7.2628 C   0  0  1  0  0  0  0  0  0  0  0  0
   19.2803   70.6302   -4.6556 C   0  0  1  0  0  0  0  0  0  0  0  0
   17.6154   70.9805   -6.3205 C   0  0  1  0  0  0  0  0  0  0  0  0
   21.5271   73.0467   -6.9895 H   0  0  0  0  0  0  0  0  0  0  0  0
   22.0530   72.2238   -5.2712 H   0  0  0  0  0  0  0  0  0  0  0  0
   18.5099   73.1780   -8.5450 H   0  0  0  0  0  0  0  0  0  0  0  0
   16.3572   69.0024   -6.3960 O   0  0  0  0  0  0  0  0  0  0  0  0
   16.1929   70.4085   -8.1835 O   0  0  0  0  0  0  0  0  0  0  0  0
   16.6543   70.1310   -7.0866 C   0  0  0  0  0  0  0  0  0  0  0  0
  1  4  1  0
  1 24  1  0
  1  2  1  6
  1  3  2  0
 25 28  1  0
 25 24  1  0
 25 26  1  6
 25 27  2  0
  6 11  1  0
  6 12  1  0
 29 36  1  0
 29 37  1  0
  9  7  1  6
  7 13  1  0
 10  8  1  6
  8 14  1  0
  4  5  1  0
 36 28  1  6
 33 30  1  6
 30 38  1  0
 34 31  1  1
 31 39  1  0
 35 32  1  1
 32 40  1  0
 41 43  1  0
 15 19  2  0
 42 43  2  0
 16 22  2  0
 12 17  1  1
 17 19  1  0
 17 20  1  0
 18 19  1  0
 18 22  1  0
 18 23  1  0
  9 10  1  0
  9 11  1  0
 10 12  1  0
 11  5  1  1
 33 34  1  0
 33 35  1  0
 34 36  1  0
 35 37  1  0
 37 43  1  6
 20 21  2  0
 21 22  1  0
M  CHG  3   2  -1  26  -1  41  -1
M  END
>  <COMPND>  (56) 
    udp_gluA.pdb 

>  <AUTHOR>  (56) 
    GENERATED BY OPEN BABEL 3.1.1

>  <MASTER>  (56) 
        0    0    0    0    0    0    0    0   56    0   56    0

>  <minimizedAffinity>  (56) 
-6.46013

>  <CNNscore>  (56) 
0.6227946281

>  <CNNaffinity>  (56) 
4.2848749161

>  <CNN_VS>  (56) 
2.6685969830

>  <CNNaffinity_variance>  (56) 
0.0905268192

$$$$
57
     RDKit          3D

 43 45  0  0  0  0  0  0  0  0999 V2000
   23.5358   71.9978   -3.2223 P   0  0  2  0  0  0  0  0  0  0  0  0
   24.2060   73.0743   -4.2278 O   0  0  0  0  0  0  0  0  0  0  0  0
   24.3441   70.7539   -2.9957 O   0  0  0  0  0  0  0  0  0  0  0  0
   22.0527   71.7713   -3.8280 O   0  0  0  0  0  0  0  0  0  0  0  0
   21.6119   72.6199   -4.8722 C   0  0  0  0  0  0  0  0  0  0  0  0
   20.7448   70.6145   -5.8744 O   0  0  0  0  0  0  0  0  0  0  0  0
   21.1566   71.9775   -8.5134 O   0  0  0  0  0  0  0  0  0  0  0  0
   18.4783   72.2788   -8.0987 O   0  0  0  0  0  0  0  0  0  0  0  0
   20.7476   72.5332   -7.2634 C   0  0  1  0  0  0  0  0  0  0  0  0
   19.3123   72.1542   -6.9658 C   0  0  2  0  0  0  0  0  0  0  0  0
   21.5040   71.8098   -6.1577 C   0  0  1  0  0  0  0  0  0  0  0  0
   19.4561   70.7150   -6.5010 C   0  0  2  0  0  0  0  0  0  0  0  0
   20.6865   72.4240   -9.2354 H   0  0  0  0  0  0  0  0  0  0  0  0
   18.4187   73.2130   -8.3551 H   0  0  0  0  0  0  0  0  0  0  0  0
   16.8795   69.7909   -7.1965 O   0  0  0  0  0  0  0  0  0  0  0  0
   15.6590   69.3124   -2.7777 O   0  0  0  0  0  0  0  0  0  0  0  0
   18.4453   70.3420   -5.5523 N   0  0  0  0  0  0  0  0  0  0  0  0
   16.2738   69.5544   -4.9950 N   0  0  0  0  0  0  0  0  0  0  0  0
   17.1834   69.8906   -6.0063 C   0  0  0  0  0  0  0  0  0  0  0  0
   18.7085   70.4233   -4.1903 C   0  0  0  0  0  0  0  0  0  0  0  0
   17.8313   70.0993   -3.2383 C   0  0  0  0  0  0  0  0  0  0  0  0
   16.4892   69.6192   -3.6279 C   0  0  0  0  0  0  0  0  0  0  0  0
   15.3877   69.2394   -5.2866 H   0  0  0  0  0  0  0  0  0  0  0  0
   23.2553   72.8704   -1.8909 O   0  0  0  0  0  0  0  0  0  0  0  0
   22.0542   72.8025   -0.8108 P   0  0  2  0  0  0  0  0  0  0  0  0
   21.7293   71.2194   -0.7181 O   0  0  0  0  0  0  0  0  0  0  0  0
   20.8690   73.6580   -1.1532 O   0  0  0  0  0  0  0  0  0  0  0  0
   22.7516   73.1583    0.5996 O   0  0  0  0  0  0  0  0  0  0  0  0
   24.6824   72.4136    1.7514 O   0  0  0  0  0  0  0  0  0  0  0  0
   21.9399   72.7305    4.8249 O   0  0  0  0  0  0  0  0  0  0  0  0
   21.1556   71.5905    2.2521 O   0  0  0  0  0  0  0  0  0  0  0  0
   24.0123   74.7439    4.5051 O   0  0  0  0  0  0  0  0  0  0  0  0
   22.5453   73.0726    3.5781 C   0  0  2  0  0  0  0  0  0  0  0  0
   22.4968   71.8678    2.6381 C   0  0  2  0  0  0  0  0  0  0  0  0
   23.9958   73.4762    3.8517 C   0  0  1  0  0  0  0  0  0  0  0  0
   23.3344   72.1187    1.3834 C   0  0  1  0  0  0  0  0  0  0  0  0
   24.7975   73.5839    2.5578 C   0  0  1  0  0  0  0  0  0  0  0  0
   21.0172   72.4705    4.6760 H   0  0  0  0  0  0  0  0  0  0  0  0
   20.6183   71.4305    3.0434 H   0  0  0  0  0  0  0  0  0  0  0  0
   23.5052   74.6890    5.3302 H   0  0  0  0  0  0  0  0  0  0  0  0
   26.6522   74.9333    3.0487 O   0  0  0  0  0  0  0  0  0  0  0  0
   27.0119   72.6869    2.8945 O   0  0  0  0  0  0  0  0  0  0  0  0
   26.2622   73.6505    2.8452 C   0  0  0  0  0  0  0  0  0  0  0  0
  1  4  1  0
  1 24  1  0
  1  2  1  6
  1  3  2  0
 25 28  1  0
 25 24  1  0
 25 26  1  1
 25 27  2  0
  6 11  1  0
  6 12  1  0
 29 36  1  0
 29 37  1  0
  9  7  1  6
  7 13  1  0
 10  8  1  6
  8 14  1  0
  4  5  1  0
 36 28  1  1
 33 30  1  1
 30 38  1  0
 34 31  1  6
 31 39  1  0
 35 32  1  6
 32 40  1  0
 41 43  1  0
 15 19  2  0
 42 43  2  0
 16 22  2  0
 12 17  1  1
 17 19  1  0
 17 20  1  0
 18 19  1  0
 18 22  1  0
 18 23  1  0
  9 10  1  0
  9 11  1  0
 10 12  1  0
 11  5  1  1
 33 34  1  0
 33 35  1  0
 34 36  1  0
 35 37  1  0
 37 43  1  1
 20 21  2  0
 21 22  1  0
M  CHG  3   2  -1  26  -1  41  -1
M  END
>  <COMPND>  (57) 
    udp_gluA.pdb 

>  <AUTHOR>  (57) 
    GENERATED BY OPEN BABEL 3.1.1

>  <MASTER>  (57) 
        0    0    0    0    0    0    0    0   56    0   56    0

>  <minimizedAffinity>  (57) 
-7.58087

>  <CNNscore>  (57) 
0.6164382696

>  <CNNaffinity>  (57) 
4.3162908554

>  <CNN_VS>  (57) 
2.6607267857

>  <CNNaffinity_variance>  (57) 
0.1100101694

$$$$
58
     RDKit          3D

 43 45  0  0  0  0  0  0  0  0999 V2000
   22.3074   73.2542   -4.9033 P   0  0  2  0  0  0  0  0  0  0  0  0
   22.2990   74.8723   -4.9278 O   0  0  0  0  0  0  0  0  0  0  0  0
   23.3785   72.6135   -5.7364 O   0  0  0  0  0  0  0  0  0  0  0  0
   20.7869   72.8519   -5.2832 O   0  0  0  0  0  0  0  0  0  0  0  0
   20.4340   72.7583   -6.6511 C   0  0  0  0  0  0  0  0  0  0  0  0
   19.5492   70.6405   -5.9373 O   0  0  0  0  0  0  0  0  0  0  0  0
   19.7283   69.8071   -8.8122 O   0  0  0  0  0  0  0  0  0  0  0  0
   17.0809   70.3946   -8.5260 O   0  0  0  0  0  0  0  0  0  0  0  0
   19.3981   71.0815   -8.2597 C   0  0  1  0  0  0  0  0  0  0  0  0
   17.9993   71.0553   -7.6808 C   0  0  2  0  0  0  0  0  0  0  0  0
   20.2532   71.2909   -7.0175 C   0  0  1  0  0  0  0  0  0  0  0  0
   18.2155   70.3239   -6.3669 C   0  0  2  0  0  0  0  0  0  0  0  0
   19.1944   69.6508   -9.6073 H   0  0  0  0  0  0  0  0  0  0  0  0
   16.9776   70.8993   -9.3485 H   0  0  0  0  0  0  0  0  0  0  0  0
   16.7696   68.5485   -4.7135 O   0  0  0  0  0  0  0  0  0  0  0  0
   14.6837   72.0149   -2.5050 O   0  0  0  0  0  0  0  0  0  0  0  0
   17.2879   70.7355   -5.3516 N   0  0  0  0  0  0  0  0  0  0  0  0
   15.7313   70.2766   -3.6158 N   0  0  0  0  0  0  0  0  0  0  0  0
   16.6131   69.7632   -4.5760 C   0  0  0  0  0  0  0  0  0  0  0  0
   17.0557   72.0877   -5.1312 C   0  0  0  0  0  0  0  0  0  0  0  0
   16.2123   72.5618   -4.2122 C   0  0  0  0  0  0  0  0  0  0  0  0
   15.4667   71.6124   -3.3601 C   0  0  0  0  0  0  0  0  0  0  0  0
   15.2484   69.6189   -3.0650 H   0  0  0  0  0  0  0  0  0  0  0  0
   22.3893   72.9155   -3.3249 O   0  0  0  0  0  0  0  0  0  0  0  0
   22.6022   71.5128   -2.5499 P   0  0  2  0  0  0  0  0  0  0  0  0
   24.0875   71.0595   -3.0068 O   0  0  0  0  0  0  0  0  0  0  0  0
   21.5341   70.4925   -2.8187 O   0  0  0  0  0  0  0  0  0  0  0  0
   22.7610   71.9227   -0.9977 O   0  0  0  0  0  0  0  0  0  0  0  0
   24.1806   71.1015    0.7109 O   0  0  0  0  0  0  0  0  0  0  0  0
   20.7417   71.9801    2.8251 O   0  0  0  0  0  0  0  0  0  0  0  0
   20.5829   70.6855    0.2111 O   0  0  0  0  0  0  0  0  0  0  0  0
   23.0509   73.7374    2.9996 O   0  0  0  0  0  0  0  0  0  0  0  0
   21.7120   72.1405    1.7904 C   0  0  2  0  0  0  0  0  0  0  0  0
   21.7837   70.8629    0.9536 C   0  0  2  0  0  0  0  0  0  0  0  0
   23.0643   72.4215    2.4496 C   0  0  1  0  0  0  0  0  0  0  0  0
   22.9661   70.9091   -0.0152 C   0  0  1  0  0  0  0  0  0  0  0  0
   24.2060   72.3256    1.4417 C   0  0  1  0  0  0  0  0  0  0  0  0
   19.8740   71.8005    2.4300 H   0  0  0  0  0  0  0  0  0  0  0  0
   19.8284   70.6556    0.8196 H   0  0  0  0  0  0  0  0  0  0  0  0
   22.3286   73.8118    3.6427 H   0  0  0  0  0  0  0  0  0  0  0  0
   26.1754   71.1182    1.8481 O   0  0  0  0  0  0  0  0  0  0  0  0
   25.9687   73.1457    2.8706 O   0  0  0  0  0  0  0  0  0  0  0  0
   25.5262   72.2727    2.1391 C   0  0  0  0  0  0  0  0  0  0  0  0
  1  4  1  0
  1 24  1  0
  1  2  1  1
  1  3  2  0
 25 28  1  0
 25 24  1  0
 25 26  1  6
 25 27  2  0
  6 11  1  0
  6 12  1  0
 29 36  1  0
 29 37  1  0
  9  7  1  1
  7 13  1  0
 10  8  1  6
  8 14  1  0
  4  5  1  0
 36 28  1  6
 33 30  1  1
 30 38  1  0
 34 31  1  6
 31 39  1  0
 35 32  1  6
 32 40  1  0
 41 43  1  0
 15 19  2  0
 42 43  2  0
 16 22  2  0
 12 17  1  1
 17 19  1  0
 17 20  1  0
 18 19  1  0
 18 22  1  0
 18 23  1  0
  9 10  1  0
  9 11  1  0
 10 12  1  0
 11  5  1  1
 33 34  1  0
 33 35  1  0
 34 36  1  0
 35 37  1  0
 37 43  1  1
 20 21  2  0
 21 22  1  0
M  CHG  3   2  -1  26  -1  41  -1
M  END
>  <COMPND>  (58) 
    udp_gluA.pdb 

>  <AUTHOR>  (58) 
    GENERATED BY OPEN BABEL 3.1.1

>  <MASTER>  (58) 
        0    0    0    0    0    0    0    0   56    0   56    0

>  <minimizedAffinity>  (58) 
-7.79216

>  <CNNscore>  (58) 
0.5884768963

>  <CNNaffinity>  (58) 
4.3896193504

>  <CNN_VS>  (58) 
2.5831894875

>  <CNNaffinity_variance>  (58) 
0.1276248395

$$$$
59
     RDKit          3D

 43 45  0  0  0  0  0  0  0  0999 V2000
   23.5455   72.2966   -3.3972 P   0  0  2  0  0  0  0  0  0  0  0  0
   24.0704   70.7963   -3.0932 O   0  0  0  0  0  0  0  0  0  0  0  0
   24.5418   73.1914   -4.0744 O   0  0  0  0  0  0  0  0  0  0  0  0
   22.9959   72.8134   -1.9659 O   0  0  0  0  0  0  0  0  0  0  0  0
   23.1504   71.9714   -0.8382 C   0  0  0  0  0  0  0  0  0  0  0  0
   23.0481   72.1715    1.5549 O   0  0  0  0  0  0  0  0  0  0  0  0
   21.2490   74.5258    1.0950 O   0  0  0  0  0  0  0  0  0  0  0  0
   23.6457   75.7055    1.6432 O   0  0  0  0  0  0  0  0  0  0  0  0
   22.3792   74.0909    0.3388 C   0  0  1  0  0  0  0  0  0  0  0  0
   23.6602   74.4105    1.0799 C   0  0  2  0  0  0  0  0  0  0  0  0
   22.3844   72.5684    0.3353 C   0  0  1  0  0  0  0  0  0  0  0  0
   23.6973   73.3154    2.1322 C   0  0  2  0  0  0  0  0  0  0  0  0
   21.2244   75.4958    1.1115 H   0  0  0  0  0  0  0  0  0  0  0  0
   23.6223   76.3667    0.9331 H   0  0  0  0  0  0  0  0  0  0  0  0
   25.3740   74.8823    3.7784 O   0  0  0  0  0  0  0  0  0  0  0  0
   28.8192   71.8348    3.4819 O   0  0  0  0  0  0  0  0  0  0  0  0
   25.0371   72.9552    2.5012 N   0  0  0  0  0  0  0  0  0  0  0  0
   27.0887   73.3634    3.6283 N   0  0  0  0  0  0  0  0  0  0  0  0
   25.7950   73.8130    3.3329 C   0  0  0  0  0  0  0  0  0  0  0  0
   25.5864   71.7641    2.0423 C   0  0  0  0  0  0  0  0  0  0  0  0
   26.8209   71.3490    2.3325 C   0  0  0  0  0  0  0  0  0  0  0  0
   27.6791   72.1873    3.1952 C   0  0  0  0  0  0  0  0  0  0  0  0
   27.6362   73.9448    4.2041 H   0  0  0  0  0  0  0  0  0  0  0  0
   22.1881   72.0428   -4.2375 O   0  0  0  0  0  0  0  0  0  0  0  0
   21.5875   72.7950   -5.5364 P   0  0  2  0  0  0  0  0  0  0  0  0
   22.5480   72.2858   -6.7358 O   0  0  0  0  0  0  0  0  0  0  0  0
   21.5063   74.2880   -5.4007 O   0  0  0  0  0  0  0  0  0  0  0  0
   20.1730   72.0699   -5.8117 O   0  0  0  0  0  0  0  0  0  0  0  0
   19.3882   69.9487   -5.1089 O   0  0  0  0  0  0  0  0  0  0  0  0
   17.5045   70.3743   -8.7611 O   0  0  0  0  0  0  0  0  0  0  0  0
   20.2999   71.1584   -8.4364 O   0  0  0  0  0  0  0  0  0  0  0  0
   16.0076   70.7391   -6.2960 O   0  0  0  0  0  0  0  0  0  0  0  0
   18.0755   70.8171   -7.5299 C   0  0  2  0  0  0  0  0  0  0  0  0
   19.5510   70.4200   -7.4780 C   0  0  2  0  0  0  0  0  0  0  0  0
   17.3052   70.1539   -6.3859 C   0  0  1  0  0  0  0  0  0  0  0  0
   20.1365   70.6709   -6.0877 C   0  0  1  0  0  0  0  0  0  0  0  0
   18.0191   70.3429   -5.0505 C   0  0  1  0  0  0  0  0  0  0  0  0
   17.9781   70.7829   -9.5028 H   0  0  0  0  0  0  0  0  0  0  0  0
   19.9336   71.0041   -9.3209 H   0  0  0  0  0  0  0  0  0  0  0  0
   15.5426   70.6259   -7.1397 H   0  0  0  0  0  0  0  0  0  0  0  0
   16.2764   69.9161   -3.5398 O   0  0  0  0  0  0  0  0  0  0  0  0
   17.9672   68.3892   -3.6357 O   0  0  0  0  0  0  0  0  0  0  0  0
   17.4515   69.4311   -4.0119 C   0  0  0  0  0  0  0  0  0  0  0  0
  1  4  1  0
  1 24  1  0
  1  2  1  1
  1  3  2  0
 25 28  1  0
 25 24  1  0
 25 26  1  6
 25 27  2  0
  6 11  1  0
  6 12  1  0
 29 36  1  0
 29 37  1  0
  9  7  1  1
  7 13  1  0
 10  8  1  1
  8 14  1  0
  4  5  1  0
 36 28  1  1
 33 30  1  6
 30 38  1  0
 34 31  1  6
 31 39  1  0
 35 32  1  1
 32 40  1  0
 41 43  1  0
 15 19  2  0
 42 43  2  0
 16 22  2  0
 12 17  1  6
 17 19  1  0
 17 20  1  0
 18 19  1  0
 18 22  1  0
 18 23  1  0
  9 10  1  0
  9 11  1  0
 10 12  1  0
 11  5  1  6
 33 34  1  0
 33 35  1  0
 34 36  1  0
 35 37  1  0
 37 43  1  1
 20 21  2  0
 21 22  1  0
M  CHG  3   2  -1  26  -1  41  -1
M  END
>  <COMPND>  (59) 
    udp_gluA.pdb 

>  <AUTHOR>  (59) 
    GENERATED BY OPEN BABEL 3.1.1

>  <MASTER>  (59) 
        0    0    0    0    0    0    0    0   56    0   56    0

>  <minimizedAffinity>  (59) 
-7.23873

>  <CNNscore>  (59) 
0.5508052111

>  <CNNaffinity>  (59) 
4.3471555710

>  <CNN_VS>  (59) 
2.3944358826

>  <CNNaffinity_variance>  (59) 
0.1759030372

$$$$
60
     RDKit          3D

 43 45  0  0  0  0  0  0  0  0999 V2000
   22.9985   73.6057   -4.6639 P   0  0  2  0  0  0  0  0  0  0  0  0
   24.3073   74.5503   -4.5471 O   0  0  0  0  0  0  0  0  0  0  0  0
   23.1200   72.4727   -5.6404 O   0  0  0  0  0  0  0  0  0  0  0  0
   21.7916   74.6467   -4.9423 O   0  0  0  0  0  0  0  0  0  0  0  0
   20.4661   74.2358   -4.6618 C   0  0  0  0  0  0  0  0  0  0  0  0
   19.5048   72.5321   -6.0585 O   0  0  0  0  0  0  0  0  0  0  0  0
   18.0466   74.7543   -7.4466 O   0  0  0  0  0  0  0  0  0  0  0  0
   16.1323   73.7214   -5.8020 O   0  0  0  0  0  0  0  0  0  0  0  0
   18.3781   74.6156   -6.0648 C   0  0  1  0  0  0  0  0  0  0  0  0
   17.4827   73.5840   -5.4120 C   0  0  2  0  0  0  0  0  0  0  0  0
   19.7461   73.9533   -5.9741 C   0  0  1  0  0  0  0  0  0  0  0  0
   18.1003   72.2815   -5.8917 C   0  0  2  0  0  0  0  0  0  0  0  0
   17.1762   75.1752   -7.5300 H   0  0  0  0  0  0  0  0  0  0  0  0
   15.7850   74.5657   -5.4726 H   0  0  0  0  0  0  0  0  0  0  0  0
   17.1432   69.7093   -6.5583 O   0  0  0  0  0  0  0  0  0  0  0  0
   17.4693   68.2578   -2.1959 O   0  0  0  0  0  0  0  0  0  0  0  0
   17.9253   71.2124   -4.9497 N   0  0  0  0  0  0  0  0  0  0  0  0
   17.3056   68.9892   -4.3848 N   0  0  0  0  0  0  0  0  0  0  0  0
   17.4379   69.9584   -5.3878 C   0  0  0  0  0  0  0  0  0  0  0  0
   18.2365   71.4106   -3.6100 C   0  0  0  0  0  0  0  0  0  0  0  0
   18.1053   70.4770   -2.6656 C   0  0  0  0  0  0  0  0  0  0  0  0
   17.6014   69.1393   -3.0396 C   0  0  0  0  0  0  0  0  0  0  0  0
   16.9660   68.1086   -4.6653 H   0  0  0  0  0  0  0  0  0  0  0  0
   22.7411   73.1514   -3.1342 O   0  0  0  0  0  0  0  0  0  0  0  0
   22.8165   71.6973   -2.4317 P   0  0  2  0  0  0  0  0  0  0  0  0
   24.2475   71.1225   -2.9240 O   0  0  0  0  0  0  0  0  0  0  0  0
   21.6512   70.8027   -2.7412 O   0  0  0  0  0  0  0  0  0  0  0  0
   23.0217   72.0109   -0.8626 O   0  0  0  0  0  0  0  0  0  0  0  0
   24.3996   71.0407    0.8015 O   0  0  0  0  0  0  0  0  0  0  0  0
   20.9785   71.9136    2.9467 O   0  0  0  0  0  0  0  0  0  0  0  0
   20.7932   70.7820    0.2598 O   0  0  0  0  0  0  0  0  0  0  0  0
   23.3463   73.5750    3.2367 O   0  0  0  0  0  0  0  0  0  0  0  0
   21.9612   72.1004    1.9282 C   0  0  2  0  0  0  0  0  0  0  0  0
   21.9942   70.8728    1.0175 C   0  0  2  0  0  0  0  0  0  0  0  0
   23.3176   72.2942    2.6097 C   0  0  1  0  0  0  0  0  0  0  0  0
   23.1843   70.9344    0.0591 C   0  0  1  0  0  0  0  0  0  0  0  0
   24.4625   72.2179    1.6036 C   0  0  1  0  0  0  0  0  0  0  0  0
   20.1079   71.7883    2.5372 H   0  0  0  0  0  0  0  0  0  0  0  0
   20.0339   70.7428    0.8616 H   0  0  0  0  0  0  0  0  0  0  0  0
   22.6224   73.6367    3.8794 H   0  0  0  0  0  0  0  0  0  0  0  0
   26.1963   70.7887    2.2765 O   0  0  0  0  0  0  0  0  0  0  0  0
   26.3919   72.9925    2.8279 O   0  0  0  0  0  0  0  0  0  0  0  0
   25.7751   72.0774    2.3033 C   0  0  0  0  0  0  0  0  0  0  0  0
  1  4  1  0
  1 24  1  0
  1  2  1  1
  1  3  2  0
 25 28  1  0
 25 24  1  0
 25 26  1  6
 25 27  2  0
  6 11  1  0
  6 12  1  0
 29 36  1  0
 29 37  1  0
  9  7  1  6
  7 13  1  0
 10  8  1  6
  8 14  1  0
  4  5  1  0
 36 28  1  6
 33 30  1  1
 30 38  1  0
 34 31  1  6
 31 39  1  0
 35 32  1  6
 32 40  1  0
 41 43  1  0
 15 19  2  0
 42 43  2  0
 16 22  2  0
 12 17  1  1
 17 19  1  0
 17 20  1  0
 18 19  1  0
 18 22  1  0
 18 23  1  0
  9 10  1  0
  9 11  1  0
 10 12  1  0
 11  5  1  1
 33 34  1  0
 33 35  1  0
 34 36  1  0
 35 37  1  0
 37 43  1  1
 20 21  2  0
 21 22  1  0
M  CHG  3   2  -1  26  -1  41  -1
M  END
>  <COMPND>  (60) 
    udp_gluA.pdb 

>  <AUTHOR>  (60) 
    GENERATED BY OPEN BABEL 3.1.1

>  <MASTER>  (60) 
        0    0    0    0    0    0    0    0   56    0   56    0

>  <minimizedAffinity>  (60) 
-7.28190

>  <CNNscore>  (60) 
0.5458384752

>  <CNNaffinity>  (60) 
4.1572012901

>  <CNN_VS>  (60) 
2.2691605091

>  <CNNaffinity_variance>  (60) 
0.1221427768

$$$$
61
     RDKit          3D

 43 45  0  0  0  0  0  0  0  0999 V2000
   23.0470   71.6926   -2.7144 P   0  0  2  0  0  0  0  0  0  0  0  0
   23.2665   73.2676   -2.4145 O   0  0  0  0  0  0  0  0  0  0  0  0
   24.2682   70.9622   -3.1909 O   0  0  0  0  0  0  0  0  0  0  0  0
   21.7748   71.6609   -3.7136 O   0  0  0  0  0  0  0  0  0  0  0  0
   20.9290   70.5257   -3.6956 C   0  0  0  0  0  0  0  0  0  0  0  0
   18.9973   71.6183   -4.6189 O   0  0  0  0  0  0  0  0  0  0  0  0
   17.4419   70.3369   -2.3986 O   0  0  0  0  0  0  0  0  0  0  0  0
   16.8759   68.7296   -4.5275 O   0  0  0  0  0  0  0  0  0  0  0  0
   18.5477   69.8227   -3.1410 C   0  0  1  0  0  0  0  0  0  0  0  0
   18.1049   69.4252   -4.5332 C   0  0  2  0  0  0  0  0  0  0  0  0
   19.4991   70.9766   -3.4266 C   0  0  1  0  0  0  0  0  0  0  0  0
   18.0116   70.7715   -5.2308 C   0  0  2  0  0  0  0  0  0  0  0  0
   16.8200   69.6177   -2.2042 H   0  0  0  0  0  0  0  0  0  0  0  0
   16.9876   67.8795   -4.0726 H   0  0  0  0  0  0  0  0  0  0  0  0
   16.1036   70.0354   -7.1788 O   0  0  0  0  0  0  0  0  0  0  0  0
   19.1652   70.4527  -10.5988 O   0  0  0  0  0  0  0  0  0  0  0  0
   18.2831   70.6798   -6.6375 N   0  0  0  0  0  0  0  0  0  0  0  0
   17.6306   70.2430   -8.8802 N   0  0  0  0  0  0  0  0  0  0  0  0
   17.2542   70.3009   -7.5318 C   0  0  0  0  0  0  0  0  0  0  0  0
   19.5553   70.9649   -7.1183 C   0  0  0  0  0  0  0  0  0  0  0  0
   19.8989   70.9055   -8.4064 C   0  0  0  0  0  0  0  0  0  0  0  0
   18.8827   70.5167   -9.4062 C   0  0  0  0  0  0  0  0  0  0  0  0
   16.9316   69.9795   -9.5216 H   0  0  0  0  0  0  0  0  0  0  0  0
   22.4317   71.1410   -1.3252 O   0  0  0  0  0  0  0  0  0  0  0  0
   21.4432   71.8368   -0.2517 P   0  0  2  0  0  0  0  0  0  0  0  0
   20.6745   70.5773    0.4139 O   0  0  0  0  0  0  0  0  0  0  0  0
   20.5333   72.8778   -0.8369 O   0  0  0  0  0  0  0  0  0  0  0  0
   22.4197   72.3792    0.9123 O   0  0  0  0  0  0  0  0  0  0  0  0
   24.1981   71.4148    2.1437 O   0  0  0  0  0  0  0  0  0  0  0  0
   22.3053   73.6799    5.0342 O   0  0  0  0  0  0  0  0  0  0  0  0
   20.7457   72.1204    3.1184 O   0  0  0  0  0  0  0  0  0  0  0  0
   24.8071   74.5946    3.8701 O   0  0  0  0  0  0  0  0  0  0  0  0
   22.7474   73.3540    3.7165 C   0  0  2  0  0  0  0  0  0  0  0  0
   22.1533   72.0097    3.2952 C   0  0  2  0  0  0  0  0  0  0  0  0
   24.2757   73.2778    3.7358 C   0  0  1  0  0  0  0  0  0  0  0  0
   22.7820   71.5185    1.9906 C   0  0  1  0  0  0  0  0  0  0  0  0
   24.8190   72.6613    2.4500 C   0  0  1  0  0  0  0  0  0  0  0  0
   21.3367   73.7337    5.0464 H   0  0  0  0  0  0  0  0  0  0  0  0
   20.3403   72.4320    3.9424 H   0  0  0  0  0  0  0  0  0  0  0  0
   24.4688   74.9983    4.6846 H   0  0  0  0  0  0  0  0  0  0  0  0
   26.4517   70.9844    2.2949 O   0  0  0  0  0  0  0  0  0  0  0  0
   27.1441   73.0516    2.9631 O   0  0  0  0  0  0  0  0  0  0  0  0
   26.2577   72.2899    2.6065 C   0  0  0  0  0  0  0  0  0  0  0  0
  1  4  1  0
  1 24  1  0
  1  2  1  1
  1  3  2  0
 25 28  1  0
 25 24  1  0
 25 26  1  1
 25 27  2  0
  6 11  1  0
  6 12  1  0
 29 36  1  0
 29 37  1  0
  9  7  1  1
  7 13  1  0
 10  8  1  1
  8 14  1  0
  4  5  1  0
 36 28  1  6
 33 30  1  1
 30 38  1  0
 34 31  1  6
 31 39  1  0
 35 32  1  6
 32 40  1  0
 41 43  1  0
 15 19  2  0
 42 43  2  0
 16 22  2  0
 12 17  1  6
 17 19  1  0
 17 20  1  0
 18 19  1  0
 18 22  1  0
 18 23  1  0
  9 10  1  0
  9 11  1  0
 10 12  1  0
 11  5  1  6
 33 34  1  0
 33 35  1  0
 34 36  1  0
 35 37  1  0
 37 43  1  1
 20 21  2  0
 21 22  1  0
M  CHG  3   2  -1  26  -1  41  -1
M  END
>  <COMPND>  (61) 
    udp_gluA.pdb 

>  <AUTHOR>  (61) 
    GENERATED BY OPEN BABEL 3.1.1

>  <MASTER>  (61) 
        0    0    0    0    0    0    0    0   56    0   56    0

>  <minimizedAffinity>  (61) 
-8.21363

>  <CNNscore>  (61) 
0.9316771030

>  <CNNaffinity>  (61) 
4.7771706581

>  <CNN_VS>  (61) 
4.4507803917

>  <CNNaffinity_variance>  (61) 
0.0314984396

$$$$
62
     RDKit          3D

 43 45  0  0  0  0  0  0  0  0999 V2000
   23.1733   72.0381   -3.1218 P   0  0  2  0  0  0  0  0  0  0  0  0
   23.8501   73.3859   -3.7086 O   0  0  0  0  0  0  0  0  0  0  0  0
   24.0894   70.8523   -3.0416 O   0  0  0  0  0  0  0  0  0  0  0  0
   21.8481   71.8420   -4.0292 O   0  0  0  0  0  0  0  0  0  0  0  0
   21.0372   70.7034   -3.8045 C   0  0  0  0  0  0  0  0  0  0  0  0
   19.0809   71.7571   -4.7211 O   0  0  0  0  0  0  0  0  0  0  0  0
   17.5805   70.5463   -2.4245 O   0  0  0  0  0  0  0  0  0  0  0  0
   16.9745   68.8655   -4.4845 O   0  0  0  0  0  0  0  0  0  0  0  0
   18.6719   70.0111   -3.1735 C   0  0  1  0  0  0  0  0  0  0  0  0
   18.2001   69.5650   -4.5412 C   0  0  2  0  0  0  0  0  0  0  0  0
   19.6117   71.1580   -3.5191 C   0  0  1  0  0  0  0  0  0  0  0  0
   18.0855   70.8864   -5.2818 C   0  0  2  0  0  0  0  0  0  0  0  0
   16.9663   69.8319   -2.1920 H   0  0  0  0  0  0  0  0  0  0  0  0
   17.1000   68.0318   -4.0037 H   0  0  0  0  0  0  0  0  0  0  0  0
   16.1339   70.0933   -7.1629 O   0  0  0  0  0  0  0  0  0  0  0  0
   19.1216   70.3887  -10.6601 O   0  0  0  0  0  0  0  0  0  0  0  0
   18.3263   70.7479   -6.6902 N   0  0  0  0  0  0  0  0  0  0  0  0
   17.6241   70.2402   -8.9028 N   0  0  0  0  0  0  0  0  0  0  0  0
   17.2772   70.3433   -7.5492 C   0  0  0  0  0  0  0  0  0  0  0  0
   19.5884   71.0131   -7.2075 C   0  0  0  0  0  0  0  0  0  0  0  0
   19.9039   70.9104   -8.5000 C   0  0  0  0  0  0  0  0  0  0  0  0
   18.8652   70.4925   -9.4644 C   0  0  0  0  0  0  0  0  0  0  0  0
   16.9107   69.9581   -9.5200 H   0  0  0  0  0  0  0  0  0  0  0  0
   22.5728   72.5223   -1.7014 O   0  0  0  0  0  0  0  0  0  0  0  0
   22.3217   71.7138   -0.3241 P   0  0  2  0  0  0  0  0  0  0  0  0
   23.7824   71.1071    0.0202 O   0  0  0  0  0  0  0  0  0  0  0  0
   21.2287   70.6876   -0.4028 O   0  0  0  0  0  0  0  0  0  0  0  0
   22.0850   72.8602    0.7861 O   0  0  0  0  0  0  0  0  0  0  0  0
   22.0563   75.2172    0.5568 O   0  0  0  0  0  0  0  0  0  0  0  0
   23.5624   74.7624    4.3769 O   0  0  0  0  0  0  0  0  0  0  0  0
   24.4679   73.0233    2.2113 O   0  0  0  0  0  0  0  0  0  0  0  0
   20.8051   75.5958    3.9851 O   0  0  0  0  0  0  0  0  0  0  0  0
   22.7714   74.4206    3.2387 C   0  0  2  0  0  0  0  0  0  0  0  0
   23.6822   74.1958    2.0314 C   0  0  2  0  0  0  0  0  0  0  0  0
   21.8060   75.5770    2.9691 C   0  0  1  0  0  0  0  0  0  0  0  0
   22.8636   74.0547    0.7473 C   0  0  1  0  0  0  0  0  0  0  0  0
   21.1221   75.4271    1.6133 C   0  0  1  0  0  0  0  0  0  0  0  0
   24.1838   74.0420    4.5672 H   0  0  0  0  0  0  0  0  0  0  0  0
   24.9897   73.1058    3.0245 H   0  0  0  0  0  0  0  0  0  0  0  0
   21.2273   75.6906    4.8532 H   0  0  0  0  0  0  0  0  0  0  0  0
   19.1805   76.7403    1.6993 O   0  0  0  0  0  0  0  0  0  0  0  0
   20.9588   77.5871    0.5505 O   0  0  0  0  0  0  0  0  0  0  0  0
   20.4470   76.6995    1.2163 C   0  0  0  0  0  0  0  0  0  0  0  0
  1  4  1  0
  1 24  1  0
  1  2  1  6
  1  3  2  0
 25 28  1  0
 25 24  1  0
 25 26  1  1
 25 27  2  0
  6 11  1  0
  6 12  1  0
 29 36  1  0
 29 37  1  0
  9  7  1  1
  7 13  1  0
 10  8  1  1
  8 14  1  0
  4  5  1  0
 36 28  1  1
 33 30  1  1
 30 38  1  0
 34 31  1  1
 31 39  1  0
 35 32  1  1
 32 40  1  0
 41 43  1  0
 15 19  2  0
 42 43  2  0
 16 22  2  0
 12 17  1  6
 17 19  1  0
 17 20  1  0
 18 19  1  0
 18 22  1  0
 18 23  1  0
  9 10  1  0
  9 11  1  0
 10 12  1  0
 11  5  1  6
 33 34  1  0
 33 35  1  0
 34 36  1  0
 35 37  1  0
 37 43  1  6
 20 21  2  0
 21 22  1  0
M  CHG  3   2  -1  26  -1  41  -1
M  END
>  <COMPND>  (62) 
    udp_gluA.pdb 

>  <AUTHOR>  (62) 
    GENERATED BY OPEN BABEL 3.1.1

>  <MASTER>  (62) 
        0    0    0    0    0    0    0    0   56    0   56    0

>  <minimizedAffinity>  (62) 
-6.52775

>  <CNNscore>  (62) 
0.9107521176

>  <CNNaffinity>  (62) 
4.8129420280

>  <CNN_VS>  (62) 
4.3833971024

>  <CNNaffinity_variance>  (62) 
0.0606015250

$$$$
63
     RDKit          3D

 43 45  0  0  0  0  0  0  0  0999 V2000
   21.8613   72.6624   -5.3208 P   0  0  2  0  0  0  0  0  0  0  0  0
   20.9930   74.0023   -5.5851 O   0  0  0  0  0  0  0  0  0  0  0  0
   22.9518   72.4068   -6.3194 O   0  0  0  0  0  0  0  0  0  0  0  0
   20.7465   71.4977   -5.1842 O   0  0  0  0  0  0  0  0  0  0  0  0
   20.2489   71.1858   -3.8960 C   0  0  0  0  0  0  0  0  0  0  0  0
   18.3754   72.0551   -5.1255 O   0  0  0  0  0  0  0  0  0  0  0  0
   16.6576   70.9344   -2.9381 O   0  0  0  0  0  0  0  0  0  0  0  0
   16.3956   69.0735   -4.9141 O   0  0  0  0  0  0  0  0  0  0  0  0
   17.8585   70.4083   -3.5033 C   0  0  1  0  0  0  0  0  0  0  0  0
   17.5840   69.8357   -4.8777 C   0  0  2  0  0  0  0  0  0  0  0  0
   18.7788   71.5782   -3.8236 C   0  0  1  0  0  0  0  0  0  0  0  0
   17.5007   71.0898   -5.7310 C   0  0  2  0  0  0  0  0  0  0  0  0
   16.0536   70.2054   -2.7252 H   0  0  0  0  0  0  0  0  0  0  0  0
   16.4991   68.2864   -4.3559 H   0  0  0  0  0  0  0  0  0  0  0  0
   15.8289   70.0896   -7.7757 O   0  0  0  0  0  0  0  0  0  0  0  0
   19.2273   70.2522  -10.8851 O   0  0  0  0  0  0  0  0  0  0  0  0
   17.9228   70.8612   -7.0839 N   0  0  0  0  0  0  0  0  0  0  0  0
   17.5234   70.1705   -9.3222 N   0  0  0  0  0  0  0  0  0  0  0  0
   17.0041   70.3559   -8.0341 C   0  0  0  0  0  0  0  0  0  0  0  0
   19.2321   71.1379   -7.4581 C   0  0  0  0  0  0  0  0  0  0  0  0
   19.7124   70.9561   -8.6898 C   0  0  0  0  0  0  0  0  0  0  0  0
   18.8179   70.4306   -9.7419 C   0  0  0  0  0  0  0  0  0  0  0  0
   16.9031   69.8177  -10.0005 H   0  0  0  0  0  0  0  0  0  0  0  0
   22.3730   72.8558   -3.7997 O   0  0  0  0  0  0  0  0  0  0  0  0
   23.8146   72.5808   -3.1218 P   0  0  2  0  0  0  0  0  0  0  0  0
   24.8017   73.5717   -3.9367 O   0  0  0  0  0  0  0  0  0  0  0  0
   24.2364   71.1400   -3.1346 O   0  0  0  0  0  0  0  0  0  0  0  0
   23.7063   73.2336   -1.6505 O   0  0  0  0  0  0  0  0  0  0  0  0
   22.2608   72.3593    0.0094 O   0  0  0  0  0  0  0  0  0  0  0  0
   22.8872   76.2056    1.3813 O   0  0  0  0  0  0  0  0  0  0  0  0
   22.4383   75.7019   -1.4611 O   0  0  0  0  0  0  0  0  0  0  0  0
   24.2305   73.9648    2.6561 O   0  0  0  0  0  0  0  0  0  0  0  0
   23.2255   74.9868    0.7194 C   0  0  2  0  0  0  0  0  0  0  0  0
   22.2480   74.7401   -0.4299 C   0  0  2  0  0  0  0  0  0  0  0  0
   23.1399   73.8529    1.7436 C   0  0  1  0  0  0  0  0  0  0  0  0
   22.4336   73.3393   -1.0149 C   0  0  1  0  0  0  0  0  0  0  0  0
   23.2070   72.4861    1.0685 C   0  0  1  0  0  0  0  0  0  0  0  0
   22.9347   76.9406    0.7498 H   0  0  0  0  0  0  0  0  0  0  0  0
   22.3222   76.5931   -1.0969 H   0  0  0  0  0  0  0  0  0  0  0  0
   24.1996   74.8305    3.0924 H   0  0  0  0  0  0  0  0  0  0  0  0
   21.5117   71.0357    1.7923 O   0  0  0  0  0  0  0  0  0  0  0  0
   23.5151   70.9162    2.8745 O   0  0  0  0  0  0  0  0  0  0  0  0
   22.7970   71.4059    2.0158 C   0  0  0  0  0  0  0  0  0  0  0  0
  1  4  1  0
  1 24  1  0
  1  2  1  6
  1  3  2  0
 25 28  1  0
 25 24  1  0
 25 26  1  6
 25 27  2  0
  6 11  1  0
  6 12  1  0
 29 36  1  0
 29 37  1  0
  9  7  1  6
  7 13  1  0
 10  8  1  1
  8 14  1  0
  4  5  1  0
 36 28  1  1
 33 30  1  1
 30 38  1  0
 34 31  1  6
 31 39  1  0
 35 32  1  1
 32 40  1  0
 41 43  1  0
 15 19  2  0
 42 43  2  0
 16 22  2  0
 12 17  1  6
 17 19  1  0
 17 20  1  0
 18 19  1  0
 18 22  1  0
 18 23  1  0
  9 10  1  0
  9 11  1  0
 10 12  1  0
 11  5  1  6
 33 34  1  0
 33 35  1  0
 34 36  1  0
 35 37  1  0
 37 43  1  1
 20 21  2  0
 21 22  1  0
M  CHG  3   2  -1  26  -1  41  -1
M  END
>  <COMPND>  (63) 
    udp_gluA.pdb 

>  <AUTHOR>  (63) 
    GENERATED BY OPEN BABEL 3.1.1

>  <MASTER>  (63) 
        0    0    0    0    0    0    0    0   56    0   56    0

>  <minimizedAffinity>  (63) 
-7.69881

>  <CNNscore>  (63) 
0.8876429796

>  <CNNaffinity>  (63) 
4.6333074570

>  <CNN_VS>  (63) 
4.1127228737

>  <CNNaffinity_variance>  (63) 
0.0640007779

$$$$
64
     RDKit          3D

 43 45  0  0  0  0  0  0  0  0999 V2000
   23.1703   72.0593   -3.0652 P   0  0  2  0  0  0  0  0  0  0  0  0
   23.7855   73.4366   -3.6513 O   0  0  0  0  0  0  0  0  0  0  0  0
   24.1279   70.9047   -3.0237 O   0  0  0  0  0  0  0  0  0  0  0  0
   21.8295   71.8289   -3.9411 O   0  0  0  0  0  0  0  0  0  0  0  0
   21.0491   70.6743   -3.6918 C   0  0  0  0  0  0  0  0  0  0  0  0
   19.0770   71.7122   -4.5924 O   0  0  0  0  0  0  0  0  0  0  0  0
   17.5920   70.4283   -2.3258 O   0  0  0  0  0  0  0  0  0  0  0  0
   17.0211   68.7800   -4.4218 O   0  0  0  0  0  0  0  0  0  0  0  0
   18.6946   69.9278   -3.0823 C   0  0  1  0  0  0  0  0  0  0  0  0
   18.2343   69.5018   -4.4604 C   0  0  2  0  0  0  0  0  0  0  0  0
   19.6150   71.0979   -3.4014 C   0  0  1  0  0  0  0  0  0  0  0  0
   18.0985   70.8361   -5.1740 C   0  0  2  0  0  0  0  0  0  0  0  0
   16.9898   69.6986   -2.1100 H   0  0  0  0  0  0  0  0  0  0  0  0
   17.1599   67.9389   -3.9578 H   0  0  0  0  0  0  0  0  0  0  0  0
   16.1712   70.0306   -7.0748 O   0  0  0  0  0  0  0  0  0  0  0  0
   19.1573   70.4685  -10.5583 O   0  0  0  0  0  0  0  0  0  0  0  0
   18.3454   70.7309   -6.5842 N   0  0  0  0  0  0  0  0  0  0  0  0
   17.6606   70.2485   -8.8078 N   0  0  0  0  0  0  0  0  0  0  0  0
   17.3086   70.3167   -7.4534 C   0  0  0  0  0  0  0  0  0  0  0  0
   19.6016   71.0376   -7.0932 C   0  0  0  0  0  0  0  0  0  0  0  0
   19.9220   70.9679   -8.3867 C   0  0  0  0  0  0  0  0  0  0  0  0
   18.8961   70.5427   -9.3615 C   0  0  0  0  0  0  0  0  0  0  0  0
   16.9558   69.9605   -9.4321 H   0  0  0  0  0  0  0  0  0  0  0  0
   22.5905   72.5052   -1.6237 O   0  0  0  0  0  0  0  0  0  0  0  0
   22.5367   71.7194   -0.2119 P   0  0  2  0  0  0  0  0  0  0  0  0
   23.9838   70.9979   -0.1349 O   0  0  0  0  0  0  0  0  0  0  0  0
   21.3710   70.7837   -0.0719 O   0  0  0  0  0  0  0  0  0  0  0  0
   22.6009   72.8809    0.9057 O   0  0  0  0  0  0  0  0  0  0  0  0
   21.0098   73.5542    2.5257 O   0  0  0  0  0  0  0  0  0  0  0  0
   22.8400   77.1413    1.6033 O   0  0  0  0  0  0  0  0  0  0  0  0
   22.1663   75.2370   -0.5071 O   0  0  0  0  0  0  0  0  0  0  0  0
   23.4637   75.7838    4.0971 O   0  0  0  0  0  0  0  0  0  0  0  0
   22.7630   75.7285    1.7926 C   0  0  2  0  0  0  0  0  0  0  0  0
   21.7207   75.1408    0.8409 C   0  0  2  0  0  0  0  0  0  0  0  0
   22.3634   75.4672    3.2465 C   0  0  1  0  0  0  0  0  0  0  0  0
   21.4446   73.6731    1.1706 C   0  0  1  0  0  0  0  0  0  0  0  0
   21.9822   74.0059    3.4656 C   0  0  1  0  0  0  0  0  0  0  0  0
   23.0925   77.3316    0.6861 H   0  0  0  0  0  0  0  0  0  0  0  0
   22.3436   76.1656   -0.7230 H   0  0  0  0  0  0  0  0  0  0  0  0
   23.7164   76.7112    3.9673 H   0  0  0  0  0  0  0  0  0  0  0  0
   22.1433   73.3388    5.7084 O   0  0  0  0  0  0  0  0  0  0  0  0
   20.1142   74.0911    4.9902 O   0  0  0  0  0  0  0  0  0  0  0  0
   21.2885   73.8295    4.7770 C   0  0  0  0  0  0  0  0  0  0  0  0
  1  4  1  0
  1 24  1  0
  1  2  1  6
  1  3  2  0
 25 28  1  0
 25 24  1  0
 25 26  1  1
 25 27  2  0
  6 11  1  0
  6 12  1  0
 29 36  1  0
 29 37  1  0
  9  7  1  1
  7 13  1  0
 10  8  1  1
  8 14  1  0
  4  5  1  0
 36 28  1  1
 33 30  1  1
 30 38  1  0
 34 31  1  6
 31 39  1  0
 35 32  1  1
 32 40  1  0
 41 43  1  0
 15 19  2  0
 42 43  2  0
 16 22  2  0
 12 17  1  6
 17 19  1  0
 17 20  1  0
 18 19  1  0
 18 22  1  0
 18 23  1  0
  9 10  1  0
  9 11  1  0
 10 12  1  0
 11  5  1  6
 33 34  1  0
 33 35  1  0
 34 36  1  0
 35 37  1  0
 37 43  1  1
 20 21  2  0
 21 22  1  0
M  CHG  3   2  -1  26  -1  41  -1
M  END
>  <COMPND>  (64) 
    udp_gluA.pdb 

>  <AUTHOR>  (64) 
    GENERATED BY OPEN BABEL 3.1.1

>  <MASTER>  (64) 
        0    0    0    0    0    0    0    0   56    0   56    0

>  <minimizedAffinity>  (64) 
-6.71659

>  <CNNscore>  (64) 
0.8713686466

>  <CNNaffinity>  (64) 
4.6898260117

>  <CNN_VS>  (64) 
4.0865674019

>  <CNNaffinity_variance>  (64) 
0.0506611988

$$$$
65
     RDKit          3D

 43 45  0  0  0  0  0  0  0  0999 V2000
   20.6312   71.8771   -1.1063 P   0  0  2  0  0  0  0  0  0  0  0  0
   20.7330   70.6486   -0.0579 O   0  0  0  0  0  0  0  0  0  0  0  0
   19.6913   72.9760   -0.7053 O   0  0  0  0  0  0  0  0  0  0  0  0
   20.3081   71.1568   -2.5187 O   0  0  0  0  0  0  0  0  0  0  0  0
   19.7918   71.9437   -3.5764 C   0  0  0  0  0  0  0  0  0  0  0  0
   17.7910   72.1677   -4.8895 O   0  0  0  0  0  0  0  0  0  0  0  0
   16.4249   70.5874   -2.7382 O   0  0  0  0  0  0  0  0  0  0  0  0
   16.8386   68.7176   -4.6795 O   0  0  0  0  0  0  0  0  0  0  0  0
   17.7519   70.4591   -3.2494 C   0  0  1  0  0  0  0  0  0  0  0  0
   17.7258   69.8148   -4.6192 C   0  0  2  0  0  0  0  0  0  0  0  0
   18.2712   71.8554   -3.5639 C   0  0  1  0  0  0  0  0  0  0  0  0
   17.2879   70.9702   -5.5030 C   0  0  2  0  0  0  0  0  0  0  0  0
   16.0718   69.7079   -2.5299 H   0  0  0  0  0  0  0  0  0  0  0  0
   17.1612   68.0087   -4.1004 H   0  0  0  0  0  0  0  0  0  0  0  0
   15.7934   70.1386   -7.7505 O   0  0  0  0  0  0  0  0  0  0  0  0
   19.4102   70.6285  -10.5652 O   0  0  0  0  0  0  0  0  0  0  0  0
   17.8141   70.8713   -6.8349 N   0  0  0  0  0  0  0  0  0  0  0  0
   17.5965   70.3824   -9.1501 N   0  0  0  0  0  0  0  0  0  0  0  0
   16.9791   70.4428   -7.8938 C   0  0  0  0  0  0  0  0  0  0  0  0
   19.1419   71.1982   -7.0821 C   0  0  0  0  0  0  0  0  0  0  0  0
   19.7162   71.1358   -8.2851 C   0  0  0  0  0  0  0  0  0  0  0  0
   18.9132   70.6966   -9.4451 C   0  0  0  0  0  0  0  0  0  0  0  0
   17.0357   70.0848   -9.9026 H   0  0  0  0  0  0  0  0  0  0  0  0
   22.1713   72.3372   -1.2770 O   0  0  0  0  0  0  0  0  0  0  0  0
   23.3337   72.5818   -0.1803 P   0  0  2  0  0  0  0  0  0  0  0  0
   23.9907   73.9865   -0.6447 O   0  0  0  0  0  0  0  0  0  0  0  0
   24.3137   71.4509   -0.0590 O   0  0  0  0  0  0  0  0  0  0  0  0
   22.5440   72.9324    1.1820 O   0  0  0  0  0  0  0  0  0  0  0  0
   24.0439   72.6647    2.9952 O   0  0  0  0  0  0  0  0  0  0  0  0
   20.5735   73.7898    4.9340 O   0  0  0  0  0  0  0  0  0  0  0  0
   20.4833   71.8798    2.7253 O   0  0  0  0  0  0  0  0  0  0  0  0
   22.7416   75.6971    4.5986 O   0  0  0  0  0  0  0  0  0  0  0  0
   21.5157   73.7582    3.8619 C   0  0  2  0  0  0  0  0  0  0  0  0
   21.6758   72.3217    3.3636 C   0  0  2  0  0  0  0  0  0  0  0  0
   22.8501   74.2904    4.3893 C   0  0  1  0  0  0  0  0  0  0  0  0
   22.8391   72.2113    2.3769 C   0  0  1  0  0  0  0  0  0  0  0  0
   23.9833   74.0303    3.4010 C   0  0  1  0  0  0  0  0  0  0  0  0
   19.7176   73.4559    4.6223 H   0  0  0  0  0  0  0  0  0  0  0  0
   19.7410   71.9473    3.3456 H   0  0  0  0  0  0  0  0  0  0  0  0
   22.0237   75.8763    5.2257 H   0  0  0  0  0  0  0  0  0  0  0  0
   26.2759   73.5348    3.4139 O   0  0  0  0  0  0  0  0  0  0  0  0
   25.5123   74.9670    5.0154 O   0  0  0  0  0  0  0  0  0  0  0  0
   25.3122   74.2471    4.0486 C   0  0  0  0  0  0  0  0  0  0  0  0
  1  4  1  0
  1 24  1  0
  1  2  1  1
  1  3  2  0
 25 28  1  0
 25 24  1  0
 25 26  1  6
 25 27  2  0
  6 11  1  0
  6 12  1  0
 29 36  1  0
 29 37  1  0
  9  7  1  6
  7 13  1  0
 10  8  1  1
  8 14  1  0
  4  5  1  0
 36 28  1  6
 33 30  1  1
 30 38  1  0
 34 31  1  6
 31 39  1  0
 35 32  1  6
 32 40  1  0
 41 43  1  0
 15 19  2  0
 42 43  2  0
 16 22  2  0
 12 17  1  6
 17 19  1  0
 17 20  1  0
 18 19  1  0
 18 22  1  0
 18 23  1  0
  9 10  1  0
  9 11  1  0
 10 12  1  0
 11  5  1  6
 33 34  1  0
 33 35  1  0
 34 36  1  0
 35 37  1  0
 37 43  1  1
 20 21  2  0
 21 22  1  0
M  CHG  3   2  -1  26  -1  41  -1
M  END
>  <COMPND>  (65) 
    udp_gluA.pdb 

>  <AUTHOR>  (65) 
    GENERATED BY OPEN BABEL 3.1.1

>  <MASTER>  (65) 
        0    0    0    0    0    0    0    0   56    0   56    0

>  <minimizedAffinity>  (65) 
-7.06050

>  <CNNscore>  (65) 
0.8609958291

>  <CNNaffinity>  (65) 
4.4561052322

>  <CNN_VS>  (65) 
3.8366880417

>  <CNNaffinity_variance>  (65) 
0.0401453301

$$$$
66
     RDKit          3D

 43 45  0  0  0  0  0  0  0  0999 V2000
   22.8671   73.2802   -4.5636 P   0  0  2  0  0  0  0  0  0  0  0  0
   22.3035   73.2067   -6.0788 O   0  0  0  0  0  0  0  0  0  0  0  0
   24.1483   72.5356   -4.3273 O   0  0  0  0  0  0  0  0  0  0  0  0
   21.6085   72.8179   -3.6580 O   0  0  0  0  0  0  0  0  0  0  0  0
   21.0033   71.5671   -3.9298 C   0  0  0  0  0  0  0  0  0  0  0  0
   18.8039   71.9883   -4.8032 O   0  0  0  0  0  0  0  0  0  0  0  0
   17.7680   70.6156   -2.3468 O   0  0  0  0  0  0  0  0  0  0  0  0
   17.5587   68.6723   -4.2483 O   0  0  0  0  0  0  0  0  0  0  0  0
   18.9345   70.3285   -3.1184 C   0  0  1  0  0  0  0  0  0  0  0  0
   18.5494   69.6637   -4.4230 C   0  0  2  0  0  0  0  0  0  0  0  0
   19.5196   71.6508   -3.5952 C   0  0  1  0  0  0  0  0  0  0  0  0
   18.0580   70.8430   -5.2449 C   0  0  2  0  0  0  0  0  0  0  0  0
   17.3764   69.7858   -2.0310 H   0  0  0  0  0  0  0  0  0  0  0  0
   17.9205   67.9435   -3.7193 H   0  0  0  0  0  0  0  0  0  0  0  0
   15.9965   70.6778   -7.1684 O   0  0  0  0  0  0  0  0  0  0  0  0
   19.0075   70.1350  -10.6156 O   0  0  0  0  0  0  0  0  0  0  0  0
   18.2750   70.6587   -6.6520 N   0  0  0  0  0  0  0  0  0  0  0  0
   17.4981   70.4066   -8.8834 N   0  0  0  0  0  0  0  0  0  0  0  0
   17.1703   70.5887   -7.5334 C   0  0  0  0  0  0  0  0  0  0  0  0
   19.5694   70.5511   -7.1458 C   0  0  0  0  0  0  0  0  0  0  0  0
   19.8661   70.3779   -8.4353 C   0  0  0  0  0  0  0  0  0  0  0  0
   18.7695   70.2935   -9.4221 C   0  0  0  0  0  0  0  0  0  0  0  0
   16.7456   70.3528   -9.5159 H   0  0  0  0  0  0  0  0  0  0  0  0
   22.9510   74.8702   -4.2844 O   0  0  0  0  0  0  0  0  0  0  0  0
   21.8236   75.9243   -3.8034 P   0  0  2  0  0  0  0  0  0  0  0  0
   22.5889   77.3483   -3.8874 O   0  0  0  0  0  0  0  0  0  0  0  0
   21.2297   75.6199   -2.4586 O   0  0  0  0  0  0  0  0  0  0  0  0
   20.7570   75.9633   -5.0131 O   0  0  0  0  0  0  0  0  0  0  0  0
   18.6079   76.5347   -4.1983 O   0  0  0  0  0  0  0  0  0  0  0  0
   17.8282   75.8095   -8.1901 O   0  0  0  0  0  0  0  0  0  0  0  0
   19.6198   74.0569   -6.6890 O   0  0  0  0  0  0  0  0  0  0  0  0
   17.9378   78.5395   -7.1973 O   0  0  0  0  0  0  0  0  0  0  0  0
   18.6073   76.2286   -7.0697 C   0  0  2  0  0  0  0  0  0  0  0  0
   18.7905   75.0557   -6.1062 C   0  0  2  0  0  0  0  0  0  0  0  0
   17.8639   77.3739   -6.3786 C   0  0  1  0  0  0  0  0  0  0  0  0
   19.4193   75.5204   -4.7919 C   0  0  1  0  0  0  0  0  0  0  0  0
   18.4755   77.6941   -5.0177 C   0  0  1  0  0  0  0  0  0  0  0  0
   18.2810   75.0819   -8.6450 H   0  0  0  0  0  0  0  0  0  0  0  0
   19.2270   73.7577   -7.5235 H   0  0  0  0  0  0  0  0  0  0  0  0
   17.5519   78.3491   -8.0666 H   0  0  0  0  0  0  0  0  0  0  0  0
   16.8424   77.8287   -3.3396 O   0  0  0  0  0  0  0  0  0  0  0  0
   17.4760   79.7807   -4.3333 O   0  0  0  0  0  0  0  0  0  0  0  0
   17.5638   78.5674   -4.2187 C   0  0  0  0  0  0  0  0  0  0  0  0
  1  4  1  0
  1 24  1  0
  1  2  1  6
  1  3  2  0
 25 28  1  0
 25 24  1  0
 25 26  1  1
 25 27  2  0
  6 11  1  0
  6 12  1  0
 29 36  1  0
 29 37  1  0
  9  7  1  1
  7 13  1  0
 10  8  1  1
  8 14  1  0
  4  5  1  0
 36 28  1  6
 33 30  1  6
 30 38  1  0
 34 31  1  6
 31 39  1  0
 35 32  1  6
 32 40  1  0
 41 43  1  0
 15 19  2  0
 42 43  2  0
 16 22  2  0
 12 17  1  6
 17 19  1  0
 17 20  1  0
 18 19  1  0
 18 22  1  0
 18 23  1  0
  9 10  1  0
  9 11  1  0
 10 12  1  0
 11  5  1  6
 33 34  1  0
 33 35  1  0
 34 36  1  0
 35 37  1  0
 37 43  1  1
 20 21  2  0
 21 22  1  0
M  CHG  3   2  -1  26  -1  41  -1
M  END
>  <COMPND>  (66) 
    udp_gluA.pdb 

>  <AUTHOR>  (66) 
    GENERATED BY OPEN BABEL 3.1.1

>  <MASTER>  (66) 
        0    0    0    0    0    0    0    0   56    0   56    0

>  <minimizedAffinity>  (66) 
-5.51650

>  <CNNscore>  (66) 
0.8586587906

>  <CNNaffinity>  (66) 
4.6880331039

>  <CNN_VS>  (66) 
4.0254206657

>  <CNNaffinity_variance>  (66) 
0.0321003869

$$$$
67
     RDKit          3D

 43 45  0  0  0  0  0  0  0  0999 V2000
   21.5789   74.2309   -3.0193 P   0  0  2  0  0  0  0  0  0  0  0  0
   21.6285   74.7380   -1.4833 O   0  0  0  0  0  0  0  0  0  0  0  0
   21.7416   75.3107   -4.0486 O   0  0  0  0  0  0  0  0  0  0  0  0
   20.2046   73.3812   -3.1037 O   0  0  0  0  0  0  0  0  0  0  0  0
   19.4290   73.4654   -4.2851 C   0  0  0  0  0  0  0  0  0  0  0  0
   17.4617   72.5584   -5.3267 O   0  0  0  0  0  0  0  0  0  0  0  0
   16.9668   71.1419   -2.7305 O   0  0  0  0  0  0  0  0  0  0  0  0
   18.0358   69.1753   -4.2880 O   0  0  0  0  0  0  0  0  0  0  0  0
   18.2044   71.4259   -3.3833 C   0  0  1  0  0  0  0  0  0  0  0  0
   18.3898   70.5118   -4.5759 C   0  0  2  0  0  0  0  0  0  0  0  0
   18.0839   72.7921   -4.0447 C   0  0  1  0  0  0  0  0  0  0  0  0
   17.4750   71.1498   -5.6075 C   0  0  2  0  0  0  0  0  0  0  0  0
   17.0195   70.2736   -2.3005 H   0  0  0  0  0  0  0  0  0  0  0  0
   18.6477   68.8141   -3.6268 H   0  0  0  0  0  0  0  0  0  0  0  0
   15.8666   70.1850   -7.7190 O   0  0  0  0  0  0  0  0  0  0  0  0
   19.3564   70.4065  -10.7217 O   0  0  0  0  0  0  0  0  0  0  0  0
   17.9377   70.9458   -6.9510 N   0  0  0  0  0  0  0  0  0  0  0  0
   17.6065   70.2953   -9.2123 N   0  0  0  0  0  0  0  0  0  0  0  0
   17.0486   70.4570   -7.9372 C   0  0  0  0  0  0  0  0  0  0  0  0
   19.2573   71.2304   -7.2808 C   0  0  0  0  0  0  0  0  0  0  0  0
   19.7745   71.0713   -8.5006 C   0  0  0  0  0  0  0  0  0  0  0  0
   18.9126   70.5640   -9.5883 C   0  0  0  0  0  0  0  0  0  0  0  0
   17.0073   69.9542   -9.9151 H   0  0  0  0  0  0  0  0  0  0  0  0
   22.7179   73.0847   -3.0601 O   0  0  0  0  0  0  0  0  0  0  0  0
   22.7997   71.6432   -2.3327 P   0  0  2  0  0  0  0  0  0  0  0  0
   24.2155   71.0497   -2.8461 O   0  0  0  0  0  0  0  0  0  0  0  0
   21.6220   70.7512   -2.5995 O   0  0  0  0  0  0  0  0  0  0  0  0
   23.0420   71.9841   -0.7747 O   0  0  0  0  0  0  0  0  0  0  0  0
   24.4403   71.0601    0.8987 O   0  0  0  0  0  0  0  0  0  0  0  0
   21.0124   71.9097    3.0425 O   0  0  0  0  0  0  0  0  0  0  0  0
   20.8368   70.7365    0.3728 O   0  0  0  0  0  0  0  0  0  0  0  0
   23.3544   73.6124    3.3005 O   0  0  0  0  0  0  0  0  0  0  0  0
   21.9889   72.0973    2.0181 C   0  0  2  0  0  0  0  0  0  0  0  0
   22.0385   70.8573    1.1251 C   0  0  2  0  0  0  0  0  0  0  0  0
   23.3442   72.3223    2.6922 C   0  0  1  0  0  0  0  0  0  0  0  0
   23.2245   70.9239    0.1619 C   0  0  1  0  0  0  0  0  0  0  0  0
   24.4869   72.2496    1.6835 C   0  0  1  0  0  0  0  0  0  0  0  0
   20.1427   71.7647    2.6377 H   0  0  0  0  0  0  0  0  0  0  0  0
   20.0800   70.6940    0.9776 H   0  0  0  0  0  0  0  0  0  0  0  0
   22.6317   73.6719    3.9447 H   0  0  0  0  0  0  0  0  0  0  0  0
   26.3612   70.9232    2.1626 O   0  0  0  0  0  0  0  0  0  0  0  0
   26.3162   73.0211    3.0547 O   0  0  0  0  0  0  0  0  0  0  0  0
   25.8038   72.1400    2.3808 C   0  0  0  0  0  0  0  0  0  0  0  0
  1  4  1  0
  1 24  1  0
  1  2  1  1
  1  3  2  0
 25 28  1  0
 25 24  1  0
 25 26  1  6
 25 27  2  0
  6 11  1  0
  6 12  1  0
 29 36  1  0
 29 37  1  0
  9  7  1  6
  7 13  1  0
 10  8  1  1
  8 14  1  0
  4  5  1  0
 36 28  1  6
 33 30  1  1
 30 38  1  0
 34 31  1  6
 31 39  1  0
 35 32  1  6
 32 40  1  0
 41 43  1  0
 15 19  2  0
 42 43  2  0
 16 22  2  0
 12 17  1  6
 17 19  1  0
 17 20  1  0
 18 19  1  0
 18 22  1  0
 18 23  1  0
  9 10  1  0
  9 11  1  0
 10 12  1  0
 11  5  1  6
 33 34  1  0
 33 35  1  0
 34 36  1  0
 35 37  1  0
 37 43  1  1
 20 21  2  0
 21 22  1  0
M  CHG  3   2  -1  26  -1  41  -1
M  END
>  <COMPND>  (67) 
    udp_gluA.pdb 

>  <AUTHOR>  (67) 
    GENERATED BY OPEN BABEL 3.1.1

>  <MASTER>  (67) 
        0    0    0    0    0    0    0    0   56    0   56    0

>  <minimizedAffinity>  (67) 
-7.85138

>  <CNNscore>  (67) 
0.8573012948

>  <CNNaffinity>  (67) 
4.6021599770

>  <CNN_VS>  (67) 
3.9454376698

>  <CNNaffinity_variance>  (67) 
0.0215311609

$$$$
68
     RDKit          3D

 43 45  0  0  0  0  0  0  0  0999 V2000
   22.7689   72.8161   -4.2413 P   0  0  2  0  0  0  0  0  0  0  0  0
   23.1821   73.7646   -5.4856 O   0  0  0  0  0  0  0  0  0  0  0  0
   23.8650   71.9275   -3.7306 O   0  0  0  0  0  0  0  0  0  0  0  0
   21.4338   72.0603   -4.7554 O   0  0  0  0  0  0  0  0  0  0  0  0
   20.8552   71.0702   -3.9252 C   0  0  0  0  0  0  0  0  0  0  0  0
   18.8479   71.9156   -4.9421 O   0  0  0  0  0  0  0  0  0  0  0  0
   17.3786   70.6532   -2.6532 O   0  0  0  0  0  0  0  0  0  0  0  0
   16.9954   68.8581   -4.6699 O   0  0  0  0  0  0  0  0  0  0  0  0
   18.5385   70.1923   -3.3466 C   0  0  1  0  0  0  0  0  0  0  0  0
   18.1563   69.6612   -4.7120 C   0  0  2  0  0  0  0  0  0  0  0  0
   19.3861   71.4060   -3.7027 C   0  0  1  0  0  0  0  0  0  0  0  0
   17.9530   70.9421   -5.5031 C   0  0  2  0  0  0  0  0  0  0  0  0
   16.8213   69.8952   -2.4152 H   0  0  0  0  0  0  0  0  0  0  0  0
   17.1761   68.0552   -4.1555 H   0  0  0  0  0  0  0  0  0  0  0  0
   16.1248   69.9796   -7.4286 O   0  0  0  0  0  0  0  0  0  0  0  0
   19.2200   70.3574  -10.8229 O   0  0  0  0  0  0  0  0  0  0  0  0
   18.2548   70.7790   -6.8971 N   0  0  0  0  0  0  0  0  0  0  0  0
   17.6684   70.1677   -9.1171 N   0  0  0  0  0  0  0  0  0  0  0  0
   17.2650   70.2876   -7.7808 C   0  0  0  0  0  0  0  0  0  0  0  0
   19.5176   71.1055   -7.3761 C   0  0  0  0  0  0  0  0  0  0  0  0
   19.8874   70.9860   -8.6527 C   0  0  0  0  0  0  0  0  0  0  0  0
   18.9127   70.4790   -9.6409 C   0  0  0  0  0  0  0  0  0  0  0  0
   16.9970   69.8257   -9.7509 H   0  0  0  0  0  0  0  0  0  0  0  0
   22.1956   73.8691   -3.1571 O   0  0  0  0  0  0  0  0  0  0  0  0
   22.9197   74.6226   -1.9236 P   0  0  2  0  0  0  0  0  0  0  0  0
   22.1359   76.0366   -1.8425 O   0  0  0  0  0  0  0  0  0  0  0  0
   24.4088   74.7484   -2.0674 O   0  0  0  0  0  0  0  0  0  0  0  0
   22.4396   73.8152   -0.6121 O   0  0  0  0  0  0  0  0  0  0  0  0
   23.4915   73.6517    1.5036 O   0  0  0  0  0  0  0  0  0  0  0  0
   21.5696   70.0044    1.2362 O   0  0  0  0  0  0  0  0  0  0  0  0
   22.9539   71.1222   -1.0808 O   0  0  0  0  0  0  0  0  0  0  0  0
   20.4940   72.0990    2.9412 O   0  0  0  0  0  0  0  0  0  0  0  0
   21.7508   71.4018    1.0074 C   0  0  2  0  0  0  0  0  0  0  0  0
   23.0557   71.6305    0.2443 C   0  0  2  0  0  0  0  0  0  0  0  0
   21.8000   72.1013    2.3676 C   0  0  1  0  0  0  0  0  0  0  0  0
   23.3992   73.1194    0.1816 C   0  0  1  0  0  0  0  0  0  0  0  0
   22.2715   73.5465    2.2341 C   0  0  1  0  0  0  0  0  0  0  0  0
   21.5354   69.5390    0.3856 H   0  0  0  0  0  0  0  0  0  0  0  0
   22.7358   70.1779   -1.0486 H   0  0  0  0  0  0  0  0  0  0  0  0
   20.1822   71.1850    3.0314 H   0  0  0  0  0  0  0  0  0  0  0  0
   22.7188   73.1292    4.4984 O   0  0  0  0  0  0  0  0  0  0  0  0
   22.8210   75.2975    3.8004 O   0  0  0  0  0  0  0  0  0  0  0  0
   22.6300   74.1130    3.5693 C   0  0  0  0  0  0  0  0  0  0  0  0
  1  4  1  0
  1 24  1  0
  1  2  1  6
  1  3  2  0
 25 28  1  0
 25 24  1  0
 25 26  1  1
 25 27  2  0
  6 11  1  0
  6 12  1  0
 29 36  1  0
 29 37  1  0
  9  7  1  1
  7 13  1  0
 10  8  1  1
  8 14  1  0
  4  5  1  0
 36 28  1  6
 33 30  1  1
 30 38  1  0
 34 31  1  6
 31 39  1  0
 35 32  1  6
 32 40  1  0
 41 43  1  0
 15 19  2  0
 42 43  2  0
 16 22  2  0
 12 17  1  6
 17 19  1  0
 17 20  1  0
 18 19  1  0
 18 22  1  0
 18 23  1  0
  9 10  1  0
  9 11  1  0
 10 12  1  0
 11  5  1  6
 33 34  1  0
 33 35  1  0
 34 36  1  0
 35 37  1  0
 37 43  1  1
 20 21  2  0
 21 22  1  0
M  CHG  3   2  -1  26  -1  41  -1
M  END
>  <COMPND>  (68) 
    udp_gluA.pdb 

>  <AUTHOR>  (68) 
    GENERATED BY OPEN BABEL 3.1.1

>  <MASTER>  (68) 
        0    0    0    0    0    0    0    0   56    0   56    0

>  <minimizedAffinity>  (68) 
-7.67630

>  <CNNscore>  (68) 
0.8489589095

>  <CNNaffinity>  (68) 
4.6527791023

>  <CNN_VS>  (68) 
3.9500181675

>  <CNNaffinity_variance>  (68) 
0.0263903588

$$$$
69
     RDKit          3D

 43 45  0  0  0  0  0  0  0  0999 V2000
   23.5413   72.7198   -3.6460 P   0  0  2  0  0  0  0  0  0  0  0  0
   24.0693   71.2463   -3.2348 O   0  0  0  0  0  0  0  0  0  0  0  0
   24.5305   73.5598   -4.3993 O   0  0  0  0  0  0  0  0  0  0  0  0
   23.0068   73.3440   -2.2522 O   0  0  0  0  0  0  0  0  0  0  0  0
   22.0482   74.3847   -2.3009 C   0  0  0  0  0  0  0  0  0  0  0  0
   21.1432   72.7427   -0.7969 O   0  0  0  0  0  0  0  0  0  0  0  0
   19.1151   74.8198   -0.0458 O   0  0  0  0  0  0  0  0  0  0  0  0
   20.8884   74.9432    2.0221 O   0  0  0  0  0  0  0  0  0  0  0  0
   20.4945   74.9818   -0.3769 C   0  0  1  0  0  0  0  0  0  0  0  0
   21.3670   74.5089    0.7664 C   0  0  2  0  0  0  0  0  0  0  0  0
   20.8352   73.9811   -1.4727 C   0  0  1  0  0  0  0  0  0  0  0  0
   21.3048   72.9994    0.6072 C   0  0  2  0  0  0  0  0  0  0  0  0
   18.8739   75.4488    0.6526 H   0  0  0  0  0  0  0  0  0  0  0  0
   20.9490   75.9105    2.0743 H   0  0  0  0  0  0  0  0  0  0  0  0
   21.4855   70.2530    1.2407 O   0  0  0  0  0  0  0  0  0  0  0  0
   25.9424   70.6170    2.3579 O   0  0  0  0  0  0  0  0  0  0  0  0
   22.5003   72.3502    1.0659 N   0  0  0  0  0  0  0  0  0  0  0  0
   23.7049   70.4371    1.7975 N   0  0  0  0  0  0  0  0  0  0  0  0
   22.4844   70.9656    1.3568 C   0  0  0  0  0  0  0  0  0  0  0  0
   23.6710   73.0824    1.2217 C   0  0  0  0  0  0  0  0  0  0  0  0
   24.8267   72.5647    1.6426 C   0  0  0  0  0  0  0  0  0  0  0  0
   24.8952   71.1252    1.9687 C   0  0  0  0  0  0  0  0  0  0  0  0
   23.7180   69.4755    2.0082 H   0  0  0  0  0  0  0  0  0  0  0  0
   22.1751   72.4043   -4.4503 O   0  0  0  0  0  0  0  0  0  0  0  0
   21.5411   73.0841   -5.7731 P   0  0  2  0  0  0  0  0  0  0  0  0
   22.5258   72.5815   -6.9554 O   0  0  0  0  0  0  0  0  0  0  0  0
   21.3893   74.5752   -5.6866 O   0  0  0  0  0  0  0  0  0  0  0  0
   20.1627   72.2843   -6.0236 O   0  0  0  0  0  0  0  0  0  0  0  0
   19.5570   70.1080   -5.3122 O   0  0  0  0  0  0  0  0  0  0  0  0
   17.4316   70.4620   -8.8371 O   0  0  0  0  0  0  0  0  0  0  0  0
   20.1867   71.4184   -8.6667 O   0  0  0  0  0  0  0  0  0  0  0  0
   16.0675   70.6971   -6.2808 O   0  0  0  0  0  0  0  0  0  0  0  0
   18.0475   70.9236   -7.6348 C   0  0  2  0  0  0  0  0  0  0  0  0
   19.5455   70.6207   -7.6782 C   0  0  2  0  0  0  0  0  0  0  0  0
   17.3915   70.1972   -6.4584 C   0  0  1  0  0  0  0  0  0  0  0  0
   20.1975   70.8896   -6.3212 C   0  0  1  0  0  0  0  0  0  0  0  0
   18.1720   70.4132   -5.1651 C   0  0  1  0  0  0  0  0  0  0  0  0
   17.8326   70.9100   -9.5986 H   0  0  0  0  0  0  0  0  0  0  0  0
   19.7778   71.2530   -9.5303 H   0  0  0  0  0  0  0  0  0  0  0  0
   15.5601   70.5659   -7.0970 H   0  0  0  0  0  0  0  0  0  0  0  0
   16.7727   68.6196   -4.5936 O   0  0  0  0  0  0  0  0  0  0  0  0
   18.1599   69.4154   -2.9683 O   0  0  0  0  0  0  0  0  0  0  0  0
   17.7271   69.4530   -4.1103 C   0  0  0  0  0  0  0  0  0  0  0  0
  1  4  1  0
  1 24  1  0
  1  2  1  1
  1  3  2  0
 25 28  1  0
 25 24  1  0
 25 26  1  6
 25 27  2  0
  6 11  1  0
  6 12  1  0
 29 36  1  0
 29 37  1  0
  9  7  1  1
  7 13  1  0
 10  8  1  1
  8 14  1  0
  4  5  1  0
 36 28  1  1
 33 30  1  6
 30 38  1  0
 34 31  1  6
 31 39  1  0
 35 32  1  1
 32 40  1  0
 41 43  1  0
 15 19  2  0
 42 43  2  0
 16 22  2  0
 12 17  1  6
 17 19  1  0
 17 20  1  0
 18 19  1  0
 18 22  1  0
 18 23  1  0
  9 10  1  0
  9 11  1  0
 10 12  1  0
 11  5  1  1
 33 34  1  0
 33 35  1  0
 34 36  1  0
 35 37  1  0
 37 43  1  1
 20 21  2  0
 21 22  1  0
M  CHG  3   2  -1  26  -1  41  -1
M  END
>  <COMPND>  (69) 
    udp_gluA.pdb 

>  <AUTHOR>  (69) 
    GENERATED BY OPEN BABEL 3.1.1

>  <MASTER>  (69) 
        0    0    0    0    0    0    0    0   56    0   56    0

>  <minimizedAffinity>  (69) 
-7.77150

>  <CNNscore>  (69) 
0.7763305902

>  <CNNaffinity>  (69) 
4.6483383179

>  <CNN_VS>  (69) 
3.6086473465

>  <CNNaffinity_variance>  (69) 
0.0557115860

$$$$
70
     RDKit          3D

 43 45  0  0  0  0  0  0  0  0999 V2000
   22.9613   71.6450   -2.2839 P   0  0  2  0  0  0  0  0  0  0  0  0
   24.1922   70.9128   -3.0372 O   0  0  0  0  0  0  0  0  0  0  0  0
   23.1767   71.9030   -0.8214 O   0  0  0  0  0  0  0  0  0  0  0  0
   21.6794   70.7301   -2.6547 O   0  0  0  0  0  0  0  0  0  0  0  0
   21.0224   70.9548   -3.8885 C   0  0  0  0  0  0  0  0  0  0  0  0
   19.0215   71.8961   -4.8310 O   0  0  0  0  0  0  0  0  0  0  0  0
   17.5718   70.6595   -2.5157 O   0  0  0  0  0  0  0  0  0  0  0  0
   17.0545   68.9123   -4.5444 O   0  0  0  0  0  0  0  0  0  0  0  0
   18.6903   70.1627   -3.2510 C   0  0  1  0  0  0  0  0  0  0  0  0
   18.2455   69.6683   -4.6111 C   0  0  2  0  0  0  0  0  0  0  0  0
   19.5757   71.3463   -3.6161 C   0  0  1  0  0  0  0  0  0  0  0  0
   18.0709   70.9683   -5.3776 C   0  0  2  0  0  0  0  0  0  0  0  0
   16.9914   69.9212   -2.2712 H   0  0  0  0  0  0  0  0  0  0  0  0
   17.2177   68.0950   -4.0471 H   0  0  0  0  0  0  0  0  0  0  0  0
   16.1580   70.0740   -7.2531 O   0  0  0  0  0  0  0  0  0  0  0  0
   19.1505   70.4157  -10.7420 O   0  0  0  0  0  0  0  0  0  0  0  0
   18.3234   70.8143   -6.7824 N   0  0  0  0  0  0  0  0  0  0  0  0
   17.6506   70.2441   -8.9888 N   0  0  0  0  0  0  0  0  0  0  0  0
   17.2936   70.3580   -7.6388 C   0  0  0  0  0  0  0  0  0  0  0  0
   19.5779   71.1153   -7.2987 C   0  0  0  0  0  0  0  0  0  0  0  0
   19.9031   71.0019   -8.5879 C   0  0  0  0  0  0  0  0  0  0  0  0
   18.8847   70.5308   -9.5494 C   0  0  0  0  0  0  0  0  0  0  0  0
   16.9507   69.9262   -9.6041 H   0  0  0  0  0  0  0  0  0  0  0  0
   22.7293   72.9736   -3.1749 O   0  0  0  0  0  0  0  0  0  0  0  0
   23.6322   74.3027   -3.3538 P   0  0  2  0  0  0  0  0  0  0  0  0
   24.9907   73.7387   -4.0298 O   0  0  0  0  0  0  0  0  0  0  0  0
   23.8477   75.0761   -2.0853 O   0  0  0  0  0  0  0  0  0  0  0  0
   22.9071   75.1348   -4.5303 O   0  0  0  0  0  0  0  0  0  0  0  0
   20.8673   75.5330   -5.6660 O   0  0  0  0  0  0  0  0  0  0  0  0
   23.2164   73.9660   -8.6817 O   0  0  0  0  0  0  0  0  0  0  0  0
   23.2767   72.8039   -6.0021 O   0  0  0  0  0  0  0  0  0  0  0  0
   22.6753   76.8207   -8.5874 O   0  0  0  0  0  0  0  0  0  0  0  0
   22.9484   74.6961   -7.4845 C   0  0  2  0  0  0  0  0  0  0  0  0
   22.3247   73.7640   -6.4454 C   0  0  2  0  0  0  0  0  0  0  0  0
   21.9818   75.8314   -7.8293 C   0  0  1  0  0  0  0  0  0  0  0  0
   21.8143   74.5531   -5.2389 C   0  0  1  0  0  0  0  0  0  0  0  0
   21.4201   76.4864   -6.5708 C   0  0  1  0  0  0  0  0  0  0  0  0
   23.8287   73.2391   -8.4870 H   0  0  0  0  0  0  0  0  0  0  0  0
   23.6050   72.2997   -6.7626 H   0  0  0  0  0  0  0  0  0  0  0  0
   23.0380   76.4168   -9.3913 H   0  0  0  0  0  0  0  0  0  0  0  0
   19.8951   77.2041   -8.2020 O   0  0  0  0  0  0  0  0  0  0  0  0
   19.6812   78.0954   -6.1142 O   0  0  0  0  0  0  0  0  0  0  0  0
   20.2491   77.3533   -6.9015 C   0  0  0  0  0  0  0  0  0  0  0  0
  1  4  1  0
  1 24  1  0
  1  2  1  6
  1  3  2  0
 25 28  1  0
 25 24  1  0
 25 26  1  6
 25 27  2  0
  6 11  1  0
  6 12  1  0
 29 36  1  0
 29 37  1  0
  9  7  1  1
  7 13  1  0
 10  8  1  1
  8 14  1  0
  4  5  1  0
 36 28  1  6
 33 30  1  6
 30 38  1  0
 34 31  1  1
 31 39  1  0
 35 32  1  1
 32 40  1  0
 41 43  1  0
 15 19  2  0
 42 43  2  0
 16 22  2  0
 12 17  1  6
 17 19  1  0
 17 20  1  0
 18 19  1  0
 18 22  1  0
 18 23  1  0
  9 10  1  0
  9 11  1  0
 10 12  1  0
 11  5  1  6
 33 34  1  0
 33 35  1  0
 34 36  1  0
 35 37  1  0
 37 43  1  6
 20 21  2  0
 21 22  1  0
M  CHG  3   2  -1  26  -1  41  -1
M  END
>  <COMPND>  (70) 
    udp_gluA.pdb 

>  <AUTHOR>  (70) 
    GENERATED BY OPEN BABEL 3.1.1

>  <MASTER>  (70) 
        0    0    0    0    0    0    0    0   56    0   56    0

>  <minimizedAffinity>  (70) 
-7.30944

>  <CNNscore>  (70) 
0.7454956770

>  <CNNaffinity>  (70) 
4.5632700920

>  <CNN_VS>  (70) 
3.4018981457

>  <CNNaffinity_variance>  (70) 
0.3828637004

$$$$
71
     RDKit          3D

 43 45  0  0  0  0  0  0  0  0999 V2000
   23.4714   73.7293   -4.0290 P   0  0  2  0  0  0  0  0  0  0  0  0
   24.2822   72.3377   -4.1866 O   0  0  0  0  0  0  0  0  0  0  0  0
   24.1479   74.9279   -4.6268 O   0  0  0  0  0  0  0  0  0  0  0  0
   23.1561   73.8180   -2.4445 O   0  0  0  0  0  0  0  0  0  0  0  0
   21.8314   73.5810   -2.0044 C   0  0  0  0  0  0  0  0  0  0  0  0
   22.9433   71.6761   -1.0490 O   0  0  0  0  0  0  0  0  0  0  0  0
   20.2085   70.5113   -0.6550 O   0  0  0  0  0  0  0  0  0  0  0  0
   20.8263   71.4367    1.8346 O   0  0  0  0  0  0  0  0  0  0  0  0
   20.6358   71.8696   -0.5505 C   0  0  1  0  0  0  0  0  0  0  0  0
   21.4247   72.0742    0.7254 C   0  0  2  0  0  0  0  0  0  0  0  0
   21.6913   72.1136   -1.6203 C   0  0  1  0  0  0  0  0  0  0  0  0
   22.7722   71.4738    0.3628 C   0  0  2  0  0  0  0  0  0  0  0  0
   19.5337   70.3315    0.0188 H   0  0  0  0  0  0  0  0  0  0  0  0
   19.9716   71.8550    2.0256 H   0  0  0  0  0  0  0  0  0  0  0  0
   24.6838   70.0930    1.9170 O   0  0  0  0  0  0  0  0  0  0  0  0
   26.8947   73.9917    2.9920 O   0  0  0  0  0  0  0  0  0  0  0  0
   23.8580   72.1033    1.0596 N   0  0  0  0  0  0  0  0  0  0  0  0
   25.7825   72.0362    2.4517 N   0  0  0  0  0  0  0  0  0  0  0  0
   24.7629   71.3185    1.8128 C   0  0  0  0  0  0  0  0  0  0  0  0
   24.0193   73.4818    0.9918 C   0  0  0  0  0  0  0  0  0  0  0  0
   24.9963   74.1518    1.6062 C   0  0  0  0  0  0  0  0  0  0  0  0
   25.9835   73.4065    2.4144 C   0  0  0  0  0  0  0  0  0  0  0  0
   26.4236   71.5116    2.9838 H   0  0  0  0  0  0  0  0  0  0  0  0
   22.0277   73.3825   -4.6680 O   0  0  0  0  0  0  0  0  0  0  0  0
   21.4720   73.5321   -6.1787 P   0  0  2  0  0  0  0  0  0  0  0  0
   22.5994   72.7798   -7.0637 O   0  0  0  0  0  0  0  0  0  0  0  0
   21.2002   74.9480   -6.5975 O   0  0  0  0  0  0  0  0  0  0  0  0
   20.1881   72.5574   -6.2410 O   0  0  0  0  0  0  0  0  0  0  0  0
   19.8221   70.3671   -5.4177 O   0  0  0  0  0  0  0  0  0  0  0  0
   17.6503   70.3180   -8.9318 O   0  0  0  0  0  0  0  0  0  0  0  0
   20.2887   71.5689   -8.8389 O   0  0  0  0  0  0  0  0  0  0  0  0
   16.2840   70.5335   -6.3749 O   0  0  0  0  0  0  0  0  0  0  0  0
   18.2205   70.9015   -7.7603 C   0  0  2  0  0  0  0  0  0  0  0  0
   19.7420   70.7577   -7.8056 C   0  0  2  0  0  0  0  0  0  0  0  0
   17.6527   70.1688   -6.5427 C   0  0  1  0  0  0  0  0  0  0  0  0
   20.3696   71.1613   -6.4707 C   0  0  1  0  0  0  0  0  0  0  0  0
   18.4133   70.5303   -5.2702 C   0  0  1  0  0  0  0  0  0  0  0  0
   17.9967   70.7677   -9.7186 H   0  0  0  0  0  0  0  0  0  0  0  0
   19.8946   71.3184   -9.6887 H   0  0  0  0  0  0  0  0  0  0  0  0
   15.7887   70.3088   -7.1780 H   0  0  0  0  0  0  0  0  0  0  0  0
   18.8117   69.8601   -3.0580 O   0  0  0  0  0  0  0  0  0  0  0  0
   17.2596   68.6790   -4.2392 O   0  0  0  0  0  0  0  0  0  0  0  0
   18.0795   69.5819   -4.1650 C   0  0  0  0  0  0  0  0  0  0  0  0
  1  4  1  0
  1 24  1  0
  1  2  1  1
  1  3  2  0
 25 28  1  0
 25 24  1  0
 25 26  1  6
 25 27  2  0
  6 11  1  0
  6 12  1  0
 29 36  1  0
 29 37  1  0
  9  7  1  1
  7 13  1  0
 10  8  1  1
  8 14  1  0
  4  5  1  0
 36 28  1  1
 33 30  1  6
 30 38  1  0
 34 31  1  6
 31 39  1  0
 35 32  1  1
 32 40  1  0
 41 43  1  0
 15 19  2  0
 42 43  2  0
 16 22  2  0
 12 17  1  1
 17 19  1  0
 17 20  1  0
 18 19  1  0
 18 22  1  0
 18 23  1  0
  9 10  1  0
  9 11  1  0
 10 12  1  0
 11  5  1  1
 33 34  1  0
 33 35  1  0
 34 36  1  0
 35 37  1  0
 37 43  1  1
 20 21  2  0
 21 22  1  0
M  CHG  3   2  -1  26  -1  41  -1
M  END
>  <COMPND>  (71) 
    udp_gluA.pdb 

>  <AUTHOR>  (71) 
    GENERATED BY OPEN BABEL 3.1.1

>  <MASTER>  (71) 
        0    0    0    0    0    0    0    0   56    0   56    0

>  <minimizedAffinity>  (71) 
-7.75614

>  <CNNscore>  (71) 
0.7351766825

>  <CNNaffinity>  (71) 
4.5043416023

>  <CNN_VS>  (71) 
3.3114869595

>  <CNNaffinity_variance>  (71) 
0.1051456332

$$$$
72
     RDKit          3D

 43 45  0  0  0  0  0  0  0  0999 V2000
   19.6316   74.9282   -4.3792 P   0  0  2  0  0  0  0  0  0  0  0  0
   19.4851   76.5125   -4.0835 O   0  0  0  0  0  0  0  0  0  0  0  0
   18.3404   74.2111   -4.6443 O   0  0  0  0  0  0  0  0  0  0  0  0
   20.4968   74.3779   -3.1276 O   0  0  0  0  0  0  0  0  0  0  0  0
   19.8108   73.9744   -1.9567 C   0  0  0  0  0  0  0  0  0  0  0  0
   19.3043   71.9147   -0.8258 O   0  0  0  0  0  0  0  0  0  0  0  0
   21.7667   70.8087   -2.1316 O   0  0  0  0  0  0  0  0  0  0  0  0
   19.7654   69.8114   -3.6924 O   0  0  0  0  0  0  0  0  0  0  0  0
   20.8125   71.7391   -2.6439 C   0  0  1  0  0  0  0  0  0  0  0  0
   19.5287   71.0251   -3.0103 C   0  0  2  0  0  0  0  0  0  0  0  0
   20.3638   72.6322   -1.4953 C   0  0  1  0  0  0  0  0  0  0  0  0
   18.8851   70.8156   -1.6502 C   0  0  2  0  0  0  0  0  0  0  0  0
   22.0681   70.2270   -2.8474 H   0  0  0  0  0  0  0  0  0  0  0  0
   20.1754   69.9983   -4.5520 H   0  0  0  0  0  0  0  0  0  0  0  0
   17.3314   68.5091   -2.1425 O   0  0  0  0  0  0  0  0  0  0  0  0
   13.3911   70.8870   -1.8904 O   0  0  0  0  0  0  0  0  0  0  0  0
   17.4512   70.8035   -1.7185 N   0  0  0  0  0  0  0  0  0  0  0  0
   15.3704   69.6958   -2.0175 N   0  0  0  0  0  0  0  0  0  0  0  0
   16.7669   69.5912   -1.9713 C   0  0  0  0  0  0  0  0  0  0  0  0
   16.7381   71.9819   -1.5345 C   0  0  0  0  0  0  0  0  0  0  0  0
   15.4072   72.0659   -1.5813 C   0  0  0  0  0  0  0  0  0  0  0  0
   14.6167   70.8449   -1.8414 C   0  0  0  0  0  0  0  0  0  0  0  0
   14.8722   68.8652   -2.1942 H   0  0  0  0  0  0  0  0  0  0  0  0
   20.6898   74.8833   -5.6002 O   0  0  0  0  0  0  0  0  0  0  0  0
   21.2623   73.6421   -6.4635 P   0  0  2  0  0  0  0  0  0  0  0  0
   22.0546   72.7595   -5.3619 O   0  0  0  0  0  0  0  0  0  0  0  0
   22.0938   74.0463   -7.6464 O   0  0  0  0  0  0  0  0  0  0  0  0
   19.9601   72.7630   -6.8296 O   0  0  0  0  0  0  0  0  0  0  0  0
   19.0325   70.6878   -6.1646 O   0  0  0  0  0  0  0  0  0  0  0  0
   18.5809   70.5341  -10.2683 O   0  0  0  0  0  0  0  0  0  0  0  0
   21.0491   71.5578   -9.0874 O   0  0  0  0  0  0  0  0  0  0  0  0
   16.2868   71.0767   -8.5672 O   0  0  0  0  0  0  0  0  0  0  0  0
   18.6576   71.1616   -8.9883 C   0  0  2  0  0  0  0  0  0  0  0  0
   20.0254   70.8848   -8.3638 C   0  0  2  0  0  0  0  0  0  0  0  0
   17.5450   70.5835   -8.1109 C   0  0  1  0  0  0  0  0  0  0  0  0
   20.0634   71.3423   -6.9050 C   0  0  1  0  0  0  0  0  0  0  0  0
   17.7243   70.9828   -6.6490 C   0  0  1  0  0  0  0  0  0  0  0  0
   19.2787   70.8858  -10.8433 H   0  0  0  0  0  0  0  0  0  0  0  0
   21.0305   71.2725  -10.0140 H   0  0  0  0  0  0  0  0  0  0  0  0
   16.1604   70.8295   -9.4966 H   0  0  0  0  0  0  0  0  0  0  0  0
   16.1561   70.9533   -4.9050 O   0  0  0  0  0  0  0  0  0  0  0  0
   16.7525   68.9434   -5.8015 O   0  0  0  0  0  0  0  0  0  0  0  0
   16.8454   70.1611   -5.7631 C   0  0  0  0  0  0  0  0  0  0  0  0
  1  4  1  0
  1 24  1  0
  1  2  1  1
  1  3  2  0
 25 28  1  0
 25 24  1  0
 25 26  1  1
 25 27  2  0
  6 11  1  0
  6 12  1  0
 29 36  1  0
 29 37  1  0
  9  7  1  1
  7 13  1  0
 10  8  1  1
  8 14  1  0
  4  5  1  0
 36 28  1  6
 33 30  1  6
 30 38  1  0
 34 31  1  6
 31 39  1  0
 35 32  1  6
 32 40  1  0
 41 43  1  0
 15 19  2  0
 42 43  2  0
 16 22  2  0
 12 17  1  6
 17 19  1  0
 17 20  1  0
 18 19  1  0
 18 22  1  0
 18 23  1  0
  9 10  1  0
  9 11  1  0
 10 12  1  0
 11  5  1  6
 33 34  1  0
 33 35  1  0
 34 36  1  0
 35 37  1  0
 37 43  1  1
 20 21  2  0
 21 22  1  0
M  CHG  3   2  -1  26  -1  41  -1
M  END
>  <COMPND>  (72) 
    udp_gluA.pdb 

>  <AUTHOR>  (72) 
    GENERATED BY OPEN BABEL 3.1.1

>  <MASTER>  (72) 
        0    0    0    0    0    0    0    0   56    0   56    0

>  <minimizedAffinity>  (72) 
-5.98642

>  <CNNscore>  (72) 
0.7171263695

>  <CNNaffinity>  (72) 
4.3103733063

>  <CNN_VS>  (72) 
3.0910823345

>  <CNNaffinity_variance>  (72) 
0.3153791428

$$$$
73
     RDKit          3D

 43 45  0  0  0  0  0  0  0  0999 V2000
   21.9536   72.6461   -5.8026 P   0  0  2  0  0  0  0  0  0  0  0  0
   21.4370   74.0566   -5.2004 O   0  0  0  0  0  0  0  0  0  0  0  0
   23.0114   72.7585   -6.8610 O   0  0  0  0  0  0  0  0  0  0  0  0
   20.5929   71.8915   -6.2465 O   0  0  0  0  0  0  0  0  0  0  0  0
   20.0657   72.1503   -7.5347 C   0  0  0  0  0  0  0  0  0  0  0  0
   18.9650   70.0831   -6.9934 O   0  0  0  0  0  0  0  0  0  0  0  0
   18.1694   69.9657   -9.8821 O   0  0  0  0  0  0  0  0  0  0  0  0
   15.8954   70.8628   -8.6738 O   0  0  0  0  0  0  0  0  0  0  0  0
   18.2899   71.1000   -9.0234 C   0  0  1  0  0  0  0  0  0  0  0  0
   17.1306   71.1465   -8.0507 C   0  0  2  0  0  0  0  0  0  0  0  0
   19.4744   70.8637   -8.0964 C   0  0  1  0  0  0  0  0  0  0  0  0
   17.5292   70.0900   -7.0343 C   0  0  2  0  0  0  0  0  0  0  0  0
   17.4190   70.0936  -10.4839 H   0  0  0  0  0  0  0  0  0  0  0  0
   15.6862   71.5642   -9.3112 H   0  0  0  0  0  0  0  0  0  0  0  0
   16.3683   68.1704   -5.3184 O   0  0  0  0  0  0  0  0  0  0  0  0
   15.6325   71.3002   -2.0158 O   0  0  0  0  0  0  0  0  0  0  0  0
   17.0260   70.3760   -5.7206 N   0  0  0  0  0  0  0  0  0  0  0  0
   16.0021   69.7313   -3.6756 N   0  0  0  0  0  0  0  0  0  0  0  0
   16.4617   69.3396   -4.9398 C   0  0  0  0  0  0  0  0  0  0  0  0
   17.0954   71.6695   -5.2177 C   0  0  0  0  0  0  0  0  0  0  0  0
   16.6531   72.0275   -4.0107 C   0  0  0  0  0  0  0  0  0  0  0  0
   16.0488   71.0048   -3.1319 C   0  0  0  0  0  0  0  0  0  0  0  0
   15.6033   69.0274   -3.1144 H   0  0  0  0  0  0  0  0  0  0  0  0
   22.4064   71.8318   -4.4818 O   0  0  0  0  0  0  0  0  0  0  0  0
   23.5882   72.1125   -3.4149 P   0  0  2  0  0  0  0  0  0  0  0  0
   24.5443   73.1637   -4.1901 O   0  0  0  0  0  0  0  0  0  0  0  0
   24.2906   70.8757   -2.9343 O   0  0  0  0  0  0  0  0  0  0  0  0
   22.8892   72.9812   -2.2490 O   0  0  0  0  0  0  0  0  0  0  0  0
   21.7570   71.6580   -0.6438 O   0  0  0  0  0  0  0  0  0  0  0  0
   20.6141   75.4731    0.4546 O   0  0  0  0  0  0  0  0  0  0  0  0
   20.7141   74.7110   -2.3638 O   0  0  0  0  0  0  0  0  0  0  0  0
   22.6091   74.0424    2.0115 O   0  0  0  0  0  0  0  0  0  0  0  0
   21.4875   74.4764   -0.0762 C   0  0  2  0  0  0  0  0  0  0  0  0
   20.8232   73.8003   -1.2759 C   0  0  2  0  0  0  0  0  0  0  0  0
   21.7622   73.4522    1.0271 C   0  0  1  0  0  0  0  0  0  0  0  0
   21.6240   72.5782   -1.7278 C   0  0  1  0  0  0  0  0  0  0  0  0
   22.4512   72.2083    0.4735 C   0  0  1  0  0  0  0  0  0  0  0  0
   20.4252   76.1351   -0.2290 H   0  0  0  0  0  0  0  0  0  0  0  0
   20.2074   75.4890   -2.0841 H   0  0  0  0  0  0  0  0  0  0  0  0
   22.1823   74.8354    2.3717 H   0  0  0  0  0  0  0  0  0  0  0  0
   21.3983   70.2430    1.2019 O   0  0  0  0  0  0  0  0  0  0  0  0
   23.1996   70.9633    2.4000 O   0  0  0  0  0  0  0  0  0  0  0  0
   22.4181   71.0956    1.4701 C   0  0  0  0  0  0  0  0  0  0  0  0
  1  4  1  0
  1 24  1  0
  1  2  1  1
  1  3  2  0
 25 28  1  0
 25 24  1  0
 25 26  1  6
 25 27  2  0
  6 11  1  0
  6 12  1  0
 29 36  1  0
 29 37  1  0
  9  7  1  6
  7 13  1  0
 10  8  1  6
  8 14  1  0
  4  5  1  0
 36 28  1  1
 33 30  1  1
 30 38  1  0
 34 31  1  6
 31 39  1  0
 35 32  1  1
 32 40  1  0
 41 43  1  0
 15 19  2  0
 42 43  2  0
 16 22  2  0
 12 17  1  1
 17 19  1  0
 17 20  1  0
 18 19  1  0
 18 22  1  0
 18 23  1  0
  9 10  1  0
  9 11  1  0
 10 12  1  0
 11  5  1  1
 33 34  1  0
 33 35  1  0
 34 36  1  0
 35 37  1  0
 37 43  1  1
 20 21  2  0
 21 22  1  0
M  CHG  3   2  -1  26  -1  41  -1
M  END
>  <COMPND>  (73) 
    udp_gluA.pdb 

>  <AUTHOR>  (73) 
    GENERATED BY OPEN BABEL 3.1.1

>  <MASTER>  (73) 
        0    0    0    0    0    0    0    0   56    0   56    0

>  <minimizedAffinity>  (73) 
-8.05482

>  <CNNscore>  (73) 
0.6957626343

>  <CNNaffinity>  (73) 
4.4657621384

>  <CNN_VS>  (73) 
3.1071105003

>  <CNNaffinity_variance>  (73) 
0.3806822896

$$$$
74
     RDKit          3D

 43 45  0  0  0  0  0  0  0  0999 V2000
   23.7122   72.4446   -3.7650 P   0  0  2  0  0  0  0  0  0  0  0  0
   24.7300   73.6983   -3.8704 O   0  0  0  0  0  0  0  0  0  0  0  0
   24.3175   71.1804   -3.2291 O   0  0  0  0  0  0  0  0  0  0  0  0
   23.0672   72.3423   -5.2453 O   0  0  0  0  0  0  0  0  0  0  0  0
   21.6587   72.2623   -5.3651 C   0  0  0  0  0  0  0  0  0  0  0  0
   20.5228   70.3445   -6.2649 O   0  0  0  0  0  0  0  0  0  0  0  0
   20.6385   71.7500   -8.9112 O   0  0  0  0  0  0  0  0  0  0  0  0
   18.0749   72.2103   -8.1036 O   0  0  0  0  0  0  0  0  0  0  0  0
   20.4532   72.2964   -7.6052 C   0  0  1  0  0  0  0  0  0  0  0  0
   19.0540   72.0017   -7.1074 C   0  0  2  0  0  0  0  0  0  0  0  0
   21.3115   71.4961   -6.6350 C   0  0  1  0  0  0  0  0  0  0  0  0
   19.1666   70.5442   -6.6942 C   0  0  2  0  0  0  0  0  0  0  0  0
   20.0998   72.2451   -9.5486 H   0  0  0  0  0  0  0  0  0  0  0  0
   18.0417   73.1530   -8.3320 H   0  0  0  0  0  0  0  0  0  0  0  0
   16.4719   69.7658   -7.0242 O   0  0  0  0  0  0  0  0  0  0  0  0
   15.8630   69.2878   -2.4806 O   0  0  0  0  0  0  0  0  0  0  0  0
   18.2812   70.2107   -5.6146 N   0  0  0  0  0  0  0  0  0  0  0  0
   16.1709   69.5294   -4.7609 N   0  0  0  0  0  0  0  0  0  0  0  0
   16.9455   69.8323   -5.8884 C   0  0  0  0  0  0  0  0  0  0  0  0
   18.7378   70.2585   -4.3031 C   0  0  0  0  0  0  0  0  0  0  0  0
   17.9876   69.9669   -3.2387 C   0  0  0  0  0  0  0  0  0  0  0  0
   16.5802   69.5632   -3.4376 C   0  0  0  0  0  0  0  0  0  0  0  0
   15.2370   69.2653   -4.9262 H   0  0  0  0  0  0  0  0  0  0  0  0
   22.4969   73.0374   -2.8792 O   0  0  0  0  0  0  0  0  0  0  0  0
   21.7153   72.4238   -1.6040 P   0  0  2  0  0  0  0  0  0  0  0  0
   21.4882   70.8758   -2.0192 O   0  0  0  0  0  0  0  0  0  0  0  0
   20.4568   73.1578   -1.2415 O   0  0  0  0  0  0  0  0  0  0  0  0
   22.8220   72.3728   -0.4314 O   0  0  0  0  0  0  0  0  0  0  0  0
   24.3341   71.0950    0.8686 O   0  0  0  0  0  0  0  0  0  0  0  0
   21.2925   71.8050    3.5728 O   0  0  0  0  0  0  0  0  0  0  0  0
   20.6786   71.1020    0.8045 O   0  0  0  0  0  0  0  0  0  0  0  0
   23.7886   73.2829    3.7631 O   0  0  0  0  0  0  0  0  0  0  0  0
   22.1443   72.0937    2.4642 C   0  0  2  0  0  0  0  0  0  0  0  0
   21.9717   71.0173    1.3923 C   0  0  2  0  0  0  0  0  0  0  0  0
   23.5885   72.1142    2.9702 C   0  0  1  0  0  0  0  0  0  0  0  0
   23.0277   71.1629    0.2957 C   0  0  1  0  0  0  0  0  0  0  0  0
   24.5837   72.1331    1.8136 C   0  0  1  0  0  0  0  0  0  0  0  0
   20.3693   71.7867    3.2753 H   0  0  0  0  0  0  0  0  0  0  0  0
   20.0036   71.0107    1.4947 H   0  0  0  0  0  0  0  0  0  0  0  0
   23.1611   73.2832    4.5027 H   0  0  0  0  0  0  0  0  0  0  0  0
   26.5271   72.9156    2.8684 O   0  0  0  0  0  0  0  0  0  0  0  0
   26.5144   70.7372    2.1948 O   0  0  0  0  0  0  0  0  0  0  0  0
   25.9634   71.8231    2.2959 C   0  0  0  0  0  0  0  0  0  0  0  0
  1  4  1  0
  1 24  1  0
  1  2  1  6
  1  3  2  0
 25 28  1  0
 25 24  1  0
 25 26  1  6
 25 27  2  0
  6 11  1  0
  6 12  1  0
 29 36  1  0
 29 37  1  0
  9  7  1  6
  7 13  1  0
 10  8  1  6
  8 14  1  0
  4  5  1  0
 36 28  1  1
 33 30  1  1
 30 38  1  0
 34 31  1  6
 31 39  1  0
 35 32  1  1
 32 40  1  0
 41 43  1  0
 15 19  2  0
 42 43  2  0
 16 22  2  0
 12 17  1  1
 17 19  1  0
 17 20  1  0
 18 19  1  0
 18 22  1  0
 18 23  1  0
  9 10  1  0
  9 11  1  0
 10 12  1  0
 11  5  1  1
 33 34  1  0
 33 35  1  0
 34 36  1  0
 35 37  1  0
 37 43  1  1
 20 21  2  0
 21 22  1  0
M  CHG  3   2  -1  26  -1  41  -1
M  END
>  <COMPND>  (74) 
    udp_gluA.pdb 

>  <AUTHOR>  (74) 
    GENERATED BY OPEN BABEL 3.1.1

>  <MASTER>  (74) 
        0    0    0    0    0    0    0    0   56    0   56    0

>  <minimizedAffinity>  (74) 
-7.96069

>  <CNNscore>  (74) 
0.6710664034

>  <CNNaffinity>  (74) 
4.3739271164

>  <CNN_VS>  (74) 
2.9351954460

>  <CNNaffinity_variance>  (74) 
0.1908663809

$$$$
75
     RDKit          3D

 43 45  0  0  0  0  0  0  0  0999 V2000
   21.8906   72.9767   -5.6702 P   0  0  2  0  0  0  0  0  0  0  0  0
   21.3817   74.4977   -5.8862 O   0  0  0  0  0  0  0  0  0  0  0  0
   23.1998   72.6476   -6.3255 O   0  0  0  0  0  0  0  0  0  0  0  0
   20.6282   72.0755   -6.1307 O   0  0  0  0  0  0  0  0  0  0  0  0
   20.0422   72.3283   -7.3945 C   0  0  0  0  0  0  0  0  0  0  0  0
   19.0571   70.1983   -6.8748 O   0  0  0  0  0  0  0  0  0  0  0  0
   18.2582   70.0724   -9.7623 O   0  0  0  0  0  0  0  0  0  0  0  0
   15.9435   70.8305   -8.5361 O   0  0  0  0  0  0  0  0  0  0  0  0
   18.3203   71.2012   -8.8903 C   0  0  1  0  0  0  0  0  0  0  0  0
   17.1639   71.1732   -7.9134 C   0  0  2  0  0  0  0  0  0  0  0  0
   19.5193   71.0184   -7.9699 C   0  0  1  0  0  0  0  0  0  0  0  0
   17.6229   70.1278   -6.9112 C   0  0  2  0  0  0  0  0  0  0  0  0
   17.4996   70.1666  -10.3601 H   0  0  0  0  0  0  0  0  0  0  0  0
   15.6943   71.5271   -9.1643 H   0  0  0  0  0  0  0  0  0  0  0  0
   16.2440   68.2130   -5.3592 O   0  0  0  0  0  0  0  0  0  0  0  0
   15.6994   71.1691   -1.8651 O   0  0  0  0  0  0  0  0  0  0  0  0
   17.1099   70.3704   -5.5926 N   0  0  0  0  0  0  0  0  0  0  0  0
   15.9732   69.6874   -3.6209 N   0  0  0  0  0  0  0  0  0  0  0  0
   16.4319   69.3405   -4.8985 C   0  0  0  0  0  0  0  0  0  0  0  0
   17.2815   71.6154   -4.9998 C   0  0  0  0  0  0  0  0  0  0  0  0
   16.8388   71.9311   -3.7811 C   0  0  0  0  0  0  0  0  0  0  0  0
   16.1192   70.9119   -2.9893 C   0  0  0  0  0  0  0  0  0  0  0  0
   15.4963   68.9874   -3.1190 H   0  0  0  0  0  0  0  0  0  0  0  0
   21.8837   72.8168   -4.0617 O   0  0  0  0  0  0  0  0  0  0  0  0
   22.3102   71.5765   -3.1165 P   0  0  2  0  0  0  0  0  0  0  0  0
   23.9023   71.4431   -3.3773 O   0  0  0  0  0  0  0  0  0  0  0  0
   21.5347   70.3158   -3.3677 O   0  0  0  0  0  0  0  0  0  0  0  0
   22.1905   72.1478   -1.6126 O   0  0  0  0  0  0  0  0  0  0  0  0
   22.8864   70.7696    0.1833 O   0  0  0  0  0  0  0  0  0  0  0  0
   20.6795   73.6581    2.1465 O   0  0  0  0  0  0  0  0  0  0  0  0
   19.7292   72.5271   -0.3739 O   0  0  0  0  0  0  0  0  0  0  0  0
   23.5839   73.7170    2.2541 O   0  0  0  0  0  0  0  0  0  0  0  0
   21.5341   73.1401    1.1271 C   0  0  2  0  0  0  0  0  0  0  0  0
   20.8183   72.0122    0.3835 C   0  0  2  0  0  0  0  0  0  0  0  0
   22.8046   72.6130    1.7978 C   0  0  1  0  0  0  0  0  0  0  0  0
   21.7777   71.2817   -0.5571 C   0  0  1  0  0  0  0  0  0  0  0  0
   23.6465   71.7897    0.8272 C   0  0  1  0  0  0  0  0  0  0  0  0
   19.8652   73.9989    1.7438 H   0  0  0  0  0  0  0  0  0  0  0  0
   19.1166   72.9921    0.2167 H   0  0  0  0  0  0  0  0  0  0  0  0
   23.0595   74.2493    2.8726 H   0  0  0  0  0  0  0  0  0  0  0  0
   24.2696   70.6948    2.8057 O   0  0  0  0  0  0  0  0  0  0  0  0
   25.7858   70.7085    1.1027 O   0  0  0  0  0  0  0  0  0  0  0  0
   24.6946   71.0160    1.5587 C   0  0  0  0  0  0  0  0  0  0  0  0
  1  4  1  0
  1 24  1  0
  1  2  1  1
  1  3  2  0
 25 28  1  0
 25 24  1  0
 25 26  1  6
 25 27  2  0
  6 11  1  0
  6 12  1  0
 29 36  1  0
 29 37  1  0
  9  7  1  6
  7 13  1  0
 10  8  1  6
  8 14  1  0
  4  5  1  0
 36 28  1  6
 33 30  1  1
 30 38  1  0
 34 31  1  6
 31 39  1  0
 35 32  1  6
 32 40  1  0
 41 43  1  0
 15 19  2  0
 42 43  2  0
 16 22  2  0
 12 17  1  1
 17 19  1  0
 17 20  1  0
 18 19  1  0
 18 22  1  0
 18 23  1  0
  9 10  1  0
  9 11  1  0
 10 12  1  0
 11  5  1  1
 33 34  1  0
 33 35  1  0
 34 36  1  0
 35 37  1  0
 37 43  1  1
 20 21  2  0
 21 22  1  0
M  CHG  3   2  -1  26  -1  41  -1
M  END
>  <COMPND>  (75) 
    udp_gluA.pdb 

>  <AUTHOR>  (75) 
    GENERATED BY OPEN BABEL 3.1.1

>  <MASTER>  (75) 
        0    0    0    0    0    0    0    0   56    0   56    0

>  <minimizedAffinity>  (75) 
-7.64889

>  <CNNscore>  (75) 
0.6525857449

>  <CNNaffinity>  (75) 
4.4567809105

>  <CNN_VS>  (75) 
2.9084317684

>  <CNNaffinity_variance>  (75) 
0.1553888172

$$$$
76
     RDKit          3D

 43 45  0  0  0  0  0  0  0  0999 V2000
   21.3985   75.7195   -2.8644 P   0  0  2  0  0  0  0  0  0  0  0  0
   21.1206   77.2993   -2.6502 O   0  0  0  0  0  0  0  0  0  0  0  0
   22.7869   75.2677   -2.5176 O   0  0  0  0  0  0  0  0  0  0  0  0
   20.9310   75.4461   -4.3890 O   0  0  0  0  0  0  0  0  0  0  0  0
   20.2012   74.2661   -4.6711 C   0  0  0  0  0  0  0  0  0  0  0  0
   20.4171   71.9139   -5.1163 O   0  0  0  0  0  0  0  0  0  0  0  0
   23.2142   72.5282   -6.0052 O   0  0  0  0  0  0  0  0  0  0  0  0
   21.8746   72.2989   -8.3693 O   0  0  0  0  0  0  0  0  0  0  0  0
   22.0258   73.3041   -6.1604 C   0  0  1  0  0  0  0  0  0  0  0  0
   21.1416   72.7001   -7.2307 C   0  0  2  0  0  0  0  0  0  0  0  0
   21.1793   73.1226   -4.9079 C   0  0  1  0  0  0  0  0  0  0  0  0
   20.5138   71.5276   -6.4965 C   0  0  2  0  0  0  0  0  0  0  0  0
   23.7713   72.6283   -6.7934 H   0  0  0  0  0  0  0  0  0  0  0  0
   22.2538   73.0808   -8.8016 H   0  0  0  0  0  0  0  0  0  0  0  0
   19.9891   69.7321   -8.6125 O   0  0  0  0  0  0  0  0  0  0  0  0
   15.4396   70.3984   -8.2924 O   0  0  0  0  0  0  0  0  0  0  0  0
   19.2015   71.2134   -6.9864 N   0  0  0  0  0  0  0  0  0  0  0  0
   17.7238   70.0664   -8.4517 N   0  0  0  0  0  0  0  0  0  0  0  0
   19.0472   70.2980   -8.0543 C   0  0  0  0  0  0  0  0  0  0  0  0
   18.0853   71.8073   -6.4099 C   0  0  0  0  0  0  0  0  0  0  0  0
   16.8300   71.5766   -6.7995 C   0  0  0  0  0  0  0  0  0  0  0  0
   16.5818   70.6336   -7.9097 C   0  0  0  0  0  0  0  0  0  0  0  0
   17.5913   69.4344   -9.1949 H   0  0  0  0  0  0  0  0  0  0  0  0
   20.2271   75.0238   -1.9947 O   0  0  0  0  0  0  0  0  0  0  0  0
   20.0101   74.9217   -0.3959 P   0  0  2  0  0  0  0  0  0  0  0  0
   18.5620   74.2103   -0.2639 O   0  0  0  0  0  0  0  0  0  0  0  0
   20.1228   76.2333    0.3258 O   0  0  0  0  0  0  0  0  0  0  0  0
   21.0614   73.7982    0.0889 O   0  0  0  0  0  0  0  0  0  0  0  0
   21.3199   71.8358   -1.2116 O   0  0  0  0  0  0  0  0  0  0  0  0
   23.0846   70.7202    2.3533 O   0  0  0  0  0  0  0  0  0  0  0  0
   20.5926   72.2448    2.3479 O   0  0  0  0  0  0  0  0  0  0  0  0
   24.7340   71.3761    0.0511 O   0  0  0  0  0  0  0  0  0  0  0  0
   22.6986   71.6225    1.3166 C   0  0  2  0  0  0  0  0  0  0  0  0
   21.1745   71.6431    1.1973 C   0  0  2  0  0  0  0  0  0  0  0  0
   23.3284   71.1375    0.0089 C   0  0  1  0  0  0  0  0  0  0  0  0
   20.7335   72.4165   -0.0461 C   0  0  1  0  0  0  0  0  0  0  0  0
   22.7452   71.8706   -1.1957 C   0  0  1  0  0  0  0  0  0  0  0  0
   22.6959   71.0083    3.1943 H   0  0  0  0  0  0  0  0  0  0  0  0
   20.8685   71.7592    3.1407 H   0  0  0  0  0  0  0  0  0  0  0  0
   25.1174   70.9150    0.8135 H   0  0  0  0  0  0  0  0  0  0  0  0
   22.0544   70.4832   -2.9562 O   0  0  0  0  0  0  0  0  0  0  0  0
   24.2100   71.2252   -3.0011 O   0  0  0  0  0  0  0  0  0  0  0  0
   23.1119   71.1771   -2.4673 C   0  0  0  0  0  0  0  0  0  0  0  0
  1  4  1  0
  1 24  1  0
  1  2  1  1
  1  3  2  0
 25 28  1  0
 25 24  1  0
 25 26  1  6
 25 27  2  0
  6 11  1  0
  6 12  1  0
 29 36  1  0
 29 37  1  0
  9  7  1  1
  7 13  1  0
 10  8  1  6
  8 14  1  0
  4  5  1  0
 36 28  1  1
 33 30  1  1
 30 38  1  0
 34 31  1  1
 31 39  1  0
 35 32  1  1
 32 40  1  0
 41 43  1  0
 15 19  2  0
 42 43  2  0
 16 22  2  0
 12 17  1  6
 17 19  1  0
 17 20  1  0
 18 19  1  0
 18 22  1  0
 18 23  1  0
  9 10  1  0
  9 11  1  0
 10 12  1  0
 11  5  1  6
 33 34  1  0
 33 35  1  0
 34 36  1  0
 35 37  1  0
 37 43  1  6
 20 21  2  0
 21 22  1  0
M  CHG  3   2  -1  26  -1  41  -1
M  END
>  <COMPND>  (76) 
    udp_gluA.pdb 

>  <AUTHOR>  (76) 
    GENERATED BY OPEN BABEL 3.1.1

>  <MASTER>  (76) 
        0    0    0    0    0    0    0    0   56    0   56    0

>  <minimizedAffinity>  (76) 
-6.49147

>  <CNNscore>  (76) 
0.5627154112

>  <CNNaffinity>  (76) 
4.2326393127

>  <CNN_VS>  (76) 
2.3817713261

>  <CNNaffinity_variance>  (76) 
0.1054835320

$$$$
77
     RDKit          3D

 43 45  0  0  0  0  0  0  0  0999 V2000
   15.5784   70.5307   -1.8526 P   0  0  2  0  0  0  0  0  0  0  0  0
   16.7362   71.6079   -1.5090 O   0  0  0  0  0  0  0  0  0  0  0  0
   14.4425   71.0626   -2.6765 O   0  0  0  0  0  0  0  0  0  0  0  0
   15.1743   69.9211   -0.4093 O   0  0  0  0  0  0  0  0  0  0  0  0
   13.9983   69.1389   -0.3110 C   0  0  0  0  0  0  0  0  0  0  0  0
   12.1492   68.9162    1.2085 O   0  0  0  0  0  0  0  0  0  0  0  0
   14.1742   68.0842    3.2576 O   0  0  0  0  0  0  0  0  0  0  0  0
   13.1095   65.7005    2.4699 O   0  0  0  0  0  0  0  0  0  0  0  0
   14.1433   67.8139    1.8560 C   0  0  1  0  0  0  0  0  0  0  0  0
   13.0921   66.7691    1.5467 C   0  0  2  0  0  0  0  0  0  0  0  0
   13.5865   69.0441    1.1525 C   0  0  1  0  0  0  0  0  0  0  0  0
   11.8102   67.5813    1.6163 C   0  0  2  0  0  0  0  0  0  0  0  0
   14.5265   67.3123    3.7284 H   0  0  0  0  0  0  0  0  0  0  0  0
   13.9454   65.2144    2.3861 H   0  0  0  0  0  0  0  0  0  0  0  0
    9.0881   67.3246    2.3242 O   0  0  0  0  0  0  0  0  0  0  0  0
    7.9857   65.6122   -1.8106 O   0  0  0  0  0  0  0  0  0  0  0  0
   10.7903   67.0714    0.7441 N   0  0  0  0  0  0  0  0  0  0  0  0
    8.5418   66.4710    0.2645 N   0  0  0  0  0  0  0  0  0  0  0  0
    9.4529   66.9835    1.1975 C   0  0  0  0  0  0  0  0  0  0  0  0
   11.1182   66.6667   -0.5442 C   0  0  0  0  0  0  0  0  0  0  0  0
   10.2388   66.1804   -1.4222 C   0  0  0  0  0  0  0  0  0  0  0  0
    8.8204   66.0550   -1.0273 C   0  0  0  0  0  0  0  0  0  0  0  0
    7.6048   66.3984    0.5580 H   0  0  0  0  0  0  0  0  0  0  0  0
   16.4007   69.3211   -2.5407 O   0  0  0  0  0  0  0  0  0  0  0  0
   17.7294   69.3299   -3.4616 P   0  0  2  0  0  0  0  0  0  0  0  0
   18.0032   67.7574   -3.7308 O   0  0  0  0  0  0  0  0  0  0  0  0
   18.8913   70.0656   -2.8593 O   0  0  0  0  0  0  0  0  0  0  0  0
   17.2369   69.9070   -4.8852 O   0  0  0  0  0  0  0  0  0  0  0  0
   18.9052   71.1310   -6.0375 O   0  0  0  0  0  0  0  0  0  0  0  0
   15.5710   71.8563   -8.3667 O   0  0  0  0  0  0  0  0  0  0  0  0
   15.3787   71.8976   -5.4519 O   0  0  0  0  0  0  0  0  0  0  0  0
   17.6016   69.9819   -9.2690 O   0  0  0  0  0  0  0  0  0  0  0  0
   16.4134   71.1006   -7.4965 C   0  0  2  0  0  0  0  0  0  0  0  0
   16.6001   71.8568   -6.1809 C   0  0  2  0  0  0  0  0  0  0  0  0
   17.7614   70.9062   -8.1945 C   0  0  1  0  0  0  0  0  0  0  0  0
   17.6740   71.1945   -5.3167 C   0  0  1  0  0  0  0  0  0  0  0  0
   18.8128   70.3596   -7.2332 C   0  0  1  0  0  0  0  0  0  0  0  0
   14.7083   71.9924   -7.9440 H   0  0  0  0  0  0  0  0  0  0  0  0
   14.6927   72.3164   -5.9944 H   0  0  0  0  0  0  0  0  0  0  0  0
   16.9348   70.3179   -9.8881 H   0  0  0  0  0  0  0  0  0  0  0  0
   20.3139   69.6770   -8.9012 O   0  0  0  0  0  0  0  0  0  0  0  0
   21.0658   71.2088   -7.3888 O   0  0  0  0  0  0  0  0  0  0  0  0
   20.1819   70.4828   -7.8185 C   0  0  0  0  0  0  0  0  0  0  0  0
  1  4  1  0
  1 24  1  0
  1  2  1  1
  1  3  2  0
 25 28  1  0
 25 24  1  0
 25 26  1  6
 25 27  2  0
  6 11  1  0
  6 12  1  0
 29 36  1  0
 29 37  1  0
  9  7  1  1
  7 13  1  0
 10  8  1  1
  8 14  1  0
  4  5  1  0
 36 28  1  6
 33 30  1  6
 30 38  1  0
 34 31  1  1
 31 39  1  0
 35 32  1  6
 32 40  1  0
 41 43  1  0
 15 19  2  0
 42 43  2  0
 16 22  2  0
 12 17  1  6
 17 19  1  0
 17 20  1  0
 18 19  1  0
 18 22  1  0
 18 23  1  0
  9 10  1  0
  9 11  1  0
 10 12  1  0
 11  5  1  6
 33 34  1  0
 33 35  1  0
 34 36  1  0
 35 37  1  0
 37 43  1  6
 20 21  2  0
 21 22  1  0
M  CHG  3   2  -1  26  -1  41  -1
M  END
>  <COMPND>  (77) 
    udp_gluA.pdb 

>  <AUTHOR>  (77) 
    GENERATED BY OPEN BABEL 3.1.1

>  <MASTER>  (77) 
        0    0    0    0    0    0    0    0   56    0   56    0

>  <minimizedAffinity>  (77) 
-6.94683

>  <CNNscore>  (77) 
0.5323624015

>  <CNNaffinity>  (77) 
4.3701210022

>  <CNN_VS>  (77) 
2.3264880180

>  <CNNaffinity_variance>  (77) 
0.0335976072

$$$$
78
     RDKit          3D

 43 45  0  0  0  0  0  0  0  0999 V2000
   18.3440   74.4128   -4.1486 P   0  0  2  0  0  0  0  0  0  0  0  0
   17.4172   75.6768   -4.5513 O   0  0  0  0  0  0  0  0  0  0  0  0
   17.6703   73.0757   -4.2487 O   0  0  0  0  0  0  0  0  0  0  0  0
   18.9186   74.8024   -2.6870 O   0  0  0  0  0  0  0  0  0  0  0  0
   18.9990   73.7902   -1.7003 C   0  0  0  0  0  0  0  0  0  0  0  0
   21.0284   73.8973   -0.4166 O   0  0  0  0  0  0  0  0  0  0  0  0
   21.8599   71.4102   -1.8707 O   0  0  0  0  0  0  0  0  0  0  0  0
   21.0285   70.4417    0.5390 O   0  0  0  0  0  0  0  0  0  0  0  0
   20.5630   71.8031   -1.4211 C   0  0  1  0  0  0  0  0  0  0  0  0
   20.4612   71.6515    0.0819 C   0  0  2  0  0  0  0  0  0  0  0  0
   20.4412   73.3105   -1.5982 C   0  0  1  0  0  0  0  0  0  0  0  0
   21.2164   72.8743    0.5741 C   0  0  2  0  0  0  0  0  0  0  0  0
   21.9613   70.4506   -1.7673 H   0  0  0  0  0  0  0  0  0  0  0  0
   20.5120   69.6936    0.1990 H   0  0  0  0  0  0  0  0  0  0  0  0
   22.1061   71.9410    3.0869 O   0  0  0  0  0  0  0  0  0  0  0  0
   19.2607   74.7735    5.3507 O   0  0  0  0  0  0  0  0  0  0  0  0
   20.7251   73.3506    1.8361 N   0  0  0  0  0  0  0  0  0  0  0  0
   20.6873   73.3519    4.2120 N   0  0  0  0  0  0  0  0  0  0  0  0
   21.2386   72.8152    3.0410 C   0  0  0  0  0  0  0  0  0  0  0  0
   19.7474   74.3375    1.8720 C   0  0  0  0  0  0  0  0  0  0  0  0
   19.2318   74.8391    2.9960 C   0  0  0  0  0  0  0  0  0  0  0  0
   19.7133   74.3334    4.2982 C   0  0  0  0  0  0  0  0  0  0  0  0
   21.0276   72.9934    5.0635 H   0  0  0  0  0  0  0  0  0  0  0  0
   19.6348   74.5897   -5.1054 O   0  0  0  0  0  0  0  0  0  0  0  0
   20.5273   73.4982   -5.8964 P   0  0  2  0  0  0  0  0  0  0  0  0
   21.1610   72.6048   -4.7045 O   0  0  0  0  0  0  0  0  0  0  0  0
   21.5416   74.0922   -6.8303 O   0  0  0  0  0  0  0  0  0  0  0  0
   19.4521   72.5269   -6.6057 O   0  0  0  0  0  0  0  0  0  0  0  0
   18.8275   70.3334   -5.9673 O   0  0  0  0  0  0  0  0  0  0  0  0
   18.2061   70.2297  -10.0503 O   0  0  0  0  0  0  0  0  0  0  0  0
   20.5775   71.5302   -8.9459 O   0  0  0  0  0  0  0  0  0  0  0  0
   15.9445   70.4296   -8.2348 O   0  0  0  0  0  0  0  0  0  0  0  0
   18.2629   70.8284   -8.7556 C   0  0  2  0  0  0  0  0  0  0  0  0
   19.6826   70.7129   -8.2002 C   0  0  2  0  0  0  0  0  0  0  0  0
   17.2752   70.0900   -7.8495 C   0  0  1  0  0  0  0  0  0  0  0  0
   19.7311   71.1336   -6.7307 C   0  0  1  0  0  0  0  0  0  0  0  0
   17.4710   70.4708   -6.3848 C   0  0  1  0  0  0  0  0  0  0  0  0
   18.8258   70.6827  -10.6437 H   0  0  0  0  0  0  0  0  0  0  0  0
   20.5516   71.2689   -9.8794 H   0  0  0  0  0  0  0  0  0  0  0  0
   15.8068   70.1924   -9.1652 H   0  0  0  0  0  0  0  0  0  0  0  0
   16.6256   70.0375   -4.2403 O   0  0  0  0  0  0  0  0  0  0  0  0
   16.3158   68.4278   -5.8252 O   0  0  0  0  0  0  0  0  0  0  0  0
   16.7462   69.5206   -5.4882 C   0  0  0  0  0  0  0  0  0  0  0  0
  1  4  1  0
  1 24  1  0
  1  2  1  6
  1  3  2  0
 25 28  1  0
 25 24  1  0
 25 26  1  1
 25 27  2  0
  6 11  1  0
  6 12  1  0
 29 36  1  0
 29 37  1  0
  9  7  1  1
  7 13  1  0
 10  8  1  1
  8 14  1  0
  4  5  1  0
 36 28  1  6
 33 30  1  6
 30 38  1  0
 34 31  1  6
 31 39  1  0
 35 32  1  6
 32 40  1  0
 41 43  1  0
 15 19  2  0
 42 43  2  0
 16 22  2  0
 12 17  1  1
 17 19  1  0
 17 20  1  0
 18 19  1  0
 18 22  1  0
 18 23  1  0
  9 10  1  0
  9 11  1  0
 10 12  1  0
 11  5  1  1
 33 34  1  0
 33 35  1  0
 34 36  1  0
 35 37  1  0
 37 43  1  1
 20 21  2  0
 21 22  1  0
M  CHG  3   2  -1  26  -1  41  -1
M  END
>  <COMPND>  (78) 
    udp_gluA.pdb 

>  <AUTHOR>  (78) 
    GENERATED BY OPEN BABEL 3.1.1

>  <MASTER>  (78) 
        0    0    0    0    0    0    0    0   56    0   56    0

>  <minimizedAffinity>  (78) 
-6.26720

>  <CNNscore>  (78) 
0.5174026489

>  <CNNaffinity>  (78) 
4.1563796997

>  <CNN_VS>  (78) 
2.1505217552

>  <CNNaffinity_variance>  (78) 
0.0835623965

$$$$
79
     RDKit          3D

 43 45  0  0  0  0  0  0  0  0999 V2000
   21.2644   75.4572   -3.1079 P   0  0  2  0  0  0  0  0  0  0  0  0
   20.1979   76.1327   -2.0953 O   0  0  0  0  0  0  0  0  0  0  0  0
   21.4358   76.1714   -4.4164 O   0  0  0  0  0  0  0  0  0  0  0  0
   20.7835   73.9155   -3.2067 O   0  0  0  0  0  0  0  0  0  0  0  0
   19.7066   73.5970   -4.0689 C   0  0  0  0  0  0  0  0  0  0  0  0
   18.1537   71.8315   -4.5679 O   0  0  0  0  0  0  0  0  0  0  0  0
   19.1931   70.4734   -2.1048 O   0  0  0  0  0  0  0  0  0  0  0  0
   20.4951   69.1559   -4.1061 O   0  0  0  0  0  0  0  0  0  0  0  0
   19.8933   71.2680   -3.0623 C   0  0  1  0  0  0  0  0  0  0  0  0
   20.0928   70.4885   -4.3449 C   0  0  2  0  0  0  0  0  0  0  0  0
   18.9655   72.3885   -3.5115 C   0  0  1  0  0  0  0  0  0  0  0  0
   18.7182   70.5785   -4.9856 C   0  0  2  0  0  0  0  0  0  0  0  0
   19.7659   69.7506   -1.8030 H   0  0  0  0  0  0  0  0  0  0  0  0
   21.3757   69.1523   -3.6980 H   0  0  0  0  0  0  0  0  0  0  0  0
   16.6675   69.5750   -6.6482 O   0  0  0  0  0  0  0  0  0  0  0  0
   19.0599   70.5137  -10.4743 O   0  0  0  0  0  0  0  0  0  0  0  0
   18.7790   70.5486   -6.4195 N   0  0  0  0  0  0  0  0  0  0  0  0
   17.8614   70.0425   -8.5522 N   0  0  0  0  0  0  0  0  0  0  0  0
   17.6946   70.0232   -7.1612 C   0  0  0  0  0  0  0  0  0  0  0  0
   19.9019   71.0371   -7.0764 C   0  0  0  0  0  0  0  0  0  0  0  0
   20.0464   71.0489   -8.4030 C   0  0  0  0  0  0  0  0  0  0  0  0
   18.9595   70.5172   -9.2512 C   0  0  0  0  0  0  0  0  0  0  0  0
   17.1205   69.6801   -9.0897 H   0  0  0  0  0  0  0  0  0  0  0  0
   22.6062   75.3626   -2.2116 O   0  0  0  0  0  0  0  0  0  0  0  0
   23.4006   74.0842   -1.6215 P   0  0  2  0  0  0  0  0  0  0  0  0
   24.6966   74.7481   -0.9146 O   0  0  0  0  0  0  0  0  0  0  0  0
   23.7242   73.0343   -2.6448 O   0  0  0  0  0  0  0  0  0  0  0  0
   22.4889   73.5659   -0.3957 O   0  0  0  0  0  0  0  0  0  0  0  0
   23.2383   71.3953    0.1839 O   0  0  0  0  0  0  0  0  0  0  0  0
   20.1820   71.9829    2.9009 O   0  0  0  0  0  0  0  0  0  0  0  0
   19.8639   72.8007    0.1144 O   0  0  0  0  0  0  0  0  0  0  0  0
   22.9532   72.1851    3.7557 O   0  0  0  0  0  0  0  0  0  0  0  0
   21.2614   72.3689    2.0500 C   0  0  2  0  0  0  0  0  0  0  0  0
   20.9314   71.9973    0.6042 C   0  0  2  0  0  0  0  0  0  0  0  0
   22.5181   71.6302    2.5158 C   0  0  1  0  0  0  0  0  0  0  0  0
   22.1504   72.1834   -0.3004 C   0  0  1  0  0  0  0  0  0  0  0  0
   23.6492   71.7598    1.4998 C   0  0  1  0  0  0  0  0  0  0  0  0
   19.3723   72.4399    2.6238 H   0  0  0  0  0  0  0  0  0  0  0  0
   19.0872   72.6877    0.6839 H   0  0  0  0  0  0  0  0  0  0  0  0
   22.2422   72.1090    4.4111 H   0  0  0  0  0  0  0  0  0  0  0  0
   25.6587   70.7762    0.7953 O   0  0  0  0  0  0  0  0  0  0  0  0
   24.8057   70.0832    2.7931 O   0  0  0  0  0  0  0  0  0  0  0  0
   24.7405   70.7824    1.7933 C   0  0  0  0  0  0  0  0  0  0  0  0
  1  4  1  0
  1 24  1  0
  1  2  1  1
  1  3  2  0
 25 28  1  0
 25 24  1  0
 25 26  1  1
 25 27  2  0
  6 11  1  0
  6 12  1  0
 29 36  1  0
 29 37  1  0
  9  7  1  1
  7 13  1  0
 10  8  1  1
  8 14  1  0
  4  5  1  0
 36 28  1  1
 33 30  1  1
 30 38  1  0
 34 31  1  6
 31 39  1  0
 35 32  1  1
 32 40  1  0
 41 43  1  0
 15 19  2  0
 42 43  2  0
 16 22  2  0
 12 17  1  6
 17 19  1  0
 17 20  1  0
 18 19  1  0
 18 22  1  0
 18 23  1  0
  9 10  1  0
  9 11  1  0
 10 12  1  0
 11  5  1  6
 33 34  1  0
 33 35  1  0
 34 36  1  0
 35 37  1  0
 37 43  1  1
 20 21  2  0
 21 22  1  0
M  CHG  3   2  -1  26  -1  41  -1
M  END
>  <COMPND>  (79) 
    udp_gluA.pdb 

>  <AUTHOR>  (79) 
    GENERATED BY OPEN BABEL 3.1.1

>  <MASTER>  (79) 
        0    0    0    0    0    0    0    0   56    0   56    0

>  <minimizedAffinity>  (79) 
-6.84249

>  <CNNscore>  (79) 
0.5157689452

>  <CNNaffinity>  (79) 
4.1174478531

>  <CNN_VS>  (79) 
2.1236517429

>  <CNNaffinity_variance>  (79) 
0.1504344642

$$$$
80
     RDKit          3D

 43 45  0  0  0  0  0  0  0  0999 V2000
   22.7429   73.0975   -3.7520 P   0  0  2  0  0  0  0  0  0  0  0  0
   24.0867   72.7118   -4.5671 O   0  0  0  0  0  0  0  0  0  0  0  0
   22.6459   74.5356   -3.3345 O   0  0  0  0  0  0  0  0  0  0  0  0
   22.6912   72.0127   -2.5526 O   0  0  0  0  0  0  0  0  0  0  0  0
   23.0919   72.4180   -1.2566 C   0  0  0  0  0  0  0  0  0  0  0  0
   24.1620   71.1488    0.4817 O   0  0  0  0  0  0  0  0  0  0  0  0
   21.4305   70.1038    1.1440 O   0  0  0  0  0  0  0  0  0  0  0  0
   21.8160   72.0145    3.0510 O   0  0  0  0  0  0  0  0  0  0  0  0
   21.8169   71.4038    0.6975 C   0  0  1  0  0  0  0  0  0  0  0  0
   22.4910   72.1645    1.8196 C   0  0  2  0  0  0  0  0  0  0  0  0
   22.9529   71.2385   -0.3028 C   0  0  1  0  0  0  0  0  0  0  0  0
   23.8774   71.5435    1.8332 C   0  0  2  0  0  0  0  0  0  0  0  0
   20.7056   70.1837    1.7842 H   0  0  0  0  0  0  0  0  0  0  0  0
   20.9392   72.4262    2.9913 H   0  0  0  0  0  0  0  0  0  0  0  0
   26.5319   70.8183    2.4690 O   0  0  0  0  0  0  0  0  0  0  0  0
   27.6634   75.1636    3.5092 O   0  0  0  0  0  0  0  0  0  0  0  0
   24.8864   72.4652    2.2728 N   0  0  0  0  0  0  0  0  0  0  0  0
   27.0926   72.9830    2.9875 N   0  0  0  0  0  0  0  0  0  0  0  0
   26.1893   71.9981    2.5666 C   0  0  0  0  0  0  0  0  0  0  0  0
   24.5822   73.8144    2.4071 C   0  0  0  0  0  0  0  0  0  0  0  0
   25.4539   74.7413    2.8092 C   0  0  0  0  0  0  0  0  0  0  0  0
   26.8366   74.3364    3.1370 C   0  0  0  0  0  0  0  0  0  0  0  0
   28.0055   72.6815    3.1998 H   0  0  0  0  0  0  0  0  0  0  0  0
   21.5640   72.6024   -4.7409 O   0  0  0  0  0  0  0  0  0  0  0  0
   20.7828   73.3711   -5.9293 P   0  0  2  0  0  0  0  0  0  0  0  0
   21.7998   73.2452   -7.1824 O   0  0  0  0  0  0  0  0  0  0  0  0
   20.3852   74.7796   -5.5947 O   0  0  0  0  0  0  0  0  0  0  0  0
   19.5513   72.3991   -6.3052 O   0  0  0  0  0  0  0  0  0  0  0  0
   18.9868   70.2233   -5.5595 O   0  0  0  0  0  0  0  0  0  0  0  0
   17.7293   70.1164   -9.4934 O   0  0  0  0  0  0  0  0  0  0  0  0
   20.2727   71.3669   -8.7852 O   0  0  0  0  0  0  0  0  0  0  0  0
   15.7861   70.3757   -7.3469 O   0  0  0  0  0  0  0  0  0  0  0  0
   18.0020   70.7191   -8.2284 C   0  0  2  0  0  0  0  0  0  0  0  0
   19.4885   70.5736   -7.9019 C   0  0  2  0  0  0  0  0  0  0  0  0
   17.1530   70.0074   -7.1726 C   0  0  1  0  0  0  0  0  0  0  0  0
   19.7765   70.9993   -6.4615 C   0  0  1  0  0  0  0  0  0  0  0  0
   17.5849   70.3899   -5.7599 C   0  0  1  0  0  0  0  0  0  0  0  0
   18.2579   70.5525  -10.1802 H   0  0  0  0  0  0  0  0  0  0  0  0
   20.0948   71.1024   -9.7010 H   0  0  0  0  0  0  0  0  0  0  0  0
   15.4987   70.1378   -8.2422 H   0  0  0  0  0  0  0  0  0  0  0  0
   16.4197   68.3929   -5.3654 O   0  0  0  0  0  0  0  0  0  0  0  0
   17.0103   69.6299   -3.5433 O   0  0  0  0  0  0  0  0  0  0  0  0
   16.9893   69.4604   -4.7532 C   0  0  0  0  0  0  0  0  0  0  0  0
  1  4  1  0
  1 24  1  0
  1  2  1  6
  1  3  2  0
 25 28  1  0
 25 24  1  0
 25 26  1  6
 25 27  2  0
  6 11  1  0
  6 12  1  0
 29 36  1  0
 29 37  1  0
  9  7  1  1
  7 13  1  0
 10  8  1  1
  8 14  1  0
  4  5  1  0
 36 28  1  6
 33 30  1  6
 30 38  1  0
 34 31  1  6
 31 39  1  0
 35 32  1  6
 32 40  1  0
 41 43  1  0
 15 19  2  0
 42 43  2  0
 16 22  2  0
 12 17  1  6
 17 19  1  0
 17 20  1  0
 18 19  1  0
 18 22  1  0
 18 23  1  0
  9 10  1  0
  9 11  1  0
 10 12  1  0
 11  5  1  6
 33 34  1  0
 33 35  1  0
 34 36  1  0
 35 37  1  0
 37 43  1  1
 20 21  2  0
 21 22  1  0
M  CHG  3   2  -1  26  -1  41  -1
M  END
>  <COMPND>  (80) 
    udp_gluA.pdb 

>  <AUTHOR>  (80) 
    GENERATED BY OPEN BABEL 3.1.1

>  <MASTER>  (80) 
        0    0    0    0    0    0    0    0   56    0   56    0

>  <minimizedAffinity>  (80) 
-7.95322

>  <CNNscore>  (80) 
0.5122905374

>  <CNNaffinity>  (80) 
4.2941527367

>  <CNN_VS>  (80) 
2.1998538971

>  <CNNaffinity_variance>  (80) 
0.0917191505

$$$$
81
     RDKit          3D

 43 45  0  0  0  0  0  0  0  0999 V2000
   22.5922   71.9177   -3.4975 P   0  0  2  0  0  0  0  0  0  0  0  0
   22.1256   72.1861   -5.0236 O   0  0  0  0  0  0  0  0  0  0  0  0
   23.9638   71.3275   -3.3488 O   0  0  0  0  0  0  0  0  0  0  0  0
   21.3813   71.0484   -2.8682 O   0  0  0  0  0  0  0  0  0  0  0  0
   20.4946   70.3860   -3.7510 C   0  0  0  0  0  0  0  0  0  0  0  0
   18.7622   71.6581   -4.8274 O   0  0  0  0  0  0  0  0  0  0  0  0
   16.9169   70.5705   -2.7290 O   0  0  0  0  0  0  0  0  0  0  0  0
   16.3546   69.0023   -4.8878 O   0  0  0  0  0  0  0  0  0  0  0  0
   18.0180   69.9367   -3.3804 C   0  0  1  0  0  0  0  0  0  0  0  0
   17.6454   69.5688   -4.8010 C   0  0  2  0  0  0  0  0  0  0  0  0
   19.1020   70.9838   -3.5965 C   0  0  1  0  0  0  0  0  0  0  0  0
   17.7448   70.9086   -5.5102 C   0  0  2  0  0  0  0  0  0  0  0  0
   16.2114   69.9210   -2.5802 H   0  0  0  0  0  0  0  0  0  0  0  0
   16.3431   68.1511   -4.4215 H   0  0  0  0  0  0  0  0  0  0  0  0
   15.9675   70.1405   -7.5663 O   0  0  0  0  0  0  0  0  0  0  0  0
   19.2678   70.4158  -10.7719 O   0  0  0  0  0  0  0  0  0  0  0  0
   18.1131   70.7717   -6.8910 N   0  0  0  0  0  0  0  0  0  0  0  0
   17.6132   70.2774   -9.1608 N   0  0  0  0  0  0  0  0  0  0  0  0
   17.1439   70.3801   -7.8446 C   0  0  0  0  0  0  0  0  0  0  0  0
   19.4202   71.0256   -7.2886 C   0  0  0  0  0  0  0  0  0  0  0  0
   19.8525   70.9235   -8.5469 C   0  0  0  0  0  0  0  0  0  0  0  0
   18.9033   70.5188   -9.6045 C   0  0  0  0  0  0  0  0  0  0  0  0
   16.9571   70.0042   -9.8421 H   0  0  0  0  0  0  0  0  0  0  0  0
   22.4021   73.3635   -2.8003 O   0  0  0  0  0  0  0  0  0  0  0  0
   23.4845   74.4834   -2.3668 P   0  0  2  0  0  0  0  0  0  0  0  0
   22.5619   75.7376   -1.9238 O   0  0  0  0  0  0  0  0  0  0  0  0
   24.4968   74.8047   -3.4278 O   0  0  0  0  0  0  0  0  0  0  0  0
   24.1129   73.9328   -0.9868 O   0  0  0  0  0  0  0  0  0  0  0  0
   22.3487   73.1922    0.4091 O   0  0  0  0  0  0  0  0  0  0  0  0
   25.6506   72.5203    2.7995 O   0  0  0  0  0  0  0  0  0  0  0  0
   25.4345   74.9736    1.2282 O   0  0  0  0  0  0  0  0  0  0  0  0
   24.3294   70.2941    1.4769 O   0  0  0  0  0  0  0  0  0  0  0  0
   24.9307   72.6253    1.5712 C   0  0  2  0  0  0  0  0  0  0  0  0
   24.3764   74.0424    1.4225 C   0  0  2  0  0  0  0  0  0  0  0  0
   23.7882   71.6077    1.6042 C   0  0  1  0  0  0  0  0  0  0  0  0
   23.4114   74.1310    0.2393 C   0  0  1  0  0  0  0  0  0  0  0  0
   22.8011   71.8411    0.4642 C   0  0  1  0  0  0  0  0  0  0  0  0
   26.3819   73.1580    2.8014 H   0  0  0  0  0  0  0  0  0  0  0  0
   26.0508   74.9226    1.9751 H   0  0  0  0  0  0  0  0  0  0  0  0
   24.9595   70.1328    2.1965 H   0  0  0  0  0  0  0  0  0  0  0  0
   20.4775   71.7330    0.1633 O   0  0  0  0  0  0  0  0  0  0  0  0
   21.4653   69.9988    1.2659 O   0  0  0  0  0  0  0  0  0  0  0  0
   21.5391   71.0738    0.6898 C   0  0  0  0  0  0  0  0  0  0  0  0
  1  4  1  0
  1 24  1  0
  1  2  1  6
  1  3  2  0
 25 28  1  0
 25 24  1  0
 25 26  1  1
 25 27  2  0
  6 11  1  0
  6 12  1  0
 29 36  1  0
 29 37  1  0
  9  7  1  6
  7 13  1  0
 10  8  1  1
  8 14  1  0
  4  5  1  0
 36 28  1  6
 33 30  1  1
 30 38  1  0
 34 31  1  6
 31 39  1  0
 35 32  1  6
 32 40  1  0
 41 43  1  0
 15 19  2  0
 42 43  2  0
 16 22  2  0
 12 17  1  6
 17 19  1  0
 17 20  1  0
 18 19  1  0
 18 22  1  0
 18 23  1  0
  9 10  1  0
  9 11  1  0
 10 12  1  0
 11  5  1  6
 33 34  1  0
 33 35  1  0
 34 36  1  0
 35 37  1  0
 37 43  1  1
 20 21  2  0
 21 22  1  0
M  CHG  3   2  -1  26  -1  41  -1
M  END
>  <COMPND>  (81) 
    udp_gluA.pdb 

>  <AUTHOR>  (81) 
    GENERATED BY OPEN BABEL 3.1.1

>  <MASTER>  (81) 
        0    0    0    0    0    0    0    0   56    0   56    0

>  <minimizedAffinity>  (81) 
-7.80143

>  <CNNscore>  (81) 
0.9487915635

>  <CNNaffinity>  (81) 
4.9225053787

>  <CNN_VS>  (81) 
4.6704316139

>  <CNNaffinity_variance>  (81) 
0.0412058607

$$$$
82
     RDKit          3D

 43 45  0  0  0  0  0  0  0  0999 V2000
   22.9163   71.6464   -2.7336 P   0  0  2  0  0  0  0  0  0  0  0  0
   23.0106   73.2304   -2.4163 O   0  0  0  0  0  0  0  0  0  0  0  0
   24.2053   71.0081   -3.1613 O   0  0  0  0  0  0  0  0  0  0  0  0
   21.6929   71.5332   -3.7864 O   0  0  0  0  0  0  0  0  0  0  0  0
   20.8298   70.4141   -3.7022 C   0  0  0  0  0  0  0  0  0  0  0  0
   18.9428   71.5666   -4.6449 O   0  0  0  0  0  0  0  0  0  0  0  0
   17.3194   70.3093   -2.4597 O   0  0  0  0  0  0  0  0  0  0  0  0
   16.7427   68.7359   -4.6110 O   0  0  0  0  0  0  0  0  0  0  0  0
   18.4221   69.7714   -3.1898 C   0  0  1  0  0  0  0  0  0  0  0  0
   17.9901   69.3979   -4.5920 C   0  0  2  0  0  0  0  0  0  0  0  0
   19.4087   70.9014   -3.4508 C   0  0  1  0  0  0  0  0  0  0  0  0
   17.9440   70.7521   -5.2791 C   0  0  2  0  0  0  0  0  0  0  0  0
   16.6754   69.6057   -2.2811 H   0  0  0  0  0  0  0  0  0  0  0  0
   16.8245   67.8794   -4.1620 H   0  0  0  0  0  0  0  0  0  0  0  0
   16.0498   70.0725   -7.2607 O   0  0  0  0  0  0  0  0  0  0  0  0
   19.1706   70.4479  -10.6317 O   0  0  0  0  0  0  0  0  0  0  0  0
   18.2345   70.6649   -6.6822 N   0  0  0  0  0  0  0  0  0  0  0  0
   17.6061   70.2591   -8.9376 N   0  0  0  0  0  0  0  0  0  0  0  0
   17.2110   70.3153   -7.5946 C   0  0  0  0  0  0  0  0  0  0  0  0
   19.5197   70.9256   -7.1419 C   0  0  0  0  0  0  0  0  0  0  0  0
   19.8811   70.8682   -8.4252 C   0  0  0  0  0  0  0  0  0  0  0  0
   18.8717   70.5092   -9.4429 C   0  0  0  0  0  0  0  0  0  0  0  0
   16.9113   70.0158   -9.5913 H   0  0  0  0  0  0  0  0  0  0  0  0
   22.2836   71.0411   -1.3748 O   0  0  0  0  0  0  0  0  0  0  0  0
   21.4043   71.7383   -0.2110 P   0  0  2  0  0  0  0  0  0  0  0  0
   20.6875   70.4812    0.5143 O   0  0  0  0  0  0  0  0  0  0  0  0
   20.4547   72.7916   -0.7040 O   0  0  0  0  0  0  0  0  0  0  0  0
   22.4884   72.2636    0.8620 O   0  0  0  0  0  0  0  0  0  0  0  0
   24.2354   71.3078    2.1439 O   0  0  0  0  0  0  0  0  0  0  0  0
   22.4266   73.7904    4.9067 O   0  0  0  0  0  0  0  0  0  0  0  0
   20.8110   72.1828    3.0792 O   0  0  0  0  0  0  0  0  0  0  0  0
   24.9557   74.5545    3.6940 O   0  0  0  0  0  0  0  0  0  0  0  0
   22.8547   73.3782    3.6088 C   0  0  2  0  0  0  0  0  0  0  0  0
   22.2143   72.0340    3.2616 C   0  0  2  0  0  0  0  0  0  0  0  0
   24.3796   73.2511    3.6319 C   0  0  1  0  0  0  0  0  0  0  0  0
   22.8234   71.4511    1.9855 C   0  0  1  0  0  0  0  0  0  0  0  0
   24.8990   72.5472    2.3816 C   0  0  1  0  0  0  0  0  0  0  0  0
   21.4604   73.8778    4.9161 H   0  0  0  0  0  0  0  0  0  0  0  0
   20.4181   72.5524    3.8850 H   0  0  0  0  0  0  0  0  0  0  0  0
   24.6330   75.0133    4.4853 H   0  0  0  0  0  0  0  0  0  0  0  0
   26.5561   70.9423    1.9578 O   0  0  0  0  0  0  0  0  0  0  0  0
   27.1719   72.7816    3.1564 O   0  0  0  0  0  0  0  0  0  0  0  0
   26.3246   72.1361    2.5579 C   0  0  0  0  0  0  0  0  0  0  0  0
  1  4  1  0
  1 24  1  0
  1  2  1  1
  1  3  2  0
 25 28  1  0
 25 24  1  0
 25 26  1  1
 25 27  2  0
  6 11  1  0
  6 12  1  0
 29 36  1  0
 29 37  1  0
  9  7  1  1
  7 13  1  0
 10  8  1  1
  8 14  1  0
  4  5  1  0
 36 28  1  6
 33 30  1  1
 30 38  1  0
 34 31  1  6
 31 39  1  0
 35 32  1  6
 32 40  1  0
 41 43  1  0
 15 19  2  0
 42 43  2  0
 16 22  2  0
 12 17  1  6
 17 19  1  0
 17 20  1  0
 18 19  1  0
 18 22  1  0
 18 23  1  0
  9 10  1  0
  9 11  1  0
 10 12  1  0
 11  5  1  6
 33 34  1  0
 33 35  1  0
 34 36  1  0
 35 37  1  0
 37 43  1  1
 20 21  2  0
 21 22  1  0
M  CHG  3   2  -1  26  -1  41  -1
M  END
>  <COMPND>  (82) 
    udp_gluA.pdb 

>  <AUTHOR>  (82) 
    GENERATED BY OPEN BABEL 3.1.1

>  <MASTER>  (82) 
        0    0    0    0    0    0    0    0   56    0   56    0

>  <minimizedAffinity>  (82) 
-8.23652

>  <CNNscore>  (82) 
0.9354498982

>  <CNNaffinity>  (82) 
4.8107423782

>  <CNN_VS>  (82) 
4.5002083778

>  <CNNaffinity_variance>  (82) 
0.0327099562

$$$$
83
     RDKit          3D

 43 45  0  0  0  0  0  0  0  0999 V2000
   20.3974   71.3773   -1.1093 P   0  0  2  0  0  0  0  0  0  0  0  0
   20.3210   70.8925    0.4328 O   0  0  0  0  0  0  0  0  0  0  0  0
   20.0195   72.8107   -1.3422 O   0  0  0  0  0  0  0  0  0  0  0  0
   19.5150   70.2796   -1.9058 O   0  0  0  0  0  0  0  0  0  0  0  0
   19.2295   70.5054   -3.2740 C   0  0  0  0  0  0  0  0  0  0  0  0
   17.5513   71.4985   -4.6794 O   0  0  0  0  0  0  0  0  0  0  0  0
   15.5573   69.8999   -3.1110 O   0  0  0  0  0  0  0  0  0  0  0  0
   15.8289   68.4368   -5.3961 O   0  0  0  0  0  0  0  0  0  0  0  0
   16.8832   69.5504   -3.5091 C   0  0  1  0  0  0  0  0  0  0  0  0
   16.9201   69.2360   -4.9897 C   0  0  2  0  0  0  0  0  0  0  0  0
   17.7437   70.8039   -3.4281 C   0  0  1  0  0  0  0  0  0  0  0  0
   16.8908   70.6236   -5.6076 C   0  0  2  0  0  0  0  0  0  0  0  0
   14.9888   69.1147   -3.1547 H   0  0  0  0  0  0  0  0  0  0  0  0
   15.8933   67.5642   -4.9762 H   0  0  0  0  0  0  0  0  0  0  0  0
   15.6344   70.3292   -8.1198 O   0  0  0  0  0  0  0  0  0  0  0  0
   19.6192   70.8453  -10.3777 O   0  0  0  0  0  0  0  0  0  0  0  0
   17.5761   70.6767   -6.8679 N   0  0  0  0  0  0  0  0  0  0  0  0
   17.6204   70.5855   -9.2419 N   0  0  0  0  0  0  0  0  0  0  0  0
   16.8515   70.5168   -8.0727 C   0  0  0  0  0  0  0  0  0  0  0  0
   18.9493   70.8868   -6.9024 C   0  0  0  0  0  0  0  0  0  0  0  0
   19.6685   70.9501   -8.0247 C   0  0  0  0  0  0  0  0  0  0  0  0
   18.9878   70.7920   -9.3267 C   0  0  0  0  0  0  0  0  0  0  0  0
   17.1383   70.4750  -10.0932 H   0  0  0  0  0  0  0  0  0  0  0  0
   21.9118   71.0028   -1.5327 O   0  0  0  0  0  0  0  0  0  0  0  0
   23.1967   71.9412   -1.8190 P   0  0  2  0  0  0  0  0  0  0  0  0
   22.6505   72.9887   -2.9257 O   0  0  0  0  0  0  0  0  0  0  0  0
   24.4282   71.1894   -2.2340 O   0  0  0  0  0  0  0  0  0  0  0  0
   23.3691   72.8197   -0.4770 O   0  0  0  0  0  0  0  0  0  0  0  0
   24.1336   71.6132    1.4121 O   0  0  0  0  0  0  0  0  0  0  0  0
   23.0481   75.2230    3.1030 O   0  0  0  0  0  0  0  0  0  0  0  0
   21.3650   73.9759    1.0667 O   0  0  0  0  0  0  0  0  0  0  0  0
   25.8554   74.5898    2.6918 O   0  0  0  0  0  0  0  0  0  0  0  0
   23.5372   74.3592    2.0770 C   0  0  2  0  0  0  0  0  0  0  0  0
   22.4604   73.3370    1.7122 C   0  0  2  0  0  0  0  0  0  0  0  0
   24.7847   73.6510    2.6100 C   0  0  1  0  0  0  0  0  0  0  0  0
   23.0226   72.2568    0.7870 C   0  0  1  0  0  0  0  0  0  0  0  0
   25.2089   72.5058    1.6950 C   0  0  1  0  0  0  0  0  0  0  0  0
   22.2551   75.6840    2.7869 H   0  0  0  0  0  0  0  0  0  0  0  0
   21.0036   74.6628    1.6480 H   0  0  0  0  0  0  0  0  0  0  0  0
   25.5982   75.3239    3.2712 H   0  0  0  0  0  0  0  0  0  0  0  0
   25.7162   70.3686    2.5175 O   0  0  0  0  0  0  0  0  0  0  0  0
   27.3132   71.9792    2.7515 O   0  0  0  0  0  0  0  0  0  0  0  0
   26.2061   71.6251    2.3749 C   0  0  0  0  0  0  0  0  0  0  0  0
  1  4  1  0
  1 24  1  0
  1  2  1  1
  1  3  2  0
 25 28  1  0
 25 24  1  0
 25 26  1  6
 25 27  2  0
  6 11  1  0
  6 12  1  0
 29 36  1  0
 29 37  1  0
  9  7  1  6
  7 13  1  0
 10  8  1  6
  8 14  1  0
  4  5  1  0
 36 28  1  6
 33 30  1  1
 30 38  1  0
 34 31  1  6
 31 39  1  0
 35 32  1  6
 32 40  1  0
 41 43  1  0
 15 19  2  0
 42 43  2  0
 16 22  2  0
 12 17  1  6
 17 19  1  0
 17 20  1  0
 18 19  1  0
 18 22  1  0
 18 23  1  0
  9 10  1  0
  9 11  1  0
 10 12  1  0
 11  5  1  6
 33 34  1  0
 33 35  1  0
 34 36  1  0
 35 37  1  0
 37 43  1  1
 20 21  2  0
 21 22  1  0
M  CHG  3   2  -1  26  -1  41  -1
M  END
>  <COMPND>  (83) 
    udp_gluA.pdb 

>  <AUTHOR>  (83) 
    GENERATED BY OPEN BABEL 3.1.1

>  <MASTER>  (83) 
        0    0    0    0    0    0    0    0   56    0   56    0

>  <minimizedAffinity>  (83) 
-7.24638

>  <CNNscore>  (83) 
0.9090435505

>  <CNNaffinity>  (83) 
4.8290967941

>  <CNN_VS>  (83) 
4.3898591995

>  <CNNaffinity_variance>  (83) 
0.1660766304

$$$$
84
     RDKit          3D

 43 45  0  0  0  0  0  0  0  0999 V2000
   23.0003   71.4596   -2.3663 P   0  0  2  0  0  0  0  0  0  0  0  0
   22.7043   73.0266   -2.6417 O   0  0  0  0  0  0  0  0  0  0  0  0
   24.2156   70.9135   -3.0565 O   0  0  0  0  0  0  0  0  0  0  0  0
   21.6011   70.7309   -2.7258 O   0  0  0  0  0  0  0  0  0  0  0  0
   20.9669   71.0515   -3.9503 C   0  0  0  0  0  0  0  0  0  0  0  0
   18.9268   71.8976   -4.8988 O   0  0  0  0  0  0  0  0  0  0  0  0
   17.5328   70.6172   -2.5731 O   0  0  0  0  0  0  0  0  0  0  0  0
   17.0913   68.8335   -4.5879 O   0  0  0  0  0  0  0  0  0  0  0  0
   18.6716   70.1638   -3.3052 C   0  0  1  0  0  0  0  0  0  0  0  0
   18.2484   69.6400   -4.6613 C   0  0  2  0  0  0  0  0  0  0  0  0
   19.5047   71.3819   -3.6801 C   0  0  1  0  0  0  0  0  0  0  0  0
   18.0172   70.9252   -5.4376 C   0  0  2  0  0  0  0  0  0  0  0  0
   16.9852   69.8564   -2.3225 H   0  0  0  0  0  0  0  0  0  0  0  0
   17.2901   68.0280   -4.0844 H   0  0  0  0  0  0  0  0  0  0  0  0
   16.1267   69.9859   -7.3139 O   0  0  0  0  0  0  0  0  0  0  0  0
   19.1192   70.3757  -10.7978 O   0  0  0  0  0  0  0  0  0  0  0  0
   18.2757   70.7714   -6.8413 N   0  0  0  0  0  0  0  0  0  0  0  0
   17.6193   70.1799   -9.0471 N   0  0  0  0  0  0  0  0  0  0  0  0
   17.2572   70.2913   -7.6982 C   0  0  0  0  0  0  0  0  0  0  0  0
   19.5250   71.0959   -7.3561 C   0  0  0  0  0  0  0  0  0  0  0  0
   19.8552   70.9845   -8.6443 C   0  0  0  0  0  0  0  0  0  0  0  0
   18.8486   70.4896   -9.6061 C   0  0  0  0  0  0  0  0  0  0  0  0
   16.9273   69.8459   -9.6627 H   0  0  0  0  0  0  0  0  0  0  0  0
   23.0485   71.3776   -0.7526 O   0  0  0  0  0  0  0  0  0  0  0  0
   21.9405   71.7539    0.3629 P   0  0  2  0  0  0  0  0  0  0  0  0
   21.6315   70.3318    1.0717 O   0  0  0  0  0  0  0  0  0  0  0  0
   20.7273   72.4488   -0.1841 O   0  0  0  0  0  0  0  0  0  0  0  0
   22.7497   72.5961    1.4757 O   0  0  0  0  0  0  0  0  0  0  0  0
   24.7017   72.1794    2.7506 O   0  0  0  0  0  0  0  0  0  0  0  0
   22.2991   74.1132    5.4995 O   0  0  0  0  0  0  0  0  0  0  0  0
   21.1756   72.0931    3.7129 O   0  0  0  0  0  0  0  0  0  0  0  0
   24.5111   75.5239    4.2473 O   0  0  0  0  0  0  0  0  0  0  0  0
   22.8148   73.8135    4.2024 C   0  0  2  0  0  0  0  0  0  0  0  0
   22.5669   72.3394    3.8812 C   0  0  2  0  0  0  0  0  0  0  0  0
   24.3158   74.1115    4.2099 C   0  0  1  0  0  0  0  0  0  0  0  0
   23.3037   71.9259    2.6065 C   0  0  1  0  0  0  0  0  0  0  0  0
   25.0000   73.5573    2.9635 C   0  0  1  0  0  0  0  0  0  0  0  0
   21.3463   73.9314    5.5187 H   0  0  0  0  0  0  0  0  0  0  0  0
   20.7019   72.3535    4.5180 H   0  0  0  0  0  0  0  0  0  0  0  0
   24.0803   75.8891    5.0359 H   0  0  0  0  0  0  0  0  0  0  0  0
   26.9779   74.8165    3.0257 O   0  0  0  0  0  0  0  0  0  0  0  0
   27.1681   72.5651    3.3323 O   0  0  0  0  0  0  0  0  0  0  0  0
   26.4848   73.5574    3.1291 C   0  0  0  0  0  0  0  0  0  0  0  0
  1  4  1  0
  1 24  1  0
  1  2  1  1
  1  3  2  0
 25 28  1  0
 25 24  1  0
 25 26  1  1
 25 27  2  0
  6 11  1  0
  6 12  1  0
 29 36  1  0
 29 37  1  0
  9  7  1  1
  7 13  1  0
 10  8  1  1
  8 14  1  0
  4  5  1  0
 36 28  1  6
 33 30  1  1
 30 38  1  0
 34 31  1  6
 31 39  1  0
 35 32  1  6
 32 40  1  0
 41 43  1  0
 15 19  2  0
 42 43  2  0
 16 22  2  0
 12 17  1  6
 17 19  1  0
 17 20  1  0
 18 19  1  0
 18 22  1  0
 18 23  1  0
  9 10  1  0
  9 11  1  0
 10 12  1  0
 11  5  1  6
 33 34  1  0
 33 35  1  0
 34 36  1  0
 35 37  1  0
 37 43  1  1
 20 21  2  0
 21 22  1  0
M  CHG  3   2  -1  26  -1  41  -1
M  END
>  <COMPND>  (84) 
    udp_gluA.pdb 

>  <AUTHOR>  (84) 
    GENERATED BY OPEN BABEL 3.1.1

>  <MASTER>  (84) 
        0    0    0    0    0    0    0    0   56    0   56    0

>  <minimizedAffinity>  (84) 
-7.90349

>  <CNNscore>  (84) 
0.8822290897

>  <CNNaffinity>  (84) 
4.6111993790

>  <CNN_VS>  (84) 
4.0681343079

>  <CNNaffinity_variance>  (84) 
0.0530914739

$$$$
85
     RDKit          3D

 43 45  0  0  0  0  0  0  0  0999 V2000
   21.8714   72.8089   -4.5594 P   0  0  2  0  0  0  0  0  0  0  0  0
   21.4585   74.3683   -4.6878 O   0  0  0  0  0  0  0  0  0  0  0  0
   23.0257   72.3862   -5.4201 O   0  0  0  0  0  0  0  0  0  0  0  0
   20.4823   72.0175   -4.8087 O   0  0  0  0  0  0  0  0  0  0  0  0
   19.8839   71.3418   -3.7179 C   0  0  0  0  0  0  0  0  0  0  0  0
   18.0202   72.0687   -5.0506 O   0  0  0  0  0  0  0  0  0  0  0  0
   16.2760   70.7792   -2.9803 O   0  0  0  0  0  0  0  0  0  0  0  0
   16.2888   68.9299   -4.9843 O   0  0  0  0  0  0  0  0  0  0  0  0
   17.5482   70.3626   -3.4766 C   0  0  1  0  0  0  0  0  0  0  0  0
   17.4047   69.7879   -4.8699 C   0  0  2  0  0  0  0  0  0  0  0  0
   18.3844   71.6094   -3.7308 C   0  0  1  0  0  0  0  0  0  0  0  0
   17.2672   71.0422   -5.7158 C   0  0  2  0  0  0  0  0  0  0  0  0
   15.7238   69.9995   -2.8103 H   0  0  0  0  0  0  0  0  0  0  0  0
   16.4248   68.1466   -4.4276 H   0  0  0  0  0  0  0  0  0  0  0  0
   15.7668   70.0649   -7.8999 O   0  0  0  0  0  0  0  0  0  0  0  0
   19.3627   70.4146  -10.7619 O   0  0  0  0  0  0  0  0  0  0  0  0
   17.7865   70.8679   -7.0428 N   0  0  0  0  0  0  0  0  0  0  0  0
   17.5595   70.2391   -9.3230 N   0  0  0  0  0  0  0  0  0  0  0  0
   16.9490   70.3697   -8.0687 C   0  0  0  0  0  0  0  0  0  0  0  0
   19.1099   71.1902   -7.3176 C   0  0  0  0  0  0  0  0  0  0  0  0
   19.6777   71.0604   -8.5182 C   0  0  0  0  0  0  0  0  0  0  0  0
   18.8717   70.5458   -9.6447 C   0  0  0  0  0  0  0  0  0  0  0  0
   16.9968   69.8922  -10.0527 H   0  0  0  0  0  0  0  0  0  0  0  0
   22.1133   72.6270   -2.9716 O   0  0  0  0  0  0  0  0  0  0  0  0
   23.4651   72.3521   -2.1285 P   0  0  2  0  0  0  0  0  0  0  0  0
   24.2695   73.7512   -2.2530 O   0  0  0  0  0  0  0  0  0  0  0  0
   24.2409   71.1501   -2.5837 O   0  0  0  0  0  0  0  0  0  0  0  0
   22.9834   72.2948   -0.5900 O   0  0  0  0  0  0  0  0  0  0  0  0
   24.4554   71.1266    0.8513 O   0  0  0  0  0  0  0  0  0  0  0  0
   21.1712   71.7021    3.2907 O   0  0  0  0  0  0  0  0  0  0  0  0
   20.8223   70.9221    0.4971 O   0  0  0  0  0  0  0  0  0  0  0  0
   23.5570   73.3241    3.6488 O   0  0  0  0  0  0  0  0  0  0  0  0
   22.0918   72.0221    2.2476 C   0  0  2  0  0  0  0  0  0  0  0  0
   22.0667   70.9211    1.1872 C   0  0  2  0  0  0  0  0  0  0  0  0
   23.4871   72.1337    2.8661 C   0  0  1  0  0  0  0  0  0  0  0  0
   23.1976   71.1102    0.1753 C   0  0  1  0  0  0  0  0  0  0  0  0
   24.5696   72.1919    1.7921 C   0  0  1  0  0  0  0  0  0  0  0  0
   20.2773   71.6260    2.9212 H   0  0  0  0  0  0  0  0  0  0  0  0
   20.1002   70.8028    1.1332 H   0  0  0  0  0  0  0  0  0  0  0  0
   22.8730   73.2997    4.3362 H   0  0  0  0  0  0  0  0  0  0  0  0
   26.3797   73.1044    2.9720 O   0  0  0  0  0  0  0  0  0  0  0  0
   26.5348   70.9131    2.3612 O   0  0  0  0  0  0  0  0  0  0  0  0
   25.9212   71.9694    2.3886 C   0  0  0  0  0  0  0  0  0  0  0  0
  1  4  1  0
  1 24  1  0
  1  2  1  1
  1  3  2  0
 25 28  1  0
 25 24  1  0
 25 26  1  1
 25 27  2  0
  6 11  1  0
  6 12  1  0
 29 36  1  0
 29 37  1  0
  9  7  1  6
  7 13  1  0
 10  8  1  1
  8 14  1  0
  4  5  1  0
 36 28  1  1
 33 30  1  1
 30 38  1  0
 34 31  1  6
 31 39  1  0
 35 32  1  6
 32 40  1  0
 41 43  1  0
 15 19  2  0
 42 43  2  0
 16 22  2  0
 12 17  1  6
 17 19  1  0
 17 20  1  0
 18 19  1  0
 18 22  1  0
 18 23  1  0
  9 10  1  0
  9 11  1  0
 10 12  1  0
 11  5  1  6
 33 34  1  0
 33 35  1  0
 34 36  1  0
 35 37  1  0
 37 43  1  1
 20 21  2  0
 21 22  1  0
M  CHG  3   2  -1  26  -1  41  -1
M  END
>  <COMPND>  (85) 
    udp_gluA.pdb 

>  <AUTHOR>  (85) 
    GENERATED BY OPEN BABEL 3.1.1

>  <MASTER>  (85) 
        0    0    0    0    0    0    0    0   56    0   56    0

>  <minimizedAffinity>  (85) 
-8.13356

>  <CNNscore>  (85) 
0.8765152097

>  <CNNaffinity>  (85) 
4.6912045479

>  <CNN_VS>  (85) 
4.1119122505

>  <CNNaffinity_variance>  (85) 
0.0378589407

$$$$
86
     RDKit          3D

 43 45  0  0  0  0  0  0  0  0999 V2000
   22.9608   72.9626   -4.1720 P   0  0  2  0  0  0  0  0  0  0  0  0
   23.3807   73.8721   -5.4430 O   0  0  0  0  0  0  0  0  0  0  0  0
   24.0450   72.0675   -3.6476 O   0  0  0  0  0  0  0  0  0  0  0  0
   21.6083   72.2184   -4.6567 O   0  0  0  0  0  0  0  0  0  0  0  0
   21.0822   71.1799   -3.8509 C   0  0  0  0  0  0  0  0  0  0  0  0
   19.0054   71.9626   -4.7739 O   0  0  0  0  0  0  0  0  0  0  0  0
   17.6826   70.6610   -2.4186 O   0  0  0  0  0  0  0  0  0  0  0  0
   17.2603   68.8515   -4.4145 O   0  0  0  0  0  0  0  0  0  0  0  0
   18.8223   70.2338   -3.1650 C   0  0  1  0  0  0  0  0  0  0  0  0
   18.3934   69.6889   -4.5109 C   0  0  2  0  0  0  0  0  0  0  0  0
   19.6156   71.4718   -3.5606 C   0  0  1  0  0  0  0  0  0  0  0  0
   18.1151   70.9617   -5.2922 C   0  0  2  0  0  0  0  0  0  0  0  0
   17.1600   69.8871   -2.1546 H   0  0  0  0  0  0  0  0  0  0  0  0
   17.4888   68.0553   -3.9087 H   0  0  0  0  0  0  0  0  0  0  0  0
   16.1699   70.1244   -7.1609 O   0  0  0  0  0  0  0  0  0  0  0  0
   19.1538   70.3960  -10.6633 O   0  0  0  0  0  0  0  0  0  0  0  0
   18.3566   70.8051   -6.6987 N   0  0  0  0  0  0  0  0  0  0  0  0
   17.6582   70.2595   -8.9034 N   0  0  0  0  0  0  0  0  0  0  0  0
   17.3109   70.3789   -7.5513 C   0  0  0  0  0  0  0  0  0  0  0  0
   19.6162   71.0740   -7.2202 C   0  0  0  0  0  0  0  0  0  0  0  0
   19.9321   70.9556   -8.5113 C   0  0  0  0  0  0  0  0  0  0  0  0
   18.8969   70.5147   -9.4691 C   0  0  0  0  0  0  0  0  0  0  0  0
   16.9472   69.9623   -9.5161 H   0  0  0  0  0  0  0  0  0  0  0  0
   22.4152   74.0526   -3.1103 O   0  0  0  0  0  0  0  0  0  0  0  0
   23.1173   74.7146   -1.8132 P   0  0  2  0  0  0  0  0  0  0  0  0
   22.3793   76.1496   -1.6852 O   0  0  0  0  0  0  0  0  0  0  0  0
   24.6142   74.7943   -1.8965 O   0  0  0  0  0  0  0  0  0  0  0  0
   22.5609   73.8579   -0.5646 O   0  0  0  0  0  0  0  0  0  0  0  0
   23.4663   73.7164    1.6193 O   0  0  0  0  0  0  0  0  0  0  0  0
   21.6445   70.0296    1.2241 O   0  0  0  0  0  0  0  0  0  0  0  0
   23.1628   71.1763   -0.9927 O   0  0  0  0  0  0  0  0  0  0  0  0
   20.4093   72.1010    2.8471 O   0  0  0  0  0  0  0  0  0  0  0  0
   21.8118   71.4305    1.0064 C   0  0  2  0  0  0  0  0  0  0  0  0
   23.1616   71.6865    0.3356 C   0  0  2  0  0  0  0  0  0  0  0  0
   21.7517   72.1308    2.3657 C   0  0  1  0  0  0  0  0  0  0  0  0
   23.4773   73.1824    0.2949 C   0  0  1  0  0  0  0  0  0  0  0  0
   22.2009   73.5855    2.2633 C   0  0  1  0  0  0  0  0  0  0  0  0
   21.6793   69.5636    0.3738 H   0  0  0  0  0  0  0  0  0  0  0  0
   22.9629   70.2276   -0.9744 H   0  0  0  0  0  0  0  0  0  0  0  0
   20.1111   71.1806    2.9168 H   0  0  0  0  0  0  0  0  0  0  0  0
   23.7654   74.0531    3.9472 O   0  0  0  0  0  0  0  0  0  0  0  0
   21.6026   74.6594    4.3394 O   0  0  0  0  0  0  0  0  0  0  0  0
   22.4538   74.1593    3.6195 C   0  0  0  0  0  0  0  0  0  0  0  0
  1  4  1  0
  1 24  1  0
  1  2  1  6
  1  3  2  0
 25 28  1  0
 25 24  1  0
 25 26  1  1
 25 27  2  0
  6 11  1  0
  6 12  1  0
 29 36  1  0
 29 37  1  0
  9  7  1  1
  7 13  1  0
 10  8  1  1
  8 14  1  0
  4  5  1  0
 36 28  1  6
 33 30  1  1
 30 38  1  0
 34 31  1  6
 31 39  1  0
 35 32  1  6
 32 40  1  0
 41 43  1  0
 15 19  2  0
 42 43  2  0
 16 22  2  0
 12 17  1  6
 17 19  1  0
 17 20  1  0
 18 19  1  0
 18 22  1  0
 18 23  1  0
  9 10  1  0
  9 11  1  0
 10 12  1  0
 11  5  1  6
 33 34  1  0
 33 35  1  0
 34 36  1  0
 35 37  1  0
 37 43  1  1
 20 21  2  0
 21 22  1  0
M  CHG  3   2  -1  26  -1  41  -1
M  END
>  <COMPND>  (86) 
    udp_gluA.pdb 

>  <AUTHOR>  (86) 
    GENERATED BY OPEN BABEL 3.1.1

>  <MASTER>  (86) 
        0    0    0    0    0    0    0    0   56    0   56    0

>  <minimizedAffinity>  (86) 
-7.55192

>  <CNNscore>  (86) 
0.8432739377

>  <CNNaffinity>  (86) 
4.6522607803

>  <CNN_VS>  (86) 
3.9231302738

>  <CNNaffinity_variance>  (86) 
0.0350273624

$$$$
87
     RDKit          3D

 43 45  0  0  0  0  0  0  0  0999 V2000
   22.3135   73.1810   -4.7383 P   0  0  2  0  0  0  0  0  0  0  0  0
   21.1401   74.1879   -5.2162 O   0  0  0  0  0  0  0  0  0  0  0  0
   22.9482   72.3806   -5.8375 O   0  0  0  0  0  0  0  0  0  0  0  0
   21.6288   72.3230   -3.5496 O   0  0  0  0  0  0  0  0  0  0  0  0
   20.8753   71.1744   -3.8924 C   0  0  0  0  0  0  0  0  0  0  0  0
   18.8245   71.9482   -4.8790 O   0  0  0  0  0  0  0  0  0  0  0  0
   17.4351   70.6364   -2.5681 O   0  0  0  0  0  0  0  0  0  0  0  0
   17.0847   68.8278   -4.5787 O   0  0  0  0  0  0  0  0  0  0  0  0
   18.5998   70.2161   -3.2790 C   0  0  1  0  0  0  0  0  0  0  0  0
   18.2160   69.6711   -4.6384 C   0  0  2  0  0  0  0  0  0  0  0  0
   19.3989   71.4585   -3.6479 C   0  0  1  0  0  0  0  0  0  0  0  0
   17.9559   70.9436   -5.4264 C   0  0  2  0  0  0  0  0  0  0  0  0
   16.9084   69.8595   -2.3217 H   0  0  0  0  0  0  0  0  0  0  0  0
   17.3013   68.0320   -4.0670 H   0  0  0  0  0  0  0  0  0  0  0  0
   16.1062   69.9953   -7.3384 O   0  0  0  0  0  0  0  0  0  0  0  0
   19.1638   70.3965  -10.7639 O   0  0  0  0  0  0  0  0  0  0  0  0
   18.2422   70.7903   -6.8247 N   0  0  0  0  0  0  0  0  0  0  0  0
   17.6311   70.1951   -9.0425 N   0  0  0  0  0  0  0  0  0  0  0  0
   17.2426   70.3055   -7.7009 C   0  0  0  0  0  0  0  0  0  0  0  0
   19.4998   71.1200   -7.3154 C   0  0  0  0  0  0  0  0  0  0  0  0
   19.8554   71.0095   -8.5969 C   0  0  0  0  0  0  0  0  0  0  0  0
   18.8697   70.5098   -9.5778 C   0  0  0  0  0  0  0  0  0  0  0  0
   16.9527   69.8578   -9.6712 H   0  0  0  0  0  0  0  0  0  0  0  0
   23.3280   74.1571   -3.9440 O   0  0  0  0  0  0  0  0  0  0  0  0
   24.2421   75.3859   -4.4616 P   0  0  2  0  0  0  0  0  0  0  0  0
   25.7422   74.9225   -4.0675 O   0  0  0  0  0  0  0  0  0  0  0  0
   23.8436   76.7245   -3.9109 O   0  0  0  0  0  0  0  0  0  0  0  0
   24.1937   75.2826   -6.0708 O   0  0  0  0  0  0  0  0  0  0  0  0
   24.4199   77.4462   -7.0072 O   0  0  0  0  0  0  0  0  0  0  0  0
   23.8947   75.1205  -10.3811 O   0  0  0  0  0  0  0  0  0  0  0  0
   22.2841   74.6464   -7.9904 O   0  0  0  0  0  0  0  0  0  0  0  0
   26.5355   76.1259   -9.6985 O   0  0  0  0  0  0  0  0  0  0  0  0
   24.3280   75.4092   -9.0519 C   0  0  2  0  0  0  0  0  0  0  0  0
   23.1212   75.7797   -8.1894 C   0  0  2  0  0  0  0  0  0  0  0  0
   25.3132   76.5783   -9.1191 C   0  0  1  0  0  0  0  0  0  0  0  0
   23.5658   76.3158   -6.8279 C   0  0  1  0  0  0  0  0  0  0  0  0
   25.6092   77.1379   -7.7307 C   0  0  1  0  0  0  0  0  0  0  0  0
   23.2675   74.3805  -10.3634 H   0  0  0  0  0  0  0  0  0  0  0  0
   21.9985   74.3009   -8.8503 H   0  0  0  0  0  0  0  0  0  0  0  0
   26.3610   75.7671  -10.5826 H   0  0  0  0  0  0  0  0  0  0  0  0
   27.5903   78.3031   -8.1989 O   0  0  0  0  0  0  0  0  0  0  0  0
   25.7700   79.5420   -7.6066 O   0  0  0  0  0  0  0  0  0  0  0  0
   26.2957   78.4614   -7.8275 C   0  0  0  0  0  0  0  0  0  0  0  0
  1  4  1  0
  1 24  1  0
  1  2  1  6
  1  3  2  0
 25 28  1  0
 25 24  1  0
 25 26  1  1
 25 27  2  0
  6 11  1  0
  6 12  1  0
 29 36  1  0
 29 37  1  0
  9  7  1  1
  7 13  1  0
 10  8  1  1
  8 14  1  0
  4  5  1  0
 36 28  1  6
 33 30  1  6
 30 38  1  0
 34 31  1  1
 31 39  1  0
 35 32  1  1
 32 40  1  0
 41 43  1  0
 15 19  2  0
 42 43  2  0
 16 22  2  0
 12 17  1  6
 17 19  1  0
 17 20  1  0
 18 19  1  0
 18 22  1  0
 18 23  1  0
  9 10  1  0
  9 11  1  0
 10 12  1  0
 11  5  1  6
 33 34  1  0
 33 35  1  0
 34 36  1  0
 35 37  1  0
 37 43  1  6
 20 21  2  0
 21 22  1  0
M  CHG  3   2  -1  26  -1  41  -1
M  END
>  <COMPND>  (87) 
    udp_gluA.pdb 

>  <AUTHOR>  (87) 
    GENERATED BY OPEN BABEL 3.1.1

>  <MASTER>  (87) 
        0    0    0    0    0    0    0    0   56    0   56    0

>  <minimizedAffinity>  (87) 
-6.64643

>  <CNNscore>  (87) 
0.7933431268

>  <CNNaffinity>  (87) 
4.5482726097

>  <CNN_VS>  (87) 
3.6083407402

>  <CNNaffinity_variance>  (87) 
0.2339224815

$$$$
88
     RDKit          3D

 43 45  0  0  0  0  0  0  0  0999 V2000
   23.5464   73.6667   -3.9390 P   0  0  2  0  0  0  0  0  0  0  0  0
   24.2681   72.2234   -4.0604 O   0  0  0  0  0  0  0  0  0  0  0  0
   24.2921   74.8033   -4.5745 O   0  0  0  0  0  0  0  0  0  0  0  0
   23.2479   73.8199   -2.3562 O   0  0  0  0  0  0  0  0  0  0  0  0
   21.9274   73.6046   -1.8933 C   0  0  0  0  0  0  0  0  0  0  0  0
   23.0091   71.6716   -0.9599 O   0  0  0  0  0  0  0  0  0  0  0  0
   20.2561   70.5463   -0.5772 O   0  0  0  0  0  0  0  0  0  0  0  0
   20.8897   71.4339    1.9221 O   0  0  0  0  0  0  0  0  0  0  0  0
   20.7051   71.8964   -0.4578 C   0  0  1  0  0  0  0  0  0  0  0  0
   21.4977   72.0741    0.8199 C   0  0  2  0  0  0  0  0  0  0  0  0
   21.7640   72.1355   -1.5255 C   0  0  1  0  0  0  0  0  0  0  0  0
   22.8354   71.4563    0.4497 C   0  0  2  0  0  0  0  0  0  0  0  0
   19.5788   70.3698    0.0949 H   0  0  0  0  0  0  0  0  0  0  0  0
   20.0419   71.8636    2.1184 H   0  0  0  0  0  0  0  0  0  0  0  0
   24.7329   70.0264    1.9765 O   0  0  0  0  0  0  0  0  0  0  0  0
   26.9984   73.8785    3.1048 O   0  0  0  0  0  0  0  0  0  0  0  0
   23.9314   72.0606    1.1528 N   0  0  0  0  0  0  0  0  0  0  0  0
   25.8588   71.9465    2.5378 N   0  0  0  0  0  0  0  0  0  0  0  0
   24.8279   71.2522    1.8910 C   0  0  0  0  0  0  0  0  0  0  0  0
   24.1107   73.4377    1.1059 C   0  0  0  0  0  0  0  0  0  0  0  0
   25.0982   74.0851    1.7275 C   0  0  0  0  0  0  0  0  0  0  0  0
   26.0779   73.3144    2.5211 C   0  0  0  0  0  0  0  0  0  0  0  0
   26.4944   71.4052    3.0597 H   0  0  0  0  0  0  0  0  0  0  0  0
   22.0797   73.3924   -4.5605 O   0  0  0  0  0  0  0  0  0  0  0  0
   21.5399   73.4724   -6.0823 P   0  0  2  0  0  0  0  0  0  0  0  0
   22.6529   72.6416   -6.9137 O   0  0  0  0  0  0  0  0  0  0  0  0
   21.3103   74.8694   -6.5817 O   0  0  0  0  0  0  0  0  0  0  0  0
   20.2302   72.5307   -6.1020 O   0  0  0  0  0  0  0  0  0  0  0  0
   19.8386   70.3619   -5.2346 O   0  0  0  0  0  0  0  0  0  0  0  0
   17.5520   70.3167   -8.6752 O   0  0  0  0  0  0  0  0  0  0  0  0
   20.2215   71.5034   -8.6867 O   0  0  0  0  0  0  0  0  0  0  0  0
   16.2760   70.6018   -6.0787 O   0  0  0  0  0  0  0  0  0  0  0  0
   18.1743   70.9025   -7.5317 C   0  0  2  0  0  0  0  0  0  0  0  0
   19.6896   70.7206   -7.6242 C   0  0  2  0  0  0  0  0  0  0  0  0
   17.6293   70.2012   -6.2854 C   0  0  1  0  0  0  0  0  0  0  0  0
   20.3703   71.1274   -6.3166 C   0  0  1  0  0  0  0  0  0  0  0  0
   18.4398   70.5619   -5.0439 C   0  0  1  0  0  0  0  0  0  0  0  0
   17.8831   70.7466   -9.4794 H   0  0  0  0  0  0  0  0  0  0  0  0
   19.7937   71.2507   -9.5195 H   0  0  0  0  0  0  0  0  0  0  0  0
   15.7493   70.3780   -6.8619 H   0  0  0  0  0  0  0  0  0  0  0  0
   17.2596   68.6697   -4.3171 O   0  0  0  0  0  0  0  0  0  0  0  0
   18.5686   69.7321   -2.7819 O   0  0  0  0  0  0  0  0  0  0  0  0
   18.1198   69.6376   -3.9145 C   0  0  0  0  0  0  0  0  0  0  0  0
  1  4  1  0
  1 24  1  0
  1  2  1  1
  1  3  2  0
 25 28  1  0
 25 24  1  0
 25 26  1  6
 25 27  2  0
  6 11  1  0
  6 12  1  0
 29 36  1  0
 29 37  1  0
  9  7  1  6
  7 13  1  0
 10  8  1  1
  8 14  1  0
  4  5  1  0
 36 28  1  1
 33 30  1  6
 30 38  1  0
 34 31  1  6
 31 39  1  0
 35 32  1  1
 32 40  1  0
 41 43  1  0
 15 19  2  0
 42 43  2  0
 16 22  2  0
 12 17  1  1
 17 19  1  0
 17 20  1  0
 18 19  1  0
 18 22  1  0
 18 23  1  0
  9 10  1  0
  9 11  1  0
 10 12  1  0
 11  5  1  1
 33 34  1  0
 33 35  1  0
 34 36  1  0
 35 37  1  0
 37 43  1  1
 20 21  2  0
 21 22  1  0
M  CHG  3   2  -1  26  -1  41  -1
M  END
>  <COMPND>  (88) 
    udp_gluA.pdb 

>  <AUTHOR>  (88) 
    GENERATED BY OPEN BABEL 3.1.1

>  <MASTER>  (88) 
        0    0    0    0    0    0    0    0   56    0   56    0

>  <minimizedAffinity>  (88) 
-7.73969

>  <CNNscore>  (88) 
0.7435050011

>  <CNNaffinity>  (88) 
4.5212240219

>  <CNN_VS>  (88) 
3.3615527153

>  <CNNaffinity_variance>  (88) 
0.0830859989

$$$$
89
     RDKit          3D

 43 45  0  0  0  0  0  0  0  0999 V2000
   21.9863   72.5577   -5.8934 P   0  0  2  0  0  0  0  0  0  0  0  0
   21.2015   73.8636   -5.3480 O   0  0  0  0  0  0  0  0  0  0  0  0
   23.1306   72.8473   -6.8200 O   0  0  0  0  0  0  0  0  0  0  0  0
   20.8121   71.6229   -6.4978 O   0  0  0  0  0  0  0  0  0  0  0  0
   20.2706   71.9515   -7.7640 C   0  0  0  0  0  0  0  0  0  0  0  0
   19.0716   69.9390   -7.2256 O   0  0  0  0  0  0  0  0  0  0  0  0
   18.0813   69.9933  -10.0554 O   0  0  0  0  0  0  0  0  0  0  0  0
   15.9572   70.9843   -8.6617 O   0  0  0  0  0  0  0  0  0  0  0  0
   18.3340   71.0808   -9.1655 C   0  0  1  0  0  0  0  0  0  0  0  0
   17.2471   71.1616   -8.1146 C   0  0  2  0  0  0  0  0  0  0  0  0
   19.5585   70.7302   -8.3312 C   0  0  1  0  0  0  0  0  0  0  0  0
   17.6399   70.0402   -7.1678 C   0  0  2  0  0  0  0  0  0  0  0  0
   17.3031   70.1942  -10.5992 H   0  0  0  0  0  0  0  0  0  0  0  0
   15.7541   71.7236   -9.2568 H   0  0  0  0  0  0  0  0  0  0  0  0
   16.3196   68.1805   -5.5020 O   0  0  0  0  0  0  0  0  0  0  0  0
   16.1714   71.1582   -1.9870 O   0  0  0  0  0  0  0  0  0  0  0  0
   17.2447   70.3033   -5.8130 N   0  0  0  0  0  0  0  0  0  0  0  0
   16.2462   69.6657   -3.7533 N   0  0  0  0  0  0  0  0  0  0  0  0
   16.5866   69.3005   -5.0624 C   0  0  0  0  0  0  0  0  0  0  0  0
   17.5107   71.5414   -5.2409 C   0  0  0  0  0  0  0  0  0  0  0  0
   17.1802   71.8747   -3.9917 C   0  0  0  0  0  0  0  0  0  0  0  0
   16.4890   70.8843   -3.1404 C   0  0  0  0  0  0  0  0  0  0  0  0
   15.7853   68.9847   -3.2118 H   0  0  0  0  0  0  0  0  0  0  0  0
   22.3995   71.7882   -4.5333 O   0  0  0  0  0  0  0  0  0  0  0  0
   23.5551   72.0999   -3.4465 P   0  0  2  0  0  0  0  0  0  0  0  0
   24.4913   73.1826   -4.2025 O   0  0  0  0  0  0  0  0  0  0  0  0
   24.2867   70.8829   -2.9593 O   0  0  0  0  0  0  0  0  0  0  0  0
   22.8117   72.9423   -2.2888 O   0  0  0  0  0  0  0  0  0  0  0  0
   21.7176   71.5906   -0.6810 O   0  0  0  0  0  0  0  0  0  0  0  0
   20.3946   75.3651    0.3536 O   0  0  0  0  0  0  0  0  0  0  0  0
   20.5648   74.5733   -2.4532 O   0  0  0  0  0  0  0  0  0  0  0  0
   22.4298   74.0428    1.9537 O   0  0  0  0  0  0  0  0  0  0  0  0
   21.3176   74.4013   -0.1533 C   0  0  2  0  0  0  0  0  0  0  0  0
   20.6994   73.6819   -1.3524 C   0  0  2  0  0  0  0  0  0  0  0  0
   21.6225   73.4039    0.9666 C   0  0  1  0  0  0  0  0  0  0  0  0
   21.5587   72.4907   -1.7783 C   0  0  1  0  0  0  0  0  0  0  0  0
   22.3724   72.1846    0.4377 C   0  0  1  0  0  0  0  0  0  0  0  0
   20.1859   76.0097   -0.3408 H   0  0  0  0  0  0  0  0  0  0  0  0
   20.0208   75.3318   -2.1900 H   0  0  0  0  0  0  0  0  0  0  0  0
   21.9640   74.8207    2.2983 H   0  0  0  0  0  0  0  0  0  0  0  0
   21.4173   70.1680    1.1606 O   0  0  0  0  0  0  0  0  0  0  0  0
   23.1334   71.0105    2.4033 O   0  0  0  0  0  0  0  0  0  0  0  0
   22.3750   71.0841    1.4482 C   0  0  0  0  0  0  0  0  0  0  0  0
  1  4  1  0
  1 24  1  0
  1  2  1  1
  1  3  2  0
 25 28  1  0
 25 24  1  0
 25 26  1  6
 25 27  2  0
  6 11  1  0
  6 12  1  0
 29 36  1  0
 29 37  1  0
  9  7  1  6
  7 13  1  0
 10  8  1  6
  8 14  1  0
  4  5  1  0
 36 28  1  1
 33 30  1  1
 30 38  1  0
 34 31  1  6
 31 39  1  0
 35 32  1  1
 32 40  1  0
 41 43  1  0
 15 19  2  0
 42 43  2  0
 16 22  2  0
 12 17  1  1
 17 19  1  0
 17 20  1  0
 18 19  1  0
 18 22  1  0
 18 23  1  0
  9 10  1  0
  9 11  1  0
 10 12  1  0
 11  5  1  1
 33 34  1  0
 33 35  1  0
 34 36  1  0
 35 37  1  0
 37 43  1  1
 20 21  2  0
 21 22  1  0
M  CHG  3   2  -1  26  -1  41  -1
M  END
>  <COMPND>  (89) 
    udp_gluA.pdb 

>  <AUTHOR>  (89) 
    GENERATED BY OPEN BABEL 3.1.1

>  <MASTER>  (89) 
        0    0    0    0    0    0    0    0   56    0   56    0

>  <minimizedAffinity>  (89) 
-8.10901

>  <CNNscore>  (89) 
0.7406072021

>  <CNNaffinity>  (89) 
4.5305986404

>  <CNN_VS>  (89) 
3.3553938866

>  <CNNaffinity_variance>  (89) 
0.3252170682

$$$$
90
     RDKit          3D

 43 45  0  0  0  0  0  0  0  0999 V2000
   22.4415   71.8510   -3.4376 P   0  0  2  0  0  0  0  0  0  0  0  0
   21.5201   70.5257   -3.3218 O   0  0  0  0  0  0  0  0  0  0  0  0
   23.9052   71.5893   -3.6402 O   0  0  0  0  0  0  0  0  0  0  0  0
   22.0567   72.7081   -2.1203 O   0  0  0  0  0  0  0  0  0  0  0  0
   22.9936   72.7772   -1.0611 C   0  0  0  0  0  0  0  0  0  0  0  0
   24.1665   71.3228    0.4510 O   0  0  0  0  0  0  0  0  0  0  0  0
   21.4789   70.1961    1.1574 O   0  0  0  0  0  0  0  0  0  0  0  0
   21.9867   71.8782    3.2428 O   0  0  0  0  0  0  0  0  0  0  0  0
   21.8400   71.5403    0.8394 C   0  0  1  0  0  0  0  0  0  0  0  0
   22.5843   72.1710    1.9972 C   0  0  2  0  0  0  0  0  0  0  0  0
   22.9113   71.4958   -0.2416 C   0  0  1  0  0  0  0  0  0  0  0  0
   23.9674   71.5591    1.8538 C   0  0  2  0  0  0  0  0  0  0  0  0
   20.7954   70.1989    1.8463 H   0  0  0  0  0  0  0  0  0  0  0  0
   21.1088   72.2899    3.2850 H   0  0  0  0  0  0  0  0  0  0  0  0
   26.6233   70.7455    2.3646 O   0  0  0  0  0  0  0  0  0  0  0  0
   27.8604   74.9836    3.6883 O   0  0  0  0  0  0  0  0  0  0  0  0
   25.0040   72.4293    2.3325 N   0  0  0  0  0  0  0  0  0  0  0  0
   27.2366   72.8568    3.0244 N   0  0  0  0  0  0  0  0  0  0  0  0
   26.3050   71.9205    2.5570 C   0  0  0  0  0  0  0  0  0  0  0  0
   24.7281   73.7699    2.5728 C   0  0  0  0  0  0  0  0  0  0  0  0
   25.6266   74.6503    3.0181 C   0  0  0  0  0  0  0  0  0  0  0  0
   27.0094   74.1997    3.2788 C   0  0  0  0  0  0  0  0  0  0  0  0
   28.1488   72.5256    3.1900 H   0  0  0  0  0  0  0  0  0  0  0  0
   21.7345   72.6813   -4.6307 O   0  0  0  0  0  0  0  0  0  0  0  0
   20.1992   73.1438   -4.8371 P   0  0  2  0  0  0  0  0  0  0  0  0
   20.3251   74.7354   -5.1041 O   0  0  0  0  0  0  0  0  0  0  0  0
   19.2878   72.7774   -3.7018 O   0  0  0  0  0  0  0  0  0  0  0  0
   19.7734   72.5240   -6.2643 O   0  0  0  0  0  0  0  0  0  0  0  0
   19.0757   70.2813   -5.9601 O   0  0  0  0  0  0  0  0  0  0  0  0
   18.7467   70.7158  -10.0553 O   0  0  0  0  0  0  0  0  0  0  0  0
   21.0499   71.8107   -8.6303 O   0  0  0  0  0  0  0  0  0  0  0  0
   16.3638   70.7318   -8.3901 O   0  0  0  0  0  0  0  0  0  0  0  0
   18.7186   71.1422   -8.6932 C   0  0  2  0  0  0  0  0  0  0  0  0
   20.0933   70.9248   -8.0604 C   0  0  2  0  0  0  0  0  0  0  0  0
   17.6589   70.3159   -7.9608 C   0  0  1  0  0  0  0  0  0  0  0  0
   20.0421   71.1523   -6.5490 C   0  0  1  0  0  0  0  0  0  0  0  0
   17.7545   70.5013   -6.4492 C   0  0  1  0  0  0  0  0  0  0  0  0
   19.4132   71.2272  -10.5407 H   0  0  0  0  0  0  0  0  0  0  0  0
   21.0874   71.6719   -9.5893 H   0  0  0  0  0  0  0  0  0  0  0  0
   16.2899   70.6190   -9.3507 H   0  0  0  0  0  0  0  0  0  0  0  0
   17.2166   69.4846   -4.4051 O   0  0  0  0  0  0  0  0  0  0  0  0
   16.1694   68.6913   -6.2687 O   0  0  0  0  0  0  0  0  0  0  0  0
   16.9549   69.4605   -5.7354 C   0  0  0  0  0  0  0  0  0  0  0  0
  1  4  1  0
  1 24  1  0
  1  2  1  1
  1  3  2  0
 25 28  1  0
 25 24  1  0
 25 26  1  6
 25 27  2  0
  6 11  1  0
  6 12  1  0
 29 36  1  0
 29 37  1  0
  9  7  1  1
  7 13  1  0
 10  8  1  1
  8 14  1  0
  4  5  1  0
 36 28  1  6
 33 30  1  6
 30 38  1  0
 34 31  1  6
 31 39  1  0
 35 32  1  6
 32 40  1  0
 41 43  1  0
 15 19  2  0
 42 43  2  0
 16 22  2  0
 12 17  1  6
 17 19  1  0
 17 20  1  0
 18 19  1  0
 18 22  1  0
 18 23  1  0
  9 10  1  0
  9 11  1  0
 10 12  1  0
 11  5  1  1
 33 34  1  0
 33 35  1  0
 34 36  1  0
 35 37  1  0
 37 43  1  1
 20 21  2  0
 21 22  1  0
M  CHG  3   2  -1  26  -1  41  -1
M  END
>  <COMPND>  (90) 
    udp_gluA.pdb 

>  <AUTHOR>  (90) 
    GENERATED BY OPEN BABEL 3.1.1

>  <MASTER>  (90) 
        0    0    0    0    0    0    0    0   56    0   56    0

>  <minimizedAffinity>  (90) 
-7.99090

>  <CNNscore>  (90) 
0.7386397123

>  <CNNaffinity>  (90) 
4.4734015465

>  <CNN_VS>  (90) 
3.3042321205

>  <CNNaffinity_variance>  (90) 
0.0893529728

$$$$
91
     RDKit          3D

 43 45  0  0  0  0  0  0  0  0999 V2000
   22.9542   72.7256   -3.7077 P   0  0  2  0  0  0  0  0  0  0  0  0
   22.2470   71.2814   -3.5266 O   0  0  0  0  0  0  0  0  0  0  0  0
   24.3635   72.6810   -4.2211 O   0  0  0  0  0  0  0  0  0  0  0  0
   22.7524   73.4400   -2.2701 O   0  0  0  0  0  0  0  0  0  0  0  0
   21.8016   74.4834   -2.1611 C   0  0  0  0  0  0  0  0  0  0  0  0
   21.0087   72.7533   -0.6927 O   0  0  0  0  0  0  0  0  0  0  0  0
   18.9236   74.7180    0.1928 O   0  0  0  0  0  0  0  0  0  0  0  0
   20.7528   74.8401    2.2115 O   0  0  0  0  0  0  0  0  0  0  0  0
   20.2847   74.9478   -0.1721 C   0  0  1  0  0  0  0  0  0  0  0  0
   21.2098   74.4705    0.9273 C   0  0  2  0  0  0  0  0  0  0  0  0
   20.6313   74.0014   -1.3134 C   0  0  1  0  0  0  0  0  0  0  0  0
   21.2027   72.9663    0.7145 C   0  0  2  0  0  0  0  0  0  0  0  0
   18.6790   75.3115    0.9205 H   0  0  0  0  0  0  0  0  0  0  0  0
   20.7765   75.8065    2.2973 H   0  0  0  0  0  0  0  0  0  0  0  0
   21.5142   70.2071    1.2302 O   0  0  0  0  0  0  0  0  0  0  0  0
   25.9823   70.7144    2.2417 O   0  0  0  0  0  0  0  0  0  0  0  0
   22.4364   72.3506    1.1142 N   0  0  0  0  0  0  0  0  0  0  0  0
   23.7390   70.4625    1.7345 N   0  0  0  0  0  0  0  0  0  0  0  0
   22.4858   70.9560    1.3486 C   0  0  0  0  0  0  0  0  0  0  0  0
   23.5800   73.1248    1.2684 C   0  0  0  0  0  0  0  0  0  0  0  0
   24.7675   72.6401    1.6367 C   0  0  0  0  0  0  0  0  0  0  0  0
   24.9044   71.1929    1.9018 C   0  0  0  0  0  0  0  0  0  0  0  0
   23.7977   69.4947    1.9053 H   0  0  0  0  0  0  0  0  0  0  0  0
   21.9163   73.5213   -4.6578 O   0  0  0  0  0  0  0  0  0  0  0  0
   21.5710   73.3523   -6.2281 P   0  0  2  0  0  0  0  0  0  0  0  0
   22.7478   72.3778   -6.7627 O   0  0  0  0  0  0  0  0  0  0  0  0
   21.4543   74.6488   -6.9760 O   0  0  0  0  0  0  0  0  0  0  0  0
   20.2412   72.4396   -6.2588 O   0  0  0  0  0  0  0  0  0  0  0  0
   19.7168   70.2610   -5.4920 O   0  0  0  0  0  0  0  0  0  0  0  0
   17.6796   70.4013   -9.0834 O   0  0  0  0  0  0  0  0  0  0  0  0
   20.3814   71.4918   -8.8699 O   0  0  0  0  0  0  0  0  0  0  0  0
   16.2330   70.6533   -6.5745 O   0  0  0  0  0  0  0  0  0  0  0  0
   18.2385   70.9297   -7.8808 C   0  0  2  0  0  0  0  0  0  0  0  0
   19.7496   70.6967   -7.8732 C   0  0  2  0  0  0  0  0  0  0  0  0
   17.5833   70.2110   -6.6992 C   0  0  1  0  0  0  0  0  0  0  0  0
   20.3491   71.0394   -6.5087 C   0  0  1  0  0  0  0  0  0  0  0  0
   18.3154   70.5049   -5.3930 C   0  0  1  0  0  0  0  0  0  0  0  0
   18.0811   70.8431   -9.8482 H   0  0  0  0  0  0  0  0  0  0  0  0
   20.0056   71.2797   -9.7383 H   0  0  0  0  0  0  0  0  0  0  0  0
   15.7559   70.4722   -7.3994 H   0  0  0  0  0  0  0  0  0  0  0  0
   18.9125   69.2949   -3.4744 O   0  0  0  0  0  0  0  0  0  0  0  0
   16.7641   69.0860   -4.2091 O   0  0  0  0  0  0  0  0  0  0  0  0
   17.8853   69.5591   -4.3194 C   0  0  0  0  0  0  0  0  0  0  0  0
  1  4  1  0
  1 24  1  0
  1  2  1  1
  1  3  2  0
 25 28  1  0
 25 24  1  0
 25 26  1  6
 25 27  2  0
  6 11  1  0
  6 12  1  0
 29 36  1  0
 29 37  1  0
  9  7  1  1
  7 13  1  0
 10  8  1  1
  8 14  1  0
  4  5  1  0
 36 28  1  1
 33 30  1  6
 30 38  1  0
 34 31  1  6
 31 39  1  0
 35 32  1  1
 32 40  1  0
 41 43  1  0
 15 19  2  0
 42 43  2  0
 16 22  2  0
 12 17  1  6
 17 19  1  0
 17 20  1  0
 18 19  1  0
 18 22  1  0
 18 23  1  0
  9 10  1  0
  9 11  1  0
 10 12  1  0
 11  5  1  1
 33 34  1  0
 33 35  1  0
 34 36  1  0
 35 37  1  0
 37 43  1  1
 20 21  2  0
 21 22  1  0
M  CHG  3   2  -1  26  -1  41  -1
M  END
>  <COMPND>  (91) 
    udp_gluA.pdb 

>  <AUTHOR>  (91) 
    GENERATED BY OPEN BABEL 3.1.1

>  <MASTER>  (91) 
        0    0    0    0    0    0    0    0   56    0   56    0

>  <minimizedAffinity>  (91) 
-7.73533

>  <CNNscore>  (91) 
0.7180128098

>  <CNNaffinity>  (91) 
4.5997982025

>  <CNN_VS>  (91) 
3.3027141094

>  <CNNaffinity_variance>  (91) 
0.0479495749

$$$$
92
     RDKit          3D

 43 45  0  0  0  0  0  0  0  0999 V2000
   21.9506   72.5091   -5.7129 P   0  0  2  0  0  0  0  0  0  0  0  0
   21.1285   73.8619   -5.3765 O   0  0  0  0  0  0  0  0  0  0  0  0
   23.2153   72.7141   -6.4942 O   0  0  0  0  0  0  0  0  0  0  0  0
   20.8480   71.5454   -6.4009 O   0  0  0  0  0  0  0  0  0  0  0  0
   20.5845   71.6988   -7.7835 C   0  0  0  0  0  0  0  0  0  0  0  0
   19.1282   69.9238   -7.0719 O   0  0  0  0  0  0  0  0  0  0  0  0
   18.0258   69.9614   -9.8602 O   0  0  0  0  0  0  0  0  0  0  0  0
   16.1385   71.3393   -8.4547 O   0  0  0  0  0  0  0  0  0  0  0  0
   18.4774   71.0485   -9.0524 C   0  0  1  0  0  0  0  0  0  0  0  0
   17.4645   71.3525   -7.9689 C   0  0  2  0  0  0  0  0  0  0  0  0
   19.6743   70.5673   -8.2436 C   0  0  1  0  0  0  0  0  0  0  0  0
   17.7314   70.2420   -6.9672 C   0  0  2  0  0  0  0  0  0  0  0  0
   17.2612   70.2448  -10.3863 H   0  0  0  0  0  0  0  0  0  0  0  0
   16.0191   72.0648   -9.0882 H   0  0  0  0  0  0  0  0  0  0  0  0
   16.4514   68.5994   -5.0592 O   0  0  0  0  0  0  0  0  0  0  0  0
   16.6757   71.8725   -1.8218 O   0  0  0  0  0  0  0  0  0  0  0  0
   17.4429   70.6397   -5.6183 N   0  0  0  0  0  0  0  0  0  0  0  0
   16.5634   70.2315   -3.4489 N   0  0  0  0  0  0  0  0  0  0  0  0
   16.7961   69.7387   -4.7397 C   0  0  0  0  0  0  0  0  0  0  0  0
   17.8009   71.9080   -5.1776 C   0  0  0  0  0  0  0  0  0  0  0  0
   17.5726   72.3635   -3.9442 C   0  0  0  0  0  0  0  0  0  0  0  0
   16.9004   71.4851   -2.9645 C   0  0  0  0  0  0  0  0  0  0  0  0
   16.1125   69.6230   -2.8199 H   0  0  0  0  0  0  0  0  0  0  0  0
   22.1599   71.8400   -4.2564 O   0  0  0  0  0  0  0  0  0  0  0  0
   23.2998   72.0748   -3.1343 P   0  0  2  0  0  0  0  0  0  0  0  0
   23.9437   73.4995   -3.5538 O   0  0  0  0  0  0  0  0  0  0  0  0
   24.2942   70.9555   -3.0231 O   0  0  0  0  0  0  0  0  0  0  0  0
   22.4820   72.3811   -1.7779 O   0  0  0  0  0  0  0  0  0  0  0  0
   23.0736   70.8996   -0.0275 O   0  0  0  0  0  0  0  0  0  0  0  0
   19.9334   72.9858    1.6622 O   0  0  0  0  0  0  0  0  0  0  0  0
   19.7953   72.0963   -1.1171 O   0  0  0  0  0  0  0  0  0  0  0  0
   22.6686   73.5726    2.4531 O   0  0  0  0  0  0  0  0  0  0  0  0
   21.0725   72.8002    0.8219 C   0  0  2  0  0  0  0  0  0  0  0  0
   20.7892   71.6854   -0.1854 C   0  0  2  0  0  0  0  0  0  0  0  0
   22.2601   72.4250    1.7111 C   0  0  1  0  0  0  0  0  0  0  0  0
   22.0582   71.3014   -0.9477 C   0  0  1  0  0  0  0  0  0  0  0  0
   23.4433   71.9334    0.8823 C   0  0  1  0  0  0  0  0  0  0  0  0
   19.1661   73.2250    1.1188 H   0  0  0  0  0  0  0  0  0  0  0  0
   18.9874   72.3417   -0.6402 H   0  0  0  0  0  0  0  0  0  0  0  0
   21.9244   73.8955    2.9849 H   0  0  0  0  0  0  0  0  0  0  0  0
   25.2867   72.1859    2.3104 O   0  0  0  0  0  0  0  0  0  0  0  0
   24.5405   70.0633    1.9404 O   0  0  0  0  0  0  0  0  0  0  0  0
   24.4598   71.2678    1.7516 C   0  0  0  0  0  0  0  0  0  0  0  0
  1  4  1  0
  1 24  1  0
  1  2  1  1
  1  3  2  0
 25 28  1  0
 25 24  1  0
 25 26  1  6
 25 27  2  0
  6 11  1  0
  6 12  1  0
 29 36  1  0
 29 37  1  0
  9  7  1  6
  7 13  1  0
 10  8  1  6
  8 14  1  0
  4  5  1  0
 36 28  1  1
 33 30  1  1
 30 38  1  0
 34 31  1  6
 31 39  1  0
 35 32  1  6
 32 40  1  0
 41 43  1  0
 15 19  2  0
 42 43  2  0
 16 22  2  0
 12 17  1  1
 17 19  1  0
 17 20  1  0
 18 19  1  0
 18 22  1  0
 18 23  1  0
  9 10  1  0
  9 11  1  0
 10 12  1  0
 11  5  1  1
 33 34  1  0
 33 35  1  0
 34 36  1  0
 35 37  1  0
 37 43  1  1
 20 21  2  0
 21 22  1  0
M  CHG  3   2  -1  26  -1  41  -1
M  END
>  <COMPND>  (92) 
    udp_gluA.pdb 

>  <AUTHOR>  (92) 
    GENERATED BY OPEN BABEL 3.1.1

>  <MASTER>  (92) 
        0    0    0    0    0    0    0    0   56    0   56    0

>  <minimizedAffinity>  (92) 
-7.78983

>  <CNNscore>  (92) 
0.6794036627

>  <CNNaffinity>  (92) 
4.4345779419

>  <CNN_VS>  (92) 
3.0128684044

>  <CNNaffinity_variance>  (92) 
0.1924608648

$$$$
93
     RDKit          3D

 43 45  0  0  0  0  0  0  0  0999 V2000
   22.6487   72.5754   -4.0637 P   0  0  2  0  0  0  0  0  0  0  0  0
   22.0164   71.1766   -3.5514 O   0  0  0  0  0  0  0  0  0  0  0  0
   24.1122   72.5266   -4.3920 O   0  0  0  0  0  0  0  0  0  0  0  0
   22.2201   73.6372   -2.9206 O   0  0  0  0  0  0  0  0  0  0  0  0
   21.8485   73.1454   -1.6461 C   0  0  0  0  0  0  0  0  0  0  0  0
   22.9624   73.7551    0.3948 O   0  0  0  0  0  0  0  0  0  0  0  0
   24.6891   71.3434   -0.0454 O   0  0  0  0  0  0  0  0  0  0  0  0
   22.9090   70.4682    1.8258 O   0  0  0  0  0  0  0  0  0  0  0  0
   23.3015   71.5252   -0.3285 C   0  0  1  0  0  0  0  0  0  0  0  0
   22.4973   71.5002    0.9541 C   0  0  2  0  0  0  0  0  0  0  0  0
   23.1024   72.9586   -0.8016 C   0  0  1  0  0  0  0  0  0  0  0  0
   22.7632   72.8847    1.5200 C   0  0  2  0  0  0  0  0  0  0  0  0
   24.8410   70.4345    0.2588 H   0  0  0  0  0  0  0  0  0  0  0  0
   22.7183   69.6072    1.4205 H   0  0  0  0  0  0  0  0  0  0  0  0
   22.4081   72.3663    4.2735 O   0  0  0  0  0  0  0  0  0  0  0  0
   18.5124   74.8250    4.4205 O   0  0  0  0  0  0  0  0  0  0  0  0
   21.6650   73.3770    2.3026 N   0  0  0  0  0  0  0  0  0  0  0  0
   20.4676   73.5905    4.3439 N   0  0  0  0  0  0  0  0  0  0  0  0
   21.5800   73.0585    3.6786 C   0  0  0  0  0  0  0  0  0  0  0  0
   20.6886   74.1668    1.7077 C   0  0  0  0  0  0  0  0  0  0  0  0
   19.6341   74.6668    2.3549 C   0  0  0  0  0  0  0  0  0  0  0  0
   19.4702   74.3803    3.7952 C   0  0  0  0  0  0  0  0  0  0  0  0
   20.3857   73.3806    5.3023 H   0  0  0  0  0  0  0  0  0  0  0  0
   21.6930   72.9725   -5.3054 O   0  0  0  0  0  0  0  0  0  0  0  0
   20.1228   73.3543   -5.3565 P   0  0  2  0  0  0  0  0  0  0  0  0
   20.1343   74.9062   -5.8164 O   0  0  0  0  0  0  0  0  0  0  0  0
   19.3839   73.0943   -4.0757 O   0  0  0  0  0  0  0  0  0  0  0  0
   19.5487   72.5550   -6.6348 O   0  0  0  0  0  0  0  0  0  0  0  0
   18.8803   70.3759   -5.9915 O   0  0  0  0  0  0  0  0  0  0  0  0
   18.2148   70.2904  -10.0680 O   0  0  0  0  0  0  0  0  0  0  0  0
   20.6267   71.5349   -8.9871 O   0  0  0  0  0  0  0  0  0  0  0  0
   15.9772   70.5405   -8.2292 O   0  0  0  0  0  0  0  0  0  0  0  0
   18.2986   70.8864   -8.7735 C   0  0  2  0  0  0  0  0  0  0  0  0
   19.7210   70.7377   -8.2328 C   0  0  2  0  0  0  0  0  0  0  0  0
   17.3035   70.1700   -7.8578 C   0  0  1  0  0  0  0  0  0  0  0  0
   19.7942   71.1558   -6.7635 C   0  0  1  0  0  0  0  0  0  0  0  0
   17.5231   70.5449   -6.3950 C   0  0  1  0  0  0  0  0  0  0  0  0
   18.8387   70.7295  -10.6674 H   0  0  0  0  0  0  0  0  0  0  0  0
   20.5853   71.2752   -9.9204 H   0  0  0  0  0  0  0  0  0  0  0  0
   15.8245   70.3075   -9.1583 H   0  0  0  0  0  0  0  0  0  0  0  0
   16.2508   68.5843   -6.1980 O   0  0  0  0  0  0  0  0  0  0  0  0
   16.6771   69.7445   -4.2819 O   0  0  0  0  0  0  0  0  0  0  0  0
   16.7858   69.6108   -5.4916 C   0  0  0  0  0  0  0  0  0  0  0  0
  1  4  1  0
  1 24  1  0
  1  2  1  1
  1  3  2  0
 25 28  1  0
 25 24  1  0
 25 26  1  6
 25 27  2  0
  6 11  1  0
  6 12  1  0
 29 36  1  0
 29 37  1  0
  9  7  1  1
  7 13  1  0
 10  8  1  1
  8 14  1  0
  4  5  1  0
 36 28  1  6
 33 30  1  6
 30 38  1  0
 34 31  1  6
 31 39  1  0
 35 32  1  6
 32 40  1  0
 41 43  1  0
 15 19  2  0
 42 43  2  0
 16 22  2  0
 12 17  1  6
 17 19  1  0
 17 20  1  0
 18 19  1  0
 18 22  1  0
 18 23  1  0
  9 10  1  0
  9 11  1  0
 10 12  1  0
 11  5  1  6
 33 34  1  0
 33 35  1  0
 34 36  1  0
 35 37  1  0
 37 43  1  1
 20 21  2  0
 21 22  1  0
M  CHG  3   2  -1  26  -1  41  -1
M  END
>  <COMPND>  (93) 
    udp_gluA.pdb 

>  <AUTHOR>  (93) 
    GENERATED BY OPEN BABEL 3.1.1

>  <MASTER>  (93) 
        0    0    0    0    0    0    0    0   56    0   56    0

>  <minimizedAffinity>  (93) 
-7.06542

>  <CNNscore>  (93) 
0.6164965630

>  <CNNaffinity>  (93) 
4.3908653259

>  <CNN_VS>  (93) 
2.7069532871

>  <CNNaffinity_variance>  (93) 
0.0223689340

$$$$
94
     RDKit          3D

 43 45  0  0  0  0  0  0  0  0999 V2000
   21.6053   72.4118   -5.3282 P   0  0  2  0  0  0  0  0  0  0  0  0
   21.1924   73.8824   -5.8626 O   0  0  0  0  0  0  0  0  0  0  0  0
   23.0424   72.2658   -4.9217 O   0  0  0  0  0  0  0  0  0  0  0  0
   21.1023   71.4169   -6.5008 O   0  0  0  0  0  0  0  0  0  0  0  0
   20.0953   71.8705   -7.3866 C   0  0  0  0  0  0  0  0  0  0  0  0
   18.6891   69.9911   -6.8691 O   0  0  0  0  0  0  0  0  0  0  0  0
   18.0278   69.9178   -9.7929 O   0  0  0  0  0  0  0  0  0  0  0  0
   15.8463   71.1525   -8.7194 O   0  0  0  0  0  0  0  0  0  0  0  0
   18.2646   71.0441   -8.9480 C   0  0  1  0  0  0  0  0  0  0  0  0
   17.0771   71.2753   -8.0377 C   0  0  2  0  0  0  0  0  0  0  0  0
   19.3570   70.6664   -7.9569 C   0  0  1  0  0  0  0  0  0  0  0  0
   17.2723   70.1978   -6.9847 C   0  0  2  0  0  0  0  0  0  0  0  0
   17.3333   70.1351  -10.4349 H   0  0  0  0  0  0  0  0  0  0  0  0
   15.7696   71.8610   -9.3784 H   0  0  0  0  0  0  0  0  0  0  0  0
   16.5793   68.3829   -4.9348 O   0  0  0  0  0  0  0  0  0  0  0  0
   15.2793   71.7858   -2.1110 O   0  0  0  0  0  0  0  0  0  0  0  0
   16.7505   70.5824   -5.7039 N   0  0  0  0  0  0  0  0  0  0  0  0
   15.9315   70.0794   -3.5307 N   0  0  0  0  0  0  0  0  0  0  0  0
   16.4341   69.5918   -4.7443 C   0  0  0  0  0  0  0  0  0  0  0  0
   16.5587   71.9265   -5.4083 C   0  0  0  0  0  0  0  0  0  0  0  0
   16.0789   72.3760   -4.2470 C   0  0  0  0  0  0  0  0  0  0  0  0
   15.7226   71.4062   -3.1906 C   0  0  0  0  0  0  0  0  0  0  0  0
   15.7021   69.4085   -2.8477 H   0  0  0  0  0  0  0  0  0  0  0  0
   20.5397   72.1442   -4.1425 O   0  0  0  0  0  0  0  0  0  0  0  0
   20.2750   70.8373   -3.2284 P   0  0  2  0  0  0  0  0  0  0  0  0
   20.7024   69.6143   -4.1989 O   0  0  0  0  0  0  0  0  0  0  0  0
   18.8785   70.7376   -2.6864 O   0  0  0  0  0  0  0  0  0  0  0  0
   21.4285   70.8854   -2.1017 O   0  0  0  0  0  0  0  0  0  0  0  0
   21.2578   72.7710   -0.6789 O   0  0  0  0  0  0  0  0  0  0  0  0
   24.8766   71.1587    0.4928 O   0  0  0  0  0  0  0  0  0  0  0  0
   24.1678   71.3058   -2.3375 O   0  0  0  0  0  0  0  0  0  0  0  0
   22.5195   70.8187    2.1599 O   0  0  0  0  0  0  0  0  0  0  0  0
   23.5374   71.1332   -0.0011 C   0  0  2  0  0  0  0  0  0  0  0  0
   23.4518   71.9504   -1.2904 C   0  0  2  0  0  0  0  0  0  0  0  0
   22.6263   71.7343    1.0715 C   0  0  1  0  0  0  0  0  0  0  0  0
   21.9972   72.1378   -1.7238 C   0  0  1  0  0  0  0  0  0  0  0  0
   21.2280   72.0079    0.5252 C   0  0  1  0  0  0  0  0  0  0  0  0
   25.4739   70.7815   -0.1722 H   0  0  0  0  0  0  0  0  0  0  0  0
   25.0916   71.1834   -2.0692 H   0  0  0  0  0  0  0  0  0  0  0  0
   23.4028   70.6360    2.5166 H   0  0  0  0  0  0  0  0  0  0  0  0
   20.2789   72.2692    2.6542 O   0  0  0  0  0  0  0  0  0  0  0  0
   20.0398   74.0001    1.1893 O   0  0  0  0  0  0  0  0  0  0  0  0
   20.4559   72.8831    1.4581 C   0  0  0  0  0  0  0  0  0  0  0  0
  1  4  1  0
  1 24  1  0
  1  2  1  6
  1  3  2  0
 25 28  1  0
 25 24  1  0
 25 26  1  6
 25 27  2  0
  6 11  1  0
  6 12  1  0
 29 36  1  0
 29 37  1  0
  9  7  1  6
  7 13  1  0
 10  8  1  6
  8 14  1  0
  4  5  1  0
 36 28  1  1
 33 30  1  1
 30 38  1  0
 34 31  1  6
 31 39  1  0
 35 32  1  1
 32 40  1  0
 41 43  1  0
 15 19  2  0
 42 43  2  0
 16 22  2  0
 12 17  1  1
 17 19  1  0
 17 20  1  0
 18 19  1  0
 18 22  1  0
 18 23  1  0
  9 10  1  0
  9 11  1  0
 10 12  1  0
 11  5  1  1
 33 34  1  0
 33 35  1  0
 34 36  1  0
 35 37  1  0
 37 43  1  1
 20 21  2  0
 21 22  1  0
M  CHG  3   2  -1  26  -1  41  -1
M  END
>  <COMPND>  (94) 
    udp_gluA.pdb 

>  <AUTHOR>  (94) 
    GENERATED BY OPEN BABEL 3.1.1

>  <MASTER>  (94) 
        0    0    0    0    0    0    0    0   56    0   56    0

>  <minimizedAffinity>  (94) 
-7.24591

>  <CNNscore>  (94) 
0.6082949638

>  <CNNaffinity>  (94) 
4.4537277222

>  <CNN_VS>  (94) 
2.7091801167

>  <CNNaffinity_variance>  (94) 
0.4701955914

$$$$
95
     RDKit          3D

 43 45  0  0  0  0  0  0  0  0999 V2000
   21.0940   73.9485   -2.8742 P   0  0  2  0  0  0  0  0  0  0  0  0
   20.4854   73.6194   -1.4112 O   0  0  0  0  0  0  0  0  0  0  0  0
   21.3383   75.4040   -3.1459 O   0  0  0  0  0  0  0  0  0  0  0  0
   20.0811   73.2039   -3.8928 O   0  0  0  0  0  0  0  0  0  0  0  0
   20.3618   73.2503   -5.2797 C   0  0  0  0  0  0  0  0  0  0  0  0
   19.9616   70.9208   -4.8427 O   0  0  0  0  0  0  0  0  0  0  0  0
   20.5087   70.4714   -7.7565 O   0  0  0  0  0  0  0  0  0  0  0  0
   17.7850   70.4012   -7.6439 O   0  0  0  0  0  0  0  0  0  0  0  0
   19.8528   71.5676   -7.1188 C   0  0  1  0  0  0  0  0  0  0  0  0
   18.4674   71.1580   -6.6661 C   0  0  2  0  0  0  0  0  0  0  0  0
   20.5564   71.8298   -5.7942 C   0  0  1  0  0  0  0  0  0  0  0  0
   18.7697   70.3560   -5.4118 C   0  0  2  0  0  0  0  0  0  0  0  0
   20.0767   70.2851   -8.6053 H   0  0  0  0  0  0  0  0  0  0  0  0
   17.6157   70.9560   -8.4221 H   0  0  0  0  0  0  0  0  0  0  0  0
   16.5723   68.5844   -5.3155 O   0  0  0  0  0  0  0  0  0  0  0  0
   14.7655   70.7342   -1.6607 O   0  0  0  0  0  0  0  0  0  0  0  0
   17.7106   70.4299   -4.4455 N   0  0  0  0  0  0  0  0  0  0  0  0
   15.6740   69.6574   -3.4959 N   0  0  0  0  0  0  0  0  0  0  0  0
   16.6527   69.4911   -4.4846 C   0  0  0  0  0  0  0  0  0  0  0  0
   17.7272   71.4220   -3.4728 C   0  0  0  0  0  0  0  0  0  0  0  0
   16.7873   71.5679   -2.5368 C   0  0  0  0  0  0  0  0  0  0  0  0
   15.6469   70.6287   -2.5082 C   0  0  0  0  0  0  0  0  0  0  0  0
   14.9263   69.0169   -3.5042 H   0  0  0  0  0  0  0  0  0  0  0  0
   22.4165   73.0211   -2.9341 O   0  0  0  0  0  0  0  0  0  0  0  0
   22.7386   71.5870   -2.2609 P   0  0  2  0  0  0  0  0  0  0  0  0
   24.1494   71.1699   -2.9362 O   0  0  0  0  0  0  0  0  0  0  0  0
   21.6479   70.5691   -2.4286 O   0  0  0  0  0  0  0  0  0  0  0  0
   23.1062   71.9280   -0.7276 O   0  0  0  0  0  0  0  0  0  0  0  0
   24.4605   70.9404    0.9457 O   0  0  0  0  0  0  0  0  0  0  0  0
   21.1151   72.0340    3.1090 O   0  0  0  0  0  0  0  0  0  0  0  0
   20.8386   70.8380    0.4580 O   0  0  0  0  0  0  0  0  0  0  0  0
   23.5623   73.5887    3.3209 O   0  0  0  0  0  0  0  0  0  0  0  0
   22.0909   72.1456    2.0730 C   0  0  2  0  0  0  0  0  0  0  0  0
   22.0531   70.8928    1.1973 C   0  0  2  0  0  0  0  0  0  0  0  0
   23.4645   72.2937    2.7311 C   0  0  1  0  0  0  0  0  0  0  0  0
   23.2311   70.8712    0.2223 C   0  0  1  0  0  0  0  0  0  0  0  0
   24.5900   72.1352    1.7130 C   0  0  1  0  0  0  0  0  0  0  0  0
   20.2338   71.9388    2.7145 H   0  0  0  0  0  0  0  0  0  0  0  0
   20.0869   70.8516    1.0705 H   0  0  0  0  0  0  0  0  0  0  0  0
   22.8513   73.7026    3.9708 H   0  0  0  0  0  0  0  0  0  0  0  0
   26.3116   73.1125    2.9710 O   0  0  0  0  0  0  0  0  0  0  0  0
   26.5314   70.9044    2.4464 O   0  0  0  0  0  0  0  0  0  0  0  0
   25.9044   71.9521    2.3995 C   0  0  0  0  0  0  0  0  0  0  0  0
  1  4  1  0
  1 24  1  0
  1  2  1  1
  1  3  2  0
 25 28  1  0
 25 24  1  0
 25 26  1  6
 25 27  2  0
  6 11  1  0
  6 12  1  0
 29 36  1  0
 29 37  1  0
  9  7  1  1
  7 13  1  0
 10  8  1  6
  8 14  1  0
  4  5  1  0
 36 28  1  6
 33 30  1  1
 30 38  1  0
 34 31  1  6
 31 39  1  0
 35 32  1  6
 32 40  1  0
 41 43  1  0
 15 19  2  0
 42 43  2  0
 16 22  2  0
 12 17  1  1
 17 19  1  0
 17 20  1  0
 18 19  1  0
 18 22  1  0
 18 23  1  0
  9 10  1  0
  9 11  1  0
 10 12  1  0
 11  5  1  1
 33 34  1  0
 33 35  1  0
 34 36  1  0
 35 37  1  0
 37 43  1  1
 20 21  2  0
 21 22  1  0
M  CHG  3   2  -1  26  -1  41  -1
M  END
>  <COMPND>  (95) 
    udp_gluA.pdb 

>  <AUTHOR>  (95) 
    GENERATED BY OPEN BABEL 3.1.1

>  <MASTER>  (95) 
        0    0    0    0    0    0    0    0   56    0   56    0

>  <minimizedAffinity>  (95) 
-6.95245

>  <CNNscore>  (95) 
0.5568381548

>  <CNNaffinity>  (95) 
4.1273908615

>  <CNN_VS>  (95) 
2.2982888222

>  <CNNaffinity_variance>  (95) 
0.2268386632

$$$$
96
     RDKit          3D

 43 45  0  0  0  0  0  0  0  0999 V2000
   22.8174   71.4184   -2.8813 P   0  0  2  0  0  0  0  0  0  0  0  0
   24.3645   70.9571   -2.9932 O   0  0  0  0  0  0  0  0  0  0  0  0
   21.8141   70.3125   -3.0299 O   0  0  0  0  0  0  0  0  0  0  0  0
   22.6941   72.6272   -3.9498 O   0  0  0  0  0  0  0  0  0  0  0  0
   21.4612   72.8137   -4.6204 C   0  0  0  0  0  0  0  0  0  0  0  0
   20.7329   70.7794   -5.6734 O   0  0  0  0  0  0  0  0  0  0  0  0
   21.2768   72.1540   -8.2822 O   0  0  0  0  0  0  0  0  0  0  0  0
   18.5678   72.3641   -8.0515 O   0  0  0  0  0  0  0  0  0  0  0  0
   20.7651   72.6962   -7.0646 C   0  0  1  0  0  0  0  0  0  0  0  0
   19.3266   72.2687   -6.8641 C   0  0  2  0  0  0  0  0  0  0  0  0
   21.4686   71.9996   -5.9079 C   0  0  1  0  0  0  0  0  0  0  0  0
   19.4872   70.8355   -6.3864 C   0  0  2  0  0  0  0  0  0  0  0  0
   20.8421   72.5838   -9.0358 H   0  0  0  0  0  0  0  0  0  0  0  0
   18.4942   73.2956   -8.3141 H   0  0  0  0  0  0  0  0  0  0  0  0
   17.0137   69.7821   -7.2517 O   0  0  0  0  0  0  0  0  0  0  0  0
   15.4945   69.3088   -2.9260 O   0  0  0  0  0  0  0  0  0  0  0  0
   18.4274   70.4288   -5.5076 N   0  0  0  0  0  0  0  0  0  0  0  0
   16.2590   69.5483   -5.0965 N   0  0  0  0  0  0  0  0  0  0  0  0
   17.2243   69.9125   -6.0444 C   0  0  0  0  0  0  0  0  0  0  0  0
   18.5856   70.5414   -4.1317 C   0  0  0  0  0  0  0  0  0  0  0  0
   17.6565   70.1900   -3.2406 C   0  0  0  0  0  0  0  0  0  0  0  0
   16.3701   69.6422   -3.7186 C   0  0  0  0  0  0  0  0  0  0  0  0
   15.4122   69.1881   -5.4463 H   0  0  0  0  0  0  0  0  0  0  0  0
   22.7691   72.1846   -1.4588 O   0  0  0  0  0  0  0  0  0  0  0  0
   21.5613   72.3893   -0.4038 P   0  0  2  0  0  0  0  0  0  0  0  0
   21.1025   70.8736   -0.0683 O   0  0  0  0  0  0  0  0  0  0  0  0
   20.4549   73.2751   -0.8988 O   0  0  0  0  0  0  0  0  0  0  0  0
   22.2794   72.9054    0.9454 O   0  0  0  0  0  0  0  0  0  0  0  0
   24.1060   72.1188    2.2315 O   0  0  0  0  0  0  0  0  0  0  0  0
   21.5062   73.4153    5.1688 O   0  0  0  0  0  0  0  0  0  0  0  0
   20.5087   71.9332    2.8573 O   0  0  0  0  0  0  0  0  0  0  0  0
   23.8417   75.0043    4.4824 O   0  0  0  0  0  0  0  0  0  0  0  0
   22.1275   73.4206    3.8836 C   0  0  2  0  0  0  0  0  0  0  0  0
   21.8840   72.0791    3.1919 C   0  0  2  0  0  0  0  0  0  0  0  0
   23.6270   73.6516    4.0842 C   0  0  1  0  0  0  0  0  0  0  0  0
   22.7218   71.9603    1.9180 C   0  0  1  0  0  0  0  0  0  0  0  0
   24.4075   73.3916    2.7990 C   0  0  1  0  0  0  0  0  0  0  0  0
   20.5524   73.2700    5.0664 H   0  0  0  0  0  0  0  0  0  0  0  0
   19.9712   72.0078    3.6610 H   0  0  0  0  0  0  0  0  0  0  0  0
   23.3502   75.1828    5.2993 H   0  0  0  0  0  0  0  0  0  0  0  0
   26.3967   72.1835    2.5069 O   0  0  0  0  0  0  0  0  0  0  0  0
   26.5167   74.1053    3.7281 O   0  0  0  0  0  0  0  0  0  0  0  0
   25.8722   73.2960    3.0781 C   0  0  0  0  0  0  0  0  0  0  0  0
  1  4  1  0
  1 24  1  0
  1  2  1  6
  1  3  2  0
 25 28  1  0
 25 24  1  0
 25 26  1  1
 25 27  2  0
  6 11  1  0
  6 12  1  0
 29 36  1  0
 29 37  1  0
  9  7  1  6
  7 13  1  0
 10  8  1  6
  8 14  1  0
  4  5  1  0
 36 28  1  6
 33 30  1  1
 30 38  1  0
 34 31  1  6
 31 39  1  0
 35 32  1  6
 32 40  1  0
 41 43  1  0
 15 19  2  0
 42 43  2  0
 16 22  2  0
 12 17  1  1
 17 19  1  0
 17 20  1  0
 18 19  1  0
 18 22  1  0
 18 23  1  0
  9 10  1  0
  9 11  1  0
 10 12  1  0
 11  5  1  1
 33 34  1  0
 33 35  1  0
 34 36  1  0
 35 37  1  0
 37 43  1  1
 20 21  2  0
 21 22  1  0
M  CHG  3   2  -1  26  -1  41  -1
M  END
>  <COMPND>  (96) 
    udp_gluA.pdb 

>  <AUTHOR>  (96) 
    GENERATED BY OPEN BABEL 3.1.1

>  <MASTER>  (96) 
        0    0    0    0    0    0    0    0   56    0   56    0

>  <minimizedAffinity>  (96) 
-7.41836

>  <CNNscore>  (96) 
0.5332251191

>  <CNNaffinity>  (96) 
4.1239628792

>  <CNN_VS>  (96) 
2.1990005970

>  <CNNaffinity_variance>  (96) 
0.2641782761

$$$$
97
     RDKit          3D

 43 45  0  0  0  0  0  0  0  0999 V2000
   22.4739   73.6355   -5.5972 P   0  0  2  0  0  0  0  0  0  0  0  0
   21.8834   74.7353   -4.5674 O   0  0  0  0  0  0  0  0  0  0  0  0
   23.1644   74.2028   -6.8027 O   0  0  0  0  0  0  0  0  0  0  0  0
   21.2116   72.6697   -5.9001 O   0  0  0  0  0  0  0  0  0  0  0  0
   20.8869   72.3842   -7.2482 C   0  0  0  0  0  0  0  0  0  0  0  0
   19.5440   70.6099   -6.3394 O   0  0  0  0  0  0  0  0  0  0  0  0
   20.0246   69.1720   -8.9265 O   0  0  0  0  0  0  0  0  0  0  0  0
   17.5093   70.1714   -9.2586 O   0  0  0  0  0  0  0  0  0  0  0  0
   19.8397   70.5677   -8.6892 C   0  0  1  0  0  0  0  0  0  0  0  0
   18.3846   70.8603   -8.3904 C   0  0  2  0  0  0  0  0  0  0  0  0
   20.5120   70.9126   -7.3673 C   0  0  1  0  0  0  0  0  0  0  0  0
   18.2600   70.3997   -6.9481 C   0  0  2  0  0  0  0  0  0  0  0  0
   19.6035   68.9278   -9.7659 H   0  0  0  0  0  0  0  0  0  0  0  0
   17.6266   70.5007  -10.1640 H   0  0  0  0  0  0  0  0  0  0  0  0
   16.8779   69.4223   -4.6873 O   0  0  0  0  0  0  0  0  0  0  0  0
   14.4852   73.3352   -4.2313 O   0  0  0  0  0  0  0  0  0  0  0  0
   17.2707   71.1420   -6.2193 N   0  0  0  0  0  0  0  0  0  0  0  0
   15.6868   71.3717   -4.4630 N   0  0  0  0  0  0  0  0  0  0  0  0
   16.6352   70.5588   -5.0976 C   0  0  0  0  0  0  0  0  0  0  0  0
   16.9403   72.4322   -6.6157 C   0  0  0  0  0  0  0  0  0  0  0  0
   16.0342   73.1948   -6.0007 C   0  0  0  0  0  0  0  0  0  0  0  0
   15.3238   72.6601   -4.8205 C   0  0  0  0  0  0  0  0  0  0  0  0
   15.2296   70.9866   -3.6807 H   0  0  0  0  0  0  0  0  0  0  0  0
   23.4130   72.7205   -4.6518 O   0  0  0  0  0  0  0  0  0  0  0  0
   23.0667   71.8545   -3.3312 P   0  0  2  0  0  0  0  0  0  0  0  0
   24.3977   70.9585   -3.1170 O   0  0  0  0  0  0  0  0  0  0  0  0
   21.7963   71.0607   -3.4310 O   0  0  0  0  0  0  0  0  0  0  0  0
   23.0958   72.9223   -2.1223 O   0  0  0  0  0  0  0  0  0  0  0  0
   21.4134   72.3962   -0.5405 O   0  0  0  0  0  0  0  0  0  0  0  0
   22.9793   75.8835    1.0262 O   0  0  0  0  0  0  0  0  0  0  0  0
   22.5150   75.6284   -1.8467 O   0  0  0  0  0  0  0  0  0  0  0  0
   23.6406   73.3191    2.2253 O   0  0  0  0  0  0  0  0  0  0  0  0
   23.0088   74.6456    0.3158 C   0  0  2  0  0  0  0  0  0  0  0  0
   22.0422   74.7112   -0.8670 C   0  0  2  0  0  0  0  0  0  0  0  0
   22.5920   73.5352    1.2829 C   0  0  1  0  0  0  0  0  0  0  0  0
   21.8739   73.3352   -1.5130 C   0  0  1  0  0  0  0  0  0  0  0  0
   22.3215   72.2269    0.5456 C   0  0  1  0  0  0  0  0  0  0  0  0
   23.2407   76.6041    0.4315 H   0  0  0  0  0  0  0  0  0  0  0  0
   22.6243   76.5036   -1.4436 H   0  0  0  0  0  0  0  0  0  0  0  0
   23.8227   74.1444    2.7013 H   0  0  0  0  0  0  0  0  0  0  0  0
   21.0118   71.9010    2.4640 O   0  0  0  0  0  0  0  0  0  0  0  0
   21.5629   70.0487    1.2538 O   0  0  0  0  0  0  0  0  0  0  0  0
   21.6087   71.2568    1.4307 C   0  0  0  0  0  0  0  0  0  0  0  0
  1  4  1  0
  1 24  1  0
  1  2  1  1
  1  3  2  0
 25 28  1  0
 25 24  1  0
 25 26  1  1
 25 27  2  0
  6 11  1  0
  6 12  1  0
 29 36  1  0
 29 37  1  0
  9  7  1  1
  7 13  1  0
 10  8  1  6
  8 14  1  0
  4  5  1  0
 36 28  1  1
 33 30  1  1
 30 38  1  0
 34 31  1  6
 31 39  1  0
 35 32  1  1
 32 40  1  0
 41 43  1  0
 15 19  2  0
 42 43  2  0
 16 22  2  0
 12 17  1  1
 17 19  1  0
 17 20  1  0
 18 19  1  0
 18 22  1  0
 18 23  1  0
  9 10  1  0
  9 11  1  0
 10 12  1  0
 11  5  1  6
 33 34  1  0
 33 35  1  0
 34 36  1  0
 35 37  1  0
 37 43  1  1
 20 21  2  0
 21 22  1  0
M  CHG  3   2  -1  26  -1  41  -1
M  END
>  <COMPND>  (97) 
    udp_gluA.pdb 

>  <AUTHOR>  (97) 
    GENERATED BY OPEN BABEL 3.1.1

>  <MASTER>  (97) 
        0    0    0    0    0    0    0    0   56    0   56    0

>  <minimizedAffinity>  (97) 
-7.23709

>  <CNNscore>  (97) 
0.5242723227

>  <CNNaffinity>  (97) 
4.2521986961

>  <CNN_VS>  (97) 
2.2293100357

>  <CNNaffinity_variance>  (97) 
0.1848719269

$$$$
98
     RDKit          3D

 43 45  0  0  0  0  0  0  0  0999 V2000
   23.6429   72.3098   -3.4943 P   0  0  2  0  0  0  0  0  0  0  0  0
   24.2074   70.8078   -3.2841 O   0  0  0  0  0  0  0  0  0  0  0  0
   24.6322   73.2848   -4.0623 O   0  0  0  0  0  0  0  0  0  0  0  0
   23.0236   72.6977   -2.0507 O   0  0  0  0  0  0  0  0  0  0  0  0
   22.8613   71.6731   -1.0872 C   0  0  0  0  0  0  0  0  0  0  0  0
   21.1115   70.9888    0.4120 O   0  0  0  0  0  0  0  0  0  0  0  0
   19.1949   71.9978   -1.6617 O   0  0  0  0  0  0  0  0  0  0  0  0
   19.2207   74.0247    0.1624 O   0  0  0  0  0  0  0  0  0  0  0  0
   20.4690   72.5170   -1.2800 C   0  0  1  0  0  0  0  0  0  0  0  0
   20.3713   73.2121    0.0615 C   0  0  2  0  0  0  0  0  0  0  0  0
   21.3803   71.3391   -0.9629 C   0  0  1  0  0  0  0  0  0  0  0  0
   20.3437   72.0372    1.0242 C   0  0  2  0  0  0  0  0  0  0  0  0
   18.5952   72.7320   -1.8692 H   0  0  0  0  0  0  0  0  0  0  0  0
   19.2863   74.7581   -0.4700 H   0  0  0  0  0  0  0  0  0  0  0  0
   19.0181   73.4707    3.0648 O   0  0  0  0  0  0  0  0  0  0  0  0
   22.6670   73.2120    5.8687 O   0  0  0  0  0  0  0  0  0  0  0  0
   20.9239   72.3583    2.2974 N   0  0  0  0  0  0  0  0  0  0  0  0
   20.8371   73.3414    4.4590 N   0  0  0  0  0  0  0  0  0  0  0  0
   20.1727   73.0829    3.2528 C   0  0  0  0  0  0  0  0  0  0  0  0
   22.2213   71.9556    2.5898 C   0  0  0  0  0  0  0  0  0  0  0  0
   22.8411   72.2093    3.7440 C   0  0  0  0  0  0  0  0  0  0  0  0
   22.1264   72.9621    4.7956 C   0  0  0  0  0  0  0  0  0  0  0  0
   20.3350   73.8462    5.1389 H   0  0  0  0  0  0  0  0  0  0  0  0
   22.3268   72.0789   -4.4040 O   0  0  0  0  0  0  0  0  0  0  0  0
   21.6893   72.9688   -5.5937 P   0  0  2  0  0  0  0  0  0  0  0  0
   22.6451   72.6363   -6.8572 O   0  0  0  0  0  0  0  0  0  0  0  0
   21.5729   74.4311   -5.2743 O   0  0  0  0  0  0  0  0  0  0  0  0
   20.2896   72.2458   -5.9406 O   0  0  0  0  0  0  0  0  0  0  0  0
   19.6258   70.0830   -5.2399 O   0  0  0  0  0  0  0  0  0  0  0  0
   17.4362   70.5507   -8.7119 O   0  0  0  0  0  0  0  0  0  0  0  0
   20.2254   71.4111   -8.5930 O   0  0  0  0  0  0  0  0  0  0  0  0
   16.1378   70.8015   -6.1230 O   0  0  0  0  0  0  0  0  0  0  0  0
   18.0939   70.9768   -7.5187 C   0  0  2  0  0  0  0  0  0  0  0  0
   19.5794   70.6239   -7.5993 C   0  0  2  0  0  0  0  0  0  0  0  0
   17.4397   70.2591   -6.3360 C   0  0  1  0  0  0  0  0  0  0  0  0
   20.2701   70.8544   -6.2545 C   0  0  1  0  0  0  0  0  0  0  0  0
   18.2556   70.4332   -5.0583 C   0  0  1  0  0  0  0  0  0  0  0  0
   17.8352   70.9938   -9.4772 H   0  0  0  0  0  0  0  0  0  0  0  0
   19.7920   71.2699   -9.4490 H   0  0  0  0  0  0  0  0  0  0  0  0
   15.6083   70.6972   -6.9290 H   0  0  0  0  0  0  0  0  0  0  0  0
   16.7873   68.7029   -4.4650 O   0  0  0  0  0  0  0  0  0  0  0  0
   18.2752   69.3933   -2.8812 O   0  0  0  0  0  0  0  0  0  0  0  0
   17.8017   69.4762   -4.0045 C   0  0  0  0  0  0  0  0  0  0  0  0
  1  4  1  0
  1 24  1  0
  1  2  1  1
  1  3  2  0
 25 28  1  0
 25 24  1  0
 25 26  1  6
 25 27  2  0
  6 11  1  0
  6 12  1  0
 29 36  1  0
 29 37  1  0
  9  7  1  1
  7 13  1  0
 10  8  1  6
  8 14  1  0
  4  5  1  0
 36 28  1  1
 33 30  1  6
 30 38  1  0
 34 31  1  6
 31 39  1  0
 35 32  1  1
 32 40  1  0
 41 43  1  0
 15 19  2  0
 42 43  2  0
 16 22  2  0
 12 17  1  1
 17 19  1  0
 17 20  1  0
 18 19  1  0
 18 22  1  0
 18 23  1  0
  9 10  1  0
  9 11  1  0
 10 12  1  0
 11  5  1  1
 33 34  1  0
 33 35  1  0
 34 36  1  0
 35 37  1  0
 37 43  1  1
 20 21  2  0
 21 22  1  0
M  CHG  3   2  -1  26  -1  41  -1
M  END
>  <COMPND>  (98) 
    udp_gluA.pdb 

>  <AUTHOR>  (98) 
    GENERATED BY OPEN BABEL 3.1.1

>  <MASTER>  (98) 
        0    0    0    0    0    0    0    0   56    0   56    0

>  <minimizedAffinity>  (98) 
-7.37435

>  <CNNscore>  (98) 
0.5178767443

>  <CNNaffinity>  (98) 
4.1355614662

>  <CNN_VS>  (98) 
2.1417109966

>  <CNNaffinity_variance>  (98) 
0.2019343674

$$$$
99
     RDKit          3D

 43 45  0  0  0  0  0  0  0  0999 V2000
   22.8533   71.7376   -3.5003 P   0  0  2  0  0  0  0  0  0  0  0  0
   24.2262   71.0705   -2.9627 O   0  0  0  0  0  0  0  0  0  0  0  0
   22.9556   72.4052   -4.8403 O   0  0  0  0  0  0  0  0  0  0  0  0
   22.3771   72.6848   -2.2780 O   0  0  0  0  0  0  0  0  0  0  0  0
   22.0928   74.0452   -2.5480 C   0  0  0  0  0  0  0  0  0  0  0  0
   21.0544   73.5845   -0.4297 O   0  0  0  0  0  0  0  0  0  0  0  0
   20.5618   76.5363   -0.2396 O   0  0  0  0  0  0  0  0  0  0  0  0
   22.7379   76.1906    1.3670 O   0  0  0  0  0  0  0  0  0  0  0  0
   21.6787   75.8404   -0.7935 C   0  0  1  0  0  0  0  0  0  0  0  0
   22.5429   75.2720    0.3122 C   0  0  2  0  0  0  0  0  0  0  0  0
   21.1580   74.5800   -1.4707 C   0  0  1  0  0  0  0  0  0  0  0  0
   21.7458   74.0514    0.7396 C   0  0  2  0  0  0  0  0  0  0  0  0
   20.8696   77.3455    0.1987 H   0  0  0  0  0  0  0  0  0  0  0  0
   23.2503   76.9492    1.0445 H   0  0  0  0  0  0  0  0  0  0  0  0
   20.8526   71.9672    2.4233 O   0  0  0  0  0  0  0  0  0  0  0  0
   25.0460   70.0619    2.5943 O   0  0  0  0  0  0  0  0  0  0  0  0
   22.5830   72.9976    1.2389 N   0  0  0  0  0  0  0  0  0  0  0  0
   22.9422   71.0208    2.5077 N   0  0  0  0  0  0  0  0  0  0  0  0
   22.0354   71.9989    2.0786 C   0  0  0  0  0  0  0  0  0  0  0  0
   23.9289   72.9592    0.8955 C   0  0  0  0  0  0  0  0  0  0  0  0
   24.7809   72.0204    1.3122 C   0  0  0  0  0  0  0  0  0  0  0  0
   24.2892   70.9410    2.1934 C   0  0  0  0  0  0  0  0  0  0  0  0
   22.5847   70.3161    3.0949 H   0  0  0  0  0  0  0  0  0  0  0  0
   21.8044   70.5093   -3.4382 O   0  0  0  0  0  0  0  0  0  0  0  0
   20.1885   70.4902   -3.4833 P   0  0  2  0  0  0  0  0  0  0  0  0
   19.7711   70.9925   -2.0022 O   0  0  0  0  0  0  0  0  0  0  0  0
   19.5990   69.1665   -3.8764 O   0  0  0  0  0  0  0  0  0  0  0  0
   19.7916   71.7149   -4.4555 O   0  0  0  0  0  0  0  0  0  0  0  0
   18.8782   70.6743   -6.3769 O   0  0  0  0  0  0  0  0  0  0  0  0
   18.2588   74.6728   -7.2116 O   0  0  0  0  0  0  0  0  0  0  0  0
   20.7797   73.7785   -6.0371 O   0  0  0  0  0  0  0  0  0  0  0  0
   16.0396   72.9990   -6.3605 O   0  0  0  0  0  0  0  0  0  0  0  0
   18.3917   73.5207   -6.3792 C   0  0  2  0  0  0  0  0  0  0  0  0
   19.7819   72.9124   -6.5654 C   0  0  2  0  0  0  0  0  0  0  0  0
   17.3120   72.5156   -6.7868 C   0  0  1  0  0  0  0  0  0  0  0  0
   19.8824   71.5541   -5.8699 C   0  0  1  0  0  0  0  0  0  0  0  0
   17.5533   71.1500   -6.1501 C   0  0  1  0  0  0  0  0  0  0  0  0
   18.9349   75.3256   -6.9709 H   0  0  0  0  0  0  0  0  0  0  0  0
   20.7215   74.6423   -6.4738 H   0  0  0  0  0  0  0  0  0  0  0  0
   15.8738   73.8678   -6.7586 H   0  0  0  0  0  0  0  0  0  0  0  0
   16.6750   68.9776   -6.0463 O   0  0  0  0  0  0  0  0  0  0  0  0
   16.1164   70.2396   -7.8613 O   0  0  0  0  0  0  0  0  0  0  0  0
   16.7059   70.1048   -6.7995 C   0  0  0  0  0  0  0  0  0  0  0  0
  1  4  1  0
  1 24  1  0
  1  2  1  1
  1  3  2  0
 25 28  1  0
 25 24  1  0
 25 26  1  1
 25 27  2  0
  6 11  1  0
  6 12  1  0
 29 36  1  0
 29 37  1  0
  9  7  1  1
  7 13  1  0
 10  8  1  1
  8 14  1  0
  4  5  1  0
 36 28  1  1
 33 30  1  6
 30 38  1  0
 34 31  1  1
 31 39  1  0
 35 32  1  1
 32 40  1  0
 41 43  1  0
 15 19  2  0
 42 43  2  0
 16 22  2  0
 12 17  1  6
 17 19  1  0
 17 20  1  0
 18 19  1  0
 18 22  1  0
 18 23  1  0
  9 10  1  0
  9 11  1  0
 10 12  1  0
 11  5  1  6
 33 34  1  0
 33 35  1  0
 34 36  1  0
 35 37  1  0
 37 43  1  6
 20 21  2  0
 21 22  1  0
M  CHG  3   2  -1  26  -1  41  -1
M  END
>  <COMPND>  (99) 
    udp_gluA.pdb 

>  <AUTHOR>  (99) 
    GENERATED BY OPEN BABEL 3.1.1

>  <MASTER>  (99) 
        0    0    0    0    0    0    0    0   56    0   56    0

>  <minimizedAffinity>  (99) 
-6.58273

>  <CNNscore>  (99) 
0.5126147270

>  <CNNaffinity>  (99) 
4.1575975418

>  <CNN_VS>  (99) 
2.1312456131

>  <CNNaffinity_variance>  (99) 
0.0512886234

$$$$
100
     RDKit          3D

 43 45  0  0  0  0  0  0  0  0999 V2000
   21.8977   72.5603   -2.7086 P   0  0  2  0  0  0  0  0  0  0  0  0
   21.4717   74.1100   -2.5195 O   0  0  0  0  0  0  0  0  0  0  0  0
   20.8037   71.5663   -2.4499 O   0  0  0  0  0  0  0  0  0  0  0  0
   23.2195   72.4056   -1.7884 O   0  0  0  0  0  0  0  0  0  0  0  0
   23.1667   72.8579   -0.4478 C   0  0  0  0  0  0  0  0  0  0  0  0
   23.8027   71.8934    1.6601 O   0  0  0  0  0  0  0  0  0  0  0  0
   21.4377   70.0793    1.3323 O   0  0  0  0  0  0  0  0  0  0  0  0
   20.5137   71.9520    3.0860 O   0  0  0  0  0  0  0  0  0  0  0  0
   21.5834   71.4502    0.9608 C   0  0  1  0  0  0  0  0  0  0  0  0
   21.5357   72.3340    2.1892 C   0  0  2  0  0  0  0  0  0  0  0  0
   23.0117   71.6562    0.4754 C   0  0  1  0  0  0  0  0  0  0  0  0
   22.9259   72.1413    2.7706 C   0  0  2  0  0  0  0  0  0  0  0  0
   20.5327   69.9234    1.6459 H   0  0  0  0  0  0  0  0  0  0  0  0
   19.6485   72.0938    2.6696 H   0  0  0  0  0  0  0  0  0  0  0  0
   22.4300   72.6379    5.5062 O   0  0  0  0  0  0  0  0  0  0  0  0
   24.7485   76.6198    5.3914 O   0  0  0  0  0  0  0  0  0  0  0  0
   23.3883   73.3000    3.4809 N   0  0  0  0  0  0  0  0  0  0  0  0
   23.5844   74.6212    5.4462 N   0  0  0  0  0  0  0  0  0  0  0  0
   23.0843   73.4538    4.8542 C   0  0  0  0  0  0  0  0  0  0  0  0
   24.1347   74.2673    2.8190 C   0  0  0  0  0  0  0  0  0  0  0  0
   24.6046   75.3746    3.3967 C   0  0  0  0  0  0  0  0  0  0  0  0
   24.3307   75.6120    4.8292 C   0  0  0  0  0  0  0  0  0  0  0  0
   23.3838   74.7513    6.4013 H   0  0  0  0  0  0  0  0  0  0  0  0
   22.4948   72.5287   -4.2104 O   0  0  0  0  0  0  0  0  0  0  0  0
   21.8951   73.0896   -5.6031 P   0  0  2  0  0  0  0  0  0  0  0  0
   22.8527   72.4110   -6.7180 O   0  0  0  0  0  0  0  0  0  0  0  0
   21.8188   74.5869   -5.6821 O   0  0  0  0  0  0  0  0  0  0  0  0
   20.4781   72.3372   -5.7710 O   0  0  0  0  0  0  0  0  0  0  0  0
   19.7700   70.1335   -5.2692 O   0  0  0  0  0  0  0  0  0  0  0  0
   17.6556   70.9287   -8.7283 O   0  0  0  0  0  0  0  0  0  0  0  0
   20.4540   71.7316   -8.4856 O   0  0  0  0  0  0  0  0  0  0  0  0
   16.3106   70.9795   -6.1516 O   0  0  0  0  0  0  0  0  0  0  0  0
   18.2959   71.2416   -7.4913 C   0  0  2  0  0  0  0  0  0  0  0  0
   19.7774   70.8733   -7.5744 C   0  0  2  0  0  0  0  0  0  0  0  0
   17.6085   70.4366   -6.3861 C   0  0  1  0  0  0  0  0  0  0  0  0
   20.4450   70.9779   -6.2024 C   0  0  1  0  0  0  0  0  0  0  0  0
   18.4016   70.4887   -5.0835 C   0  0  1  0  0  0  0  0  0  0  0  0
   18.0758   71.4288   -9.4456 H   0  0  0  0  0  0  0  0  0  0  0  0
   20.0354   71.6705   -9.3582 H   0  0  0  0  0  0  0  0  0  0  0  0
   15.7955   70.9524   -6.9731 H   0  0  0  0  0  0  0  0  0  0  0  0
   16.8734   68.7624   -4.6525 O   0  0  0  0  0  0  0  0  0  0  0  0
   18.3828   69.2483   -3.0141 O   0  0  0  0  0  0  0  0  0  0  0  0
   17.9136   69.4530   -4.1235 C   0  0  0  0  0  0  0  0  0  0  0  0
  1  4  1  0
  1 24  1  0
  1  2  1  1
  1  3  2  0
 25 28  1  0
 25 24  1  0
 25 26  1  6
 25 27  2  0
  6 11  1  0
  6 12  1  0
 29 36  1  0
 29 37  1  0
  9  7  1  1
  7 13  1  0
 10  8  1  1
  8 14  1  0
  4  5  1  0
 36 28  1  1
 33 30  1  6
 30 38  1  0
 34 31  1  6
 31 39  1  0
 35 32  1  1
 32 40  1  0
 41 43  1  0
 15 19  2  0
 42 43  2  0
 16 22  2  0
 12 17  1  6
 17 19  1  0
 17 20  1  0
 18 19  1  0
 18 22  1  0
 18 23  1  0
  9 10  1  0
  9 11  1  0
 10 12  1  0
 11  5  1  6
 33 34  1  0
 33 35  1  0
 34 36  1  0
 35 37  1  0
 37 43  1  1
 20 21  2  0
 21 22  1  0
M  CHG  3   2  -1  26  -1  41  -1
M  END
>  <COMPND>  (100) 
    udp_gluA.pdb 

>  <AUTHOR>  (100) 
    GENERATED BY OPEN BABEL 3.1.1

>  <MASTER>  (100) 
        0    0    0    0    0    0    0    0   56    0   56    0

>  <minimizedAffinity>  (100) 
-6.97600

>  <CNNscore>  (100) 
0.5070822239

>  <CNNaffinity>  (100) 
4.1579637527

>  <CNN_VS>  (100) 
2.1084294319

>  <CNNaffinity_variance>  (100) 
0.1544197947

$$$$
101
     RDKit          3D

 43 45  0  0  0  0  0  0  0  0999 V2000
   22.9361   72.1049   -3.1680 P   0  0  2  0  0  0  0  0  0  0  0  0
   24.2058   72.3039   -4.1515 O   0  0  0  0  0  0  0  0  0  0  0  0
   23.1918   71.2364   -1.9713 O   0  0  0  0  0  0  0  0  0  0  0  0
   21.7536   71.6103   -4.1554 O   0  0  0  0  0  0  0  0  0  0  0  0
   20.9451   70.5212   -3.7495 C   0  0  0  0  0  0  0  0  0  0  0  0
   19.0497   71.6684   -4.6818 O   0  0  0  0  0  0  0  0  0  0  0  0
   17.4571   70.4691   -2.4420 O   0  0  0  0  0  0  0  0  0  0  0  0
   16.8301   68.8559   -4.5493 O   0  0  0  0  0  0  0  0  0  0  0  0
   18.5425   69.9078   -3.1805 C   0  0  1  0  0  0  0  0  0  0  0  0
   18.0824   69.5086   -4.5666 C   0  0  2  0  0  0  0  0  0  0  0  0
   19.5323   71.0245   -3.4827 C   0  0  1  0  0  0  0  0  0  0  0  0
   18.0336   70.8486   -5.2808 C   0  0  2  0  0  0  0  0  0  0  0  0
   16.8114   69.7743   -2.2372 H   0  0  0  0  0  0  0  0  0  0  0  0
   16.9137   68.0082   -4.0841 H   0  0  0  0  0  0  0  0  0  0  0  0
   16.1031   70.1252   -7.2112 O   0  0  0  0  0  0  0  0  0  0  0  0
   19.1604   70.4249  -10.6472 O   0  0  0  0  0  0  0  0  0  0  0  0
   18.2980   70.7300   -6.6869 N   0  0  0  0  0  0  0  0  0  0  0  0
   17.6279   70.2742   -8.9205 N   0  0  0  0  0  0  0  0  0  0  0  0
   17.2578   70.3603   -7.5720 C   0  0  0  0  0  0  0  0  0  0  0  0
   19.5743   70.9802   -7.1761 C   0  0  0  0  0  0  0  0  0  0  0  0
   19.9118   70.8942   -8.4643 C   0  0  0  0  0  0  0  0  0  0  0  0
   18.8838   70.5128   -9.4548 C   0  0  0  0  0  0  0  0  0  0  0  0
   16.9211   70.0164   -9.5556 H   0  0  0  0  0  0  0  0  0  0  0  0
   22.5063   73.6234   -2.8184 O   0  0  0  0  0  0  0  0  0  0  0  0
   21.6678   74.7120   -3.6702 P   0  0  2  0  0  0  0  0  0  0  0  0
   22.1725   76.1251   -3.0630 O   0  0  0  0  0  0  0  0  0  0  0  0
   20.1801   74.5157   -3.6253 O   0  0  0  0  0  0  0  0  0  0  0  0
   22.3065   74.6535   -5.1504 O   0  0  0  0  0  0  0  0  0  0  0  0
   20.8044   75.4673   -6.7907 O   0  0  0  0  0  0  0  0  0  0  0  0
   23.9198   74.0760   -9.1201 O   0  0  0  0  0  0  0  0  0  0  0  0
   22.9886   72.5356   -6.8193 O   0  0  0  0  0  0  0  0  0  0  0  0
   23.5796   76.9313   -8.6926 O   0  0  0  0  0  0  0  0  0  0  0  0
   23.3142   74.6507   -7.9621 C   0  0  2  0  0  0  0  0  0  0  0  0
   22.3123   73.6624   -7.3648 C   0  0  2  0  0  0  0  0  0  0  0  0
   22.6032   75.9368   -8.3892 C   0  0  1  0  0  0  0  0  0  0  0  0
   21.4802   74.3241   -6.2655 C   0  0  1  0  0  0  0  0  0  0  0  0
   21.6959   76.4657   -7.2822 C   0  0  1  0  0  0  0  0  0  0  0  0
   24.3778   73.2572   -8.8731 H   0  0  0  0  0  0  0  0  0  0  0  0
   23.5188   72.1110   -7.5113 H   0  0  0  0  0  0  0  0  0  0  0  0
   24.1637   76.6070   -9.3959 H   0  0  0  0  0  0  0  0  0  0  0  0
   19.4882   77.0684   -7.7961 O   0  0  0  0  0  0  0  0  0  0  0  0
   21.1106   78.6186   -8.2007 O   0  0  0  0  0  0  0  0  0  0  0  0
   20.7695   77.5122   -7.8102 C   0  0  0  0  0  0  0  0  0  0  0  0
  1  4  1  0
  1 24  1  0
  1  2  1  6
  1  3  2  0
 25 28  1  0
 25 24  1  0
 25 26  1  1
 25 27  2  0
  6 11  1  0
  6 12  1  0
 29 36  1  0
 29 37  1  0
  9  7  1  1
  7 13  1  0
 10  8  1  1
  8 14  1  0
  4  5  1  0
 36 28  1  1
 33 30  1  6
 30 38  1  0
 34 31  1  1
 31 39  1  0
 35 32  1  1
 32 40  1  0
 41 43  1  0
 15 19  2  0
 42 43  2  0
 16 22  2  0
 12 17  1  6
 17 19  1  0
 17 20  1  0
 18 19  1  0
 18 22  1  0
 18 23  1  0
  9 10  1  0
  9 11  1  0
 10 12  1  0
 11  5  1  6
 33 34  1  0
 33 35  1  0
 34 36  1  0
 35 37  1  0
 37 43  1  6
 20 21  2  0
 21 22  1  0
M  CHG  3   2  -1  26  -1  41  -1
M  END
>  <COMPND>  (101) 
    udp_gluA.pdb 

>  <AUTHOR>  (101) 
    GENERATED BY OPEN BABEL 3.1.1

>  <MASTER>  (101) 
        0    0    0    0    0    0    0    0   56    0   56    0

>  <minimizedAffinity>  (101) 
-7.17818

>  <CNNscore>  (101) 
0.9012880921

>  <CNNaffinity>  (101) 
4.6724720001

>  <CNN_VS>  (101) 
4.2112431526

>  <CNNaffinity_variance>  (101) 
0.2525801361

$$$$
102
     RDKit          3D

 43 45  0  0  0  0  0  0  0  0999 V2000
   21.5284   71.8082   -2.1787 P   0  0  2  0  0  0  0  0  0  0  0  0
   20.8453   73.1478   -2.7768 O   0  0  0  0  0  0  0  0  0  0  0  0
   22.7869   71.3751   -2.8718 O   0  0  0  0  0  0  0  0  0  0  0  0
   20.3236   70.7282   -2.1702 O   0  0  0  0  0  0  0  0  0  0  0  0
   19.7444   70.3518   -3.4060 C   0  0  0  0  0  0  0  0  0  0  0  0
   18.0131   71.4819   -4.6319 O   0  0  0  0  0  0  0  0  0  0  0  0
   16.0717   70.0099   -2.8838 O   0  0  0  0  0  0  0  0  0  0  0  0
   16.0098   68.5621   -5.1938 O   0  0  0  0  0  0  0  0  0  0  0  0
   17.3230   69.5714   -3.4136 C   0  0  1  0  0  0  0  0  0  0  0  0
   17.1911   69.2751   -4.8925 C   0  0  2  0  0  0  0  0  0  0  0  0
   18.2764   70.7584   -3.4102 C   0  0  1  0  0  0  0  0  0  0  0  0
   17.2024   70.6694   -5.4956 C   0  0  2  0  0  0  0  0  0  0  0  0
   15.4459   69.2683   -2.8759 H   0  0  0  0  0  0  0  0  0  0  0  0
   16.0513   67.6815   -4.7879 H   0  0  0  0  0  0  0  0  0  0  0  0
   15.7315   70.1911   -7.8587 O   0  0  0  0  0  0  0  0  0  0  0  0
   19.4551   70.7745  -10.5118 O   0  0  0  0  0  0  0  0  0  0  0  0
   17.7625   70.6901   -6.8173 N   0  0  0  0  0  0  0  0  0  0  0  0
   17.5877   70.4811   -9.1778 N   0  0  0  0  0  0  0  0  0  0  0  0
   16.9367   70.4364   -7.9379 C   0  0  0  0  0  0  0  0  0  0  0  0
   19.1140   70.9610   -6.9937 C   0  0  0  0  0  0  0  0  0  0  0  0
   19.7202   71.0003   -8.1819 C   0  0  0  0  0  0  0  0  0  0  0  0
   18.9289   70.7455   -9.4034 C   0  0  0  0  0  0  0  0  0  0  0  0
   17.0338   70.3056   -9.9726 H   0  0  0  0  0  0  0  0  0  0  0  0
   21.7102   72.1621   -0.6120 O   0  0  0  0  0  0  0  0  0  0  0  0
   22.2444   71.2665    0.6234 P   0  0  2  0  0  0  0  0  0  0  0  0
   23.7399   70.8535    0.1614 O   0  0  0  0  0  0  0  0  0  0  0  0
   21.3603   70.1032    0.9683 O   0  0  0  0  0  0  0  0  0  0  0  0
   22.4658   72.3187    1.8261 O   0  0  0  0  0  0  0  0  0  0  0  0
   24.3955   71.6220    3.0093 O   0  0  0  0  0  0  0  0  0  0  0  0
   23.3278   75.0353    5.0775 O   0  0  0  0  0  0  0  0  0  0  0  0
   21.2897   73.1295    4.2126 O   0  0  0  0  0  0  0  0  0  0  0  0
   25.5793   75.0873    3.2393 O   0  0  0  0  0  0  0  0  0  0  0  0
   23.4536   74.1904    3.9337 C   0  0  2  0  0  0  0  0  0  0  0  0
   22.6913   72.8871    4.1738 C   0  0  2  0  0  0  0  0  0  0  0  0
   24.9415   73.9048    3.7182 C   0  0  1  0  0  0  0  0  0  0  0  0
   22.9902   71.8678    3.0736 C   0  0  1  0  0  0  0  0  0  0  0  0
   25.1526   72.7896    2.6982 C   0  0  1  0  0  0  0  0  0  0  0  0
   22.3904   75.2304    5.2341 H   0  0  0  0  0  0  0  0  0  0  0  0
   21.0928   73.7757    4.9083 H   0  0  0  0  0  0  0  0  0  0  0  0
   25.4523   75.8050    3.8793 H   0  0  0  0  0  0  0  0  0  0  0  0
   26.6557   71.0706    2.1623 O   0  0  0  0  0  0  0  0  0  0  0  0
   27.5065   72.9055    3.2149 O   0  0  0  0  0  0  0  0  0  0  0  0
   26.5621   72.2955    2.7365 C   0  0  0  0  0  0  0  0  0  0  0  0
  1  4  1  0
  1 24  1  0
  1  2  1  6
  1  3  2  0
 25 28  1  0
 25 24  1  0
 25 26  1  6
 25 27  2  0
  6 11  1  0
  6 12  1  0
 29 36  1  0
 29 37  1  0
  9  7  1  6
  7 13  1  0
 10  8  1  1
  8 14  1  0
  4  5  1  0
 36 28  1  6
 33 30  1  1
 30 38  1  0
 34 31  1  6
 31 39  1  0
 35 32  1  6
 32 40  1  0
 41 43  1  0
 15 19  2  0
 42 43  2  0
 16 22  2  0
 12 17  1  6
 17 19  1  0
 17 20  1  0
 18 19  1  0
 18 22  1  0
 18 23  1  0
  9 10  1  0
  9 11  1  0
 10 12  1  0
 11  5  1  6
 33 34  1  0
 33 35  1  0
 34 36  1  0
 35 37  1  0
 37 43  1  1
 20 21  2  0
 21 22  1  0
M  CHG  3   2  -1  26  -1  41  -1
M  END
>  <COMPND>  (102) 
    udp_gluA.pdb 

>  <AUTHOR>  (102) 
    GENERATED BY OPEN BABEL 3.1.1

>  <MASTER>  (102) 
        0    0    0    0    0    0    0    0   56    0   56    0

>  <minimizedAffinity>  (102) 
-7.74065

>  <CNNscore>  (102) 
0.8940085173

>  <CNNaffinity>  (102) 
4.6036453247

>  <CNN_VS>  (102) 
4.1156983376

>  <CNNaffinity_variance>  (102) 
0.0875662789

$$$$
103
     RDKit          3D

 43 45  0  0  0  0  0  0  0  0999 V2000
   22.8117   71.5954   -2.5555 P   0  0  2  0  0  0  0  0  0  0  0  0
   24.2100   71.0079   -3.1198 O   0  0  0  0  0  0  0  0  0  0  0  0
   22.3747   71.0322   -1.2350 O   0  0  0  0  0  0  0  0  0  0  0  0
   21.7793   71.3881   -3.7840 O   0  0  0  0  0  0  0  0  0  0  0  0
   20.8471   70.3249   -3.7118 C   0  0  0  0  0  0  0  0  0  0  0  0
   19.0284   71.5829   -4.6538 O   0  0  0  0  0  0  0  0  0  0  0  0
   17.3427   70.4395   -2.4532 O   0  0  0  0  0  0  0  0  0  0  0  0
   16.6622   68.8901   -4.5915 O   0  0  0  0  0  0  0  0  0  0  0  0
   18.4076   69.8316   -3.1846 C   0  0  1  0  0  0  0  0  0  0  0  0
   17.9472   69.4759   -4.5824 C   0  0  2  0  0  0  0  0  0  0  0  0
   19.4591   70.8985   -3.4574 C   0  0  1  0  0  0  0  0  0  0  0  0
   17.9794   70.8260   -5.2782 C   0  0  2  0  0  0  0  0  0  0  0  0
   16.6584   69.7771   -2.2672 H   0  0  0  0  0  0  0  0  0  0  0  0
   16.6944   68.0330   -4.1373 H   0  0  0  0  0  0  0  0  0  0  0  0
   16.0431   70.2234   -7.2439 O   0  0  0  0  0  0  0  0  0  0  0  0
   19.1597   70.4159  -10.6341 O   0  0  0  0  0  0  0  0  0  0  0  0
   18.2574   70.7126   -6.6820 N   0  0  0  0  0  0  0  0  0  0  0  0
   17.5974   70.3189   -8.9304 N   0  0  0  0  0  0  0  0  0  0  0  0
   17.2130   70.4059   -7.5859 C   0  0  0  0  0  0  0  0  0  0  0  0
   19.5513   70.9058   -7.1506 C   0  0  0  0  0  0  0  0  0  0  0  0
   19.9023   70.8197   -8.4351 C   0  0  0  0  0  0  0  0  0  0  0  0
   18.8709   70.5021   -9.4444 C   0  0  0  0  0  0  0  0  0  0  0  0
   16.8878   70.1044   -9.5784 H   0  0  0  0  0  0  0  0  0  0  0  0
   23.0621   73.1923   -2.5568 O   0  0  0  0  0  0  0  0  0  0  0  0
   22.1642   74.4080   -1.9829 P   0  0  2  0  0  0  0  0  0  0  0  0
   20.7974   74.2964   -2.8430 O   0  0  0  0  0  0  0  0  0  0  0  0
   22.8304   75.7516   -2.0519 O   0  0  0  0  0  0  0  0  0  0  0  0
   21.7482   73.9426   -0.4953 O   0  0  0  0  0  0  0  0  0  0  0  0
   21.4989   75.1303    1.5386 O   0  0  0  0  0  0  0  0  0  0  0  0
   23.0493   71.5327    2.8505 O   0  0  0  0  0  0  0  0  0  0  0  0
   24.1086   72.8136    0.4481 O   0  0  0  0  0  0  0  0  0  0  0  0
   20.2253   72.1221    3.2091 O   0  0  0  0  0  0  0  0  0  0  0  0
   22.2912   72.3920    1.9991 C   0  0  2  0  0  0  0  0  0  0  0  0
   23.2163   73.4326    1.3676 C   0  0  2  0  0  0  0  0  0  0  0  0
   21.2214   73.0783    2.8514 C   0  0  1  0  0  0  0  0  0  0  0  0
   22.4117   74.5068    0.6344 C   0  0  1  0  0  0  0  0  0  0  0  0
   20.5514   74.2195    2.0917 C   0  0  1  0  0  0  0  0  0  0  0  0
   23.7357   71.0856    2.3306 H   0  0  0  0  0  0  0  0  0  0  0  0
   24.6222   72.1307    0.9065 H   0  0  0  0  0  0  0  0  0  0  0  0
   20.6387   71.3902    3.6932 H   0  0  0  0  0  0  0  0  0  0  0  0
   20.2264   76.3549    3.0060 O   0  0  0  0  0  0  0  0  0  0  0  0
   18.8182   74.7011    3.6996 O   0  0  0  0  0  0  0  0  0  0  0  0
   19.7595   75.0818    3.0199 C   0  0  0  0  0  0  0  0  0  0  0  0
  1  4  1  0
  1 24  1  0
  1  2  1  6
  1  3  2  0
 25 28  1  0
 25 24  1  0
 25 26  1  6
 25 27  2  0
  6 11  1  0
  6 12  1  0
 29 36  1  0
 29 37  1  0
  9  7  1  1
  7 13  1  0
 10  8  1  1
  8 14  1  0
  4  5  1  0
 36 28  1  6
 33 30  1  1
 30 38  1  0
 34 31  1  6
 31 39  1  0
 35 32  1  6
 32 40  1  0
 41 43  1  0
 15 19  2  0
 42 43  2  0
 16 22  2  0
 12 17  1  6
 17 19  1  0
 17 20  1  0
 18 19  1  0
 18 22  1  0
 18 23  1  0
  9 10  1  0
  9 11  1  0
 10 12  1  0
 11  5  1  6
 33 34  1  0
 33 35  1  0
 34 36  1  0
 35 37  1  0
 37 43  1  1
 20 21  2  0
 21 22  1  0
M  CHG  3   2  -1  26  -1  41  -1
M  END
>  <COMPND>  (103) 
    udp_gluA.pdb 

>  <AUTHOR>  (103) 
    GENERATED BY OPEN BABEL 3.1.1

>  <MASTER>  (103) 
        0    0    0    0    0    0    0    0   56    0   56    0

>  <minimizedAffinity>  (103) 
-7.06669

>  <CNNscore>  (103) 
0.8899353743

>  <CNNaffinity>  (103) 
4.6430296898

>  <CNN_VS>  (103) 
4.1319961548

>  <CNNaffinity_variance>  (103) 
0.0107223745

$$$$
104
     RDKit          3D

 43 45  0  0  0  0  0  0  0  0999 V2000
   23.1913   72.1186   -2.9973 P   0  0  2  0  0  0  0  0  0  0  0  0
   23.9050   73.4918   -3.4704 O   0  0  0  0  0  0  0  0  0  0  0  0
   24.0220   70.8808   -3.1697 O   0  0  0  0  0  0  0  0  0  0  0  0
   21.7743   72.1281   -3.7782 O   0  0  0  0  0  0  0  0  0  0  0  0
   21.0189   70.9315   -3.8230 C   0  0  0  0  0  0  0  0  0  0  0  0
   18.9716   71.7990   -4.7361 O   0  0  0  0  0  0  0  0  0  0  0  0
   17.5954   70.4653   -2.4299 O   0  0  0  0  0  0  0  0  0  0  0  0
   17.1384   68.7284   -4.4819 O   0  0  0  0  0  0  0  0  0  0  0  0
   18.7286   70.0289   -3.1810 C   0  0  1  0  0  0  0  0  0  0  0  0
   18.2949   69.5365   -4.5454 C   0  0  2  0  0  0  0  0  0  0  0  0
   19.5588   71.2554   -3.5340 C   0  0  1  0  0  0  0  0  0  0  0  0
   18.0579   70.8392   -5.2902 C   0  0  2  0  0  0  0  0  0  0  0  0
   17.0496   69.6988   -2.1928 H   0  0  0  0  0  0  0  0  0  0  0  0
   17.3409   67.9115   -3.9986 H   0  0  0  0  0  0  0  0  0  0  0  0
   16.0509   70.4172   -7.2320 O   0  0  0  0  0  0  0  0  0  0  0  0
   19.1241   70.3891  -10.6669 O   0  0  0  0  0  0  0  0  0  0  0  0
   18.3057   70.7178   -6.6990 N   0  0  0  0  0  0  0  0  0  0  0  0
   17.5835   70.4026   -8.9408 N   0  0  0  0  0  0  0  0  0  0  0  0
   17.2268   70.5069   -7.5899 C   0  0  0  0  0  0  0  0  0  0  0  0
   19.6042   70.8094   -7.1853 C   0  0  0  0  0  0  0  0  0  0  0  0
   19.9286   70.7081   -8.4757 C   0  0  0  0  0  0  0  0  0  0  0  0
   18.8603   70.4863   -9.4722 C   0  0  0  0  0  0  0  0  0  0  0  0
   16.8496   70.2535   -9.5798 H   0  0  0  0  0  0  0  0  0  0  0  0
   22.7670   72.4375   -1.4705 O   0  0  0  0  0  0  0  0  0  0  0  0
   22.0778   73.7428   -0.8110 P   0  0  2  0  0  0  0  0  0  0  0  0
   20.4999   73.5054   -1.0833 O   0  0  0  0  0  0  0  0  0  0  0  0
   22.6059   75.0478   -1.3325 O   0  0  0  0  0  0  0  0  0  0  0  0
   22.2519   73.5378    0.7797 O   0  0  0  0  0  0  0  0  0  0  0  0
   24.4734   73.1849    1.5208 O   0  0  0  0  0  0  0  0  0  0  0  0
   22.3000   72.2670    4.9122 O   0  0  0  0  0  0  0  0  0  0  0  0
   21.3988   71.3604    2.2853 O   0  0  0  0  0  0  0  0  0  0  0  0
   23.7225   74.7957    4.7308 O   0  0  0  0  0  0  0  0  0  0  0  0
   22.5811   72.9472    3.6890 C   0  0  2  0  0  0  0  0  0  0  0  0
   22.6746   71.9327    2.5490 C   0  0  2  0  0  0  0  0  0  0  0  0
   23.9108   73.6866    3.8539 C   0  0  1  0  0  0  0  0  0  0  0  0
   23.1986   72.5913    1.2721 C   0  0  1  0  0  0  0  0  0  0  0  0
   24.4294   74.2053    2.5158 C   0  0  1  0  0  0  0  0  0  0  0  0
   21.4592   71.7897    4.8311 H   0  0  0  0  0  0  0  0  0  0  0  0
   21.0602   70.9409    3.0914 H   0  0  0  0  0  0  0  0  0  0  0  0
   23.3924   74.4792    5.5862 H   0  0  0  0  0  0  0  0  0  0  0  0
   26.4986   73.8996    3.5771 O   0  0  0  0  0  0  0  0  0  0  0  0
   26.3864   75.5021    1.9590 O   0  0  0  0  0  0  0  0  0  0  0  0
   25.8585   74.6264    2.6279 C   0  0  0  0  0  0  0  0  0  0  0  0
  1  4  1  0
  1 24  1  0
  1  2  1  6
  1  3  2  0
 25 28  1  0
 25 24  1  0
 25 26  1  1
 25 27  2  0
  6 11  1  0
  6 12  1  0
 29 36  1  0
 29 37  1  0
  9  7  1  1
  7 13  1  0
 10  8  1  1
  8 14  1  0
  4  5  1  0
 36 28  1  1
 33 30  1  1
 30 38  1  0
 34 31  1  6
 31 39  1  0
 35 32  1  1
 32 40  1  0
 41 43  1  0
 15 19  2  0
 42 43  2  0
 16 22  2  0
 12 17  1  6
 17 19  1  0
 17 20  1  0
 18 19  1  0
 18 22  1  0
 18 23  1  0
  9 10  1  0
  9 11  1  0
 10 12  1  0
 11  5  1  6
 33 34  1  0
 33 35  1  0
 34 36  1  0
 35 37  1  0
 37 43  1  1
 20 21  2  0
 21 22  1  0
M  CHG  3   2  -1  26  -1  41  -1
M  END
>  <COMPND>  (104) 
    udp_gluA.pdb 

>  <AUTHOR>  (104) 
    GENERATED BY OPEN BABEL 3.1.1

>  <MASTER>  (104) 
        0    0    0    0    0    0    0    0   56    0   56    0

>  <minimizedAffinity>  (104) 
-7.14834

>  <CNNscore>  (104) 
0.8717722297

>  <CNNaffinity>  (104) 
4.6466608047

>  <CNN_VS>  (104) 
4.0508298874

>  <CNNaffinity_variance>  (104) 
0.0138601167

$$$$
105
     RDKit          3D

 43 45  0  0  0  0  0  0  0  0999 V2000
   22.9581   72.2086   -3.8201 P   0  0  2  0  0  0  0  0  0  0  0  0
   23.5487   73.1320   -5.0106 O   0  0  0  0  0  0  0  0  0  0  0  0
   23.9565   71.2945   -3.1725 O   0  0  0  0  0  0  0  0  0  0  0  0
   21.6744   71.4859   -4.4893 O   0  0  0  0  0  0  0  0  0  0  0  0
   20.9748   70.5147   -3.7331 C   0  0  0  0  0  0  0  0  0  0  0  0
   19.0723   71.6606   -4.6525 O   0  0  0  0  0  0  0  0  0  0  0  0
   17.5009   70.4795   -2.3882 O   0  0  0  0  0  0  0  0  0  0  0  0
   16.8474   68.8546   -4.4783 O   0  0  0  0  0  0  0  0  0  0  0  0
   18.5769   69.9109   -3.1347 C   0  0  1  0  0  0  0  0  0  0  0  0
   18.1011   69.5040   -4.5132 C   0  0  2  0  0  0  0  0  0  0  0  0
   19.5662   71.0232   -3.4545 C   0  0  1  0  0  0  0  0  0  0  0  0
   18.0479   70.8396   -5.2353 C   0  0  2  0  0  0  0  0  0  0  0  0
   16.8557   69.7876   -2.1721 H   0  0  0  0  0  0  0  0  0  0  0  0
   16.9340   68.0097   -4.0086 H   0  0  0  0  0  0  0  0  0  0  0  0
   16.1097   70.0516   -7.1325 O   0  0  0  0  0  0  0  0  0  0  0  0
   19.1154   70.3821  -10.6111 O   0  0  0  0  0  0  0  0  0  0  0  0
   18.2969   70.7115   -6.6433 N   0  0  0  0  0  0  0  0  0  0  0  0
   17.6088   70.2159   -8.8631 N   0  0  0  0  0  0  0  0  0  0  0  0
   17.2542   70.3086   -7.5108 C   0  0  0  0  0  0  0  0  0  0  0  0
   19.5609   70.9850   -7.1518 C   0  0  0  0  0  0  0  0  0  0  0  0
   19.8838   70.8923   -8.4433 C   0  0  0  0  0  0  0  0  0  0  0  0
   18.8520   70.4769   -9.4161 C   0  0  0  0  0  0  0  0  0  0  0  0
   16.9000   69.9353   -9.4860 H   0  0  0  0  0  0  0  0  0  0  0  0
   22.2875   73.2887   -2.8218 O   0  0  0  0  0  0  0  0  0  0  0  0
   22.9444   74.2428   -1.6941 P   0  0  2  0  0  0  0  0  0  0  0  0
   22.1387   75.6354   -1.8726 O   0  0  0  0  0  0  0  0  0  0  0  0
   24.4367   74.3748   -1.7923 O   0  0  0  0  0  0  0  0  0  0  0  0
   22.4162   73.6435   -0.2925 O   0  0  0  0  0  0  0  0  0  0  0  0
   23.1349   71.4477    0.2280 O   0  0  0  0  0  0  0  0  0  0  0  0
   20.1956   72.0648    3.0648 O   0  0  0  0  0  0  0  0  0  0  0  0
   19.7944   72.9317    0.3040 O   0  0  0  0  0  0  0  0  0  0  0  0
   23.0004   72.1900    3.8187 O   0  0  0  0  0  0  0  0  0  0  0  0
   21.2517   72.4385    2.1800 C   0  0  2  0  0  0  0  0  0  0  0  0
   20.8599   72.0966    0.7422 C   0  0  2  0  0  0  0  0  0  0  0  0
   22.5069   71.6640    2.5881 C   0  0  1  0  0  0  0  0  0  0  0  0
   22.0488   72.2680   -0.2043 C   0  0  1  0  0  0  0  0  0  0  0  0
   23.6025   71.7828    1.5326 C   0  0  1  0  0  0  0  0  0  0  0  0
   19.3873   72.5446    2.8246 H   0  0  0  0  0  0  0  0  0  0  0  0
   19.0368   72.8282    0.9003 H   0  0  0  0  0  0  0  0  0  0  0  0
   22.3125   72.1205    4.4990 H   0  0  0  0  0  0  0  0  0  0  0  0
   25.5747   70.7815    0.7520 O   0  0  0  0  0  0  0  0  0  0  0  0
   24.7549   70.0465    2.7487 O   0  0  0  0  0  0  0  0  0  0  0  0
   24.6804   70.7761    1.7714 C   0  0  0  0  0  0  0  0  0  0  0  0
  1  4  1  0
  1 24  1  0
  1  2  1  6
  1  3  2  0
 25 28  1  0
 25 24  1  0
 25 26  1  6
 25 27  2  0
  6 11  1  0
  6 12  1  0
 29 36  1  0
 29 37  1  0
  9  7  1  1
  7 13  1  0
 10  8  1  1
  8 14  1  0
  4  5  1  0
 36 28  1  1
 33 30  1  1
 30 38  1  0
 34 31  1  6
 31 39  1  0
 35 32  1  1
 32 40  1  0
 41 43  1  0
 15 19  2  0
 42 43  2  0
 16 22  2  0
 12 17  1  6
 17 19  1  0
 17 20  1  0
 18 19  1  0
 18 22  1  0
 18 23  1  0
  9 10  1  0
  9 11  1  0
 10 12  1  0
 11  5  1  6
 33 34  1  0
 33 35  1  0
 34 36  1  0
 35 37  1  0
 37 43  1  1
 20 21  2  0
 21 22  1  0
M  CHG  3   2  -1  26  -1  41  -1
M  END
>  <COMPND>  (105) 
    udp_gluA.pdb 

>  <AUTHOR>  (105) 
    GENERATED BY OPEN BABEL 3.1.1

>  <MASTER>  (105) 
        0    0    0    0    0    0    0    0   56    0   56    0

>  <minimizedAffinity>  (105) 
-8.09276

>  <CNNscore>  (105) 
0.8452553153

>  <CNNaffinity>  (105) 
4.6828584671

>  <CNN_VS>  (105) 
3.9582109451

>  <CNNaffinity_variance>  (105) 
0.0398909226

$$$$
106
     RDKit          3D

 43 45  0  0  0  0  0  0  0  0999 V2000
   21.1499   71.7714   -1.5236 P   0  0  2  0  0  0  0  0  0  0  0  0
   20.6868   73.0317   -2.4271 O   0  0  0  0  0  0  0  0  0  0  0  0
   22.6164   71.4581   -1.5775 O   0  0  0  0  0  0  0  0  0  0  0  0
   20.1591   70.5781   -1.9844 O   0  0  0  0  0  0  0  0  0  0  0  0
   19.6976   70.5614   -3.3227 C   0  0  0  0  0  0  0  0  0  0  0  0
   17.9071   71.5687   -4.5707 O   0  0  0  0  0  0  0  0  0  0  0  0
   16.0496   70.0082   -2.8083 O   0  0  0  0  0  0  0  0  0  0  0  0
   16.0841   68.5268   -5.0974 O   0  0  0  0  0  0  0  0  0  0  0  0
   17.3270   69.6378   -3.3274 C   0  0  1  0  0  0  0  0  0  0  0  0
   17.2194   69.3133   -4.8023 C   0  0  2  0  0  0  0  0  0  0  0  0
   18.2080   70.8796   -3.3378 C   0  0  1  0  0  0  0  0  0  0  0  0
   17.1502   70.6971   -5.4254 C   0  0  2  0  0  0  0  0  0  0  0  0
   15.4690   69.2308   -2.7919 H   0  0  0  0  0  0  0  0  0  0  0  0
   16.1763   67.6561   -4.6788 H   0  0  0  0  0  0  0  0  0  0  0  0
   15.7055   70.1566   -7.7913 O   0  0  0  0  0  0  0  0  0  0  0  0
   19.4148   70.8625  -10.4346 O   0  0  0  0  0  0  0  0  0  0  0  0
   17.7137   70.7325   -6.7453 N   0  0  0  0  0  0  0  0  0  0  0  0
   17.5545   70.5077   -9.1055 N   0  0  0  0  0  0  0  0  0  0  0  0
   16.9014   70.4447   -7.8675 C   0  0  0  0  0  0  0  0  0  0  0  0
   19.0551   71.0510   -6.9184 C   0  0  0  0  0  0  0  0  0  0  0  0
   19.6636   71.1072   -8.1047 C   0  0  0  0  0  0  0  0  0  0  0  0
   18.8861   70.8192   -9.3278 C   0  0  0  0  0  0  0  0  0  0  0  0
   17.0100   70.3092   -9.9013 H   0  0  0  0  0  0  0  0  0  0  0  0
   20.5970   72.1558   -0.0541 O   0  0  0  0  0  0  0  0  0  0  0  0
   21.1804   71.8303    1.4181 P   0  0  2  0  0  0  0  0  0  0  0  0
   21.6864   70.2984    1.2850 O   0  0  0  0  0  0  0  0  0  0  0  0
   20.2029   72.0640    2.5333 O   0  0  0  0  0  0  0  0  0  0  0  0
   22.5356   72.6991    1.5226 O   0  0  0  0  0  0  0  0  0  0  0  0
   22.4709   74.2577    3.3046 O   0  0  0  0  0  0  0  0  0  0  0  0
   26.0008   75.2831    1.4188 O   0  0  0  0  0  0  0  0  0  0  0  0
   23.6176   74.6442   -0.1454 O   0  0  0  0  0  0  0  0  0  0  0  0
   26.0592   73.7978    3.9170 O   0  0  0  0  0  0  0  0  0  0  0  0
   24.9655   74.4035    1.8575 C   0  0  2  0  0  0  0  0  0  0  0  0
   23.6294   74.8490    1.2627 C   0  0  2  0  0  0  0  0  0  0  0  0
   24.9130   74.4600    3.3858 C   0  0  1  0  0  0  0  0  0  0  0  0
   22.4673   74.0762    1.8881 C   0  0  1  0  0  0  0  0  0  0  0  0
   23.6605   73.7760    3.9259 C   0  0  1  0  0  0  0  0  0  0  0  0
   26.0528   75.2638    0.4501 H   0  0  0  0  0  0  0  0  0  0  0  0
   24.3526   75.1316   -0.5487 H   0  0  0  0  0  0  0  0  0  0  0  0
   26.8633   74.2234    3.5808 H   0  0  0  0  0  0  0  0  0  0  0  0
   22.5102   73.3073    5.9156 O   0  0  0  0  0  0  0  0  0  0  0  0
   24.0376   74.9993    5.9711 O   0  0  0  0  0  0  0  0  0  0  0  0
   23.4488   74.1166    5.3652 C   0  0  0  0  0  0  0  0  0  0  0  0
  1  4  1  0
  1 24  1  0
  1  2  1  6
  1  3  2  0
 25 28  1  0
 25 24  1  0
 25 26  1  6
 25 27  2  0
  6 11  1  0
  6 12  1  0
 29 36  1  0
 29 37  1  0
  9  7  1  6
  7 13  1  0
 10  8  1  1
  8 14  1  0
  4  5  1  0
 36 28  1  1
 33 30  1  6
 30 38  1  0
 34 31  1  6
 31 39  1  0
 35 32  1  1
 32 40  1  0
 41 43  1  0
 15 19  2  0
 42 43  2  0
 16 22  2  0
 12 17  1  6
 17 19  1  0
 17 20  1  0
 18 19  1  0
 18 22  1  0
 18 23  1  0
  9 10  1  0
  9 11  1  0
 10 12  1  0
 11  5  1  6
 33 34  1  0
 33 35  1  0
 34 36  1  0
 35 37  1  0
 37 43  1  1
 20 21  2  0
 21 22  1  0
M  CHG  3   2  -1  26  -1  41  -1
M  END
>  <COMPND>  (106) 
    udp_gluA.pdb 

>  <AUTHOR>  (106) 
    GENERATED BY OPEN BABEL 3.1.1

>  <MASTER>  (106) 
        0    0    0    0    0    0    0    0   56    0   56    0

>  <minimizedAffinity>  (106) 
-7.23037

>  <CNNscore>  (106) 
0.8426969051

>  <CNNaffinity>  (106) 
4.5587940216

>  <CNN_VS>  (106) 
3.8416817188

>  <CNNaffinity_variance>  (106) 
0.1173889861

$$$$
107
     RDKit          3D

 43 45  0  0  0  0  0  0  0  0999 V2000
   21.8147   72.5438   -5.4513 P   0  0  2  0  0  0  0  0  0  0  0  0
   21.1561   74.0056   -5.2319 O   0  0  0  0  0  0  0  0  0  0  0  0
   23.1135   72.5404   -6.2029 O   0  0  0  0  0  0  0  0  0  0  0  0
   20.6196   71.6741   -6.1096 O   0  0  0  0  0  0  0  0  0  0  0  0
   20.2057   71.9828   -7.4279 C   0  0  0  0  0  0  0  0  0  0  0  0
   18.9750   69.9699   -6.9682 O   0  0  0  0  0  0  0  0  0  0  0  0
   18.1978   70.0051   -9.8640 O   0  0  0  0  0  0  0  0  0  0  0  0
   15.9735   70.9979   -8.6381 O   0  0  0  0  0  0  0  0  0  0  0  0
   18.3810   71.0984   -8.9643 C   0  0  1  0  0  0  0  0  0  0  0  0
   17.2187   71.1820   -7.9976 C   0  0  2  0  0  0  0  0  0  0  0  0
   19.5408   70.7562   -8.0391 C   0  0  1  0  0  0  0  0  0  0  0  0
   17.5427   70.0673   -7.0176 C   0  0  2  0  0  0  0  0  0  0  0  0
   17.4617   70.2006  -10.4654 H   0  0  0  0  0  0  0  0  0  0  0  0
   15.8134   71.7332   -9.2510 H   0  0  0  0  0  0  0  0  0  0  0  0
   16.2911   68.1520   -5.3618 O   0  0  0  0  0  0  0  0  0  0  0  0
   15.6807   71.2140   -1.9713 O   0  0  0  0  0  0  0  0  0  0  0  0
   17.0472   70.3370   -5.6975 N   0  0  0  0  0  0  0  0  0  0  0  0
   15.9874   69.6791   -3.6751 N   0  0  0  0  0  0  0  0  0  0  0  0
   16.4345   69.3044   -4.9490 C   0  0  0  0  0  0  0  0  0  0  0  0
   17.1716   71.6110   -5.1569 C   0  0  0  0  0  0  0  0  0  0  0  0
   16.7406   71.9531   -3.9411 C   0  0  0  0  0  0  0  0  0  0  0  0
   16.0880   70.9330   -3.0944 C   0  0  0  0  0  0  0  0  0  0  0  0
   15.5556   68.9776   -3.1359 H   0  0  0  0  0  0  0  0  0  0  0  0
   21.9053   71.9573   -3.9478 O   0  0  0  0  0  0  0  0  0  0  0  0
   23.0930   72.0222   -2.8529 P   0  0  2  0  0  0  0  0  0  0  0  0
   23.6713   73.5245   -3.0232 O   0  0  0  0  0  0  0  0  0  0  0  0
   24.1253   70.9419   -2.9994 O   0  0  0  0  0  0  0  0  0  0  0  0
   22.3362   72.0363   -1.4283 O   0  0  0  0  0  0  0  0  0  0  0  0
   23.9996   72.1885    0.2507 O   0  0  0  0  0  0  0  0  0  0  0  0
   20.5354   72.1382    2.5013 O   0  0  0  0  0  0  0  0  0  0  0  0
   20.8351   70.3579    0.2045 O   0  0  0  0  0  0  0  0  0  0  0  0
   21.9852   74.6273    2.1099 O   0  0  0  0  0  0  0  0  0  0  0  0
   21.3451   72.4283    1.3619 C   0  0  2  0  0  0  0  0  0  0  0  0
   21.8887   71.1253    0.7753 C   0  0  2  0  0  0  0  0  0  0  0  0
   22.4962   73.3284    1.8166 C   0  0  1  0  0  0  0  0  0  0  0  0
   22.9395   71.4058   -0.2999 C   0  0  1  0  0  0  0  0  0  0  0  0
   23.5638   73.4572    0.7339 C   0  0  1  0  0  0  0  0  0  0  0  0
   19.7971   71.5672    2.2366 H   0  0  0  0  0  0  0  0  0  0  0  0
   20.1646   70.1765    0.8812 H   0  0  0  0  0  0  0  0  0  0  0  0
   21.3046   74.5593    2.7977 H   0  0  0  0  0  0  0  0  0  0  0  0
   24.9499   75.3424    0.8967 O   0  0  0  0  0  0  0  0  0  0  0  0
   25.6131   73.4646    2.0073 O   0  0  0  0  0  0  0  0  0  0  0  0
   24.8158   74.0520    1.2915 C   0  0  0  0  0  0  0  0  0  0  0  0
  1  4  1  0
  1 24  1  0
  1  2  1  1
  1  3  2  0
 25 28  1  0
 25 24  1  0
 25 26  1  6
 25 27  2  0
  6 11  1  0
  6 12  1  0
 29 36  1  0
 29 37  1  0
  9  7  1  6
  7 13  1  0
 10  8  1  6
  8 14  1  0
  4  5  1  0
 36 28  1  6
 33 30  1  1
 30 38  1  0
 34 31  1  6
 31 39  1  0
 35 32  1  6
 32 40  1  0
 41 43  1  0
 15 19  2  0
 42 43  2  0
 16 22  2  0
 12 17  1  1
 17 19  1  0
 17 20  1  0
 18 19  1  0
 18 22  1  0
 18 23  1  0
  9 10  1  0
  9 11  1  0
 10 12  1  0
 11  5  1  1
 33 34  1  0
 33 35  1  0
 34 36  1  0
 35 37  1  0
 37 43  1  1
 20 21  2  0
 21 22  1  0
M  CHG  3   2  -1  26  -1  41  -1
M  END
>  <COMPND>  (107) 
    udp_gluA.pdb 

>  <AUTHOR>  (107) 
    GENERATED BY OPEN BABEL 3.1.1

>  <MASTER>  (107) 
        0    0    0    0    0    0    0    0   56    0   56    0

>  <minimizedAffinity>  (107) 
-7.86749

>  <CNNscore>  (107) 
0.7953203917

>  <CNNaffinity>  (107) 
4.5794596672

>  <CNN_VS>  (107) 
3.6421377659

>  <CNNaffinity_variance>  (107) 
0.1843493879

$$$$
108
     RDKit          3D

 43 45  0  0  0  0  0  0  0  0999 V2000
   20.2997   72.6985   -2.5729 P   0  0  2  0  0  0  0  0  0  0  0  0
   20.3958   73.4391   -1.1373 O   0  0  0  0  0  0  0  0  0  0  0  0
   20.2269   73.6180   -3.7565 O   0  0  0  0  0  0  0  0  0  0  0  0
   19.0578   71.6758   -2.4002 O   0  0  0  0  0  0  0  0  0  0  0  0
   17.7431   72.2012   -2.4092 C   0  0  0  0  0  0  0  0  0  0  0  0
   16.4652   70.9669   -4.0282 O   0  0  0  0  0  0  0  0  0  0  0  0
   16.2062   68.8419   -1.9285 O   0  0  0  0  0  0  0  0  0  0  0  0
   18.1759   67.8548   -3.5354 O   0  0  0  0  0  0  0  0  0  0  0  0
   17.3099   69.7020   -2.2124 C   0  0  1  0  0  0  0  0  0  0  0  0
   18.0096   69.2562   -3.4788 C   0  0  2  0  0  0  0  0  0  0  0  0
   16.7547   71.0609   -2.6166 C   0  0  1  0  0  0  0  0  0  0  0  0
   17.0743   69.7780   -4.5563 C   0  0  2  0  0  0  0  0  0  0  0  0
   16.5360   67.9673   -1.6678 H   0  0  0  0  0  0  0  0  0  0  0  0
   18.7796   67.5722   -2.8300 H   0  0  0  0  0  0  0  0  0  0  0  0
   15.9745   69.5062   -7.1433 O   0  0  0  0  0  0  0  0  0  0  0  0
   19.8210   71.0729   -9.1417 O   0  0  0  0  0  0  0  0  0  0  0  0
   17.7664   70.1075   -5.7700 N   0  0  0  0  0  0  0  0  0  0  0  0
   17.8917   70.2858   -8.1362 N   0  0  0  0  0  0  0  0  0  0  0  0
   17.1236   69.9338   -7.0185 C   0  0  0  0  0  0  0  0  0  0  0  0
   19.0654   70.5980   -5.7165 C   0  0  0  0  0  0  0  0  0  0  0  0
   19.7848   70.9293   -6.7905 C   0  0  0  0  0  0  0  0  0  0  0  0
   19.1871   70.7770   -8.1333 C   0  0  0  0  0  0  0  0  0  0  0  0
   17.4662   70.1715   -9.0167 H   0  0  0  0  0  0  0  0  0  0  0  0
   21.5835   71.7163   -2.5612 O   0  0  0  0  0  0  0  0  0  0  0  0
   23.1432   72.0118   -2.2551 P   0  0  2  0  0  0  0  0  0  0  0  0
   23.3530   73.5139   -2.8207 O   0  0  0  0  0  0  0  0  0  0  0  0
   24.0870   70.9965   -2.8317 O   0  0  0  0  0  0  0  0  0  0  0  0
   23.2235   72.1656   -0.6513 O   0  0  0  0  0  0  0  0  0  0  0  0
   24.6158   71.0032    0.8717 O   0  0  0  0  0  0  0  0  0  0  0  0
   21.2964   71.7924    3.2013 O   0  0  0  0  0  0  0  0  0  0  0  0
   20.9874   70.9156    0.4318 O   0  0  0  0  0  0  0  0  0  0  0  0
   23.7310   73.3405    3.5580 O   0  0  0  0  0  0  0  0  0  0  0  0
   22.2534   72.0377    2.1708 C   0  0  2  0  0  0  0  0  0  0  0  0
   22.2136   70.8971    1.1534 C   0  0  2  0  0  0  0  0  0  0  0  0
   23.6364   72.1234    2.8204 C   0  0  1  0  0  0  0  0  0  0  0  0
   23.3751   71.0053    0.1645 C   0  0  1  0  0  0  0  0  0  0  0  0
   24.7461   72.1001    1.7733 C   0  0  1  0  0  0  0  0  0  0  0  0
   20.4096   71.7340    2.8120 H   0  0  0  0  0  0  0  0  0  0  0  0
   20.2460   70.8475    1.0532 H   0  0  0  0  0  0  0  0  0  0  0  0
   23.0300   73.3680    4.2278 H   0  0  0  0  0  0  0  0  0  0  0  0
   26.4917   72.9519    3.0882 O   0  0  0  0  0  0  0  0  0  0  0  0
   26.7017   70.8070    2.3436 O   0  0  0  0  0  0  0  0  0  0  0  0
   26.0737   71.8529    2.4127 C   0  0  0  0  0  0  0  0  0  0  0  0
  1  4  1  0
  1 24  1  0
  1  2  1  1
  1  3  2  0
 25 28  1  0
 25 24  1  0
 25 26  1  6
 25 27  2  0
  6 11  1  0
  6 12  1  0
 29 36  1  0
 29 37  1  0
  9  7  1  6
  7 13  1  0
 10  8  1  1
  8 14  1  0
  4  5  1  0
 36 28  1  1
 33 30  1  1
 30 38  1  0
 34 31  1  6
 31 39  1  0
 35 32  1  6
 32 40  1  0
 41 43  1  0
 15 19  2  0
 42 43  2  0
 16 22  2  0
 12 17  1  6
 17 19  1  0
 17 20  1  0
 18 19  1  0
 18 22  1  0
 18 23  1  0
  9 10  1  0
  9 11  1  0
 10 12  1  0
 11  5  1  6
 33 34  1  0
 33 35  1  0
 34 36  1  0
 35 37  1  0
 37 43  1  1
 20 21  2  0
 21 22  1  0
M  CHG  3   2  -1  26  -1  41  -1
M  END
>  <COMPND>  (108) 
    udp_gluA.pdb 

>  <AUTHOR>  (108) 
    GENERATED BY OPEN BABEL 3.1.1

>  <MASTER>  (108) 
        0    0    0    0    0    0    0    0   56    0   56    0

>  <minimizedAffinity>  (108) 
-7.53270

>  <CNNscore>  (108) 
0.7868446708

>  <CNNaffinity>  (108) 
4.4340519905

>  <CNN_VS>  (108) 
3.4889101982

>  <CNNaffinity_variance>  (108) 
0.1201621741

$$$$
109
     RDKit          3D

 43 45  0  0  0  0  0  0  0  0999 V2000
   18.7514   75.9769   -3.1502 P   0  0  2  0  0  0  0  0  0  0  0  0
   17.5610   76.5799   -2.2347 O   0  0  0  0  0  0  0  0  0  0  0  0
   19.5426   76.9980   -3.9138 O   0  0  0  0  0  0  0  0  0  0  0  0
   18.0187   74.8441   -4.0435 O   0  0  0  0  0  0  0  0  0  0  0  0
   18.6104   73.5605   -4.1256 C   0  0  0  0  0  0  0  0  0  0  0  0
   16.9903   72.0958   -5.1293 O   0  0  0  0  0  0  0  0  0  0  0  0
   17.0244   70.5867   -2.5384 O   0  0  0  0  0  0  0  0  0  0  0  0
   18.6045   69.0499   -4.1439 O   0  0  0  0  0  0  0  0  0  0  0  0
   18.0968   71.2400   -3.2178 C   0  0  1  0  0  0  0  0  0  0  0  0
   18.5225   70.4315   -4.4250 C   0  0  2  0  0  0  0  0  0  0  0  0
   17.5445   72.5051   -3.8602 C   0  0  1  0  0  0  0  0  0  0  0  0
   17.4286   70.7605   -5.4266 C   0  0  2  0  0  0  0  0  0  0  0  0
   17.3530   69.7752   -2.1198 H   0  0  0  0  0  0  0  0  0  0  0  0
   19.3151   68.8922   -3.5020 H   0  0  0  0  0  0  0  0  0  0  0  0
   15.8627   69.9275   -7.6244 O   0  0  0  0  0  0  0  0  0  0  0  0
   19.3245   70.6206  -10.5873 O   0  0  0  0  0  0  0  0  0  0  0  0
   17.8957   70.7135   -6.7832 N   0  0  0  0  0  0  0  0  0  0  0  0
   17.5887   70.2725   -9.0979 N   0  0  0  0  0  0  0  0  0  0  0  0
   17.0285   70.2795   -7.8136 C   0  0  0  0  0  0  0  0  0  0  0  0
   19.1977   71.0960   -7.0821 C   0  0  0  0  0  0  0  0  0  0  0  0
   19.7174   71.0841   -8.3112 C   0  0  0  0  0  0  0  0  0  0  0  0
   18.8780   70.6430   -9.4444 C   0  0  0  0  0  0  0  0  0  0  0  0
   17.0047   69.9722   -9.8314 H   0  0  0  0  0  0  0  0  0  0  0  0
   19.6144   75.1067   -2.0963 O   0  0  0  0  0  0  0  0  0  0  0  0
   20.8342   75.5255   -1.1214 P   0  0  2  0  0  0  0  0  0  0  0  0
   20.1073   76.4142    0.0196 O   0  0  0  0  0  0  0  0  0  0  0  0
   21.9682   76.2206   -1.8177 O   0  0  0  0  0  0  0  0  0  0  0  0
   21.2466   74.1581   -0.3713 O   0  0  0  0  0  0  0  0  0  0  0  0
   21.6575   72.5525   -2.0631 O   0  0  0  0  0  0  0  0  0  0  0  0
   22.4900   70.3970    1.3617 O   0  0  0  0  0  0  0  0  0  0  0  0
   20.1741   72.1746    1.2570 O   0  0  0  0  0  0  0  0  0  0  0  0
   24.6581   71.3808   -0.3064 O   0  0  0  0  0  0  0  0  0  0  0  0
   22.4111   71.5642    0.5434 C   0  0  2  0  0  0  0  0  0  0  0  0
   20.9585   71.8019    0.1299 C   0  0  2  0  0  0  0  0  0  0  0  0
   23.2855   71.3359   -0.6916 C   0  0  1  0  0  0  0  0  0  0  0  0
   20.8640   72.9019   -0.9283 C   0  0  1  0  0  0  0  0  0  0  0  0
   23.0413   72.4052   -1.7524 C   0  0  1  0  0  0  0  0  0  0  0  0
   21.9419   70.5190    2.1529 H   0  0  0  0  0  0  0  0  0  0  0  0
   20.2297   71.4812    1.9327 H   0  0  0  0  0  0  0  0  0  0  0  0
   24.8268   70.7050    0.3687 H   0  0  0  0  0  0  0  0  0  0  0  0
   24.2960   70.8206   -2.9424 O   0  0  0  0  0  0  0  0  0  0  0  0
   23.5474   72.6367   -4.1001 O   0  0  0  0  0  0  0  0  0  0  0  0
   23.6377   72.0001   -3.0610 C   0  0  0  0  0  0  0  0  0  0  0  0
  1  4  1  0
  1 24  1  0
  1  2  1  1
  1  3  2  0
 25 28  1  0
 25 24  1  0
 25 26  1  1
 25 27  2  0
  6 11  1  0
  6 12  1  0
 29 36  1  0
 29 37  1  0
  9  7  1  6
  7 13  1  0
 10  8  1  1
  8 14  1  0
  4  5  1  0
 36 28  1  1
 33 30  1  1
 30 38  1  0
 34 31  1  1
 31 39  1  0
 35 32  1  1
 32 40  1  0
 41 43  1  0
 15 19  2  0
 42 43  2  0
 16 22  2  0
 12 17  1  6
 17 19  1  0
 17 20  1  0
 18 19  1  0
 18 22  1  0
 18 23  1  0
  9 10  1  0
  9 11  1  0
 10 12  1  0
 11  5  1  6
 33 34  1  0
 33 35  1  0
 34 36  1  0
 35 37  1  0
 37 43  1  6
 20 21  2  0
 21 22  1  0
M  CHG  3   2  -1  26  -1  41  -1
M  END
>  <COMPND>  (109) 
    udp_gluA.pdb 

>  <AUTHOR>  (109) 
    GENERATED BY OPEN BABEL 3.1.1

>  <MASTER>  (109) 
        0    0    0    0    0    0    0    0   56    0   56    0

>  <minimizedAffinity>  (109) 
-6.16127

>  <CNNscore>  (109) 
0.7625032067

>  <CNNaffinity>  (109) 
4.5153951645

>  <CNN_VS>  (109) 
3.4430031776

>  <CNNaffinity_variance>  (109) 
0.1571806371

$$$$
110
     RDKit          3D

 43 45  0  0  0  0  0  0  0  0999 V2000
   23.4895   73.7154   -4.0463 P   0  0  2  0  0  0  0  0  0  0  0  0
   24.2629   72.2994   -4.1719 O   0  0  0  0  0  0  0  0  0  0  0  0
   24.1990   74.8821   -4.6686 O   0  0  0  0  0  0  0  0  0  0  0  0
   23.1742   73.8469   -2.4648 O   0  0  0  0  0  0  0  0  0  0  0  0
   21.8520   73.6108   -2.0171 C   0  0  0  0  0  0  0  0  0  0  0  0
   22.9533   71.6907   -1.0799 O   0  0  0  0  0  0  0  0  0  0  0  0
   20.2135   70.5253   -0.7236 O   0  0  0  0  0  0  0  0  0  0  0  0
   20.8134   71.4146    1.7835 O   0  0  0  0  0  0  0  0  0  0  0  0
   20.6422   71.8812   -0.5967 C   0  0  1  0  0  0  0  0  0  0  0  0
   21.4214   72.0665    0.6881 C   0  0  2  0  0  0  0  0  0  0  0  0
   21.7065   72.1384   -1.6547 C   0  0  1  0  0  0  0  0  0  0  0  0
   22.7708   71.4689    0.3276 C   0  0  2  0  0  0  0  0  0  0  0  0
   19.5332   70.3372   -0.0576 H   0  0  0  0  0  0  0  0  0  0  0  0
   19.9579   71.8317    1.9737 H   0  0  0  0  0  0  0  0  0  0  0  0
   24.6367   70.0687    1.9195 O   0  0  0  0  0  0  0  0  0  0  0  0
   26.8784   73.9422    3.0217 O   0  0  0  0  0  0  0  0  0  0  0  0
   23.8521   72.0867    1.0416 N   0  0  0  0  0  0  0  0  0  0  0  0
   25.7508   71.9994    2.4678 N   0  0  0  0  0  0  0  0  0  0  0  0
   24.7334   71.2927    1.8131 C   0  0  0  0  0  0  0  0  0  0  0  0
   24.0324   73.4628    0.9725 C   0  0  0  0  0  0  0  0  0  0  0  0
   25.0069   74.1222    1.6021 C   0  0  0  0  0  0  0  0  0  0  0  0
   25.9700   73.3669    2.4299 C   0  0  0  0  0  0  0  0  0  0  0  0
   26.3755   71.4683    3.0127 H   0  0  0  0  0  0  0  0  0  0  0  0
   22.0380   73.3936   -4.6807 O   0  0  0  0  0  0  0  0  0  0  0  0
   21.5003   73.4873   -6.2025 P   0  0  2  0  0  0  0  0  0  0  0  0
   22.6269   72.6842   -7.0429 O   0  0  0  0  0  0  0  0  0  0  0  0
   21.2519   74.8878   -6.6827 O   0  0  0  0  0  0  0  0  0  0  0  0
   20.2042   72.5274   -6.2384 O   0  0  0  0  0  0  0  0  0  0  0  0
   19.8000   70.3352   -5.4386 O   0  0  0  0  0  0  0  0  0  0  0  0
   17.6400   70.3568   -8.9602 O   0  0  0  0  0  0  0  0  0  0  0  0
   20.2979   71.5638   -8.8458 O   0  0  0  0  0  0  0  0  0  0  0  0
   16.2684   70.5685   -6.4059 O   0  0  0  0  0  0  0  0  0  0  0  0
   18.2155   70.9191   -7.7810 C   0  0  2  0  0  0  0  0  0  0  0  0
   19.7346   70.7511   -7.8227 C   0  0  2  0  0  0  0  0  0  0  0  0
   17.6316   70.1834   -6.5728 C   0  0  1  0  0  0  0  0  0  0  0  0
   20.3640   71.1310   -6.4817 C   0  0  1  0  0  0  0  0  0  0  0  0
   18.3936   70.5197   -5.2942 C   0  0  1  0  0  0  0  0  0  0  0  0
   17.9964   70.8088   -9.7413 H   0  0  0  0  0  0  0  0  0  0  0  0
   19.9028   71.3283   -9.6995 H   0  0  0  0  0  0  0  0  0  0  0  0
   15.7724   70.3600   -7.2129 H   0  0  0  0  0  0  0  0  0  0  0  0
   18.9232   69.6651   -3.1751 O   0  0  0  0  0  0  0  0  0  0  0  0
   17.0887   68.7999   -4.2167 O   0  0  0  0  0  0  0  0  0  0  0  0
   18.0407   69.5657   -4.1998 C   0  0  0  0  0  0  0  0  0  0  0  0
  1  4  1  0
  1 24  1  0
  1  2  1  1
  1  3  2  0
 25 28  1  0
 25 24  1  0
 25 26  1  6
 25 27  2  0
  6 11  1  0
  6 12  1  0
 29 36  1  0
 29 37  1  0
  9  7  1  6
  7 13  1  0
 10  8  1  1
  8 14  1  0
  4  5  1  0
 36 28  1  1
 33 30  1  6
 30 38  1  0
 34 31  1  6
 31 39  1  0
 35 32  1  1
 32 40  1  0
 41 43  1  0
 15 19  2  0
 42 43  2  0
 16 22  2  0
 12 17  1  1
 17 19  1  0
 17 20  1  0
 18 19  1  0
 18 22  1  0
 18 23  1  0
  9 10  1  0
  9 11  1  0
 10 12  1  0
 11  5  1  1
 33 34  1  0
 33 35  1  0
 34 36  1  0
 35 37  1  0
 37 43  1  1
 20 21  2  0
 21 22  1  0
M  CHG  3   2  -1  26  -1  41  -1
M  END
>  <COMPND>  (110) 
    udp_gluA.pdb 

>  <AUTHOR>  (110) 
    GENERATED BY OPEN BABEL 3.1.1

>  <MASTER>  (110) 
        0    0    0    0    0    0    0    0   56    0   56    0

>  <minimizedAffinity>  (110) 
-7.81583

>  <CNNscore>  (110) 
0.7135398388

>  <CNNaffinity>  (110) 
4.4871664047

>  <CNN_VS>  (110) 
3.2017719746

>  <CNNaffinity_variance>  (110) 
0.1109880432

$$$$
111
     RDKit          3D

 43 45  0  0  0  0  0  0  0  0999 V2000
   21.9455   72.6700   -5.7465 P   0  0  2  0  0  0  0  0  0  0  0  0
   21.4338   74.1427   -5.3128 O   0  0  0  0  0  0  0  0  0  0  0  0
   23.0712   72.6571   -6.7386 O   0  0  0  0  0  0  0  0  0  0  0  0
   20.5939   71.9092   -6.2074 O   0  0  0  0  0  0  0  0  0  0  0  0
   20.0722   72.1786   -7.4957 C   0  0  0  0  0  0  0  0  0  0  0  0
   18.9983   70.0907   -6.9811 O   0  0  0  0  0  0  0  0  0  0  0  0
   18.1861   70.0107   -9.8665 O   0  0  0  0  0  0  0  0  0  0  0  0
   15.9097   70.8624   -8.6302 O   0  0  0  0  0  0  0  0  0  0  0  0
   18.2992   71.1323   -8.9904 C   0  0  1  0  0  0  0  0  0  0  0  0
   17.1455   71.1500   -8.0100 C   0  0  2  0  0  0  0  0  0  0  0  0
   19.4920   70.8946   -8.0744 C   0  0  1  0  0  0  0  0  0  0  0  0
   17.5622   70.0819   -7.0133 C   0  0  2  0  0  0  0  0  0  0  0  0
   17.4306   70.1397  -10.4616 H   0  0  0  0  0  0  0  0  0  0  0  0
   15.6887   71.5715   -9.2549 H   0  0  0  0  0  0  0  0  0  0  0  0
   16.2928   68.1576   -5.3817 O   0  0  0  0  0  0  0  0  0  0  0  0
   15.6905   71.1879   -1.9615 O   0  0  0  0  0  0  0  0  0  0  0  0
   17.0640   70.3410   -5.6921 N   0  0  0  0  0  0  0  0  0  0  0  0
   15.9931   69.6690   -3.6802 N   0  0  0  0  0  0  0  0  0  0  0  0
   16.4422   69.3046   -4.9564 C   0  0  0  0  0  0  0  0  0  0  0  0
   17.1947   71.6085   -5.1378 C   0  0  0  0  0  0  0  0  0  0  0  0
   16.7618   71.9407   -3.9200 C   0  0  0  0  0  0  0  0  0  0  0  0
   16.0999   70.9161   -3.0861 C   0  0  0  0  0  0  0  0  0  0  0  0
   15.5550   68.9647   -3.1498 H   0  0  0  0  0  0  0  0  0  0  0  0
   22.2892   71.9733   -4.3290 O   0  0  0  0  0  0  0  0  0  0  0  0
   23.5665   72.1316   -3.3505 P   0  0  2  0  0  0  0  0  0  0  0  0
   24.5063   73.1889   -4.1373 O   0  0  0  0  0  0  0  0  0  0  0  0
   24.2445   70.8365   -3.0087 O   0  0  0  0  0  0  0  0  0  0  0  0
   23.0082   72.9513   -2.0782 O   0  0  0  0  0  0  0  0  0  0  0  0
   21.2599   72.1467   -0.6979 O   0  0  0  0  0  0  0  0  0  0  0  0
   21.1246   76.2066    0.0549 O   0  0  0  0  0  0  0  0  0  0  0  0
   21.5065   75.2171   -2.6672 O   0  0  0  0  0  0  0  0  0  0  0  0
   22.2831   74.3972    2.0132 O   0  0  0  0  0  0  0  0  0  0  0  0
   21.7431   74.9607   -0.2663 C   0  0  2  0  0  0  0  0  0  0  0  0
   21.1387   74.4069   -1.5568 C   0  0  2  0  0  0  0  0  0  0  0  0
   21.4938   73.9957    0.8951 C   0  0  1  0  0  0  0  0  0  0  0  0
   21.6075   72.9733   -1.8094 C   0  0  1  0  0  0  0  0  0  0  0  0
   21.8699   72.5649    0.5211 C   0  0  1  0  0  0  0  0  0  0  0  0
   21.2698   76.8359   -0.6691 H   0  0  0  0  0  0  0  0  0  0  0  0
   21.2124   76.1283   -2.5135 H   0  0  0  0  0  0  0  0  0  0  0  0
   22.0535   75.3064    2.2613 H   0  0  0  0  0  0  0  0  0  0  0  0
   21.5514   70.3193    1.1189 O   0  0  0  0  0  0  0  0  0  0  0  0
   20.7558   71.9011    2.5556 O   0  0  0  0  0  0  0  0  0  0  0  0
   21.3254   71.5952    1.5188 C   0  0  0  0  0  0  0  0  0  0  0  0
  1  4  1  0
  1 24  1  0
  1  2  1  1
  1  3  2  0
 25 28  1  0
 25 24  1  0
 25 26  1  6
 25 27  2  0
  6 11  1  0
  6 12  1  0
 29 36  1  0
 29 37  1  0
  9  7  1  6
  7 13  1  0
 10  8  1  6
  8 14  1  0
  4  5  1  0
 36 28  1  1
 33 30  1  1
 30 38  1  0
 34 31  1  6
 31 39  1  0
 35 32  1  1
 32 40  1  0
 41 43  1  0
 15 19  2  0
 42 43  2  0
 16 22  2  0
 12 17  1  1
 17 19  1  0
 17 20  1  0
 18 19  1  0
 18 22  1  0
 18 23  1  0
  9 10  1  0
  9 11  1  0
 10 12  1  0
 11  5  1  1
 33 34  1  0
 33 35  1  0
 34 36  1  0
 35 37  1  0
 37 43  1  1
 20 21  2  0
 21 22  1  0
M  CHG  3   2  -1  26  -1  41  -1
M  END
>  <COMPND>  (111) 
    udp_gluA.pdb 

>  <AUTHOR>  (111) 
    GENERATED BY OPEN BABEL 3.1.1

>  <MASTER>  (111) 
        0    0    0    0    0    0    0    0   56    0   56    0

>  <minimizedAffinity>  (111) 
-7.99151

>  <CNNscore>  (111) 
0.6956036091

>  <CNNaffinity>  (111) 
4.4370455742

>  <CNN_VS>  (111) 
3.0864248276

>  <CNNaffinity_variance>  (111) 
0.3929675519

$$$$
112
     RDKit          3D

 43 45  0  0  0  0  0  0  0  0999 V2000
   21.7978   72.7299   -5.3475 P   0  0  2  0  0  0  0  0  0  0  0  0
   21.6107   74.1050   -6.1800 O   0  0  0  0  0  0  0  0  0  0  0  0
   23.2126   72.4088   -4.9644 O   0  0  0  0  0  0  0  0  0  0  0  0
   21.0466   71.6210   -6.2552 O   0  0  0  0  0  0  0  0  0  0  0  0
   20.1675   72.0632   -7.2731 C   0  0  0  0  0  0  0  0  0  0  0  0
   18.8873   70.0683   -6.8742 O   0  0  0  0  0  0  0  0  0  0  0  0
   18.2193   70.1358   -9.7967 O   0  0  0  0  0  0  0  0  0  0  0  0
   15.9676   71.1577   -8.6470 O   0  0  0  0  0  0  0  0  0  0  0  0
   18.3869   71.2199   -8.8827 C   0  0  1  0  0  0  0  0  0  0  0  0
   17.1909   71.3166   -7.9594 C   0  0  2  0  0  0  0  0  0  0  0  0
   19.5056   70.8520   -7.9176 C   0  0  1  0  0  0  0  0  0  0  0  0
   17.4597   70.1901   -6.9762 C   0  0  2  0  0  0  0  0  0  0  0  0
   17.5095   70.3477  -10.4235 H   0  0  0  0  0  0  0  0  0  0  0  0
   15.8427   71.8996   -9.2601 H   0  0  0  0  0  0  0  0  0  0  0  0
   16.4375   68.2157   -5.2344 O   0  0  0  0  0  0  0  0  0  0  0  0
   15.4133   71.3376   -2.0019 O   0  0  0  0  0  0  0  0  0  0  0  0
   16.9198   70.4592   -5.6735 N   0  0  0  0  0  0  0  0  0  0  0  0
   15.9275   69.7726   -3.6265 N   0  0  0  0  0  0  0  0  0  0  0  0
   16.4319   69.3955   -4.8781 C   0  0  0  0  0  0  0  0  0  0  0  0
   16.8788   71.7634   -5.1956 C   0  0  0  0  0  0  0  0  0  0  0  0
   16.3951   72.1072   -4.0004 C   0  0  0  0  0  0  0  0  0  0  0  0
   15.8650   71.0558   -3.1077 C   0  0  0  0  0  0  0  0  0  0  0  0
   15.5802   69.0495   -3.0556 H   0  0  0  0  0  0  0  0  0  0  0  0
   20.7891   72.9214   -4.0990 O   0  0  0  0  0  0  0  0  0  0  0  0
   20.6199   74.1382   -3.0481 P   0  0  2  0  0  0  0  0  0  0  0  0
   19.0531   74.5238   -3.1778 O   0  0  0  0  0  0  0  0  0  0  0  0
   21.5603   75.2858   -3.2781 O   0  0  0  0  0  0  0  0  0  0  0  0
   20.7502   73.4465   -1.5966 O   0  0  0  0  0  0  0  0  0  0  0  0
   22.3455   73.9839    0.0693 O   0  0  0  0  0  0  0  0  0  0  0  0
   21.4838   70.0451    0.9700 O   0  0  0  0  0  0  0  0  0  0  0  0
   21.8236   70.8892   -1.8060 O   0  0  0  0  0  0  0  0  0  0  0  0
   20.3930   72.1878    2.6039 O   0  0  0  0  0  0  0  0  0  0  0  0
   21.2106   71.3626    0.4931 C   0  0  2  0  0  0  0  0  0  0  0  0
   22.1439   71.6884   -0.6732 C   0  0  2  0  0  0  0  0  0  0  0  0
   21.4403   72.3405    1.6477 C   0  0  1  0  0  0  0  0  0  0  0  0
   22.0414   73.1644   -1.0601 C   0  0  1  0  0  0  0  0  0  0  0  0
   21.4484   73.7863    1.1599 C   0  0  1  0  0  0  0  0  0  0  0  0
   21.3445   69.4062    0.2532 H   0  0  0  0  0  0  0  0  0  0  0  0
   21.8863   69.9513   -1.5677 H   0  0  0  0  0  0  0  0  0  0  0  0
   20.3769   71.2717    2.9223 H   0  0  0  0  0  0  0  0  0  0  0  0
   22.6621   73.9926    3.1564 O   0  0  0  0  0  0  0  0  0  0  0  0
   21.8596   75.9124    2.2240 O   0  0  0  0  0  0  0  0  0  0  0  0
   21.9926   74.6978    2.2112 C   0  0  0  0  0  0  0  0  0  0  0  0
  1  4  1  0
  1 24  1  0
  1  2  1  6
  1  3  2  0
 25 28  1  0
 25 24  1  0
 25 26  1  1
 25 27  2  0
  6 11  1  0
  6 12  1  0
 29 36  1  0
 29 37  1  0
  9  7  1  6
  7 13  1  0
 10  8  1  6
  8 14  1  0
  4  5  1  0
 36 28  1  1
 33 30  1  1
 30 38  1  0
 34 31  1  6
 31 39  1  0
 35 32  1  1
 32 40  1  0
 41 43  1  0
 15 19  2  0
 42 43  2  0
 16 22  2  0
 12 17  1  1
 17 19  1  0
 17 20  1  0
 18 19  1  0
 18 22  1  0
 18 23  1  0
  9 10  1  0
  9 11  1  0
 10 12  1  0
 11  5  1  1
 33 34  1  0
 33 35  1  0
 34 36  1  0
 35 37  1  0
 37 43  1  1
 20 21  2  0
 21 22  1  0
M  CHG  3   2  -1  26  -1  41  -1
M  END
>  <COMPND>  (112) 
    udp_gluA.pdb 

>  <AUTHOR>  (112) 
    GENERATED BY OPEN BABEL 3.1.1

>  <MASTER>  (112) 
        0    0    0    0    0    0    0    0   56    0   56    0

>  <minimizedAffinity>  (112) 
-6.81925

>  <CNNscore>  (112) 
0.6605814099

>  <CNNaffinity>  (112) 
4.4235544205

>  <CNN_VS>  (112) 
2.9221177101

>  <CNNaffinity_variance>  (112) 
0.1885935217

$$$$
113
     RDKit          3D

 43 45  0  0  0  0  0  0  0  0999 V2000
   23.5442   73.6732   -4.1822 P   0  0  2  0  0  0  0  0  0  0  0  0
   22.6916   75.0087   -4.5113 O   0  0  0  0  0  0  0  0  0  0  0  0
   25.0280   73.8760   -4.0877 O   0  0  0  0  0  0  0  0  0  0  0  0
   23.0500   72.6117   -5.2989 O   0  0  0  0  0  0  0  0  0  0  0  0
   21.6670   72.3230   -5.3920 C   0  0  0  0  0  0  0  0  0  0  0  0
   20.6280   70.3456   -6.2797 O   0  0  0  0  0  0  0  0  0  0  0  0
   20.8831   71.6446   -8.9702 O   0  0  0  0  0  0  0  0  0  0  0  0
   18.2651   72.0805   -8.3440 O   0  0  0  0  0  0  0  0  0  0  0  0
   20.6050   72.2393   -7.7023 C   0  0  1  0  0  0  0  0  0  0  0  0
   19.1832   71.9343   -7.2809 C   0  0  2  0  0  0  0  0  0  0  0  0
   21.4159   71.4984   -6.6479 C   0  0  1  0  0  0  0  0  0  0  0  0
   19.2980   70.4976   -6.8007 C   0  0  2  0  0  0  0  0  0  0  0  0
   20.3762   72.1014   -9.6602 H   0  0  0  0  0  0  0  0  0  0  0  0
   18.2280   73.0122   -8.6133 H   0  0  0  0  0  0  0  0  0  0  0  0
   16.6069   69.7753   -7.2618 O   0  0  0  0  0  0  0  0  0  0  0  0
   15.7619   69.3339   -2.7523 O   0  0  0  0  0  0  0  0  0  0  0  0
   18.3528   70.1886   -5.7653 N   0  0  0  0  0  0  0  0  0  0  0  0
   16.1883   69.5571   -5.0154 N   0  0  0  0  0  0  0  0  0  0  0  0
   17.0246   69.8375   -6.1040 C   0  0  0  0  0  0  0  0  0  0  0  0
   18.7444   70.2335   -4.4328 C   0  0  0  0  0  0  0  0  0  0  0  0
   17.9359   69.9635   -3.4061 C   0  0  0  0  0  0  0  0  0  0  0  0
   16.5317   69.5890   -3.6735 C   0  0  0  0  0  0  0  0  0  0  0  0
   15.2583   69.3122   -5.2261 H   0  0  0  0  0  0  0  0  0  0  0  0
   22.8519   73.1251   -2.8283 O   0  0  0  0  0  0  0  0  0  0  0  0
   22.8933   71.6676   -2.1299 P   0  0  2  0  0  0  0  0  0  0  0  0
   24.2549   71.0159   -2.7145 O   0  0  0  0  0  0  0  0  0  0  0  0
   21.6627   70.8391   -2.3604 O   0  0  0  0  0  0  0  0  0  0  0  0
   23.2184   71.9663   -0.5783 O   0  0  0  0  0  0  0  0  0  0  0  0
   24.6434   70.9573    1.0218 O   0  0  0  0  0  0  0  0  0  0  0  0
   21.3316   71.8839    3.3112 O   0  0  0  0  0  0  0  0  0  0  0  0
   21.0133   70.7748    0.6274 O   0  0  0  0  0  0  0  0  0  0  0  0
   23.7426   73.4954    3.5135 O   0  0  0  0  0  0  0  0  0  0  0  0
   22.2753   72.0580    2.2543 C   0  0  2  0  0  0  0  0  0  0  0  0
   22.2459   70.8362    1.3356 C   0  0  2  0  0  0  0  0  0  0  0  0
   23.6622   72.2198    2.8805 C   0  0  1  0  0  0  0  0  0  0  0  0
   23.3967   70.8805    0.3294 C   0  0  1  0  0  0  0  0  0  0  0  0
   24.7630   72.1274    1.8278 C   0  0  1  0  0  0  0  0  0  0  0  0
   20.4426   71.7790    2.9371 H   0  0  0  0  0  0  0  0  0  0  0  0
   20.2786   70.7467    1.2597 H   0  0  0  0  0  0  0  0  0  0  0  0
   23.0471   73.5672    4.1858 H   0  0  0  0  0  0  0  0  0  0  0  0
   26.4689   73.0893    3.1186 O   0  0  0  0  0  0  0  0  0  0  0  0
   26.7737   70.9373    2.4293 O   0  0  0  0  0  0  0  0  0  0  0  0
   26.1001   71.9558    2.4721 C   0  0  0  0  0  0  0  0  0  0  0  0
  1  4  1  0
  1 24  1  0
  1  2  1  6
  1  3  2  0
 25 28  1  0
 25 24  1  0
 25 26  1  6
 25 27  2  0
  6 11  1  0
  6 12  1  0
 29 36  1  0
 29 37  1  0
  9  7  1  6
  7 13  1  0
 10  8  1  6
  8 14  1  0
  4  5  1  0
 36 28  1  6
 33 30  1  1
 30 38  1  0
 34 31  1  6
 31 39  1  0
 35 32  1  6
 32 40  1  0
 41 43  1  0
 15 19  2  0
 42 43  2  0
 16 22  2  0
 12 17  1  1
 17 19  1  0
 17 20  1  0
 18 19  1  0
 18 22  1  0
 18 23  1  0
  9 10  1  0
  9 11  1  0
 10 12  1  0
 11  5  1  1
 33 34  1  0
 33 35  1  0
 34 36  1  0
 35 37  1  0
 37 43  1  1
 20 21  2  0
 21 22  1  0
M  CHG  3   2  -1  26  -1  41  -1
M  END
>  <COMPND>  (113) 
    udp_gluA.pdb 

>  <AUTHOR>  (113) 
    GENERATED BY OPEN BABEL 3.1.1

>  <MASTER>  (113) 
        0    0    0    0    0    0    0    0   56    0   56    0

>  <minimizedAffinity>  (113) 
-8.16608

>  <CNNscore>  (113) 
0.6595360041

>  <CNNaffinity>  (113) 
4.3408498764

>  <CNN_VS>  (113) 
2.8629467487

>  <CNNaffinity_variance>  (113) 
0.1300747246

$$$$
114
     RDKit          3D

 43 45  0  0  0  0  0  0  0  0999 V2000
   19.3995   75.5816   -2.7352 P   0  0  2  0  0  0  0  0  0  0  0  0
   18.6156   76.4284   -1.6005 O   0  0  0  0  0  0  0  0  0  0  0  0
   20.1168   76.4093   -3.7610 O   0  0  0  0  0  0  0  0  0  0  0  0
   18.2758   74.5692   -3.3100 O   0  0  0  0  0  0  0  0  0  0  0  0
   18.6914   73.3120   -3.8112 C   0  0  0  0  0  0  0  0  0  0  0  0
   17.0085   72.0083   -4.9273 O   0  0  0  0  0  0  0  0  0  0  0  0
   16.9080   70.3452   -2.4342 O   0  0  0  0  0  0  0  0  0  0  0  0
   18.4263   68.8189   -4.1078 O   0  0  0  0  0  0  0  0  0  0  0  0
   18.0286   70.9747   -3.0560 C   0  0  1  0  0  0  0  0  0  0  0  0
   18.4291   70.2174   -4.3043 C   0  0  2  0  0  0  0  0  0  0  0  0
   17.5619   72.3066   -3.6273 C   0  0  1  0  0  0  0  0  0  0  0  0
   17.3747   70.6702   -5.2998 C   0  0  2  0  0  0  0  0  0  0  0  0
   17.1817   69.4920   -2.0616 H   0  0  0  0  0  0  0  0  0  0  0  0
   19.1148   68.5811   -3.4664 H   0  0  0  0  0  0  0  0  0  0  0  0
   15.8180   70.0139   -7.5631 O   0  0  0  0  0  0  0  0  0  0  0  0
   19.3533   70.7357  -10.4309 O   0  0  0  0  0  0  0  0  0  0  0  0
   17.8631   70.6784   -6.6497 N   0  0  0  0  0  0  0  0  0  0  0  0
   17.5805   70.3731   -8.9892 N   0  0  0  0  0  0  0  0  0  0  0  0
   16.9988   70.3322   -7.7152 C   0  0  0  0  0  0  0  0  0  0  0  0
   19.1831   71.0279   -6.9076 C   0  0  0  0  0  0  0  0  0  0  0  0
   19.7232   71.0624   -8.1273 C   0  0  0  0  0  0  0  0  0  0  0  0
   18.8881   70.7137   -9.2954 C   0  0  0  0  0  0  0  0  0  0  0  0
   16.9989   70.1340   -9.7468 H   0  0  0  0  0  0  0  0  0  0  0  0
   20.3549   74.6090   -1.8668 O   0  0  0  0  0  0  0  0  0  0  0  0
   21.9582   74.6051   -1.6594 P   0  0  2  0  0  0  0  0  0  0  0  0
   22.2835   76.1403   -1.2626 O   0  0  0  0  0  0  0  0  0  0  0  0
   22.7307   74.0948   -2.8413 O   0  0  0  0  0  0  0  0  0  0  0  0
   22.1926   73.7739   -0.2969 O   0  0  0  0  0  0  0  0  0  0  0  0
   22.8985   71.5341    0.0105 O   0  0  0  0  0  0  0  0  0  0  0  0
   20.4083   72.0842    3.2607 O   0  0  0  0  0  0  0  0  0  0  0  0
   19.6563   73.1064    0.6293 O   0  0  0  0  0  0  0  0  0  0  0  0
   23.2936   72.0898    3.6157 O   0  0  0  0  0  0  0  0  0  0  0  0
   21.3430   72.4739    2.2545 C   0  0  2  0  0  0  0  0  0  0  0  0
   20.7422   72.2194    0.8718 C   0  0  2  0  0  0  0  0  0  0  0  0
   22.6146   71.6436    2.4433 C   0  0  1  0  0  0  0  0  0  0  0  0
   21.7925   72.4066   -0.2239 C   0  0  1  0  0  0  0  0  0  0  0  0
   23.5555   71.7866    1.2505 C   0  0  1  0  0  0  0  0  0  0  0  0
   19.5919   72.5988    3.1606 H   0  0  0  0  0  0  0  0  0  0  0  0
   18.9862   72.9931    1.3211 H   0  0  0  0  0  0  0  0  0  0  0  0
   22.7055   72.0042    4.3823 H   0  0  0  0  0  0  0  0  0  0  0  0
   24.5839   70.0592    2.4589 O   0  0  0  0  0  0  0  0  0  0  0  0
   25.4152   70.5160    0.3854 O   0  0  0  0  0  0  0  0  0  0  0  0
   24.6198   70.7386    1.2858 C   0  0  0  0  0  0  0  0  0  0  0  0
  1  4  1  0
  1 24  1  0
  1  2  1  1
  1  3  2  0
 25 28  1  0
 25 24  1  0
 25 26  1  1
 25 27  2  0
  6 11  1  0
  6 12  1  0
 29 36  1  0
 29 37  1  0
  9  7  1  6
  7 13  1  0
 10  8  1  1
  8 14  1  0
  4  5  1  0
 36 28  1  1
 33 30  1  1
 30 38  1  0
 34 31  1  6
 31 39  1  0
 35 32  1  1
 32 40  1  0
 41 43  1  0
 15 19  2  0
 42 43  2  0
 16 22  2  0
 12 17  1  6
 17 19  1  0
 17 20  1  0
 18 19  1  0
 18 22  1  0
 18 23  1  0
  9 10  1  0
  9 11  1  0
 10 12  1  0
 11  5  1  6
 33 34  1  0
 33 35  1  0
 34 36  1  0
 35 37  1  0
 37 43  1  1
 20 21  2  0
 21 22  1  0
M  CHG  3   2  -1  26  -1  41  -1
M  END
>  <COMPND>  (114) 
    udp_gluA.pdb 

>  <AUTHOR>  (114) 
    GENERATED BY OPEN BABEL 3.1.1

>  <MASTER>  (114) 
        0    0    0    0    0    0    0    0   56    0   56    0

>  <minimizedAffinity>  (114) 
-6.34220

>  <CNNscore>  (114) 
0.6383451819

>  <CNNaffinity>  (114) 
4.2207622528

>  <CNN_VS>  (114) 
2.6943032742

>  <CNNaffinity_variance>  (114) 
0.0638682395

$$$$
115
     RDKit          3D

 43 45  0  0  0  0  0  0  0  0999 V2000
   16.2565   70.6180   -2.3843 P   0  0  2  0  0  0  0  0  0  0  0  0
   15.8636   71.6112   -1.1685 O   0  0  0  0  0  0  0  0  0  0  0  0
   15.7596   71.0426   -3.7351 O   0  0  0  0  0  0  0  0  0  0  0  0
   15.7565   69.1654   -1.8764 O   0  0  0  0  0  0  0  0  0  0  0  0
   15.0518   69.0833   -0.6512 C   0  0  0  0  0  0  0  0  0  0  0  0
   13.0670   67.8744   -0.0372 O   0  0  0  0  0  0  0  0  0  0  0  0
   11.5411   70.0174   -1.4760 O   0  0  0  0  0  0  0  0  0  0  0  0
   11.2559   70.7363    1.1389 O   0  0  0  0  0  0  0  0  0  0  0  0
   12.7312   70.1251   -0.6947 C   0  0  1  0  0  0  0  0  0  0  0  0
   12.4045   69.9980    0.7782 C   0  0  2  0  0  0  0  0  0  0  0  0
   13.5708   68.8795   -0.9434 C   0  0  1  0  0  0  0  0  0  0  0  0
   12.2076   68.4992    0.9294 C   0  0  2  0  0  0  0  0  0  0  0  0
   10.9883   70.8022   -1.3336 H   0  0  0  0  0  0  0  0  0  0  0  0
   11.4319   71.6840    1.0256 H   0  0  0  0  0  0  0  0  0  0  0  0
   10.9422   66.3435    2.2440 O   0  0  0  0  0  0  0  0  0  0  0  0
   13.6399   66.7848    5.9550 O   0  0  0  0  0  0  0  0  0  0  0  0
   12.5594   68.0297    2.2396 N   0  0  0  0  0  0  0  0  0  0  0  0
   12.2863   66.5660    4.0914 N   0  0  0  0  0  0  0  0  0  0  0  0
   11.8608   66.9392    2.8097 C   0  0  0  0  0  0  0  0  0  0  0  0
   13.5861   68.6458    2.9446 C   0  0  0  0  0  0  0  0  0  0  0  0
   13.9804   68.2787    4.1655 C   0  0  0  0  0  0  0  0  0  0  0  0
   13.3017   67.1484    4.8326 C   0  0  0  0  0  0  0  0  0  0  0  0
   11.8135   65.8105    4.5098 H   0  0  0  0  0  0  0  0  0  0  0  0
   17.8648   70.5122   -2.2612 O   0  0  0  0  0  0  0  0  0  0  0  0
   19.0216   71.6190   -2.4857 P   0  0  2  0  0  0  0  0  0  0  0  0
   20.3757   70.8235   -2.0933 O   0  0  0  0  0  0  0  0  0  0  0  0
   18.8102   72.8942   -1.7222 O   0  0  0  0  0  0  0  0  0  0  0  0
   19.1068   71.8031   -4.0861 O   0  0  0  0  0  0  0  0  0  0  0  0
   18.4075   70.1034   -5.5799 O   0  0  0  0  0  0  0  0  0  0  0  0
   20.8795   72.3743   -7.9882 O   0  0  0  0  0  0  0  0  0  0  0  0
   21.6408   71.7741   -5.2324 O   0  0  0  0  0  0  0  0  0  0  0  0
   17.9924   72.5587   -8.2746 O   0  0  0  0  0  0  0  0  0  0  0  0
   19.9484   72.1367   -6.9325 C   0  0  2  0  0  0  0  0  0  0  0  0
   20.5570   71.1632   -5.9229 C   0  0  2  0  0  0  0  0  0  0  0  0
   18.6788   71.5423   -7.5464 C   0  0  1  0  0  0  0  0  0  0  0  0
   19.5115   70.7069   -4.9042 C   0  0  1  0  0  0  0  0  0  0  0  0
   17.7434   70.9960   -6.4717 C   0  0  1  0  0  0  0  0  0  0  0  0
   21.6945   72.7522   -7.6219 H   0  0  0  0  0  0  0  0  0  0  0  0
   22.3079   72.0664   -5.8728 H   0  0  0  0  0  0  0  0  0  0  0  0
   18.5770   72.9149   -8.9618 H   0  0  0  0  0  0  0  0  0  0  0  0
   16.4613   69.0382   -6.3145 O   0  0  0  0  0  0  0  0  0  0  0  0
   16.0899   70.3828   -8.1183 O   0  0  0  0  0  0  0  0  0  0  0  0
   16.6828   70.1364   -7.0786 C   0  0  0  0  0  0  0  0  0  0  0  0
  1  4  1  0
  1 24  1  0
  1  2  1  1
  1  3  2  0
 25 28  1  0
 25 24  1  0
 25 26  1  1
 25 27  2  0
  6 11  1  0
  6 12  1  0
 29 36  1  0
 29 37  1  0
  9  7  1  6
  7 13  1  0
 10  8  1  6
  8 14  1  0
  4  5  1  0
 36 28  1  6
 33 30  1  6
 30 38  1  0
 34 31  1  1
 31 39  1  0
 35 32  1  1
 32 40  1  0
 41 43  1  0
 15 19  2  0
 42 43  2  0
 16 22  2  0
 12 17  1  1
 17 19  1  0
 17 20  1  0
 18 19  1  0
 18 22  1  0
 18 23  1  0
  9 10  1  0
  9 11  1  0
 10 12  1  0
 11  5  1  1
 33 34  1  0
 33 35  1  0
 34 36  1  0
 35 37  1  0
 37 43  1  6
 20 21  2  0
 21 22  1  0
M  CHG  3   2  -1  26  -1  41  -1
M  END
>  <COMPND>  (115) 
    udp_gluA.pdb 

>  <AUTHOR>  (115) 
    GENERATED BY OPEN BABEL 3.1.1

>  <MASTER>  (115) 
        0    0    0    0    0    0    0    0   56    0   56    0

>  <minimizedAffinity>  (115) 
-6.31839

>  <CNNscore>  (115) 
0.6045188904

>  <CNNaffinity>  (115) 
4.1621141434

>  <CNN_VS>  (115) 
2.5160765648

>  <CNNaffinity_variance>  (115) 
0.1140968800

$$$$
116
     RDKit          3D

 43 45  0  0  0  0  0  0  0  0999 V2000
   20.9221   72.3941   -4.1942 P   0  0  2  0  0  0  0  0  0  0  0  0
   20.6727   71.0072   -3.3984 O   0  0  0  0  0  0  0  0  0  0  0  0
   19.7184   73.2824   -4.3116 O   0  0  0  0  0  0  0  0  0  0  0  0
   21.5885   71.9255   -5.5921 O   0  0  0  0  0  0  0  0  0  0  0  0
   20.8325   72.0631   -6.7812 C   0  0  0  0  0  0  0  0  0  0  0  0
   19.3954   70.2218   -6.2136 O   0  0  0  0  0  0  0  0  0  0  0  0
   19.6132   69.4066   -9.0910 O   0  0  0  0  0  0  0  0  0  0  0  0
   17.1770   70.6284   -9.0006 O   0  0  0  0  0  0  0  0  0  0  0  0
   19.5598   70.7160   -8.5243 C   0  0  1  0  0  0  0  0  0  0  0  0
   18.1527   71.0300   -8.0618 C   0  0  2  0  0  0  0  0  0  0  0  0
   20.3289   70.6910   -7.2105 C   0  0  1  0  0  0  0  0  0  0  0  0
   18.0674   70.2512   -6.7603 C   0  0  2  0  0  0  0  0  0  0  0  0
   19.1284   69.3977   -9.9316 H   0  0  0  0  0  0  0  0  0  0  0  0
   17.2729   71.1535   -9.8112 H   0  0  0  0  0  0  0  0  0  0  0  0
   16.8720   68.9014   -4.5864 O   0  0  0  0  0  0  0  0  0  0  0  0
   14.6980   72.7139   -3.1784 O   0  0  0  0  0  0  0  0  0  0  0  0
   17.1849   70.8669   -5.8101 N   0  0  0  0  0  0  0  0  0  0  0  0
   15.7896   70.8013   -3.8878 N   0  0  0  0  0  0  0  0  0  0  0  0
   16.6377   70.0996   -4.7547 C   0  0  0  0  0  0  0  0  0  0  0  0
   16.8710   72.2154   -5.9276 C   0  0  0  0  0  0  0  0  0  0  0  0
   16.0610   72.8704   -5.0935 C   0  0  0  0  0  0  0  0  0  0  0  0
   15.4471   72.1416   -3.9643 C   0  0  0  0  0  0  0  0  0  0  0  0
   15.3949   70.2876   -3.1463 H   0  0  0  0  0  0  0  0  0  0  0  0
   22.1677   73.0495   -3.3995 O   0  0  0  0  0  0  0  0  0  0  0  0
   23.6331   72.4615   -3.0525 P   0  0  2  0  0  0  0  0  0  0  0  0
   24.6315   73.4838   -3.8132 O   0  0  0  0  0  0  0  0  0  0  0  0
   23.8223   71.0197   -3.4259 O   0  0  0  0  0  0  0  0  0  0  0  0
   23.8413   72.7800   -1.4848 O   0  0  0  0  0  0  0  0  0  0  0  0
   22.1838   73.1011    0.1762 O   0  0  0  0  0  0  0  0  0  0  0  0
   25.2725   75.4423    1.6070 O   0  0  0  0  0  0  0  0  0  0  0  0
   24.6103   75.4416   -1.2383 O   0  0  0  0  0  0  0  0  0  0  0  0
   24.7091   72.8647    2.8275 O   0  0  0  0  0  0  0  0  0  0  0  0
   24.6853   74.3369    0.9204 C   0  0  2  0  0  0  0  0  0  0  0  0
   23.8086   74.8512   -0.2218 C   0  0  2  0  0  0  0  0  0  0  0  0
   23.8418   73.5497    1.9258 C   0  0  1  0  0  0  0  0  0  0  0  0
   22.9853   73.7165   -0.8330 C   0  0  1  0  0  0  0  0  0  0  0  0
   22.9558   72.5229    1.2264 C   0  0  1  0  0  0  0  0  0  0  0  0
   25.8133   75.9574    0.9878 H   0  0  0  0  0  0  0  0  0  0  0  0
   25.1357   76.1622   -0.8575 H   0  0  0  0  0  0  0  0  0  0  0  0
   25.2787   73.5069    3.2791 H   0  0  0  0  0  0  0  0  0  0  0  0
   21.1883   71.0187    1.5654 O   0  0  0  0  0  0  0  0  0  0  0  0
   21.7335   72.3913    3.3025 O   0  0  0  0  0  0  0  0  0  0  0  0
   21.9133   71.9987    2.1595 C   0  0  0  0  0  0  0  0  0  0  0  0
  1  4  1  0
  1 24  1  0
  1  2  1  1
  1  3  2  0
 25 28  1  0
 25 24  1  0
 25 26  1  6
 25 27  2  0
  6 11  1  0
  6 12  1  0
 29 36  1  0
 29 37  1  0
  9  7  1  1
  7 13  1  0
 10  8  1  6
  8 14  1  0
  4  5  1  0
 36 28  1  1
 33 30  1  1
 30 38  1  0
 34 31  1  6
 31 39  1  0
 35 32  1  1
 32 40  1  0
 41 43  1  0
 15 19  2  0
 42 43  2  0
 16 22  2  0
 12 17  1  1
 17 19  1  0
 17 20  1  0
 18 19  1  0
 18 22  1  0
 18 23  1  0
  9 10  1  0
  9 11  1  0
 10 12  1  0
 11  5  1  1
 33 34  1  0
 33 35  1  0
 34 36  1  0
 35 37  1  0
 37 43  1  1
 20 21  2  0
 21 22  1  0
M  CHG  3   2  -1  26  -1  41  -1
M  END
>  <COMPND>  (116) 
    udp_gluA.pdb 

>  <AUTHOR>  (116) 
    GENERATED BY OPEN BABEL 3.1.1

>  <MASTER>  (116) 
        0    0    0    0    0    0    0    0   56    0   56    0

>  <minimizedAffinity>  (116) 
-6.42760

>  <CNNscore>  (116) 
0.5518015623

>  <CNNaffinity>  (116) 
4.2057409286

>  <CNN_VS>  (116) 
2.3207345009

>  <CNNaffinity_variance>  (116) 
0.3149845600

$$$$
117
     RDKit          3D

 43 45  0  0  0  0  0  0  0  0999 V2000
   23.5381   72.5349   -3.5733 P   0  0  2  0  0  0  0  0  0  0  0  0
   23.9503   71.0494   -3.0812 O   0  0  0  0  0  0  0  0  0  0  0  0
   24.5902   73.2548   -4.3648 O   0  0  0  0  0  0  0  0  0  0  0  0
   23.0514   73.2721   -2.2177 O   0  0  0  0  0  0  0  0  0  0  0  0
   22.7727   74.6594   -2.2653 C   0  0  0  0  0  0  0  0  0  0  0  0
   21.4300   73.8146   -0.4593 O   0  0  0  0  0  0  0  0  0  0  0  0
   20.7052   76.6717    0.0915 O   0  0  0  0  0  0  0  0  0  0  0  0
   22.6011   76.1624    1.9842 O   0  0  0  0  0  0  0  0  0  0  0  0
   21.9453   76.1244   -0.3569 C   0  0  1  0  0  0  0  0  0  0  0  0
   22.6505   75.4209    0.7833 C   0  0  2  0  0  0  0  0  0  0  0  0
   21.6356   74.9703   -1.3005 C   0  0  1  0  0  0  0  0  0  0  0  0
   21.8815   74.1136    0.8711 C   0  0  2  0  0  0  0  0  0  0  0  0
   20.8774   77.4110    0.6960 H   0  0  0  0  0  0  0  0  0  0  0  0
   23.1052   76.9849    1.8773 H   0  0  0  0  0  0  0  0  0  0  0  0
   20.8777   71.8039    2.1494 O   0  0  0  0  0  0  0  0  0  0  0  0
   25.0984   70.0177    2.6382 O   0  0  0  0  0  0  0  0  0  0  0  0
   22.6958   73.0294    1.3426 N   0  0  0  0  0  0  0  0  0  0  0  0
   22.9809   70.9170    2.3926 N   0  0  0  0  0  0  0  0  0  0  0  0
   22.0921   71.9149    1.9715 C   0  0  0  0  0  0  0  0  0  0  0  0
   24.0749   73.0757    1.1789 C   0  0  0  0  0  0  0  0  0  0  0  0
   24.9091   72.1167    1.5853 C   0  0  0  0  0  0  0  0  0  0  0  0
   24.3593   70.9184    2.2526 C   0  0  0  0  0  0  0  0  0  0  0  0
   22.5841   70.1320    2.8350 H   0  0  0  0  0  0  0  0  0  0  0  0
   22.1529   72.2828   -4.3674 O   0  0  0  0  0  0  0  0  0  0  0  0
   21.5131   73.0314   -5.6495 P   0  0  2  0  0  0  0  0  0  0  0  0
   22.4932   72.5929   -6.8609 O   0  0  0  0  0  0  0  0  0  0  0  0
   21.3609   74.5157   -5.4835 O   0  0  0  0  0  0  0  0  0  0  0  0
   20.1341   72.2450   -5.9365 O   0  0  0  0  0  0  0  0  0  0  0  0
   19.4636   70.0689   -5.2854 O   0  0  0  0  0  0  0  0  0  0  0  0
   17.5227   70.4981   -8.9071 O   0  0  0  0  0  0  0  0  0  0  0  0
   20.2787   71.4124   -8.5865 O   0  0  0  0  0  0  0  0  0  0  0  0
   16.0354   70.7204   -6.4192 O   0  0  0  0  0  0  0  0  0  0  0  0
   18.0838   70.9355   -7.6694 C   0  0  2  0  0  0  0  0  0  0  0  0
   19.5777   70.6116   -7.6420 C   0  0  2  0  0  0  0  0  0  0  0  0
   17.3597   70.2038   -6.5371 C   0  0  1  0  0  0  0  0  0  0  0  0
   20.1646   70.8539   -6.2507 C   0  0  1  0  0  0  0  0  0  0  0  0
   18.0772   70.3921   -5.2036 C   0  0  1  0  0  0  0  0  0  0  0  0
   17.9674   70.9499   -9.6415 H   0  0  0  0  0  0  0  0  0  0  0  0
   19.9113   71.2639   -9.4715 H   0  0  0  0  0  0  0  0  0  0  0  0
   15.5679   70.6069   -7.2614 H   0  0  0  0  0  0  0  0  0  0  0  0
   18.5417   69.1042   -3.2991 O   0  0  0  0  0  0  0  0  0  0  0  0
   16.4289   68.9817   -4.1476 O   0  0  0  0  0  0  0  0  0  0  0  0
   17.5668   69.4251   -4.1854 C   0  0  0  0  0  0  0  0  0  0  0  0
  1  4  1  0
  1 24  1  0
  1  2  1  1
  1  3  2  0
 25 28  1  0
 25 24  1  0
 25 26  1  6
 25 27  2  0
  6 11  1  0
  6 12  1  0
 29 36  1  0
 29 37  1  0
  9  7  1  1
  7 13  1  0
 10  8  1  1
  8 14  1  0
  4  5  1  0
 36 28  1  1
 33 30  1  6
 30 38  1  0
 34 31  1  6
 31 39  1  0
 35 32  1  1
 32 40  1  0
 41 43  1  0
 15 19  2  0
 42 43  2  0
 16 22  2  0
 12 17  1  6
 17 19  1  0
 17 20  1  0
 18 19  1  0
 18 22  1  0
 18 23  1  0
  9 10  1  0
  9 11  1  0
 10 12  1  0
 11  5  1  6
 33 34  1  0
 33 35  1  0
 34 36  1  0
 35 37  1  0
 37 43  1  1
 20 21  2  0
 21 22  1  0
M  CHG  3   2  -1  26  -1  41  -1
M  END
>  <COMPND>  (117) 
    udp_gluA.pdb 

>  <AUTHOR>  (117) 
    GENERATED BY OPEN BABEL 3.1.1

>  <MASTER>  (117) 
        0    0    0    0    0    0    0    0   56    0   56    0

>  <minimizedAffinity>  (117) 
-7.50745

>  <CNNscore>  (117) 
0.5217010379

>  <CNNaffinity>  (117) 
4.3796586990

>  <CNN_VS>  (117) 
2.2848725319

>  <CNNaffinity_variance>  (117) 
0.1446466893

$$$$
118
     RDKit          3D

 43 45  0  0  0  0  0  0  0  0999 V2000
   20.1050   76.5652   -4.5533 P   0  0  2  0  0  0  0  0  0  0  0  0
   19.8453   77.7874   -5.5817 O   0  0  0  0  0  0  0  0  0  0  0  0
   19.3298   76.6409   -3.2706 O   0  0  0  0  0  0  0  0  0  0  0  0
   21.7151   76.5221   -4.3997 O   0  0  0  0  0  0  0  0  0  0  0  0
   22.2736   76.6251   -3.1028 C   0  0  0  0  0  0  0  0  0  0  0  0
   23.9412   75.2986   -1.9906 O   0  0  0  0  0  0  0  0  0  0  0  0
   25.4326   75.3284   -4.5919 O   0  0  0  0  0  0  0  0  0  0  0  0
   24.2625   72.8653   -4.6041 O   0  0  0  0  0  0  0  0  0  0  0  0
   24.0252   75.2726   -4.3577 C   0  0  1  0  0  0  0  0  0  0  0  0
   23.6288   73.8942   -3.8730 C   0  0  2  0  0  0  0  0  0  0  0  0
   23.7163   76.1382   -3.1438 C   0  0  1  0  0  0  0  0  0  0  0  0
   24.0664   73.9332   -2.4188 C   0  0  2  0  0  0  0  0  0  0  0  0
   25.6542   74.7827   -5.3630 H   0  0  0  0  0  0  0  0  0  0  0  0
   23.9505   72.8822   -5.5230 H   0  0  0  0  0  0  0  0  0  0  0  0
   24.2129   71.1139   -2.3355 O   0  0  0  0  0  0  0  0  0  0  0  0
   20.8858   70.8529    0.8436 O   0  0  0  0  0  0  0  0  0  0  0  0
   23.2502   73.1035   -1.5784 N   0  0  0  0  0  0  0  0  0  0  0  0
   22.5549   70.9866   -0.7530 N   0  0  0  0  0  0  0  0  0  0  0  0
   23.4028   71.6973   -1.6127 C   0  0  0  0  0  0  0  0  0  0  0  0
   22.3130   73.6831   -0.7318 C   0  0  0  0  0  0  0  0  0  0  0  0
   21.5120   72.9926    0.0820 C   0  0  0  0  0  0  0  0  0  0  0  0
   21.6072   71.5182    0.1065 C   0  0  0  0  0  0  0  0  0  0  0  0
   22.6414   70.0059   -0.7607 H   0  0  0  0  0  0  0  0  0  0  0  0
   19.7908   75.2602   -5.4539 O   0  0  0  0  0  0  0  0  0  0  0  0
   19.4598   73.7348   -5.0331 P   0  0  2  0  0  0  0  0  0  0  0  0
   17.8872   73.7889   -4.6531 O   0  0  0  0  0  0  0  0  0  0  0  0
   20.3404   73.1910   -3.9455 O   0  0  0  0  0  0  0  0  0  0  0  0
   19.5160   72.9071   -6.4166 O   0  0  0  0  0  0  0  0  0  0  0  0
   19.0273   70.6629   -5.8387 O   0  0  0  0  0  0  0  0  0  0  0  0
   19.3607   70.4188   -9.9493 O   0  0  0  0  0  0  0  0  0  0  0  0
   21.2505   72.0226   -8.4029 O   0  0  0  0  0  0  0  0  0  0  0  0
   16.7402   70.3627   -8.6920 O   0  0  0  0  0  0  0  0  0  0  0  0
   19.0524   71.0400   -8.7015 C   0  0  2  0  0  0  0  0  0  0  0  0
   20.3135   71.1116   -7.8400 C   0  0  2  0  0  0  0  0  0  0  0  0
   17.9801   70.1981   -8.0063 C   0  0  1  0  0  0  0  0  0  0  0  0
   19.9788   71.5578   -6.4161 C   0  0  1  0  0  0  0  0  0  0  0  0
   17.7937   70.6232   -6.5526 C   0  0  1  0  0  0  0  0  0  0  0  0
   20.0403   70.9364  -10.4091 H   0  0  0  0  0  0  0  0  0  0  0  0
   21.4672   71.7456   -9.3067 H   0  0  0  0  0  0  0  0  0  0  0  0
   16.8452   70.0958   -9.6185 H   0  0  0  0  0  0  0  0  0  0  0  0
   17.3622   69.5898   -4.4917 O   0  0  0  0  0  0  0  0  0  0  0  0
   16.1464   68.8806   -6.2856 O   0  0  0  0  0  0  0  0  0  0  0  0
   17.0027   69.6040   -5.7992 C   0  0  0  0  0  0  0  0  0  0  0  0
  1  4  1  0
  1 24  1  0
  1  2  1  6
  1  3  2  0
 25 28  1  0
 25 24  1  0
 25 26  1  1
 25 27  2  0
  6 11  1  0
  6 12  1  0
 29 36  1  0
 29 37  1  0
  9  7  1  1
  7 13  1  0
 10  8  1  6
  8 14  1  0
  4  5  1  0
 36 28  1  6
 33 30  1  6
 30 38  1  0
 34 31  1  6
 31 39  1  0
 35 32  1  6
 32 40  1  0
 41 43  1  0
 15 19  2  0
 42 43  2  0
 16 22  2  0
 12 17  1  1
 17 19  1  0
 17 20  1  0
 18 19  1  0
 18 22  1  0
 18 23  1  0
  9 10  1  0
  9 11  1  0
 10 12  1  0
 11  5  1  6
 33 34  1  0
 33 35  1  0
 34 36  1  0
 35 37  1  0
 37 43  1  1
 20 21  2  0
 21 22  1  0
M  CHG  3   2  -1  26  -1  41  -1
M  END
>  <COMPND>  (118) 
    udp_gluA.pdb 

>  <AUTHOR>  (118) 
    GENERATED BY OPEN BABEL 3.1.1

>  <MASTER>  (118) 
        0    0    0    0    0    0    0    0   56    0   56    0

>  <minimizedAffinity>  (118) 
-6.52079

>  <CNNscore>  (118) 
0.5149902701

>  <CNNaffinity>  (118) 
4.1463899612

>  <CNN_VS>  (118) 
2.1353504658

>  <CNNaffinity_variance>  (118) 
0.5300713778

$$$$
119
     RDKit          3D

 43 45  0  0  0  0  0  0  0  0999 V2000
   19.8795   74.2263   -5.0714 P   0  0  2  0  0  0  0  0  0  0  0  0
   18.9867   74.8689   -6.2584 O   0  0  0  0  0  0  0  0  0  0  0  0
   21.1405   74.9741   -4.7513 O   0  0  0  0  0  0  0  0  0  0  0  0
   20.0721   72.6842   -5.5215 O   0  0  0  0  0  0  0  0  0  0  0  0
   20.4461   72.4120   -6.8596 C   0  0  0  0  0  0  0  0  0  0  0  0
   19.2561   70.4567   -6.1261 O   0  0  0  0  0  0  0  0  0  0  0  0
   19.4280   69.5140   -8.9674 O   0  0  0  0  0  0  0  0  0  0  0  0
   16.8759   70.4612   -8.8073 O   0  0  0  0  0  0  0  0  0  0  0  0
   19.2533   70.8385   -8.4638 C   0  0  1  0  0  0  0  0  0  0  0  0
   17.8432   71.0194   -7.9429 C   0  0  2  0  0  0  0  0  0  0  0  0
   20.0818   70.9711   -7.1933 C   0  0  1  0  0  0  0  0  0  0  0  0
   17.9088   70.3086   -6.6019 C   0  0  2  0  0  0  0  0  0  0  0  0
   18.9080   69.4053   -9.7795 H   0  0  0  0  0  0  0  0  0  0  0  0
   16.8729   70.9483   -9.6468 H   0  0  0  0  0  0  0  0  0  0  0  0
   16.8981   68.9215   -4.3589 O   0  0  0  0  0  0  0  0  0  0  0  0
   14.4598   72.5771   -2.9680 O   0  0  0  0  0  0  0  0  0  0  0  0
   17.0082   70.8739   -5.6374 N   0  0  0  0  0  0  0  0  0  0  0  0
   15.6839   70.7432   -3.6688 N   0  0  0  0  0  0  0  0  0  0  0  0
   16.5599   70.0916   -4.5469 C   0  0  0  0  0  0  0  0  0  0  0  0
   16.5798   72.1885   -5.7756 C   0  0  0  0  0  0  0  0  0  0  0  0
   15.7447   72.7959   -4.9304 C   0  0  0  0  0  0  0  0  0  0  0  0
   15.2289   72.0483   -3.7649 C   0  0  0  0  0  0  0  0  0  0  0  0
   15.3566   70.2181   -2.9030 H   0  0  0  0  0  0  0  0  0  0  0  0
   18.8308   74.1190   -3.8460 O   0  0  0  0  0  0  0  0  0  0  0  0
   18.6548   75.0229   -2.5173 P   0  0  2  0  0  0  0  0  0  0  0  0
   17.2585   74.4938   -1.8922 O   0  0  0  0  0  0  0  0  0  0  0  0
   18.6985   76.5024   -2.7688 O   0  0  0  0  0  0  0  0  0  0  0  0
   19.7861   74.4828   -1.5020 O   0  0  0  0  0  0  0  0  0  0  0  0
   19.3954   72.1525   -1.3393 O   0  0  0  0  0  0  0  0  0  0  0  0
   22.8280   72.5891    0.9180 O   0  0  0  0  0  0  0  0  0  0  0  0
   20.6529   74.5266    1.1405 O   0  0  0  0  0  0  0  0  0  0  0  0
   22.9746   71.4621   -1.7578 O   0  0  0  0  0  0  0  0  0  0  0  0
   21.9135   72.8929   -0.1354 C   0  0  2  0  0  0  0  0  0  0  0  0
   20.5593   73.2812    0.4587 C   0  0  2  0  0  0  0  0  0  0  0  0
   21.7723   71.6472   -1.0130 C   0  0  1  0  0  0  0  0  0  0  0  0
   19.4939   73.3899   -0.6331 C   0  0  1  0  0  0  0  0  0  0  0  0
   20.6088   71.7837   -1.9909 C   0  0  1  0  0  0  0  0  0  0  0  0
   22.9336   73.3663    1.4889 H   0  0  0  0  0  0  0  0  0  0  0  0
   21.3274   74.4649    1.8345 H   0  0  0  0  0  0  0  0  0  0  0  0
   23.7230   71.3741   -1.1470 H   0  0  0  0  0  0  0  0  0  0  0  0
   19.1117   69.9811   -2.0944 O   0  0  0  0  0  0  0  0  0  0  0  0
   20.9444   69.8901   -3.4480 O   0  0  0  0  0  0  0  0  0  0  0  0
   20.2728   70.4629   -2.6031 C   0  0  0  0  0  0  0  0  0  0  0  0
  1  4  1  0
  1 24  1  0
  1  2  1  6
  1  3  2  0
 25 28  1  0
 25 24  1  0
 25 26  1  1
 25 27  2  0
  6 11  1  0
  6 12  1  0
 29 36  1  0
 29 37  1  0
  9  7  1  1
  7 13  1  0
 10  8  1  6
  8 14  1  0
  4  5  1  0
 36 28  1  6
 33 30  1  1
 30 38  1  0
 34 31  1  6
 31 39  1  0
 35 32  1  6
 32 40  1  0
 41 43  1  0
 15 19  2  0
 42 43  2  0
 16 22  2  0
 12 17  1  1
 17 19  1  0
 17 20  1  0
 18 19  1  0
 18 22  1  0
 18 23  1  0
  9 10  1  0
  9 11  1  0
 10 12  1  0
 11  5  1  1
 33 34  1  0
 33 35  1  0
 34 36  1  0
 35 37  1  0
 37 43  1  1
 20 21  2  0
 21 22  1  0
M  CHG  3   2  -1  26  -1  41  -1
M  END
>  <COMPND>  (119) 
    udp_gluA.pdb 

>  <AUTHOR>  (119) 
    GENERATED BY OPEN BABEL 3.1.1

>  <MASTER>  (119) 
        0    0    0    0    0    0    0    0   56    0   56    0

>  <minimizedAffinity>  (119) 
-5.36778

>  <CNNscore>  (119) 
0.5121108294

>  <CNNaffinity>  (119) 
4.1579647064

>  <CNN_VS>  (119) 
2.1293387413

>  <CNNaffinity_variance>  (119) 
0.3533056378

$$$$
120
     RDKit          3D

 43 45  0  0  0  0  0  0  0  0999 V2000
   14.4342   70.7131   -1.3861 P   0  0  2  0  0  0  0  0  0  0  0  0
   14.9101   72.1954   -0.9445 O   0  0  0  0  0  0  0  0  0  0  0  0
   12.9513   70.5437   -1.5412 O   0  0  0  0  0  0  0  0  0  0  0  0
   15.1434   69.7395   -0.3057 O   0  0  0  0  0  0  0  0  0  0  0  0
   14.4950   68.5300    0.0425 C   0  0  0  0  0  0  0  0  0  0  0  0
   12.4610   68.7096    1.3105 O   0  0  0  0  0  0  0  0  0  0  0  0
   14.0997   67.9311    3.6980 O   0  0  0  0  0  0  0  0  0  0  0  0
   12.8479   65.5973    3.0479 O   0  0  0  0  0  0  0  0  0  0  0  0
   14.2065   67.4874    2.3452 C   0  0  1  0  0  0  0  0  0  0  0  0
   13.0779   66.5334    2.0157 C   0  0  2  0  0  0  0  0  0  0  0  0
   13.8989   68.6704    1.4372 C   0  0  1  0  0  0  0  0  0  0  0  0
   11.9095   67.4838    1.8171 C   0  0  2  0  0  0  0  0  0  0  0  0
   14.2919   67.1922    4.2971 H   0  0  0  0  0  0  0  0  0  0  0  0
   13.6199   65.0156    3.1348 H   0  0  0  0  0  0  0  0  0  0  0  0
    9.1183   67.8535    2.0391 O   0  0  0  0  0  0  0  0  0  0  0  0
    8.3147   65.5100   -1.8476 O   0  0  0  0  0  0  0  0  0  0  0  0
   10.9478   66.9809    0.8772 N   0  0  0  0  0  0  0  0  0  0  0  0
    8.7207   66.6851    0.1036 N   0  0  0  0  0  0  0  0  0  0  0  0
    9.5686   67.2219    1.0813 C   0  0  0  0  0  0  0  0  0  0  0  0
   11.3734   66.2600   -0.2319 C   0  0  0  0  0  0  0  0  0  0  0  0
   10.5532   65.7546   -1.1553 C   0  0  0  0  0  0  0  0  0  0  0  0
    9.0967   65.9609   -1.0161 C   0  0  0  0  0  0  0  0  0  0  0  0
    7.7557   66.8382    0.2253 H   0  0  0  0  0  0  0  0  0  0  0  0
   15.2872   70.4442   -2.7325 O   0  0  0  0  0  0  0  0  0  0  0  0
   16.8636   70.1600   -2.9514 P   0  0  2  0  0  0  0  0  0  0  0  0
   17.0186   68.6012   -2.5435 O   0  0  0  0  0  0  0  0  0  0  0  0
   17.7677   71.0900   -2.1953 O   0  0  0  0  0  0  0  0  0  0  0  0
   17.0655   70.1842   -4.5518 O   0  0  0  0  0  0  0  0  0  0  0  0
   18.5275   70.7722   -6.3198 O   0  0  0  0  0  0  0  0  0  0  0  0
   15.2860   73.2249   -7.0582 O   0  0  0  0  0  0  0  0  0  0  0  0
   16.2583   72.8367   -4.3309 O   0  0  0  0  0  0  0  0  0  0  0  0
   15.7263   70.8583   -8.6880 O   0  0  0  0  0  0  0  0  0  0  0  0
   15.9519   72.0466   -6.6042 C   0  0  2  0  0  0  0  0  0  0  0  0
   16.9463   72.4131   -5.5022 C   0  0  2  0  0  0  0  0  0  0  0  0
   16.6838   71.4277   -7.7972 C   0  0  1  0  0  0  0  0  0  0  0  0
   17.8387   71.2216   -5.1522 C   0  0  1  0  0  0  0  0  0  0  0  0
   17.6477   70.3317   -7.3518 C   0  0  1  0  0  0  0  0  0  0  0  0
   14.8138   73.6357   -6.3169 H   0  0  0  0  0  0  0  0  0  0  0  0
   15.6898   73.5923   -4.5458 H   0  0  0  0  0  0  0  0  0  0  0  0
   15.1066   71.5455   -8.9788 H   0  0  0  0  0  0  0  0  0  0  0  0
   19.8723   70.0686   -8.0472 O   0  0  0  0  0  0  0  0  0  0  0  0
   18.2439   69.6217   -9.5793 O   0  0  0  0  0  0  0  0  0  0  0  0
   18.5839   69.9671   -8.4577 C   0  0  0  0  0  0  0  0  0  0  0  0
  1  4  1  0
  1 24  1  0
  1  2  1  1
  1  3  2  0
 25 28  1  0
 25 24  1  0
 25 26  1  1
 25 27  2  0
  6 11  1  0
  6 12  1  0
 29 36  1  0
 29 37  1  0
  9  7  1  1
  7 13  1  0
 10  8  1  1
  8 14  1  0
  4  5  1  0
 36 28  1  6
 33 30  1  6
 30 38  1  0
 34 31  1  1
 31 39  1  0
 35 32  1  6
 32 40  1  0
 41 43  1  0
 15 19  2  0
 42 43  2  0
 16 22  2  0
 12 17  1  6
 17 19  1  0
 17 20  1  0
 18 19  1  0
 18 22  1  0
 18 23  1  0
  9 10  1  0
  9 11  1  0
 10 12  1  0
 11  5  1  6
 33 34  1  0
 33 35  1  0
 34 36  1  0
 35 37  1  0
 37 43  1  6
 20 21  2  0
 21 22  1  0
M  CHG  3   2  -1  26  -1  41  -1
M  END
>  <COMPND>  (120) 
    udp_gluA.pdb 

>  <AUTHOR>  (120) 
    GENERATED BY OPEN BABEL 3.1.1

>  <MASTER>  (120) 
        0    0    0    0    0    0    0    0   56    0   56    0

>  <minimizedAffinity>  (120) 
-6.86828

>  <CNNscore>  (120) 
0.5072921515

>  <CNNaffinity>  (120) 
4.1738176346

>  <CNN_VS>  (120) 
2.1173448563

>  <CNNaffinity_variance>  (120) 
0.1001808494

$$$$
121
     RDKit          3D

 43 45  0  0  0  0  0  0  0  0999 V2000
   22.4802   71.5758   -2.9165 P   0  0  2  0  0  0  0  0  0  0  0  0
   22.2532   73.1605   -2.6798 O   0  0  0  0  0  0  0  0  0  0  0  0
   23.8959   71.1757   -3.2122 O   0  0  0  0  0  0  0  0  0  0  0  0
   21.3904   71.1921   -4.0493 O   0  0  0  0  0  0  0  0  0  0  0  0
   20.4486   70.1742   -3.7642 C   0  0  0  0  0  0  0  0  0  0  0  0
   18.7569   71.5108   -4.8270 O   0  0  0  0  0  0  0  0  0  0  0  0
   16.8687   70.4274   -2.7649 O   0  0  0  0  0  0  0  0  0  0  0  0
   16.2846   68.9178   -4.9594 O   0  0  0  0  0  0  0  0  0  0  0  0
   17.9588   69.7796   -3.4211 C   0  0  1  0  0  0  0  0  0  0  0  0
   17.5883   69.4500   -4.8516 C   0  0  2  0  0  0  0  0  0  0  0  0
   19.0702   70.8034   -3.6076 C   0  0  1  0  0  0  0  0  0  0  0  0
   17.7266   70.8009   -5.5325 C   0  0  2  0  0  0  0  0  0  0  0  0
   16.1461   69.7929   -2.6347 H   0  0  0  0  0  0  0  0  0  0  0  0
   16.2482   68.0579   -4.5108 H   0  0  0  0  0  0  0  0  0  0  0  0
   15.9280   70.2174   -7.6304 O   0  0  0  0  0  0  0  0  0  0  0  0
   19.2792   70.3720  -10.7911 O   0  0  0  0  0  0  0  0  0  0  0  0
   18.1022   70.6829   -6.9130 N   0  0  0  0  0  0  0  0  0  0  0  0
   17.5990   70.2940   -9.2025 N   0  0  0  0  0  0  0  0  0  0  0  0
   17.1212   70.3867   -7.8886 C   0  0  0  0  0  0  0  0  0  0  0  0
   19.4281   70.8614   -7.2887 C   0  0  0  0  0  0  0  0  0  0  0  0
   19.8684   70.7700   -8.5451 C   0  0  0  0  0  0  0  0  0  0  0  0
   18.9077   70.4626   -9.6249 C   0  0  0  0  0  0  0  0  0  0  0  0
   16.9348   70.0865   -9.8990 H   0  0  0  0  0  0  0  0  0  0  0  0
   21.8598   70.9164   -1.5774 O   0  0  0  0  0  0  0  0  0  0  0  0
   21.2353   71.5967   -0.2505 P   0  0  2  0  0  0  0  0  0  0  0  0
   21.1129   70.3540    0.7797 O   0  0  0  0  0  0  0  0  0  0  0  0
   19.9492   72.3352   -0.4842 O   0  0  0  0  0  0  0  0  0  0  0  0
   22.4292   72.5033    0.3453 O   0  0  0  0  0  0  0  0  0  0  0  0
   21.7386   73.7536    2.2345 O   0  0  0  0  0  0  0  0  0  0  0  0
   25.5468   75.2241    1.5997 O   0  0  0  0  0  0  0  0  0  0  0  0
   23.7531   74.7361   -0.6539 O   0  0  0  0  0  0  0  0  0  0  0  0
   25.0451   73.3638    3.7765 O   0  0  0  0  0  0  0  0  0  0  0  0
   24.5125   74.2402    1.5963 C   0  0  2  0  0  0  0  0  0  0  0  0
   23.3582   74.7142    0.7129 C   0  0  2  0  0  0  0  0  0  0  0  0
   24.0360   74.0500    3.0381 C   0  0  1  0  0  0  0  0  0  0  0  0
   22.1416   73.8001    0.8653 C   0  0  1  0  0  0  0  0  0  0  0  0
   22.7485   73.2330    3.0961 C   0  0  1  0  0  0  0  0  0  0  0  0
   25.8653   75.3617    0.6936 H   0  0  0  0  0  0  0  0  0  0  0  0
   24.5248   75.3140   -0.7579 H   0  0  0  0  0  0  0  0  0  0  0  0
   25.8699   73.8733    3.7474 H   0  0  0  0  0  0  0  0  0  0  0  0
   20.9852   74.0721    4.3955 O   0  0  0  0  0  0  0  0  0  0  0  0
   22.5575   72.8132    5.4644 O   0  0  0  0  0  0  0  0  0  0  0  0
   22.1191   73.3300    4.4477 C   0  0  0  0  0  0  0  0  0  0  0  0
  1  4  1  0
  1 24  1  0
  1  2  1  1
  1  3  2  0
 25 28  1  0
 25 24  1  0
 25 26  1  1
 25 27  2  0
  6 11  1  0
  6 12  1  0
 29 36  1  0
 29 37  1  0
  9  7  1  1
  7 13  1  0
 10  8  1  1
  8 14  1  0
  4  5  1  0
 36 28  1  1
 33 30  1  1
 30 38  1  0
 34 31  1  6
 31 39  1  0
 35 32  1  1
 32 40  1  0
 41 43  1  0
 15 19  2  0
 42 43  2  0
 16 22  2  0
 12 17  1  6
 17 19  1  0
 17 20  1  0
 18 19  1  0
 18 22  1  0
 18 23  1  0
  9 10  1  0
  9 11  1  0
 10 12  1  0
 11  5  1  6
 33 34  1  0
 33 35  1  0
 34 36  1  0
 35 37  1  0
 37 43  1  1
 20 21  2  0
 21 22  1  0
M  CHG  3   2  -1  26  -1  41  -1
M  END
>  <COMPND>  (121) 
    udp_gluA.pdb 

>  <AUTHOR>  (121) 
    GENERATED BY OPEN BABEL 3.1.1

>  <MASTER>  (121) 
        0    0    0    0    0    0    0    0   56    0   56    0

>  <minimizedAffinity>  (121) 
-7.49831

>  <CNNscore>  (121) 
0.9306282997

>  <CNNaffinity>  (121) 
4.7412862778

>  <CNN_VS>  (121) 
4.4123749733

>  <CNNaffinity_variance>  (121) 
0.0331898145

$$$$
122
     RDKit          3D

 43 45  0  0  0  0  0  0  0  0999 V2000
   22.7869   71.6162   -2.6470 P   0  0  2  0  0  0  0  0  0  0  0  0
   24.1993   70.9746   -3.1079 O   0  0  0  0  0  0  0  0  0  0  0  0
   22.3063   71.1835   -1.2929 O   0  0  0  0  0  0  0  0  0  0  0  0
   21.7923   71.2937   -3.8818 O   0  0  0  0  0  0  0  0  0  0  0  0
   20.8544   70.2429   -3.7377 C   0  0  0  0  0  0  0  0  0  0  0  0
   19.0559   71.5387   -4.6671 O   0  0  0  0  0  0  0  0  0  0  0  0
   17.3558   70.4117   -2.4691 O   0  0  0  0  0  0  0  0  0  0  0  0
   16.6425   68.8879   -4.6151 O   0  0  0  0  0  0  0  0  0  0  0  0
   18.4079   69.7896   -3.2071 C   0  0  1  0  0  0  0  0  0  0  0  0
   17.9377   69.4508   -4.6058 C   0  0  2  0  0  0  0  0  0  0  0  0
   19.4774   70.8394   -3.4761 C   0  0  1  0  0  0  0  0  0  0  0  0
   17.9920   70.8044   -5.2933 C   0  0  2  0  0  0  0  0  0  0  0  0
   16.6604   69.7604   -2.2853 H   0  0  0  0  0  0  0  0  0  0  0  0
   16.6607   68.0276   -4.1662 H   0  0  0  0  0  0  0  0  0  0  0  0
   16.0382   70.2606   -7.2589 O   0  0  0  0  0  0  0  0  0  0  0  0
   19.1512   70.4061  -10.6548 O   0  0  0  0  0  0  0  0  0  0  0  0
   18.2644   70.6948   -6.6986 N   0  0  0  0  0  0  0  0  0  0  0  0
   17.5907   70.3325   -8.9483 N   0  0  0  0  0  0  0  0  0  0  0  0
   17.2112   70.4186   -7.6023 C   0  0  0  0  0  0  0  0  0  0  0  0
   19.5613   70.8617   -7.1687 C   0  0  0  0  0  0  0  0  0  0  0  0
   19.9076   70.7768   -8.4547 C   0  0  0  0  0  0  0  0  0  0  0  0
   18.8670   70.4902   -9.4638 C   0  0  0  0  0  0  0  0  0  0  0  0
   16.8750   70.1390   -9.5961 H   0  0  0  0  0  0  0  0  0  0  0  0
   23.0451   73.2051   -2.7939 O   0  0  0  0  0  0  0  0  0  0  0  0
   22.0922   74.3887   -3.3461 P   0  0  2  0  0  0  0  0  0  0  0  0
   22.7007   75.7127   -2.6412 O   0  0  0  0  0  0  0  0  0  0  0  0
   20.6288   74.1701   -3.0924 O   0  0  0  0  0  0  0  0  0  0  0  0
   22.4866   74.5387   -4.9032 O   0  0  0  0  0  0  0  0  0  0  0  0
   20.8632   75.2793   -6.4606 O   0  0  0  0  0  0  0  0  0  0  0  0
   23.7097   73.6071   -8.9444 O   0  0  0  0  0  0  0  0  0  0  0  0
   22.9514   72.2783   -6.4557 O   0  0  0  0  0  0  0  0  0  0  0  0
   23.4915   76.4967   -8.7127 O   0  0  0  0  0  0  0  0  0  0  0  0
   23.2301   74.2885   -7.7852 C   0  0  2  0  0  0  0  0  0  0  0  0
   22.2599   73.3840   -7.0248 C   0  0  2  0  0  0  0  0  0  0  0  0
   22.5194   75.5630   -8.2460 C   0  0  1  0  0  0  0  0  0  0  0  0
   21.5519   74.1557   -5.9103 C   0  0  1  0  0  0  0  0  0  0  0  0
   21.7336   76.2056   -7.1067 C   0  0  1  0  0  0  0  0  0  0  0  0
   24.1652   72.7935   -8.6762 H   0  0  0  0  0  0  0  0  0  0  0  0
   23.4033   71.7842   -7.1573 H   0  0  0  0  0  0  0  0  0  0  0  0
   23.9988   76.1000   -9.4381 H   0  0  0  0  0  0  0  0  0  0  0  0
   19.8097   77.4933   -6.7298 O   0  0  0  0  0  0  0  0  0  0  0  0
   20.8889   77.7925   -8.7160 O   0  0  0  0  0  0  0  0  0  0  0  0
   20.7924   77.2415   -7.6297 C   0  0  0  0  0  0  0  0  0  0  0  0
  1  4  1  0
  1 24  1  0
  1  2  1  6
  1  3  2  0
 25 28  1  0
 25 24  1  0
 25 26  1  1
 25 27  2  0
  6 11  1  0
  6 12  1  0
 29 36  1  0
 29 37  1  0
  9  7  1  1
  7 13  1  0
 10  8  1  1
  8 14  1  0
  4  5  1  0
 36 28  1  1
 33 30  1  6
 30 38  1  0
 34 31  1  1
 31 39  1  0
 35 32  1  1
 32 40  1  0
 41 43  1  0
 15 19  2  0
 42 43  2  0
 16 22  2  0
 12 17  1  6
 17 19  1  0
 17 20  1  0
 18 19  1  0
 18 22  1  0
 18 23  1  0
  9 10  1  0
  9 11  1  0
 10 12  1  0
 11  5  1  6
 33 34  1  0
 33 35  1  0
 34 36  1  0
 35 37  1  0
 37 43  1  6
 20 21  2  0
 21 22  1  0
M  CHG  3   2  -1  26  -1  41  -1
M  END
>  <COMPND>  (122) 
    udp_gluA.pdb 

>  <AUTHOR>  (122) 
    GENERATED BY OPEN BABEL 3.1.1

>  <MASTER>  (122) 
        0    0    0    0    0    0    0    0   56    0   56    0

>  <minimizedAffinity>  (122) 
-7.32874

>  <CNNscore>  (122) 
0.9277846813

>  <CNNaffinity>  (122) 
4.7755136490

>  <CNN_VS>  (122) 
4.4306483269

>  <CNNaffinity_variance>  (122) 
0.2248707265

$$$$
123
     RDKit          3D

 43 45  0  0  0  0  0  0  0  0999 V2000
   22.2817   71.4845   -2.6867 P   0  0  2  0  0  0  0  0  0  0  0  0
   22.4086   73.0955   -2.6002 O   0  0  0  0  0  0  0  0  0  0  0  0
   23.5747   70.7586   -2.9171 O   0  0  0  0  0  0  0  0  0  0  0  0
   21.1330   71.2444   -3.8006 O   0  0  0  0  0  0  0  0  0  0  0  0
   20.2170   70.1820   -3.6091 C   0  0  0  0  0  0  0  0  0  0  0  0
   18.5235   71.4859   -4.7090 O   0  0  0  0  0  0  0  0  0  0  0  0
   16.5895   70.2714   -2.7657 O   0  0  0  0  0  0  0  0  0  0  0  0
   16.1612   68.8075   -5.0262 O   0  0  0  0  0  0  0  0  0  0  0  0
   17.7316   69.6847   -3.3901 C   0  0  1  0  0  0  0  0  0  0  0  0
   17.4374   69.3845   -4.8446 C   0  0  2  0  0  0  0  0  0  0  0  0
   18.8098   70.7544   -3.4972 C   0  0  1  0  0  0  0  0  0  0  0  0
   17.5533   70.7595   -5.4801 C   0  0  2  0  0  0  0  0  0  0  0  0
   15.8869   69.6068   -2.6862 H   0  0  0  0  0  0  0  0  0  0  0  0
   16.1384   67.9338   -4.6041 H   0  0  0  0  0  0  0  0  0  0  0  0
   15.8875   70.1054   -7.6649 O   0  0  0  0  0  0  0  0  0  0  0  0
   19.3507   70.5499  -10.6736 O   0  0  0  0  0  0  0  0  0  0  0  0
   17.9937   70.6970   -6.8450 N   0  0  0  0  0  0  0  0  0  0  0  0
   17.6142   70.3264   -9.1612 N   0  0  0  0  0  0  0  0  0  0  0  0
   17.0765   70.3584   -7.8678 C   0  0  0  0  0  0  0  0  0  0  0  0
   19.3194   70.9706   -7.1593 C   0  0  0  0  0  0  0  0  0  0  0  0
   19.8172   70.9362   -8.3969 C   0  0  0  0  0  0  0  0  0  0  0  0
   18.9253   70.5902   -9.5231 C   0  0  0  0  0  0  0  0  0  0  0  0
   16.9952   70.0912   -9.8898 H   0  0  0  0  0  0  0  0  0  0  0  0
   21.5333   71.1047   -1.3052 O   0  0  0  0  0  0  0  0  0  0  0  0
   22.0093   71.2457    0.2334 P   0  0  2  0  0  0  0  0  0  0  0  0
   23.6198   71.3567    0.1135 O   0  0  0  0  0  0  0  0  0  0  0  0
   21.5306   70.1406    1.1298 O   0  0  0  0  0  0  0  0  0  0  0  0
   21.5312   72.7214    0.6761 O   0  0  0  0  0  0  0  0  0  0  0  0
   22.6632   74.5612    1.6474 O   0  0  0  0  0  0  0  0  0  0  0  0
   18.9762   74.7697    3.4995 O   0  0  0  0  0  0  0  0  0  0  0  0
   20.2942   72.1917    3.1103 O   0  0  0  0  0  0  0  0  0  0  0  0
   19.6496   76.6364    1.3752 O   0  0  0  0  0  0  0  0  0  0  0  0
   19.8866   74.4866    2.4370 C   0  0  2  0  0  0  0  0  0  0  0  0
   20.9143   73.4558    2.9046 C   0  0  2  0  0  0  0  0  0  0  0  0
   20.5821   75.7935    2.0494 C   0  0  1  0  0  0  0  0  0  0  0  0
   22.0373   73.2985    1.8785 C   0  0  1  0  0  0  0  0  0  0  0  0
   21.7684   75.5400    1.1237 C   0  0  1  0  0  0  0  0  0  0  0  0
   18.5223   73.9535    3.7627 H   0  0  0  0  0  0  0  0  0  0  0  0
   19.5804   72.2842    3.7601 H   0  0  0  0  0  0  0  0  0  0  0  0
   18.8895   76.8054    1.9536 H   0  0  0  0  0  0  0  0  0  0  0  0
   22.0943   77.6452    0.1420 O   0  0  0  0  0  0  0  0  0  0  0  0
   23.6682   76.9377    1.6324 O   0  0  0  0  0  0  0  0  0  0  0  0
   22.6279   76.7575    1.0173 C   0  0  0  0  0  0  0  0  0  0  0  0
  1  4  1  0
  1 24  1  0
  1  2  1  1
  1  3  2  0
 25 28  1  0
 25 24  1  0
 25 26  1  6
 25 27  2  0
  6 11  1  0
  6 12  1  0
 29 36  1  0
 29 37  1  0
  9  7  1  6
  7 13  1  0
 10  8  1  1
  8 14  1  0
  4  5  1  0
 36 28  1  6
 33 30  1  1
 30 38  1  0
 34 31  1  6
 31 39  1  0
 35 32  1  6
 32 40  1  0
 41 43  1  0
 15 19  2  0
 42 43  2  0
 16 22  2  0
 12 17  1  6
 17 19  1  0
 17 20  1  0
 18 19  1  0
 18 22  1  0
 18 23  1  0
  9 10  1  0
  9 11  1  0
 10 12  1  0
 11  5  1  6
 33 34  1  0
 33 35  1  0
 34 36  1  0
 35 37  1  0
 37 43  1  1
 20 21  2  0
 21 22  1  0
M  CHG  3   2  -1  26  -1  41  -1
M  END
>  <COMPND>  (123) 
    udp_gluA.pdb 

>  <AUTHOR>  (123) 
    GENERATED BY OPEN BABEL 3.1.1

>  <MASTER>  (123) 
        0    0    0    0    0    0    0    0   56    0   56    0

>  <minimizedAffinity>  (123) 
-7.13026

>  <CNNscore>  (123) 
0.9253647923

>  <CNNaffinity>  (123) 
4.7781758308

>  <CNN_VS>  (123) 
4.4215555191

>  <CNNaffinity_variance>  (123) 
0.0621532872

$$$$
124
     RDKit          3D

 43 45  0  0  0  0  0  0  0  0999 V2000
   23.1610   72.5695   -4.1665 P   0  0  2  0  0  0  0  0  0  0  0  0
   23.0936   72.4376   -5.7780 O   0  0  0  0  0  0  0  0  0  0  0  0
   24.0664   71.5841   -3.4875 O   0  0  0  0  0  0  0  0  0  0  0  0
   21.6098   72.5301   -3.7082 O   0  0  0  0  0  0  0  0  0  0  0  0
   20.8714   71.3413   -3.9227 C   0  0  0  0  0  0  0  0  0  0  0  0
   18.8246   72.0834   -4.9413 O   0  0  0  0  0  0  0  0  0  0  0  0
   17.4248   70.8286   -2.6051 O   0  0  0  0  0  0  0  0  0  0  0  0
   17.0911   68.9672   -4.5698 O   0  0  0  0  0  0  0  0  0  0  0  0
   18.5948   70.3931   -3.2979 C   0  0  1  0  0  0  0  0  0  0  0  0
   18.2205   69.8117   -4.6448 C   0  0  2  0  0  0  0  0  0  0  0  0
   19.3928   71.6277   -3.6944 C   0  0  1  0  0  0  0  0  0  0  0  0
   17.9619   71.0625   -5.4673 C   0  0  2  0  0  0  0  0  0  0  0  0
   16.8986   70.0570   -2.3416 H   0  0  0  0  0  0  0  0  0  0  0  0
   17.3066   68.1856   -4.0362 H   0  0  0  0  0  0  0  0  0  0  0  0
   16.1254   70.0615   -7.3652 O   0  0  0  0  0  0  0  0  0  0  0  0
   19.2030   70.3794  -10.7815 O   0  0  0  0  0  0  0  0  0  0  0  0
   18.2569   70.8736   -6.8595 N   0  0  0  0  0  0  0  0  0  0  0  0
   17.6603   70.2198   -9.0647 N   0  0  0  0  0  0  0  0  0  0  0  0
   17.2634   70.3643   -7.7288 C   0  0  0  0  0  0  0  0  0  0  0  0
   19.5169   71.1927   -7.3510 C   0  0  0  0  0  0  0  0  0  0  0  0
   19.8804   71.0496   -8.6270 C   0  0  0  0  0  0  0  0  0  0  0  0
   18.9015   70.5228   -9.6005 C   0  0  0  0  0  0  0  0  0  0  0  0
   16.9862   69.8651   -9.6885 H   0  0  0  0  0  0  0  0  0  0  0  0
   23.5659   74.1188   -3.9459 O   0  0  0  0  0  0  0  0  0  0  0  0
   23.8589   74.9573   -2.5951 P   0  0  2  0  0  0  0  0  0  0  0  0
   22.4914   75.7953   -2.3760 O   0  0  0  0  0  0  0  0  0  0  0  0
   25.0992   75.8014   -2.6511 O   0  0  0  0  0  0  0  0  0  0  0  0
   23.8530   73.8534   -1.4187 O   0  0  0  0  0  0  0  0  0  0  0  0
   22.0638   73.0639   -0.0828 O   0  0  0  0  0  0  0  0  0  0  0  0
   25.2513   72.7837    2.5304 O   0  0  0  0  0  0  0  0  0  0  0  0
   24.9566   75.1182    0.7990 O   0  0  0  0  0  0  0  0  0  0  0  0
   24.1783   70.3909    1.2759 O   0  0  0  0  0  0  0  0  0  0  0  0
   24.6030   72.7624    1.2587 C   0  0  2  0  0  0  0  0  0  0  0  0
   23.9583   74.1225    0.9901 C   0  0  2  0  0  0  0  0  0  0  0  0
   23.5370   71.6649    1.2896 C   0  0  1  0  0  0  0  0  0  0  0  0
   23.0645   74.0689   -0.2497 C   0  0  1  0  0  0  0  0  0  0  0  0
   22.6080   71.7564    0.0825 C   0  0  1  0  0  0  0  0  0  0  0  0
   25.9332   73.4739    2.5344 H   0  0  0  0  0  0  0  0  0  0  0  0
   25.5276   75.1574    1.5818 H   0  0  0  0  0  0  0  0  0  0  0  0
   24.7727   70.3198    2.0391 H   0  0  0  0  0  0  0  0  0  0  0  0
   21.4758   70.2222    1.4485 O   0  0  0  0  0  0  0  0  0  0  0  0
   20.4496   70.8431   -0.4907 O   0  0  0  0  0  0  0  0  0  0  0  0
   21.3931   70.9101    0.2828 C   0  0  0  0  0  0  0  0  0  0  0  0
  1  4  1  0
  1 24  1  0
  1  2  1  6
  1  3  2  0
 25 28  1  0
 25 24  1  0
 25 26  1  1
 25 27  2  0
  6 11  1  0
  6 12  1  0
 29 36  1  0
 29 37  1  0
  9  7  1  6
  7 13  1  0
 10  8  1  1
  8 14  1  0
  4  5  1  0
 36 28  1  6
 33 30  1  1
 30 38  1  0
 34 31  1  6
 31 39  1  0
 35 32  1  6
 32 40  1  0
 41 43  1  0
 15 19  2  0
 42 43  2  0
 16 22  2  0
 12 17  1  6
 17 19  1  0
 17 20  1  0
 18 19  1  0
 18 22  1  0
 18 23  1  0
  9 10  1  0
  9 11  1  0
 10 12  1  0
 11  5  1  6
 33 34  1  0
 33 35  1  0
 34 36  1  0
 35 37  1  0
 37 43  1  1
 20 21  2  0
 21 22  1  0
M  CHG  3   2  -1  26  -1  41  -1
M  END
>  <COMPND>  (124) 
    udp_gluA.pdb 

>  <AUTHOR>  (124) 
    GENERATED BY OPEN BABEL 3.1.1

>  <MASTER>  (124) 
        0    0    0    0    0    0    0    0   56    0   56    0

>  <minimizedAffinity>  (124) 
-7.87175

>  <CNNscore>  (124) 
0.9234771132

>  <CNNaffinity>  (124) 
4.8163409233

>  <CNN_VS>  (124) 
4.4477806091

>  <CNNaffinity_variance>  (124) 
0.0522067733

$$$$
125
     RDKit          3D

 43 45  0  0  0  0  0  0  0  0999 V2000
   22.7758   71.6583   -2.6295 P   0  0  2  0  0  0  0  0  0  0  0  0
   22.9306   73.2324   -2.2874 O   0  0  0  0  0  0  0  0  0  0  0  0
   24.0579   70.9534   -2.9630 O   0  0  0  0  0  0  0  0  0  0  0  0
   21.6344   71.6203   -3.7757 O   0  0  0  0  0  0  0  0  0  0  0  0
   20.7538   70.5124   -3.8165 C   0  0  0  0  0  0  0  0  0  0  0  0
   18.8854   71.6441   -4.8195 O   0  0  0  0  0  0  0  0  0  0  0  0
   17.2197   70.4311   -2.6411 O   0  0  0  0  0  0  0  0  0  0  0  0
   16.6858   68.8133   -4.7704 O   0  0  0  0  0  0  0  0  0  0  0  0
   18.3367   69.8790   -3.3382 C   0  0  1  0  0  0  0  0  0  0  0  0
   17.9324   69.4764   -4.7406 C   0  0  2  0  0  0  0  0  0  0  0  0
   19.3279   71.0040   -3.6030 C   0  0  1  0  0  0  0  0  0  0  0  0
   17.8994   70.8161   -5.4562 C   0  0  2  0  0  0  0  0  0  0  0  0
   16.5725   69.7309   -2.4607 H   0  0  0  0  0  0  0  0  0  0  0  0
   16.7589   67.9663   -4.3023 H   0  0  0  0  0  0  0  0  0  0  0  0
   16.0578   70.0422   -7.4527 O   0  0  0  0  0  0  0  0  0  0  0  0
   19.2301   70.4050  -10.7767 O   0  0  0  0  0  0  0  0  0  0  0  0
   18.2174   70.7001   -6.8513 N   0  0  0  0  0  0  0  0  0  0  0  0
   17.6398   70.2227   -9.1062 N   0  0  0  0  0  0  0  0  0  0  0  0
   17.2191   70.3036   -7.7722 C   0  0  0  0  0  0  0  0  0  0  0  0
   19.5044   70.9792   -7.2948 C   0  0  0  0  0  0  0  0  0  0  0  0
   19.8905   70.8977   -8.5696 C   0  0  0  0  0  0  0  0  0  0  0  0
   18.9083   70.4895   -9.5954 C   0  0  0  0  0  0  0  0  0  0  0  0
   16.9628   69.9466   -9.7656 H   0  0  0  0  0  0  0  0  0  0  0  0
   22.0066   71.0787   -1.3313 O   0  0  0  0  0  0  0  0  0  0  0  0
   22.2941   71.2735    0.2476 P   0  0  2  0  0  0  0  0  0  0  0  0
   23.9080   71.3761    0.3198 O   0  0  0  0  0  0  0  0  0  0  0  0
   21.7030   70.2025    1.1179 O   0  0  0  0  0  0  0  0  0  0  0  0
   21.7762   72.7654    0.5769 O   0  0  0  0  0  0  0  0  0  0  0  0
   20.1566   73.3591    2.1997 O   0  0  0  0  0  0  0  0  0  0  0  0
   19.8010   76.4537   -0.5141 O   0  0  0  0  0  0  0  0  0  0  0  0
   20.1043   73.6996   -1.4400 O   0  0  0  0  0  0  0  0  0  0  0  0
   21.1725   76.8798    2.0135 O   0  0  0  0  0  0  0  0  0  0  0  0
   20.4805   75.4323    0.2160 C   0  0  2  0  0  0  0  0  0  0  0  0
   19.8468   74.0754   -0.0920 C   0  0  2  0  0  0  0  0  0  0  0  0
   20.3538   75.7528    1.7070 C   0  0  1  0  0  0  0  0  0  0  0  0
   20.3927   72.9926    0.8398 C   0  0  1  0  0  0  0  0  0  0  0  0
   20.8008   74.5761    2.5697 C   0  0  1  0  0  0  0  0  0  0  0  0
   19.8681   76.2711   -1.4646 H   0  0  0  0  0  0  0  0  0  0  0  0
   19.7608   74.3824   -2.0368 H   0  0  0  0  0  0  0  0  0  0  0  0
   20.8984   77.6357    1.4709 H   0  0  0  0  0  0  0  0  0  0  0  0
   19.5408   75.8311    4.0990 O   0  0  0  0  0  0  0  0  0  0  0  0
   20.7151   74.0598    4.9250 O   0  0  0  0  0  0  0  0  0  0  0  0
   20.3716   74.7651    3.9883 C   0  0  0  0  0  0  0  0  0  0  0  0
  1  4  1  0
  1 24  1  0
  1  2  1  1
  1  3  2  0
 25 28  1  0
 25 24  1  0
 25 26  1  6
 25 27  2  0
  6 11  1  0
  6 12  1  0
 29 36  1  0
 29 37  1  0
  9  7  1  1
  7 13  1  0
 10  8  1  1
  8 14  1  0
  4  5  1  0
 36 28  1  1
 33 30  1  6
 30 38  1  0
 34 31  1  6
 31 39  1  0
 35 32  1  1
 32 40  1  0
 41 43  1  0
 15 19  2  0
 42 43  2  0
 16 22  2  0
 12 17  1  6
 17 19  1  0
 17 20  1  0
 18 19  1  0
 18 22  1  0
 18 23  1  0
  9 10  1  0
  9 11  1  0
 10 12  1  0
 11  5  1  6
 33 34  1  0
 33 35  1  0
 34 36  1  0
 35 37  1  0
 37 43  1  1
 20 21  2  0
 21 22  1  0
M  CHG  3   2  -1  26  -1  41  -1
M  END
>  <COMPND>  (125) 
    udp_gluA.pdb 

>  <AUTHOR>  (125) 
    GENERATED BY OPEN BABEL 3.1.1

>  <MASTER>  (125) 
        0    0    0    0    0    0    0    0   56    0   56    0

>  <minimizedAffinity>  (125) 
-6.94739

>  <CNNscore>  (125) 
0.8930878639

>  <CNNaffinity>  (125) 
4.6833329201

>  <CNN_VS>  (125) 
4.1826276779

>  <CNNaffinity_variance>  (125) 
0.0639242008

$$$$
126
     RDKit          3D

 43 45  0  0  0  0  0  0  0  0999 V2000
   20.5236   71.5764   -0.8799 P   0  0  2  0  0  0  0  0  0  0  0  0
   20.7594   70.4611    0.2688 O   0  0  0  0  0  0  0  0  0  0  0  0
   19.5720   72.6760   -0.5095 O   0  0  0  0  0  0  0  0  0  0  0  0
   20.1220   70.7100   -2.1860 O   0  0  0  0  0  0  0  0  0  0  0  0
   19.7417   71.3983   -3.3633 C   0  0  0  0  0  0  0  0  0  0  0  0
   17.8395   72.0100   -4.6994 O   0  0  0  0  0  0  0  0  0  0  0  0
   16.1898   70.4782   -2.7187 O   0  0  0  0  0  0  0  0  0  0  0  0
   16.4024   68.7269   -4.7980 O   0  0  0  0  0  0  0  0  0  0  0  0
   17.5022   70.2012   -3.2077 C   0  0  1  0  0  0  0  0  0  0  0  0
   17.4331   69.6770   -4.6264 C   0  0  2  0  0  0  0  0  0  0  0  0
   18.2243   71.5287   -3.3934 C   0  0  1  0  0  0  0  0  0  0  0  0
   17.1939   70.9493   -5.4214 C   0  0  2  0  0  0  0  0  0  0  0  0
   15.7089   69.6449   -2.5921 H   0  0  0  0  0  0  0  0  0  0  0  0
   16.6012   67.9357   -4.2722 H   0  0  0  0  0  0  0  0  0  0  0  0
   15.7882   70.0299   -7.6920 O   0  0  0  0  0  0  0  0  0  0  0  0
   19.4159   70.7305  -10.4476 O   0  0  0  0  0  0  0  0  0  0  0  0
   17.7469   70.8809   -6.7444 N   0  0  0  0  0  0  0  0  0  0  0  0
   17.5967   70.3788   -9.0621 N   0  0  0  0  0  0  0  0  0  0  0  0
   16.9561   70.4034   -7.8162 C   0  0  0  0  0  0  0  0  0  0  0  0
   19.0571   71.2853   -6.9703 C   0  0  0  0  0  0  0  0  0  0  0  0
   19.6538   71.2561   -8.1635 C   0  0  0  0  0  0  0  0  0  0  0  0
   18.8973   70.7699   -9.3360 C   0  0  0  0  0  0  0  0  0  0  0  0
   17.0668   70.0483   -9.8232 H   0  0  0  0  0  0  0  0  0  0  0  0
   22.0246   72.0708   -1.2192 O   0  0  0  0  0  0  0  0  0  0  0  0
   23.2817   72.3874   -0.2532 P   0  0  2  0  0  0  0  0  0  0  0  0
   23.8761   73.7656   -0.8593 O   0  0  0  0  0  0  0  0  0  0  0  0
   24.2817   71.2716   -0.1583 O   0  0  0  0  0  0  0  0  0  0  0  0
   22.6190   72.8140    1.1544 O   0  0  0  0  0  0  0  0  0  0  0  0
   24.2101   72.5345    2.8863 O   0  0  0  0  0  0  0  0  0  0  0  0
   20.8817   73.7766    4.9950 O   0  0  0  0  0  0  0  0  0  0  0  0
   20.6217   71.8374    2.8256 O   0  0  0  0  0  0  0  0  0  0  0  0
   23.0745   75.6225    4.5101 O   0  0  0  0  0  0  0  0  0  0  0  0
   21.7619   73.7051    3.8733 C   0  0  2  0  0  0  0  0  0  0  0  0
   21.8583   72.2578    3.3900 C   0  0  2  0  0  0  0  0  0  0  0  0
   23.1363   74.2105    4.3177 C   0  0  1  0  0  0  0  0  0  0  0  0
   22.9620   72.1032    2.3426 C   0  0  1  0  0  0  0  0  0  0  0  0
   24.2061   73.9070    3.2728 C   0  0  1  0  0  0  0  0  0  0  0  0
   20.0017   73.4603    4.7364 H   0  0  0  0  0  0  0  0  0  0  0  0
   19.9168   71.9331    3.4847 H   0  0  0  0  0  0  0  0  0  0  0  0
   22.3971   75.8292    5.1729 H   0  0  0  0  0  0  0  0  0  0  0  0
   26.5056   73.4937    3.0653 O   0  0  0  0  0  0  0  0  0  0  0  0
   25.8270   74.7169    4.8659 O   0  0  0  0  0  0  0  0  0  0  0  0
   25.5738   74.0990    3.8427 C   0  0  0  0  0  0  0  0  0  0  0  0
  1  4  1  0
  1 24  1  0
  1  2  1  1
  1  3  2  0
 25 28  1  0
 25 24  1  0
 25 26  1  6
 25 27  2  0
  6 11  1  0
  6 12  1  0
 29 36  1  0
 29 37  1  0
  9  7  1  6
  7 13  1  0
 10  8  1  1
  8 14  1  0
  4  5  1  0
 36 28  1  6
 33 30  1  1
 30 38  1  0
 34 31  1  6
 31 39  1  0
 35 32  1  6
 32 40  1  0
 41 43  1  0
 15 19  2  0
 42 43  2  0
 16 22  2  0
 12 17  1  6
 17 19  1  0
 17 20  1  0
 18 19  1  0
 18 22  1  0
 18 23  1  0
  9 10  1  0
  9 11  1  0
 10 12  1  0
 11  5  1  6
 33 34  1  0
 33 35  1  0
 34 36  1  0
 35 37  1  0
 37 43  1  1
 20 21  2  0
 21 22  1  0
M  CHG  3   2  -1  26  -1  41  -1
M  END
>  <COMPND>  (126) 
    udp_gluA.pdb 

>  <AUTHOR>  (126) 
    GENERATED BY OPEN BABEL 3.1.1

>  <MASTER>  (126) 
        0    0    0    0    0    0    0    0   56    0   56    0

>  <minimizedAffinity>  (126) 
-7.31431

>  <CNNscore>  (126) 
0.8827873468

>  <CNNaffinity>  (126) 
4.5262956619

>  <CNN_VS>  (126) 
3.9957566261

>  <CNNaffinity_variance>  (126) 
0.0595808104

$$$$
127
     RDKit          3D

 43 45  0  0  0  0  0  0  0  0999 V2000
   21.9398   72.1003   -2.3118 P   0  0  2  0  0  0  0  0  0  0  0  0
   22.2692   73.6838   -2.3654 O   0  0  0  0  0  0  0  0  0  0  0  0
   23.1362   71.2004   -2.4141 O   0  0  0  0  0  0  0  0  0  0  0  0
   20.8101   71.8996   -3.4526 O   0  0  0  0  0  0  0  0  0  0  0  0
   20.0290   70.7190   -3.4304 C   0  0  0  0  0  0  0  0  0  0  0  0
   18.2195   71.7392   -4.6399 O   0  0  0  0  0  0  0  0  0  0  0  0
   16.3927   70.3508   -2.7095 O   0  0  0  0  0  0  0  0  0  0  0  0
   16.2495   68.7565   -4.9171 O   0  0  0  0  0  0  0  0  0  0  0  0
   17.6257   69.8998   -3.2706 C   0  0  1  0  0  0  0  0  0  0  0  0
   17.4295   69.5069   -4.7195 C   0  0  2  0  0  0  0  0  0  0  0  0
   18.5548   71.1002   -3.3890 C   0  0  1  0  0  0  0  0  0  0  0  0
   17.3849   70.8594   -5.4098 C   0  0  2  0  0  0  0  0  0  0  0  0
   15.7825   69.6010   -2.6241 H   0  0  0  0  0  0  0  0  0  0  0  0
   16.3275   67.9046   -4.4586 H   0  0  0  0  0  0  0  0  0  0  0  0
   15.8311   70.1338   -7.6538 O   0  0  0  0  0  0  0  0  0  0  0  0
   19.3933   70.6824  -10.5267 O   0  0  0  0  0  0  0  0  0  0  0  0
   17.8811   70.8043   -6.7558 N   0  0  0  0  0  0  0  0  0  0  0  0
   17.6070   70.4067   -9.0824 N   0  0  0  0  0  0  0  0  0  0  0  0
   17.0176   70.4275   -7.8115 C   0  0  0  0  0  0  0  0  0  0  0  0
   19.2077   71.1227   -7.0195 C   0  0  0  0  0  0  0  0  0  0  0  0
   19.7552   71.0985   -8.2363 C   0  0  0  0  0  0  0  0  0  0  0  0
   18.9214   70.7145   -9.3942 C   0  0  0  0  0  0  0  0  0  0  0  0
   17.0261   70.1454   -9.8331 H   0  0  0  0  0  0  0  0  0  0  0  0
   21.1001   71.9506   -0.9387 O   0  0  0  0  0  0  0  0  0  0  0  0
   21.5887   71.8608    0.5998 P   0  0  2  0  0  0  0  0  0  0  0  0
   22.4711   70.5040    0.6290 O   0  0  0  0  0  0  0  0  0  0  0  0
   20.4725   71.8942    1.6033 O   0  0  0  0  0  0  0  0  0  0  0  0
   22.6663   73.0508    0.7572 O   0  0  0  0  0  0  0  0  0  0  0  0
   23.3881   74.3882    2.5736 O   0  0  0  0  0  0  0  0  0  0  0  0
   23.3335   77.1281   -0.5180 O   0  0  0  0  0  0  0  0  0  0  0  0
   21.1740   75.1825   -0.2252 O   0  0  0  0  0  0  0  0  0  0  0  0
   25.8614   76.0586    0.4394 O   0  0  0  0  0  0  0  0  0  0  0  0
   23.4889   75.8413    0.0803 C   0  0  2  0  0  0  0  0  0  0  0  0
   22.1792   75.4275    0.7517 C   0  0  2  0  0  0  0  0  0  0  0  0
   24.6119   75.9337    1.1158 C   0  0  1  0  0  0  0  0  0  0  0  0
   22.3715   74.1666    1.5955 C   0  0  1  0  0  0  0  0  0  0  0  0
   24.6580   74.6909    2.0000 C   0  0  1  0  0  0  0  0  0  0  0  0
   22.6249   77.0938   -1.1798 H   0  0  0  0  0  0  0  0  0  0  0  0
   21.0470   75.9784   -0.7644 H   0  0  0  0  0  0  0  0  0  0  0  0
   25.8453   76.8458   -0.1270 H   0  0  0  0  0  0  0  0  0  0  0  0
   25.0829   74.1914    4.2520 O   0  0  0  0  0  0  0  0  0  0  0  0
   26.4890   75.6676    3.2308 O   0  0  0  0  0  0  0  0  0  0  0  0
   25.5202   74.9237    3.1978 C   0  0  0  0  0  0  0  0  0  0  0  0
  1  4  1  0
  1 24  1  0
  1  2  1  1
  1  3  2  0
 25 28  1  0
 25 24  1  0
 25 26  1  6
 25 27  2  0
  6 11  1  0
  6 12  1  0
 29 36  1  0
 29 37  1  0
  9  7  1  6
  7 13  1  0
 10  8  1  1
  8 14  1  0
  4  5  1  0
 36 28  1  6
 33 30  1  1
 30 38  1  0
 34 31  1  6
 31 39  1  0
 35 32  1  6
 32 40  1  0
 41 43  1  0
 15 19  2  0
 42 43  2  0
 16 22  2  0
 12 17  1  6
 17 19  1  0
 17 20  1  0
 18 19  1  0
 18 22  1  0
 18 23  1  0
  9 10  1  0
  9 11  1  0
 10 12  1  0
 11  5  1  6
 33 34  1  0
 33 35  1  0
 34 36  1  0
 35 37  1  0
 37 43  1  1
 20 21  2  0
 21 22  1  0
M  CHG  3   2  -1  26  -1  41  -1
M  END
>  <COMPND>  (127) 
    udp_gluA.pdb 

>  <AUTHOR>  (127) 
    GENERATED BY OPEN BABEL 3.1.1

>  <MASTER>  (127) 
        0    0    0    0    0    0    0    0   56    0   56    0

>  <minimizedAffinity>  (127) 
-6.09055

>  <CNNscore>  (127) 
0.8742882609

>  <CNNaffinity>  (127) 
4.7091073990

>  <CNN_VS>  (127) 
4.1171174049

>  <CNNaffinity_variance>  (127) 
0.1934411973

$$$$
128
     RDKit          3D

 43 45  0  0  0  0  0  0  0  0999 V2000
   20.1504   73.8570   -1.7512 P   0  0  2  0  0  0  0  0  0  0  0  0
   19.6316   72.5738   -0.9128 O   0  0  0  0  0  0  0  0  0  0  0  0
   20.1519   75.1514   -0.9920 O   0  0  0  0  0  0  0  0  0  0  0  0
   19.2509   73.8321   -3.0959 O   0  0  0  0  0  0  0  0  0  0  0  0
   19.1563   72.6215   -3.8237 C   0  0  0  0  0  0  0  0  0  0  0  0
   17.2465   72.1667   -5.2106 O   0  0  0  0  0  0  0  0  0  0  0  0
   16.1653   70.6070   -2.8890 O   0  0  0  0  0  0  0  0  0  0  0  0
   17.1349   68.6499   -4.5218 O   0  0  0  0  0  0  0  0  0  0  0  0
   17.5138   70.7401   -3.3386 C   0  0  1  0  0  0  0  0  0  0  0  0
   17.7286   69.9290   -4.5989 C   0  0  2  0  0  0  0  0  0  0  0  0
   17.7031   72.1650   -3.8406 C   0  0  1  0  0  0  0  0  0  0  0  0
   17.0836   70.8104   -5.6549 C   0  0  2  0  0  0  0  0  0  0  0  0
   16.0203   69.7044   -2.5634 H   0  0  0  0  0  0  0  0  0  0  0  0
   17.5805   68.1275   -3.8359 H   0  0  0  0  0  0  0  0  0  0  0  0
   15.6656   70.4721   -8.0738 O   0  0  0  0  0  0  0  0  0  0  0  0
   19.5556   70.2573  -10.5366 O   0  0  0  0  0  0  0  0  0  0  0  0
   17.7008   70.6637   -6.9427 N   0  0  0  0  0  0  0  0  0  0  0  0
   17.6044   70.3644   -9.2980 N   0  0  0  0  0  0  0  0  0  0  0  0
   16.8975   70.4991   -8.0958 C   0  0  0  0  0  0  0  0  0  0  0  0
   19.0858   70.6852   -7.0546 C   0  0  0  0  0  0  0  0  0  0  0  0
   19.7452   70.5557   -8.2074 C   0  0  0  0  0  0  0  0  0  0  0  0
   18.9804   70.3788   -9.4593 C   0  0  0  0  0  0  0  0  0  0  0  0
   17.0667   70.2466  -10.1142 H   0  0  0  0  0  0  0  0  0  0  0  0
   21.6036   73.3834   -2.2773 O   0  0  0  0  0  0  0  0  0  0  0  0
   22.4590   72.0460   -1.9718 P   0  0  2  0  0  0  0  0  0  0  0  0
   23.7739   72.2282   -2.8981 O   0  0  0  0  0  0  0  0  0  0  0  0
   21.7083   70.7675   -2.2082 O   0  0  0  0  0  0  0  0  0  0  0  0
   22.9945   72.2386   -0.4623 O   0  0  0  0  0  0  0  0  0  0  0  0
   24.5386   71.1699    0.9810 O   0  0  0  0  0  0  0  0  0  0  0  0
   21.3151   71.7698    3.4944 O   0  0  0  0  0  0  0  0  0  0  0  0
   20.9030   70.8617    0.7485 O   0  0  0  0  0  0  0  0  0  0  0  0
   23.6680   73.4635    3.7093 O   0  0  0  0  0  0  0  0  0  0  0  0
   22.1956   72.0670    2.4107 C   0  0  2  0  0  0  0  0  0  0  0  0
   22.1671   70.9209    1.3992 C   0  0  2  0  0  0  0  0  0  0  0  0
   23.6055   72.2391    2.9803 C   0  0  1  0  0  0  0  0  0  0  0  0
   23.2620   71.0937    0.3455 C   0  0  1  0  0  0  0  0  0  0  0  0
   24.6534   72.2774    1.8718 C   0  0  1  0  0  0  0  0  0  0  0  0
   20.4129   71.6561    3.1564 H   0  0  0  0  0  0  0  0  0  0  0  0
   20.2035   70.7523    1.4112 H   0  0  0  0  0  0  0  0  0  0  0  0
   23.0058   73.4522    4.4179 H   0  0  0  0  0  0  0  0  0  0  0  0
   26.4926   70.8607    2.2063 O   0  0  0  0  0  0  0  0  0  0  0  0
   26.6541   72.9846    3.0200 O   0  0  0  0  0  0  0  0  0  0  0  0
   26.0276   72.1139    2.4350 C   0  0  0  0  0  0  0  0  0  0  0  0
  1  4  1  0
  1 24  1  0
  1  2  1  1
  1  3  2  0
 25 28  1  0
 25 24  1  0
 25 26  1  6
 25 27  2  0
  6 11  1  0
  6 12  1  0
 29 36  1  0
 29 37  1  0
  9  7  1  6
  7 13  1  0
 10  8  1  1
  8 14  1  0
  4  5  1  0
 36 28  1  1
 33 30  1  1
 30 38  1  0
 34 31  1  6
 31 39  1  0
 35 32  1  6
 32 40  1  0
 41 43  1  0
 15 19  2  0
 42 43  2  0
 16 22  2  0
 12 17  1  6
 17 19  1  0
 17 20  1  0
 18 19  1  0
 18 22  1  0
 18 23  1  0
  9 10  1  0
  9 11  1  0
 10 12  1  0
 11  5  1  6
 33 34  1  0
 33 35  1  0
 34 36  1  0
 35 37  1  0
 37 43  1  1
 20 21  2  0
 21 22  1  0
M  CHG  3   2  -1  26  -1  41  -1
M  END
>  <COMPND>  (128) 
    udp_gluA.pdb 

>  <AUTHOR>  (128) 
    GENERATED BY OPEN BABEL 3.1.1

>  <MASTER>  (128) 
        0    0    0    0    0    0    0    0   56    0   56    0

>  <minimizedAffinity>  (128) 
-7.30130

>  <CNNscore>  (128) 
0.8532789350

>  <CNNaffinity>  (128) 
4.6036672592

>  <CNN_VS>  (128) 
3.9282124043

>  <CNNaffinity_variance>  (128) 
0.0222125296

$$$$
129
     RDKit          3D

 43 45  0  0  0  0  0  0  0  0999 V2000
   22.8740   72.2130   -3.9075 P   0  0  2  0  0  0  0  0  0  0  0  0
   23.4528   73.0890   -5.1389 O   0  0  0  0  0  0  0  0  0  0  0  0
   23.8769   71.3186   -3.2397 O   0  0  0  0  0  0  0  0  0  0  0  0
   21.5786   71.4721   -4.5329 O   0  0  0  0  0  0  0  0  0  0  0  0
   20.8962   70.5187   -3.7392 C   0  0  0  0  0  0  0  0  0  0  0  0
   18.9974   71.6564   -4.6763 O   0  0  0  0  0  0  0  0  0  0  0  0
   17.4050   70.4479   -2.4413 O   0  0  0  0  0  0  0  0  0  0  0  0
   16.7921   68.8324   -4.5509 O   0  0  0  0  0  0  0  0  0  0  0  0
   18.4953   69.8926   -3.1771 C   0  0  1  0  0  0  0  0  0  0  0  0
   18.0410   69.4916   -4.5646 C   0  0  2  0  0  0  0  0  0  0  0  0
   19.4801   71.0146   -3.4761 C   0  0  1  0  0  0  0  0  0  0  0  0
   17.9872   70.8316   -5.2783 C   0  0  2  0  0  0  0  0  0  0  0  0
   16.7623   69.7497   -2.2385 H   0  0  0  0  0  0  0  0  0  0  0  0
   16.8788   67.9850   -4.0858 H   0  0  0  0  0  0  0  0  0  0  0  0
   16.0683   70.0884   -7.2128 O   0  0  0  0  0  0  0  0  0  0  0  0
   19.1305   70.4165  -10.6419 O   0  0  0  0  0  0  0  0  0  0  0  0
   18.2560   70.7150   -6.6837 N   0  0  0  0  0  0  0  0  0  0  0  0
   17.5956   70.2515   -8.9187 N   0  0  0  0  0  0  0  0  0  0  0  0
   17.2215   70.3346   -7.5710 C   0  0  0  0  0  0  0  0  0  0  0  0
   19.5309   70.9775   -7.1701 C   0  0  0  0  0  0  0  0  0  0  0  0
   19.8722   70.8942   -8.4575 C   0  0  0  0  0  0  0  0  0  0  0  0
   18.8503   70.5022   -9.4501 C   0  0  0  0  0  0  0  0  0  0  0  0
   16.8928   69.9865   -9.5553 H   0  0  0  0  0  0  0  0  0  0  0  0
   22.2212   73.3323   -2.9411 O   0  0  0  0  0  0  0  0  0  0  0  0
   22.8835   74.2653   -1.7991 P   0  0  2  0  0  0  0  0  0  0  0  0
   22.0992   75.6711   -1.9692 O   0  0  0  0  0  0  0  0  0  0  0  0
   24.3782   74.3767   -1.8852 O   0  0  0  0  0  0  0  0  0  0  0  0
   22.3364   73.6596   -0.4076 O   0  0  0  0  0  0  0  0  0  0  0  0
   23.1765   71.5004    0.0838 O   0  0  0  0  0  0  0  0  0  0  0  0
   20.3091   71.9751    3.0199 O   0  0  0  0  0  0  0  0  0  0  0  0
   19.7735   72.8230    0.2760 O   0  0  0  0  0  0  0  0  0  0  0  0
   23.1287   72.2339    3.6785 O   0  0  0  0  0  0  0  0  0  0  0  0
   21.3155   72.3993    2.1005 C   0  0  2  0  0  0  0  0  0  0  0  0
   20.8919   72.0396    0.6762 C   0  0  2  0  0  0  0  0  0  0  0  0
   22.6194   71.6855    2.4643 C   0  0  1  0  0  0  0  0  0  0  0  0
   22.0384   72.2681   -0.3098 C   0  0  1  0  0  0  0  0  0  0  0  0
   23.6716   71.8569    1.3725 C   0  0  1  0  0  0  0  0  0  0  0  0
   19.4711   72.4158    2.8082 H   0  0  0  0  0  0  0  0  0  0  0  0
   19.0423   72.6831    0.8974 H   0  0  0  0  0  0  0  0  0  0  0  0
   22.4684   72.1314    4.3816 H   0  0  0  0  0  0  0  0  0  0  0  0
   24.6015   70.1451    2.6788 O   0  0  0  0  0  0  0  0  0  0  0  0
   25.7800   70.8099    0.8435 O   0  0  0  0  0  0  0  0  0  0  0  0
   24.8039   70.9029    1.5726 C   0  0  0  0  0  0  0  0  0  0  0  0
  1  4  1  0
  1 24  1  0
  1  2  1  6
  1  3  2  0
 25 28  1  0
 25 24  1  0
 25 26  1  6
 25 27  2  0
  6 11  1  0
  6 12  1  0
 29 36  1  0
 29 37  1  0
  9  7  1  1
  7 13  1  0
 10  8  1  1
  8 14  1  0
  4  5  1  0
 36 28  1  1
 33 30  1  1
 30 38  1  0
 34 31  1  6
 31 39  1  0
 35 32  1  1
 32 40  1  0
 41 43  1  0
 15 19  2  0
 42 43  2  0
 16 22  2  0
 12 17  1  6
 17 19  1  0
 17 20  1  0
 18 19  1  0
 18 22  1  0
 18 23  1  0
  9 10  1  0
  9 11  1  0
 10 12  1  0
 11  5  1  6
 33 34  1  0
 33 35  1  0
 34 36  1  0
 35 37  1  0
 37 43  1  1
 20 21  2  0
 21 22  1  0
M  CHG  3   2  -1  26  -1  41  -1
M  END
>  <COMPND>  (129) 
    udp_gluA.pdb 

>  <AUTHOR>  (129) 
    GENERATED BY OPEN BABEL 3.1.1

>  <MASTER>  (129) 
        0    0    0    0    0    0    0    0   56    0   56    0

>  <minimizedAffinity>  (129) 
-8.09392

>  <CNNscore>  (129) 
0.8468661904

>  <CNNaffinity>  (129) 
4.6897096634

>  <CNN_VS>  (129) 
3.9715566635

>  <CNNaffinity_variance>  (129) 
0.0367312916

$$$$
130
     RDKit          3D

 43 45  0  0  0  0  0  0  0  0999 V2000
   21.5194   72.0263   -1.8597 P   0  0  2  0  0  0  0  0  0  0  0  0
   21.8419   73.2778   -2.8337 O   0  0  0  0  0  0  0  0  0  0  0  0
   22.5746   70.9598   -1.8279 O   0  0  0  0  0  0  0  0  0  0  0  0
   20.0461   71.5434   -2.3224 O   0  0  0  0  0  0  0  0  0  0  0  0
   19.5404   72.0075   -3.5607 C   0  0  0  0  0  0  0  0  0  0  0  0
   17.5600   72.0942   -4.9203 O   0  0  0  0  0  0  0  0  0  0  0  0
   16.2587   70.4148   -2.8042 O   0  0  0  0  0  0  0  0  0  0  0  0
   16.8485   68.5849   -4.7381 O   0  0  0  0  0  0  0  0  0  0  0  0
   17.6030   70.3819   -3.2842 C   0  0  1  0  0  0  0  0  0  0  0  0
   17.6545   69.7417   -4.6552 C   0  0  2  0  0  0  0  0  0  0  0  0
   18.0298   71.8123   -3.5842 C   0  0  1  0  0  0  0  0  0  0  0  0
   17.1571   70.8662   -5.5473 C   0  0  2  0  0  0  0  0  0  0  0  0
   15.9638   69.5119   -2.6057 H   0  0  0  0  0  0  0  0  0  0  0  0
   17.2066   67.8987   -4.1526 H   0  0  0  0  0  0  0  0  0  0  0  0
   15.7022   70.1998   -7.8744 O   0  0  0  0  0  0  0  0  0  0  0  0
   19.4201   70.6777  -10.5563 O   0  0  0  0  0  0  0  0  0  0  0  0
   17.7200   70.8089   -6.8666 N   0  0  0  0  0  0  0  0  0  0  0  0
   17.5555   70.4374   -9.2078 N   0  0  0  0  0  0  0  0  0  0  0  0
   16.9024   70.4634   -7.9685 C   0  0  0  0  0  0  0  0  0  0  0  0
   19.0662   71.0945   -7.0593 C   0  0  0  0  0  0  0  0  0  0  0  0
   19.6746   71.0657   -8.2466 C   0  0  0  0  0  0  0  0  0  0  0  0
   18.8917   70.7130   -9.4492 C   0  0  0  0  0  0  0  0  0  0  0  0
   17.0073   70.1975   -9.9896 H   0  0  0  0  0  0  0  0  0  0  0  0
   21.2380   72.7378   -0.4358 O   0  0  0  0  0  0  0  0  0  0  0  0
   21.2261   72.1391    1.0659 P   0  0  2  0  0  0  0  0  0  0  0  0
   21.1386   70.5406    0.8261 O   0  0  0  0  0  0  0  0  0  0  0  0
   20.1397   72.6935    1.9412 O   0  0  0  0  0  0  0  0  0  0  0  0
   22.7218   72.3868    1.6172 O   0  0  0  0  0  0  0  0  0  0  0  0
   24.4092   73.7209    0.6262 O   0  0  0  0  0  0  0  0  0  0  0  0
   26.6484   70.9111    2.6656 O   0  0  0  0  0  0  0  0  0  0  0  0
   24.2608   70.1108    1.1846 O   0  0  0  0  0  0  0  0  0  0  0  0
   26.3921   73.6114    3.7114 O   0  0  0  0  0  0  0  0  0  0  0  0
   25.5273   71.7631    2.4304 C   0  0  2  0  0  0  0  0  0  0  0  0
   24.8732   71.3924    1.0992 C   0  0  2  0  0  0  0  0  0  0  0  0
   26.0310   73.2076    2.3919 C   0  0  1  0  0  0  0  0  0  0  0  0
   23.8161   72.4241    0.7030 C   0  0  1  0  0  0  0  0  0  0  0  0
   24.9584   74.1578    1.8674 C   0  0  1  0  0  0  0  0  0  0  0  0
   26.3526   69.9876    2.6941 H   0  0  0  0  0  0  0  0  0  0  0  0
   24.9258   69.4513    1.4359 H   0  0  0  0  0  0  0  0  0  0  0  0
   27.0741   73.0145    4.0570 H   0  0  0  0  0  0  0  0  0  0  0  0
   25.5353   75.6839    0.1823 O   0  0  0  0  0  0  0  0  0  0  0  0
   25.9837   76.2915    2.3338 O   0  0  0  0  0  0  0  0  0  0  0  0
   25.5488   75.4866    1.5239 C   0  0  0  0  0  0  0  0  0  0  0  0
  1  4  1  0
  1 24  1  0
  1  2  1  6
  1  3  2  0
 25 28  1  0
 25 24  1  0
 25 26  1  6
 25 27  2  0
  6 11  1  0
  6 12  1  0
 29 36  1  0
 29 37  1  0
  9  7  1  6
  7 13  1  0
 10  8  1  1
  8 14  1  0
  4  5  1  0
 36 28  1  1
 33 30  1  6
 30 38  1  0
 34 31  1  1
 31 39  1  0
 35 32  1  1
 32 40  1  0
 41 43  1  0
 15 19  2  0
 42 43  2  0
 16 22  2  0
 12 17  1  6
 17 19  1  0
 17 20  1  0
 18 19  1  0
 18 22  1  0
 18 23  1  0
  9 10  1  0
  9 11  1  0
 10 12  1  0
 11  5  1  6
 33 34  1  0
 33 35  1  0
 34 36  1  0
 35 37  1  0
 37 43  1  6
 20 21  2  0
 21 22  1  0
M  CHG  3   2  -1  26  -1  41  -1
M  END
>  <COMPND>  (130) 
    udp_gluA.pdb 

>  <AUTHOR>  (130) 
    GENERATED BY OPEN BABEL 3.1.1

>  <MASTER>  (130) 
        0    0    0    0    0    0    0    0   56    0   56    0

>  <minimizedAffinity>  (130) 
-7.21440

>  <CNNscore>  (130) 
0.8467841148

>  <CNNaffinity>  (130) 
4.6784710884

>  <CNN_VS>  (130) 
3.9616549015

>  <CNNaffinity_variance>  (130) 
0.1215553731

$$$$
131
     RDKit          3D

 43 45  0  0  0  0  0  0  0  0999 V2000
   21.6811   72.0831   -1.7313 P   0  0  2  0  0  0  0  0  0  0  0  0
   21.7785   73.2955   -2.7988 O   0  0  0  0  0  0  0  0  0  0  0  0
   22.9449   71.2943   -1.5514 O   0  0  0  0  0  0  0  0  0  0  0  0
   20.3895   71.2392   -2.2187 O   0  0  0  0  0  0  0  0  0  0  0  0
   19.9238   71.4207   -3.5434 C   0  0  0  0  0  0  0  0  0  0  0  0
   17.9628   71.9620   -4.8237 O   0  0  0  0  0  0  0  0  0  0  0  0
   16.4252   70.3891   -2.7858 O   0  0  0  0  0  0  0  0  0  0  0  0
   16.6318   68.6331   -4.8619 O   0  0  0  0  0  0  0  0  0  0  0  0
   17.7306   70.1521   -3.3134 C   0  0  1  0  0  0  0  0  0  0  0  0
   17.6355   69.6174   -4.7267 C   0  0  2  0  0  0  0  0  0  0  0  0
   18.4027   71.5013   -3.5277 C   0  0  1  0  0  0  0  0  0  0  0  0
   17.3307   70.8764   -5.5203 C   0  0  2  0  0  0  0  0  0  0  0  0
   15.9760   69.5412   -2.6404 H   0  0  0  0  0  0  0  0  0  0  0  0
   16.8724   67.8520   -4.3385 H   0  0  0  0  0  0  0  0  0  0  0  0
   15.7913   70.2109   -7.7928 O   0  0  0  0  0  0  0  0  0  0  0  0
   19.4096   70.6841  -10.6084 O   0  0  0  0  0  0  0  0  0  0  0  0
   17.8452   70.8181   -6.8593 N   0  0  0  0  0  0  0  0  0  0  0  0
   17.5951   70.4462   -9.1928 N   0  0  0  0  0  0  0  0  0  0  0  0
   16.9876   70.4732   -7.9306 C   0  0  0  0  0  0  0  0  0  0  0  0
   19.1838   71.1022   -7.1009 C   0  0  0  0  0  0  0  0  0  0  0  0
   19.7485   71.0724   -8.3096 C   0  0  0  0  0  0  0  0  0  0  0  0
   18.9219   70.7202   -9.4827 C   0  0  0  0  0  0  0  0  0  0  0  0
   17.0186   70.2066   -9.9541 H   0  0  0  0  0  0  0  0  0  0  0  0
   21.1505   72.8192   -0.3936 O   0  0  0  0  0  0  0  0  0  0  0  0
   21.0020   72.2838    1.1246 P   0  0  2  0  0  0  0  0  0  0  0  0
   21.1414   70.6789    0.9662 O   0  0  0  0  0  0  0  0  0  0  0  0
   19.7458   72.7303    1.8149 O   0  0  0  0  0  0  0  0  0  0  0  0
   22.3659   72.7408    1.8550 O   0  0  0  0  0  0  0  0  0  0  0  0
   24.2081   71.6258    2.8411 O   0  0  0  0  0  0  0  0  0  0  0  0
   23.5560   74.7030    5.5195 O   0  0  0  0  0  0  0  0  0  0  0  0
   21.3053   73.2305    4.3792 O   0  0  0  0  0  0  0  0  0  0  0  0
   25.7880   74.8341    3.6615 O   0  0  0  0  0  0  0  0  0  0  0  0
   23.5764   74.0723    4.2389 C   0  0  2  0  0  0  0  0  0  0  0  0
   22.6690   72.8420    4.2599 C   0  0  2  0  0  0  0  0  0  0  0  0
   25.0197   73.6640    3.9358 C   0  0  1  0  0  0  0  0  0  0  0  0
   22.8412   72.0133    2.9862 C   0  0  1  0  0  0  0  0  0  0  0  0
   25.0940   72.7371    2.7259 C   0  0  1  0  0  0  0  0  0  0  0  0
   22.6486   74.9712    5.7337 H   0  0  0  0  0  0  0  0  0  0  0  0
   21.1888   73.7569    5.1852 H   0  0  0  0  0  0  0  0  0  0  0  0
   25.7489   75.4326    4.4238 H   0  0  0  0  0  0  0  0  0  0  0  0
   26.3181   70.7949    2.2452 O   0  0  0  0  0  0  0  0  0  0  0  0
   27.4999   72.6391    2.8789 O   0  0  0  0  0  0  0  0  0  0  0  0
   26.4367   72.0878    2.6367 C   0  0  0  0  0  0  0  0  0  0  0  0
  1  4  1  0
  1 24  1  0
  1  2  1  6
  1  3  2  0
 25 28  1  0
 25 24  1  0
 25 26  1  6
 25 27  2  0
  6 11  1  0
  6 12  1  0
 29 36  1  0
 29 37  1  0
  9  7  1  6
  7 13  1  0
 10  8  1  1
  8 14  1  0
  4  5  1  0
 36 28  1  6
 33 30  1  1
 30 38  1  0
 34 31  1  6
 31 39  1  0
 35 32  1  6
 32 40  1  0
 41 43  1  0
 15 19  2  0
 42 43  2  0
 16 22  2  0
 12 17  1  6
 17 19  1  0
 17 20  1  0
 18 19  1  0
 18 22  1  0
 18 23  1  0
  9 10  1  0
  9 11  1  0
 10 12  1  0
 11  5  1  6
 33 34  1  0
 33 35  1  0
 34 36  1  0
 35 37  1  0
 37 43  1  1
 20 21  2  0
 21 22  1  0
M  CHG  3   2  -1  26  -1  41  -1
M  END
>  <COMPND>  (131) 
    udp_gluA.pdb 

>  <AUTHOR>  (131) 
    GENERATED BY OPEN BABEL 3.1.1

>  <MASTER>  (131) 
        0    0    0    0    0    0    0    0   56    0   56    0

>  <minimizedAffinity>  (131) 
-7.27721

>  <CNNscore>  (131) 
0.8231457472

>  <CNNaffinity>  (131) 
4.5677895546

>  <CNN_VS>  (131) 
3.7599565983

>  <CNNaffinity_variance>  (131) 
0.0957677811

$$$$
132
     RDKit          3D

 43 45  0  0  0  0  0  0  0  0999 V2000
   20.6134   71.2809   -1.1511 P   0  0  2  0  0  0  0  0  0  0  0  0
   20.8486   70.6292    0.3114 O   0  0  0  0  0  0  0  0  0  0  0  0
   19.9366   72.6202   -1.1465 O   0  0  0  0  0  0  0  0  0  0  0  0
   19.8573   70.1145   -1.9792 O   0  0  0  0  0  0  0  0  0  0  0  0
   19.5086   70.3610   -3.3291 C   0  0  0  0  0  0  0  0  0  0  0  0
   17.8091   71.4554   -4.6297 O   0  0  0  0  0  0  0  0  0  0  0  0
   15.8251   69.9253   -2.9824 O   0  0  0  0  0  0  0  0  0  0  0  0
   15.9081   68.4904   -5.2998 O   0  0  0  0  0  0  0  0  0  0  0  0
   17.1104   69.5210   -3.4547 C   0  0  1  0  0  0  0  0  0  0  0  0
   17.0557   69.2306   -4.9396 C   0  0  2  0  0  0  0  0  0  0  0  0
   18.0328   70.7313   -3.4005 C   0  0  1  0  0  0  0  0  0  0  0  0
   17.0606   70.6284   -5.5347 C   0  0  2  0  0  0  0  0  0  0  0  0
   15.2183   69.1684   -3.0077 H   0  0  0  0  0  0  0  0  0  0  0  0
   15.9525   67.6087   -4.8967 H   0  0  0  0  0  0  0  0  0  0  0  0
   15.6904   70.2472   -7.9747 O   0  0  0  0  0  0  0  0  0  0  0  0
   19.5447   70.8135  -10.4380 O   0  0  0  0  0  0  0  0  0  0  0  0
   17.6816   70.6710   -6.8283 N   0  0  0  0  0  0  0  0  0  0  0  0
   17.6115   70.5286   -9.1992 N   0  0  0  0  0  0  0  0  0  0  0  0
   16.9031   70.4663   -7.9920 C   0  0  0  0  0  0  0  0  0  0  0  0
   19.0454   70.9148   -6.9353 C   0  0  0  0  0  0  0  0  0  0  0  0
   19.7066   70.9713   -8.0931 C   0  0  0  0  0  0  0  0  0  0  0  0
   18.9672   70.7675   -9.3560 C   0  0  0  0  0  0  0  0  0  0  0  0
   17.0912   70.3872  -10.0230 H   0  0  0  0  0  0  0  0  0  0  0  0
   22.0972   71.2784   -1.7924 O   0  0  0  0  0  0  0  0  0  0  0  0
   22.9175   72.4315   -2.5742 P   0  0  2  0  0  0  0  0  0  0  0  0
   24.0173   71.5955   -3.4179 O   0  0  0  0  0  0  0  0  0  0  0  0
   23.4971   73.4889   -1.6799 O   0  0  0  0  0  0  0  0  0  0  0  0
   21.8870   72.9852   -3.6851 O   0  0  0  0  0  0  0  0  0  0  0  0
   22.5776   75.1731   -4.2727 O   0  0  0  0  0  0  0  0  0  0  0  0
   19.2598   74.6634   -6.6811 O   0  0  0  0  0  0  0  0  0  0  0  0
   19.2252   73.7620   -3.9025 O   0  0  0  0  0  0  0  0  0  0  0  0
   21.9293   74.4903   -7.8189 O   0  0  0  0  0  0  0  0  0  0  0  0
   20.4194   74.2535   -5.9564 C   0  0  2  0  0  0  0  0  0  0  0  0
   20.2388   74.5811   -4.4740 C   0  0  2  0  0  0  0  0  0  0  0  0
   21.6236   75.0073   -6.5252 C   0  0  1  0  0  0  0  0  0  0  0  0
   21.5431   74.3694   -3.7040 C   0  0  1  0  0  0  0  0  0  0  0  0
   22.8519   74.8487   -5.6338 C   0  0  1  0  0  0  0  0  0  0  0  0
   18.4816   74.1973   -6.3370 H   0  0  0  0  0  0  0  0  0  0  0  0
   18.3948   73.8911   -4.3864 H   0  0  0  0  0  0  0  0  0  0  0  0
   21.1556   74.5851   -8.3961 H   0  0  0  0  0  0  0  0  0  0  0  0
   24.3419   75.6176   -7.2740 O   0  0  0  0  0  0  0  0  0  0  0  0
   24.3306   76.7219   -5.2791 O   0  0  0  0  0  0  0  0  0  0  0  0
   23.9095   75.8358   -6.0074 C   0  0  0  0  0  0  0  0  0  0  0  0
  1  4  1  0
  1 24  1  0
  1  2  1  1
  1  3  2  0
 25 28  1  0
 25 24  1  0
 25 26  1  6
 25 27  2  0
  6 11  1  0
  6 12  1  0
 29 36  1  0
 29 37  1  0
  9  7  1  6
  7 13  1  0
 10  8  1  1
  8 14  1  0
  4  5  1  0
 36 28  1  6
 33 30  1  6
 30 38  1  0
 34 31  1  1
 31 39  1  0
 35 32  1  6
 32 40  1  0
 41 43  1  0
 15 19  2  0
 42 43  2  0
 16 22  2  0
 12 17  1  6
 17 19  1  0
 17 20  1  0
 18 19  1  0
 18 22  1  0
 18 23  1  0
  9 10  1  0
  9 11  1  0
 10 12  1  0
 11  5  1  6
 33 34  1  0
 33 35  1  0
 34 36  1  0
 35 37  1  0
 37 43  1  6
 20 21  2  0
 21 22  1  0
M  CHG  3   2  -1  26  -1  41  -1
M  END
>  <COMPND>  (132) 
    udp_gluA.pdb 

>  <AUTHOR>  (132) 
    GENERATED BY OPEN BABEL 3.1.1

>  <MASTER>  (132) 
        0    0    0    0    0    0    0    0   56    0   56    0

>  <minimizedAffinity>  (132) 
-7.51993

>  <CNNscore>  (132) 
0.8149999976

>  <CNNaffinity>  (132) 
4.5263013840

>  <CNN_VS>  (132) 
3.6889355183

>  <CNNaffinity_variance>  (132) 
0.4324688315

$$$$
133
     RDKit          3D

 43 45  0  0  0  0  0  0  0  0999 V2000
   20.0833   72.0601   -1.0719 P   0  0  2  0  0  0  0  0  0  0  0  0
   20.5181   70.7857   -0.1744 O   0  0  0  0  0  0  0  0  0  0  0  0
   18.7941   72.7114   -0.6649 O   0  0  0  0  0  0  0  0  0  0  0  0
   20.1407   71.5038   -2.5902 O   0  0  0  0  0  0  0  0  0  0  0  0
   20.3676   72.4261   -3.6401 C   0  0  0  0  0  0  0  0  0  0  0  0
   20.7476   70.8272   -5.3942 O   0  0  0  0  0  0  0  0  0  0  0  0
   23.2176   72.4004   -6.0391 O   0  0  0  0  0  0  0  0  0  0  0  0
   21.4561   73.2513   -7.9390 O   0  0  0  0  0  0  0  0  0  0  0  0
   21.9438   72.8624   -5.5888 C   0  0  1  0  0  0  0  0  0  0  0  0
   20.9318   72.7873   -6.7125 C   0  0  2  0  0  0  0  0  0  0  0  0
   21.3973   71.8427   -4.5991 C   0  0  1  0  0  0  0  0  0  0  0  0
   20.6019   71.3046   -6.7411 C   0  0  2  0  0  0  0  0  0  0  0  0
   23.5868   73.0359   -6.6728 H   0  0  0  0  0  0  0  0  0  0  0  0
   21.6496   74.1999   -7.8697 H   0  0  0  0  0  0  0  0  0  0  0  0
   19.8502   70.9752   -9.4435 O   0  0  0  0  0  0  0  0  0  0  0  0
   15.4254   70.3328   -8.3244 O   0  0  0  0  0  0  0  0  0  0  0  0
   19.2603   71.0502   -7.1841 N   0  0  0  0  0  0  0  0  0  0  0  0
   17.6470   70.6566   -8.8836 N   0  0  0  0  0  0  0  0  0  0  0  0
   18.9893   70.9007   -8.5648 C   0  0  0  0  0  0  0  0  0  0  0  0
   18.2309   70.9496   -6.2562 C   0  0  0  0  0  0  0  0  0  0  0  0
   16.9563   70.7165   -6.5753 C   0  0  0  0  0  0  0  0  0  0  0  0
   16.5882   70.5488   -7.9965 C   0  0  0  0  0  0  0  0  0  0  0  0
   17.4334   70.5509   -9.8389 H   0  0  0  0  0  0  0  0  0  0  0  0
   21.3795   73.0222   -0.9882 O   0  0  0  0  0  0  0  0  0  0  0  0
   22.9514   72.6747   -0.8397 P   0  0  2  0  0  0  0  0  0  0  0  0
   23.6702   73.8320   -1.7138 O   0  0  0  0  0  0  0  0  0  0  0  0
   23.3142   71.2762   -1.2478 O   0  0  0  0  0  0  0  0  0  0  0  0
   23.3084   73.0394    0.6907 O   0  0  0  0  0  0  0  0  0  0  0  0
   25.2733   72.6872    1.9652 O   0  0  0  0  0  0  0  0  0  0  0  0
   22.3244   72.2261    4.8217 O   0  0  0  0  0  0  0  0  0  0  0  0
   21.9989   71.0723    2.1577 O   0  0  0  0  0  0  0  0  0  0  0  0
   23.9035   74.6654    4.7352 O   0  0  0  0  0  0  0  0  0  0  0  0
   22.9212   72.7579    3.6390 C   0  0  2  0  0  0  0  0  0  0  0  0
   23.2123   71.6223    2.6576 C   0  0  2  0  0  0  0  0  0  0  0  0
   24.2201   73.4610    4.0397 C   0  0  1  0  0  0  0  0  0  0  0  0
   24.0560   72.1177    1.4822 C   0  0  1  0  0  0  0  0  0  0  0  0
   25.0641   73.8110    2.8175 C   0  0  1  0  0  0  0  0  0  0  0  0
   21.4972   71.7744    4.5917 H   0  0  0  0  0  0  0  0  0  0  0  0
   21.4584   70.7562    2.8982 H   0  0  0  0  0  0  0  0  0  0  0  0
   23.3662   74.4566    5.5153 H   0  0  0  0  0  0  0  0  0  0  0  0
   26.7656   75.4244    2.7600 O   0  0  0  0  0  0  0  0  0  0  0  0
   27.2062   73.4875    3.8796 O   0  0  0  0  0  0  0  0  0  0  0  0
   26.4520   74.1885    3.2217 C   0  0  0  0  0  0  0  0  0  0  0  0
  1  4  1  0
  1 24  1  0
  1  2  1  1
  1  3  2  0
 25 28  1  0
 25 24  1  0
 25 26  1  6
 25 27  2  0
  6 11  1  0
  6 12  1  0
 29 36  1  0
 29 37  1  0
  9  7  1  6
  7 13  1  0
 10  8  1  6
  8 14  1  0
  4  5  1  0
 36 28  1  1
 33 30  1  1
 30 38  1  0
 34 31  1  6
 31 39  1  0
 35 32  1  6
 32 40  1  0
 41 43  1  0
 15 19  2  0
 42 43  2  0
 16 22  2  0
 12 17  1  1
 17 19  1  0
 17 20  1  0
 18 19  1  0
 18 22  1  0
 18 23  1  0
  9 10  1  0
  9 11  1  0
 10 12  1  0
 11  5  1  1
 33 34  1  0
 33 35  1  0
 34 36  1  0
 35 37  1  0
 37 43  1  1
 20 21  2  0
 21 22  1  0
M  CHG  3   2  -1  26  -1  41  -1
M  END
>  <COMPND>  (133) 
    udp_gluA.pdb 

>  <AUTHOR>  (133) 
    GENERATED BY OPEN BABEL 3.1.1

>  <MASTER>  (133) 
        0    0    0    0    0    0    0    0   56    0   56    0

>  <minimizedAffinity>  (133) 
-6.85201

>  <CNNscore>  (133) 
0.8123793006

>  <CNNaffinity>  (133) 
4.4494490623

>  <CNN_VS>  (133) 
3.6146402359

>  <CNNaffinity_variance>  (133) 
0.1174668074

$$$$
134
     RDKit          3D

 43 45  0  0  0  0  0  0  0  0999 V2000
   21.0520   73.1405   -4.6141 P   0  0  2  0  0  0  0  0  0  0  0  0
   21.4751   74.6983   -4.7293 O   0  0  0  0  0  0  0  0  0  0  0  0
   21.4433   72.2893   -5.7863 O   0  0  0  0  0  0  0  0  0  0  0  0
   19.4697   73.1914   -4.2797 O   0  0  0  0  0  0  0  0  0  0  0  0
   18.9528   72.2909   -3.3172 C   0  0  0  0  0  0  0  0  0  0  0  0
   17.1234   72.5197   -4.8595 O   0  0  0  0  0  0  0  0  0  0  0  0
   15.5187   70.9064   -2.9066 O   0  0  0  0  0  0  0  0  0  0  0  0
   16.1762   69.0623   -4.8047 O   0  0  0  0  0  0  0  0  0  0  0  0
   16.8984   70.7915   -3.2554 C   0  0  1  0  0  0  0  0  0  0  0  0
   17.0421   70.1634   -4.6255 C   0  0  2  0  0  0  0  0  0  0  0  0
   17.4423   72.1942   -3.4892 C   0  0  1  0  0  0  0  0  0  0  0  0
   16.7061   71.3270   -5.5426 C   0  0  2  0  0  0  0  0  0  0  0  0
   15.1491   70.0226   -2.7523 H   0  0  0  0  0  0  0  0  0  0  0  0
   16.4314   68.3483   -4.1989 H   0  0  0  0  0  0  0  0  0  0  0  0
   15.8327   72.5881   -7.9140 O   0  0  0  0  0  0  0  0  0  0  0  0
   19.4083   70.9510  -10.3179 O   0  0  0  0  0  0  0  0  0  0  0  0
   17.3897   71.2469   -6.8024 N   0  0  0  0  0  0  0  0  0  0  0  0
   17.6139   71.7707   -9.1092 N   0  0  0  0  0  0  0  0  0  0  0  0
   16.8667   71.9177   -7.9331 C   0  0  0  0  0  0  0  0  0  0  0  0
   18.5645   70.5124   -6.9085 C   0  0  0  0  0  0  0  0  0  0  0  0
   19.2657   70.3816   -8.0364 C   0  0  0  0  0  0  0  0  0  0  0  0
   18.7872   71.0504   -9.2641 C   0  0  0  0  0  0  0  0  0  0  0  0
   17.2684   72.2270   -9.9104 H   0  0  0  0  0  0  0  0  0  0  0  0
   21.7065   72.6899   -3.2065 O   0  0  0  0  0  0  0  0  0  0  0  0
   22.3916   71.2980   -2.7517 P   0  0  2  0  0  0  0  0  0  0  0  0
   23.9436   71.4966   -3.1668 O   0  0  0  0  0  0  0  0  0  0  0  0
   21.7469   70.0745   -3.3361 O   0  0  0  0  0  0  0  0  0  0  0  0
   22.3916   71.3493   -1.1393 O   0  0  0  0  0  0  0  0  0  0  0  0
   22.0531   73.4551   -0.1096 O   0  0  0  0  0  0  0  0  0  0  0  0
   23.4416   71.1867    3.0519 O   0  0  0  0  0  0  0  0  0  0  0  0
   24.6670   70.9522    0.4103 O   0  0  0  0  0  0  0  0  0  0  0  0
   20.6161   71.8414    2.8558 O   0  0  0  0  0  0  0  0  0  0  0  0
   22.7540   71.4285    1.8244 C   0  0  2  0  0  0  0  0  0  0  0  0
   23.7378   71.9632    0.7834 C   0  0  2  0  0  0  0  0  0  0  0  0
   21.6530   72.4567    2.0937 C   0  0  1  0  0  0  0  0  0  0  0  0
   23.0018   72.4490   -0.4661 C   0  0  1  0  0  0  0  0  0  0  0  0
   21.0545   72.9856    0.7935 C   0  0  1  0  0  0  0  0  0  0  0  0
   24.1463   70.5361    2.9052 H   0  0  0  0  0  0  0  0  0  0  0  0
   25.1373   70.6392    1.1984 H   0  0  0  0  0  0  0  0  0  0  0  0
   20.9838   71.5004    3.6860 H   0  0  0  0  0  0  0  0  0  0  0  0
   18.9503   73.8672    1.3382 O   0  0  0  0  0  0  0  0  0  0  0  0
   20.6457   75.3543    1.0016 O   0  0  0  0  0  0  0  0  0  0  0  0
   20.2306   74.2060    1.0466 C   0  0  0  0  0  0  0  0  0  0  0  0
  1  4  1  0
  1 24  1  0
  1  2  1  6
  1  3  2  0
 25 28  1  0
 25 24  1  0
 25 26  1  6
 25 27  2  0
  6 11  1  0
  6 12  1  0
 29 36  1  0
 29 37  1  0
  9  7  1  6
  7 13  1  0
 10  8  1  1
  8 14  1  0
  4  5  1  0
 36 28  1  1
 33 30  1  1
 30 38  1  0
 34 31  1  6
 31 39  1  0
 35 32  1  1
 32 40  1  0
 41 43  1  0
 15 19  2  0
 42 43  2  0
 16 22  2  0
 12 17  1  6
 17 19  1  0
 17 20  1  0
 18 19  1  0
 18 22  1  0
 18 23  1  0
  9 10  1  0
  9 11  1  0
 10 12  1  0
 11  5  1  6
 33 34  1  0
 33 35  1  0
 34 36  1  0
 35 37  1  0
 37 43  1  1
 20 21  2  0
 21 22  1  0
M  CHG  3   2  -1  26  -1  41  -1
M  END
>  <COMPND>  (134) 
    udp_gluA.pdb 

>  <AUTHOR>  (134) 
    GENERATED BY OPEN BABEL 3.1.1

>  <MASTER>  (134) 
        0    0    0    0    0    0    0    0   56    0   56    0

>  <minimizedAffinity>  (134) 
-6.65561

>  <CNNscore>  (134) 
0.7994645834

>  <CNNaffinity>  (134) 
4.4610648155

>  <CNN_VS>  (134) 
3.5664632320

>  <CNNaffinity_variance>  (134) 
0.1155886278

$$$$
135
     RDKit          3D

 43 45  0  0  0  0  0  0  0  0999 V2000
   21.8584   72.6168   -5.5097 P   0  0  2  0  0  0  0  0  0  0  0  0
   21.2279   74.0760   -5.2063 O   0  0  0  0  0  0  0  0  0  0  0  0
   23.1025   72.6262   -6.3487 O   0  0  0  0  0  0  0  0  0  0  0  0
   20.6142   71.7727   -6.1075 O   0  0  0  0  0  0  0  0  0  0  0  0
   20.1648   72.0667   -7.4174 C   0  0  0  0  0  0  0  0  0  0  0  0
   18.9880   70.0252   -6.9431 O   0  0  0  0  0  0  0  0  0  0  0  0
   18.2264   70.0086   -9.8433 O   0  0  0  0  0  0  0  0  0  0  0  0
   15.9685   70.9516   -8.6397 O   0  0  0  0  0  0  0  0  0  0  0  0
   18.3740   71.1159   -8.9541 C   0  0  1  0  0  0  0  0  0  0  0  0
   17.2044   71.1771   -7.9946 C   0  0  2  0  0  0  0  0  0  0  0  0
   19.5377   70.8158   -8.0193 C   0  0  1  0  0  0  0  0  0  0  0  0
   17.5539   70.0821   -7.0012 C   0  0  2  0  0  0  0  0  0  0  0  0
   17.4885   70.1772  -10.4506 H   0  0  0  0  0  0  0  0  0  0  0  0
   15.7914   71.6757   -9.2612 H   0  0  0  0  0  0  0  0  0  0  0  0
   16.3338   68.1531   -5.3378 O   0  0  0  0  0  0  0  0  0  0  0  0
   15.6329   71.2283   -1.9769 O   0  0  0  0  0  0  0  0  0  0  0  0
   17.0436   70.3515   -5.6867 N   0  0  0  0  0  0  0  0  0  0  0  0
   15.9850   69.6868   -3.6659 N   0  0  0  0  0  0  0  0  0  0  0  0
   16.4489   69.3117   -4.9336 C   0  0  0  0  0  0  0  0  0  0  0  0
   17.1362   71.6323   -5.1558 C   0  0  0  0  0  0  0  0  0  0  0  0
   16.6896   71.9746   -3.9458 C   0  0  0  0  0  0  0  0  0  0  0  0
   16.0540   70.9473   -3.0949 C   0  0  0  0  0  0  0  0  0  0  0  0
   15.5651   68.9803   -3.1237 H   0  0  0  0  0  0  0  0  0  0  0  0
   22.0473   71.9888   -4.0323 O   0  0  0  0  0  0  0  0  0  0  0  0
   23.2678   72.1035   -2.9783 P   0  0  2  0  0  0  0  0  0  0  0  0
   23.8944   73.5620   -3.2953 O   0  0  0  0  0  0  0  0  0  0  0  0
   24.2559   70.9759   -3.0552 O   0  0  0  0  0  0  0  0  0  0  0  0
   22.5534   72.2708   -1.5416 O   0  0  0  0  0  0  0  0  0  0  0  0
   23.4446   70.8706    0.1479 O   0  0  0  0  0  0  0  0  0  0  0  0
   20.0981   72.4148    2.0145 O   0  0  0  0  0  0  0  0  0  0  0  0
   19.9753   71.5607   -0.7765 O   0  0  0  0  0  0  0  0  0  0  0  0
   22.7421   73.4067    2.7046 O   0  0  0  0  0  0  0  0  0  0  0  0
   21.2135   72.4226    1.1236 C   0  0  2  0  0  0  0  0  0  0  0  0
   21.0614   71.2941    0.1033 C   0  0  2  0  0  0  0  0  0  0  0  0
   22.4833   72.2219    1.9538 C   0  0  1  0  0  0  0  0  0  0  0  0
   22.3391   71.1248   -0.7198 C   0  0  1  0  0  0  0  0  0  0  0  0
   23.6901   71.9342    1.0653 C   0  0  1  0  0  0  0  0  0  0  0  0
   19.2795   72.5407    1.5092 H   0  0  0  0  0  0  0  0  0  0  0  0
   19.1613   71.6696   -0.2609 H   0  0  0  0  0  0  0  0  0  0  0  0
   21.9815   73.6011    3.2743 H   0  0  0  0  0  0  0  0  0  0  0  0
   24.7158   70.0851    2.0805 O   0  0  0  0  0  0  0  0  0  0  0  0
   25.7573   72.1018    2.2981 O   0  0  0  0  0  0  0  0  0  0  0  0
   24.8351   71.4204    1.8759 C   0  0  0  0  0  0  0  0  0  0  0  0
  1  4  1  0
  1 24  1  0
  1  2  1  1
  1  3  2  0
 25 28  1  0
 25 24  1  0
 25 26  1  6
 25 27  2  0
  6 11  1  0
  6 12  1  0
 29 36  1  0
 29 37  1  0
  9  7  1  6
  7 13  1  0
 10  8  1  6
  8 14  1  0
  4  5  1  0
 36 28  1  1
 33 30  1  1
 30 38  1  0
 34 31  1  6
 31 39  1  0
 35 32  1  6
 32 40  1  0
 41 43  1  0
 15 19  2  0
 42 43  2  0
 16 22  2  0
 12 17  1  1
 17 19  1  0
 17 20  1  0
 18 19  1  0
 18 22  1  0
 18 23  1  0
  9 10  1  0
  9 11  1  0
 10 12  1  0
 11  5  1  1
 33 34  1  0
 33 35  1  0
 34 36  1  0
 35 37  1  0
 37 43  1  1
 20 21  2  0
 21 22  1  0
M  CHG  3   2  -1  26  -1  41  -1
M  END
>  <COMPND>  (135) 
    udp_gluA.pdb 

>  <AUTHOR>  (135) 
    GENERATED BY OPEN BABEL 3.1.1

>  <MASTER>  (135) 
        0    0    0    0    0    0    0    0   56    0   56    0

>  <minimizedAffinity>  (135) 
-8.06387

>  <CNNscore>  (135) 
0.7465993166

>  <CNNaffinity>  (135) 
4.5527396202

>  <CNN_VS>  (135) 
3.3990721703

>  <CNNaffinity_variance>  (135) 
0.1333071738

$$$$
136
     RDKit          3D

 43 45  0  0  0  0  0  0  0  0999 V2000
   23.4253   73.7376   -4.0534 P   0  0  2  0  0  0  0  0  0  0  0  0
   24.2399   72.3462   -4.1923 O   0  0  0  0  0  0  0  0  0  0  0  0
   24.0847   74.9243   -4.6928 O   0  0  0  0  0  0  0  0  0  0  0  0
   23.1393   73.8635   -2.4658 O   0  0  0  0  0  0  0  0  0  0  0  0
   21.8267   73.6207   -1.9940 C   0  0  0  0  0  0  0  0  0  0  0  0
   22.9438   71.6984   -1.0803 O   0  0  0  0  0  0  0  0  0  0  0  0
   20.2123   70.5164   -0.7152 O   0  0  0  0  0  0  0  0  0  0  0  0
   20.8249   71.3878    1.7951 O   0  0  0  0  0  0  0  0  0  0  0  0
   20.6352   71.8734   -0.5799 C   0  0  1  0  0  0  0  0  0  0  0  0
   21.4222   72.0518    0.7011 C   0  0  2  0  0  0  0  0  0  0  0  0
   21.6909   72.1446   -1.6429 C   0  0  1  0  0  0  0  0  0  0  0  0
   22.7720   71.4640    0.3264 C   0  0  2  0  0  0  0  0  0  0  0  0
   19.5375   70.3194   -0.0463 H   0  0  0  0  0  0  0  0  0  0  0  0
   19.9687   71.7990    1.9945 H   0  0  0  0  0  0  0  0  0  0  0  0
   24.6352   70.0638    1.9215 O   0  0  0  0  0  0  0  0  0  0  0  0
   26.8867   73.9350    3.0118 O   0  0  0  0  0  0  0  0  0  0  0  0
   23.8552   72.0812    1.0383 N   0  0  0  0  0  0  0  0  0  0  0  0
   25.7542   71.9933    2.4638 N   0  0  0  0  0  0  0  0  0  0  0  0
   24.7348   71.2873    1.8116 C   0  0  0  0  0  0  0  0  0  0  0  0
   24.0387   73.4567    0.9652 C   0  0  0  0  0  0  0  0  0  0  0  0
   25.0151   74.1155    1.5924 C   0  0  0  0  0  0  0  0  0  0  0  0
   25.9768   73.3602    2.4220 C   0  0  0  0  0  0  0  0  0  0  0  0
   26.3779   71.4623    3.0100 H   0  0  0  0  0  0  0  0  0  0  0  0
   21.9716   73.3689   -4.6564 O   0  0  0  0  0  0  0  0  0  0  0  0
   21.3584   73.5597   -6.1400 P   0  0  2  0  0  0  0  0  0  0  0  0
   22.4631   72.8548   -7.0903 O   0  0  0  0  0  0  0  0  0  0  0  0
   21.0511   74.9843   -6.5008 O   0  0  0  0  0  0  0  0  0  0  0  0
   20.0872   72.5677   -6.1882 O   0  0  0  0  0  0  0  0  0  0  0  0
   19.7195   70.3735   -5.3762 O   0  0  0  0  0  0  0  0  0  0  0  0
   17.6326   70.3113   -8.9411 O   0  0  0  0  0  0  0  0  0  0  0  0
   20.2578   71.5833   -8.7840 O   0  0  0  0  0  0  0  0  0  0  0  0
   16.2040   70.5125   -6.4173 O   0  0  0  0  0  0  0  0  0  0  0  0
   18.1700   70.8979   -7.7558 C   0  0  2  0  0  0  0  0  0  0  0  0
   19.6932   70.7664   -7.7649 C   0  0  2  0  0  0  0  0  0  0  0  0
   17.5792   70.1591   -6.5528 C   0  0  1  0  0  0  0  0  0  0  0  0
   20.2855   71.1734   -6.4150 C   0  0  1  0  0  0  0  0  0  0  0  0
   18.3063   70.5252   -5.2622 C   0  0  1  0  0  0  0  0  0  0  0  0
   17.9940   70.7647   -9.7190 H   0  0  0  0  0  0  0  0  0  0  0  0
   19.8861   71.3307   -9.6433 H   0  0  0  0  0  0  0  0  0  0  0  0
   15.7298   70.2848   -7.2323 H   0  0  0  0  0  0  0  0  0  0  0  0
   18.8934   69.5992   -3.1887 O   0  0  0  0  0  0  0  0  0  0  0  0
   16.9578   68.8656   -4.1448 O   0  0  0  0  0  0  0  0  0  0  0  0
   17.9540   69.5727   -4.1663 C   0  0  0  0  0  0  0  0  0  0  0  0
  1  4  1  0
  1 24  1  0
  1  2  1  1
  1  3  2  0
 25 28  1  0
 25 24  1  0
 25 26  1  6
 25 27  2  0
  6 11  1  0
  6 12  1  0
 29 36  1  0
 29 37  1  0
  9  7  1  6
  7 13  1  0
 10  8  1  1
  8 14  1  0
  4  5  1  0
 36 28  1  1
 33 30  1  6
 30 38  1  0
 34 31  1  6
 31 39  1  0
 35 32  1  1
 32 40  1  0
 41 43  1  0
 15 19  2  0
 42 43  2  0
 16 22  2  0
 12 17  1  1
 17 19  1  0
 17 20  1  0
 18 19  1  0
 18 22  1  0
 18 23  1  0
  9 10  1  0
  9 11  1  0
 10 12  1  0
 11  5  1  1
 33 34  1  0
 33 35  1  0
 34 36  1  0
 35 37  1  0
 37 43  1  1
 20 21  2  0
 21 22  1  0
M  CHG  3   2  -1  26  -1  41  -1
M  END
>  <COMPND>  (136) 
    udp_gluA.pdb 

>  <AUTHOR>  (136) 
    GENERATED BY OPEN BABEL 3.1.1

>  <MASTER>  (136) 
        0    0    0    0    0    0    0    0   56    0   56    0

>  <minimizedAffinity>  (136) 
-7.78259

>  <CNNscore>  (136) 
0.6992137432

>  <CNNaffinity>  (136) 
4.4822044373

>  <CNN_VS>  (136) 
3.1340188980

>  <CNNaffinity_variance>  (136) 
0.1058456749

$$$$
137
     RDKit          3D

 43 45  0  0  0  0  0  0  0  0999 V2000
   21.9613   72.6331   -5.7862 P   0  0  2  0  0  0  0  0  0  0  0  0
   21.4439   74.1088   -5.3697 O   0  0  0  0  0  0  0  0  0  0  0  0
   23.0971   72.6132   -6.7666 O   0  0  0  0  0  0  0  0  0  0  0  0
   20.6152   71.8673   -6.2547 O   0  0  0  0  0  0  0  0  0  0  0  0
   20.1072   72.1247   -7.5509 C   0  0  0  0  0  0  0  0  0  0  0  0
   18.9979   70.0627   -7.0077 O   0  0  0  0  0  0  0  0  0  0  0  0
   18.1872   69.9549   -9.8926 O   0  0  0  0  0  0  0  0  0  0  0  0
   15.9243   70.8623   -8.6712 O   0  0  0  0  0  0  0  0  0  0  0  0
   18.3182   71.0869   -9.0325 C   0  0  1  0  0  0  0  0  0  0  0  0
   17.1642   71.1380   -8.0538 C   0  0  2  0  0  0  0  0  0  0  0  0
   19.5061   70.8424   -8.1118 C   0  0  1  0  0  0  0  0  0  0  0  0
   17.5620   70.0775   -7.0414 C   0  0  2  0  0  0  0  0  0  0  0  0
   17.4344   70.0879  -10.4903 H   0  0  0  0  0  0  0  0  0  0  0  0
   15.7157   71.5659   -9.3063 H   0  0  0  0  0  0  0  0  0  0  0  0
   16.3276   68.1789   -5.3538 O   0  0  0  0  0  0  0  0  0  0  0  0
   15.7010   71.2882   -2.0096 O   0  0  0  0  0  0  0  0  0  0  0  0
   17.0669   70.3639   -5.7246 N   0  0  0  0  0  0  0  0  0  0  0  0
   16.0157   69.7296   -3.6902 N   0  0  0  0  0  0  0  0  0  0  0  0
   16.4633   69.3385   -4.9590 C   0  0  0  0  0  0  0  0  0  0  0  0
   17.1830   71.6470   -5.2039 C   0  0  0  0  0  0  0  0  0  0  0  0
   16.7518   72.0046   -3.9927 C   0  0  0  0  0  0  0  0  0  0  0  0
   16.1083   70.9929   -3.1291 C   0  0  0  0  0  0  0  0  0  0  0  0
   15.5901   69.0333   -3.1394 H   0  0  0  0  0  0  0  0  0  0  0  0
   22.2911   71.9483   -4.3596 O   0  0  0  0  0  0  0  0  0  0  0  0
   23.5531   72.1237   -3.3645 P   0  0  2  0  0  0  0  0  0  0  0  0
   24.4888   73.1939   -4.1389 O   0  0  0  0  0  0  0  0  0  0  0  0
   24.2442   70.8379   -3.0138 O   0  0  0  0  0  0  0  0  0  0  0  0
   22.9672   72.9354   -2.0995 O   0  0  0  0  0  0  0  0  0  0  0  0
   21.2571   72.0878   -0.6972 O   0  0  0  0  0  0  0  0  0  0  0  0
   20.9584   76.1530   -0.0241 O   0  0  0  0  0  0  0  0  0  0  0  0
   21.3726   75.1261   -2.7275 O   0  0  0  0  0  0  0  0  0  0  0  0
   22.1955   74.4315    1.9652 O   0  0  0  0  0  0  0  0  0  0  0  0
   21.6263   74.9272   -0.3229 C   0  0  2  0  0  0  0  0  0  0  0  0
   21.0413   74.3237   -1.6000 C   0  0  2  0  0  0  0  0  0  0  0  0
   21.4200   73.9761    0.8582 C   0  0  1  0  0  0  0  0  0  0  0  0
   21.5675   72.9057   -1.8260 C   0  0  1  0  0  0  0  0  0  0  0  0
   21.8531   72.5547    0.5110 C   0  0  1  0  0  0  0  0  0  0  0  0
   21.0757   76.7733   -0.7608 H   0  0  0  0  0  0  0  0  0  0  0  0
   21.0419   76.0274   -2.5907 H   0  0  0  0  0  0  0  0  0  0  0  0
   21.9297   75.3353    2.1962 H   0  0  0  0  0  0  0  0  0  0  0  0
   21.5589   70.3082    1.1180 O   0  0  0  0  0  0  0  0  0  0  0  0
   20.8277   71.8879    2.5908 O   0  0  0  0  0  0  0  0  0  0  0  0
   21.3515   71.5836    1.5296 C   0  0  0  0  0  0  0  0  0  0  0  0
  1  4  1  0
  1 24  1  0
  1  2  1  1
  1  3  2  0
 25 28  1  0
 25 24  1  0
 25 26  1  6
 25 27  2  0
  6 11  1  0
  6 12  1  0
 29 36  1  0
 29 37  1  0
  9  7  1  6
  7 13  1  0
 10  8  1  6
  8 14  1  0
  4  5  1  0
 36 28  1  1
 33 30  1  1
 30 38  1  0
 34 31  1  6
 31 39  1  0
 35 32  1  1
 32 40  1  0
 41 43  1  0
 15 19  2  0
 42 43  2  0
 16 22  2  0
 12 17  1  1
 17 19  1  0
 17 20  1  0
 18 19  1  0
 18 22  1  0
 18 23  1  0
  9 10  1  0
  9 11  1  0
 10 12  1  0
 11  5  1  1
 33 34  1  0
 33 35  1  0
 34 36  1  0
 35 37  1  0
 37 43  1  1
 20 21  2  0
 21 22  1  0
M  CHG  3   2  -1  26  -1  41  -1
M  END
>  <COMPND>  (137) 
    udp_gluA.pdb 

>  <AUTHOR>  (137) 
    GENERATED BY OPEN BABEL 3.1.1

>  <MASTER>  (137) 
        0    0    0    0    0    0    0    0   56    0   56    0

>  <minimizedAffinity>  (137) 
-8.00335

>  <CNNscore>  (137) 
0.6903619766

>  <CNNaffinity>  (137) 
4.4405422211

>  <CNN_VS>  (137) 
3.0655815601

>  <CNNaffinity_variance>  (137) 
0.3903658986

$$$$
138
     RDKit          3D

 43 45  0  0  0  0  0  0  0  0999 V2000
   23.6295   72.4194   -3.4102 P   0  0  2  0  0  0  0  0  0  0  0  0
   24.0911   70.8990   -3.1032 O   0  0  0  0  0  0  0  0  0  0  0  0
   24.6618   73.2698   -4.0906 O   0  0  0  0  0  0  0  0  0  0  0  0
   23.1039   72.9622   -1.9794 O   0  0  0  0  0  0  0  0  0  0  0  0
   23.2941   72.1489   -0.8363 C   0  0  0  0  0  0  0  0  0  0  0  0
   23.1599   72.3219    1.5574 O   0  0  0  0  0  0  0  0  0  0  0  0
   21.4217   74.7221    1.1003 O   0  0  0  0  0  0  0  0  0  0  0  0
   23.8357   75.8400    1.6991 O   0  0  0  0  0  0  0  0  0  0  0  0
   22.5532   74.2709    0.3556 C   0  0  1  0  0  0  0  0  0  0  0  0
   23.8296   74.5520    1.1198 C   0  0  2  0  0  0  0  0  0  0  0  0
   22.5240   72.7487    0.3331 C   0  0  1  0  0  0  0  0  0  0  0  0
   23.8259   73.4436    2.1586 C   0  0  2  0  0  0  0  0  0  0  0  0
   21.4187   75.6921    1.1285 H   0  0  0  0  0  0  0  0  0  0  0  0
   23.8382   76.5102    0.9971 H   0  0  0  0  0  0  0  0  0  0  0  0
   25.4918   74.9249    3.8927 O   0  0  0  0  0  0  0  0  0  0  0  0
   28.8928   71.8315    3.5640 O   0  0  0  0  0  0  0  0  0  0  0  0
   25.1514   73.0484    2.5431 N   0  0  0  0  0  0  0  0  0  0  0  0
   27.1845   73.3833    3.7265 N   0  0  0  0  0  0  0  0  0  0  0  0
   25.9049   73.8645    3.4196 C   0  0  0  0  0  0  0  0  0  0  0  0
   25.6911   71.8646    2.0551 C   0  0  0  0  0  0  0  0  0  0  0  0
   26.9123   71.4190    2.3568 C   0  0  0  0  0  0  0  0  0  0  0  0
   27.7650   72.2128    3.2656 C   0  0  0  0  0  0  0  0  0  0  0  0
   27.7288   73.9354    4.3334 H   0  0  0  0  0  0  0  0  0  0  0  0
   22.2616   72.2211   -4.2484 O   0  0  0  0  0  0  0  0  0  0  0  0
   21.7268   72.9418   -5.5931 P   0  0  2  0  0  0  0  0  0  0  0  0
   22.7426   72.4011   -6.7315 O   0  0  0  0  0  0  0  0  0  0  0  0
   21.6437   74.4378   -5.4985 O   0  0  0  0  0  0  0  0  0  0  0  0
   20.3251   72.2126   -5.9184 O   0  0  0  0  0  0  0  0  0  0  0  0
   19.6372   70.0412   -5.2695 O   0  0  0  0  0  0  0  0  0  0  0  0
   17.5383   70.5715   -8.7883 O   0  0  0  0  0  0  0  0  0  0  0  0
   20.3262   71.4204   -8.5846 O   0  0  0  0  0  0  0  0  0  0  0  0
   16.1751   70.7856   -6.2297 O   0  0  0  0  0  0  0  0  0  0  0  0
   18.1667   70.9764   -7.5720 C   0  0  2  0  0  0  0  0  0  0  0  0
   19.6526   70.6197   -7.6203 C   0  0  2  0  0  0  0  0  0  0  0  0
   17.4803   70.2422   -6.4180 C   0  0  1  0  0  0  0  0  0  0  0  0
   20.3095   70.8265   -6.2548 C   0  0  1  0  0  0  0  0  0  0  0  0
   18.2638   70.3931   -5.1173 C   0  0  1  0  0  0  0  0  0  0  0  0
   17.9581   71.0254   -9.5360 H   0  0  0  0  0  0  0  0  0  0  0  0
   19.9144   71.2943   -9.4534 H   0  0  0  0  0  0  0  0  0  0  0  0
   15.6660   70.6959   -7.0504 H   0  0  0  0  0  0  0  0  0  0  0  0
   16.7900   68.6445   -4.5961 O   0  0  0  0  0  0  0  0  0  0  0  0
   18.2133   69.3300   -2.9519 O   0  0  0  0  0  0  0  0  0  0  0  0
   17.7802   69.4211   -4.0909 C   0  0  0  0  0  0  0  0  0  0  0  0
  1  4  1  0
  1 24  1  0
  1  2  1  1
  1  3  2  0
 25 28  1  0
 25 24  1  0
 25 26  1  6
 25 27  2  0
  6 11  1  0
  6 12  1  0
 29 36  1  0
 29 37  1  0
  9  7  1  1
  7 13  1  0
 10  8  1  1
  8 14  1  0
  4  5  1  0
 36 28  1  1
 33 30  1  6
 30 38  1  0
 34 31  1  6
 31 39  1  0
 35 32  1  1
 32 40  1  0
 41 43  1  0
 15 19  2  0
 42 43  2  0
 16 22  2  0
 12 17  1  6
 17 19  1  0
 17 20  1  0
 18 19  1  0
 18 22  1  0
 18 23  1  0
  9 10  1  0
  9 11  1  0
 10 12  1  0
 11  5  1  6
 33 34  1  0
 33 35  1  0
 34 36  1  0
 35 37  1  0
 37 43  1  1
 20 21  2  0
 21 22  1  0
M  CHG  3   2  -1  26  -1  41  -1
M  END
>  <COMPND>  (138) 
    udp_gluA.pdb 

>  <AUTHOR>  (138) 
    GENERATED BY OPEN BABEL 3.1.1

>  <MASTER>  (138) 
        0    0    0    0    0    0    0    0   56    0   56    0

>  <minimizedAffinity>  (138) 
-7.38385

>  <CNNscore>  (138) 
0.6335147023

>  <CNNaffinity>  (138) 
4.3981313705

>  <CNN_VS>  (138) 
2.7862808704

>  <CNNaffinity_variance>  (138) 
0.1839193702

$$$$
139
     RDKit          3D

 43 45  0  0  0  0  0  0  0  0999 V2000
   22.8011   71.6731   -2.5276 P   0  0  2  0  0  0  0  0  0  0  0  0
   22.9671   73.2453   -2.1818 O   0  0  0  0  0  0  0  0  0  0  0  0
   24.0732   70.9679   -2.8969 O   0  0  0  0  0  0  0  0  0  0  0  0
   21.6310   71.6424   -3.6446 O   0  0  0  0  0  0  0  0  0  0  0  0
   21.6906   72.5707   -4.7120 C   0  0  0  0  0  0  0  0  0  0  0  0
   20.8013   70.6255   -5.8088 O   0  0  0  0  0  0  0  0  0  0  0  0
   21.2767   72.0886   -8.3827 O   0  0  0  0  0  0  0  0  0  0  0  0
   18.5987   72.4234   -7.9929 O   0  0  0  0  0  0  0  0  0  0  0  0
   20.8599   72.5997   -7.1164 C   0  0  1  0  0  0  0  0  0  0  0  0
   19.4136   72.2361   -6.8548 C   0  0  2  0  0  0  0  0  0  0  0  0
   21.5866   71.8167   -6.0315 C   0  0  1  0  0  0  0  0  0  0  0  0
   19.5240   70.7764   -6.4484 C   0  0  2  0  0  0  0  0  0  0  0  0
   20.8255   72.5735   -9.0919 H   0  0  0  0  0  0  0  0  0  0  0  0
   18.5601   73.3684   -8.2109 H   0  0  0  0  0  0  0  0  0  0  0  0
   16.9685   69.8540   -7.2199 O   0  0  0  0  0  0  0  0  0  0  0  0
   15.6463   69.2973   -2.8397 O   0  0  0  0  0  0  0  0  0  0  0  0
   18.4927   70.3837   -5.5303 N   0  0  0  0  0  0  0  0  0  0  0  0
   16.3121   69.5786   -5.0375 N   0  0  0  0  0  0  0  0  0  0  0  0
   17.2438   69.9350   -6.0213 C   0  0  0  0  0  0  0  0  0  0  0  0
   18.7234   70.4434   -4.1613 C   0  0  0  0  0  0  0  0  0  0  0  0
   17.8254   70.1001   -3.2357 C   0  0  0  0  0  0  0  0  0  0  0  0
   16.4950   69.6215   -3.6649 C   0  0  0  0  0  0  0  0  0  0  0  0
   15.4345   69.2650   -5.3551 H   0  0  0  0  0  0  0  0  0  0  0  0
   22.0642   71.0882   -1.2132 O   0  0  0  0  0  0  0  0  0  0  0  0
   22.4402   71.2049    0.3549 P   0  0  2  0  0  0  0  0  0  0  0  0
   24.0582   71.2514    0.3447 O   0  0  0  0  0  0  0  0  0  0  0  0
   21.8581   70.1171    1.2103 O   0  0  0  0  0  0  0  0  0  0  0  0
   21.9926   72.6973    0.7731 O   0  0  0  0  0  0  0  0  0  0  0  0
   23.0197   74.4539    1.9849 O   0  0  0  0  0  0  0  0  0  0  0  0
   19.1098   74.7022    3.2960 O   0  0  0  0  0  0  0  0  0  0  0  0
   20.4020   72.1018    2.9757 O   0  0  0  0  0  0  0  0  0  0  0  0
   20.1332   76.6377    1.3834 O   0  0  0  0  0  0  0  0  0  0  0  0
   20.1570   74.4365    2.3628 C   0  0  2  0  0  0  0  0  0  0  0  0
   21.0785   73.3525    2.9227 C   0  0  2  0  0  0  0  0  0  0  0  0
   20.9355   75.7355    2.1430 C   0  0  1  0  0  0  0  0  0  0  0  0
   22.3339   73.2037    2.0622 C   0  0  1  0  0  0  0  0  0  0  0  0
   22.2365   75.4840    1.3861 C   0  0  1  0  0  0  0  0  0  0  0  0
   18.6013   73.8908    3.4514 H   0  0  0  0  0  0  0  0  0  0  0  0
   19.6041   72.1891    3.5199 H   0  0  0  0  0  0  0  0  0  0  0  0
   19.3020   76.8060    1.8541 H   0  0  0  0  0  0  0  0  0  0  0  0
   22.7861   77.5985    0.5325 O   0  0  0  0  0  0  0  0  0  0  0  0
   24.0553   76.8101    2.2550 O   0  0  0  0  0  0  0  0  0  0  0  0
   23.1341   76.6759    1.4635 C   0  0  0  0  0  0  0  0  0  0  0  0
  1  4  1  0
  1 24  1  0
  1  2  1  1
  1  3  2  0
 25 28  1  0
 25 24  1  0
 25 26  1  6
 25 27  2  0
  6 11  1  0
  6 12  1  0
 29 36  1  0
 29 37  1  0
  9  7  1  6
  7 13  1  0
 10  8  1  6
  8 14  1  0
  4  5  1  0
 36 28  1  6
 33 30  1  1
 30 38  1  0
 34 31  1  6
 31 39  1  0
 35 32  1  6
 32 40  1  0
 41 43  1  0
 15 19  2  0
 42 43  2  0
 16 22  2  0
 12 17  1  1
 17 19  1  0
 17 20  1  0
 18 19  1  0
 18 22  1  0
 18 23  1  0
  9 10  1  0
  9 11  1  0
 10 12  1  0
 11  5  1  1
 33 34  1  0
 33 35  1  0
 34 36  1  0
 35 37  1  0
 37 43  1  1
 20 21  2  0
 21 22  1  0
M  CHG  3   2  -1  26  -1  41  -1
M  END
>  <COMPND>  (139) 
    udp_gluA.pdb 

>  <AUTHOR>  (139) 
    GENERATED BY OPEN BABEL 3.1.1

>  <MASTER>  (139) 
        0    0    0    0    0    0    0    0   56    0   56    0

>  <minimizedAffinity>  (139) 
-6.85922

>  <CNNscore>  (139) 
0.6264527440

>  <CNNaffinity>  (139) 
4.2758822441

>  <CNN_VS>  (139) 
2.6786382198

>  <CNNaffinity_variance>  (139) 
0.1683221459

$$$$
140
     RDKit          3D

 43 45  0  0  0  0  0  0  0  0999 V2000
   23.5115   72.0131   -3.2129 P   0  0  2  0  0  0  0  0  0  0  0  0
   24.1870   73.0834   -4.2214 O   0  0  0  0  0  0  0  0  0  0  0  0
   24.3193   70.7714   -2.9730 O   0  0  0  0  0  0  0  0  0  0  0  0
   22.0322   71.7814   -3.8260 O   0  0  0  0  0  0  0  0  0  0  0  0
   21.5953   72.6259   -4.8750 C   0  0  0  0  0  0  0  0  0  0  0  0
   20.7354   70.6167   -5.8757 O   0  0  0  0  0  0  0  0  0  0  0  0
   21.1614   71.9715   -8.5166 O   0  0  0  0  0  0  0  0  0  0  0  0
   18.4805   72.2721   -8.1183 O   0  0  0  0  0  0  0  0  0  0  0  0
   20.7448   72.5309   -7.2708 C   0  0  1  0  0  0  0  0  0  0  0  0
   19.3081   72.1518   -6.9803 C   0  0  2  0  0  0  0  0  0  0  0  0
   21.4954   71.8116   -6.1584 C   0  0  1  0  0  0  0  0  0  0  0  0
   19.4503   70.7142   -6.5100 C   0  0  2  0  0  0  0  0  0  0  0  0
   20.6951   72.4153   -9.2428 H   0  0  0  0  0  0  0  0  0  0  0  0
   18.4218   73.2054   -8.3781 H   0  0  0  0  0  0  0  0  0  0  0  0
   16.8681   69.8147   -7.2171 O   0  0  0  0  0  0  0  0  0  0  0  0
   15.6333   69.3193   -2.8042 O   0  0  0  0  0  0  0  0  0  0  0  0
   18.4343   70.3435   -5.5660 N   0  0  0  0  0  0  0  0  0  0  0  0
   16.2553   69.5698   -5.0186 N   0  0  0  0  0  0  0  0  0  0  0  0
   17.1700   69.9048   -6.0256 C   0  0  0  0  0  0  0  0  0  0  0  0
   18.6948   70.4145   -4.2029 C   0  0  0  0  0  0  0  0  0  0  0  0
   17.8129   70.0917   -3.2549 C   0  0  0  0  0  0  0  0  0  0  0  0
   16.4680   69.6247   -3.6506 C   0  0  0  0  0  0  0  0  0  0  0  0
   15.3675   69.2636   -5.3141 H   0  0  0  0  0  0  0  0  0  0  0  0
   23.2223   72.8944   -1.8890 O   0  0  0  0  0  0  0  0  0  0  0  0
   22.0100   72.8388   -0.8209 P   0  0  2  0  0  0  0  0  0  0  0  0
   21.6617   71.2601   -0.7385 O   0  0  0  0  0  0  0  0  0  0  0  0
   20.8405   73.7127   -1.1707 O   0  0  0  0  0  0  0  0  0  0  0  0
   22.6988   73.1783    0.5979 O   0  0  0  0  0  0  0  0  0  0  0  0
   24.6551   72.4358    1.7073 O   0  0  0  0  0  0  0  0  0  0  0  0
   21.9640   72.6948    4.8313 O   0  0  0  0  0  0  0  0  0  0  0  0
   21.1441   71.5785    2.2591 O   0  0  0  0  0  0  0  0  0  0  0  0
   24.0146   74.7285    4.4993 O   0  0  0  0  0  0  0  0  0  0  0  0
   22.5449   73.0563    3.5783 C   0  0  2  0  0  0  0  0  0  0  0  0
   22.4895   71.8621    2.6252 C   0  0  2  0  0  0  0  0  0  0  0  0
   23.9968   73.4684    3.8314 C   0  0  1  0  0  0  0  0  0  0  0  0
   23.3032   72.1344    1.3592 C   0  0  1  0  0  0  0  0  0  0  0  0
   24.7750   73.5976    2.5252 C   0  0  1  0  0  0  0  0  0  0  0  0
   21.0409   72.4291    4.6953 H   0  0  0  0  0  0  0  0  0  0  0  0
   20.6219   71.4050    3.0577 H   0  0  0  0  0  0  0  0  0  0  0  0
   23.5224   74.6600    5.3324 H   0  0  0  0  0  0  0  0  0  0  0  0
   26.6344   74.9600    2.9588 O   0  0  0  0  0  0  0  0  0  0  0  0
   26.9962   72.7116    2.8454 O   0  0  0  0  0  0  0  0  0  0  0  0
   26.2438   73.6727    2.7881 C   0  0  0  0  0  0  0  0  0  0  0  0
  1  4  1  0
  1 24  1  0
  1  2  1  6
  1  3  2  0
 25 28  1  0
 25 24  1  0
 25 26  1  1
 25 27  2  0
  6 11  1  0
  6 12  1  0
 29 36  1  0
 29 37  1  0
  9  7  1  6
  7 13  1  0
 10  8  1  6
  8 14  1  0
  4  5  1  0
 36 28  1  1
 33 30  1  1
 30 38  1  0
 34 31  1  6
 31 39  1  0
 35 32  1  6
 32 40  1  0
 41 43  1  0
 15 19  2  0
 42 43  2  0
 16 22  2  0
 12 17  1  1
 17 19  1  0
 17 20  1  0
 18 19  1  0
 18 22  1  0
 18 23  1  0
  9 10  1  0
  9 11  1  0
 10 12  1  0
 11  5  1  1
 33 34  1  0
 33 35  1  0
 34 36  1  0
 35 37  1  0
 37 43  1  1
 20 21  2  0
 21 22  1  0
M  CHG  3   2  -1  26  -1  41  -1
M  END
>  <COMPND>  (140) 
    udp_gluA.pdb 

>  <AUTHOR>  (140) 
    GENERATED BY OPEN BABEL 3.1.1

>  <MASTER>  (140) 
        0    0    0    0    0    0    0    0   56    0   56    0

>  <minimizedAffinity>  (140) 
-7.57142

>  <CNNscore>  (140) 
0.6158928871

>  <CNNaffinity>  (140) 
4.3138618469

>  <CNN_VS>  (140) 
2.6568768024

>  <CNNaffinity_variance>  (140) 
0.1097019166

$$$$
141
     RDKit          3D

 43 45  0  0  0  0  0  0  0  0999 V2000
   22.7468   72.2934   -3.9796 P   0  0  2  0  0  0  0  0  0  0  0  0
   23.4332   72.7383   -5.3759 O   0  0  0  0  0  0  0  0  0  0  0  0
   23.4536   71.1891   -3.2497 O   0  0  0  0  0  0  0  0  0  0  0  0
   21.2073   71.9980   -4.3803 O   0  0  0  0  0  0  0  0  0  0  0  0
   20.5375   70.9241   -3.7455 C   0  0  0  0  0  0  0  0  0  0  0  0
   18.6036   71.8356   -4.8441 O   0  0  0  0  0  0  0  0  0  0  0  0
   16.9895   70.5299   -2.6805 O   0  0  0  0  0  0  0  0  0  0  0  0
   16.6902   68.8045   -4.7709 O   0  0  0  0  0  0  0  0  0  0  0  0
   18.1786   70.0700   -3.3233 C   0  0  1  0  0  0  0  0  0  0  0  0
   17.8644   69.5878   -4.7237 C   0  0  2  0  0  0  0  0  0  0  0  0
   19.0639   71.2789   -3.5937 C   0  0  1  0  0  0  0  0  0  0  0  0
   17.7258   70.8958   -5.4839 C   0  0  2  0  0  0  0  0  0  0  0  0
   16.4078   69.7750   -2.4976 H   0  0  0  0  0  0  0  0  0  0  0  0
   16.8293   67.9831   -4.2729 H   0  0  0  0  0  0  0  0  0  0  0  0
   15.9839   70.0537   -7.5414 O   0  0  0  0  0  0  0  0  0  0  0  0
   19.2771   70.4506  -10.7415 O   0  0  0  0  0  0  0  0  0  0  0  0
   18.1019   70.7702   -6.8636 N   0  0  0  0  0  0  0  0  0  0  0  0
   17.6260   70.2512   -9.1331 N   0  0  0  0  0  0  0  0  0  0  0  0
   17.1506   70.3386   -7.8181 C   0  0  0  0  0  0  0  0  0  0  0  0
   19.3987   71.0742   -7.2595 C   0  0  0  0  0  0  0  0  0  0  0  0
   19.8371   70.9861   -8.5168 C   0  0  0  0  0  0  0  0  0  0  0  0
   18.9065   70.5421   -9.5751 C   0  0  0  0  0  0  0  0  0  0  0  0
   16.9825   69.9510   -9.8150 H   0  0  0  0  0  0  0  0  0  0  0  0
   22.6492   73.6853   -3.1635 O   0  0  0  0  0  0  0  0  0  0  0  0
   23.7972   74.6060   -2.4941 P   0  0  2  0  0  0  0  0  0  0  0  0
   22.9843   75.9217   -2.0164 O   0  0  0  0  0  0  0  0  0  0  0  0
   24.9614   74.8926   -3.3977 O   0  0  0  0  0  0  0  0  0  0  0  0
   24.1839   73.8466   -1.1244 O   0  0  0  0  0  0  0  0  0  0  0  0
   22.3507   73.1264    0.1909 O   0  0  0  0  0  0  0  0  0  0  0  0
   25.5172   72.5688    2.7852 O   0  0  0  0  0  0  0  0  0  0  0  0
   25.3649   74.9706    1.1291 O   0  0  0  0  0  0  0  0  0  0  0  0
   24.2983   70.2871    1.4588 O   0  0  0  0  0  0  0  0  0  0  0  0
   24.8678   72.6275    1.5152 C   0  0  2  0  0  0  0  0  0  0  0  0
   24.3075   74.0324    1.2914 C   0  0  2  0  0  0  0  0  0  0  0  0
   23.7365   71.5970    1.5145 C   0  0  1  0  0  0  0  0  0  0  0  0
   23.4111   74.0730    0.0530 C   0  0  1  0  0  0  0  0  0  0  0  0
   22.8139   71.7834    0.3134 C   0  0  1  0  0  0  0  0  0  0  0  0
   26.2401   73.2154    2.8091 H   0  0  0  0  0  0  0  0  0  0  0  0
   25.9378   74.9499    1.9112 H   0  0  0  0  0  0  0  0  0  0  0  0
   24.8878   70.1556    2.2178 H   0  0  0  0  0  0  0  0  0  0  0  0
   20.5734   71.4923   -0.3167 O   0  0  0  0  0  0  0  0  0  0  0  0
   21.4067   70.0632    1.2526 O   0  0  0  0  0  0  0  0  0  0  0  0
   21.5495   71.0074    0.4902 C   0  0  0  0  0  0  0  0  0  0  0  0
  1  4  1  0
  1 24  1  0
  1  2  1  6
  1  3  2  0
 25 28  1  0
 25 24  1  0
 25 26  1  1
 25 27  2  0
  6 11  1  0
  6 12  1  0
 29 36  1  0
 29 37  1  0
  9  7  1  6
  7 13  1  0
 10  8  1  1
  8 14  1  0
  4  5  1  0
 36 28  1  6
 33 30  1  1
 30 38  1  0
 34 31  1  6
 31 39  1  0
 35 32  1  6
 32 40  1  0
 41 43  1  0
 15 19  2  0
 42 43  2  0
 16 22  2  0
 12 17  1  6
 17 19  1  0
 17 20  1  0
 18 19  1  0
 18 22  1  0
 18 23  1  0
  9 10  1  0
  9 11  1  0
 10 12  1  0
 11  5  1  6
 33 34  1  0
 33 35  1  0
 34 36  1  0
 35 37  1  0
 37 43  1  1
 20 21  2  0
 21 22  1  0
M  CHG  3   2  -1  26  -1  41  -1
M  END
>  <COMPND>  (141) 
    udp_gluA.pdb 

>  <AUTHOR>  (141) 
    GENERATED BY OPEN BABEL 3.1.1

>  <MASTER>  (141) 
        0    0    0    0    0    0    0    0   56    0   56    0

>  <minimizedAffinity>  (141) 
-7.76496

>  <CNNscore>  (141) 
0.9272980690

>  <CNNaffinity>  (141) 
4.8334221840

>  <CNN_VS>  (141) 
4.4820232391

>  <CNNaffinity_variance>  (141) 
0.0547422953

$$$$
142
     RDKit          3D

 43 45  0  0  0  0  0  0  0  0999 V2000
   21.2853   71.5422   -2.8511 P   0  0  2  0  0  0  0  0  0  0  0  0
   21.2222   70.1241   -3.6283 O   0  0  0  0  0  0  0  0  0  0  0  0
   22.2321   71.5855   -1.6877 O   0  0  0  0  0  0  0  0  0  0  0  0
   19.7374   71.8673   -2.5098 O   0  0  0  0  0  0  0  0  0  0  0  0
   18.9615   72.5520   -3.4760 C   0  0  0  0  0  0  0  0  0  0  0  0
   17.0798   72.0064   -4.8686 O   0  0  0  0  0  0  0  0  0  0  0  0
   16.2186   70.1656   -2.6637 O   0  0  0  0  0  0  0  0  0  0  0  0
   17.3516   68.4549   -4.4597 O   0  0  0  0  0  0  0  0  0  0  0  0
   17.5357   70.4754   -3.1195 C   0  0  1  0  0  0  0  0  0  0  0  0
   17.8065   69.7918   -4.4430 C   0  0  2  0  0  0  0  0  0  0  0  0
   17.5639   71.9469   -3.5094 C   0  0  1  0  0  0  0  0  0  0  0  0
   17.0500   70.6790   -5.4169 C   0  0  2  0  0  0  0  0  0  0  0  0
   16.1759   69.2303   -2.4088 H   0  0  0  0  0  0  0  0  0  0  0  0
   17.8643   67.9310   -3.8235 H   0  0  0  0  0  0  0  0  0  0  0  0
   15.6453   70.2390   -7.8273 O   0  0  0  0  0  0  0  0  0  0  0  0
   19.4579   70.7783  -10.3605 O   0  0  0  0  0  0  0  0  0  0  0  0
   17.6509   70.6988   -6.7205 N   0  0  0  0  0  0  0  0  0  0  0  0
   17.5458   70.5070   -9.0866 N   0  0  0  0  0  0  0  0  0  0  0  0
   16.8562   70.4653   -7.8677 C   0  0  0  0  0  0  0  0  0  0  0  0
   19.0113   70.9488   -6.8534 C   0  0  0  0  0  0  0  0  0  0  0  0
   19.6545   70.9855   -8.0221 C   0  0  0  0  0  0  0  0  0  0  0  0
   18.8973   70.7510   -9.2691 C   0  0  0  0  0  0  0  0  0  0  0  0
   17.0139   70.3454   -9.8992 H   0  0  0  0  0  0  0  0  0  0  0  0
   21.6242   72.5898   -4.0345 O   0  0  0  0  0  0  0  0  0  0  0  0
   23.0243   72.9665   -4.7497 P   0  0  2  0  0  0  0  0  0  0  0  0
   22.8801   72.3014   -6.2184 O   0  0  0  0  0  0  0  0  0  0  0  0
   24.2420   72.5278   -3.9891 O   0  0  0  0  0  0  0  0  0  0  0  0
   22.9353   74.5558   -5.0120 O   0  0  0  0  0  0  0  0  0  0  0  0
   21.4621   76.2277   -4.2099 O   0  0  0  0  0  0  0  0  0  0  0  0
   22.1510   77.5004   -8.0795 O   0  0  0  0  0  0  0  0  0  0  0  0
   21.7125   74.6693   -7.5076 O   0  0  0  0  0  0  0  0  0  0  0  0
   23.4431   78.8450   -5.8493 O   0  0  0  0  0  0  0  0  0  0  0  0
   22.4710   76.8741   -6.8371 C   0  0  2  0  0  0  0  0  0  0  0  0
   21.4970   75.7245   -6.5777 C   0  0  2  0  0  0  0  0  0  0  0  0
   22.3570   77.9278   -5.7332 C   0  0  1  0  0  0  0  0  0  0  0  0
   21.6604   75.1788   -5.1584 C   0  0  1  0  0  0  0  0  0  0  0  0
   22.4031   77.2901   -4.3476 C   0  0  1  0  0  0  0  0  0  0  0  0
   22.2167   76.8498   -8.7961 H   0  0  0  0  0  0  0  0  0  0  0  0
   21.6107   75.0086   -8.4103 H   0  0  0  0  0  0  0  0  0  0  0  0
   23.4254   79.2577   -6.7269 H   0  0  0  0  0  0  0  0  0  0  0  0
   22.9906   79.0786   -2.9484 O   0  0  0  0  0  0  0  0  0  0  0  0
   20.8426   78.3238   -2.8252 O   0  0  0  0  0  0  0  0  0  0  0  0
   21.9663   78.2629   -3.3011 C   0  0  0  0  0  0  0  0  0  0  0  0
  1  4  1  0
  1 24  1  0
  1  2  1  6
  1  3  2  0
 25 28  1  0
 25 24  1  0
 25 26  1  6
 25 27  2  0
  6 11  1  0
  6 12  1  0
 29 36  1  0
 29 37  1  0
  9  7  1  6
  7 13  1  0
 10  8  1  1
  8 14  1  0
  4  5  1  0
 36 28  1  6
 33 30  1  6
 30 38  1  0
 34 31  1  6
 31 39  1  0
 35 32  1  1
 32 40  1  0
 41 43  1  0
 15 19  2  0
 42 43  2  0
 16 22  2  0
 12 17  1  6
 17 19  1  0
 17 20  1  0
 18 19  1  0
 18 22  1  0
 18 23  1  0
  9 10  1  0
  9 11  1  0
 10 12  1  0
 11  5  1  6
 33 34  1  0
 33 35  1  0
 34 36  1  0
 35 37  1  0
 37 43  1  1
 20 21  2  0
 21 22  1  0
M  CHG  3   2  -1  26  -1  41  -1
M  END
>  <COMPND>  (142) 
    udp_gluA.pdb 

>  <AUTHOR>  (142) 
    GENERATED BY OPEN BABEL 3.1.1

>  <MASTER>  (142) 
        0    0    0    0    0    0    0    0   56    0   56    0

>  <minimizedAffinity>  (142) 
-6.18279

>  <CNNscore>  (142) 
0.9141715169

>  <CNNaffinity>  (142) 
4.7329568863

>  <CNN_VS>  (142) 
4.3267345428

>  <CNNaffinity_variance>  (142) 
0.1408315450

$$$$
143
     RDKit          3D

 43 45  0  0  0  0  0  0  0  0999 V2000
   22.9491   71.4983   -2.2371 P   0  0  2  0  0  0  0  0  0  0  0  0
   22.6349   73.0762   -2.4113 O   0  0  0  0  0  0  0  0  0  0  0  0
   24.2228   71.0313   -2.8785 O   0  0  0  0  0  0  0  0  0  0  0  0
   21.5968   70.7737   -2.7512 O   0  0  0  0  0  0  0  0  0  0  0  0
   20.9857   71.2464   -3.9376 C   0  0  0  0  0  0  0  0  0  0  0  0
   18.9056   71.9910   -4.8845 O   0  0  0  0  0  0  0  0  0  0  0  0
   17.5838   70.7114   -2.5166 O   0  0  0  0  0  0  0  0  0  0  0  0
   17.1935   68.8662   -4.4862 O   0  0  0  0  0  0  0  0  0  0  0  0
   18.7326   70.2856   -3.2497 C   0  0  1  0  0  0  0  0  0  0  0  0
   18.3177   69.7149   -4.5893 C   0  0  2  0  0  0  0  0  0  0  0  0
   19.5142   71.5261   -3.6602 C   0  0  1  0  0  0  0  0  0  0  0  0
   18.0296   70.9721   -5.3921 C   0  0  2  0  0  0  0  0  0  0  0  0
   17.0684   69.9358   -2.2435 H   0  0  0  0  0  0  0  0  0  0  0  0
   17.4280   68.0807   -3.9666 H   0  0  0  0  0  0  0  0  0  0  0  0
   16.1408   69.9710   -7.2378 O   0  0  0  0  0  0  0  0  0  0  0  0
   19.1040   70.3401  -10.7487 O   0  0  0  0  0  0  0  0  0  0  0  0
   18.2811   70.7963   -6.7945 N   0  0  0  0  0  0  0  0  0  0  0  0
   17.6188   70.1549   -8.9845 N   0  0  0  0  0  0  0  0  0  0  0  0
   17.2640   70.2858   -7.6354 C   0  0  0  0  0  0  0  0  0  0  0  0
   19.5220   71.1294   -7.3237 C   0  0  0  0  0  0  0  0  0  0  0  0
   19.8453   70.9991   -8.6118 C   0  0  0  0  0  0  0  0  0  0  0  0
   18.8397   70.4720   -9.5575 C   0  0  0  0  0  0  0  0  0  0  0  0
   16.9277   69.7995   -9.5891 H   0  0  0  0  0  0  0  0  0  0  0  0
   22.8863   71.2904   -0.6353 O   0  0  0  0  0  0  0  0  0  0  0  0
   21.6730   71.4907    0.4142 P   0  0  2  0  0  0  0  0  0  0  0  0
   21.4987   70.0182    1.0634 O   0  0  0  0  0  0  0  0  0  0  0  0
   20.4196   72.0511   -0.1932 O   0  0  0  0  0  0  0  0  0  0  0  0
   22.3010   72.3866    1.5997 O   0  0  0  0  0  0  0  0  0  0  0  0
   24.1709   71.4411    2.7035 O   0  0  0  0  0  0  0  0  0  0  0  0
   23.2599   74.6264    5.1716 O   0  0  0  0  0  0  0  0  0  0  0  0
   21.1341   72.9604    4.0584 O   0  0  0  0  0  0  0  0  0  0  0  0
   25.5392   74.7789    3.3737 O   0  0  0  0  0  0  0  0  0  0  0  0
   23.3570   73.9241    3.9326 C   0  0  2  0  0  0  0  0  0  0  0  0
   22.5207   72.6461    4.0018 C   0  0  2  0  0  0  0  0  0  0  0  0
   24.8302   73.5840    3.6959 C   0  0  1  0  0  0  0  0  0  0  0  0
   22.7804   71.7558    2.7858 C   0  0  1  0  0  0  0  0  0  0  0  0
   24.9956   72.5937    2.5468 C   0  0  1  0  0  0  0  0  0  0  0  0
   22.3323   74.8531    5.3432 H   0  0  0  0  0  0  0  0  0  0  0  0
   20.9621   73.5254    4.8275 H   0  0  0  0  0  0  0  0  0  0  0  0
   25.4418   75.4178    4.0970 H   0  0  0  0  0  0  0  0  0  0  0  0
   26.4130   70.8789    1.8038 O   0  0  0  0  0  0  0  0  0  0  0  0
   27.3420   72.5069    3.1021 O   0  0  0  0  0  0  0  0  0  0  0  0
   26.3752   72.0201    2.5353 C   0  0  0  0  0  0  0  0  0  0  0  0
  1  4  1  0
  1 24  1  0
  1  2  1  1
  1  3  2  0
 25 28  1  0
 25 24  1  0
 25 26  1  1
 25 27  2  0
  6 11  1  0
  6 12  1  0
 29 36  1  0
 29 37  1  0
  9  7  1  1
  7 13  1  0
 10  8  1  1
  8 14  1  0
  4  5  1  0
 36 28  1  6
 33 30  1  1
 30 38  1  0
 34 31  1  6
 31 39  1  0
 35 32  1  6
 32 40  1  0
 41 43  1  0
 15 19  2  0
 42 43  2  0
 16 22  2  0
 12 17  1  6
 17 19  1  0
 17 20  1  0
 18 19  1  0
 18 22  1  0
 18 23  1  0
  9 10  1  0
  9 11  1  0
 10 12  1  0
 11  5  1  6
 33 34  1  0
 33 35  1  0
 34 36  1  0
 35 37  1  0
 37 43  1  1
 20 21  2  0
 21 22  1  0
M  CHG  3   2  -1  26  -1  41  -1
M  END
>  <COMPND>  (143) 
    udp_gluA.pdb 

>  <AUTHOR>  (143) 
    GENERATED BY OPEN BABEL 3.1.1

>  <MASTER>  (143) 
        0    0    0    0    0    0    0    0   56    0   56    0

>  <minimizedAffinity>  (143) 
-8.19486

>  <CNNscore>  (143) 
0.9123142362

>  <CNNaffinity>  (143) 
4.6709280014

>  <CNN_VS>  (143) 
4.2613539696

>  <CNNaffinity_variance>  (143) 
0.0849446058

$$$$
144
     RDKit          3D

 43 45  0  0  0  0  0  0  0  0999 V2000
   21.4084   71.3794   -2.9022 P   0  0  2  0  0  0  0  0  0  0  0  0
   21.0751   70.0930   -3.8258 O   0  0  0  0  0  0  0  0  0  0  0  0
   22.2831   71.0981   -1.7158 O   0  0  0  0  0  0  0  0  0  0  0  0
   19.9543   72.0065   -2.5701 O   0  0  0  0  0  0  0  0  0  0  0  0
   19.2426   72.6516   -3.6101 C   0  0  0  0  0  0  0  0  0  0  0  0
   17.2844   72.2412   -4.9423 O   0  0  0  0  0  0  0  0  0  0  0  0
   16.3236   70.5363   -2.6704 O   0  0  0  0  0  0  0  0  0  0  0  0
   17.2548   68.6903   -4.4483 O   0  0  0  0  0  0  0  0  0  0  0  0
   17.6503   70.7178   -3.1658 C   0  0  1  0  0  0  0  0  0  0  0  0
   17.8253   69.9818   -4.4773 C   0  0  2  0  0  0  0  0  0  0  0  0
   17.7970   72.1715   -3.5941 C   0  0  1  0  0  0  0  0  0  0  0  0
   17.1241   70.9091   -5.4552 C   0  0  2  0  0  0  0  0  0  0  0  0
   16.2058   69.6147   -2.3905 H   0  0  0  0  0  0  0  0  0  0  0  0
   17.7362   68.1384   -3.8113 H   0  0  0  0  0  0  0  0  0  0  0  0
   15.6896   70.1676   -7.7724 O   0  0  0  0  0  0  0  0  0  0  0  0
   19.3972   70.6975  -10.4588 O   0  0  0  0  0  0  0  0  0  0  0  0
   17.6899   70.8449   -6.7730 N   0  0  0  0  0  0  0  0  0  0  0  0
   17.5378   70.4312   -9.1080 N   0  0  0  0  0  0  0  0  0  0  0  0
   16.8828   70.4605   -7.8698 C   0  0  0  0  0  0  0  0  0  0  0  0
   19.0285   71.1618   -6.9693 C   0  0  0  0  0  0  0  0  0  0  0  0
   19.6389   71.1294   -8.1555 C   0  0  0  0  0  0  0  0  0  0  0  0
   18.8667   70.7372   -9.3528 C   0  0  0  0  0  0  0  0  0  0  0  0
   16.9969   70.1646   -9.8862 H   0  0  0  0  0  0  0  0  0  0  0  0
   22.0263   72.4347   -3.9593 O   0  0  0  0  0  0  0  0  0  0  0  0
   23.1894   73.5453   -3.7937 P   0  0  2  0  0  0  0  0  0  0  0  0
   24.5498   72.6838   -3.9598 O   0  0  0  0  0  0  0  0  0  0  0  0
   23.1096   74.3354   -2.5196 O   0  0  0  0  0  0  0  0  0  0  0  0
   23.1026   74.4325   -5.1382 O   0  0  0  0  0  0  0  0  0  0  0  0
   21.4651   75.4856   -6.4868 O   0  0  0  0  0  0  0  0  0  0  0  0
   23.7117   73.4729   -9.3099 O   0  0  0  0  0  0  0  0  0  0  0  0
   23.0178   72.1886   -6.7794 O   0  0  0  0  0  0  0  0  0  0  0  0
   23.9995   76.3486   -8.9957 O   0  0  0  0  0  0  0  0  0  0  0  0
   23.4790   74.1773   -8.0902 C   0  0  2  0  0  0  0  0  0  0  0  0
   22.4608   73.4128   -7.2439 C   0  0  2  0  0  0  0  0  0  0  0  0
   22.9428   75.5669   -8.4416 C   0  0  1  0  0  0  0  0  0  0  0  0
   22.0143   74.2450   -6.0410 C   0  0  1  0  0  0  0  0  0  0  0  0
   22.4014   76.2834   -7.2079 C   0  0  1  0  0  0  0  0  0  0  0  0
   24.0529   72.5866   -9.1116 H   0  0  0  0  0  0  0  0  0  0  0  0
   23.3035   71.6556   -7.5375 H   0  0  0  0  0  0  0  0  0  0  0  0
   24.3530   75.9035   -9.7817 H   0  0  0  0  0  0  0  0  0  0  0  0
   20.3497   77.4108   -7.0628 O   0  0  0  0  0  0  0  0  0  0  0  0
   21.9906   78.3929   -8.3046 O   0  0  0  0  0  0  0  0  0  0  0  0
   21.5931   77.4773   -7.5999 C   0  0  0  0  0  0  0  0  0  0  0  0
  1  4  1  0
  1 24  1  0
  1  2  1  6
  1  3  2  0
 25 28  1  0
 25 24  1  0
 25 26  1  1
 25 27  2  0
  6 11  1  0
  6 12  1  0
 29 36  1  0
 29 37  1  0
  9  7  1  6
  7 13  1  0
 10  8  1  1
  8 14  1  0
  4  5  1  0
 36 28  1  1
 33 30  1  6
 30 38  1  0
 34 31  1  1
 31 39  1  0
 35 32  1  1
 32 40  1  0
 41 43  1  0
 15 19  2  0
 42 43  2  0
 16 22  2  0
 12 17  1  6
 17 19  1  0
 17 20  1  0
 18 19  1  0
 18 22  1  0
 18 23  1  0
  9 10  1  0
  9 11  1  0
 10 12  1  0
 11  5  1  6
 33 34  1  0
 33 35  1  0
 34 36  1  0
 35 37  1  0
 37 43  1  6
 20 21  2  0
 21 22  1  0
M  CHG  3   2  -1  26  -1  41  -1
M  END
>  <COMPND>  (144) 
    udp_gluA.pdb 

>  <AUTHOR>  (144) 
    GENERATED BY OPEN BABEL 3.1.1

>  <MASTER>  (144) 
        0    0    0    0    0    0    0    0   56    0   56    0

>  <minimizedAffinity>  (144) 
-6.98911

>  <CNNscore>  (144) 
0.8885383010

>  <CNNaffinity>  (144) 
4.7195115089

>  <CNN_VS>  (144) 
4.1934666634

>  <CNNaffinity_variance>  (144) 
0.1513763368

$$$$
145
     RDKit          3D

 43 45  0  0  0  0  0  0  0  0999 V2000
   22.1686   73.2073   -6.2665 P   0  0  2  0  0  0  0  0  0  0  0  0
   23.4307   72.4983   -5.5432 O   0  0  0  0  0  0  0  0  0  0  0  0
   21.3791   74.1383   -5.3937 O   0  0  0  0  0  0  0  0  0  0  0  0
   21.3417   71.9715   -6.9043 O   0  0  0  0  0  0  0  0  0  0  0  0
   20.1181   72.2446   -7.5622 C   0  0  0  0  0  0  0  0  0  0  0  0
   19.1194   70.1143   -7.0699 O   0  0  0  0  0  0  0  0  0  0  0  0
   18.2788   70.0525   -9.9475 O   0  0  0  0  0  0  0  0  0  0  0  0
   15.9891   70.8086   -8.6740 O   0  0  0  0  0  0  0  0  0  0  0  0
   18.3643   71.1634   -9.0548 C   0  0  1  0  0  0  0  0  0  0  0  0
   17.2215   71.1274   -8.0623 C   0  0  2  0  0  0  0  0  0  0  0  0
   19.5743   70.9512   -8.1553 C   0  0  1  0  0  0  0  0  0  0  0  0
   17.6842   70.0583   -7.0872 C   0  0  2  0  0  0  0  0  0  0  0  0
   17.5128   70.1656  -10.5325 H   0  0  0  0  0  0  0  0  0  0  0  0
   15.7380   71.5197   -9.2849 H   0  0  0  0  0  0  0  0  0  0  0  0
   16.2195   68.1622   -5.5919 O   0  0  0  0  0  0  0  0  0  0  0  0
   15.8468   71.0175   -1.9929 O   0  0  0  0  0  0  0  0  0  0  0  0
   17.1922   70.2800   -5.7569 N   0  0  0  0  0  0  0  0  0  0  0  0
   16.0344   69.5865   -3.8012 N   0  0  0  0  0  0  0  0  0  0  0  0
   16.4671   69.2620   -5.0937 C   0  0  0  0  0  0  0  0  0  0  0  0
   17.4304   71.4932   -5.1225 C   0  0  0  0  0  0  0  0  0  0  0  0
   17.0117   71.7879   -3.8902 C   0  0  0  0  0  0  0  0  0  0  0  0
   16.2462   70.7791   -3.1286 C   0  0  0  0  0  0  0  0  0  0  0  0
   15.5257   68.8942   -3.3203 H   0  0  0  0  0  0  0  0  0  0  0  0
   22.8376   73.9043   -7.5624 O   0  0  0  0  0  0  0  0  0  0  0  0
   23.1327   75.4579   -7.8985 P   0  0  2  0  0  0  0  0  0  0  0  0
   24.2738   75.8587   -6.8226 O   0  0  0  0  0  0  0  0  0  0  0  0
   21.9160   76.3369   -7.8659 O   0  0  0  0  0  0  0  0  0  0  0  0
   23.9014   75.4311   -9.3165 O   0  0  0  0  0  0  0  0  0  0  0  0
   24.7495   73.6328  -10.6033 O   0  0  0  0  0  0  0  0  0  0  0  0
   27.5188   76.5993  -11.3768 O   0  0  0  0  0  0  0  0  0  0  0  0
   26.4957   76.1978   -8.6701 O   0  0  0  0  0  0  0  0  0  0  0  0
   25.5269   75.9051  -13.3772 O   0  0  0  0  0  0  0  0  0  0  0  0
   26.2283   76.0671  -11.0779 C   0  0  2  0  0  0  0  0  0  0  0  0
   26.2840   75.3022   -9.7553 C   0  0  2  0  0  0  0  0  0  0  0  0
   25.8277   75.1292  -12.2187 C   0  0  1  0  0  0  0  0  0  0  0  0
   24.9872   74.5277   -9.5161 C   0  0  1  0  0  0  0  0  0  0  0  0
   24.5989   74.3012  -11.8538 C   0  0  1  0  0  0  0  0  0  0  0  0
   27.7944   77.1985  -10.6653 H   0  0  0  0  0  0  0  0  0  0  0  0
   27.3169   76.6928   -8.8154 H   0  0  0  0  0  0  0  0  0  0  0  0
   26.3008   76.4370  -13.6200 H   0  0  0  0  0  0  0  0  0  0  0  0
   23.9296   73.6287  -13.9988 O   0  0  0  0  0  0  0  0  0  0  0  0
   24.6640   72.0014  -12.5805 O   0  0  0  0  0  0  0  0  0  0  0  0
   24.4138   73.1739  -12.8167 C   0  0  0  0  0  0  0  0  0  0  0  0
  1  4  1  0
  1 24  1  0
  1  2  1  1
  1  3  2  0
 25 28  1  0
 25 24  1  0
 25 26  1  1
 25 27  2  0
  6 11  1  0
  6 12  1  0
 29 36  1  0
 29 37  1  0
  9  7  1  6
  7 13  1  0
 10  8  1  6
  8 14  1  0
  4  5  1  0
 36 28  1  6
 33 30  1  6
 30 38  1  0
 34 31  1  1
 31 39  1  0
 35 32  1  6
 32 40  1  0
 41 43  1  0
 15 19  2  0
 42 43  2  0
 16 22  2  0
 12 17  1  1
 17 19  1  0
 17 20  1  0
 18 19  1  0
 18 22  1  0
 18 23  1  0
  9 10  1  0
  9 11  1  0
 10 12  1  0
 11  5  1  1
 33 34  1  0
 33 35  1  0
 34 36  1  0
 35 37  1  0
 37 43  1  6
 20 21  2  0
 21 22  1  0
M  CHG  3   2  -1  26  -1  41  -1
M  END
>  <COMPND>  (145) 
    udp_gluA.pdb 

>  <AUTHOR>  (145) 
    GENERATED BY OPEN BABEL 3.1.1

>  <MASTER>  (145) 
        0    0    0    0    0    0    0    0   56    0   56    0

>  <minimizedAffinity>  (145) 
-7.44688

>  <CNNscore>  (145) 
0.8490341306

>  <CNNaffinity>  (145) 
4.8577461243

>  <CNN_VS>  (145) 
4.1243920326

>  <CNNaffinity_variance>  (145) 
0.4301405549

$$$$
146
     RDKit          3D

 43 45  0  0  0  0  0  0  0  0999 V2000
   22.8611   72.3294   -3.8591 P   0  0  2  0  0  0  0  0  0  0  0  0
   23.3365   73.3710   -5.0028 O   0  0  0  0  0  0  0  0  0  0  0  0
   23.9422   71.4343   -3.3284 O   0  0  0  0  0  0  0  0  0  0  0  0
   21.5897   71.5791   -4.5213 O   0  0  0  0  0  0  0  0  0  0  0  0
   20.9093   70.6001   -3.7576 C   0  0  0  0  0  0  0  0  0  0  0  0
   18.9929   71.6991   -4.7050 O   0  0  0  0  0  0  0  0  0  0  0  0
   17.4180   70.4799   -2.4633 O   0  0  0  0  0  0  0  0  0  0  0  0
   16.8351   68.8394   -4.5621 O   0  0  0  0  0  0  0  0  0  0  0  0
   18.5185   69.9378   -3.1939 C   0  0  1  0  0  0  0  0  0  0  0  0
   18.0728   69.5194   -4.5790 C   0  0  2  0  0  0  0  0  0  0  0  0
   19.4847   71.0740   -3.4997 C   0  0  1  0  0  0  0  0  0  0  0  0
   17.9975   70.8531   -5.3024 C   0  0  2  0  0  0  0  0  0  0  0  0
   16.7869   69.7724   -2.2564 H   0  0  0  0  0  0  0  0  0  0  0  0
   16.9355   67.9969   -4.0909 H   0  0  0  0  0  0  0  0  0  0  0  0
   16.0944   70.0624   -7.2335 O   0  0  0  0  0  0  0  0  0  0  0  0
   19.1547   70.4195  -10.6615 O   0  0  0  0  0  0  0  0  0  0  0  0
   18.2700   70.7312   -6.7065 N   0  0  0  0  0  0  0  0  0  0  0  0
   17.6207   70.2400   -8.9389 N   0  0  0  0  0  0  0  0  0  0  0  0
   17.2435   70.3263   -7.5922 C   0  0  0  0  0  0  0  0  0  0  0  0
   19.5408   71.0125   -7.1934 C   0  0  0  0  0  0  0  0  0  0  0  0
   19.8851   70.9259   -8.4797 C   0  0  0  0  0  0  0  0  0  0  0  0
   18.8714   70.5089   -9.4707 C   0  0  0  0  0  0  0  0  0  0  0  0
   16.9234   69.9581   -9.5743 H   0  0  0  0  0  0  0  0  0  0  0  0
   22.1798   73.2912   -2.7530 O   0  0  0  0  0  0  0  0  0  0  0  0
   22.8372   74.3003   -1.6744 P   0  0  2  0  0  0  0  0  0  0  0  0
   21.8904   75.6100   -1.7683 O   0  0  0  0  0  0  0  0  0  0  0  0
   24.2963   74.5747   -1.8975 O   0  0  0  0  0  0  0  0  0  0  0  0
   22.4901   73.6490   -0.2399 O   0  0  0  0  0  0  0  0  0  0  0  0
   23.1949   71.4497    0.2850 O   0  0  0  0  0  0  0  0  0  0  0  0
   20.2261   72.0729    3.0895 O   0  0  0  0  0  0  0  0  0  0  0  0
   19.8592   72.9457    0.3258 O   0  0  0  0  0  0  0  0  0  0  0  0
   23.0226   72.1866    3.8751 O   0  0  0  0  0  0  0  0  0  0  0  0
   21.2934   72.4442    2.2173 C   0  0  2  0  0  0  0  0  0  0  0  0
   20.9166   72.1060    0.7746 C   0  0  2  0  0  0  0  0  0  0  0  0
   22.5411   71.6645    2.6382 C   0  0  1  0  0  0  0  0  0  0  0  0
   22.1167   72.2747   -0.1582 C   0  0  1  0  0  0  0  0  0  0  0  0
   23.6490   71.7809    1.5954 C   0  0  1  0  0  0  0  0  0  0  0  0
   19.4222   72.5560    2.8410 H   0  0  0  0  0  0  0  0  0  0  0  0
   19.0945   72.8440    0.9134 H   0  0  0  0  0  0  0  0  0  0  0  0
   22.3269   72.1185    4.5476 H   0  0  0  0  0  0  0  0  0  0  0  0
   25.6320   70.7810    0.8405 O   0  0  0  0  0  0  0  0  0  0  0  0
   24.7768   70.0327    2.8174 O   0  0  0  0  0  0  0  0  0  0  0  0
   24.7205   70.7700    1.8446 C   0  0  0  0  0  0  0  0  0  0  0  0
  1  4  1  0
  1 24  1  0
  1  2  1  6
  1  3  2  0
 25 28  1  0
 25 24  1  0
 25 26  1  1
 25 27  2  0
  6 11  1  0
  6 12  1  0
 29 36  1  0
 29 37  1  0
  9  7  1  1
  7 13  1  0
 10  8  1  1
  8 14  1  0
  4  5  1  0
 36 28  1  1
 33 30  1  1
 30 38  1  0
 34 31  1  6
 31 39  1  0
 35 32  1  1
 32 40  1  0
 41 43  1  0
 15 19  2  0
 42 43  2  0
 16 22  2  0
 12 17  1  6
 17 19  1  0
 17 20  1  0
 18 19  1  0
 18 22  1  0
 18 23  1  0
  9 10  1  0
  9 11  1  0
 10 12  1  0
 11  5  1  6
 33 34  1  0
 33 35  1  0
 34 36  1  0
 35 37  1  0
 37 43  1  1
 20 21  2  0
 21 22  1  0
M  CHG  3   2  -1  26  -1  41  -1
M  END
>  <COMPND>  (146) 
    udp_gluA.pdb 

>  <AUTHOR>  (146) 
    GENERATED BY OPEN BABEL 3.1.1

>  <MASTER>  (146) 
        0    0    0    0    0    0    0    0   56    0   56    0

>  <minimizedAffinity>  (146) 
-8.09892

>  <CNNscore>  (146) 
0.8320518136

>  <CNNaffinity>  (146) 
4.6582860947

>  <CNN_VS>  (146) 
3.8759353161

>  <CNNaffinity_variance>  (146) 
0.0404268801

$$$$
147
     RDKit          3D

 43 45  0  0  0  0  0  0  0  0999 V2000
   22.9814   72.7245   -3.6907 P   0  0  2  0  0  0  0  0  0  0  0  0
   22.2960   71.2672   -3.5310 O   0  0  0  0  0  0  0  0  0  0  0  0
   24.3970   72.7077   -4.1882 O   0  0  0  0  0  0  0  0  0  0  0  0
   22.7515   73.4221   -2.2491 O   0  0  0  0  0  0  0  0  0  0  0  0
   21.8056   74.4707   -2.1485 C   0  0  0  0  0  0  0  0  0  0  0  0
   21.0166   72.7628   -0.6524 O   0  0  0  0  0  0  0  0  0  0  0  0
   18.9611   74.7551    0.2403 O   0  0  0  0  0  0  0  0  0  0  0  0
   20.8178   74.8807    2.2336 O   0  0  0  0  0  0  0  0  0  0  0  0
   20.3193   74.9688   -0.1447 C   0  0  1  0  0  0  0  0  0  0  0  0
   21.2545   74.4942    0.9473 C   0  0  2  0  0  0  0  0  0  0  0  0
   20.6423   74.0079   -1.2807 C   0  0  1  0  0  0  0  0  0  0  0  0
   21.2312   72.9881    0.7499 C   0  0  2  0  0  0  0  0  0  0  0  0
   18.7315   75.3580    0.9652 H   0  0  0  0  0  0  0  0  0  0  0  0
   20.8513   75.8477    2.3093 H   0  0  0  0  0  0  0  0  0  0  0  0
   21.5410   70.2206    1.2206 O   0  0  0  0  0  0  0  0  0  0  0  0
   26.0092   70.7087    2.2406 O   0  0  0  0  0  0  0  0  0  0  0  0
   22.4644   72.3652    1.1396 N   0  0  0  0  0  0  0  0  0  0  0  0
   23.7659   70.4665    1.7292 N   0  0  0  0  0  0  0  0  0  0  0  0
   22.5130   70.9670    1.3512 C   0  0  0  0  0  0  0  0  0  0  0  0
   23.6084   73.1361    1.3066 C   0  0  0  0  0  0  0  0  0  0  0  0
   24.7956   72.6447    1.6670 C   0  0  0  0  0  0  0  0  0  0  0  0
   24.9317   71.1933    1.9085 C   0  0  0  0  0  0  0  0  0  0  0  0
   23.8239   69.4960    1.8842 H   0  0  0  0  0  0  0  0  0  0  0  0
   21.9415   73.5119   -4.6454 O   0  0  0  0  0  0  0  0  0  0  0  0
   21.6165   73.3514   -6.2209 P   0  0  2  0  0  0  0  0  0  0  0  0
   22.7932   72.3701   -6.7432 O   0  0  0  0  0  0  0  0  0  0  0  0
   21.5197   74.6516   -6.9653 O   0  0  0  0  0  0  0  0  0  0  0  0
   20.2804   72.4489   -6.2734 O   0  0  0  0  0  0  0  0  0  0  0  0
   19.7740   70.2789   -5.4710 O   0  0  0  0  0  0  0  0  0  0  0  0
   17.6541   70.3804   -9.0155 O   0  0  0  0  0  0  0  0  0  0  0  0
   20.3600   71.4726   -8.8766 O   0  0  0  0  0  0  0  0  0  0  0  0
   16.2661   70.6601   -6.4766 O   0  0  0  0  0  0  0  0  0  0  0  0
   18.2407   70.9218   -7.8320 C   0  0  2  0  0  0  0  0  0  0  0  0
   19.7515   70.6886   -7.8569 C   0  0  2  0  0  0  0  0  0  0  0  0
   17.6131   70.2162   -6.6277 C   0  0  1  0  0  0  0  0  0  0  0  0
   20.3826   71.0460   -6.5105 C   0  0  1  0  0  0  0  0  0  0  0  0
   18.3753   70.5242   -5.3421 C   0  0  1  0  0  0  0  0  0  0  0  0
   18.0377   70.8138   -9.7941 H   0  0  0  0  0  0  0  0  0  0  0  0
   19.9642   71.2512   -9.7337 H   0  0  0  0  0  0  0  0  0  0  0  0
   15.7700   70.4701   -7.2881 H   0  0  0  0  0  0  0  0  0  0  0  0
   18.8499   69.6493   -3.2182 O   0  0  0  0  0  0  0  0  0  0  0  0
   16.9830   68.8706   -4.2705 O   0  0  0  0  0  0  0  0  0  0  0  0
   17.9703   69.5901   -4.2486 C   0  0  0  0  0  0  0  0  0  0  0  0
  1  4  1  0
  1 24  1  0
  1  2  1  1
  1  3  2  0
 25 28  1  0
 25 24  1  0
 25 26  1  6
 25 27  2  0
  6 11  1  0
  6 12  1  0
 29 36  1  0
 29 37  1  0
  9  7  1  1
  7 13  1  0
 10  8  1  1
  8 14  1  0
  4  5  1  0
 36 28  1  1
 33 30  1  6
 30 38  1  0
 34 31  1  6
 31 39  1  0
 35 32  1  1
 32 40  1  0
 41 43  1  0
 15 19  2  0
 42 43  2  0
 16 22  2  0
 12 17  1  6
 17 19  1  0
 17 20  1  0
 18 19  1  0
 18 22  1  0
 18 23  1  0
  9 10  1  0
  9 11  1  0
 10 12  1  0
 11  5  1  1
 33 34  1  0
 33 35  1  0
 34 36  1  0
 35 37  1  0
 37 43  1  1
 20 21  2  0
 21 22  1  0
M  CHG  3   2  -1  26  -1  41  -1
M  END
>  <COMPND>  (147) 
    udp_gluA.pdb 

>  <AUTHOR>  (147) 
    GENERATED BY OPEN BABEL 3.1.1

>  <MASTER>  (147) 
        0    0    0    0    0    0    0    0   56    0   56    0

>  <minimizedAffinity>  (147) 
-7.73728

>  <CNNscore>  (147) 
0.7447208166

>  <CNNaffinity>  (147) 
4.6260681152

>  <CNN_VS>  (147) 
3.4451291561

>  <CNNaffinity_variance>  (147) 
0.0568059497

$$$$
148
     RDKit          3D

 43 45  0  0  0  0  0  0  0  0999 V2000
   23.3300   73.6754   -4.1284 P   0  0  2  0  0  0  0  0  0  0  0  0
   24.2291   72.3326   -4.2141 O   0  0  0  0  0  0  0  0  0  0  0  0
   23.9244   74.8797   -4.7980 O   0  0  0  0  0  0  0  0  0  0  0  0
   23.0164   73.8329   -2.5489 O   0  0  0  0  0  0  0  0  0  0  0  0
   21.7000   73.5813   -2.0925 C   0  0  0  0  0  0  0  0  0  0  0  0
   22.8453   71.6954   -1.1388 O   0  0  0  0  0  0  0  0  0  0  0  0
   20.1296   70.4961   -0.7165 O   0  0  0  0  0  0  0  0  0  0  0  0
   20.7562   71.4402    1.7638 O   0  0  0  0  0  0  0  0  0  0  0  0
   20.5397   71.8604   -0.6213 C   0  0  1  0  0  0  0  0  0  0  0  0
   21.3366   72.0808    0.6469 C   0  0  2  0  0  0  0  0  0  0  0  0
   21.5827   72.1138   -1.7012 C   0  0  1  0  0  0  0  0  0  0  0  0
   22.6889   71.4968    0.2752 C   0  0  2  0  0  0  0  0  0  0  0  0
   19.4630   70.3102   -0.0362 H   0  0  0  0  0  0  0  0  0  0  0  0
   19.8977   71.8480    1.9604 H   0  0  0  0  0  0  0  0  0  0  0  0
   24.6091   70.1524    1.8506 O   0  0  0  0  0  0  0  0  0  0  0  0
   26.8010   74.0802    2.8568 O   0  0  0  0  0  0  0  0  0  0  0  0
   23.7721   72.1437    0.9601 N   0  0  0  0  0  0  0  0  0  0  0  0
   25.6983   72.1101    2.3511 N   0  0  0  0  0  0  0  0  0  0  0  0
   24.6818   71.3764    1.7256 C   0  0  0  0  0  0  0  0  0  0  0  0
   23.9262   73.5217    0.8688 C   0  0  0  0  0  0  0  0  0  0  0  0
   24.9004   74.2070    1.4706 C   0  0  0  0  0  0  0  0  0  0  0  0
   25.8923   73.4806    2.2903 C   0  0  0  0  0  0  0  0  0  0  0  0
   26.3426   71.5978    2.8913 H   0  0  0  0  0  0  0  0  0  0  0  0
   21.9092   73.2002   -4.7353 O   0  0  0  0  0  0  0  0  0  0  0  0
   21.1665   73.5793   -6.1203 P   0  0  2  0  0  0  0  0  0  0  0  0
   22.2007   73.0555   -7.2501 O   0  0  0  0  0  0  0  0  0  0  0  0
   20.7974   75.0292   -6.2444 O   0  0  0  0  0  0  0  0  0  0  0  0
   19.9183   72.5609   -6.2075 O   0  0  0  0  0  0  0  0  0  0  0  0
   19.6095   70.3836   -5.3281 O   0  0  0  0  0  0  0  0  0  0  0  0
   17.5261   70.1556   -8.8883 O   0  0  0  0  0  0  0  0  0  0  0  0
   20.1161   71.5021   -8.7718 O   0  0  0  0  0  0  0  0  0  0  0  0
   16.0919   70.3959   -6.3712 O   0  0  0  0  0  0  0  0  0  0  0  0
   18.0472   70.7927   -7.7219 C   0  0  2  0  0  0  0  0  0  0  0  0
   19.5733   70.7020   -7.7278 C   0  0  2  0  0  0  0  0  0  0  0  0
   17.4761   70.0756   -6.4964 C   0  0  1  0  0  0  0  0  0  0  0  0
   20.1542   71.1662   -6.3913 C   0  0  1  0  0  0  0  0  0  0  0  0
   18.1927   70.5007   -5.2180 C   0  0  1  0  0  0  0  0  0  0  0  0
   17.8754   70.5945   -9.6800 H   0  0  0  0  0  0  0  0  0  0  0  0
   19.7516   71.2132   -9.6227 H   0  0  0  0  0  0  0  0  0  0  0  0
   15.6242   70.1305   -7.1785 H   0  0  0  0  0  0  0  0  0  0  0  0
   18.8295   69.6183   -3.1402 O   0  0  0  0  0  0  0  0  0  0  0  0
   16.8689   68.8696   -4.0314 O   0  0  0  0  0  0  0  0  0  0  0  0
   17.8659   69.5732   -4.0932 C   0  0  0  0  0  0  0  0  0  0  0  0
  1  4  1  0
  1 24  1  0
  1  2  1  1
  1  3  2  0
 25 28  1  0
 25 24  1  0
 25 26  1  6
 25 27  2  0
  6 11  1  0
  6 12  1  0
 29 36  1  0
 29 37  1  0
  9  7  1  1
  7 13  1  0
 10  8  1  1
  8 14  1  0
  4  5  1  0
 36 28  1  1
 33 30  1  6
 30 38  1  0
 34 31  1  6
 31 39  1  0
 35 32  1  1
 32 40  1  0
 41 43  1  0
 15 19  2  0
 42 43  2  0
 16 22  2  0
 12 17  1  1
 17 19  1  0
 17 20  1  0
 18 19  1  0
 18 22  1  0
 18 23  1  0
  9 10  1  0
  9 11  1  0
 10 12  1  0
 11  5  1  1
 33 34  1  0
 33 35  1  0
 34 36  1  0
 35 37  1  0
 37 43  1  1
 20 21  2  0
 21 22  1  0
M  CHG  3   2  -1  26  -1  41  -1
M  END
>  <COMPND>  (148) 
    udp_gluA.pdb 

>  <AUTHOR>  (148) 
    GENERATED BY OPEN BABEL 3.1.1

>  <MASTER>  (148) 
        0    0    0    0    0    0    0    0   56    0   56    0

>  <minimizedAffinity>  (148) 
-7.70031

>  <CNNscore>  (148) 
0.7235158682

>  <CNNaffinity>  (148) 
4.5008940697

>  <CNN_VS>  (148) 
3.2564682961

>  <CNNaffinity_variance>  (148) 
0.1264122725

$$$$
149
     RDKit          3D

 43 45  0  0  0  0  0  0  0  0999 V2000
   21.8798   72.6037   -5.5848 P   0  0  2  0  0  0  0  0  0  0  0  0
   21.2849   74.0557   -5.1891 O   0  0  0  0  0  0  0  0  0  0  0  0
   23.0839   72.6348   -6.4798 O   0  0  0  0  0  0  0  0  0  0  0  0
   20.5974   71.8020   -6.1598 O   0  0  0  0  0  0  0  0  0  0  0  0
   20.1567   72.0857   -7.4750 C   0  0  0  0  0  0  0  0  0  0  0  0
   18.9947   70.0386   -6.9883 O   0  0  0  0  0  0  0  0  0  0  0  0
   18.2082   70.0148   -9.8818 O   0  0  0  0  0  0  0  0  0  0  0  0
   15.9559   70.9475   -8.6598 O   0  0  0  0  0  0  0  0  0  0  0  0
   18.3577   71.1238   -8.9951 C   0  0  1  0  0  0  0  0  0  0  0  0
   17.1962   71.1801   -8.0256 C   0  0  2  0  0  0  0  0  0  0  0  0
   19.5310   70.8308   -8.0700 C   0  0  1  0  0  0  0  0  0  0  0  0
   17.5598   70.0880   -7.0341 C   0  0  2  0  0  0  0  0  0  0  0  0
   17.4642   70.1789  -10.4829 H   0  0  0  0  0  0  0  0  0  0  0  0
   15.7697   71.6700   -9.2805 H   0  0  0  0  0  0  0  0  0  0  0  0
   16.3228   68.1653   -5.3759 O   0  0  0  0  0  0  0  0  0  0  0  0
   15.6786   71.2296   -1.9937 O   0  0  0  0  0  0  0  0  0  0  0  0
   17.0596   70.3563   -5.7155 N   0  0  0  0  0  0  0  0  0  0  0  0
   16.0022   69.6936   -3.6934 N   0  0  0  0  0  0  0  0  0  0  0  0
   16.4550   69.3199   -4.9655 C   0  0  0  0  0  0  0  0  0  0  0  0
   17.1714   71.6327   -5.1777 C   0  0  0  0  0  0  0  0  0  0  0  0
   16.7352   71.9737   -3.9635 C   0  0  0  0  0  0  0  0  0  0  0  0
   16.0905   70.9497   -3.1154 C   0  0  0  0  0  0  0  0  0  0  0  0
   15.5759   68.9894   -3.1533 H   0  0  0  0  0  0  0  0  0  0  0  0
   22.1277   71.9090   -4.1464 O   0  0  0  0  0  0  0  0  0  0  0  0
   23.3348   72.0710   -3.0833 P   0  0  2  0  0  0  0  0  0  0  0  0
   24.0126   73.4792   -3.5052 O   0  0  0  0  0  0  0  0  0  0  0  0
   24.2875   70.9111   -3.0518 O   0  0  0  0  0  0  0  0  0  0  0  0
   22.6042   72.3757   -1.6777 O   0  0  0  0  0  0  0  0  0  0  0  0
   23.1887   70.9173    0.0945 O   0  0  0  0  0  0  0  0  0  0  0  0
   19.9752   72.9529    1.7061 O   0  0  0  0  0  0  0  0  0  0  0  0
   19.9106   72.0429   -1.0692 O   0  0  0  0  0  0  0  0  0  0  0  0
   22.6818   73.5979    2.5479 O   0  0  0  0  0  0  0  0  0  0  0  0
   21.1344   72.7841    0.8902 C   0  0  2  0  0  0  0  0  0  0  0  0
   20.8932   71.6575   -0.1148 C   0  0  2  0  0  0  0  0  0  0  0  0
   22.3107   72.4378    1.8058 C   0  0  1  0  0  0  0  0  0  0  0  0
   22.1845   71.2934   -0.8488 C   0  0  1  0  0  0  0  0  0  0  0  0
   23.5197   71.9641    1.0043 C   0  0  1  0  0  0  0  0  0  0  0  0
   19.2145   73.1736    1.1458 H   0  0  0  0  0  0  0  0  0  0  0  0
   19.0886   72.2756   -0.6103 H   0  0  0  0  0  0  0  0  0  0  0  0
   21.9210   73.9098    3.0624 H   0  0  0  0  0  0  0  0  0  0  0  0
   25.3086   72.2635    2.4915 O   0  0  0  0  0  0  0  0  0  0  0  0
   24.6470   70.1209    2.0783 O   0  0  0  0  0  0  0  0  0  0  0  0
   24.5312   71.3239    1.8985 C   0  0  0  0  0  0  0  0  0  0  0  0
  1  4  1  0
  1 24  1  0
  1  2  1  1
  1  3  2  0
 25 28  1  0
 25 24  1  0
 25 26  1  6
 25 27  2  0
  6 11  1  0
  6 12  1  0
 29 36  1  0
 29 37  1  0
  9  7  1  6
  7 13  1  0
 10  8  1  6
  8 14  1  0
  4  5  1  0
 36 28  1  1
 33 30  1  1
 30 38  1  0
 34 31  1  6
 31 39  1  0
 35 32  1  6
 32 40  1  0
 41 43  1  0
 15 19  2  0
 42 43  2  0
 16 22  2  0
 12 17  1  1
 17 19  1  0
 17 20  1  0
 18 19  1  0
 18 22  1  0
 18 23  1  0
  9 10  1  0
  9 11  1  0
 10 12  1  0
 11  5  1  1
 33 34  1  0
 33 35  1  0
 34 36  1  0
 35 37  1  0
 37 43  1  1
 20 21  2  0
 21 22  1  0
M  CHG  3   2  -1  26  -1  41  -1
M  END
>  <COMPND>  (149) 
    udp_gluA.pdb 

>  <AUTHOR>  (149) 
    GENERATED BY OPEN BABEL 3.1.1

>  <MASTER>  (149) 
        0    0    0    0    0    0    0    0   56    0   56    0

>  <minimizedAffinity>  (149) 
-7.98431

>  <CNNscore>  (149) 
0.7111942172

>  <CNNaffinity>  (149) 
4.4899306297

>  <CNN_VS>  (149) 
3.1932127476

>  <CNNaffinity_variance>  (149) 
0.1726639569

$$$$
150
     RDKit          3D

 43 45  0  0  0  0  0  0  0  0999 V2000
   21.9527   72.6503   -5.7503 P   0  0  2  0  0  0  0  0  0  0  0  0
   21.4002   74.1120   -5.3298 O   0  0  0  0  0  0  0  0  0  0  0  0
   23.0952   72.6605   -6.7231 O   0  0  0  0  0  0  0  0  0  0  0  0
   20.6269   71.8576   -6.2319 O   0  0  0  0  0  0  0  0  0  0  0  0
   20.1097   72.1265   -7.5222 C   0  0  0  0  0  0  0  0  0  0  0  0
   18.9933   70.0646   -6.9933 O   0  0  0  0  0  0  0  0  0  0  0  0
   18.1941   69.9725   -9.8820 O   0  0  0  0  0  0  0  0  0  0  0  0
   15.9283   70.8794   -8.6654 O   0  0  0  0  0  0  0  0  0  0  0  0
   18.3243   71.1001   -9.0159 C   0  0  1  0  0  0  0  0  0  0  0  0
   17.1664   71.1493   -8.0417 C   0  0  2  0  0  0  0  0  0  0  0  0
   19.5078   70.8484   -8.0917 C   0  0  1  0  0  0  0  0  0  0  0  0
   17.5576   70.0830   -7.0328 C   0  0  2  0  0  0  0  0  0  0  0  0
   17.4441   70.1102  -10.4821 H   0  0  0  0  0  0  0  0  0  0  0  0
   15.7241   71.5866   -9.2980 H   0  0  0  0  0  0  0  0  0  0  0  0
   16.3204   68.1769   -5.3556 O   0  0  0  0  0  0  0  0  0  0  0  0
   15.6786   71.2741   -2.0031 O   0  0  0  0  0  0  0  0  0  0  0  0
   17.0579   70.3643   -5.7167 N   0  0  0  0  0  0  0  0  0  0  0  0
   16.0010   69.7216   -3.6879 N   0  0  0  0  0  0  0  0  0  0  0  0
   16.4532   69.3354   -4.9565 C   0  0  0  0  0  0  0  0  0  0  0  0
   17.1705   71.6457   -5.1913 C   0  0  0  0  0  0  0  0  0  0  0  0
   16.7348   71.9986   -3.9803 C   0  0  0  0  0  0  0  0  0  0  0  0
   16.0900   70.9832   -3.1222 C   0  0  0  0  0  0  0  0  0  0  0  0
   15.5746   69.0229   -3.1408 H   0  0  0  0  0  0  0  0  0  0  0  0
   22.2879   71.9652   -4.3251 O   0  0  0  0  0  0  0  0  0  0  0  0
   23.5628   72.1257   -3.3440 P   0  0  2  0  0  0  0  0  0  0  0  0
   24.4978   73.1925   -4.1240 O   0  0  0  0  0  0  0  0  0  0  0  0
   24.2478   70.8328   -3.0079 O   0  0  0  0  0  0  0  0  0  0  0  0
   22.9981   72.9356   -2.0682 O   0  0  0  0  0  0  0  0  0  0  0  0
   21.2723   72.1106   -0.6718 O   0  0  0  0  0  0  0  0  0  0  0  0
   21.0673   76.1733    0.0494 O   0  0  0  0  0  0  0  0  0  0  0  0
   21.4523   75.1690   -2.6668 O   0  0  0  0  0  0  0  0  0  0  0  0
   22.2693   74.4012    2.0155 O   0  0  0  0  0  0  0  0  0  0  0  0
   21.7066   74.9363   -0.2653 C   0  0  2  0  0  0  0  0  0  0  0  0
   21.1053   74.3613   -1.5479 C   0  0  2  0  0  0  0  0  0  0  0  0
   21.4813   73.9764    0.9051 C   0  0  1  0  0  0  0  0  0  0  0  0
   21.5988   72.9344   -1.7917 C   0  0  1  0  0  0  0  0  0  0  0  0
   21.8814   72.5497    0.5404 C   0  0  1  0  0  0  0  0  0  0  0  0
   21.1971   76.7994   -0.6803 H   0  0  0  0  0  0  0  0  0  0  0  0
   21.1425   76.0759   -2.5188 H   0  0  0  0  0  0  0  0  0  0  0  0
   22.0246   75.3080    2.2576 H   0  0  0  0  0  0  0  0  0  0  0  0
   21.5731   70.3031    1.1399 O   0  0  0  0  0  0  0  0  0  0  0  0
   20.8174   71.8825    2.6005 O   0  0  0  0  0  0  0  0  0  0  0  0
   21.3600   71.5783    1.5488 C   0  0  0  0  0  0  0  0  0  0  0  0
  1  4  1  0
  1 24  1  0
  1  2  1  1
  1  3  2  0
 25 28  1  0
 25 24  1  0
 25 26  1  6
 25 27  2  0
  6 11  1  0
  6 12  1  0
 29 36  1  0
 29 37  1  0
  9  7  1  6
  7 13  1  0
 10  8  1  6
  8 14  1  0
  4  5  1  0
 36 28  1  1
 33 30  1  1
 30 38  1  0
 34 31  1  6
 31 39  1  0
 35 32  1  1
 32 40  1  0
 41 43  1  0
 15 19  2  0
 42 43  2  0
 16 22  2  0
 12 17  1  1
 17 19  1  0
 17 20  1  0
 18 19  1  0
 18 22  1  0
 18 23  1  0
  9 10  1  0
  9 11  1  0
 10 12  1  0
 11  5  1  1
 33 34  1  0
 33 35  1  0
 34 36  1  0
 35 37  1  0
 37 43  1  1
 20 21  2  0
 21 22  1  0
M  CHG  3   2  -1  26  -1  41  -1
M  END
>  <COMPND>  (150) 
    udp_gluA.pdb 

>  <AUTHOR>  (150) 
    GENERATED BY OPEN BABEL 3.1.1

>  <MASTER>  (150) 
        0    0    0    0    0    0    0    0   56    0   56    0

>  <minimizedAffinity>  (150) 
-8.00525

>  <CNNscore>  (150) 
0.6934874058

>  <CNNaffinity>  (150) 
4.4418287277

>  <CNN_VS>  (150) 
3.0803523064

>  <CNNaffinity_variance>  (150) 
0.3927966356

$$$$
151
     RDKit          3D

 43 45  0  0  0  0  0  0  0  0999 V2000
   23.5494   71.9908   -3.2213 P   0  0  2  0  0  0  0  0  0  0  0  0
   24.2176   73.0752   -4.2196 O   0  0  0  0  0  0  0  0  0  0  0  0
   24.3657   70.7525   -2.9930 O   0  0  0  0  0  0  0  0  0  0  0  0
   22.0719   71.7546   -3.8370 O   0  0  0  0  0  0  0  0  0  0  0  0
   21.6276   72.6085   -4.8753 C   0  0  0  0  0  0  0  0  0  0  0  0
   20.7482   70.6110   -5.8823 O   0  0  0  0  0  0  0  0  0  0  0  0
   21.1558   71.9829   -8.5173 O   0  0  0  0  0  0  0  0  0  0  0  0
   18.4804   72.2938   -8.0911 O   0  0  0  0  0  0  0  0  0  0  0  0
   20.7539   72.5353   -7.2635 C   0  0  1  0  0  0  0  0  0  0  0  0
   19.3182   72.1610   -6.9620 C   0  0  2  0  0  0  0  0  0  0  0  0
   21.5115   71.8041   -6.1636 C   0  0  1  0  0  0  0  0  0  0  0  0
   19.4576   70.7194   -6.5036 C   0  0  2  0  0  0  0  0  0  0  0  0
   20.6848   72.4343   -9.2357 H   0  0  0  0  0  0  0  0  0  0  0  0
   18.4238   73.2292   -8.3435 H   0  0  0  0  0  0  0  0  0  0  0  0
   16.8838   69.7833   -7.1932 O   0  0  0  0  0  0  0  0  0  0  0  0
   15.6684   69.3189   -2.7716 O   0  0  0  0  0  0  0  0  0  0  0  0
   18.4489   70.3467   -5.5526 N   0  0  0  0  0  0  0  0  0  0  0  0
   16.2806   69.5539   -4.9903 N   0  0  0  0  0  0  0  0  0  0  0  0
   17.1883   69.8890   -6.0037 C   0  0  0  0  0  0  0  0  0  0  0  0
   18.7128   70.4347   -4.1911 C   0  0  0  0  0  0  0  0  0  0  0  0
   17.8375   70.1115   -3.2371 C   0  0  0  0  0  0  0  0  0  0  0  0
   16.4969   69.6251   -3.6237 C   0  0  0  0  0  0  0  0  0  0  0  0
   15.3954   69.2345   -5.2799 H   0  0  0  0  0  0  0  0  0  0  0  0
   23.2538   72.8575   -1.8893 O   0  0  0  0  0  0  0  0  0  0  0  0
   22.0536   72.7686   -0.8098 P   0  0  2  0  0  0  0  0  0  0  0  0
   21.7442   71.1817   -0.7305 O   0  0  0  0  0  0  0  0  0  0  0  0
   20.8600   73.6154   -1.1449 O   0  0  0  0  0  0  0  0  0  0  0  0
   22.7477   73.1193    0.6036 O   0  0  0  0  0  0  0  0  0  0  0  0
   24.6411   72.3239    1.7832 O   0  0  0  0  0  0  0  0  0  0  0  0
   21.8846   72.7789    4.8267 O   0  0  0  0  0  0  0  0  0  0  0  0
   21.0834   71.6312    2.2625 O   0  0  0  0  0  0  0  0  0  0  0  0
   24.0288   74.7143    4.4986 O   0  0  0  0  0  0  0  0  0  0  0  0
   22.5124   73.0823    3.5810 C   0  0  2  0  0  0  0  0  0  0  0  0
   22.4300   71.8669    2.6571 C   0  0  2  0  0  0  0  0  0  0  0  0
   23.9737   73.4389    3.8623 C   0  0  1  0  0  0  0  0  0  0  0  0
   23.2869   72.0710    1.4069 C   0  0  1  0  0  0  0  0  0  0  0  0
   24.7900   73.5006    2.5745 C   0  0  1  0  0  0  0  0  0  0  0  0
   20.9547   72.5491    4.6728 H   0  0  0  0  0  0  0  0  0  0  0  0
   20.5340   71.5010    3.0509 H   0  0  0  0  0  0  0  0  0  0  0  0
   23.5129   74.6886    5.3196 H   0  0  0  0  0  0  0  0  0  0  0  0
   26.7831   72.2775    2.7556 O   0  0  0  0  0  0  0  0  0  0  0  0
   26.8932   74.5146    3.1828 O   0  0  0  0  0  0  0  0  0  0  0  0
   26.2535   73.5202    2.8746 C   0  0  0  0  0  0  0  0  0  0  0  0
  1  4  1  0
  1 24  1  0
  1  2  1  6
  1  3  2  0
 25 28  1  0
 25 24  1  0
 25 26  1  1
 25 27  2  0
  6 11  1  0
  6 12  1  0
 29 36  1  0
 29 37  1  0
  9  7  1  6
  7 13  1  0
 10  8  1  6
  8 14  1  0
  4  5  1  0
 36 28  1  1
 33 30  1  1
 30 38  1  0
 34 31  1  6
 31 39  1  0
 35 32  1  6
 32 40  1  0
 41 43  1  0
 15 19  2  0
 42 43  2  0
 16 22  2  0
 12 17  1  1
 17 19  1  0
 17 20  1  0
 18 19  1  0
 18 22  1  0
 18 23  1  0
  9 10  1  0
  9 11  1  0
 10 12  1  0
 11  5  1  1
 33 34  1  0
 33 35  1  0
 34 36  1  0
 35 37  1  0
 37 43  1  1
 20 21  2  0
 21 22  1  0
M  CHG  3   2  -1  26  -1  41  -1
M  END
>  <COMPND>  (151) 
    udp_gluA.pdb 

>  <AUTHOR>  (151) 
    GENERATED BY OPEN BABEL 3.1.1

>  <MASTER>  (151) 
        0    0    0    0    0    0    0    0   56    0   56    0

>  <minimizedAffinity>  (151) 
-7.61962

>  <CNNscore>  (151) 
0.5994243622

>  <CNNaffinity>  (151) 
4.3054180145

>  <CNN_VS>  (151) 
2.5807723999

>  <CNNaffinity_variance>  (151) 
0.1168768778

$$$$
152
     RDKit          3D

 43 45  0  0  0  0  0  0  0  0999 V2000
   22.9009   73.4279   -4.0859 P   0  0  2  0  0  0  0  0  0  0  0  0
   22.5697   73.2423   -2.5128 O   0  0  0  0  0  0  0  0  0  0  0  0
   24.0741   72.6360   -4.5841 O   0  0  0  0  0  0  0  0  0  0  0  0
   23.0044   75.0315   -4.2746 O   0  0  0  0  0  0  0  0  0  0  0  0
   24.1720   75.5683   -4.8688 C   0  0  0  0  0  0  0  0  0  0  0  0
   26.4251   75.1693   -4.1326 O   0  0  0  0  0  0  0  0  0  0  0  0
   26.0602   77.5414   -2.3351 O   0  0  0  0  0  0  0  0  0  0  0  0
   27.4988   78.5790   -4.4062 O   0  0  0  0  0  0  0  0  0  0  0  0
   25.5588   77.3212   -3.6536 C   0  0  1  0  0  0  0  0  0  0  0  0
   26.6731   77.4638   -4.6687 C   0  0  2  0  0  0  0  0  0  0  0  0
   25.1998   75.8470   -3.7796 C   0  0  1  0  0  0  0  0  0  0  0  0
   27.4085   76.1431   -4.5172 C   0  0  2  0  0  0  0  0  0  0  0  0
   26.2964   78.4768   -2.2306 H   0  0  0  0  0  0  0  0  0  0  0  0
   26.9848   79.3949   -4.5161 H   0  0  0  0  0  0  0  0  0  0  0  0
   29.7728   74.6040   -4.6514 O   0  0  0  0  0  0  0  0  0  0  0  0
   29.7105   74.5766   -9.2600 O   0  0  0  0  0  0  0  0  0  0  0  0
   28.0319   75.7198   -5.7391 N   0  0  0  0  0  0  0  0  0  0  0  0
   29.7401   74.5927   -6.9466 N   0  0  0  0  0  0  0  0  0  0  0  0
   29.2181   74.9495   -5.6963 C   0  0  0  0  0  0  0  0  0  0  0  0
   27.4685   76.0658   -6.9613 C   0  0  0  0  0  0  0  0  0  0  0  0
   27.9775   75.7182   -8.1449 C   0  0  0  0  0  0  0  0  0  0  0  0
   29.2161   74.9136   -8.1885 C   0  0  0  0  0  0  0  0  0  0  0  0
   30.5667   74.0580   -6.9424 H   0  0  0  0  0  0  0  0  0  0  0  0
   21.4948   73.0683   -4.7976 O   0  0  0  0  0  0  0  0  0  0  0  0
   20.8804   73.5205   -6.2229 P   0  0  2  0  0  0  0  0  0  0  0  0
   22.0332   73.0921   -7.2754 O   0  0  0  0  0  0  0  0  0  0  0  0
   20.4864   74.9676   -6.2924 O   0  0  0  0  0  0  0  0  0  0  0  0
   19.6743   72.4845   -6.4960 O   0  0  0  0  0  0  0  0  0  0  0  0
   19.2931   70.2949   -5.6778 O   0  0  0  0  0  0  0  0  0  0  0  0
   17.6934   70.0620   -9.4797 O   0  0  0  0  0  0  0  0  0  0  0  0
   20.2219   71.4510   -9.0195 O   0  0  0  0  0  0  0  0  0  0  0  0
   15.9407   70.2565   -7.1685 O   0  0  0  0  0  0  0  0  0  0  0  0
   18.0473   70.6978   -8.2515 C   0  0  2  0  0  0  0  0  0  0  0  0
   19.5627   70.6330   -8.0598 C   0  0  2  0  0  0  0  0  0  0  0  0
   17.3351   69.9607   -7.1151 C   0  0  1  0  0  0  0  0  0  0  0  0
   19.9569   71.0955   -6.6564 C   0  0  1  0  0  0  0  0  0  0  0  0
   17.8722   70.3870   -5.7518 C   0  0  1  0  0  0  0  0  0  0  0  0
   18.1345   70.5134  -10.2165 H   0  0  0  0  0  0  0  0  0  0  0  0
   19.9760   71.1633   -9.9124 H   0  0  0  0  0  0  0  0  0  0  0  0
   15.5866   69.9901   -8.0314 H   0  0  0  0  0  0  0  0  0  0  0  0
   18.3868   69.2789   -3.7496 O   0  0  0  0  0  0  0  0  0  0  0  0
   16.3274   68.8964   -4.6504 O   0  0  0  0  0  0  0  0  0  0  0  0
   17.4188   69.4446   -4.6848 C   0  0  0  0  0  0  0  0  0  0  0  0
  1  4  1  0
  1 24  1  0
  1  2  1  1
  1  3  2  0
 25 28  1  0
 25 24  1  0
 25 26  1  6
 25 27  2  0
  6 11  1  0
  6 12  1  0
 29 36  1  0
 29 37  1  0
  9  7  1  1
  7 13  1  0
 10  8  1  1
  8 14  1  0
  4  5  1  0
 36 28  1  1
 33 30  1  6
 30 38  1  0
 34 31  1  6
 31 39  1  0
 35 32  1  1
 32 40  1  0
 41 43  1  0
 15 19  2  0
 42 43  2  0
 16 22  2  0
 12 17  1  6
 17 19  1  0
 17 20  1  0
 18 19  1  0
 18 22  1  0
 18 23  1  0
  9 10  1  0
  9 11  1  0
 10 12  1  0
 11  5  1  6
 33 34  1  0
 33 35  1  0
 34 36  1  0
 35 37  1  0
 37 43  1  1
 20 21  2  0
 21 22  1  0
M  CHG  3   2  -1  26  -1  41  -1
M  END
>  <COMPND>  (152) 
    udp_gluA.pdb 

>  <AUTHOR>  (152) 
    GENERATED BY OPEN BABEL 3.1.1

>  <MASTER>  (152) 
        0    0    0    0    0    0    0    0   56    0   56    0

>  <minimizedAffinity>  (152) 
-6.62092

>  <CNNscore>  (152) 
0.5946221352

>  <CNNaffinity>  (152) 
4.3739728928

>  <CNN_VS>  (152) 
2.6008610725

>  <CNNaffinity_variance>  (152) 
0.0507351346

$$$$
153
     RDKit          3D

 43 45  0  0  0  0  0  0  0  0999 V2000
   23.4008   72.3758   -2.9721 P   0  0  2  0  0  0  0  0  0  0  0  0
   24.0680   70.9016   -2.9479 O   0  0  0  0  0  0  0  0  0  0  0  0
   24.2765   73.4584   -3.5317 O   0  0  0  0  0  0  0  0  0  0  0  0
   22.8938   72.5978   -1.4518 O   0  0  0  0  0  0  0  0  0  0  0  0
   23.8337   72.4722   -0.4004 C   0  0  0  0  0  0  0  0  0  0  0  0
   24.0920   71.4853    1.7760 O   0  0  0  0  0  0  0  0  0  0  0  0
   21.5313   70.0295    1.2151 O   0  0  0  0  0  0  0  0  0  0  0  0
   20.7161   72.0667    2.8342 O   0  0  0  0  0  0  0  0  0  0  0  0
   21.9181   71.3530    0.8447 C   0  0  1  0  0  0  0  0  0  0  0  0
   21.8728   72.2688    2.0494 C   0  0  2  0  0  0  0  0  0  0  0  0
   23.4045   71.3331    0.5153 C   0  0  1  0  0  0  0  0  0  0  0  0
   23.1493   71.8908    2.7812 C   0  0  2  0  0  0  0  0  0  0  0  0
   20.5851   70.0170    1.4302 H   0  0  0  0  0  0  0  0  0  0  0  0
   19.9308   72.3220    2.3242 H   0  0  0  0  0  0  0  0  0  0  0  0
   22.3708   72.5955    5.4029 O   0  0  0  0  0  0  0  0  0  0  0  0
   25.3348   76.1228    5.5309 O   0  0  0  0  0  0  0  0  0  0  0  0
   23.7013   72.9888    3.5232 N   0  0  0  0  0  0  0  0  0  0  0  0
   23.8470   74.3522    5.4638 N   0  0  0  0  0  0  0  0  0  0  0  0
   23.2403   73.2578    4.8336 C   0  0  0  0  0  0  0  0  0  0  0  0
   24.6882   73.7842    2.9538 C   0  0  0  0  0  0  0  0  0  0  0  0
   25.2571   74.8240    3.5669 C   0  0  0  0  0  0  0  0  0  0  0  0
   24.8317   75.1731    4.9383 C   0  0  0  0  0  0  0  0  0  0  0  0
   23.5410   74.5603    6.3761 H   0  0  0  0  0  0  0  0  0  0  0  0
   22.0232   72.1374   -3.7835 O   0  0  0  0  0  0  0  0  0  0  0  0
   20.7899   71.1292   -3.5077 P   0  0  2  0  0  0  0  0  0  0  0  0
   20.2883   71.5543   -2.0285 O   0  0  0  0  0  0  0  0  0  0  0  0
   21.1392   69.6759   -3.6484 O   0  0  0  0  0  0  0  0  0  0  0  0
   19.6191   71.6350   -4.4956 O   0  0  0  0  0  0  0  0  0  0  0  0
   18.7140   70.4545   -6.3385 O   0  0  0  0  0  0  0  0  0  0  0  0
   18.0685   74.3793   -7.4553 O   0  0  0  0  0  0  0  0  0  0  0  0
   20.5945   73.5875   -6.2196 O   0  0  0  0  0  0  0  0  0  0  0  0
   15.8599   72.7554   -6.4880 O   0  0  0  0  0  0  0  0  0  0  0  0
   18.2085   73.2902   -6.5431 C   0  0  2  0  0  0  0  0  0  0  0  0
   19.6029   72.6795   -6.6853 C   0  0  2  0  0  0  0  0  0  0  0  0
   17.1359   72.2515   -6.8785 C   0  0  1  0  0  0  0  0  0  0  0  0
   19.7120   71.3747   -5.8950 C   0  0  1  0  0  0  0  0  0  0  0  0
   17.3858   70.9362   -6.1464 C   0  0  1  0  0  0  0  0  0  0  0  0
   18.7401   75.0521   -7.2614 H   0  0  0  0  0  0  0  0  0  0  0  0
   20.5309   74.4178   -6.7166 H   0  0  0  0  0  0  0  0  0  0  0  0
   15.6886   73.5926   -6.9468 H   0  0  0  0  0  0  0  0  0  0  0  0
   16.0238   70.2152   -7.9147 O   0  0  0  0  0  0  0  0  0  0  0  0
   16.3525   68.7564   -6.1934 O   0  0  0  0  0  0  0  0  0  0  0  0
   16.5458   69.8419   -6.7201 C   0  0  0  0  0  0  0  0  0  0  0  0
  1  4  1  0
  1 24  1  0
  1  2  1  1
  1  3  2  0
 25 28  1  0
 25 24  1  0
 25 26  1  1
 25 27  2  0
  6 11  1  0
  6 12  1  0
 29 36  1  0
 29 37  1  0
  9  7  1  1
  7 13  1  0
 10  8  1  1
  8 14  1  0
  4  5  1  0
 36 28  1  1
 33 30  1  6
 30 38  1  0
 34 31  1  1
 31 39  1  0
 35 32  1  1
 32 40  1  0
 41 43  1  0
 15 19  2  0
 42 43  2  0
 16 22  2  0
 12 17  1  6
 17 19  1  0
 17 20  1  0
 18 19  1  0
 18 22  1  0
 18 23  1  0
  9 10  1  0
  9 11  1  0
 10 12  1  0
 11  5  1  6
 33 34  1  0
 33 35  1  0
 34 36  1  0
 35 37  1  0
 37 43  1  6
 20 21  2  0
 21 22  1  0
M  CHG  3   2  -1  26  -1  41  -1
M  END
>  <COMPND>  (153) 
    udp_gluA.pdb 

>  <AUTHOR>  (153) 
    GENERATED BY OPEN BABEL 3.1.1

>  <MASTER>  (153) 
        0    0    0    0    0    0    0    0   56    0   56    0

>  <minimizedAffinity>  (153) 
-6.97801

>  <CNNscore>  (153) 
0.5754920840

>  <CNNaffinity>  (153) 
4.1823124886

>  <CNN_VS>  (153) 
2.4068877697

>  <CNNaffinity_variance>  (153) 
0.0424552113

$$$$
154
     RDKit          3D

 43 45  0  0  0  0  0  0  0  0999 V2000
   21.2972   73.1957   -2.0235 P   0  0  2  0  0  0  0  0  0  0  0  0
   20.0392   74.1923   -1.8158 O   0  0  0  0  0  0  0  0  0  0  0  0
   20.9438   71.7402   -2.1160 O   0  0  0  0  0  0  0  0  0  0  0  0
   22.3125   73.5976   -0.8295 O   0  0  0  0  0  0  0  0  0  0  0  0
   21.7683   74.0281    0.4046 C   0  0  0  0  0  0  0  0  0  0  0  0
   22.3924   71.8931    1.3157 O   0  0  0  0  0  0  0  0  0  0  0  0
   19.9487   72.1227    3.0383 O   0  0  0  0  0  0  0  0  0  0  0  0
   21.9519   72.8280    4.7488 O   0  0  0  0  0  0  0  0  0  0  0  0
   20.8482   73.1434    2.6053 C   0  0  1  0  0  0  0  0  0  0  0  0
   22.1524   73.0512    3.3688 C   0  0  2  0  0  0  0  0  0  0  0  0
   21.2862   72.8122    1.1852 C   0  0  1  0  0  0  0  0  0  0  0  0
   22.8384   71.8830    2.6811 C   0  0  2  0  0  0  0  0  0  0  0  0
   19.6551   72.3127    3.9435 H   0  0  0  0  0  0  0  0  0  0  0  0
   21.5127   73.5997    5.1406 H   0  0  0  0  0  0  0  0  0  0  0  0
   24.6156   69.7728    2.0771 O   0  0  0  0  0  0  0  0  0  0  0  0
   28.3093   72.4310    2.8080 O   0  0  0  0  0  0  0  0  0  0  0  0
   24.2693   71.9961    2.7058 N   0  0  0  0  0  0  0  0  0  0  0  0
   26.4536   71.0984    2.4427 N   0  0  0  0  0  0  0  0  0  0  0  0
   25.0715   70.8754    2.3859 C   0  0  0  0  0  0  0  0  0  0  0  0
   24.8637   73.2063    3.0421 C   0  0  0  0  0  0  0  0  0  0  0  0
   26.1825   73.4037    3.0918 C   0  0  0  0  0  0  0  0  0  0  0  0
   27.0915   72.2833    2.7724 C   0  0  0  0  0  0  0  0  0  0  0  0
   27.0326   70.3322    2.2260 H   0  0  0  0  0  0  0  0  0  0  0  0
   22.0237   73.7970   -3.3362 O   0  0  0  0  0  0  0  0  0  0  0  0
   22.4060   73.1073   -4.7475 P   0  0  2  0  0  0  0  0  0  0  0  0
   23.3774   71.8878   -4.3121 O   0  0  0  0  0  0  0  0  0  0  0  0
   23.0072   74.0490   -5.7504 O   0  0  0  0  0  0  0  0  0  0  0  0
   21.0455   72.3901   -5.2344 O   0  0  0  0  0  0  0  0  0  0  0  0
   19.9769   72.0311   -7.3173 O   0  0  0  0  0  0  0  0  0  0  0  0
   16.7803   73.0104   -4.8903 O   0  0  0  0  0  0  0  0  0  0  0  0
   19.2956   74.4829   -4.6923 O   0  0  0  0  0  0  0  0  0  0  0  0
   17.2286   70.2454   -5.6680 O   0  0  0  0  0  0  0  0  0  0  0  0
   18.0596   72.4582   -5.2008 C   0  0  2  0  0  0  0  0  0  0  0  0
   18.9785   73.5604   -5.7282 C   0  0  2  0  0  0  0  0  0  0  0  0
   17.8619   71.3758   -6.2644 C   0  0  1  0  0  0  0  0  0  0  0  0
   20.2755   72.9716   -6.2850 C   0  0  1  0  0  0  0  0  0  0  0  0
   19.1943   70.9304   -6.8603 C   0  0  1  0  0  0  0  0  0  0  0  0
   16.8809   73.7009   -4.2162 H   0  0  0  0  0  0  0  0  0  0  0  0
   18.4772   74.8602   -4.3342 H   0  0  0  0  0  0  0  0  0  0  0  0
   16.3794   70.5154   -5.2848 H   0  0  0  0  0  0  0  0  0  0  0  0
   17.6646   70.1147   -8.4403 O   0  0  0  0  0  0  0  0  0  0  0  0
   19.8588   69.5721   -8.7404 O   0  0  0  0  0  0  0  0  0  0  0  0
   18.9784   70.1325   -8.1049 C   0  0  0  0  0  0  0  0  0  0  0  0
  1  4  1  0
  1 24  1  0
  1  2  1  1
  1  3  2  0
 25 28  1  0
 25 24  1  0
 25 26  1  1
 25 27  2  0
  6 11  1  0
  6 12  1  0
 29 36  1  0
 29 37  1  0
  9  7  1  1
  7 13  1  0
 10  8  1  1
  8 14  1  0
  4  5  1  0
 36 28  1  1
 33 30  1  6
 30 38  1  0
 34 31  1  1
 31 39  1  0
 35 32  1  1
 32 40  1  0
 41 43  1  0
 15 19  2  0
 42 43  2  0
 16 22  2  0
 12 17  1  6
 17 19  1  0
 17 20  1  0
 18 19  1  0
 18 22  1  0
 18 23  1  0
  9 10  1  0
  9 11  1  0
 10 12  1  0
 11  5  1  1
 33 34  1  0
 33 35  1  0
 34 36  1  0
 35 37  1  0
 37 43  1  6
 20 21  2  0
 21 22  1  0
M  CHG  3   2  -1  26  -1  41  -1
M  END
>  <COMPND>  (154) 
    udp_gluA.pdb 

>  <AUTHOR>  (154) 
    GENERATED BY OPEN BABEL 3.1.1

>  <MASTER>  (154) 
        0    0    0    0    0    0    0    0   56    0   56    0

>  <minimizedAffinity>  (154) 
-6.53654

>  <CNNscore>  (154) 
0.5737460256

>  <CNNaffinity>  (154) 
4.2410097122

>  <CNN_VS>  (154) 
2.4332623482

>  <CNNaffinity_variance>  (154) 
0.0525373109

$$$$
155
     RDKit          3D

 43 45  0  0  0  0  0  0  0  0999 V2000
   23.4737   72.2954   -3.4504 P   0  0  2  0  0  0  0  0  0  0  0  0
   23.9998   70.8178   -3.0517 O   0  0  0  0  0  0  0  0  0  0  0  0
   24.3531   73.0438   -4.4087 O   0  0  0  0  0  0  0  0  0  0  0  0
   23.2173   73.0145   -2.0238 O   0  0  0  0  0  0  0  0  0  0  0  0
   23.0061   72.2008   -0.8847 C   0  0  0  0  0  0  0  0  0  0  0  0
   23.9040   73.3095    1.0497 O   0  0  0  0  0  0  0  0  0  0  0  0
   25.8951   71.0711    1.1782 O   0  0  0  0  0  0  0  0  0  0  0  0
   24.0855   70.3695    3.0937 O   0  0  0  0  0  0  0  0  0  0  0  0
   24.5199   71.0363    0.7961 C   0  0  1  0  0  0  0  0  0  0  0  0
   23.6334   71.1636    2.0168 C   0  0  2  0  0  0  0  0  0  0  0  0
   24.2094   72.3218    0.0415 C   0  0  1  0  0  0  0  0  0  0  0  0
   23.7155   72.6514    2.3126 C   0  0  2  0  0  0  0  0  0  0  0  0
   26.1172   70.2598    1.6620 H   0  0  0  0  0  0  0  0  0  0  0  0
   24.0130   69.4312    2.8562 H   0  0  0  0  0  0  0  0  0  0  0  0
   21.1888   71.4005    2.1468 O   0  0  0  0  0  0  0  0  0  0  0  0
   19.1976   74.6720    4.7112 O   0  0  0  0  0  0  0  0  0  0  0  0
   22.5199   73.1547    2.9275 N   0  0  0  0  0  0  0  0  0  0  0  0
   20.1993   73.0316    3.4233 N   0  0  0  0  0  0  0  0  0  0  0  0
   21.3015   72.4500    2.7831 C   0  0  0  0  0  0  0  0  0  0  0  0
   22.5618   74.3319    3.6646 C   0  0  0  0  0  0  0  0  0  0  0  0
   21.5028   74.8740    4.2692 C   0  0  0  0  0  0  0  0  0  0  0  0
   20.1915   74.2007    4.1668 C   0  0  0  0  0  0  0  0  0  0  0  0
   19.3395   72.5602    3.3353 H   0  0  0  0  0  0  0  0  0  0  0  0
   21.9762   72.0141   -3.9899 O   0  0  0  0  0  0  0  0  0  0  0  0
   20.7056   72.9997   -4.1570 P   0  0  2  0  0  0  0  0  0  0  0  0
   21.3767   74.3884   -4.6483 O   0  0  0  0  0  0  0  0  0  0  0  0
   19.8572   73.1249   -2.9247 O   0  0  0  0  0  0  0  0  0  0  0  0
   19.9241   72.4437   -5.4542 O   0  0  0  0  0  0  0  0  0  0  0  0
   19.3552   70.1773   -5.0684 O   0  0  0  0  0  0  0  0  0  0  0  0
   17.8745   70.7791   -8.8781 O   0  0  0  0  0  0  0  0  0  0  0  0
   20.4808   71.8558   -8.1151 O   0  0  0  0  0  0  0  0  0  0  0  0
   16.0624   70.6792   -6.6071 O   0  0  0  0  0  0  0  0  0  0  0  0
   18.2317   71.1466   -7.5456 C   0  0  2  0  0  0  0  0  0  0  0  0
   19.7308   70.9286   -7.3391 C   0  0  2  0  0  0  0  0  0  0  0  0
   17.4286   70.2701   -6.5820 C   0  0  1  0  0  0  0  0  0  0  0  0
   20.1093   71.0907   -5.8662 C   0  0  1  0  0  0  0  0  0  0  0  0
   17.9483   70.3929   -5.1525 C   0  0  1  0  0  0  0  0  0  0  0  0
   18.3727   71.3232   -9.5083 H   0  0  0  0  0  0  0  0  0  0  0  0
   20.2454   71.7587   -9.0508 H   0  0  0  0  0  0  0  0  0  0  0  0
   15.7195   70.6059   -7.5115 H   0  0  0  0  0  0  0  0  0  0  0  0
   18.3656   68.7527   -3.5285 O   0  0  0  0  0  0  0  0  0  0  0  0
   16.2184   68.9631   -4.2665 O   0  0  0  0  0  0  0  0  0  0  0  0
   17.3905   69.3077   -4.2902 C   0  0  0  0  0  0  0  0  0  0  0  0
  1  4  1  0
  1 24  1  0
  1  2  1  1
  1  3  2  0
 25 28  1  0
 25 24  1  0
 25 26  1  6
 25 27  2  0
  6 11  1  0
  6 12  1  0
 29 36  1  0
 29 37  1  0
  9  7  1  1
  7 13  1  0
 10  8  1  1
  8 14  1  0
  4  5  1  0
 36 28  1  1
 33 30  1  6
 30 38  1  0
 34 31  1  6
 31 39  1  0
 35 32  1  1
 32 40  1  0
 41 43  1  0
 15 19  2  0
 42 43  2  0
 16 22  2  0
 12 17  1  6
 17 19  1  0
 17 20  1  0
 18 19  1  0
 18 22  1  0
 18 23  1  0
  9 10  1  0
  9 11  1  0
 10 12  1  0
 11  5  1  6
 33 34  1  0
 33 35  1  0
 34 36  1  0
 35 37  1  0
 37 43  1  1
 20 21  2  0
 21 22  1  0
M  CHG  3   2  -1  26  -1  41  -1
M  END
>  <COMPND>  (155) 
    udp_gluA.pdb 

>  <AUTHOR>  (155) 
    GENERATED BY OPEN BABEL 3.1.1

>  <MASTER>  (155) 
        0    0    0    0    0    0    0    0   56    0   56    0

>  <minimizedAffinity>  (155) 
-7.39154

>  <CNNscore>  (155) 
0.5509933233

>  <CNNaffinity>  (155) 
4.3910503387

>  <CNN_VS>  (155) 
2.4194393158

>  <CNNaffinity_variance>  (155) 
0.1852864325

$$$$
156
     RDKit          3D

 43 45  0  0  0  0  0  0  0  0999 V2000
   22.2416   72.9302   -2.7144 P   0  0  2  0  0  0  0  0  0  0  0  0
   20.7717   73.3419   -2.1769 O   0  0  0  0  0  0  0  0  0  0  0  0
   22.4468   71.4601   -2.9344 O   0  0  0  0  0  0  0  0  0  0  0  0
   23.2507   73.6306   -1.6614 O   0  0  0  0  0  0  0  0  0  0  0  0
   22.9265   73.5884   -0.2838 C   0  0  0  0  0  0  0  0  0  0  0  0
   24.3388   71.8659    0.6195 O   0  0  0  0  0  0  0  0  0  0  0  0
   21.8090   70.4787    1.4363 O   0  0  0  0  0  0  0  0  0  0  0  0
   22.6391   71.6253    3.7670 O   0  0  0  0  0  0  0  0  0  0  0  0
   22.1052   71.8751    1.4081 C   0  0  1  0  0  0  0  0  0  0  0  0
   23.0241   72.2392    2.5549 C   0  0  2  0  0  0  0  0  0  0  0  0
   22.9865   72.1439    0.1959 C   0  0  1  0  0  0  0  0  0  0  0  0
   24.3692   71.7449    2.0505 C   0  0  2  0  0  0  0  0  0  0  0  0
   21.2467   70.2825    2.2025 H   0  0  0  0  0  0  0  0  0  0  0  0
   21.7772   71.9734    4.0463 H   0  0  0  0  0  0  0  0  0  0  0  0
   27.0109   70.7844    2.3245 O   0  0  0  0  0  0  0  0  0  0  0  0
   28.4911   74.8055    4.0226 O   0  0  0  0  0  0  0  0  0  0  0  0
   25.4645   72.5196    2.5614 N   0  0  0  0  0  0  0  0  0  0  0  0
   27.7454   72.7878    3.1709 N   0  0  0  0  0  0  0  0  0  0  0  0
   26.7527   71.9423    2.6583 C   0  0  0  0  0  0  0  0  0  0  0  0
   25.2579   73.8352    2.9582 C   0  0  0  0  0  0  0  0  0  0  0  0
   26.2141   74.6287    3.4448 C   0  0  0  0  0  0  0  0  0  0  0  0
   27.5882   74.1023    3.5794 C   0  0  0  0  0  0  0  0  0  0  0  0
   28.6501   72.4075    3.2497 H   0  0  0  0  0  0  0  0  0  0  0  0
   22.4110   73.8395   -4.0400 O   0  0  0  0  0  0  0  0  0  0  0  0
   22.1251   73.5103   -5.5968 P   0  0  2  0  0  0  0  0  0  0  0  0
   23.2908   72.4514   -5.9710 O   0  0  0  0  0  0  0  0  0  0  0  0
   22.0808   74.7205   -6.4841 O   0  0  0  0  0  0  0  0  0  0  0  0
   20.7689   72.6366   -5.5879 O   0  0  0  0  0  0  0  0  0  0  0  0
   19.9119   70.4428   -5.3394 O   0  0  0  0  0  0  0  0  0  0  0  0
   18.5724   71.4458   -9.1166 O   0  0  0  0  0  0  0  0  0  0  0  0
   21.2834   72.1361   -8.2751 O   0  0  0  0  0  0  0  0  0  0  0  0
   16.7309   71.4476   -6.8672 O   0  0  0  0  0  0  0  0  0  0  0  0
   18.9547   71.6877   -7.7627 C   0  0  2  0  0  0  0  0  0  0  0  0
   20.4111   71.2690   -7.5596 C   0  0  2  0  0  0  0  0  0  0  0  0
   18.0337   70.8669   -6.8573 C   0  0  1  0  0  0  0  0  0  0  0  0
   20.7867   71.2969   -6.0774 C   0  0  1  0  0  0  0  0  0  0  0  0
   18.5449   70.8403   -5.4197 C   0  0  1  0  0  0  0  0  0  0  0  0
   19.1442   71.9571   -9.7106 H   0  0  0  0  0  0  0  0  0  0  0  0
   21.0505   72.1235   -9.2163 H   0  0  0  0  0  0  0  0  0  0  0  0
   16.3941   71.4706   -7.7765 H   0  0  0  0  0  0  0  0  0  0  0  0
   16.5115   69.7994   -4.8875 O   0  0  0  0  0  0  0  0  0  0  0  0
   18.3841   69.0162   -3.8487 O   0  0  0  0  0  0  0  0  0  0  0  0
   17.8421   69.7874   -4.6262 C   0  0  0  0  0  0  0  0  0  0  0  0
  1  4  1  0
  1 24  1  0
  1  2  1  1
  1  3  2  0
 25 28  1  0
 25 24  1  0
 25 26  1  6
 25 27  2  0
  6 11  1  0
  6 12  1  0
 29 36  1  0
 29 37  1  0
  9  7  1  1
  7 13  1  0
 10  8  1  1
  8 14  1  0
  4  5  1  0
 36 28  1  1
 33 30  1  6
 30 38  1  0
 34 31  1  6
 31 39  1  0
 35 32  1  1
 32 40  1  0
 41 43  1  0
 15 19  2  0
 42 43  2  0
 16 22  2  0
 12 17  1  1
 17 19  1  0
 17 20  1  0
 18 19  1  0
 18 22  1  0
 18 23  1  0
  9 10  1  0
  9 11  1  0
 10 12  1  0
 11  5  1  1
 33 34  1  0
 33 35  1  0
 34 36  1  0
 35 37  1  0
 37 43  1  1
 20 21  2  0
 21 22  1  0
M  CHG  3   2  -1  26  -1  41  -1
M  END
>  <COMPND>  (156) 
    udp_gluA.pdb 

>  <AUTHOR>  (156) 
    GENERATED BY OPEN BABEL 3.1.1

>  <MASTER>  (156) 
        0    0    0    0    0    0    0    0   56    0   56    0

>  <minimizedAffinity>  (156) 
-6.88554

>  <CNNscore>  (156) 
0.5494610071

>  <CNNaffinity>  (156) 
4.2544279099

>  <CNN_VS>  (156) 
2.3376421928

>  <CNNaffinity_variance>  (156) 
0.1066253334

$$$$
157
     RDKit          3D

 43 45  0  0  0  0  0  0  0  0999 V2000
   21.9491   73.4339   -7.0263 P   0  0  2  0  0  0  0  0  0  0  0  0
   20.6281   74.3071   -6.6926 O   0  0  0  0  0  0  0  0  0  0  0  0
   23.0805   74.2057   -7.6394 O   0  0  0  0  0  0  0  0  0  0  0  0
   21.3856   72.1967   -7.9037 O   0  0  0  0  0  0  0  0  0  0  0  0
   20.8834   71.0601   -7.2252 C   0  0  0  0  0  0  0  0  0  0  0  0
   18.9203   69.6731   -7.2409 O   0  0  0  0  0  0  0  0  0  0  0  0
   18.4652   70.6700  -10.0320 O   0  0  0  0  0  0  0  0  0  0  0  0
   16.7253   72.1770   -8.5700 O   0  0  0  0  0  0  0  0  0  0  0  0
   18.9923   71.3622   -8.9000 C   0  0  1  0  0  0  0  0  0  0  0  0
   17.8830   71.6909   -7.9234 C   0  0  2  0  0  0  0  0  0  0  0  0
   19.8391   70.3805   -8.1015 C   0  0  1  0  0  0  0  0  0  0  0  0
   17.6544   70.3518   -7.2434 C   0  0  2  0  0  0  0  0  0  0  0  0
   17.9204   71.2770  -10.5577 H   0  0  0  0  0  0  0  0  0  0  0  0
   16.9222   73.0310   -8.9869 H   0  0  0  0  0  0  0  0  0  0  0  0
   16.3394   68.3256   -5.7799 O   0  0  0  0  0  0  0  0  0  0  0  0
   15.9510   71.0139   -2.0561 O   0  0  0  0  0  0  0  0  0  0  0  0
   17.1988   70.4954   -5.8896 N   0  0  0  0  0  0  0  0  0  0  0  0
   16.1463   69.6668   -3.9270 N   0  0  0  0  0  0  0  0  0  0  0  0
   16.5491   69.4161   -5.2453 C   0  0  0  0  0  0  0  0  0  0  0  0
   17.3983   71.6932   -5.2141 C   0  0  0  0  0  0  0  0  0  0  0  0
   17.0088   71.9172   -3.9575 C   0  0  0  0  0  0  0  0  0  0  0  0
   16.3218   70.8413   -3.2133 C   0  0  0  0  0  0  0  0  0  0  0  0
   15.6900   68.9309   -3.4584 H   0  0  0  0  0  0  0  0  0  0  0  0
   22.2962   72.7440   -5.6063 O   0  0  0  0  0  0  0  0  0  0  0  0
   23.1006   73.3062   -4.3215 P   0  0  2  0  0  0  0  0  0  0  0  0
   22.7082   74.8764   -4.2975 O   0  0  0  0  0  0  0  0  0  0  0  0
   24.5775   73.0383   -4.3541 O   0  0  0  0  0  0  0  0  0  0  0  0
   22.3336   72.6753   -3.0502 O   0  0  0  0  0  0  0  0  0  0  0  0
   23.1659   71.0676   -1.5232 O   0  0  0  0  0  0  0  0  0  0  0  0
   19.1029   70.3314   -1.3877 O   0  0  0  0  0  0  0  0  0  0  0  0
   20.4292   70.8529   -3.9379 O   0  0  0  0  0  0  0  0  0  0  0  0
   20.4027   71.7482    0.7927 O   0  0  0  0  0  0  0  0  0  0  0  0
   20.2789   71.1277   -1.5321 C   0  0  2  0  0  0  0  0  0  0  0  0
   21.1056   70.6108   -2.7098 C   0  0  2  0  0  0  0  0  0  0  0  0
   21.0814   71.0260   -0.2331 C   0  0  1  0  0  0  0  0  0  0  0  0
   22.4765   71.2872   -2.7545 C   0  0  1  0  0  0  0  0  0  0  0  0
   22.4817   71.6101   -0.3961 C   0  0  1  0  0  0  0  0  0  0  0  0
   18.5770   70.3806   -2.2015 H   0  0  0  0  0  0  0  0  0  0  0  0
   19.5583   70.4268   -3.9164 H   0  0  0  0  0  0  0  0  0  0  0  0
   19.5099   71.3863    0.9063 H   0  0  0  0  0  0  0  0  0  0  0  0
   24.5060   71.9372    0.7426 O   0  0  0  0  0  0  0  0  0  0  0  0
   23.0824   70.3664    1.5822 O   0  0  0  0  0  0  0  0  0  0  0  0
   23.3571   71.2169    0.7490 C   0  0  0  0  0  0  0  0  0  0  0  0
  1  4  1  0
  1 24  1  0
  1  2  1  1
  1  3  2  0
 25 28  1  0
 25 24  1  0
 25 26  1  1
 25 27  2  0
  6 11  1  0
  6 12  1  0
 29 36  1  0
 29 37  1  0
  9  7  1  6
  7 13  1  0
 10  8  1  6
  8 14  1  0
  4  5  1  0
 36 28  1  1
 33 30  1  1
 30 38  1  0
 34 31  1  6
 31 39  1  0
 35 32  1  1
 32 40  1  0
 41 43  1  0
 15 19  2  0
 42 43  2  0
 16 22  2  0
 12 17  1  1
 17 19  1  0
 17 20  1  0
 18 19  1  0
 18 22  1  0
 18 23  1  0
  9 10  1  0
  9 11  1  0
 10 12  1  0
 11  5  1  1
 33 34  1  0
 33 35  1  0
 34 36  1  0
 35 37  1  0
 37 43  1  1
 20 21  2  0
 21 22  1  0
M  CHG  3   2  -1  26  -1  41  -1
M  END
>  <COMPND>  (157) 
    udp_gluA.pdb 

>  <AUTHOR>  (157) 
    GENERATED BY OPEN BABEL 3.1.1

>  <MASTER>  (157) 
        0    0    0    0    0    0    0    0   56    0   56    0

>  <minimizedAffinity>  (157) 
-7.61270

>  <CNNscore>  (157) 
0.5071163774

>  <CNNaffinity>  (157) 
4.1954917908

>  <CNN_VS>  (157) 
2.1276025772

>  <CNNaffinity_variance>  (157) 
0.3840366006

$$$$
158
     RDKit          3D

 43 45  0  0  0  0  0  0  0  0999 V2000
   20.6673   73.5337   -2.9872 P   0  0  2  0  0  0  0  0  0  0  0  0
   19.4123   72.5434   -2.7355 O   0  0  0  0  0  0  0  0  0  0  0  0
   20.9054   74.5430   -1.9026 O   0  0  0  0  0  0  0  0  0  0  0  0
   20.3947   74.1389   -4.4628 O   0  0  0  0  0  0  0  0  0  0  0  0
   19.1150   74.6728   -4.7488 C   0  0  0  0  0  0  0  0  0  0  0  0
   18.9532   73.4499   -6.8118 O   0  0  0  0  0  0  0  0  0  0  0  0
   17.7851   75.9496   -7.9860 O   0  0  0  0  0  0  0  0  0  0  0  0
   15.5767   74.4149   -7.5345 O   0  0  0  0  0  0  0  0  0  0  0  0
   17.6243   75.4060   -6.6756 C   0  0  1  0  0  0  0  0  0  0  0  0
   16.7082   74.2012   -6.7168 C   0  0  2  0  0  0  0  0  0  0  0  0
   18.9501   74.7840   -6.2590 C   0  0  1  0  0  0  0  0  0  0  0  0
   17.6291   73.1234   -7.2627 C   0  0  2  0  0  0  0  0  0  0  0  0
   16.9507   76.3527   -8.2738 H   0  0  0  0  0  0  0  0  0  0  0  0
   15.0224   75.1095   -7.1442 H   0  0  0  0  0  0  0  0  0  0  0  0
   15.6252   71.4901   -8.4001 O   0  0  0  0  0  0  0  0  0  0  0  0
   16.3873   68.1180   -5.3518 O   0  0  0  0  0  0  0  0  0  0  0  0
   17.2832   71.8141   -6.7862 N   0  0  0  0  0  0  0  0  0  0  0  0
   16.0060   69.8126   -6.8802 N   0  0  0  0  0  0  0  0  0  0  0  0
   16.2609   71.0764   -7.4286 C   0  0  0  0  0  0  0  0  0  0  0  0
   17.9540   71.2732   -5.6960 C   0  0  0  0  0  0  0  0  0  0  0  0
   17.6999   70.0671   -5.1846 C   0  0  0  0  0  0  0  0  0  0  0  0
   16.6458   69.2320   -5.7970 C   0  0  0  0  0  0  0  0  0  0  0  0
   15.2970   69.2811   -7.3093 H   0  0  0  0  0  0  0  0  0  0  0  0
   21.8933   72.5098   -3.2351 O   0  0  0  0  0  0  0  0  0  0  0  0
   23.2884   72.3126   -2.4423 P   0  0  2  0  0  0  0  0  0  0  0  0
   24.0406   73.7294   -2.6593 O   0  0  0  0  0  0  0  0  0  0  0  0
   24.0828   71.1169   -2.8818 O   0  0  0  0  0  0  0  0  0  0  0  0
   22.8754   72.3056   -0.8828 O   0  0  0  0  0  0  0  0  0  0  0  0
   23.8758   70.7600    0.6070 O   0  0  0  0  0  0  0  0  0  0  0  0
   20.5348   71.9359    2.7338 O   0  0  0  0  0  0  0  0  0  0  0  0
   20.3536   71.4032   -0.1328 O   0  0  0  0  0  0  0  0  0  0  0  0
   23.1593   72.9539    3.4594 O   0  0  0  0  0  0  0  0  0  0  0  0
   21.6191   72.0933    1.8187 C   0  0  2  0  0  0  0  0  0  0  0  0
   21.4776   71.0839    0.6791 C   0  0  2  0  0  0  0  0  0  0  0  0
   22.9224   71.8531    2.5838 C   0  0  1  0  0  0  0  0  0  0  0  0
   22.7332   71.0647   -0.1937 C   0  0  1  0  0  0  0  0  0  0  0  0
   24.1096   71.7209    1.6343 C   0  0  1  0  0  0  0  0  0  0  0  0
   19.6957   72.0839    2.2698 H   0  0  0  0  0  0  0  0  0  0  0  0
   19.5534   71.4174    0.4147 H   0  0  0  0  0  0  0  0  0  0  0  0
   22.4109   73.0491    4.0690 H   0  0  0  0  0  0  0  0  0  0  0  0
   25.0802   69.8810    2.7179 O   0  0  0  0  0  0  0  0  0  0  0  0
   26.3336   71.7798    2.5679 O   0  0  0  0  0  0  0  0  0  0  0  0
   25.3000   71.1667    2.3473 C   0  0  0  0  0  0  0  0  0  0  0  0
  1  4  1  0
  1 24  1  0
  1  2  1  1
  1  3  2  0
 25 28  1  0
 25 24  1  0
 25 26  1  1
 25 27  2  0
  6 11  1  0
  6 12  1  0
 29 36  1  0
 29 37  1  0
  9  7  1  6
  7 13  1  0
 10  8  1  6
  8 14  1  0
  4  5  1  0
 36 28  1  1
 33 30  1  1
 30 38  1  0
 34 31  1  6
 31 39  1  0
 35 32  1  1
 32 40  1  0
 41 43  1  0
 15 19  2  0
 42 43  2  0
 16 22  2  0
 12 17  1  1
 17 19  1  0
 17 20  1  0
 18 19  1  0
 18 22  1  0
 18 23  1  0
  9 10  1  0
  9 11  1  0
 10 12  1  0
 11  5  1  1
 33 34  1  0
 33 35  1  0
 34 36  1  0
 35 37  1  0
 37 43  1  1
 20 21  2  0
 21 22  1  0
M  CHG  3   2  -1  26  -1  41  -1
M  END
>  <COMPND>  (158) 
    udp_gluA.pdb 

>  <AUTHOR>  (158) 
    GENERATED BY OPEN BABEL 3.1.1

>  <MASTER>  (158) 
        0    0    0    0    0    0    0    0   56    0   56    0

>  <minimizedAffinity>  (158) 
-6.79116

>  <CNNscore>  (158) 
0.5020322800

>  <CNNaffinity>  (158) 
4.0450010300

>  <CNN_VS>  (158) 
2.0307211876

>  <CNNaffinity_variance>  (158) 
0.3011078238

$$$$
159
     RDKit          3D

 43 45  0  0  0  0  0  0  0  0999 V2000
   23.9330   73.2285   -3.5701 P   0  0  2  0  0  0  0  0  0  0  0  0
   24.1283   71.6245   -3.6590 O   0  0  0  0  0  0  0  0  0  0  0  0
   25.0695   74.0369   -4.1238 O   0  0  0  0  0  0  0  0  0  0  0  0
   23.5771   73.4909   -2.0136 O   0  0  0  0  0  0  0  0  0  0  0  0
   22.2285   73.3724   -1.5992 C   0  0  0  0  0  0  0  0  0  0  0  0
   23.2227   71.4938   -0.4767 O   0  0  0  0  0  0  0  0  0  0  0  0
   20.4213   70.5711    0.0636 O   0  0  0  0  0  0  0  0  0  0  0  0
   21.1509   71.6856    2.4431 O   0  0  0  0  0  0  0  0  0  0  0  0
   20.9446   71.8991    0.0298 C   0  0  1  0  0  0  0  0  0  0  0  0
   21.7707   72.1687    1.2696 C   0  0  2  0  0  0  0  0  0  0  0  0
   21.9935   71.9627   -1.0720 C   0  0  1  0  0  0  0  0  0  0  0  0
   23.0655   71.4413    0.9501 C   0  0  2  0  0  0  0  0  0  0  0  0
   19.7488   70.5059    0.7603 H   0  0  0  0  0  0  0  0  0  0  0  0
   20.3315   72.1805    2.6032 H   0  0  0  0  0  0  0  0  0  0  0  0
   25.0302   70.0418    2.4191 O   0  0  0  0  0  0  0  0  0  0  0  0
   27.3984   73.9014    3.2785 O   0  0  0  0  0  0  0  0  0  0  0  0
   24.2062   72.0557    1.5685 N   0  0  0  0  0  0  0  0  0  0  0  0
   26.2073   71.9656    2.8466 N   0  0  0  0  0  0  0  0  0  0  0  0
   25.1339   71.2624    2.2841 C   0  0  0  0  0  0  0  0  0  0  0  0
   24.3979   73.4278    1.4617 C   0  0  0  0  0  0  0  0  0  0  0  0
   25.4260   74.0839    2.0032 C   0  0  0  0  0  0  0  0  0  0  0  0
   26.4403   73.3291    2.7680 C   0  0  0  0  0  0  0  0  0  0  0  0
   26.8653   71.4349    3.3513 H   0  0  0  0  0  0  0  0  0  0  0  0
   22.5159   73.4631   -4.3114 O   0  0  0  0  0  0  0  0  0  0  0  0
   22.0616   73.2003   -5.8405 P   0  0  2  0  0  0  0  0  0  0  0  0
   20.5871   72.5513   -5.6820 O   0  0  0  0  0  0  0  0  0  0  0  0
   23.0234   72.3637   -6.6335 O   0  0  0  0  0  0  0  0  0  0  0  0
   21.7959   74.6713   -6.4471 O   0  0  0  0  0  0  0  0  0  0  0  0
   23.8983   75.4828   -7.1755 O   0  0  0  0  0  0  0  0  0  0  0  0
   21.3809   78.5711   -8.2678 O   0  0  0  0  0  0  0  0  0  0  0  0
   21.0620   77.2436   -5.6851 O   0  0  0  0  0  0  0  0  0  0  0  0
   22.4043   76.7411  -10.2814 O   0  0  0  0  0  0  0  0  0  0  0  0
   21.7445   77.2143   -8.0130 C   0  0  2  0  0  0  0  0  0  0  0  0
   22.1749   77.0653   -6.5536 C   0  0  2  0  0  0  0  0  0  0  0  0
   22.8998   76.8507   -8.9484 C   0  0  1  0  0  0  0  0  0  0  0  0
   22.7872   75.6867   -6.3018 C   0  0  1  0  0  0  0  0  0  0  0  0
   23.5383   75.5219   -8.5546 C   0  0  1  0  0  0  0  0  0  0  0  0
   20.6482   78.8246   -7.6846 H   0  0  0  0  0  0  0  0  0  0  0  0
   20.6684   78.1163   -5.8396 H   0  0  0  0  0  0  0  0  0  0  0  0
   21.9951   77.5804  -10.5443 H   0  0  0  0  0  0  0  0  0  0  0  0
   24.6584   75.0316  -10.5563 O   0  0  0  0  0  0  0  0  0  0  0  0
   25.9443   75.4453   -8.7193 O   0  0  0  0  0  0  0  0  0  0  0  0
   24.8484   75.3366   -9.2487 C   0  0  0  0  0  0  0  0  0  0  0  0
  1  4  1  0
  1 24  1  0
  1  2  1  1
  1  3  2  0
 25 28  1  0
 25 24  1  0
 25 26  1  1
 25 27  2  0
  6 11  1  0
  6 12  1  0
 29 36  1  0
 29 37  1  0
  9  7  1  1
  7 13  1  0
 10  8  1  1
  8 14  1  0
  4  5  1  0
 36 28  1  6
 33 30  1  1
 30 38  1  0
 34 31  1  1
 31 39  1  0
 35 32  1  6
 32 40  1  0
 41 43  1  0
 15 19  2  0
 42 43  2  0
 16 22  2  0
 12 17  1  1
 17 19  1  0
 17 20  1  0
 18 19  1  0
 18 22  1  0
 18 23  1  0
  9 10  1  0
  9 11  1  0
 10 12  1  0
 11  5  1  1
 33 34  1  0
 33 35  1  0
 34 36  1  0
 35 37  1  0
 37 43  1  6
 20 21  2  0
 21 22  1  0
M  CHG  3   2  -1  26  -1  41  -1
M  END
>  <COMPND>  (159) 
    udp_gluA.pdb 

>  <AUTHOR>  (159) 
    GENERATED BY OPEN BABEL 3.1.1

>  <MASTER>  (159) 
        0    0    0    0    0    0    0    0   56    0   56    0

>  <minimizedAffinity>  (159) 
-6.48700

>  <CNNscore>  (159) 
0.4934043884

>  <CNNaffinity>  (159) 
4.0947074890

>  <CNN_VS>  (159) 
2.0203466415

>  <CNNaffinity_variance>  (159) 
0.0951493233

$$$$
160
     RDKit          3D

 43 45  0  0  0  0  0  0  0  0999 V2000
   23.2064   71.9229   -2.5882 P   0  0  2  0  0  0  0  0  0  0  0  0
   24.3833   70.9624   -3.1460 O   0  0  0  0  0  0  0  0  0  0  0  0
   23.6509   73.2956   -2.1760 O   0  0  0  0  0  0  0  0  0  0  0  0
   22.4969   71.0380   -1.4342 O   0  0  0  0  0  0  0  0  0  0  0  0
   22.2455   71.6413   -0.1783 C   0  0  0  0  0  0  0  0  0  0  0  0
   20.4171   71.6996    1.3810 O   0  0  0  0  0  0  0  0  0  0  0  0
   18.8952   73.1688   -0.7442 O   0  0  0  0  0  0  0  0  0  0  0  0
   19.6730   75.1774    0.9281 O   0  0  0  0  0  0  0  0  0  0  0  0
   20.2818   73.2418   -0.4117 C   0  0  1  0  0  0  0  0  0  0  0  0
   20.4719   74.0139    0.8767 C   0  0  2  0  0  0  0  0  0  0  0  0
   20.7445   71.8458   -0.0178 C   0  0  1  0  0  0  0  0  0  0  0  0
   20.0752   72.9855    1.9221 C   0  0  2  0  0  0  0  0  0  0  0  0
   18.5767   74.0493   -0.9992 H   0  0  0  0  0  0  0  0  0  0  0  0
   19.9651   75.8006    0.2438 H   0  0  0  0  0  0  0  0  0  0  0  0
   19.0261   74.3707    4.1486 O   0  0  0  0  0  0  0  0  0  0  0  0
   22.8359   73.6307    6.6348 O   0  0  0  0  0  0  0  0  0  0  0  0
   20.7715   73.1698    3.1639 N   0  0  0  0  0  0  0  0  0  0  0  0
   20.9250   74.0017    5.3844 N   0  0  0  0  0  0  0  0  0  0  0  0
   20.1550   73.8816    4.2200 C   0  0  0  0  0  0  0  0  0  0  0  0
   22.0488   72.6473    3.3270 C   0  0  0  0  0  0  0  0  0  0  0  0
   22.7703   72.7698    4.4429 C   0  0  0  0  0  0  0  0  0  0  0  0
   22.1994   73.5001    5.5936 C   0  0  0  0  0  0  0  0  0  0  0  0
   20.5176   74.4949    6.1328 H   0  0  0  0  0  0  0  0  0  0  0  0
   22.1199   71.8980   -3.7848 O   0  0  0  0  0  0  0  0  0  0  0  0
   21.8870   72.9048   -5.0281 P   0  0  2  0  0  0  0  0  0  0  0  0
   23.0643   72.4955   -6.0610 O   0  0  0  0  0  0  0  0  0  0  0  0
   21.8737   74.3576   -4.6499 O   0  0  0  0  0  0  0  0  0  0  0  0
   20.5309   72.3829   -5.7288 O   0  0  0  0  0  0  0  0  0  0  0  0
   19.4916   70.2576   -5.6177 O   0  0  0  0  0  0  0  0  0  0  0  0
   18.4752   71.4924   -9.4270 O   0  0  0  0  0  0  0  0  0  0  0  0
   21.1733   71.9343   -8.3976 O   0  0  0  0  0  0  0  0  0  0  0  0
   16.5013   71.5653   -7.2941 O   0  0  0  0  0  0  0  0  0  0  0  0
   18.7891   71.6568   -8.0441 C   0  0  2  0  0  0  0  0  0  0  0  0
   20.1927   71.1161   -7.7701 C   0  0  2  0  0  0  0  0  0  0  0  0
   17.7517   70.8822   -7.2283 C   0  0  1  0  0  0  0  0  0  0  0  0
   20.4751   71.0634   -6.2680 C   0  0  1  0  0  0  0  0  0  0  0  0
   18.1676   70.7659   -5.7647 C   0  0  1  0  0  0  0  0  0  0  0  0
   19.1215   71.9761   -9.9651 H   0  0  0  0  0  0  0  0  0  0  0  0
   21.0000   71.9724   -9.3509 H   0  0  0  0  0  0  0  0  0  0  0  0
   16.2253   71.6461   -8.2204 H   0  0  0  0  0  0  0  0  0  0  0  0
   16.6165   69.0155   -5.9434 O   0  0  0  0  0  0  0  0  0  0  0  0
   17.3051   69.5850   -3.8456 O   0  0  0  0  0  0  0  0  0  0  0  0
   17.3363   69.7464   -5.0564 C   0  0  0  0  0  0  0  0  0  0  0  0
  1  4  1  0
  1 24  1  0
  1  2  1  6
  1  3  2  0
 25 28  1  0
 25 24  1  0
 25 26  1  6
 25 27  2  0
  6 11  1  0
  6 12  1  0
 29 36  1  0
 29 37  1  0
  9  7  1  1
  7 13  1  0
 10  8  1  6
  8 14  1  0
  4  5  1  0
 36 28  1  1
 33 30  1  6
 30 38  1  0
 34 31  1  6
 31 39  1  0
 35 32  1  1
 32 40  1  0
 41 43  1  0
 15 19  2  0
 42 43  2  0
 16 22  2  0
 12 17  1  1
 17 19  1  0
 17 20  1  0
 18 19  1  0
 18 22  1  0
 18 23  1  0
  9 10  1  0
  9 11  1  0
 10 12  1  0
 11  5  1  1
 33 34  1  0
 33 35  1  0
 34 36  1  0
 35 37  1  0
 37 43  1  1
 20 21  2  0
 21 22  1  0
M  CHG  3   2  -1  26  -1  41  -1
M  END
>  <COMPND>  (160) 
    udp_gluA.pdb 

>  <AUTHOR>  (160) 
    GENERATED BY OPEN BABEL 3.1.1

>  <MASTER>  (160) 
        0    0    0    0    0    0    0    0   56    0   56    0

>  <minimizedAffinity>  (160) 
-7.10214

>  <CNNscore>  (160) 
0.4768931568

>  <CNNaffinity>  (160) 
3.9933419228

>  <CNN_VS>  (160) 
1.9043974876

>  <CNNaffinity_variance>  (160) 
0.1029931754

$$$$
161
     RDKit          3D

 43 45  0  0  0  0  0  0  0  0999 V2000
   21.9523   71.4941   -3.0142 P   0  0  2  0  0  0  0  0  0  0  0  0
   23.4968   71.0801   -3.2630 O   0  0  0  0  0  0  0  0  0  0  0  0
   21.4743   71.3379   -1.6003 O   0  0  0  0  0  0  0  0  0  0  0  0
   21.1390   70.6484   -4.1283 O   0  0  0  0  0  0  0  0  0  0  0  0
   20.1890   69.6937   -3.6920 C   0  0  0  0  0  0  0  0  0  0  0  0
   18.6072   71.1840   -4.7189 O   0  0  0  0  0  0  0  0  0  0  0  0
   16.5821   70.0397   -2.8265 O   0  0  0  0  0  0  0  0  0  0  0  0
   16.0322   68.7273   -5.1527 O   0  0  0  0  0  0  0  0  0  0  0  0
   17.6714   69.3921   -3.4843 C   0  0  1  0  0  0  0  0  0  0  0  0
   17.3518   69.1880   -4.9501 C   0  0  2  0  0  0  0  0  0  0  0  0
   18.8338   70.3736   -3.5453 C   0  0  1  0  0  0  0  0  0  0  0  0
   17.5797   70.5781   -5.5191 C   0  0  2  0  0  0  0  0  0  0  0  0
   15.8273   69.4320   -2.7756 H   0  0  0  0  0  0  0  0  0  0  0  0
   15.9381   67.8390   -4.7732 H   0  0  0  0  0  0  0  0  0  0  0  0
   15.8528   70.2482   -7.7294 O   0  0  0  0  0  0  0  0  0  0  0  0
   19.3481   70.4698  -10.7257 O   0  0  0  0  0  0  0  0  0  0  0  0
   18.0118   70.5459   -6.8877 N   0  0  0  0  0  0  0  0  0  0  0  0
   17.5954   70.3579   -9.2196 N   0  0  0  0  0  0  0  0  0  0  0  0
   17.0632   70.3751   -7.9236 C   0  0  0  0  0  0  0  0  0  0  0  0
   19.3605   70.6841   -7.1927 C   0  0  0  0  0  0  0  0  0  0  0  0
   19.8527   70.6657   -8.4329 C   0  0  0  0  0  0  0  0  0  0  0  0
   18.9286   70.4908   -9.5725 C   0  0  0  0  0  0  0  0  0  0  0  0
   16.9545   70.2382   -9.9573 H   0  0  0  0  0  0  0  0  0  0  0  0
   21.8853   73.0051   -3.5845 O   0  0  0  0  0  0  0  0  0  0  0  0
   22.4837   73.6563   -4.9378 P   0  0  2  0  0  0  0  0  0  0  0  0
   21.2362   74.5062   -5.5224 O   0  0  0  0  0  0  0  0  0  0  0  0
   23.0568   72.6573   -5.9008 O   0  0  0  0  0  0  0  0  0  0  0  0
   23.5320   74.7710   -4.4268 O   0  0  0  0  0  0  0  0  0  0  0  0
   25.8916   74.6083   -4.3052 O   0  0  0  0  0  0  0  0  0  0  0  0
   25.0716   77.2471   -1.2340 O   0  0  0  0  0  0  0  0  0  0  0  0
   23.3929   74.8930   -1.6516 O   0  0  0  0  0  0  0  0  0  0  0  0
   26.1722   78.2229   -3.7415 O   0  0  0  0  0  0  0  0  0  0  0  0
   24.8722   76.6185   -2.5002 C   0  0  2  0  0  0  0  0  0  0  0  0
   24.6402   75.1210   -2.2972 C   0  0  2  0  0  0  0  0  0  0  0  0
   26.1251   76.8530   -3.3471 C   0  0  1  0  0  0  0  0  0  0  0  0
   24.6517   74.3794   -3.6346 C   0  0  1  0  0  0  0  0  0  0  0  0
   26.1202   75.9841   -4.6015 C   0  0  1  0  0  0  0  0  0  0  0  0
   24.2879   77.1113   -0.6784 H   0  0  0  0  0  0  0  0  0  0  0  0
   23.3785   75.3609   -0.8024 H   0  0  0  0  0  0  0  0  0  0  0  0
   26.1756   78.7867   -2.9522 H   0  0  0  0  0  0  0  0  0  0  0  0
   27.8257   77.2171   -5.6371 O   0  0  0  0  0  0  0  0  0  0  0  0
   28.1651   74.9758   -5.3909 O   0  0  0  0  0  0  0  0  0  0  0  0
   27.4700   75.9696   -5.2420 C   0  0  0  0  0  0  0  0  0  0  0  0
  1  4  1  0
  1 24  1  0
  1  2  1  1
  1  3  2  0
 25 28  1  0
 25 24  1  0
 25 26  1  6
 25 27  2  0
  6 11  1  0
  6 12  1  0
 29 36  1  0
 29 37  1  0
  9  7  1  1
  7 13  1  0
 10  8  1  1
  8 14  1  0
  4  5  1  0
 36 28  1  6
 33 30  1  1
 30 38  1  0
 34 31  1  6
 31 39  1  0
 35 32  1  6
 32 40  1  0
 41 43  1  0
 15 19  2  0
 42 43  2  0
 16 22  2  0
 12 17  1  6
 17 19  1  0
 17 20  1  0
 18 19  1  0
 18 22  1  0
 18 23  1  0
  9 10  1  0
  9 11  1  0
 10 12  1  0
 11  5  1  6
 33 34  1  0
 33 35  1  0
 34 36  1  0
 35 37  1  0
 37 43  1  1
 20 21  2  0
 21 22  1  0
M  CHG  3   2  -1  26  -1  41  -1
M  END
>  <COMPND>  (161) 
    udp_gluA.pdb 

>  <AUTHOR>  (161) 
    GENERATED BY OPEN BABEL 3.1.1

>  <MASTER>  (161) 
        0    0    0    0    0    0    0    0   56    0   56    0

>  <minimizedAffinity>  (161) 
-7.21949

>  <CNNscore>  (161) 
0.9326758385

>  <CNNaffinity>  (161) 
4.7638168335

>  <CNN_VS>  (161) 
4.4430966377

>  <CNNaffinity_variance>  (161) 
0.1784311682

$$$$
162
     RDKit          3D

 43 45  0  0  0  0  0  0  0  0999 V2000
   22.7372   71.5946   -2.6212 P   0  0  2  0  0  0  0  0  0  0  0  0
   24.1619   70.9940   -3.0994 O   0  0  0  0  0  0  0  0  0  0  0  0
   22.2702   71.1225   -1.2756 O   0  0  0  0  0  0  0  0  0  0  0  0
   21.7462   71.2769   -3.8601 O   0  0  0  0  0  0  0  0  0  0  0  0
   20.7985   70.2347   -3.7178 C   0  0  0  0  0  0  0  0  0  0  0  0
   19.0180   71.5401   -4.6682 O   0  0  0  0  0  0  0  0  0  0  0  0
   17.2917   70.4394   -2.4774 O   0  0  0  0  0  0  0  0  0  0  0  0
   16.5824   68.9096   -4.6205 O   0  0  0  0  0  0  0  0  0  0  0  0
   18.3443   69.8046   -3.2038 C   0  0  1  0  0  0  0  0  0  0  0  0
   17.8821   69.4619   -4.6042 C   0  0  2  0  0  0  0  0  0  0  0  0
   19.4245   70.8440   -3.4702 C   0  0  1  0  0  0  0  0  0  0  0  0
   17.9529   70.8111   -5.2987 C   0  0  2  0  0  0  0  0  0  0  0  0
   16.5895   69.7948   -2.2955 H   0  0  0  0  0  0  0  0  0  0  0  0
   16.5900   68.0517   -4.1667 H   0  0  0  0  0  0  0  0  0  0  0  0
   16.0074   70.2889   -7.2783 O   0  0  0  0  0  0  0  0  0  0  0  0
   19.1504   70.3726  -10.6486 O   0  0  0  0  0  0  0  0  0  0  0  0
   18.2353   70.6915   -6.7012 N   0  0  0  0  0  0  0  0  0  0  0  0
   17.5748   70.3301   -8.9549 N   0  0  0  0  0  0  0  0  0  0  0  0
   17.1856   70.4276   -7.6125 C   0  0  0  0  0  0  0  0  0  0  0  0
   19.5385   70.8366   -7.1611 C   0  0  0  0  0  0  0  0  0  0  0  0
   19.8940   70.7410   -8.4438 C   0  0  0  0  0  0  0  0  0  0  0  0
   18.8576   70.4661   -9.4604 C   0  0  0  0  0  0  0  0  0  0  0  0
   16.8616   70.1448   -9.6079 H   0  0  0  0  0  0  0  0  0  0  0  0
   22.9602   73.1916   -2.7345 O   0  0  0  0  0  0  0  0  0  0  0  0
   22.0177   74.3541   -3.3458 P   0  0  2  0  0  0  0  0  0  0  0  0
   22.5987   75.7002   -2.6597 O   0  0  0  0  0  0  0  0  0  0  0  0
   20.5486   74.1338   -3.1285 O   0  0  0  0  0  0  0  0  0  0  0  0
   22.4562   74.4645   -4.8944 O   0  0  0  0  0  0  0  0  0  0  0  0
   20.8625   75.2677   -6.4514 O   0  0  0  0  0  0  0  0  0  0  0  0
   23.7075   73.6042   -8.9427 O   0  0  0  0  0  0  0  0  0  0  0  0
   22.9000   72.2323   -6.4932 O   0  0  0  0  0  0  0  0  0  0  0  0
   23.5351   76.4911   -8.6474 O   0  0  0  0  0  0  0  0  0  0  0  0
   23.2267   74.2671   -7.7734 C   0  0  2  0  0  0  0  0  0  0  0  0
   22.2333   73.3622   -7.0441 C   0  0  2  0  0  0  0  0  0  0  0  0
   22.5426   75.5637   -8.2124 C   0  0  1  0  0  0  0  0  0  0  0  0
   21.5262   74.1204   -5.9197 C   0  0  1  0  0  0  0  0  0  0  0  0
   21.7552   76.1935   -7.0670 C   0  0  1  0  0  0  0  0  0  0  0  0
   24.1462   72.7771   -8.6884 H   0  0  0  0  0  0  0  0  0  0  0  0
   23.3511   71.7467   -7.2011 H   0  0  0  0  0  0  0  0  0  0  0  0
   24.0436   76.1023   -9.3762 H   0  0  0  0  0  0  0  0  0  0  0  0
   20.9542   77.3867   -8.9207 O   0  0  0  0  0  0  0  0  0  0  0  0
   20.0805   77.9207   -6.8835 O   0  0  0  0  0  0  0  0  0  0  0  0
   20.8372   77.2568   -7.5760 C   0  0  0  0  0  0  0  0  0  0  0  0
  1  4  1  0
  1 24  1  0
  1  2  1  6
  1  3  2  0
 25 28  1  0
 25 24  1  0
 25 26  1  1
 25 27  2  0
  6 11  1  0
  6 12  1  0
 29 36  1  0
 29 37  1  0
  9  7  1  1
  7 13  1  0
 10  8  1  1
  8 14  1  0
  4  5  1  0
 36 28  1  1
 33 30  1  6
 30 38  1  0
 34 31  1  1
 31 39  1  0
 35 32  1  1
 32 40  1  0
 41 43  1  0
 15 19  2  0
 42 43  2  0
 16 22  2  0
 12 17  1  6
 17 19  1  0
 17 20  1  0
 18 19  1  0
 18 22  1  0
 18 23  1  0
  9 10  1  0
  9 11  1  0
 10 12  1  0
 11  5  1  6
 33 34  1  0
 33 35  1  0
 34 36  1  0
 35 37  1  0
 37 43  1  6
 20 21  2  0
 21 22  1  0
M  CHG  3   2  -1  26  -1  41  -1
M  END
>  <COMPND>  (162) 
    udp_gluA.pdb 

>  <AUTHOR>  (162) 
    GENERATED BY OPEN BABEL 3.1.1

>  <MASTER>  (162) 
        0    0    0    0    0    0    0    0   56    0   56    0

>  <minimizedAffinity>  (162) 
-7.38376

>  <CNNscore>  (162) 
0.9317241311

>  <CNNaffinity>  (162) 
4.7932424545

>  <CNN_VS>  (162) 
4.4659795761

>  <CNNaffinity_variance>  (162) 
0.2062727660

$$$$
163
     RDKit          3D

 43 45  0  0  0  0  0  0  0  0999 V2000
   21.8418   72.6213   -4.7637 P   0  0  2  0  0  0  0  0  0  0  0  0
   20.9519   73.9569   -4.9712 O   0  0  0  0  0  0  0  0  0  0  0  0
   23.0716   72.5401   -5.6198 O   0  0  0  0  0  0  0  0  0  0  0  0
   20.7792   71.4145   -4.9440 O   0  0  0  0  0  0  0  0  0  0  0  0
   20.1805   70.8622   -3.7860 C   0  0  0  0  0  0  0  0  0  0  0  0
   18.3669   71.8674   -5.0016 O   0  0  0  0  0  0  0  0  0  0  0  0
   16.5631   70.6983   -2.9108 O   0  0  0  0  0  0  0  0  0  0  0  0
   16.2730   68.9571   -4.9893 O   0  0  0  0  0  0  0  0  0  0  0  0
   17.7551   70.1573   -3.4810 C   0  0  1  0  0  0  0  0  0  0  0  0
   17.4881   69.6700   -4.8894 C   0  0  2  0  0  0  0  0  0  0  0  0
   18.7250   71.3064   -3.7200 C   0  0  1  0  0  0  0  0  0  0  0  0
   17.4696   70.9702   -5.6748 C   0  0  2  0  0  0  0  0  0  0  0  0
   15.9280   69.9826   -2.7491 H   0  0  0  0  0  0  0  0  0  0  0  0
   16.3354   68.1378   -4.4728 H   0  0  0  0  0  0  0  0  0  0  0  0
   15.8130   70.1107   -7.7946 O   0  0  0  0  0  0  0  0  0  0  0  0
   19.2702   70.3453  -10.8338 O   0  0  0  0  0  0  0  0  0  0  0  0
   17.9109   70.7981   -7.0300 N   0  0  0  0  0  0  0  0  0  0  0  0
   17.5367   70.2274   -9.3061 N   0  0  0  0  0  0  0  0  0  0  0  0
   16.9985   70.3617   -8.0195 C   0  0  0  0  0  0  0  0  0  0  0  0
   19.2328   71.0620   -7.3677 C   0  0  0  0  0  0  0  0  0  0  0  0
   19.7311   70.9294   -8.5985 C   0  0  0  0  0  0  0  0  0  0  0  0
   18.8442   70.4771   -9.6904 C   0  0  0  0  0  0  0  0  0  0  0  0
   16.9210   69.9229  -10.0114 H   0  0  0  0  0  0  0  0  0  0  0  0
   22.1276   72.6193   -3.1727 O   0  0  0  0  0  0  0  0  0  0  0  0
   23.4835   72.3386   -2.3382 P   0  0  2  0  0  0  0  0  0  0  0  0
   24.3057   73.7245   -2.4915 O   0  0  0  0  0  0  0  0  0  0  0  0
   24.2385   71.1192   -2.7822 O   0  0  0  0  0  0  0  0  0  0  0  0
   23.0157   72.3112   -0.7946 O   0  0  0  0  0  0  0  0  0  0  0  0
   24.4140   71.1222    0.7022 O   0  0  0  0  0  0  0  0  0  0  0  0
   21.0400   71.7309    3.0074 O   0  0  0  0  0  0  0  0  0  0  0  0
   20.7962   70.9617    0.1996 O   0  0  0  0  0  0  0  0  0  0  0  0
   23.4281   73.3236    3.4670 O   0  0  0  0  0  0  0  0  0  0  0  0
   22.0061   72.0424    2.0036 C   0  0  2  0  0  0  0  0  0  0  0  0
   22.0113   70.9443    0.9399 C   0  0  2  0  0  0  0  0  0  0  0  0
   23.3762   72.1360    2.6788 C   0  0  1  0  0  0  0  0  0  0  0  0
   23.1847   71.1224   -0.0246 C   0  0  1  0  0  0  0  0  0  0  0  0
   24.5022   72.1839    1.6499 C   0  0  1  0  0  0  0  0  0  0  0  0
   20.1611   71.6663    2.6015 H   0  0  0  0  0  0  0  0  0  0  0  0
   20.0474   70.8494    0.8054 H   0  0  0  0  0  0  0  0  0  0  0  0
   22.7164   73.3057    4.1259 H   0  0  0  0  0  0  0  0  0  0  0  0
   26.2835   73.0778    2.8866 O   0  0  0  0  0  0  0  0  0  0  0  0
   26.4193   70.8760    2.3096 O   0  0  0  0  0  0  0  0  0  0  0  0
   25.8256   71.9439    2.3003 C   0  0  0  0  0  0  0  0  0  0  0  0
  1  4  1  0
  1 24  1  0
  1  2  1  6
  1  3  2  0
 25 28  1  0
 25 24  1  0
 25 26  1  1
 25 27  2  0
  6 11  1  0
  6 12  1  0
 29 36  1  0
 29 37  1  0
  9  7  1  6
  7 13  1  0
 10  8  1  1
  8 14  1  0
  4  5  1  0
 36 28  1  1
 33 30  1  1
 30 38  1  0
 34 31  1  6
 31 39  1  0
 35 32  1  6
 32 40  1  0
 41 43  1  0
 15 19  2  0
 42 43  2  0
 16 22  2  0
 12 17  1  6
 17 19  1  0
 17 20  1  0
 18 19  1  0
 18 22  1  0
 18 23  1  0
  9 10  1  0
  9 11  1  0
 10 12  1  0
 11  5  1  6
 33 34  1  0
 33 35  1  0
 34 36  1  0
 35 37  1  0
 37 43  1  1
 20 21  2  0
 21 22  1  0
M  CHG  3   2  -1  26  -1  41  -1
M  END
>  <COMPND>  (163) 
    udp_gluA.pdb 

>  <AUTHOR>  (163) 
    GENERATED BY OPEN BABEL 3.1.1

>  <MASTER>  (163) 
        0    0    0    0    0    0    0    0   56    0   56    0

>  <minimizedAffinity>  (163) 
-8.37670

>  <CNNscore>  (163) 
0.9049929976

>  <CNNaffinity>  (163) 
4.7829532623

>  <CNN_VS>  (163) 
4.3285393715

>  <CNNaffinity_variance>  (163) 
0.0414303094

$$$$
164
     RDKit          3D

 43 45  0  0  0  0  0  0  0  0999 V2000
   22.6594   71.5671   -2.3801 P   0  0  2  0  0  0  0  0  0  0  0  0
   22.1708   72.9684   -3.0256 O   0  0  0  0  0  0  0  0  0  0  0  0
   23.9760   71.0594   -2.8904 O   0  0  0  0  0  0  0  0  0  0  0  0
   21.3954   70.5797   -2.5929 O   0  0  0  0  0  0  0  0  0  0  0  0
   20.7278   70.5955   -3.8414 C   0  0  0  0  0  0  0  0  0  0  0  0
   18.8216   71.6625   -4.8441 O   0  0  0  0  0  0  0  0  0  0  0  0
   17.1990   70.3950   -2.6641 O   0  0  0  0  0  0  0  0  0  0  0  0
   16.7192   68.7589   -4.7922 O   0  0  0  0  0  0  0  0  0  0  0  0
   18.3338   69.8807   -3.3616 C   0  0  1  0  0  0  0  0  0  0  0  0
   17.9426   69.4638   -4.7635 C   0  0  2  0  0  0  0  0  0  0  0  0
   19.2862   71.0385   -3.6275 C   0  0  1  0  0  0  0  0  0  0  0  0
   17.8639   70.8012   -5.4799 C   0  0  2  0  0  0  0  0  0  0  0  0
   16.5760   69.6734   -2.4830 H   0  0  0  0  0  0  0  0  0  0  0  0
   16.8212   67.9150   -4.3237 H   0  0  0  0  0  0  0  0  0  0  0  0
   16.0242   70.0511   -7.4872 O   0  0  0  0  0  0  0  0  0  0  0  0
   19.2064   70.4278  -10.8002 O   0  0  0  0  0  0  0  0  0  0  0  0
   18.1850   70.6953   -6.8750 N   0  0  0  0  0  0  0  0  0  0  0  0
   17.6112   70.2385   -9.1352 N   0  0  0  0  0  0  0  0  0  0  0  0
   17.1873   70.3103   -7.8017 C   0  0  0  0  0  0  0  0  0  0  0  0
   19.4742   70.9726   -7.3130 C   0  0  0  0  0  0  0  0  0  0  0  0
   19.8632   70.8999   -8.5875 C   0  0  0  0  0  0  0  0  0  0  0  0
   18.8820   70.5040   -9.6190 C   0  0  0  0  0  0  0  0  0  0  0  0
   16.9347   69.9705   -9.7985 H   0  0  0  0  0  0  0  0  0  0  0  0
   22.6230   71.8668   -0.7921 O   0  0  0  0  0  0  0  0  0  0  0  0
   21.3845   71.9555    0.2432 P   0  0  2  0  0  0  0  0  0  0  0  0
   21.1817   70.4188    0.7098 O   0  0  0  0  0  0  0  0  0  0  0  0
   20.1518   72.5971   -0.3248 O   0  0  0  0  0  0  0  0  0  0  0  0
   21.9886   72.6989    1.5413 O   0  0  0  0  0  0  0  0  0  0  0  0
   23.7868   71.5181    2.5321 O   0  0  0  0  0  0  0  0  0  0  0  0
   23.1345   74.5248    5.2894 O   0  0  0  0  0  0  0  0  0  0  0  0
   20.8818   73.1325    4.0559 O   0  0  0  0  0  0  0  0  0  0  0  0
   25.4092   74.6680    3.4850 O   0  0  0  0  0  0  0  0  0  0  0  0
   23.1712   73.9330    3.9907 C   0  0  2  0  0  0  0  0  0  0  0  0
   22.2401   72.7209    3.9542 C   0  0  2  0  0  0  0  0  0  0  0  0
   24.6128   73.5056    3.7064 C   0  0  1  0  0  0  0  0  0  0  0  0
   22.4247   71.9281    2.6595 C   0  0  1  0  0  0  0  0  0  0  0  0
   24.6962   72.6146    2.4704 C   0  0  1  0  0  0  0  0  0  0  0  0
   22.2278   74.8043    5.4921 H   0  0  0  0  0  0  0  0  0  0  0  0
   20.7576   73.6364    4.8750 H   0  0  0  0  0  0  0  0  0  0  0  0
   25.3647   75.2437    4.2643 H   0  0  0  0  0  0  0  0  0  0  0  0
   25.9315   70.7683    1.7176 O   0  0  0  0  0  0  0  0  0  0  0  0
   27.0658   72.3825    2.8609 O   0  0  0  0  0  0  0  0  0  0  0  0
   26.0278   71.9418    2.3903 C   0  0  0  0  0  0  0  0  0  0  0  0
  1  4  1  0
  1 24  1  0
  1  2  1  6
  1  3  2  0
 25 28  1  0
 25 24  1  0
 25 26  1  1
 25 27  2  0
  6 11  1  0
  6 12  1  0
 29 36  1  0
 29 37  1  0
  9  7  1  1
  7 13  1  0
 10  8  1  1
  8 14  1  0
  4  5  1  0
 36 28  1  6
 33 30  1  1
 30 38  1  0
 34 31  1  6
 31 39  1  0
 35 32  1  6
 32 40  1  0
 41 43  1  0
 15 19  2  0
 42 43  2  0
 16 22  2  0
 12 17  1  6
 17 19  1  0
 17 20  1  0
 18 19  1  0
 18 22  1  0
 18 23  1  0
  9 10  1  0
  9 11  1  0
 10 12  1  0
 11  5  1  6
 33 34  1  0
 33 35  1  0
 34 36  1  0
 35 37  1  0
 37 43  1  1
 20 21  2  0
 21 22  1  0
M  CHG  3   2  -1  26  -1  41  -1
M  END
>  <COMPND>  (164) 
    udp_gluA.pdb 

>  <AUTHOR>  (164) 
    GENERATED BY OPEN BABEL 3.1.1

>  <MASTER>  (164) 
        0    0    0    0    0    0    0    0   56    0   56    0

>  <minimizedAffinity>  (164) 
-7.96997

>  <CNNscore>  (164) 
0.9018738866

>  <CNNaffinity>  (164) 
4.7045145035

>  <CNN_VS>  (164) 
4.2428789139

>  <CNNaffinity_variance>  (164) 
0.0726832896

$$$$
165
     RDKit          3D

 43 45  0  0  0  0  0  0  0  0999 V2000
   22.9688   71.7260   -2.5800 P   0  0  2  0  0  0  0  0  0  0  0  0
   23.2276   73.2843   -2.2288 O   0  0  0  0  0  0  0  0  0  0  0  0
   24.1644   70.9884   -3.1075 O   0  0  0  0  0  0  0  0  0  0  0  0
   21.6764   71.7565   -3.5530 O   0  0  0  0  0  0  0  0  0  0  0  0
   20.8684   70.5972   -3.6404 C   0  0  0  0  0  0  0  0  0  0  0  0
   18.9066   71.6178   -4.5825 O   0  0  0  0  0  0  0  0  0  0  0  0
   17.3727   70.2466   -2.4011 O   0  0  0  0  0  0  0  0  0  0  0  0
   16.9083   68.6412   -4.5560 O   0  0  0  0  0  0  0  0  0  0  0  0
   18.5107   69.7880   -3.1314 C   0  0  1  0  0  0  0  0  0  0  0  0
   18.1067   69.3882   -4.5346 C   0  0  2  0  0  0  0  0  0  0  0  0
   19.4166   70.9842   -3.3893 C   0  0  1  0  0  0  0  0  0  0  0  0
   17.9672   70.7372   -5.2191 C   0  0  2  0  0  0  0  0  0  0  0  0
   16.7790   69.4996   -2.2245 H   0  0  0  0  0  0  0  0  0  0  0  0
   17.0489   67.7915   -4.1085 H   0  0  0  0  0  0  0  0  0  0  0  0
   16.1170   69.9614   -7.2070 O   0  0  0  0  0  0  0  0  0  0  0  0
   19.2164   70.5278  -10.5710 O   0  0  0  0  0  0  0  0  0  0  0  0
   18.2641   70.6731   -6.6222 N   0  0  0  0  0  0  0  0  0  0  0  0
   17.6628   70.2433   -8.8805 N   0  0  0  0  0  0  0  0  0  0  0  0
   17.2632   70.2707   -7.5378 C   0  0  0  0  0  0  0  0  0  0  0  0
   19.5332   71.0080   -7.0785 C   0  0  0  0  0  0  0  0  0  0  0  0
   19.8991   70.9771   -8.3615 C   0  0  0  0  0  0  0  0  0  0  0  0
   18.9129   70.5667   -9.3825 C   0  0  0  0  0  0  0  0  0  0  0  0
   16.9836   69.9643   -9.5364 H   0  0  0  0  0  0  0  0  0  0  0  0
   22.3699   71.1373   -1.1988 O   0  0  0  0  0  0  0  0  0  0  0  0
   21.4086   71.8101   -0.0866 P   0  0  2  0  0  0  0  0  0  0  0  0
   21.0328   70.5662    0.8787 O   0  0  0  0  0  0  0  0  0  0  0  0
   20.2215   72.5327   -0.6547 O   0  0  0  0  0  0  0  0  0  0  0  0
   22.3916   72.7315    0.8006 O   0  0  0  0  0  0  0  0  0  0  0  0
   21.4935   73.9084    2.6493 O   0  0  0  0  0  0  0  0  0  0  0  0
   25.1114   75.8282    2.1078 O   0  0  0  0  0  0  0  0  0  0  0  0
   23.4633   75.0987   -0.1914 O   0  0  0  0  0  0  0  0  0  0  0  0
   24.7721   73.9446    4.2959 O   0  0  0  0  0  0  0  0  0  0  0  0
   24.2058   74.7247    2.0878 C   0  0  2  0  0  0  0  0  0  0  0  0
   23.0308   75.0437    1.1631 C   0  0  2  0  0  0  0  0  0  0  0  0
   23.7106   74.4935    3.5173 C   0  0  1  0  0  0  0  0  0  0  0  0
   21.9310   73.9889    1.2922 C   0  0  1  0  0  0  0  0  0  0  0  0
   22.5315   73.5253    3.5486 C   0  0  1  0  0  0  0  0  0  0  0  0
   25.4393   75.9938    1.2098 H   0  0  0  0  0  0  0  0  0  0  0  0
   24.1615   75.7658   -0.2806 H   0  0  0  0  0  0  0  0  0  0  0  0
   25.5289   74.5512    4.2841 H   0  0  0  0  0  0  0  0  0  0  0  0
   22.5953   72.9144    5.8123 O   0  0  0  0  0  0  0  0  0  0  0  0
   20.7772   74.0944    5.1042 O   0  0  0  0  0  0  0  0  0  0  0  0
   21.8524   73.5594    4.8789 C   0  0  0  0  0  0  0  0  0  0  0  0
  1  4  1  0
  1 24  1  0
  1  2  1  1
  1  3  2  0
 25 28  1  0
 25 24  1  0
 25 26  1  1
 25 27  2  0
  6 11  1  0
  6 12  1  0
 29 36  1  0
 29 37  1  0
  9  7  1  1
  7 13  1  0
 10  8  1  1
  8 14  1  0
  4  5  1  0
 36 28  1  1
 33 30  1  1
 30 38  1  0
 34 31  1  6
 31 39  1  0
 35 32  1  1
 32 40  1  0
 41 43  1  0
 15 19  2  0
 42 43  2  0
 16 22  2  0
 12 17  1  6
 17 19  1  0
 17 20  1  0
 18 19  1  0
 18 22  1  0
 18 23  1  0
  9 10  1  0
  9 11  1  0
 10 12  1  0
 11  5  1  6
 33 34  1  0
 33 35  1  0
 34 36  1  0
 35 37  1  0
 37 43  1  1
 20 21  2  0
 21 22  1  0
M  CHG  3   2  -1  26  -1  41  -1
M  END
>  <COMPND>  (165) 
    udp_gluA.pdb 

>  <AUTHOR>  (165) 
    GENERATED BY OPEN BABEL 3.1.1

>  <MASTER>  (165) 
        0    0    0    0    0    0    0    0   56    0   56    0

>  <minimizedAffinity>  (165) 
-7.38491

>  <CNNscore>  (165) 
0.8974962234

>  <CNNaffinity>  (165) 
4.7468233109

>  <CNN_VS>  (165) 
4.2602558136

>  <CNNaffinity_variance>  (165) 
0.0610319860

$$$$
166
     RDKit          3D

 43 45  0  0  0  0  0  0  0  0999 V2000
   22.9163   71.6030   -3.0619 P   0  0  2  0  0  0  0  0  0  0  0  0
   22.4471   72.3259   -4.4316 O   0  0  0  0  0  0  0  0  0  0  0  0
   24.2472   70.9134   -3.1332 O   0  0  0  0  0  0  0  0  0  0  0  0
   21.6588   70.6642   -2.6675 O   0  0  0  0  0  0  0  0  0  0  0  0
   20.7887   70.2318   -3.6973 C   0  0  0  0  0  0  0  0  0  0  0  0
   18.9826   71.5084   -4.6386 O   0  0  0  0  0  0  0  0  0  0  0  0
   17.2736   70.3414   -2.4687 O   0  0  0  0  0  0  0  0  0  0  0  0
   16.6073   68.8229   -4.6335 O   0  0  0  0  0  0  0  0  0  0  0  0
   18.3430   69.7398   -3.1986 C   0  0  1  0  0  0  0  0  0  0  0  0
   17.8940   69.4043   -4.6051 C   0  0  2  0  0  0  0  0  0  0  0  0
   19.4004   70.8066   -3.4477 C   0  0  1  0  0  0  0  0  0  0  0  0
   17.9368   70.7634   -5.2824 C   0  0  2  0  0  0  0  0  0  0  0  0
   16.5855   69.6789   -2.2976 H   0  0  0  0  0  0  0  0  0  0  0  0
   16.6326   67.9598   -4.1904 H   0  0  0  0  0  0  0  0  0  0  0  0
   16.0169   70.1900   -7.2728 O   0  0  0  0  0  0  0  0  0  0  0  0
   19.1637   70.4209  -10.6326 O   0  0  0  0  0  0  0  0  0  0  0  0
   18.2270   70.6677   -6.6851 N   0  0  0  0  0  0  0  0  0  0  0  0
   17.5862   70.3045   -8.9442 N   0  0  0  0  0  0  0  0  0  0  0  0
   17.1901   70.3748   -7.6021 C   0  0  0  0  0  0  0  0  0  0  0  0
   19.5253   70.8646   -7.1397 C   0  0  0  0  0  0  0  0  0  0  0  0
   19.8876   70.7946   -8.4221 C   0  0  0  0  0  0  0  0  0  0  0  0
   18.8645   70.4921   -9.4445 C   0  0  0  0  0  0  0  0  0  0  0  0
   16.8820   70.0998   -9.6011 H   0  0  0  0  0  0  0  0  0  0  0  0
   22.8337   72.7965   -1.9749 O   0  0  0  0  0  0  0  0  0  0  0  0
   23.3154   72.8631   -0.4330 P   0  0  2  0  0  0  0  0  0  0  0  0
   24.1774   74.2320   -0.3737 O   0  0  0  0  0  0  0  0  0  0  0  0
   24.0576   71.6443    0.0335 O   0  0  0  0  0  0  0  0  0  0  0  0
   21.9739   73.1902    0.4011 O   0  0  0  0  0  0  0  0  0  0  0  0
   20.6522   74.9038    1.3632 O   0  0  0  0  0  0  0  0  0  0  0  0
   21.7386   72.7111    4.6918 O   0  0  0  0  0  0  0  0  0  0  0  0
   23.6875   73.2765    2.5902 O   0  0  0  0  0  0  0  0  0  0  0  0
   19.0489   72.4879    3.6116 O   0  0  0  0  0  0  0  0  0  0  0  0
   21.4018   72.9169    3.3199 C   0  0  2  0  0  0  0  0  0  0  0  0
   22.4036   73.8825    2.6863 C   0  0  2  0  0  0  0  0  0  0  0  0
   19.9890   73.5022    3.2625 C   0  0  1  0  0  0  0  0  0  0  0  0
   21.9470   74.3059    1.2895 C   0  0  1  0  0  0  0  0  0  0  0  0
   19.6553   74.0163    1.8650 C   0  0  1  0  0  0  0  0  0  0  0  0
   22.6327   72.3394    4.7532 H   0  0  0  0  0  0  0  0  0  0  0  0
   23.9833   73.0051    3.4730 H   0  0  0  0  0  0  0  0  0  0  0  0
   19.2503   72.1521    4.4991 H   0  0  0  0  0  0  0  0  0  0  0  0
   18.7427   76.1658    1.6450 O   0  0  0  0  0  0  0  0  0  0  0  0
   17.2967   74.4639    2.1051 O   0  0  0  0  0  0  0  0  0  0  0  0
   18.4294   74.8698    1.8924 C   0  0  0  0  0  0  0  0  0  0  0  0
  1  4  1  0
  1 24  1  0
  1  2  1  6
  1  3  2  0
 25 28  1  0
 25 24  1  0
 25 26  1  6
 25 27  2  0
  6 11  1  0
  6 12  1  0
 29 36  1  0
 29 37  1  0
  9  7  1  1
  7 13  1  0
 10  8  1  1
  8 14  1  0
  4  5  1  0
 36 28  1  6
 33 30  1  1
 30 38  1  0
 34 31  1  6
 31 39  1  0
 35 32  1  6
 32 40  1  0
 41 43  1  0
 15 19  2  0
 42 43  2  0
 16 22  2  0
 12 17  1  6
 17 19  1  0
 17 20  1  0
 18 19  1  0
 18 22  1  0
 18 23  1  0
  9 10  1  0
  9 11  1  0
 10 12  1  0
 11  5  1  6
 33 34  1  0
 33 35  1  0
 34 36  1  0
 35 37  1  0
 37 43  1  1
 20 21  2  0
 21 22  1  0
M  CHG  3   2  -1  26  -1  41  -1
M  END
>  <COMPND>  (166) 
    udp_gluA.pdb 

>  <AUTHOR>  (166) 
    GENERATED BY OPEN BABEL 3.1.1

>  <MASTER>  (166) 
        0    0    0    0    0    0    0    0   56    0   56    0

>  <minimizedAffinity>  (166) 
-7.31436

>  <CNNscore>  (166) 
0.8683118820

>  <CNNaffinity>  (166) 
4.6364545822

>  <CNN_VS>  (166) 
4.0258884430

>  <CNNaffinity_variance>  (166) 
0.0252849553

$$$$
167
     RDKit          3D

 43 45  0  0  0  0  0  0  0  0999 V2000
   22.9147   72.7862   -4.0852 P   0  0  2  0  0  0  0  0  0  0  0  0
   23.2887   73.8622   -5.2347 O   0  0  0  0  0  0  0  0  0  0  0  0
   24.0480   71.9042   -3.6502 O   0  0  0  0  0  0  0  0  0  0  0  0
   21.6164   72.0222   -4.6758 O   0  0  0  0  0  0  0  0  0  0  0  0
   21.0198   71.0018   -3.8965 C   0  0  0  0  0  0  0  0  0  0  0  0
   19.0013   71.8988   -4.8445 O   0  0  0  0  0  0  0  0  0  0  0  0
   17.5769   70.6578   -2.5158 O   0  0  0  0  0  0  0  0  0  0  0  0
   17.0879   68.8834   -4.5278 O   0  0  0  0  0  0  0  0  0  0  0  0
   18.7030   70.1742   -3.2483 C   0  0  1  0  0  0  0  0  0  0  0  0
   18.2653   69.6597   -4.6032 C   0  0  2  0  0  0  0  0  0  0  0  0
   19.5668   71.3700   -3.6255 C   0  0  1  0  0  0  0  0  0  0  0  0
   18.0665   70.9493   -5.3812 C   0  0  2  0  0  0  0  0  0  0  0  0
   17.0101   69.9116   -2.2637 H   0  0  0  0  0  0  0  0  0  0  0  0
   17.2663   68.0736   -4.0234 H   0  0  0  0  0  0  0  0  0  0  0  0
   16.1684   70.0007   -7.2450 O   0  0  0  0  0  0  0  0  0  0  0  0
   19.1484   70.3674  -10.7420 O   0  0  0  0  0  0  0  0  0  0  0  0
   18.3198   70.7871   -6.7849 N   0  0  0  0  0  0  0  0  0  0  0  0
   17.6547   70.1833   -8.9847 N   0  0  0  0  0  0  0  0  0  0  0  0
   17.2977   70.3029   -7.6352 C   0  0  0  0  0  0  0  0  0  0  0  0
   19.5674   71.1075   -7.3061 C   0  0  0  0  0  0  0  0  0  0  0  0
   19.8928   70.9882   -8.5948 C   0  0  0  0  0  0  0  0  0  0  0  0
   18.8823   70.4885   -9.5501 C   0  0  0  0  0  0  0  0  0  0  0  0
   16.9602   69.8462   -9.5958 H   0  0  0  0  0  0  0  0  0  0  0  0
   22.2915   73.7089   -2.9135 O   0  0  0  0  0  0  0  0  0  0  0  0
   23.0074   74.6123   -1.7799 P   0  0  2  0  0  0  0  0  0  0  0  0
   22.1965   76.0112   -1.8550 O   0  0  0  0  0  0  0  0  0  0  0  0
   24.4930   74.7488   -1.9487 O   0  0  0  0  0  0  0  0  0  0  0  0
   22.5505   73.9514   -0.3810 O   0  0  0  0  0  0  0  0  0  0  0  0
   23.5832   73.6213    1.7247 O   0  0  0  0  0  0  0  0  0  0  0  0
   21.5358   70.0678    1.2261 O   0  0  0  0  0  0  0  0  0  0  0  0
   22.9724   71.2758   -1.0125 O   0  0  0  0  0  0  0  0  0  0  0  0
   20.5244   72.0907    3.0525 O   0  0  0  0  0  0  0  0  0  0  0  0
   21.7674   71.4693    1.0843 C   0  0  2  0  0  0  0  0  0  0  0  0
   23.0842   71.6978    0.3417 C   0  0  2  0  0  0  0  0  0  0  0  0
   21.8330   72.0818    2.4851 C   0  0  1  0  0  0  0  0  0  0  0  0
   23.4802   73.1747    0.3721 C   0  0  1  0  0  0  0  0  0  0  0  0
   22.3559   73.5148    2.4426 C   0  0  1  0  0  0  0  0  0  0  0  0
   21.4903   69.6569    0.3483 H   0  0  0  0  0  0  0  0  0  0  0  0
   22.7211   70.3396   -1.0393 H   0  0  0  0  0  0  0  0  0  0  0  0
   20.1800   71.1845    3.0851 H   0  0  0  0  0  0  0  0  0  0  0  0
   24.0727   73.9797    3.9716 O   0  0  0  0  0  0  0  0  0  0  0  0
   21.9318   74.3312    4.6731 O   0  0  0  0  0  0  0  0  0  0  0  0
   22.7262   73.9852    3.8115 C   0  0  0  0  0  0  0  0  0  0  0  0
  1  4  1  0
  1 24  1  0
  1  2  1  6
  1  3  2  0
 25 28  1  0
 25 24  1  0
 25 26  1  1
 25 27  2  0
  6 11  1  0
  6 12  1  0
 29 36  1  0
 29 37  1  0
  9  7  1  1
  7 13  1  0
 10  8  1  1
  8 14  1  0
  4  5  1  0
 36 28  1  6
 33 30  1  1
 30 38  1  0
 34 31  1  6
 31 39  1  0
 35 32  1  6
 32 40  1  0
 41 43  1  0
 15 19  2  0
 42 43  2  0
 16 22  2  0
 12 17  1  6
 17 19  1  0
 17 20  1  0
 18 19  1  0
 18 22  1  0
 18 23  1  0
  9 10  1  0
  9 11  1  0
 10 12  1  0
 11  5  1  6
 33 34  1  0
 33 35  1  0
 34 36  1  0
 35 37  1  0
 37 43  1  1
 20 21  2  0
 21 22  1  0
M  CHG  3   2  -1  26  -1  41  -1
M  END
>  <COMPND>  (167) 
    udp_gluA.pdb 

>  <AUTHOR>  (167) 
    GENERATED BY OPEN BABEL 3.1.1

>  <MASTER>  (167) 
        0    0    0    0    0    0    0    0   56    0   56    0

>  <minimizedAffinity>  (167) 
-7.74100

>  <CNNscore>  (167) 
0.8579468131

>  <CNNaffinity>  (167) 
4.6642708778

>  <CNN_VS>  (167) 
4.0016961098

>  <CNNaffinity_variance>  (167) 
0.0375388637

$$$$
168
     RDKit          3D

 43 45  0  0  0  0  0  0  0  0999 V2000
   22.8400   72.1536   -3.8968 P   0  0  2  0  0  0  0  0  0  0  0  0
   23.3837   73.0545   -5.1263 O   0  0  0  0  0  0  0  0  0  0  0  0
   23.8711   71.2759   -3.2500 O   0  0  0  0  0  0  0  0  0  0  0  0
   21.5543   71.3894   -4.5140 O   0  0  0  0  0  0  0  0  0  0  0  0
   20.8692   70.4542   -3.7013 C   0  0  0  0  0  0  0  0  0  0  0  0
   18.9876   71.6143   -4.6455 O   0  0  0  0  0  0  0  0  0  0  0  0
   17.3676   70.4058   -2.4304 O   0  0  0  0  0  0  0  0  0  0  0  0
   16.7569   68.8089   -4.5548 O   0  0  0  0  0  0  0  0  0  0  0  0
   18.4586   69.8456   -3.1614 C   0  0  1  0  0  0  0  0  0  0  0  0
   18.0116   69.4573   -4.5548 C   0  0  2  0  0  0  0  0  0  0  0  0
   19.4555   70.9608   -3.4458 C   0  0  1  0  0  0  0  0  0  0  0  0
   17.9749   70.8021   -5.2605 C   0  0  2  0  0  0  0  0  0  0  0  0
   16.7174   69.7119   -2.2369 H   0  0  0  0  0  0  0  0  0  0  0  0
   16.8327   67.9579   -4.0944 H   0  0  0  0  0  0  0  0  0  0  0  0
   16.0464   70.1679   -7.2240 O   0  0  0  0  0  0  0  0  0  0  0  0
   19.1566   70.4067  -10.6172 O   0  0  0  0  0  0  0  0  0  0  0  0
   18.2534   70.6920   -6.6644 N   0  0  0  0  0  0  0  0  0  0  0  0
   17.5975   70.2864   -8.9120 N   0  0  0  0  0  0  0  0  0  0  0  0
   17.2130   70.3684   -7.5672 C   0  0  0  0  0  0  0  0  0  0  0  0
   19.5436   70.9051   -7.1344 C   0  0  0  0  0  0  0  0  0  0  0  0
   19.8948   70.8236   -8.4192 C   0  0  0  0  0  0  0  0  0  0  0  0
   18.8675   70.4892   -9.4273 C   0  0  0  0  0  0  0  0  0  0  0  0
   16.8908   70.0604   -9.5591 H   0  0  0  0  0  0  0  0  0  0  0  0
   22.1738   73.2483   -2.9116 O   0  0  0  0  0  0  0  0  0  0  0  0
   22.8390   74.2376   -1.8196 P   0  0  2  0  0  0  0  0  0  0  0  0
   21.9781   75.5989   -1.9809 O   0  0  0  0  0  0  0  0  0  0  0  0
   24.3208   74.4208   -1.9765 O   0  0  0  0  0  0  0  0  0  0  0  0
   22.3861   73.6361   -0.3929 O   0  0  0  0  0  0  0  0  0  0  0  0
   23.1998   71.4726    0.1229 O   0  0  0  0  0  0  0  0  0  0  0  0
   20.3471   72.0202    3.0606 O   0  0  0  0  0  0  0  0  0  0  0  0
   19.8146   72.8409    0.3079 O   0  0  0  0  0  0  0  0  0  0  0  0
   23.1716   72.2510    3.7084 O   0  0  0  0  0  0  0  0  0  0  0  0
   21.3562   72.4200    2.1333 C   0  0  2  0  0  0  0  0  0  0  0  0
   20.9240   72.0482    0.7147 C   0  0  2  0  0  0  0  0  0  0  0  0
   22.6519   71.6941    2.5024 C   0  0  1  0  0  0  0  0  0  0  0  0
   22.0705   72.2498   -0.2771 C   0  0  1  0  0  0  0  0  0  0  0  0
   23.7031   71.8386    1.4058 C   0  0  1  0  0  0  0  0  0  0  0  0
   19.5142   72.4689    2.8457 H   0  0  0  0  0  0  0  0  0  0  0  0
   19.0834   72.7180    0.9329 H   0  0  0  0  0  0  0  0  0  0  0  0
   22.5121   72.1656    4.4145 H   0  0  0  0  0  0  0  0  0  0  0  0
   24.5909   70.0974    2.7027 O   0  0  0  0  0  0  0  0  0  0  0  0
   25.8154   70.7849    0.9062 O   0  0  0  0  0  0  0  0  0  0  0  0
   24.8237   70.8726    1.6146 C   0  0  0  0  0  0  0  0  0  0  0  0
  1  4  1  0
  1 24  1  0
  1  2  1  6
  1  3  2  0
 25 28  1  0
 25 24  1  0
 25 26  1  6
 25 27  2  0
  6 11  1  0
  6 12  1  0
 29 36  1  0
 29 37  1  0
  9  7  1  1
  7 13  1  0
 10  8  1  1
  8 14  1  0
  4  5  1  0
 36 28  1  1
 33 30  1  1
 30 38  1  0
 34 31  1  6
 31 39  1  0
 35 32  1  1
 32 40  1  0
 41 43  1  0
 15 19  2  0
 42 43  2  0
 16 22  2  0
 12 17  1  6
 17 19  1  0
 17 20  1  0
 18 19  1  0
 18 22  1  0
 18 23  1  0
  9 10  1  0
  9 11  1  0
 10 12  1  0
 11  5  1  6
 33 34  1  0
 33 35  1  0
 34 36  1  0
 35 37  1  0
 37 43  1  1
 20 21  2  0
 21 22  1  0
M  CHG  3   2  -1  26  -1  41  -1
M  END
>  <COMPND>  (168) 
    udp_gluA.pdb 

>  <AUTHOR>  (168) 
    GENERATED BY OPEN BABEL 3.1.1

>  <MASTER>  (168) 
        0    0    0    0    0    0    0    0   56    0   56    0

>  <minimizedAffinity>  (168) 
-8.09905

>  <CNNscore>  (168) 
0.8523527980

>  <CNNaffinity>  (168) 
4.7014703751

>  <CNN_VS>  (168) 
4.0073113441

>  <CNNaffinity_variance>  (168) 
0.0339785367

$$$$
169
     RDKit          3D

 43 45  0  0  0  0  0  0  0  0999 V2000
   21.0143   73.2200   -2.4655 P   0  0  2  0  0  0  0  0  0  0  0  0
   21.1103   73.3718   -4.0737 O   0  0  0  0  0  0  0  0  0  0  0  0
   22.3299   73.2656   -1.7451 O   0  0  0  0  0  0  0  0  0  0  0  0
   20.1435   71.8729   -2.2536 O   0  0  0  0  0  0  0  0  0  0  0  0
   19.6332   71.2110   -3.3964 C   0  0  0  0  0  0  0  0  0  0  0  0
   17.8187   71.9763   -4.7746 O   0  0  0  0  0  0  0  0  0  0  0  0
   16.0112   70.5022   -2.8901 O   0  0  0  0  0  0  0  0  0  0  0  0
   16.1827   68.7947   -5.0093 O   0  0  0  0  0  0  0  0  0  0  0  0
   17.3192   70.1549   -3.3449 C   0  0  1  0  0  0  0  0  0  0  0  0
   17.2646   69.6727   -4.7790 C   0  0  2  0  0  0  0  0  0  0  0  0
   18.1288   71.4382   -3.4709 C   0  0  1  0  0  0  0  0  0  0  0  0
   17.1322   70.9775   -5.5457 C   0  0  2  0  0  0  0  0  0  0  0  0
   15.4751   69.6981   -2.8019 H   0  0  0  0  0  0  0  0  0  0  0  0
   16.3139   67.9792   -4.4995 H   0  0  0  0  0  0  0  0  0  0  0  0
   15.7637   70.1514   -7.8740 O   0  0  0  0  0  0  0  0  0  0  0  0
   19.5014   70.7496  -10.5038 O   0  0  0  0  0  0  0  0  0  0  0  0
   17.7236   70.9080   -6.8520 N   0  0  0  0  0  0  0  0  0  0  0  0
   17.6268   70.4491   -9.1814 N   0  0  0  0  0  0  0  0  0  0  0  0
   16.9488   70.4796   -7.9557 C   0  0  0  0  0  0  0  0  0  0  0  0
   19.0552   71.2630   -7.0302 C   0  0  0  0  0  0  0  0  0  0  0  0
   19.6877   71.2289   -8.2048 C   0  0  0  0  0  0  0  0  0  0  0  0
   18.9499   70.7920   -9.4082 C   0  0  0  0  0  0  0  0  0  0  0  0
   17.1086   70.1522   -9.9641 H   0  0  0  0  0  0  0  0  0  0  0  0
   19.9791   74.3906   -2.0517 O   0  0  0  0  0  0  0  0  0  0  0  0
   19.1822   74.6638   -0.6719 P   0  0  2  0  0  0  0  0  0  0  0  0
   18.2055   73.3788   -0.5482 O   0  0  0  0  0  0  0  0  0  0  0  0
   18.4734   75.9863   -0.6216 O   0  0  0  0  0  0  0  0  0  0  0  0
   20.2844   74.4504    0.4866 O   0  0  0  0  0  0  0  0  0  0  0  0
   20.5775   72.3584    1.5575 O   0  0  0  0  0  0  0  0  0  0  0  0
   22.3009   74.9448    4.2793 O   0  0  0  0  0  0  0  0  0  0  0  0
   19.7966   75.6477    2.9492 O   0  0  0  0  0  0  0  0  0  0  0  0
   23.9771   73.2885    2.5770 O   0  0  0  0  0  0  0  0  0  0  0  0
   21.9221   74.4784    2.9843 C   0  0  2  0  0  0  0  0  0  0  0  0
   20.3997   74.3596    2.9082 C   0  0  2  0  0  0  0  0  0  0  0  0
   22.5743   73.1116    2.7644 C   0  0  1  0  0  0  0  0  0  0  0  0
   19.9699   73.6491    1.6240 C   0  0  1  0  0  0  0  0  0  0  0  0
   22.0021   72.4127    1.5345 C   0  0  1  0  0  0  0  0  0  0  0  0
   21.8980   75.8124    4.4413 H   0  0  0  0  0  0  0  0  0  0  0  0
   20.0653   76.1044    3.7614 H   0  0  0  0  0  0  0  0  0  0  0  0
   24.3536   73.7326    3.3528 H   0  0  0  0  0  0  0  0  0  0  0  0
   21.3534   70.1991    1.1096 O   0  0  0  0  0  0  0  0  0  0  0  0
   23.4945   70.5379    1.8165 O   0  0  0  0  0  0  0  0  0  0  0  0
   22.3925   70.9706    1.5142 C   0  0  0  0  0  0  0  0  0  0  0  0
  1  4  1  0
  1 24  1  0
  1  2  1  6
  1  3  2  0
 25 28  1  0
 25 24  1  0
 25 26  1  1
 25 27  2  0
  6 11  1  0
  6 12  1  0
 29 36  1  0
 29 37  1  0
  9  7  1  6
  7 13  1  0
 10  8  1  1
  8 14  1  0
  4  5  1  0
 36 28  1  6
 33 30  1  1
 30 38  1  0
 34 31  1  6
 31 39  1  0
 35 32  1  6
 32 40  1  0
 41 43  1  0
 15 19  2  0
 42 43  2  0
 16 22  2  0
 12 17  1  6
 17 19  1  0
 17 20  1  0
 18 19  1  0
 18 22  1  0
 18 23  1  0
  9 10  1  0
  9 11  1  0
 10 12  1  0
 11  5  1  6
 33 34  1  0
 33 35  1  0
 34 36  1  0
 35 37  1  0
 37 43  1  1
 20 21  2  0
 21 22  1  0
M  CHG  3   2  -1  26  -1  41  -1
M  END
>  <COMPND>  (169) 
    udp_gluA.pdb 

>  <AUTHOR>  (169) 
    GENERATED BY OPEN BABEL 3.1.1

>  <MASTER>  (169) 
        0    0    0    0    0    0    0    0   56    0   56    0

>  <minimizedAffinity>  (169) 
-6.51286

>  <CNNscore>  (169) 
0.8513529301

>  <CNNaffinity>  (169) 
4.5442647934

>  <CNN_VS>  (169) 
3.8687732220

>  <CNNaffinity_variance>  (169) 
0.0219244435

$$$$
170
     RDKit          3D

 43 45  0  0  0  0  0  0  0  0999 V2000
   23.0660   71.9324   -2.9206 P   0  0  2  0  0  0  0  0  0  0  0  0
   22.7638   72.7889   -4.2600 O   0  0  0  0  0  0  0  0  0  0  0  0
   24.2329   70.9941   -3.0184 O   0  0  0  0  0  0  0  0  0  0  0  0
   21.6426   71.2490   -2.5671 O   0  0  0  0  0  0  0  0  0  0  0  0
   20.8472   70.7555   -3.6293 C   0  0  0  0  0  0  0  0  0  0  0  0
   18.8938   71.7576   -4.6080 O   0  0  0  0  0  0  0  0  0  0  0  0
   17.3476   70.4708   -2.3843 O   0  0  0  0  0  0  0  0  0  0  0  0
   16.8748   68.7974   -4.4849 O   0  0  0  0  0  0  0  0  0  0  0  0
   18.4833   69.9802   -3.0971 C   0  0  1  0  0  0  0  0  0  0  0  0
   18.0783   69.5364   -4.4868 C   0  0  2  0  0  0  0  0  0  0  0  0
   19.3979   71.1608   -3.3935 C   0  0  1  0  0  0  0  0  0  0  0  0
   17.9491   70.8627   -5.2163 C   0  0  2  0  0  0  0  0  0  0  0  0
   16.7484   69.7343   -2.1836 H   0  0  0  0  0  0  0  0  0  0  0  0
   17.0089   67.9622   -4.0091 H   0  0  0  0  0  0  0  0  0  0  0  0
   16.0895   70.0563   -7.1831 O   0  0  0  0  0  0  0  0  0  0  0  0
   19.2041   70.4644  -10.5561 O   0  0  0  0  0  0  0  0  0  0  0  0
   18.2474   70.7496   -6.6159 N   0  0  0  0  0  0  0  0  0  0  0  0
   17.6428   70.2593   -8.8610 N   0  0  0  0  0  0  0  0  0  0  0  0
   17.2414   70.3356   -7.5208 C   0  0  0  0  0  0  0  0  0  0  0  0
   19.5228   71.0484   -7.0796 C   0  0  0  0  0  0  0  0  0  0  0  0
   19.8904   70.9711   -8.3601 C   0  0  0  0  0  0  0  0  0  0  0  0
   18.8992   70.5456   -9.3700 C   0  0  0  0  0  0  0  0  0  0  0  0
   16.9602   69.9714   -9.5095 H   0  0  0  0  0  0  0  0  0  0  0  0
   23.2130   73.0737   -1.7854 O   0  0  0  0  0  0  0  0  0  0  0  0
   23.6728   72.9791   -0.2384 P   0  0  2  0  0  0  0  0  0  0  0  0
   24.6543   74.2547   -0.0657 O   0  0  0  0  0  0  0  0  0  0  0  0
   24.2933   71.6656    0.1403 O   0  0  0  0  0  0  0  0  0  0  0  0
   22.3527   73.3640    0.6052 O   0  0  0  0  0  0  0  0  0  0  0  0
   22.0521   72.4694    2.7774 O   0  0  0  0  0  0  0  0  0  0  0  0
   18.2330   73.7503    1.8598 O   0  0  0  0  0  0  0  0  0  0  0  0
   19.8598   72.3866   -0.1473 O   0  0  0  0  0  0  0  0  0  0  0  0
   19.8825   75.2807    3.7004 O   0  0  0  0  0  0  0  0  0  0  0  0
   19.6600   73.7796    1.8290 C   0  0  2  0  0  0  0  0  0  0  0  0
   20.1860   72.4727    1.2351 C   0  0  2  0  0  0  0  0  0  0  0  0
   20.1605   73.9512    3.2649 C   0  0  1  0  0  0  0  0  0  0  0  0
   21.7034   72.3702    1.3961 C   0  0  1  0  0  0  0  0  0  0  0  0
   21.6641   73.7101    3.3633 C   0  0  1  0  0  0  0  0  0  0  0  0
   17.8921   73.6418    0.9579 H   0  0  0  0  0  0  0  0  0  0  0  0
   18.8985   72.4511   -0.2568 H   0  0  0  0  0  0  0  0  0  0  0  0
   18.9286   75.4471    3.6426 H   0  0  0  0  0  0  0  0  0  0  0  0
   22.0235   74.7426    5.4384 O   0  0  0  0  0  0  0  0  0  0  0  0
   22.4332   72.5035    5.3060 O   0  0  0  0  0  0  0  0  0  0  0  0
   22.0841   73.5540    4.7886 C   0  0  0  0  0  0  0  0  0  0  0  0
  1  4  1  0
  1 24  1  0
  1  2  1  6
  1  3  2  0
 25 28  1  0
 25 24  1  0
 25 26  1  6
 25 27  2  0
  6 11  1  0
  6 12  1  0
 29 36  1  0
 29 37  1  0
  9  7  1  1
  7 13  1  0
 10  8  1  1
  8 14  1  0
  4  5  1  0
 36 28  1  6
 33 30  1  1
 30 38  1  0
 34 31  1  6
 31 39  1  0
 35 32  1  6
 32 40  1  0
 41 43  1  0
 15 19  2  0
 42 43  2  0
 16 22  2  0
 12 17  1  6
 17 19  1  0
 17 20  1  0
 18 19  1  0
 18 22  1  0
 18 23  1  0
  9 10  1  0
  9 11  1  0
 10 12  1  0
 11  5  1  6
 33 34  1  0
 33 35  1  0
 34 36  1  0
 35 37  1  0
 37 43  1  1
 20 21  2  0
 21 22  1  0
M  CHG  3   2  -1  26  -1  41  -1
M  END
>  <COMPND>  (170) 
    udp_gluA.pdb 

>  <AUTHOR>  (170) 
    GENERATED BY OPEN BABEL 3.1.1

>  <MASTER>  (170) 
        0    0    0    0    0    0    0    0   56    0   56    0

>  <minimizedAffinity>  (170) 
-6.85920

>  <CNNscore>  (170) 
0.8368663788

>  <CNNaffinity>  (170) 
4.5790338516

>  <CNN_VS>  (170) 
3.8320395947

>  <CNNaffinity_variance>  (170) 
0.0426277407

$$$$
171
     RDKit          3D

 43 45  0  0  0  0  0  0  0  0999 V2000
   20.6051   71.4187   -1.0680 P   0  0  2  0  0  0  0  0  0  0  0  0
   21.3991   70.8157   -2.3427 O   0  0  0  0  0  0  0  0  0  0  0  0
   20.6667   70.5771    0.1728 O   0  0  0  0  0  0  0  0  0  0  0  0
   19.1218   71.7186   -1.6406 O   0  0  0  0  0  0  0  0  0  0  0  0
   18.8559   71.4473   -3.0045 C   0  0  0  0  0  0  0  0  0  0  0  0
   17.0985   71.9609   -4.5618 O   0  0  0  0  0  0  0  0  0  0  0  0
   15.3345   70.2413   -2.8522 O   0  0  0  0  0  0  0  0  0  0  0  0
   15.9495   68.5846   -4.9291 O   0  0  0  0  0  0  0  0  0  0  0  0
   16.7165   70.0808   -3.1726 C   0  0  1  0  0  0  0  0  0  0  0  0
   16.8715   69.6028   -4.6008 C   0  0  2  0  0  0  0  0  0  0  0  0
   17.3494   71.4645   -3.2292 C   0  0  1  0  0  0  0  0  0  0  0  0
   16.6365   70.8806   -5.3882 C   0  0  2  0  0  0  0  0  0  0  0  0
   14.9086   69.3703   -2.8104 H   0  0  0  0  0  0  0  0  0  0  0  0
   16.1411   67.7927   -4.4017 H   0  0  0  0  0  0  0  0  0  0  0  0
   15.6079   69.9450   -7.8465 O   0  0  0  0  0  0  0  0  0  0  0  0
   19.4950   71.0047  -10.0851 O   0  0  0  0  0  0  0  0  0  0  0  0
   17.3583   70.9002   -6.6290 N   0  0  0  0  0  0  0  0  0  0  0  0
   17.5452   70.4728   -8.9589 N   0  0  0  0  0  0  0  0  0  0  0  0
   16.7502   70.4060   -7.8071 C   0  0  0  0  0  0  0  0  0  0  0  0
   18.6519   71.4060   -6.6709 C   0  0  0  0  0  0  0  0  0  0  0  0
   19.3972   71.4631   -7.7764 C   0  0  0  0  0  0  0  0  0  0  0  0
   18.8366   70.9663   -9.0501 C   0  0  0  0  0  0  0  0  0  0  0  0
   17.1442   70.1326   -9.7912 H   0  0  0  0  0  0  0  0  0  0  0  0
   21.2398   72.8970   -0.9112 O   0  0  0  0  0  0  0  0  0  0  0  0
   20.5629   74.3606   -1.0278 P   0  0  2  0  0  0  0  0  0  0  0  0
   21.7575   75.3572   -0.5806 O   0  0  0  0  0  0  0  0  0  0  0  0
   19.2970   74.5184   -0.2363 O   0  0  0  0  0  0  0  0  0  0  0  0
   20.3969   74.6096   -2.6130 O   0  0  0  0  0  0  0  0  0  0  0  0
   22.6428   74.8248   -3.3333 O   0  0  0  0  0  0  0  0  0  0  0  0
   20.6128   74.7203   -6.9300 O   0  0  0  0  0  0  0  0  0  0  0  0
   19.5686   76.2704   -4.6847 O   0  0  0  0  0  0  0  0  0  0  0  0
   22.0802   72.3839   -6.0142 O   0  0  0  0  0  0  0  0  0  0  0  0
   20.8505   74.4049   -5.5581 C   0  0  2  0  0  0  0  0  0  0  0  0
   20.8676   75.6918   -4.7327 C   0  0  2  0  0  0  0  0  0  0  0  0
   22.2024   73.6940   -5.4637 C   0  0  1  0  0  0  0  0  0  0  0  0
   21.3449   75.4199   -3.3054 C   0  0  1  0  0  0  0  0  0  0  0  0
   22.6683   73.5731   -4.0156 C   0  0  1  0  0  0  0  0  0  0  0  0
   19.7588   75.1730   -7.0146 H   0  0  0  0  0  0  0  0  0  0  0  0
   19.2594   76.4453   -5.5870 H   0  0  0  0  0  0  0  0  0  0  0  0
   21.7841   72.4467   -6.9358 H   0  0  0  0  0  0  0  0  0  0  0  0
   24.2390   71.8576   -3.7128 O   0  0  0  0  0  0  0  0  0  0  0  0
   25.0494   73.9537   -4.0989 O   0  0  0  0  0  0  0  0  0  0  0  0
   24.1100   73.1861   -3.9528 C   0  0  0  0  0  0  0  0  0  0  0  0
  1  4  1  0
  1 24  1  0
  1  2  1  6
  1  3  2  0
 25 28  1  0
 25 24  1  0
 25 26  1  1
 25 27  2  0
  6 11  1  0
  6 12  1  0
 29 36  1  0
 29 37  1  0
  9  7  1  6
  7 13  1  0
 10  8  1  6
  8 14  1  0
  4  5  1  0
 36 28  1  6
 33 30  1  6
 30 38  1  0
 34 31  1  1
 31 39  1  0
 35 32  1  1
 32 40  1  0
 41 43  1  0
 15 19  2  0
 42 43  2  0
 16 22  2  0
 12 17  1  6
 17 19  1  0
 17 20  1  0
 18 19  1  0
 18 22  1  0
 18 23  1  0
  9 10  1  0
  9 11  1  0
 10 12  1  0
 11  5  1  6
 33 34  1  0
 33 35  1  0
 34 36  1  0
 35 37  1  0
 37 43  1  6
 20 21  2  0
 21 22  1  0
M  CHG  3   2  -1  26  -1  41  -1
M  END
>  <COMPND>  (171) 
    udp_gluA.pdb 

>  <AUTHOR>  (171) 
    GENERATED BY OPEN BABEL 3.1.1

>  <MASTER>  (171) 
        0    0    0    0    0    0    0    0   56    0   56    0

>  <minimizedAffinity>  (171) 
-6.76664

>  <CNNscore>  (171) 
0.7896245718

>  <CNNaffinity>  (171) 
4.4828166962

>  <CNN_VS>  (171) 
3.5397422314

>  <CNNaffinity_variance>  (171) 
0.1879147589

$$$$
172
     RDKit          3D

 43 45  0  0  0  0  0  0  0  0999 V2000
   23.4360   72.8326   -4.1197 P   0  0  2  0  0  0  0  0  0  0  0  0
   23.0916   72.5774   -5.6802 O   0  0  0  0  0  0  0  0  0  0  0  0
   24.1269   71.6937   -3.4288 O   0  0  0  0  0  0  0  0  0  0  0  0
   22.0219   73.2890   -3.4794 O   0  0  0  0  0  0  0  0  0  0  0  0
   20.8738   73.2908   -4.3078 C   0  0  0  0  0  0  0  0  0  0  0  0
   18.8257   72.0937   -4.6950 O   0  0  0  0  0  0  0  0  0  0  0  0
   19.4718   70.5547   -2.2038 O   0  0  0  0  0  0  0  0  0  0  0  0
   20.2175   68.8300   -4.1800 O   0  0  0  0  0  0  0  0  0  0  0  0
   20.3519   71.0557   -3.2103 C   0  0  1  0  0  0  0  0  0  0  0  0
   20.2482   70.2131   -4.4639 C   0  0  2  0  0  0  0  0  0  0  0  0
   19.8097   72.3978   -3.6828 C   0  0  1  0  0  0  0  0  0  0  0  0
   18.9501   70.7138   -5.0740 C   0  0  2  0  0  0  0  0  0  0  0  0
   19.7976   69.6975   -1.8864 H   0  0  0  0  0  0  0  0  0  0  0  0
   21.0660   68.5603   -3.7938 H   0  0  0  0  0  0  0  0  0  0  0  0
   16.8051   69.6903   -6.5999 O   0  0  0  0  0  0  0  0  0  0  0  0
   19.0450   70.4050  -10.5642 O   0  0  0  0  0  0  0  0  0  0  0  0
   18.9462   70.6208   -6.5065 N   0  0  0  0  0  0  0  0  0  0  0  0
   17.9232   70.0463   -8.5728 N   0  0  0  0  0  0  0  0  0  0  0  0
   17.8181   70.0908   -7.1764 C   0  0  0  0  0  0  0  0  0  0  0  0
   20.0493   71.0530   -7.2326 C   0  0  0  0  0  0  0  0  0  0  0  0
   20.1348   71.0043   -8.5634 C   0  0  0  0  0  0  0  0  0  0  0  0
   18.9994   70.4635   -9.3392 C   0  0  0  0  0  0  0  0  0  0  0  0
   17.1510   69.6793   -9.0611 H   0  0  0  0  0  0  0  0  0  0  0  0
   24.2804   74.2105   -4.1551 O   0  0  0  0  0  0  0  0  0  0  0  0
   23.9676   75.6292   -4.8645 P   0  0  2  0  0  0  0  0  0  0  0  0
   25.2243   76.5488   -4.4225 O   0  0  0  0  0  0  0  0  0  0  0  0
   22.6261   76.2079   -4.5191 O   0  0  0  0  0  0  0  0  0  0  0  0
   24.1948   75.3586   -6.4386 O   0  0  0  0  0  0  0  0  0  0  0  0
   23.2298   77.0962   -7.7265 O   0  0  0  0  0  0  0  0  0  0  0  0
   24.5448   74.5043  -10.6626 O   0  0  0  0  0  0  0  0  0  0  0  0
   23.2457   73.4786   -8.2554 O   0  0  0  0  0  0  0  0  0  0  0  0
   26.0120   76.9533  -10.1143 O   0  0  0  0  0  0  0  0  0  0  0  0
   24.5734   75.1595   -9.3947 C   0  0  2  0  0  0  0  0  0  0  0  0
   23.2860   74.8508   -8.6299 C   0  0  2  0  0  0  0  0  0  0  0  0
   24.6971   76.6646   -9.6427 C   0  0  1  0  0  0  0  0  0  0  0  0
   23.1764   75.7138   -7.3721 C   0  0  1  0  0  0  0  0  0  0  0  0
   24.4511   77.4619   -8.3651 C   0  0  1  0  0  0  0  0  0  0  0  0
   24.4665   73.5464  -10.5301 H   0  0  0  0  0  0  0  0  0  0  0  0
   23.3150   72.9252   -9.0487 H   0  0  0  0  0  0  0  0  0  0  0  0
   26.1814   76.4519  -10.9271 H   0  0  0  0  0  0  0  0  0  0  0  0
   24.0236   79.0891   -9.9994 O   0  0  0  0  0  0  0  0  0  0  0  0
   24.2755   79.8128   -7.8518 O   0  0  0  0  0  0  0  0  0  0  0  0
   24.2477   78.9094   -8.6741 C   0  0  0  0  0  0  0  0  0  0  0  0
  1  4  1  0
  1 24  1  0
  1  2  1  6
  1  3  2  0
 25 28  1  0
 25 24  1  0
 25 26  1  1
 25 27  2  0
  6 11  1  0
  6 12  1  0
 29 36  1  0
 29 37  1  0
  9  7  1  1
  7 13  1  0
 10  8  1  1
  8 14  1  0
  4  5  1  0
 36 28  1  1
 33 30  1  6
 30 38  1  0
 34 31  1  1
 31 39  1  0
 35 32  1  1
 32 40  1  0
 41 43  1  0
 15 19  2  0
 42 43  2  0
 16 22  2  0
 12 17  1  6
 17 19  1  0
 17 20  1  0
 18 19  1  0
 18 22  1  0
 18 23  1  0
  9 10  1  0
  9 11  1  0
 10 12  1  0
 11  5  1  6
 33 34  1  0
 33 35  1  0
 34 36  1  0
 35 37  1  0
 37 43  1  6
 20 21  2  0
 21 22  1  0
M  CHG  3   2  -1  26  -1  41  -1
M  END
>  <COMPND>  (172) 
    udp_gluA.pdb 

>  <AUTHOR>  (172) 
    GENERATED BY OPEN BABEL 3.1.1

>  <MASTER>  (172) 
        0    0    0    0    0    0    0    0   56    0   56    0

>  <minimizedAffinity>  (172) 
-6.57863

>  <CNNscore>  (172) 
0.7780617476

>  <CNNaffinity>  (172) 
4.5518035889

>  <CNN_VS>  (172) 
3.5415842533

>  <CNNaffinity_variance>  (172) 
0.0741154701

$$$$
173
     RDKit          3D

 43 45  0  0  0  0  0  0  0  0999 V2000
   23.5460   72.7265   -3.6696 P   0  0  2  0  0  0  0  0  0  0  0  0
   24.1025   71.2599   -3.2719 O   0  0  0  0  0  0  0  0  0  0  0  0
   24.5164   73.5902   -4.4207 O   0  0  0  0  0  0  0  0  0  0  0  0
   23.0063   73.3303   -2.2688 O   0  0  0  0  0  0  0  0  0  0  0  0
   22.0648   74.3870   -2.3061 C   0  0  0  0  0  0  0  0  0  0  0  0
   21.1483   72.7604   -0.7921 O   0  0  0  0  0  0  0  0  0  0  0  0
   19.1458   74.8620   -0.0407 O   0  0  0  0  0  0  0  0  0  0  0  0
   20.9287   74.9742    2.0195 O   0  0  0  0  0  0  0  0  0  0  0  0
   20.5254   75.0079   -0.3781 C   0  0  1  0  0  0  0  0  0  0  0  0
   21.3975   74.5300    0.7635 C   0  0  2  0  0  0  0  0  0  0  0  0
   20.8509   73.9995   -1.4714 C   0  0  1  0  0  0  0  0  0  0  0  0
   21.3185   73.0206    0.6102 C   0  0  2  0  0  0  0  0  0  0  0  0
   18.9141   75.4962    0.6563 H   0  0  0  0  0  0  0  0  0  0  0  0
   20.9999   75.9409    2.0677 H   0  0  0  0  0  0  0  0  0  0  0  0
   21.4770   70.2711    1.2361 O   0  0  0  0  0  0  0  0  0  0  0  0
   25.9372   70.5955    2.3520 O   0  0  0  0  0  0  0  0  0  0  0  0
   22.5088   72.3604    1.0666 N   0  0  0  0  0  0  0  0  0  0  0  0
   23.6980   70.4355    1.7923 N   0  0  0  0  0  0  0  0  0  0  0  0
   22.4817   70.9752    1.3537 C   0  0  0  0  0  0  0  0  0  0  0  0
   23.6855   73.0826    1.2238 C   0  0  0  0  0  0  0  0  0  0  0  0
   24.8371   72.5542    1.6427 C   0  0  0  0  0  0  0  0  0  0  0  0
   24.8940   71.1133    1.9648 C   0  0  0  0  0  0  0  0  0  0  0  0
   23.7033   69.4732    2.0003 H   0  0  0  0  0  0  0  0  0  0  0  0
   22.1824   72.3922   -4.4706 O   0  0  0  0  0  0  0  0  0  0  0  0
   21.5274   73.0739   -5.7821 P   0  0  2  0  0  0  0  0  0  0  0  0
   22.4919   72.5712   -6.9810 O   0  0  0  0  0  0  0  0  0  0  0  0
   21.3790   74.5652   -5.6919 O   0  0  0  0  0  0  0  0  0  0  0  0
   20.1441   72.2760   -6.0106 O   0  0  0  0  0  0  0  0  0  0  0  0
   19.4915   70.1081   -5.3154 O   0  0  0  0  0  0  0  0  0  0  0  0
   17.4811   70.4805   -8.9054 O   0  0  0  0  0  0  0  0  0  0  0  0
   20.2405   71.4054   -8.6505 O   0  0  0  0  0  0  0  0  0  0  0  0
   16.0408   70.7356   -6.3932 O   0  0  0  0  0  0  0  0  0  0  0  0
   18.0645   70.9370   -7.6851 C   0  0  2  0  0  0  0  0  0  0  0  0
   19.5595   70.6169   -7.6813 C   0  0  2  0  0  0  0  0  0  0  0  0
   17.3639   70.2202   -6.5287 C   0  0  1  0  0  0  0  0  0  0  0  0
   20.1721   70.8806   -6.3051 C   0  0  1  0  0  0  0  0  0  0  0  0
   18.1061   70.4294   -5.2120 C   0  0  1  0  0  0  0  0  0  0  0  0
   17.9108   70.9225   -9.6546 H   0  0  0  0  0  0  0  0  0  0  0  0
   19.8567   71.2433   -9.5261 H   0  0  0  0  0  0  0  0  0  0  0  0
   15.5576   70.6088   -7.2246 H   0  0  0  0  0  0  0  0  0  0  0  0
   18.6024   69.1910   -3.2829 O   0  0  0  0  0  0  0  0  0  0  0  0
   16.4875   69.0146   -4.1167 O   0  0  0  0  0  0  0  0  0  0  0  0
   17.6175   69.4762   -4.1703 C   0  0  0  0  0  0  0  0  0  0  0  0
  1  4  1  0
  1 24  1  0
  1  2  1  1
  1  3  2  0
 25 28  1  0
 25 24  1  0
 25 26  1  6
 25 27  2  0
  6 11  1  0
  6 12  1  0
 29 36  1  0
 29 37  1  0
  9  7  1  1
  7 13  1  0
 10  8  1  1
  8 14  1  0
  4  5  1  0
 36 28  1  1
 33 30  1  6
 30 38  1  0
 34 31  1  6
 31 39  1  0
 35 32  1  1
 32 40  1  0
 41 43  1  0
 15 19  2  0
 42 43  2  0
 16 22  2  0
 12 17  1  6
 17 19  1  0
 17 20  1  0
 18 19  1  0
 18 22  1  0
 18 23  1  0
  9 10  1  0
  9 11  1  0
 10 12  1  0
 11  5  1  1
 33 34  1  0
 33 35  1  0
 34 36  1  0
 35 37  1  0
 37 43  1  1
 20 21  2  0
 21 22  1  0
M  CHG  3   2  -1  26  -1  41  -1
M  END
>  <COMPND>  (173) 
    udp_gluA.pdb 

>  <AUTHOR>  (173) 
    GENERATED BY OPEN BABEL 3.1.1

>  <MASTER>  (173) 
        0    0    0    0    0    0    0    0   56    0   56    0

>  <minimizedAffinity>  (173) 
-7.76054

>  <CNNscore>  (173) 
0.7426438332

>  <CNNaffinity>  (173) 
4.6093525887

>  <CNN_VS>  (173) 
3.4231073856

>  <CNNaffinity_variance>  (173) 
0.0607770272

$$$$
174
     RDKit          3D

 43 45  0  0  0  0  0  0  0  0999 V2000
   21.8886   72.8841   -5.1589 P   0  0  2  0  0  0  0  0  0  0  0  0
   21.4181   74.4281   -5.0417 O   0  0  0  0  0  0  0  0  0  0  0  0
   23.1307   72.6602   -5.9707 O   0  0  0  0  0  0  0  0  0  0  0  0
   20.5635   72.1122   -5.6748 O   0  0  0  0  0  0  0  0  0  0  0  0
   20.1803   72.2584   -7.0299 C   0  0  0  0  0  0  0  0  0  0  0  0
   19.0166   70.2278   -6.4823 O   0  0  0  0  0  0  0  0  0  0  0  0
   18.7064   69.8280   -9.4379 O   0  0  0  0  0  0  0  0  0  0  0  0
   16.2602   70.7856   -8.7062 O   0  0  0  0  0  0  0  0  0  0  0  0
   18.6784   71.0389   -8.6820 C   0  0  1  0  0  0  0  0  0  0  0  0
   17.3750   71.1510   -7.9198 C   0  0  2  0  0  0  0  0  0  0  0  0
   19.6959   70.9136   -7.5563 C   0  0  1  0  0  0  0  0  0  0  0  0
   17.6069   70.2012   -6.7571 C   0  0  2  0  0  0  0  0  0  0  0  0
   18.0641   69.8843  -10.1632 H   0  0  0  0  0  0  0  0  0  0  0  0
   16.1548   71.4207   -9.4325 H   0  0  0  0  0  0  0  0  0  0  0  0
   16.8107   68.4296   -4.7067 O   0  0  0  0  0  0  0  0  0  0  0  0
   14.8744   71.8296   -2.2705 O   0  0  0  0  0  0  0  0  0  0  0  0
   16.8934   70.5967   -5.5758 N   0  0  0  0  0  0  0  0  0  0  0  0
   15.8462   70.1245   -3.4957 N   0  0  0  0  0  0  0  0  0  0  0  0
   16.5406   69.6279   -4.6067 C   0  0  0  0  0  0  0  0  0  0  0  0
   16.5522   71.9303   -5.3855 C   0  0  0  0  0  0  0  0  0  0  0  0
   15.8903   72.3885   -4.3212 C   0  0  0  0  0  0  0  0  0  0  0  0
   15.4838   71.4413   -3.2625 C   0  0  0  0  0  0  0  0  0  0  0  0
   15.5880   69.4685   -2.8085 H   0  0  0  0  0  0  0  0  0  0  0  0
   22.0010   72.4207   -3.6144 O   0  0  0  0  0  0  0  0  0  0  0  0
   23.2880   72.2265   -2.6555 P   0  0  2  0  0  0  0  0  0  0  0  0
   24.0670   73.6389   -2.7914 O   0  0  0  0  0  0  0  0  0  0  0  0
   24.1251   71.0244   -2.9843 O   0  0  0  0  0  0  0  0  0  0  0  0
   22.6877   72.2350   -1.1581 O   0  0  0  0  0  0  0  0  0  0  0  0
   24.0938   71.1864    0.4333 O   0  0  0  0  0  0  0  0  0  0  0  0
   20.6604   71.8296    2.6393 O   0  0  0  0  0  0  0  0  0  0  0  0
   20.4926   70.8800   -0.1183 O   0  0  0  0  0  0  0  0  0  0  0  0
   22.9895   73.5229    3.0378 O   0  0  0  0  0  0  0  0  0  0  0  0
   21.6350   72.1087    1.6342 C   0  0  2  0  0  0  0  0  0  0  0  0
   21.6936   70.9472    0.6417 C   0  0  2  0  0  0  0  0  0  0  0  0
   22.9888   72.2875    2.3248 C   0  0  1  0  0  0  0  0  0  0  0  0
   22.8787   71.1023   -0.3124 C   0  0  1  0  0  0  0  0  0  0  0  0
   24.1317   72.3072    1.3139 C   0  0  1  0  0  0  0  0  0  0  0  0
   19.7916   71.7120    2.2238 H   0  0  0  0  0  0  0  0  0  0  0  0
   19.7364   70.7818    0.4809 H   0  0  0  0  0  0  0  0  0  0  0  0
   22.2666   73.5234    3.6846 H   0  0  0  0  0  0  0  0  0  0  0  0
   26.0339   70.9772    1.6518 O   0  0  0  0  0  0  0  0  0  0  0  0
   25.9416   72.9631    2.7683 O   0  0  0  0  0  0  0  0  0  0  0  0
   25.4496   72.1503    2.0000 C   0  0  0  0  0  0  0  0  0  0  0  0
  1  4  1  0
  1 24  1  0
  1  2  1  1
  1  3  2  0
 25 28  1  0
 25 24  1  0
 25 26  1  1
 25 27  2  0
  6 11  1  0
  6 12  1  0
 29 36  1  0
 29 37  1  0
  9  7  1  6
  7 13  1  0
 10  8  1  6
  8 14  1  0
  4  5  1  0
 36 28  1  1
 33 30  1  1
 30 38  1  0
 34 31  1  6
 31 39  1  0
 35 32  1  6
 32 40  1  0
 41 43  1  0
 15 19  2  0
 42 43  2  0
 16 22  2  0
 12 17  1  1
 17 19  1  0
 17 20  1  0
 18 19  1  0
 18 22  1  0
 18 23  1  0
  9 10  1  0
  9 11  1  0
 10 12  1  0
 11  5  1  1
 33 34  1  0
 33 35  1  0
 34 36  1  0
 35 37  1  0
 37 43  1  1
 20 21  2  0
 21 22  1  0
M  CHG  3   2  -1  26  -1  41  -1
M  END
>  <COMPND>  (174) 
    udp_gluA.pdb 

>  <AUTHOR>  (174) 
    GENERATED BY OPEN BABEL 3.1.1

>  <MASTER>  (174) 
        0    0    0    0    0    0    0    0   56    0   56    0

>  <minimizedAffinity>  (174) 
-7.86846

>  <CNNscore>  (174) 
0.7161305547

>  <CNNaffinity>  (174) 
4.5247035027

>  <CNN_VS>  (174) 
3.2402784824

>  <CNNaffinity_variance>  (174) 
0.1181475148

$$$$
175
     RDKit          3D

 43 45  0  0  0  0  0  0  0  0999 V2000
   23.4812   73.7372   -4.0231 P   0  0  2  0  0  0  0  0  0  0  0  0
   24.2839   72.3374   -4.1449 O   0  0  0  0  0  0  0  0  0  0  0  0
   24.1689   74.9180   -4.6433 O   0  0  0  0  0  0  0  0  0  0  0  0
   23.1572   73.8631   -2.4428 O   0  0  0  0  0  0  0  0  0  0  0  0
   21.8344   73.6175   -2.0022 C   0  0  0  0  0  0  0  0  0  0  0  0
   22.9486   71.6975   -1.0803 O   0  0  0  0  0  0  0  0  0  0  0  0
   20.2153   70.5216   -0.7090 O   0  0  0  0  0  0  0  0  0  0  0  0
   20.8302   71.4033    1.7972 O   0  0  0  0  0  0  0  0  0  0  0  0
   20.6404   71.8785   -0.5799 C   0  0  1  0  0  0  0  0  0  0  0  0
   21.4282   72.0614    0.7000 C   0  0  2  0  0  0  0  0  0  0  0  0
   21.6963   72.1432   -1.6445 C   0  0  1  0  0  0  0  0  0  0  0  0
   22.7769   71.4697    0.3275 C   0  0  2  0  0  0  0  0  0  0  0  0
   19.5404   70.3288   -0.0389 H   0  0  0  0  0  0  0  0  0  0  0  0
   19.9747   71.8168    1.9951 H   0  0  0  0  0  0  0  0  0  0  0  0
   24.6406   70.0732    1.9254 O   0  0  0  0  0  0  0  0  0  0  0  0
   26.8965   73.9461    3.0005 O   0  0  0  0  0  0  0  0  0  0  0  0
   23.8613   72.0883    1.0362 N   0  0  0  0  0  0  0  0  0  0  0  0
   25.7617   72.0036    2.4601 N   0  0  0  0  0  0  0  0  0  0  0  0
   24.7411   71.2963    1.8113 C   0  0  0  0  0  0  0  0  0  0  0  0
   24.0459   73.4634    0.9584 C   0  0  0  0  0  0  0  0  0  0  0  0
   25.0235   74.1234    1.5825 C   0  0  0  0  0  0  0  0  0  0  0  0
   25.9854   73.3701    2.4135 C   0  0  0  0  0  0  0  0  0  0  0  0
   26.3856   71.4738    3.0074 H   0  0  0  0  0  0  0  0  0  0  0  0
   22.0390   73.3855   -4.6628 O   0  0  0  0  0  0  0  0  0  0  0  0
   21.4829   73.5351   -6.1734 P   0  0  2  0  0  0  0  0  0  0  0  0
   22.6071   72.7776   -7.0581 O   0  0  0  0  0  0  0  0  0  0  0  0
   21.2161   74.9515   -6.5939 O   0  0  0  0  0  0  0  0  0  0  0  0
   20.1954   72.5650   -6.2336 O   0  0  0  0  0  0  0  0  0  0  0  0
   19.8183   70.3758   -5.4124 O   0  0  0  0  0  0  0  0  0  0  0  0
   17.6543   70.3380   -8.9314 O   0  0  0  0  0  0  0  0  0  0  0  0
   20.2977   71.5776   -8.8318 O   0  0  0  0  0  0  0  0  0  0  0  0
   16.2831   70.5578   -6.3775 O   0  0  0  0  0  0  0  0  0  0  0  0
   18.2243   70.9184   -7.7583 C   0  0  2  0  0  0  0  0  0  0  0  0
   19.7452   70.7681   -7.8003 C   0  0  2  0  0  0  0  0  0  0  0  0
   17.6506   70.1874   -6.5424 C   0  0  1  0  0  0  0  0  0  0  0  0
   20.3716   71.1683   -6.4637 C   0  0  1  0  0  0  0  0  0  0  0  0
   18.4099   70.5450   -5.2680 C   0  0  1  0  0  0  0  0  0  0  0  0
   18.0044   70.7866   -9.7172 H   0  0  0  0  0  0  0  0  0  0  0  0
   19.9045   71.3292   -9.6827 H   0  0  0  0  0  0  0  0  0  0  0  0
   15.7887   70.3356   -7.1819 H   0  0  0  0  0  0  0  0  0  0  0  0
   18.9760   69.6874   -3.1595 O   0  0  0  0  0  0  0  0  0  0  0  0
   17.1080   68.8435   -4.1582 O   0  0  0  0  0  0  0  0  0  0  0  0
   18.0696   69.5973   -4.1641 C   0  0  0  0  0  0  0  0  0  0  0  0
  1  4  1  0
  1 24  1  0
  1  2  1  1
  1  3  2  0
 25 28  1  0
 25 24  1  0
 25 26  1  6
 25 27  2  0
  6 11  1  0
  6 12  1  0
 29 36  1  0
 29 37  1  0
  9  7  1  6
  7 13  1  0
 10  8  1  1
  8 14  1  0
  4  5  1  0
 36 28  1  1
 33 30  1  6
 30 38  1  0
 34 31  1  6
 31 39  1  0
 35 32  1  1
 32 40  1  0
 41 43  1  0
 15 19  2  0
 42 43  2  0
 16 22  2  0
 12 17  1  1
 17 19  1  0
 17 20  1  0
 18 19  1  0
 18 22  1  0
 18 23  1  0
  9 10  1  0
  9 11  1  0
 10 12  1  0
 11  5  1  1
 33 34  1  0
 33 35  1  0
 34 36  1  0
 35 37  1  0
 37 43  1  1
 20 21  2  0
 21 22  1  0
M  CHG  3   2  -1  26  -1  41  -1
M  END
>  <COMPND>  (175) 
    udp_gluA.pdb 

>  <AUTHOR>  (175) 
    GENERATED BY OPEN BABEL 3.1.1

>  <MASTER>  (175) 
        0    0    0    0    0    0    0    0   56    0   56    0

>  <minimizedAffinity>  (175) 
-7.79241

>  <CNNscore>  (175) 
0.7146805525

>  <CNNaffinity>  (175) 
4.4809436798

>  <CNN_VS>  (175) 
3.2024433613

>  <CNNaffinity_variance>  (175) 
0.1078705639

$$$$
176
     RDKit          3D

 43 45  0  0  0  0  0  0  0  0999 V2000
   21.9532   72.6874   -5.7910 P   0  0  2  0  0  0  0  0  0  0  0  0
   21.4365   74.1526   -5.3384 O   0  0  0  0  0  0  0  0  0  0  0  0
   23.0638   72.6910   -6.8002 O   0  0  0  0  0  0  0  0  0  0  0  0
   20.6009   71.9192   -6.2372 O   0  0  0  0  0  0  0  0  0  0  0  0
   20.0615   72.1887   -7.5182 C   0  0  0  0  0  0  0  0  0  0  0  0
   18.9909   70.1020   -6.9917 O   0  0  0  0  0  0  0  0  0  0  0  0
   18.1551   70.0180   -9.8702 O   0  0  0  0  0  0  0  0  0  0  0  0
   15.8892   70.8726   -8.6165 O   0  0  0  0  0  0  0  0  0  0  0  0
   18.2758   71.1409   -8.9967 C   0  0  1  0  0  0  0  0  0  0  0  0
   17.1302   71.1606   -8.0070 C   0  0  2  0  0  0  0  0  0  0  0  0
   19.4760   70.9040   -8.0902 C   0  0  1  0  0  0  0  0  0  0  0  0
   17.5546   70.0939   -7.0121 C   0  0  2  0  0  0  0  0  0  0  0  0
   17.3947   70.1464  -10.4592 H   0  0  0  0  0  0  0  0  0  0  0  0
   15.6634   71.5809   -9.2405 H   0  0  0  0  0  0  0  0  0  0  0  0
   16.2980   68.1725   -5.3671 O   0  0  0  0  0  0  0  0  0  0  0  0
   15.7250   71.2084   -1.9467 O   0  0  0  0  0  0  0  0  0  0  0  0
   17.0674   70.3552   -5.6873 N   0  0  0  0  0  0  0  0  0  0  0  0
   16.0129   69.6867   -3.6655 N   0  0  0  0  0  0  0  0  0  0  0  0
   16.4513   69.3202   -4.9448 C   0  0  0  0  0  0  0  0  0  0  0  0
   17.2032   71.6235   -5.1360 C   0  0  0  0  0  0  0  0  0  0  0  0
   16.7804   71.9577   -3.9152 C   0  0  0  0  0  0  0  0  0  0  0  0
   16.1250   70.9346   -3.0742 C   0  0  0  0  0  0  0  0  0  0  0  0
   15.5789   68.9834   -3.1304 H   0  0  0  0  0  0  0  0  0  0  0  0
   22.3240   71.9828   -4.3843 O   0  0  0  0  0  0  0  0  0  0  0  0
   23.5968   72.1717   -3.4056 P   0  0  2  0  0  0  0  0  0  0  0  0
   24.5025   73.2649   -4.1835 O   0  0  0  0  0  0  0  0  0  0  0  0
   24.3152   70.8952   -3.0762 O   0  0  0  0  0  0  0  0  0  0  0  0
   23.0149   72.9620   -2.1252 O   0  0  0  0  0  0  0  0  0  0  0  0
   21.7672   71.7398   -0.5256 O   0  0  0  0  0  0  0  0  0  0  0  0
   20.8312   75.6368    0.4770 O   0  0  0  0  0  0  0  0  0  0  0  0
   20.9517   74.8166   -2.3242 O   0  0  0  0  0  0  0  0  0  0  0  0
   22.6988   74.1189    2.1077 O   0  0  0  0  0  0  0  0  0  0  0  0
   21.6551   74.5797   -0.0144 C   0  0  2  0  0  0  0  0  0  0  0  0
   20.9798   73.9219   -1.2182 C   0  0  2  0  0  0  0  0  0  0  0  0
   21.8413   73.5620    1.1132 C   0  0  1  0  0  0  0  0  0  0  0  0
   21.7157   72.6457   -1.6285 C   0  0  1  0  0  0  0  0  0  0  0  0
   22.4667   72.2686    0.5987 C   0  0  1  0  0  0  0  0  0  0  0  0
   20.6989   76.2959   -0.2226 H   0  0  0  0  0  0  0  0  0  0  0  0
   20.4864   75.6288   -2.0709 H   0  0  0  0  0  0  0  0  0  0  0  0
   22.3122   74.9428    2.4433 H   0  0  0  0  0  0  0  0  0  0  0  0
   21.4499   70.2439    1.2053 O   0  0  0  0  0  0  0  0  0  0  0  0
   22.9592   71.1288    2.6674 O   0  0  0  0  0  0  0  0  0  0  0  0
   22.3429   71.1792    1.6136 C   0  0  0  0  0  0  0  0  0  0  0  0
  1  4  1  0
  1 24  1  0
  1  2  1  1
  1  3  2  0
 25 28  1  0
 25 24  1  0
 25 26  1  6
 25 27  2  0
  6 11  1  0
  6 12  1  0
 29 36  1  0
 29 37  1  0
  9  7  1  6
  7 13  1  0
 10  8  1  6
  8 14  1  0
  4  5  1  0
 36 28  1  1
 33 30  1  1
 30 38  1  0
 34 31  1  6
 31 39  1  0
 35 32  1  1
 32 40  1  0
 41 43  1  0
 15 19  2  0
 42 43  2  0
 16 22  2  0
 12 17  1  1
 17 19  1  0
 17 20  1  0
 18 19  1  0
 18 22  1  0
 18 23  1  0
  9 10  1  0
  9 11  1  0
 10 12  1  0
 11  5  1  1
 33 34  1  0
 33 35  1  0
 34 36  1  0
 35 37  1  0
 37 43  1  1
 20 21  2  0
 21 22  1  0
M  CHG  3   2  -1  26  -1  41  -1
M  END
>  <COMPND>  (176) 
    udp_gluA.pdb 

>  <AUTHOR>  (176) 
    GENERATED BY OPEN BABEL 3.1.1

>  <MASTER>  (176) 
        0    0    0    0    0    0    0    0   56    0   56    0

>  <minimizedAffinity>  (176) 
-8.04302

>  <CNNscore>  (176) 
0.6936872005

>  <CNNaffinity>  (176) 
4.4471864700

>  <CNN_VS>  (176) 
3.0849564075

>  <CNNaffinity_variance>  (176) 
0.3696107268

$$$$
177
     RDKit          3D

 43 45  0  0  0  0  0  0  0  0999 V2000
   23.5555   73.7437   -3.5932 P   0  0  2  0  0  0  0  0  0  0  0  0
   22.6743   75.0562   -3.9393 O   0  0  0  0  0  0  0  0  0  0  0  0
   24.9684   73.7782   -4.0973 O   0  0  0  0  0  0  0  0  0  0  0  0
   22.6486   72.5149   -4.1277 O   0  0  0  0  0  0  0  0  0  0  0  0
   21.4835   72.8099   -4.8760 C   0  0  0  0  0  0  0  0  0  0  0  0
   20.7436   70.7170   -5.7979 O   0  0  0  0  0  0  0  0  0  0  0  0
   21.1827   71.9609   -8.4908 O   0  0  0  0  0  0  0  0  0  0  0  0
   18.4808   72.1558   -8.1778 O   0  0  0  0  0  0  0  0  0  0  0  0
   20.7063   72.5600   -7.2855 C   0  0  1  0  0  0  0  0  0  0  0  0
   19.2805   72.1291   -7.0141 C   0  0  2  0  0  0  0  0  0  0  0  0
   21.4567   71.9308   -6.1197 C   0  0  1  0  0  0  0  0  0  0  0  0
   19.4739   70.7241   -6.4696 C   0  0  2  0  0  0  0  0  0  0  0  0
   20.7177   72.3470   -9.2499 H   0  0  0  0  0  0  0  0  0  0  0  0
   18.3875   73.0717   -8.4850 H   0  0  0  0  0  0  0  0  0  0  0  0
   16.9311   69.7358   -7.2004 O   0  0  0  0  0  0  0  0  0  0  0  0
   15.6217   69.3310   -2.7998 O   0  0  0  0  0  0  0  0  0  0  0  0
   18.4493   70.3526   -5.5351 N   0  0  0  0  0  0  0  0  0  0  0  0
   16.2810   69.5361   -5.0080 N   0  0  0  0  0  0  0  0  0  0  0  0
   17.2065   69.8673   -6.0063 C   0  0  0  0  0  0  0  0  0  0  0  0
   18.6806   70.4688   -4.1699 C   0  0  0  0  0  0  0  0  0  0  0  0
   17.7886   70.1490   -3.2302 C   0  0  0  0  0  0  0  0  0  0  0  0
   16.4648   69.6350   -3.6383 C   0  0  0  0  0  0  0  0  0  0  0  0
   15.4077   69.1979   -5.3117 H   0  0  0  0  0  0  0  0  0  0  0  0
   23.4163   73.6262   -1.9871 O   0  0  0  0  0  0  0  0  0  0  0  0
   22.5611   72.6081   -1.0674 P   0  0  2  0  0  0  0  0  0  0  0  0
   23.2846   71.1827   -1.3226 O   0  0  0  0  0  0  0  0  0  0  0  0
   21.0868   72.6127   -1.3506 O   0  0  0  0  0  0  0  0  0  0  0  0
   22.9530   72.9980    0.4481 O   0  0  0  0  0  0  0  0  0  0  0  0
   25.0464   72.8899    1.5504 O   0  0  0  0  0  0  0  0  0  0  0  0
   22.4233   72.1372    4.6521 O   0  0  0  0  0  0  0  0  0  0  0  0
   22.0068   70.9159    2.0311 O   0  0  0  0  0  0  0  0  0  0  0  0
   23.6994   74.7387    4.4191 O   0  0  0  0  0  0  0  0  0  0  0  0
   22.8526   72.7165    3.4200 C   0  0  2  0  0  0  0  0  0  0  0  0
   23.1873   71.6074    2.4223 C   0  0  2  0  0  0  0  0  0  0  0  0
   24.0916   73.5684    3.7043 C   0  0  1  0  0  0  0  0  0  0  0  0
   23.8658   72.1788    1.1764 C   0  0  1  0  0  0  0  0  0  0  0  0
   24.7830   73.9947    2.4125 C   0  0  1  0  0  0  0  0  0  0  0  0
   21.6367   71.5910    4.4961 H   0  0  0  0  0  0  0  0  0  0  0  0
   21.5711   70.5510    2.8168 H   0  0  0  0  0  0  0  0  0  0  0  0
   23.2578   74.4813    5.2435 H   0  0  0  0  0  0  0  0  0  0  0  0
   26.3503   75.6966    2.0274 O   0  0  0  0  0  0  0  0  0  0  0  0
   26.9730   74.0061    3.4250 O   0  0  0  0  0  0  0  0  0  0  0  0
   26.1479   74.5333    2.6941 C   0  0  0  0  0  0  0  0  0  0  0  0
  1  4  1  0
  1 24  1  0
  1  2  1  6
  1  3  2  0
 25 28  1  0
 25 24  1  0
 25 26  1  6
 25 27  2  0
  6 11  1  0
  6 12  1  0
 29 36  1  0
 29 37  1  0
  9  7  1  6
  7 13  1  0
 10  8  1  6
  8 14  1  0
  4  5  1  0
 36 28  1  1
 33 30  1  1
 30 38  1  0
 34 31  1  6
 31 39  1  0
 35 32  1  6
 32 40  1  0
 41 43  1  0
 15 19  2  0
 42 43  2  0
 16 22  2  0
 12 17  1  1
 17 19  1  0
 17 20  1  0
 18 19  1  0
 18 22  1  0
 18 23  1  0
  9 10  1  0
  9 11  1  0
 10 12  1  0
 11  5  1  1
 33 34  1  0
 33 35  1  0
 34 36  1  0
 35 37  1  0
 37 43  1  1
 20 21  2  0
 21 22  1  0
M  CHG  3   2  -1  26  -1  41  -1
M  END
>  <COMPND>  (177) 
    udp_gluA.pdb 

>  <AUTHOR>  (177) 
    GENERATED BY OPEN BABEL 3.1.1

>  <MASTER>  (177) 
        0    0    0    0    0    0    0    0   56    0   56    0

>  <minimizedAffinity>  (177) 
-6.96591

>  <CNNscore>  (177) 
0.6075553894

>  <CNNaffinity>  (177) 
4.2427501678

>  <CNN_VS>  (177) 
2.5777056217

>  <CNNaffinity_variance>  (177) 
0.0524534509

$$$$
178
     RDKit          3D

 43 45  0  0  0  0  0  0  0  0999 V2000
   23.1064   71.7331   -2.6090 P   0  0  2  0  0  0  0  0  0  0  0  0
   23.3275   73.3190   -2.3748 O   0  0  0  0  0  0  0  0  0  0  0  0
   24.3116   70.9926   -3.1101 O   0  0  0  0  0  0  0  0  0  0  0  0
   21.7939   71.6590   -3.5523 O   0  0  0  0  0  0  0  0  0  0  0  0
   21.6700   72.5889   -4.6127 C   0  0  0  0  0  0  0  0  0  0  0  0
   20.7947   70.6391   -5.7126 O   0  0  0  0  0  0  0  0  0  0  0  0
   21.3002   72.0924   -8.2862 O   0  0  0  0  0  0  0  0  0  0  0  0
   18.6176   72.4275   -7.9297 O   0  0  0  0  0  0  0  0  0  0  0  0
   20.8680   72.6083   -7.0270 C   0  0  1  0  0  0  0  0  0  0  0  0
   19.4189   72.2449   -6.7813 C   0  0  2  0  0  0  0  0  0  0  0  0
   21.5820   71.8298   -5.9304 C   0  0  1  0  0  0  0  0  0  0  0  0
   19.5251   70.7869   -6.3680 C   0  0  2  0  0  0  0  0  0  0  0  0
   20.8574   72.5744   -9.0026 H   0  0  0  0  0  0  0  0  0  0  0  0
   18.5812   73.3716   -8.1519 H   0  0  0  0  0  0  0  0  0  0  0  0
   16.9961   69.8157   -7.1664 O   0  0  0  0  0  0  0  0  0  0  0  0
   15.6043   69.3220   -2.8002 O   0  0  0  0  0  0  0  0  0  0  0  0
   18.4831   70.3972   -5.4607 N   0  0  0  0  0  0  0  0  0  0  0  0
   16.3049   69.5717   -4.9910 N   0  0  0  0  0  0  0  0  0  0  0  0
   17.2491   69.9226   -5.9649 C   0  0  0  0  0  0  0  0  0  0  0  0
   18.6888   70.4852   -4.0893 C   0  0  0  0  0  0  0  0  0  0  0  0
   17.7793   70.1469   -3.1732 C   0  0  0  0  0  0  0  0  0  0  0  0
   16.4630   69.6424   -3.6164 C   0  0  0  0  0  0  0  0  0  0  0  0
   15.4373   69.2405   -5.3179 H   0  0  0  0  0  0  0  0  0  0  0  0
   22.5534   71.2282   -1.1765 O   0  0  0  0  0  0  0  0  0  0  0  0
   21.3592   71.7891   -0.2422 P   0  0  2  0  0  0  0  0  0  0  0  0
   20.9255   70.4912    0.6225 O   0  0  0  0  0  0  0  0  0  0  0  0
   20.2338   72.4312   -1.0006 O   0  0  0  0  0  0  0  0  0  0  0  0
   22.0909   72.7593    0.8188 O   0  0  0  0  0  0  0  0  0  0  0  0
   23.3603   71.4652    2.3430 O   0  0  0  0  0  0  0  0  0  0  0  0
   23.9125   75.2840    3.8193 O   0  0  0  0  0  0  0  0  0  0  0  0
   21.2787   74.4192    2.8976 O   0  0  0  0  0  0  0  0  0  0  0  0
   26.0393   73.9721    2.3338 O   0  0  0  0  0  0  0  0  0  0  0  0
   23.7001   74.2940    2.8130 C   0  0  2  0  0  0  0  0  0  0  0  0
   22.3916   73.5539    3.0913 C   0  0  2  0  0  0  0  0  0  0  0  0
   24.8805   73.3207    2.8506 C   0  0  1  0  0  0  0  0  0  0  0  0
   22.2439   72.3396    2.1735 C   0  0  1  0  0  0  0  0  0  0  0  0
   24.6043   72.0774    2.0101 C   0  0  1  0  0  0  0  0  0  0  0  0
   23.1746   75.9140    3.8142 H   0  0  0  0  0  0  0  0  0  0  0  0
   21.3660   75.1921    3.4767 H   0  0  0  0  0  0  0  0  0  0  0  0
   26.2260   74.7654    2.8599 H   0  0  0  0  0  0  0  0  0  0  0  0
   24.9692   69.8573    2.6731 O   0  0  0  0  0  0  0  0  0  0  0  0
   26.8111   71.1292    2.2385 O   0  0  0  0  0  0  0  0  0  0  0  0
   25.5979   71.0027    2.3101 C   0  0  0  0  0  0  0  0  0  0  0  0
  1  4  1  0
  1 24  1  0
  1  2  1  1
  1  3  2  0
 25 28  1  0
 25 24  1  0
 25 26  1  1
 25 27  2  0
  6 11  1  0
  6 12  1  0
 29 36  1  0
 29 37  1  0
  9  7  1  6
  7 13  1  0
 10  8  1  6
  8 14  1  0
  4  5  1  0
 36 28  1  6
 33 30  1  1
 30 38  1  0
 34 31  1  6
 31 39  1  0
 35 32  1  6
 32 40  1  0
 41 43  1  0
 15 19  2  0
 42 43  2  0
 16 22  2  0
 12 17  1  1
 17 19  1  0
 17 20  1  0
 18 19  1  0
 18 22  1  0
 18 23  1  0
  9 10  1  0
  9 11  1  0
 10 12  1  0
 11  5  1  1
 33 34  1  0
 33 35  1  0
 34 36  1  0
 35 37  1  0
 37 43  1  1
 20 21  2  0
 21 22  1  0
M  CHG  3   2  -1  26  -1  41  -1
M  END
>  <COMPND>  (178) 
    udp_gluA.pdb 

>  <AUTHOR>  (178) 
    GENERATED BY OPEN BABEL 3.1.1

>  <MASTER>  (178) 
        0    0    0    0    0    0    0    0   56    0   56    0

>  <minimizedAffinity>  (178) 
-7.84035

>  <CNNscore>  (178) 
0.5990194678

>  <CNNaffinity>  (178) 
4.2592744827

>  <CNN_VS>  (178) 
2.5513882637

>  <CNNaffinity_variance>  (178) 
0.1980048567

$$$$
179
     RDKit          3D

 43 45  0  0  0  0  0  0  0  0999 V2000
   23.0535   71.7653   -2.5122 P   0  0  2  0  0  0  0  0  0  0  0  0
   23.3471   73.3226   -2.1843 O   0  0  0  0  0  0  0  0  0  0  0  0
   24.1987   71.0222   -3.1352 O   0  0  0  0  0  0  0  0  0  0  0  0
   21.6861   71.8013   -3.3763 O   0  0  0  0  0  0  0  0  0  0  0  0
   21.5865   72.7230   -4.4464 C   0  0  0  0  0  0  0  0  0  0  0  0
   20.8020   70.7438   -5.5622 O   0  0  0  0  0  0  0  0  0  0  0  0
   21.3488   72.1981   -8.1269 O   0  0  0  0  0  0  0  0  0  0  0  0
   18.6477   72.4590   -7.8581 O   0  0  0  0  0  0  0  0  0  0  0  0
   20.8621   72.7077   -6.8851 C   0  0  1  0  0  0  0  0  0  0  0  0
   19.4167   72.3049   -6.6836 C   0  0  2  0  0  0  0  0  0  0  0  0
   21.5622   71.9552   -5.7618 C   0  0  1  0  0  0  0  0  0  0  0  0
   19.5504   70.8525   -6.2586 C   0  0  2  0  0  0  0  0  0  0  0  0
   20.9157   72.6638   -8.8599 H   0  0  0  0  0  0  0  0  0  0  0  0
   18.5920   73.4006   -8.0868 H   0  0  0  0  0  0  0  0  0  0  0  0
   17.0548   69.8600   -7.1324 O   0  0  0  0  0  0  0  0  0  0  0  0
   15.5611   69.2925   -2.8091 O   0  0  0  0  0  0  0  0  0  0  0  0
   18.4912   70.4380   -5.3828 N   0  0  0  0  0  0  0  0  0  0  0  0
   16.3128   69.5793   -4.9783 N   0  0  0  0  0  0  0  0  0  0  0  0
   17.2764   69.9545   -5.9237 C   0  0  0  0  0  0  0  0  0  0  0  0
   18.6614   70.5109   -4.0056 C   0  0  0  0  0  0  0  0  0  0  0  0
   17.7338   70.1495   -3.1170 C   0  0  0  0  0  0  0  0  0  0  0  0
   16.4357   69.6342   -3.5994 C   0  0  0  0  0  0  0  0  0  0  0  0
   15.4580   69.2414   -5.3311 H   0  0  0  0  0  0  0  0  0  0  0  0
   22.5670   71.1796   -1.0863 O   0  0  0  0  0  0  0  0  0  0  0  0
   21.5175   71.7607   -0.0025 P   0  0  2  0  0  0  0  0  0  0  0  0
   21.0701   70.4420    0.8229 O   0  0  0  0  0  0  0  0  0  0  0  0
   20.3772   72.5318   -0.6015 O   0  0  0  0  0  0  0  0  0  0  0  0
   22.4233   72.6020    1.0340 O   0  0  0  0  0  0  0  0  0  0  0  0
   21.3820   74.3820    2.1987 O   0  0  0  0  0  0  0  0  0  0  0  0
   25.3811   75.1391    2.9075 O   0  0  0  0  0  0  0  0  0  0  0  0
   24.4786   74.3070    0.2565 O   0  0  0  0  0  0  0  0  0  0  0  0
   23.7191   73.9958    5.0007 O   0  0  0  0  0  0  0  0  0  0  0  0
   24.2304   74.3282    2.6698 C   0  0  2  0  0  0  0  0  0  0  0  0
   23.6156   74.6955    1.3190 C   0  0  2  0  0  0  0  0  0  0  0  0
   23.2291   74.5858    3.7981 C   0  0  1  0  0  0  0  0  0  0  0  0
   22.2586   74.0154    1.1325 C   0  0  1  0  0  0  0  0  0  0  0  0
   21.8640   73.9827    3.4798 C   0  0  1  0  0  0  0  0  0  0  0  0
   26.0315   74.9922    2.2028 H   0  0  0  0  0  0  0  0  0  0  0  0
   25.3416   74.7347    0.3687 H   0  0  0  0  0  0  0  0  0  0  0  0
   24.5877   74.3709    5.2144 H   0  0  0  0  0  0  0  0  0  0  0  0
   21.3132   75.5356    5.1491 O   0  0  0  0  0  0  0  0  0  0  0  0
   19.6789   74.0851    4.4978 O   0  0  0  0  0  0  0  0  0  0  0  0
   20.8209   74.5106    4.4102 C   0  0  0  0  0  0  0  0  0  0  0  0
  1  4  1  0
  1 24  1  0
  1  2  1  1
  1  3  2  0
 25 28  1  0
 25 24  1  0
 25 26  1  1
 25 27  2  0
  6 11  1  0
  6 12  1  0
 29 36  1  0
 29 37  1  0
  9  7  1  6
  7 13  1  0
 10  8  1  6
  8 14  1  0
  4  5  1  0
 36 28  1  1
 33 30  1  1
 30 38  1  0
 34 31  1  6
 31 39  1  0
 35 32  1  1
 32 40  1  0
 41 43  1  0
 15 19  2  0
 42 43  2  0
 16 22  2  0
 12 17  1  1
 17 19  1  0
 17 20  1  0
 18 19  1  0
 18 22  1  0
 18 23  1  0
  9 10  1  0
  9 11  1  0
 10 12  1  0
 11  5  1  1
 33 34  1  0
 33 35  1  0
 34 36  1  0
 35 37  1  0
 37 43  1  1
 20 21  2  0
 21 22  1  0
M  CHG  3   2  -1  26  -1  41  -1
M  END
>  <COMPND>  (179) 
    udp_gluA.pdb 

>  <AUTHOR>  (179) 
    GENERATED BY OPEN BABEL 3.1.1

>  <MASTER>  (179) 
        0    0    0    0    0    0    0    0   56    0   56    0

>  <minimizedAffinity>  (179) 
-6.79220

>  <CNNscore>  (179) 
0.5418559909

>  <CNNaffinity>  (179) 
4.0646476746

>  <CNN_VS>  (179) 
2.2024536133

>  <CNNaffinity_variance>  (179) 
0.2478613555

$$$$
180
     RDKit          3D

 43 45  0  0  0  0  0  0  0  0999 V2000
   23.5913   72.3558   -3.5575 P   0  0  2  0  0  0  0  0  0  0  0  0
   24.2114   70.8903   -3.2631 O   0  0  0  0  0  0  0  0  0  0  0  0
   24.5888   73.3910   -3.9877 O   0  0  0  0  0  0  0  0  0  0  0  0
   22.7551   72.7005   -2.2160 O   0  0  0  0  0  0  0  0  0  0  0  0
   22.6141   71.6944   -1.2299 C   0  0  0  0  0  0  0  0  0  0  0  0
   20.9187   71.0195    0.3347 O   0  0  0  0  0  0  0  0  0  0  0  0
   18.9326   72.0896   -1.6406 O   0  0  0  0  0  0  0  0  0  0  0  0
   19.0727   74.0904    0.2069 O   0  0  0  0  0  0  0  0  0  0  0  0
   20.2309   72.5816   -1.3078 C   0  0  1  0  0  0  0  0  0  0  0  0
   20.2034   73.2597    0.0456 C   0  0  2  0  0  0  0  0  0  0  0  0
   21.1341   71.3841   -1.0459 C   0  0  1  0  0  0  0  0  0  0  0  0
   20.1967   72.0723    0.9932 C   0  0  2  0  0  0  0  0  0  0  0  0
   18.3376   72.8367   -1.8123 H   0  0  0  0  0  0  0  0  0  0  0  0
   19.1240   74.8312   -0.4181 H   0  0  0  0  0  0  0  0  0  0  0  0
   18.9871   73.5034    3.1064 O   0  0  0  0  0  0  0  0  0  0  0  0
   22.7470   73.1403    5.7475 O   0  0  0  0  0  0  0  0  0  0  0  0
   20.8368   72.3659    2.2442 N   0  0  0  0  0  0  0  0  0  0  0  0
   20.8613   73.3220    4.4194 N   0  0  0  0  0  0  0  0  0  0  0  0
   20.1411   73.0917    3.2398 C   0  0  0  0  0  0  0  0  0  0  0  0
   22.1376   71.9354    2.4756 C   0  0  0  0  0  0  0  0  0  0  0  0
   22.8109   72.1624    3.6051 C   0  0  0  0  0  0  0  0  0  0  0  0
   22.1564   72.9146    4.6956 C   0  0  0  0  0  0  0  0  0  0  0  0
   20.3984   73.8272    5.1265 H   0  0  0  0  0  0  0  0  0  0  0  0
   22.4309   72.0481   -4.6400 O   0  0  0  0  0  0  0  0  0  0  0  0
   21.6193   73.0310   -5.6344 P   0  0  2  0  0  0  0  0  0  0  0  0
   22.4391   72.9095   -7.0249 O   0  0  0  0  0  0  0  0  0  0  0  0
   21.4699   74.4355   -5.1253 O   0  0  0  0  0  0  0  0  0  0  0  0
   20.2255   72.2689   -5.9155 O   0  0  0  0  0  0  0  0  0  0  0  0
   19.5796   70.1096   -5.1882 O   0  0  0  0  0  0  0  0  0  0  0  0
   17.4338   70.4914   -8.6979 O   0  0  0  0  0  0  0  0  0  0  0  0
   20.2099   71.3899   -8.5542 O   0  0  0  0  0  0  0  0  0  0  0  0
   16.0956   70.7680   -6.1320 O   0  0  0  0  0  0  0  0  0  0  0  0
   18.0690   70.9457   -7.5029 C   0  0  2  0  0  0  0  0  0  0  0  0
   19.5598   70.6108   -7.5566 C   0  0  2  0  0  0  0  0  0  0  0  0
   17.4072   70.2391   -6.3176 C   0  0  1  0  0  0  0  0  0  0  0  0
   20.2284   70.8725   -6.2063 C   0  0  1  0  0  0  0  0  0  0  0  0
   18.2025   70.4448   -5.0317 C   0  0  1  0  0  0  0  0  0  0  0  0
   17.8380   70.9270   -9.4648 H   0  0  0  0  0  0  0  0  0  0  0  0
   19.7906   71.2290   -9.4137 H   0  0  0  0  0  0  0  0  0  0  0  0
   15.5790   70.6435   -6.9435 H   0  0  0  0  0  0  0  0  0  0  0  0
   16.7870   68.6683   -4.4468 O   0  0  0  0  0  0  0  0  0  0  0  0
   18.1737   69.4708   -2.8244 O   0  0  0  0  0  0  0  0  0  0  0  0
   17.7459   69.4995   -3.9686 C   0  0  0  0  0  0  0  0  0  0  0  0
  1  4  1  0
  1 24  1  0
  1  2  1  1
  1  3  2  0
 25 28  1  0
 25 24  1  0
 25 26  1  6
 25 27  2  0
  6 11  1  0
  6 12  1  0
 29 36  1  0
 29 37  1  0
  9  7  1  1
  7 13  1  0
 10  8  1  6
  8 14  1  0
  4  5  1  0
 36 28  1  1
 33 30  1  6
 30 38  1  0
 34 31  1  6
 31 39  1  0
 35 32  1  1
 32 40  1  0
 41 43  1  0
 15 19  2  0
 42 43  2  0
 16 22  2  0
 12 17  1  1
 17 19  1  0
 17 20  1  0
 18 19  1  0
 18 22  1  0
 18 23  1  0
  9 10  1  0
  9 11  1  0
 10 12  1  0
 11  5  1  1
 33 34  1  0
 33 35  1  0
 34 36  1  0
 35 37  1  0
 37 43  1  1
 20 21  2  0
 21 22  1  0
M  CHG  3   2  -1  26  -1  41  -1
M  END
>  <COMPND>  (180) 
    udp_gluA.pdb 

>  <AUTHOR>  (180) 
    GENERATED BY OPEN BABEL 3.1.1

>  <MASTER>  (180) 
        0    0    0    0    0    0    0    0   56    0   56    0

>  <minimizedAffinity>  (180) 
-7.22030

>  <CNNscore>  (180) 
0.5265144110

>  <CNNaffinity>  (180) 
4.1650724411

>  <CNN_VS>  (180) 
2.1929707527

>  <CNNaffinity_variance>  (180) 
0.1819827706

$$$$
181
     RDKit          3D

 43 45  0  0  0  0  0  0  0  0999 V2000
   22.9884   71.6621   -2.6892 P   0  0  2  0  0  0  0  0  0  0  0  0
   23.1492   73.2334   -2.3367 O   0  0  0  0  0  0  0  0  0  0  0  0
   24.2466   70.9831   -3.1449 O   0  0  0  0  0  0  0  0  0  0  0  0
   21.7515   71.6224   -3.7315 O   0  0  0  0  0  0  0  0  0  0  0  0
   20.8880   70.5006   -3.7135 C   0  0  0  0  0  0  0  0  0  0  0  0
   18.9826   71.6216   -4.6572 O   0  0  0  0  0  0  0  0  0  0  0  0
   17.3867   70.3718   -2.4476 O   0  0  0  0  0  0  0  0  0  0  0  0
   16.8140   68.7678   -4.5772 O   0  0  0  0  0  0  0  0  0  0  0  0
   18.4907   69.8376   -3.1786 C   0  0  1  0  0  0  0  0  0  0  0  0
   18.0541   69.4435   -4.5737 C   0  0  2  0  0  0  0  0  0  0  0  0
   19.4632   70.9753   -3.4586 C   0  0  1  0  0  0  0  0  0  0  0  0
   17.9888   70.7891   -5.2757 C   0  0  2  0  0  0  0  0  0  0  0  0
   16.7516   69.6633   -2.2569 H   0  0  0  0  0  0  0  0  0  0  0  0
   16.9079   67.9173   -4.1190 H   0  0  0  0  0  0  0  0  0  0  0  0
   16.0901   70.0657   -7.2373 O   0  0  0  0  0  0  0  0  0  0  0  0
   19.1853   70.4372  -10.6322 O   0  0  0  0  0  0  0  0  0  0  0  0
   18.2715   70.6891   -6.6796 N   0  0  0  0  0  0  0  0  0  0  0  0
   17.6337   70.2505   -8.9262 N   0  0  0  0  0  0  0  0  0  0  0  0
   17.2464   70.3176   -7.5813 C   0  0  0  0  0  0  0  0  0  0  0  0
   19.5508   70.9589   -7.1504 C   0  0  0  0  0  0  0  0  0  0  0  0
   19.9048   70.8908   -8.4353 C   0  0  0  0  0  0  0  0  0  0  0  0
   18.8932   70.5089   -9.4423 C   0  0  0  0  0  0  0  0  0  0  0  0
   16.9376   69.9918   -9.5726 H   0  0  0  0  0  0  0  0  0  0  0  0
   22.3449   71.0512   -1.3381 O   0  0  0  0  0  0  0  0  0  0  0  0
   21.4435   71.7397   -0.1862 P   0  0  2  0  0  0  0  0  0  0  0  0
   20.7375   70.4750    0.5365 O   0  0  0  0  0  0  0  0  0  0  0  0
   20.4840   72.7772   -0.6930 O   0  0  0  0  0  0  0  0  0  0  0  0
   22.5086   72.2846    0.8960 O   0  0  0  0  0  0  0  0  0  0  0  0
   24.2669   71.3572    2.1835 O   0  0  0  0  0  0  0  0  0  0  0  0
   22.4026   73.8015    4.9436 O   0  0  0  0  0  0  0  0  0  0  0  0
   20.8236   72.1694    3.1059 O   0  0  0  0  0  0  0  0  0  0  0  0
   24.9229   74.6129    3.7432 O   0  0  0  0  0  0  0  0  0  0  0  0
   22.8435   73.3997    3.6466 C   0  0  2  0  0  0  0  0  0  0  0  0
   22.2285   72.0451    3.2939 C   0  0  2  0  0  0  0  0  0  0  0  0
   24.3702   73.2997    3.6760 C   0  0  1  0  0  0  0  0  0  0  0  0
   22.8532   71.4759    2.0194 C   0  0  1  0  0  0  0  0  0  0  0  0
   24.9074   72.6077    2.4265 C   0  0  1  0  0  0  0  0  0  0  0  0
   21.4350   73.8718    4.9490 H   0  0  0  0  0  0  0  0  0  0  0  0
   20.4207   72.5303    3.9107 H   0  0  0  0  0  0  0  0  0  0  0  0
   24.5888   75.0642    4.5341 H   0  0  0  0  0  0  0  0  0  0  0  0
   26.5457   70.9443    2.2021 O   0  0  0  0  0  0  0  0  0  0  0  0
   27.2109   72.9506    3.0573 O   0  0  0  0  0  0  0  0  0  0  0  0
   26.3392   72.2216    2.6081 C   0  0  0  0  0  0  0  0  0  0  0  0
  1  4  1  0
  1 24  1  0
  1  2  1  1
  1  3  2  0
 25 28  1  0
 25 24  1  0
 25 26  1  1
 25 27  2  0
  6 11  1  0
  6 12  1  0
 29 36  1  0
 29 37  1  0
  9  7  1  1
  7 13  1  0
 10  8  1  1
  8 14  1  0
  4  5  1  0
 36 28  1  6
 33 30  1  1
 30 38  1  0
 34 31  1  6
 31 39  1  0
 35 32  1  6
 32 40  1  0
 41 43  1  0
 15 19  2  0
 42 43  2  0
 16 22  2  0
 12 17  1  6
 17 19  1  0
 17 20  1  0
 18 19  1  0
 18 22  1  0
 18 23  1  0
  9 10  1  0
  9 11  1  0
 10 12  1  0
 11  5  1  6
 33 34  1  0
 33 35  1  0
 34 36  1  0
 35 37  1  0
 37 43  1  1
 20 21  2  0
 21 22  1  0
M  CHG  3   2  -1  26  -1  41  -1
M  END
>  <COMPND>  (181) 
    udp_gluA.pdb 

>  <AUTHOR>  (181) 
    GENERATED BY OPEN BABEL 3.1.1

>  <MASTER>  (181) 
        0    0    0    0    0    0    0    0   56    0   56    0

>  <minimizedAffinity>  (181) 
-8.25308

>  <CNNscore>  (181) 
0.9334296584

>  <CNNaffinity>  (181) 
4.7885465622

>  <CNN_VS>  (181) 
4.4697713852

>  <CNNaffinity_variance>  (181) 
0.0322552510

$$$$
182
     RDKit          3D

 43 45  0  0  0  0  0  0  0  0999 V2000
   22.3586   71.5882   -2.4398 P   0  0  2  0  0  0  0  0  0  0  0  0
   21.5868   73.0051   -2.3145 O   0  0  0  0  0  0  0  0  0  0  0  0
   23.3562   71.5069   -3.5578 O   0  0  0  0  0  0  0  0  0  0  0  0
   21.1641   70.4976   -2.4833 O   0  0  0  0  0  0  0  0  0  0  0  0
   20.4589   70.3154   -3.6973 C   0  0  0  0  0  0  0  0  0  0  0  0
   18.7139   71.5735   -4.7697 O   0  0  0  0  0  0  0  0  0  0  0  0
   16.8700   70.4224   -2.7042 O   0  0  0  0  0  0  0  0  0  0  0  0
   16.3536   68.8776   -4.8912 O   0  0  0  0  0  0  0  0  0  0  0  0
   17.9875   69.8177   -3.3554 C   0  0  1  0  0  0  0  0  0  0  0  0
   17.6335   69.4650   -4.7845 C   0  0  2  0  0  0  0  0  0  0  0  0
   19.0549   70.8866   -3.5461 C   0  0  1  0  0  0  0  0  0  0  0  0
   17.7156   70.8169   -5.4726 C   0  0  2  0  0  0  0  0  0  0  0  0
   16.1746   69.7587   -2.5715 H   0  0  0  0  0  0  0  0  0  0  0  0
   16.3529   68.0194   -4.4379 H   0  0  0  0  0  0  0  0  0  0  0  0
   15.9343   70.2078   -7.5780 O   0  0  0  0  0  0  0  0  0  0  0  0
   19.2937   70.4223  -10.7263 O   0  0  0  0  0  0  0  0  0  0  0  0
   18.0981   70.7074   -6.8520 N   0  0  0  0  0  0  0  0  0  0  0  0
   17.6094   70.3142   -9.1439 N   0  0  0  0  0  0  0  0  0  0  0  0
   17.1255   70.3969   -7.8316 C   0  0  0  0  0  0  0  0  0  0  0  0
   19.4222   70.9081   -7.2226 C   0  0  0  0  0  0  0  0  0  0  0  0
   19.8684   70.8261   -8.4776 C   0  0  0  0  0  0  0  0  0  0  0  0
   18.9167   70.5049   -9.5613 C   0  0  0  0  0  0  0  0  0  0  0  0
   16.9512   70.0972   -9.8432 H   0  0  0  0  0  0  0  0  0  0  0  0
   22.9838   71.3837   -0.9633 O   0  0  0  0  0  0  0  0  0  0  0  0
   22.2718   71.2564    0.4826 P   0  0  2  0  0  0  0  0  0  0  0  0
   23.2224   70.2109    1.2722 O   0  0  0  0  0  0  0  0  0  0  0  0
   20.8262   70.8553    0.4239 O   0  0  0  0  0  0  0  0  0  0  0  0
   22.5442   72.6758    1.1993 O   0  0  0  0  0  0  0  0  0  0  0  0
   23.1089   74.8400    0.4207 O   0  0  0  0  0  0  0  0  0  0  0  0
   25.4023   74.5536    3.8451 O   0  0  0  0  0  0  0  0  0  0  0  0
   25.1713   72.2816    2.0231 O   0  0  0  0  0  0  0  0  0  0  0  0
   22.9847   76.1679    3.8388 O   0  0  0  0  0  0  0  0  0  0  0  0
   24.2711   74.3070    3.0098 C   0  0  2  0  0  0  0  0  0  0  0  0
   24.7231   73.6003    1.7316 C   0  0  2  0  0  0  0  0  0  0  0  0
   23.6285   75.6547    2.6740 C   0  0  1  0  0  0  0  0  0  0  0  0
   23.5827   73.5254    0.7154 C   0  0  1  0  0  0  0  0  0  0  0  0
   22.5905   75.5158    1.5642 C   0  0  1  0  0  0  0  0  0  0  0  0
   25.8270   73.7112    4.0714 H   0  0  0  0  0  0  0  0  0  0  0  0
   25.8948   72.3216    2.6677 H   0  0  0  0  0  0  0  0  0  0  0  0
   23.6344   76.2609    4.5529 H   0  0  0  0  0  0  0  0  0  0  0  0
   22.4353   76.9085   -0.3168 O   0  0  0  0  0  0  0  0  0  0  0  0
   21.7638   77.7795    1.6806 O   0  0  0  0  0  0  0  0  0  0  0  0
   22.2133   76.8551    1.0200 C   0  0  0  0  0  0  0  0  0  0  0  0
  1  4  1  0
  1 24  1  0
  1  2  1  1
  1  3  2  0
 25 28  1  0
 25 24  1  0
 25 26  1  1
 25 27  2  0
  6 11  1  0
  6 12  1  0
 29 36  1  0
 29 37  1  0
  9  7  1  1
  7 13  1  0
 10  8  1  1
  8 14  1  0
  4  5  1  0
 36 28  1  1
 33 30  1  1
 30 38  1  0
 34 31  1  1
 31 39  1  0
 35 32  1  1
 32 40  1  0
 41 43  1  0
 15 19  2  0
 42 43  2  0
 16 22  2  0
 12 17  1  6
 17 19  1  0
 17 20  1  0
 18 19  1  0
 18 22  1  0
 18 23  1  0
  9 10  1  0
  9 11  1  0
 10 12  1  0
 11  5  1  6
 33 34  1  0
 33 35  1  0
 34 36  1  0
 35 37  1  0
 37 43  1  6
 20 21  2  0
 21 22  1  0
M  CHG  3   2  -1  26  -1  41  -1
M  END
>  <COMPND>  (182) 
    udp_gluA.pdb 

>  <AUTHOR>  (182) 
    GENERATED BY OPEN BABEL 3.1.1

>  <MASTER>  (182) 
        0    0    0    0    0    0    0    0   56    0   56    0

>  <minimizedAffinity>  (182) 
-6.98827

>  <CNNscore>  (182) 
0.9054283500

>  <CNNaffinity>  (182) 
4.7903852463

>  <CNN_VS>  (182) 
4.3373508453

>  <CNNaffinity_variance>  (182) 
0.0872802883

$$$$
183
     RDKit          3D

 43 45  0  0  0  0  0  0  0  0999 V2000
   22.3363   71.5660   -2.3650 P   0  0  2  0  0  0  0  0  0  0  0  0
   21.5471   72.9561   -2.1126 O   0  0  0  0  0  0  0  0  0  0  0  0
   23.3291   71.5963   -3.4899 O   0  0  0  0  0  0  0  0  0  0  0  0
   21.1558   70.4678   -2.4992 O   0  0  0  0  0  0  0  0  0  0  0  0
   20.4712   70.3584   -3.7337 C   0  0  0  0  0  0  0  0  0  0  0  0
   18.7205   71.6098   -4.8046 O   0  0  0  0  0  0  0  0  0  0  0  0
   16.8911   70.4855   -2.7116 O   0  0  0  0  0  0  0  0  0  0  0  0
   16.3523   68.9190   -4.8777 O   0  0  0  0  0  0  0  0  0  0  0  0
   18.0015   69.8710   -3.3657 C   0  0  1  0  0  0  0  0  0  0  0  0
   17.6345   69.5041   -4.7881 C   0  0  2  0  0  0  0  0  0  0  0  0
   19.0700   70.9349   -3.5767 C   0  0  1  0  0  0  0  0  0  0  0  0
   17.7143   70.8484   -5.4912 C   0  0  2  0  0  0  0  0  0  0  0  0
   16.1952   69.8251   -2.5660 H   0  0  0  0  0  0  0  0  0  0  0  0
   16.3532   68.0657   -4.4153 H   0  0  0  0  0  0  0  0  0  0  0  0
   15.9171   70.2043   -7.5724 O   0  0  0  0  0  0  0  0  0  0  0  0
   19.2470   70.3948  -10.7535 O   0  0  0  0  0  0  0  0  0  0  0  0
   18.0849   70.7232   -6.8724 N   0  0  0  0  0  0  0  0  0  0  0  0
   17.5775   70.2988   -9.1547 N   0  0  0  0  0  0  0  0  0  0  0  0
   17.1050   70.3958   -7.8392 C   0  0  0  0  0  0  0  0  0  0  0  0
   19.4046   70.9255   -7.2575 C   0  0  0  0  0  0  0  0  0  0  0  0
   19.8399   70.8297   -8.5154 C   0  0  0  0  0  0  0  0  0  0  0  0
   18.8800   70.4904   -9.5863 C   0  0  0  0  0  0  0  0  0  0  0  0
   16.9141   70.0699   -9.8452 H   0  0  0  0  0  0  0  0  0  0  0  0
   22.9718   71.2410   -0.9147 O   0  0  0  0  0  0  0  0  0  0  0  0
   22.3007   71.2117    0.5558 P   0  0  2  0  0  0  0  0  0  0  0  0
   23.2554   70.1954    1.3779 O   0  0  0  0  0  0  0  0  0  0  0  0
   20.8471   70.8360    0.5619 O   0  0  0  0  0  0  0  0  0  0  0  0
   22.6193   72.6647    1.1802 O   0  0  0  0  0  0  0  0  0  0  0  0
   21.1307   73.5228    2.8102 O   0  0  0  0  0  0  0  0  0  0  0  0
   23.2826   76.8951    1.7786 O   0  0  0  0  0  0  0  0  0  0  0  0
   22.3891   75.0222   -0.2777 O   0  0  0  0  0  0  0  0  0  0  0  0
   23.8173   75.5351    4.2916 O   0  0  0  0  0  0  0  0  0  0  0  0
   23.0725   75.5006    2.0005 C   0  0  2  0  0  0  0  0  0  0  0  0
   21.9610   74.9976    1.0791 C   0  0  2  0  0  0  0  0  0  0  0  0
   22.6761   75.3095    3.4662 C   0  0  1  0  0  0  0  0  0  0  0  0
   21.5502   73.5709    1.4459 C   0  0  1  0  0  0  0  0  0  0  0  0
   22.1593   73.8971    3.7239 C   0  0  1  0  0  0  0  0  0  0  0  0
   23.5356   77.0410    0.8534 H   0  0  0  0  0  0  0  0  0  0  0  0
   22.6516   75.9245   -0.5171 H   0  0  0  0  0  0  0  0  0  0  0  0
   24.1562   76.4307    4.1371 H   0  0  0  0  0  0  0  0  0  0  0  0
   22.3506   73.4447    6.0174 O   0  0  0  0  0  0  0  0  0  0  0  0
   20.2930   74.0524    5.2452 O   0  0  0  0  0  0  0  0  0  0  0  0
   21.4758   73.8160    5.0500 C   0  0  0  0  0  0  0  0  0  0  0  0
  1  4  1  0
  1 24  1  0
  1  2  1  1
  1  3  2  0
 25 28  1  0
 25 24  1  0
 25 26  1  1
 25 27  2  0
  6 11  1  0
  6 12  1  0
 29 36  1  0
 29 37  1  0
  9  7  1  6
  7 13  1  0
 10  8  1  1
  8 14  1  0
  4  5  1  0
 36 28  1  1
 33 30  1  1
 30 38  1  0
 34 31  1  6
 31 39  1  0
 35 32  1  1
 32 40  1  0
 41 43  1  0
 15 19  2  0
 42 43  2  0
 16 22  2  0
 12 17  1  6
 17 19  1  0
 17 20  1  0
 18 19  1  0
 18 22  1  0
 18 23  1  0
  9 10  1  0
  9 11  1  0
 10 12  1  0
 11  5  1  6
 33 34  1  0
 33 35  1  0
 34 36  1  0
 35 37  1  0
 37 43  1  1
 20 21  2  0
 21 22  1  0
M  CHG  3   2  -1  26  -1  41  -1
M  END
>  <COMPND>  (183) 
    udp_gluA.pdb 

>  <AUTHOR>  (183) 
    GENERATED BY OPEN BABEL 3.1.1

>  <MASTER>  (183) 
        0    0    0    0    0    0    0    0   56    0   56    0

>  <minimizedAffinity>  (183) 
-7.23930

>  <CNNscore>  (183) 
0.8739063144

>  <CNNaffinity>  (183) 
4.6817488670

>  <CNN_VS>  (183) 
4.0914096832

>  <CNNaffinity_variance>  (183) 
0.1031674594

$$$$
184
     RDKit          3D

 43 45  0  0  0  0  0  0  0  0999 V2000
   22.8578   72.1793   -3.8957 P   0  0  2  0  0  0  0  0  0  0  0  0
   23.3862   73.1111   -5.1087 O   0  0  0  0  0  0  0  0  0  0  0  0
   23.9028   71.3050   -3.2668 O   0  0  0  0  0  0  0  0  0  0  0  0
   21.5825   71.4079   -4.5254 O   0  0  0  0  0  0  0  0  0  0  0  0
   20.8950   70.4686   -3.7195 C   0  0  0  0  0  0  0  0  0  0  0  0
   19.0126   71.6319   -4.6580 O   0  0  0  0  0  0  0  0  0  0  0  0
   17.3970   70.4251   -2.4388 O   0  0  0  0  0  0  0  0  0  0  0  0
   16.7778   68.8299   -4.5621 O   0  0  0  0  0  0  0  0  0  0  0  0
   18.4851   69.8634   -3.1731 C   0  0  1  0  0  0  0  0  0  0  0  0
   18.0335   69.4763   -4.5654 C   0  0  2  0  0  0  0  0  0  0  0  0
   19.4828   70.9772   -3.4599 C   0  0  1  0  0  0  0  0  0  0  0  0
   17.9969   70.8215   -5.2704 C   0  0  2  0  0  0  0  0  0  0  0  0
   16.7462   69.7322   -2.2438 H   0  0  0  0  0  0  0  0  0  0  0  0
   16.8536   67.9786   -4.1022 H   0  0  0  0  0  0  0  0  0  0  0  0
   16.0674   70.1652   -7.2257 O   0  0  0  0  0  0  0  0  0  0  0  0
   19.1627   70.4275  -10.6308 O   0  0  0  0  0  0  0  0  0  0  0  0
   18.2713   70.7115   -6.6752 N   0  0  0  0  0  0  0  0  0  0  0  0
   17.6111   70.2955   -8.9196 N   0  0  0  0  0  0  0  0  0  0  0  0
   17.2308   70.3763   -7.5736 C   0  0  0  0  0  0  0  0  0  0  0  0
   19.5577   70.9361   -7.1503 C   0  0  0  0  0  0  0  0  0  0  0  0
   19.9050   70.8555   -8.4362 C   0  0  0  0  0  0  0  0  0  0  0  0
   18.8772   70.5094   -9.4400 C   0  0  0  0  0  0  0  0  0  0  0  0
   16.9042   70.0615   -9.5637 H   0  0  0  0  0  0  0  0  0  0  0  0
   22.1771   73.2453   -2.8892 O   0  0  0  0  0  0  0  0  0  0  0  0
   22.8343   74.2710   -1.8264 P   0  0  2  0  0  0  0  0  0  0  0  0
   21.8830   75.5761   -1.9350 O   0  0  0  0  0  0  0  0  0  0  0  0
   24.2918   74.5472   -2.0575 O   0  0  0  0  0  0  0  0  0  0  0  0
   22.4938   73.6379   -0.3822 O   0  0  0  0  0  0  0  0  0  0  0  0
   23.2833   71.4674    0.1418 O   0  0  0  0  0  0  0  0  0  0  0  0
   20.3846   72.0278    3.0317 O   0  0  0  0  0  0  0  0  0  0  0  0
   19.9051   72.8592    0.2724 O   0  0  0  0  0  0  0  0  0  0  0  0
   23.1992   72.2370    3.7282 O   0  0  0  0  0  0  0  0  0  0  0  0
   21.4123   72.4228    2.1229 C   0  0  2  0  0  0  0  0  0  0  0  0
   21.0018   72.0577    0.6961 C   0  0  2  0  0  0  0  0  0  0  0  0
   22.6963   71.6869    2.5121 C   0  0  1  0  0  0  0  0  0  0  0  0
   22.1665   72.2536   -0.2754 C   0  0  1  0  0  0  0  0  0  0  0  0
   23.7672   71.8266    1.4340 C   0  0  1  0  0  0  0  0  0  0  0  0
   19.5587   72.4830    2.8038 H   0  0  0  0  0  0  0  0  0  0  0  0
   19.1625   72.7400    0.8846 H   0  0  0  0  0  0  0  0  0  0  0  0
   22.5271   72.1545    4.4227 H   0  0  0  0  0  0  0  0  0  0  0  0
   24.6246   70.0821    2.7467 O   0  0  0  0  0  0  0  0  0  0  0  0
   25.8768   70.7544    0.9636 O   0  0  0  0  0  0  0  0  0  0  0  0
   24.8771   70.8522    1.6594 C   0  0  0  0  0  0  0  0  0  0  0  0
  1  4  1  0
  1 24  1  0
  1  2  1  6
  1  3  2  0
 25 28  1  0
 25 24  1  0
 25 26  1  1
 25 27  2  0
  6 11  1  0
  6 12  1  0
 29 36  1  0
 29 37  1  0
  9  7  1  1
  7 13  1  0
 10  8  1  1
  8 14  1  0
  4  5  1  0
 36 28  1  1
 33 30  1  1
 30 38  1  0
 34 31  1  6
 31 39  1  0
 35 32  1  1
 32 40  1  0
 41 43  1  0
 15 19  2  0
 42 43  2  0
 16 22  2  0
 12 17  1  6
 17 19  1  0
 17 20  1  0
 18 19  1  0
 18 22  1  0
 18 23  1  0
  9 10  1  0
  9 11  1  0
 10 12  1  0
 11  5  1  6
 33 34  1  0
 33 35  1  0
 34 36  1  0
 35 37  1  0
 37 43  1  1
 20 21  2  0
 21 22  1  0
M  CHG  3   2  -1  26  -1  41  -1
M  END
>  <COMPND>  (184) 
    udp_gluA.pdb 

>  <AUTHOR>  (184) 
    GENERATED BY OPEN BABEL 3.1.1

>  <MASTER>  (184) 
        0    0    0    0    0    0    0    0   56    0   56    0

>  <minimizedAffinity>  (184) 
-8.09601

>  <CNNscore>  (184) 
0.8491123319

>  <CNNaffinity>  (184) 
4.7002115250

>  <CNN_VS>  (184) 
3.9910075665

>  <CNNaffinity_variance>  (184) 
0.0334290862

$$$$
185
     RDKit          3D

 43 45  0  0  0  0  0  0  0  0999 V2000
   21.6538   72.8327   -4.6637 P   0  0  2  0  0  0  0  0  0  0  0  0
   21.5042   74.4441   -4.6663 O   0  0  0  0  0  0  0  0  0  0  0  0
   22.6086   72.2835   -5.6828 O   0  0  0  0  0  0  0  0  0  0  0  0
   20.1295   72.3009   -4.7706 O   0  0  0  0  0  0  0  0  0  0  0  0
   19.5936   71.5624   -3.6881 C   0  0  0  0  0  0  0  0  0  0  0  0
   17.7008   71.9446   -5.1195 O   0  0  0  0  0  0  0  0  0  0  0  0
   16.0831   70.4858   -3.0588 O   0  0  0  0  0  0  0  0  0  0  0  0
   16.4607   68.5837   -4.9760 O   0  0  0  0  0  0  0  0  0  0  0  0
   17.4238   70.2489   -3.4889 C   0  0  1  0  0  0  0  0  0  0  0  0
   17.4287   69.6054   -4.8593 C   0  0  2  0  0  0  0  0  0  0  0  0
   18.0728   71.5977   -3.7680 C   0  0  1  0  0  0  0  0  0  0  0  0
   17.1403   70.7904   -5.7652 C   0  0  2  0  0  0  0  0  0  0  0  0
   15.6479   69.6383   -2.8744 H   0  0  0  0  0  0  0  0  0  0  0  0
   16.6890   67.8524   -4.3801 H   0  0  0  0  0  0  0  0  0  0  0  0
   15.6832   70.4577   -8.1616 O   0  0  0  0  0  0  0  0  0  0  0  0
   19.5330   70.2455  -10.6872 O   0  0  0  0  0  0  0  0  0  0  0  0
   17.7366   70.6458   -7.0631 N   0  0  0  0  0  0  0  0  0  0  0  0
   17.6020   70.3513   -9.4171 N   0  0  0  0  0  0  0  0  0  0  0  0
   16.9147   70.4840   -8.2034 C   0  0  0  0  0  0  0  0  0  0  0  0
   19.1196   70.6668   -7.1972 C   0  0  0  0  0  0  0  0  0  0  0  0
   19.7603   70.5392   -8.3608 C   0  0  0  0  0  0  0  0  0  0  0  0
   18.9753   70.3652   -9.6005 C   0  0  0  0  0  0  0  0  0  0  0  0
   17.0512   70.2354  -10.2248 H   0  0  0  0  0  0  0  0  0  0  0  0
   22.0455   72.5072   -3.1296 O   0  0  0  0  0  0  0  0  0  0  0  0
   23.4757   72.1986   -2.4419 P   0  0  2  0  0  0  0  0  0  0  0  0
   24.2543   73.6132   -2.5569 O   0  0  0  0  0  0  0  0  0  0  0  0
   24.2113   71.0371   -3.0451 O   0  0  0  0  0  0  0  0  0  0  0  0
   23.1485   72.0405   -0.8702 O   0  0  0  0  0  0  0  0  0  0  0  0
   22.9005   73.9133    0.5582 O   0  0  0  0  0  0  0  0  0  0  0  0
   23.7182   70.8974    3.2607 O   0  0  0  0  0  0  0  0  0  0  0  0
   25.1949   71.0730    0.7461 O   0  0  0  0  0  0  0  0  0  0  0  0
   21.0049   71.8995    2.9693 O   0  0  0  0  0  0  0  0  0  0  0  0
   23.1935   71.4646    2.0603 C   0  0  2  0  0  0  0  0  0  0  0  0
   24.3303   72.0855    1.2481 C   0  0  2  0  0  0  0  0  0  0  0  0
   22.1717   72.5350    2.4504 C   0  0  1  0  0  0  0  0  0  0  0  0
   23.7832   72.8999    0.0750 C   0  0  1  0  0  0  0  0  0  0  0  0
   21.7702   73.3859    1.2490 C   0  0  1  0  0  0  0  0  0  0  0  0
   24.3701   70.2142    3.0377 H   0  0  0  0  0  0  0  0  0  0  0  0
   25.5455   70.5522    1.4851 H   0  0  0  0  0  0  0  0  0  0  0  0
   21.2468   71.3545    3.7344 H   0  0  0  0  0  0  0  0  0  0  0  0
   21.3392   74.9109    2.9783 O   0  0  0  0  0  0  0  0  0  0  0  0
   20.2848   75.2694    0.9887 O   0  0  0  0  0  0  0  0  0  0  0  0
   21.0425   74.6146    1.6887 C   0  0  0  0  0  0  0  0  0  0  0  0
  1  4  1  0
  1 24  1  0
  1  2  1  1
  1  3  2  0
 25 28  1  0
 25 24  1  0
 25 26  1  1
 25 27  2  0
  6 11  1  0
  6 12  1  0
 29 36  1  0
 29 37  1  0
  9  7  1  6
  7 13  1  0
 10  8  1  1
  8 14  1  0
  4  5  1  0
 36 28  1  6
 33 30  1  1
 30 38  1  0
 34 31  1  6
 31 39  1  0
 35 32  1  6
 32 40  1  0
 41 43  1  0
 15 19  2  0
 42 43  2  0
 16 22  2  0
 12 17  1  6
 17 19  1  0
 17 20  1  0
 18 19  1  0
 18 22  1  0
 18 23  1  0
  9 10  1  0
  9 11  1  0
 10 12  1  0
 11  5  1  6
 33 34  1  0
 33 35  1  0
 34 36  1  0
 35 37  1  0
 37 43  1  1
 20 21  2  0
 21 22  1  0
M  CHG  3   2  -1  26  -1  41  -1
M  END
>  <COMPND>  (185) 
    udp_gluA.pdb 

>  <AUTHOR>  (185) 
    GENERATED BY OPEN BABEL 3.1.1

>  <MASTER>  (185) 
        0    0    0    0    0    0    0    0   56    0   56    0

>  <minimizedAffinity>  (185) 
-7.31953

>  <CNNscore>  (185) 
0.8046956062

>  <CNNaffinity>  (185) 
4.6483383179

>  <CNN_VS>  (185) 
3.7404973507

>  <CNNaffinity_variance>  (185) 
0.0330456756

$$$$
186
     RDKit          3D

 43 45  0  0  0  0  0  0  0  0999 V2000
   23.5866   72.7217   -3.5822 P   0  0  2  0  0  0  0  0  0  0  0  0
   23.9564   71.2029   -3.1632 O   0  0  0  0  0  0  0  0  0  0  0  0
   24.6607   73.4506   -4.3349 O   0  0  0  0  0  0  0  0  0  0  0  0
   23.1154   73.4042   -2.1929 O   0  0  0  0  0  0  0  0  0  0  0  0
   22.1556   74.4439   -2.2418 C   0  0  0  0  0  0  0  0  0  0  0  0
   21.2290   72.7767   -0.7791 O   0  0  0  0  0  0  0  0  0  0  0  0
   19.1892   74.8406   -0.0234 O   0  0  0  0  0  0  0  0  0  0  0  0
   20.9315   74.9295    2.0724 O   0  0  0  0  0  0  0  0  0  0  0  0
   20.5732   75.0083   -0.3313 C   0  0  1  0  0  0  0  0  0  0  0  0
   21.4289   74.5164    0.8168 C   0  0  2  0  0  0  0  0  0  0  0  0
   20.9305   74.0262   -1.4385 C   0  0  1  0  0  0  0  0  0  0  0  0
   21.3697   73.0098    0.6313 C   0  0  2  0  0  0  0  0  0  0  0  0
   18.9373   75.4577    0.6818 H   0  0  0  0  0  0  0  0  0  0  0  0
   20.9909   75.8958    2.1417 H   0  0  0  0  0  0  0  0  0  0  0  0
   21.5329   70.2599    1.2543 O   0  0  0  0  0  0  0  0  0  0  0  0
   25.9822   70.5987    2.4087 O   0  0  0  0  0  0  0  0  0  0  0  0
   22.5585   72.3532    1.0968 N   0  0  0  0  0  0  0  0  0  0  0  0
   23.7485   70.4315    1.8297 N   0  0  0  0  0  0  0  0  0  0  0  0
   22.5340   70.9674    1.3815 C   0  0  0  0  0  0  0  0  0  0  0  0
   23.7312   73.0794    1.2652 C   0  0  0  0  0  0  0  0  0  0  0  0
   24.8811   72.5546    1.6930 C   0  0  0  0  0  0  0  0  0  0  0  0
   24.9405   71.1133    2.0134 C   0  0  0  0  0  0  0  0  0  0  0  0
   23.7555   69.4689    2.0363 H   0  0  0  0  0  0  0  0  0  0  0  0
   22.1978   72.5472   -4.3906 O   0  0  0  0  0  0  0  0  0  0  0  0
   21.7394   73.0904   -5.8427 P   0  0  2  0  0  0  0  0  0  0  0  0
   22.8112   72.4105   -6.8472 O   0  0  0  0  0  0  0  0  0  0  0  0
   21.6598   74.5862   -5.9435 O   0  0  0  0  0  0  0  0  0  0  0  0
   20.3528   72.3242   -6.1473 O   0  0  0  0  0  0  0  0  0  0  0  0
   19.7023   70.1547   -5.4550 O   0  0  0  0  0  0  0  0  0  0  0  0
   17.6184   70.5665   -8.9984 O   0  0  0  0  0  0  0  0  0  0  0  0
   20.3880   71.4736   -8.7952 O   0  0  0  0  0  0  0  0  0  0  0  0
   16.2333   70.8103   -6.4542 O   0  0  0  0  0  0  0  0  0  0  0  0
   18.2303   71.0101   -7.7873 C   0  0  2  0  0  0  0  0  0  0  0  0
   19.7231   70.6814   -7.8179 C   0  0  2  0  0  0  0  0  0  0  0  0
   17.5501   70.2884   -6.6218 C   0  0  1  0  0  0  0  0  0  0  0  0
   20.3663   70.9309   -6.4530 C   0  0  1  0  0  0  0  0  0  0  0  0
   18.3214   70.4831   -5.3196 C   0  0  1  0  0  0  0  0  0  0  0  0
   18.0346   71.0118   -9.7532 H   0  0  0  0  0  0  0  0  0  0  0  0
   19.9847   71.3204   -9.6638 H   0  0  0  0  0  0  0  0  0  0  0  0
   15.7318   70.6928   -7.2761 H   0  0  0  0  0  0  0  0  0  0  0  0
   18.7384   69.4541   -3.2536 O   0  0  0  0  0  0  0  0  0  0  0  0
   16.8066   68.8899   -4.3254 O   0  0  0  0  0  0  0  0  0  0  0  0
   17.8495   69.5247   -4.2752 C   0  0  0  0  0  0  0  0  0  0  0  0
  1  4  1  0
  1 24  1  0
  1  2  1  1
  1  3  2  0
 25 28  1  0
 25 24  1  0
 25 26  1  6
 25 27  2  0
  6 11  1  0
  6 12  1  0
 29 36  1  0
 29 37  1  0
  9  7  1  1
  7 13  1  0
 10  8  1  1
  8 14  1  0
  4  5  1  0
 36 28  1  1
 33 30  1  6
 30 38  1  0
 34 31  1  6
 31 39  1  0
 35 32  1  1
 32 40  1  0
 41 43  1  0
 15 19  2  0
 42 43  2  0
 16 22  2  0
 12 17  1  6
 17 19  1  0
 17 20  1  0
 18 19  1  0
 18 22  1  0
 18 23  1  0
  9 10  1  0
  9 11  1  0
 10 12  1  0
 11  5  1  1
 33 34  1  0
 33 35  1  0
 34 36  1  0
 35 37  1  0
 37 43  1  1
 20 21  2  0
 21 22  1  0
M  CHG  3   2  -1  26  -1  41  -1
M  END
>  <COMPND>  (186) 
    udp_gluA.pdb 

>  <AUTHOR>  (186) 
    GENERATED BY OPEN BABEL 3.1.1

>  <MASTER>  (186) 
        0    0    0    0    0    0    0    0   56    0   56    0

>  <minimizedAffinity>  (186) 
-7.87795

>  <CNNscore>  (186) 
0.7745519876

>  <CNNaffinity>  (186) 
4.6634697914

>  <CNN_VS>  (186) 
3.6120998859

>  <CNNaffinity_variance>  (186) 
0.0558553152

$$$$
187
     RDKit          3D

 43 45  0  0  0  0  0  0  0  0999 V2000
   23.5142   73.6867   -3.9769 P   0  0  2  0  0  0  0  0  0  0  0  0
   24.3064   72.2793   -4.0793 O   0  0  0  0  0  0  0  0  0  0  0  0
   24.2137   74.8548   -4.6078 O   0  0  0  0  0  0  0  0  0  0  0  0
   23.1850   73.8333   -2.3995 O   0  0  0  0  0  0  0  0  0  0  0  0
   21.8593   73.5992   -1.9609 C   0  0  0  0  0  0  0  0  0  0  0  0
   22.9643   71.6834   -1.0194 O   0  0  0  0  0  0  0  0  0  0  0  0
   20.2249   70.5289   -0.6267 O   0  0  0  0  0  0  0  0  0  0  0  0
   20.8522   71.4364    1.8671 O   0  0  0  0  0  0  0  0  0  0  0  0
   20.6587   71.8846   -0.5149 C   0  0  1  0  0  0  0  0  0  0  0  0
   21.4512   72.0778    0.7606 C   0  0  2  0  0  0  0  0  0  0  0  0
   21.7132   72.1302   -1.5854 C   0  0  1  0  0  0  0  0  0  0  0  0
   22.7952   71.4734    0.3915 C   0  0  2  0  0  0  0  0  0  0  0  0
   19.5507   70.3482    0.0474 H   0  0  0  0  0  0  0  0  0  0  0  0
   19.9999   71.8575    2.0625 H   0  0  0  0  0  0  0  0  0  0  0  0
   24.6830   70.0783    1.9620 O   0  0  0  0  0  0  0  0  0  0  0  0
   26.9359   73.9561    3.0257 O   0  0  0  0  0  0  0  0  0  0  0  0
   23.8854   72.0937    1.0899 N   0  0  0  0  0  0  0  0  0  0  0  0
   25.8027   72.0111    2.4911 N   0  0  0  0  0  0  0  0  0  0  0  0
   24.7773   71.3021    1.8515 C   0  0  0  0  0  0  0  0  0  0  0  0
   24.0635   73.4697    1.0153 C   0  0  0  0  0  0  0  0  0  0  0  0
   25.0457   74.1313    1.6304 C   0  0  0  0  0  0  0  0  0  0  0  0
   26.0203   73.3787    2.4472 C   0  0  0  0  0  0  0  0  0  0  0  0
   26.4350   71.4817    3.0289 H   0  0  0  0  0  0  0  0  0  0  0  0
   22.0719   73.3389   -4.6184 O   0  0  0  0  0  0  0  0  0  0  0  0
   21.4934   73.5596   -6.1118 P   0  0  2  0  0  0  0  0  0  0  0  0
   22.6067   72.8499   -7.0483 O   0  0  0  0  0  0  0  0  0  0  0  0
   21.2162   74.9936   -6.4591 O   0  0  0  0  0  0  0  0  0  0  0  0
   20.2080   72.5888   -6.2003 O   0  0  0  0  0  0  0  0  0  0  0  0
   19.8288   70.3973   -5.3864 O   0  0  0  0  0  0  0  0  0  0  0  0
   17.6968   70.3603   -8.9249 O   0  0  0  0  0  0  0  0  0  0  0  0
   20.3362   71.6062   -8.7992 O   0  0  0  0  0  0  0  0  0  0  0  0
   16.3021   70.5723   -6.3831 O   0  0  0  0  0  0  0  0  0  0  0  0
   18.2548   70.9400   -7.7456 C   0  0  2  0  0  0  0  0  0  0  0  0
   19.7764   70.7936   -7.7741 C   0  0  2  0  0  0  0  0  0  0  0  0
   17.6719   70.2055   -6.5362 C   0  0  1  0  0  0  0  0  0  0  0  0
   20.3897   71.1929   -6.4313 C   0  0  1  0  0  0  0  0  0  0  0  0
   18.4188   70.5627   -5.2544 C   0  0  1  0  0  0  0  0  0  0  0  0
   18.0529   70.8112   -9.7067 H   0  0  0  0  0  0  0  0  0  0  0  0
   19.9513   71.3584   -9.6541 H   0  0  0  0  0  0  0  0  0  0  0  0
   15.8155   70.3503   -7.1923 H   0  0  0  0  0  0  0  0  0  0  0  0
   18.9469   69.7286   -3.1268 O   0  0  0  0  0  0  0  0  0  0  0  0
   17.1276   68.8358   -4.1718 O   0  0  0  0  0  0  0  0  0  0  0  0
   18.0709   69.6123   -4.1553 C   0  0  0  0  0  0  0  0  0  0  0  0
  1  4  1  0
  1 24  1  0
  1  2  1  1
  1  3  2  0
 25 28  1  0
 25 24  1  0
 25 26  1  6
 25 27  2  0
  6 11  1  0
  6 12  1  0
 29 36  1  0
 29 37  1  0
  9  7  1  1
  7 13  1  0
 10  8  1  1
  8 14  1  0
  4  5  1  0
 36 28  1  1
 33 30  1  6
 30 38  1  0
 34 31  1  6
 31 39  1  0
 35 32  1  1
 32 40  1  0
 41 43  1  0
 15 19  2  0
 42 43  2  0
 16 22  2  0
 12 17  1  1
 17 19  1  0
 17 20  1  0
 18 19  1  0
 18 22  1  0
 18 23  1  0
  9 10  1  0
  9 11  1  0
 10 12  1  0
 11  5  1  1
 33 34  1  0
 33 35  1  0
 34 36  1  0
 35 37  1  0
 37 43  1  1
 20 21  2  0
 21 22  1  0
M  CHG  3   2  -1  26  -1  41  -1
M  END
>  <COMPND>  (187) 
    udp_gluA.pdb 

>  <AUTHOR>  (187) 
    GENERATED BY OPEN BABEL 3.1.1

>  <MASTER>  (187) 
        0    0    0    0    0    0    0    0   56    0   56    0

>  <minimizedAffinity>  (187) 
-7.75822

>  <CNNscore>  (187) 
0.7276968360

>  <CNNaffinity>  (187) 
4.4922266006

>  <CNN_VS>  (187) 
3.2689790726

>  <CNNaffinity_variance>  (187) 
0.0955784470

$$$$
188
     RDKit          3D

 43 45  0  0  0  0  0  0  0  0999 V2000
   21.9626   72.6964   -5.7898 P   0  0  2  0  0  0  0  0  0  0  0  0
   21.4841   74.1360   -5.2264 O   0  0  0  0  0  0  0  0  0  0  0  0
   23.0195   72.7518   -6.8537 O   0  0  0  0  0  0  0  0  0  0  0  0
   20.5817   71.9646   -6.2087 O   0  0  0  0  0  0  0  0  0  0  0  0
   20.0455   72.2174   -7.4944 C   0  0  0  0  0  0  0  0  0  0  0  0
   18.9846   70.1285   -6.9573 O   0  0  0  0  0  0  0  0  0  0  0  0
   18.1878   70.0039   -9.8454 O   0  0  0  0  0  0  0  0  0  0  0  0
   15.8988   70.8548   -8.6320 O   0  0  0  0  0  0  0  0  0  0  0  0
   18.2880   71.1379   -8.9838 C   0  0  1  0  0  0  0  0  0  0  0  0
   17.1292   71.1600   -8.0096 C   0  0  2  0  0  0  0  0  0  0  0  0
   19.4778   70.9214   -8.0588 C   0  0  1  0  0  0  0  0  0  0  0  0
   17.5488   70.1085   -6.9966 C   0  0  2  0  0  0  0  0  0  0  0  0
   17.4343   70.1192  -10.4459 H   0  0  0  0  0  0  0  0  0  0  0  0
   15.6756   71.5538   -9.2672 H   0  0  0  0  0  0  0  0  0  0  0  0
   16.3554   68.1784   -5.3151 O   0  0  0  0  0  0  0  0  0  0  0  0
   15.6396   71.2684   -1.9709 O   0  0  0  0  0  0  0  0  0  0  0  0
   17.0419   70.3814   -5.6815 N   0  0  0  0  0  0  0  0  0  0  0  0
   15.9991   69.7195   -3.6515 N   0  0  0  0  0  0  0  0  0  0  0  0
   16.4609   69.3407   -4.9189 C   0  0  0  0  0  0  0  0  0  0  0  0
   17.1243   71.6665   -5.1593 C   0  0  0  0  0  0  0  0  0  0  0  0
   16.6798   72.0123   -3.9495 C   0  0  0  0  0  0  0  0  0  0  0  0
   16.0583   70.9843   -3.0891 C   0  0  0  0  0  0  0  0  0  0  0  0
   15.5888   69.0124   -3.1029 H   0  0  0  0  0  0  0  0  0  0  0  0
   22.3989   71.9082   -4.4477 O   0  0  0  0  0  0  0  0  0  0  0  0
   23.6284   72.1512   -3.4264 P   0  0  2  0  0  0  0  0  0  0  0  0
   24.5865   73.1732   -4.2374 O   0  0  0  0  0  0  0  0  0  0  0  0
   24.3099   70.8927   -2.9727 O   0  0  0  0  0  0  0  0  0  0  0  0
   23.0013   73.0397   -2.2349 O   0  0  0  0  0  0  0  0  0  0  0  0
   21.6655   71.7737   -0.7443 O   0  0  0  0  0  0  0  0  0  0  0  0
   20.9735   75.6276    0.5734 O   0  0  0  0  0  0  0  0  0  0  0  0
   21.0628   75.0337   -2.2856 O   0  0  0  0  0  0  0  0  0  0  0  0
   22.7274   73.8638    2.0781 O   0  0  0  0  0  0  0  0  0  0  0  0
   21.7317   74.5633   -0.0014 C   0  0  2  0  0  0  0  0  0  0  0  0
   21.0250   74.0514   -1.2568 C   0  0  2  0  0  0  0  0  0  0  0  0
   21.8436   73.4467    1.0391 C   0  0  1  0  0  0  0  0  0  0  0  0
   21.6807   72.7682   -1.7690 C   0  0  1  0  0  0  0  0  0  0  0  0
   22.3888   72.1623    0.4214 C   0  0  1  0  0  0  0  0  0  0  0  0
   20.8892   76.3489   -0.0700 H   0  0  0  0  0  0  0  0  0  0  0  0
   20.6486   75.8507   -1.9673 H   0  0  0  0  0  0  0  0  0  0  0  0
   22.3918   74.6806    2.4794 H   0  0  0  0  0  0  0  0  0  0  0  0
   23.0854   71.0382    2.3586 O   0  0  0  0  0  0  0  0  0  0  0  0
   21.3329   70.1407    1.2086 O   0  0  0  0  0  0  0  0  0  0  0  0
   22.1876   71.0036    1.3429 C   0  0  0  0  0  0  0  0  0  0  0  0
  1  4  1  0
  1 24  1  0
  1  2  1  1
  1  3  2  0
 25 28  1  0
 25 24  1  0
 25 26  1  6
 25 27  2  0
  6 11  1  0
  6 12  1  0
 29 36  1  0
 29 37  1  0
  9  7  1  6
  7 13  1  0
 10  8  1  6
  8 14  1  0
  4  5  1  0
 36 28  1  1
 33 30  1  1
 30 38  1  0
 34 31  1  6
 31 39  1  0
 35 32  1  1
 32 40  1  0
 41 43  1  0
 15 19  2  0
 42 43  2  0
 16 22  2  0
 12 17  1  1
 17 19  1  0
 17 20  1  0
 18 19  1  0
 18 22  1  0
 18 23  1  0
  9 10  1  0
  9 11  1  0
 10 12  1  0
 11  5  1  1
 33 34  1  0
 33 35  1  0
 34 36  1  0
 35 37  1  0
 37 43  1  1
 20 21  2  0
 21 22  1  0
M  CHG  3   2  -1  26  -1  41  -1
M  END
>  <COMPND>  (188) 
    udp_gluA.pdb 

>  <AUTHOR>  (188) 
    GENERATED BY OPEN BABEL 3.1.1

>  <MASTER>  (188) 
        0    0    0    0    0    0    0    0   56    0   56    0

>  <minimizedAffinity>  (188) 
-8.03330

>  <CNNscore>  (188) 
0.7023539543

>  <CNNaffinity>  (188) 
4.4632568359

>  <CNN_VS>  (188) 
3.1347861290

>  <CNNaffinity_variance>  (188) 
0.3741719127

$$$$
189
     RDKit          3D

 43 45  0  0  0  0  0  0  0  0999 V2000
   23.1753   71.8453   -2.7503 P   0  0  2  0  0  0  0  0  0  0  0  0
   23.5042   73.4279   -2.8284 O   0  0  0  0  0  0  0  0  0  0  0  0
   24.3124   70.9425   -3.1293 O   0  0  0  0  0  0  0  0  0  0  0  0
   21.8272   71.6847   -3.6305 O   0  0  0  0  0  0  0  0  0  0  0  0
   21.6035   72.5900   -4.6959 C   0  0  0  0  0  0  0  0  0  0  0  0
   20.7292   70.6143   -5.7495 O   0  0  0  0  0  0  0  0  0  0  0  0
   21.1862   72.0268   -8.3547 O   0  0  0  0  0  0  0  0  0  0  0  0
   18.5061   72.3462   -7.9659 O   0  0  0  0  0  0  0  0  0  0  0  0
   20.7675   72.5609   -7.0986 C   0  0  1  0  0  0  0  0  0  0  0  0
   19.3251   72.1901   -6.8260 C   0  0  2  0  0  0  0  0  0  0  0  0
   21.5034   71.8075   -5.9990 C   0  0  1  0  0  0  0  0  0  0  0  0
   19.4493   70.7404   -6.3892 C   0  0  2  0  0  0  0  0  0  0  0  0
   20.7293   72.4927   -9.0730 H   0  0  0  0  0  0  0  0  0  0  0  0
   18.4587   73.2859   -8.2037 H   0  0  0  0  0  0  0  0  0  0  0  0
   16.9008   69.7785   -7.1352 O   0  0  0  0  0  0  0  0  0  0  0  0
   15.5925   69.3036   -2.7413 O   0  0  0  0  0  0  0  0  0  0  0  0
   18.4235   70.3580   -5.4606 N   0  0  0  0  0  0  0  0  0  0  0  0
   16.2513   69.5438   -4.9461 N   0  0  0  0  0  0  0  0  0  0  0  0
   17.1778   69.8876   -5.9392 C   0  0  0  0  0  0  0  0  0  0  0  0
   18.6563   70.4490   -4.0937 C   0  0  0  0  0  0  0  0  0  0  0  0
   17.7634   70.1175   -3.1591 C   0  0  0  0  0  0  0  0  0  0  0  0
   16.4365   69.6177   -3.5750 C   0  0  0  0  0  0  0  0  0  0  0  0
   15.3759   69.2156   -5.2550 H   0  0  0  0  0  0  0  0  0  0  0  0
   22.6442   71.6594   -1.2350 O   0  0  0  0  0  0  0  0  0  0  0  0
   21.2312   72.0452   -0.5507 P   0  0  2  0  0  0  0  0  0  0  0  0
   20.5090   70.6093   -0.3585 O   0  0  0  0  0  0  0  0  0  0  0  0
   20.4235   73.0447   -1.3270 O   0  0  0  0  0  0  0  0  0  0  0  0
   21.6147   72.5116    0.9453 O   0  0  0  0  0  0  0  0  0  0  0  0
   23.2332   70.9438    1.6744 O   0  0  0  0  0  0  0  0  0  0  0  0
   23.1453   73.5958    4.8411 O   0  0  0  0  0  0  0  0  0  0  0  0
   20.6656   72.7495    3.5489 O   0  0  0  0  0  0  0  0  0  0  0  0
   25.3593   73.6448    2.9578 O   0  0  0  0  0  0  0  0  0  0  0  0
   23.0495   73.1943    3.4745 C   0  0  2  0  0  0  0  0  0  0  0  0
   21.9385   72.1549    3.3231 C   0  0  2  0  0  0  0  0  0  0  0  0
   24.3967   72.5974    3.0614 C   0  0  1  0  0  0  0  0  0  0  0  0
   21.9572   71.5337    1.9257 C   0  0  1  0  0  0  0  0  0  0  0  0
   24.3017   71.8872    1.7141 C   0  0  1  0  0  0  0  0  0  0  0  0
   22.3004   73.9783    5.1259 H   0  0  0  0  0  0  0  0  0  0  0  0
   20.6468   73.1459    4.4337 H   0  0  0  0  0  0  0  0  0  0  0  0
   25.4292   74.1050    3.8088 H   0  0  0  0  0  0  0  0  0  0  0  0
   26.2726   70.9685    2.5935 O   0  0  0  0  0  0  0  0  0  0  0  0
   25.7746   70.4782    0.4231 O   0  0  0  0  0  0  0  0  0  0  0  0
   25.5078   71.0381    1.4758 C   0  0  0  0  0  0  0  0  0  0  0  0
  1  4  1  0
  1 24  1  0
  1  2  1  1
  1  3  2  0
 25 28  1  0
 25 24  1  0
 25 26  1  1
 25 27  2  0
  6 11  1  0
  6 12  1  0
 29 36  1  0
 29 37  1  0
  9  7  1  6
  7 13  1  0
 10  8  1  6
  8 14  1  0
  4  5  1  0
 36 28  1  6
 33 30  1  1
 30 38  1  0
 34 31  1  6
 31 39  1  0
 35 32  1  6
 32 40  1  0
 41 43  1  0
 15 19  2  0
 42 43  2  0
 16 22  2  0
 12 17  1  1
 17 19  1  0
 17 20  1  0
 18 19  1  0
 18 22  1  0
 18 23  1  0
  9 10  1  0
  9 11  1  0
 10 12  1  0
 11  5  1  1
 33 34  1  0
 33 35  1  0
 34 36  1  0
 35 37  1  0
 37 43  1  1
 20 21  2  0
 21 22  1  0
M  CHG  3   2  -1  26  -1  41  -1
M  END
>  <COMPND>  (189) 
    udp_gluA.pdb 

>  <AUTHOR>  (189) 
    GENERATED BY OPEN BABEL 3.1.1

>  <MASTER>  (189) 
        0    0    0    0    0    0    0    0   56    0   56    0

>  <minimizedAffinity>  (189) 
-7.73775

>  <CNNscore>  (189) 
0.6551049352

>  <CNNaffinity>  (189) 
4.3263373375

>  <CNN_VS>  (189) 
2.8342049122

>  <CNNaffinity_variance>  (189) 
0.2254354209

$$$$
190
     RDKit          3D

 43 45  0  0  0  0  0  0  0  0999 V2000
   22.8446   72.3005   -3.7482 P   0  0  2  0  0  0  0  0  0  0  0  0
   23.5377   71.1238   -2.8801 O   0  0  0  0  0  0  0  0  0  0  0  0
   23.6598   72.7982   -4.9055 O   0  0  0  0  0  0  0  0  0  0  0  0
   22.4408   73.4118   -2.6437 O   0  0  0  0  0  0  0  0  0  0  0  0
   23.1141   73.4031   -1.3983 C   0  0  0  0  0  0  0  0  0  0  0  0
   22.9402   71.8896    0.4610 O   0  0  0  0  0  0  0  0  0  0  0  0
   20.4470   73.3815    1.2025 O   0  0  0  0  0  0  0  0  0  0  0  0
   22.2946   74.4179    2.9196 O   0  0  0  0  0  0  0  0  0  0  0  0
   21.6608   73.8754    0.6357 C   0  0  1  0  0  0  0  0  0  0  0  0
   22.7527   73.9102    1.6840 C   0  0  2  0  0  0  0  0  0  0  0  0
   22.1857   72.8278   -0.3365 C   0  0  1  0  0  0  0  0  0  0  0  0
   23.1574   72.4482    1.7664 C   0  0  2  0  0  0  0  0  0  0  0  0
   20.0926   74.0339    1.8273 H   0  0  0  0  0  0  0  0  0  0  0  0
   22.0496   75.3512    2.8148 H   0  0  0  0  0  0  0  0  0  0  0  0
   24.4679   69.9527    1.9434 O   0  0  0  0  0  0  0  0  0  0  0  0
   28.4574   71.9267    3.1395 O   0  0  0  0  0  0  0  0  0  0  0  0
   24.5382   72.2811    2.1220 N   0  0  0  0  0  0  0  0  0  0  0  0
   26.4534   70.9381    2.5399 N   0  0  0  0  0  0  0  0  0  0  0  0
   25.0995   70.9837    2.1823 C   0  0  0  0  0  0  0  0  0  0  0  0
   25.3212   73.3938    2.4045 C   0  0  0  0  0  0  0  0  0  0  0  0
   26.6104   73.3345    2.7440 C   0  0  0  0  0  0  0  0  0  0  0  0
   27.2731   72.0167    2.8307 C   0  0  0  0  0  0  0  0  0  0  0  0
   26.8658   70.0456    2.5906 H   0  0  0  0  0  0  0  0  0  0  0  0
   21.4182   71.6585   -4.1560 O   0  0  0  0  0  0  0  0  0  0  0  0
   20.0453   71.5032   -3.3166 P   0  0  2  0  0  0  0  0  0  0  0  0
   19.6637   73.0319   -2.9456 O   0  0  0  0  0  0  0  0  0  0  0  0
   20.1480   70.5866   -2.1321 O   0  0  0  0  0  0  0  0  0  0  0  0
   18.9444   71.0627   -4.4105 O   0  0  0  0  0  0  0  0  0  0  0  0
   16.9286   72.1680   -4.9798 O   0  0  0  0  0  0  0  0  0  0  0  0
   15.9790   68.2263   -5.7728 O   0  0  0  0  0  0  0  0  0  0  0  0
   17.4884   68.9319   -3.3732 O   0  0  0  0  0  0  0  0  0  0  0  0
   16.5427   70.0594   -7.9575 O   0  0  0  0  0  0  0  0  0  0  0  0
   16.8331   69.3654   -5.6686 C   0  0  2  0  0  0  0  0  0  0  0  0
   16.8403   69.8694   -4.2252 C   0  0  2  0  0  0  0  0  0  0  0  0
   16.2950   70.4475   -6.6075 C   0  0  1  0  0  0  0  0  0  0  0  0
   17.5564   71.2165   -4.1196 C   0  0  1  0  0  0  0  0  0  0  0  0
   16.9718   71.7915   -6.3544 C   0  0  1  0  0  0  0  0  0  0  0  0
   16.3014   67.5253   -5.1847 H   0  0  0  0  0  0  0  0  0  0  0  0
   17.0393   68.0747   -3.4355 H   0  0  0  0  0  0  0  0  0  0  0  0
   16.1175   69.2052   -8.1317 H   0  0  0  0  0  0  0  0  0  0  0  0
   16.2194   74.0110   -6.2558 O   0  0  0  0  0  0  0  0  0  0  0  0
   15.6932   72.8163   -8.1253 O   0  0  0  0  0  0  0  0  0  0  0  0
   16.2255   72.8965   -7.0284 C   0  0  0  0  0  0  0  0  0  0  0  0
  1  4  1  0
  1 24  1  0
  1  2  1  1
  1  3  2  0
 25 28  1  0
 25 24  1  0
 25 26  1  1
 25 27  2  0
  6 11  1  0
  6 12  1  0
 29 36  1  0
 29 37  1  0
  9  7  1  1
  7 13  1  0
 10  8  1  1
  8 14  1  0
  4  5  1  0
 36 28  1  6
 33 30  1  1
 30 38  1  0
 34 31  1  1
 31 39  1  0
 35 32  1  6
 32 40  1  0
 41 43  1  0
 15 19  2  0
 42 43  2  0
 16 22  2  0
 12 17  1  6
 17 19  1  0
 17 20  1  0
 18 19  1  0
 18 22  1  0
 18 23  1  0
  9 10  1  0
  9 11  1  0
 10 12  1  0
 11  5  1  6
 33 34  1  0
 33 35  1  0
 34 36  1  0
 35 37  1  0
 37 43  1  6
 20 21  2  0
 21 22  1  0
M  CHG  3   2  -1  26  -1  41  -1
M  END
>  <COMPND>  (190) 
    udp_gluA.pdb 

>  <AUTHOR>  (190) 
    GENERATED BY OPEN BABEL 3.1.1

>  <MASTER>  (190) 
        0    0    0    0    0    0    0    0   56    0   56    0

>  <minimizedAffinity>  (190) 
-6.92058

>  <CNNscore>  (190) 
0.6349915862

>  <CNNaffinity>  (190) 
4.5724048615

>  <CNN_VS>  (190) 
2.9034385681

>  <CNNaffinity_variance>  (190) 
0.1076789647

$$$$
191
     RDKit          3D

 43 45  0  0  0  0  0  0  0  0999 V2000
   23.1775   71.8301   -2.6828 P   0  0  2  0  0  0  0  0  0  0  0  0
   23.5080   73.4143   -2.6805 O   0  0  0  0  0  0  0  0  0  0  0  0
   24.3149   70.9462   -3.1035 O   0  0  0  0  0  0  0  0  0  0  0  0
   21.8318   71.7152   -3.5737 O   0  0  0  0  0  0  0  0  0  0  0  0
   21.6458   72.6295   -4.6386 C   0  0  0  0  0  0  0  0  0  0  0  0
   20.7965   70.6576   -5.7194 O   0  0  0  0  0  0  0  0  0  0  0  0
   21.2860   72.0911   -8.3072 O   0  0  0  0  0  0  0  0  0  0  0  0
   18.5989   72.3957   -7.9564 O   0  0  0  0  0  0  0  0  0  0  0  0
   20.8460   72.6142   -7.0537 C   0  0  1  0  0  0  0  0  0  0  0  0
   19.4014   72.2350   -6.8055 C   0  0  2  0  0  0  0  0  0  0  0  0
   21.5688   71.8560   -5.9487 C   0  0  1  0  0  0  0  0  0  0  0  0
   19.5257   70.7827   -6.3773 C   0  0  2  0  0  0  0  0  0  0  0  0
   20.8377   72.5601   -9.0289 H   0  0  0  0  0  0  0  0  0  0  0  0
   18.5508   73.3369   -8.1881 H   0  0  0  0  0  0  0  0  0  0  0  0
   16.9881   69.8280   -7.1684 O   0  0  0  0  0  0  0  0  0  0  0  0
   15.6215   69.3015   -2.7981 O   0  0  0  0  0  0  0  0  0  0  0  0
   18.4878   70.3890   -5.4670 N   0  0  0  0  0  0  0  0  0  0  0  0
   16.3095   69.5676   -4.9910 N   0  0  0  0  0  0  0  0  0  0  0  0
   17.2490   69.9234   -5.9676 C   0  0  0  0  0  0  0  0  0  0  0  0
   18.7023   70.4643   -4.0961 C   0  0  0  0  0  0  0  0  0  0  0  0
   17.7972   70.1215   -3.1774 C   0  0  0  0  0  0  0  0  0  0  0  0
   16.4764   69.6257   -3.6168 C   0  0  0  0  0  0  0  0  0  0  0  0
   15.4387   69.2425   -5.3153 H   0  0  0  0  0  0  0  0  0  0  0  0
   22.6420   71.5689   -1.1802 O   0  0  0  0  0  0  0  0  0  0  0  0
   21.2332   71.9350   -0.4768 P   0  0  2  0  0  0  0  0  0  0  0  0
   20.3545   70.5919   -0.6874 O   0  0  0  0  0  0  0  0  0  0  0  0
   20.5885   73.1846   -1.0032 O   0  0  0  0  0  0  0  0  0  0  0  0
   21.5597   71.9645    1.1027 O   0  0  0  0  0  0  0  0  0  0  0  0
   22.0888   74.1883    1.7222 O   0  0  0  0  0  0  0  0  0  0  0  0
   22.5465   72.1857    5.3066 O   0  0  0  0  0  0  0  0  0  0  0  0
   23.5309   71.0127    2.8187 O   0  0  0  0  0  0  0  0  0  0  0  0
   20.1960   73.8328    4.8451 O   0  0  0  0  0  0  0  0  0  0  0  0
   21.9831   72.4432    4.0204 C   0  0  2  0  0  0  0  0  0  0  0  0
   23.0766   72.3542    2.9556 C   0  0  2  0  0  0  0  0  0  0  0  0
   21.3752   73.8475    4.0430 C   0  0  1  0  0  0  0  0  0  0  0  0
   22.5633   72.8468    1.6018 C   0  0  1  0  0  0  0  0  0  0  0  0
   21.0044   74.3166    2.6391 C   0  0  1  0  0  0  0  0  0  0  0  0
   22.9390   71.2985    5.3161 H   0  0  0  0  0  0  0  0  0  0  0  0
   23.8578   70.6937    3.6741 H   0  0  0  0  0  0  0  0  0  0  0  0
   20.4182   73.5358    5.7414 H   0  0  0  0  0  0  0  0  0  0  0  0
   21.0863   76.3500    3.8052 O   0  0  0  0  0  0  0  0  0  0  0  0
   20.2434   76.3989    1.6871 O   0  0  0  0  0  0  0  0  0  0  0  0
   20.7262   75.7845    2.6265 C   0  0  0  0  0  0  0  0  0  0  0  0
  1  4  1  0
  1 24  1  0
  1  2  1  1
  1  3  2  0
 25 28  1  0
 25 24  1  0
 25 26  1  1
 25 27  2  0
  6 11  1  0
  6 12  1  0
 29 36  1  0
 29 37  1  0
  9  7  1  6
  7 13  1  0
 10  8  1  6
  8 14  1  0
  4  5  1  0
 36 28  1  1
 33 30  1  1
 30 38  1  0
 34 31  1  6
 31 39  1  0
 35 32  1  1
 32 40  1  0
 41 43  1  0
 15 19  2  0
 42 43  2  0
 16 22  2  0
 12 17  1  1
 17 19  1  0
 17 20  1  0
 18 19  1  0
 18 22  1  0
 18 23  1  0
  9 10  1  0
  9 11  1  0
 10 12  1  0
 11  5  1  1
 33 34  1  0
 33 35  1  0
 34 36  1  0
 35 37  1  0
 37 43  1  1
 20 21  2  0
 21 22  1  0
M  CHG  3   2  -1  26  -1  41  -1
M  END
>  <COMPND>  (191) 
    udp_gluA.pdb 

>  <AUTHOR>  (191) 
    GENERATED BY OPEN BABEL 3.1.1

>  <MASTER>  (191) 
        0    0    0    0    0    0    0    0   56    0   56    0

>  <minimizedAffinity>  (191) 
-7.17014

>  <CNNscore>  (191) 
0.5906334519

>  <CNNaffinity>  (191) 
4.2107810974

>  <CNN_VS>  (191) 
2.4870281219

>  <CNNaffinity_variance>  (191) 
0.2623631358

$$$$
192
     RDKit          3D

 43 45  0  0  0  0  0  0  0  0999 V2000
   19.0641   74.4404   -2.8513 P   0  0  2  0  0  0  0  0  0  0  0  0
   18.6310   75.8630   -3.4899 O   0  0  0  0  0  0  0  0  0  0  0  0
   18.1820   73.9495   -1.7410 O   0  0  0  0  0  0  0  0  0  0  0  0
   20.6238   74.6436   -2.4720 O   0  0  0  0  0  0  0  0  0  0  0  0
   21.1188   74.0311   -1.2954 C   0  0  0  0  0  0  0  0  0  0  0  0
   22.8085   72.3216   -1.3014 O   0  0  0  0  0  0  0  0  0  0  0  0
   20.5502   70.3502   -1.3706 O   0  0  0  0  0  0  0  0  0  0  0  0
   21.2932   70.3133    1.2529 O   0  0  0  0  0  0  0  0  0  0  0  0
   20.6326   71.6066   -0.6973 C   0  0  1  0  0  0  0  0  0  0  0  0
   21.5325   71.4935    0.5150 C   0  0  2  0  0  0  0  0  0  0  0  0
   21.4138   72.5651   -1.5856 C   0  0  1  0  0  0  0  0  0  0  0  0
   22.9148   71.5192   -0.1147 C   0  0  2  0  0  0  0  0  0  0  0  0
   20.0552   69.7210   -0.8222 H   0  0  0  0  0  0  0  0  0  0  0  0
   20.4010   70.3454    1.6336 H   0  0  0  0  0  0  0  0  0  0  0  0
   24.4521   70.0571    1.7495 O   0  0  0  0  0  0  0  0  0  0  0  0
   26.6717   73.8414    3.1626 O   0  0  0  0  0  0  0  0  0  0  0  0
   23.9016   72.0973    0.7530 N   0  0  0  0  0  0  0  0  0  0  0  0
   25.5554   71.9435    2.4522 N   0  0  0  0  0  0  0  0  0  0  0  0
   24.6187   71.2745    1.6534 C   0  0  0  0  0  0  0  0  0  0  0  0
   24.1518   73.4634    0.7058 C   0  0  0  0  0  0  0  0  0  0  0  0
   25.0479   74.0867    1.4734 C   0  0  0  0  0  0  0  0  0  0  0  0
   25.8390   73.2996    2.4419 C   0  0  0  0  0  0  0  0  0  0  0  0
   26.0655   71.3918    3.0885 H   0  0  0  0  0  0  0  0  0  0  0  0
   19.1275   73.4680   -4.1410 O   0  0  0  0  0  0  0  0  0  0  0  0
   20.0809   73.4970   -5.4463 P   0  0  2  0  0  0  0  0  0  0  0  0
   21.3726   72.6400   -4.9800 O   0  0  0  0  0  0  0  0  0  0  0  0
   20.4010   74.8765   -5.9446 O   0  0  0  0  0  0  0  0  0  0  0  0
   19.3328   72.5540   -6.5205 O   0  0  0  0  0  0  0  0  0  0  0  0
   18.9305   70.3559   -5.7359 O   0  0  0  0  0  0  0  0  0  0  0  0
   17.8806   70.0324   -9.7185 O   0  0  0  0  0  0  0  0  0  0  0  0
   20.2638   71.5277   -8.9321 O   0  0  0  0  0  0  0  0  0  0  0  0
   15.8198   70.1693   -7.6727 O   0  0  0  0  0  0  0  0  0  0  0  0
   18.0361   70.6902   -8.4611 C   0  0  2  0  0  0  0  0  0  0  0  0
   19.5120   70.6894   -8.0622 C   0  0  2  0  0  0  0  0  0  0  0  0
   17.2042   69.9318   -7.4245 C   0  0  1  0  0  0  0  0  0  0  0  0
   19.6902   71.1769   -6.6237 C   0  0  1  0  0  0  0  0  0  0  0  0
   17.5307   70.3887   -6.0057 C   0  0  1  0  0  0  0  0  0  0  0  0
   18.4006   70.4969  -10.3931 H   0  0  0  0  0  0  0  0  0  0  0  0
   20.1551   71.2243   -9.8467 H   0  0  0  0  0  0  0  0  0  0  0  0
   15.5989   69.8829   -8.5727 H   0  0  0  0  0  0  0  0  0  0  0  0
   17.2963   69.8236   -3.7413 O   0  0  0  0  0  0  0  0  0  0  0  0
   16.3129   68.4419   -5.2654 O   0  0  0  0  0  0  0  0  0  0  0  0
   16.9728   69.4353   -4.9997 C   0  0  0  0  0  0  0  0  0  0  0  0
  1  4  1  0
  1 24  1  0
  1  2  1  6
  1  3  2  0
 25 28  1  0
 25 24  1  0
 25 26  1  1
 25 27  2  0
  6 11  1  0
  6 12  1  0
 29 36  1  0
 29 37  1  0
  9  7  1  6
  7 13  1  0
 10  8  1  6
  8 14  1  0
  4  5  1  0
 36 28  1  6
 33 30  1  6
 30 38  1  0
 34 31  1  6
 31 39  1  0
 35 32  1  6
 32 40  1  0
 41 43  1  0
 15 19  2  0
 42 43  2  0
 16 22  2  0
 12 17  1  1
 17 19  1  0
 17 20  1  0
 18 19  1  0
 18 22  1  0
 18 23  1  0
  9 10  1  0
  9 11  1  0
 10 12  1  0
 11  5  1  1
 33 34  1  0
 33 35  1  0
 34 36  1  0
 35 37  1  0
 37 43  1  1
 20 21  2  0
 21 22  1  0
M  CHG  3   2  -1  26  -1  41  -1
M  END
>  <COMPND>  (192) 
    udp_gluA.pdb 

>  <AUTHOR>  (192) 
    GENERATED BY OPEN BABEL 3.1.1

>  <MASTER>  (192) 
        0    0    0    0    0    0    0    0   56    0   56    0

>  <minimizedAffinity>  (192) 
-7.27333

>  <CNNscore>  (192) 
0.5510895848

>  <CNNaffinity>  (192) 
4.2963361740

>  <CNN_VS>  (192) 
2.3676660061

>  <CNNaffinity_variance>  (192) 
0.1407952607

$$$$
193
     RDKit          3D

 43 45  0  0  0  0  0  0  0  0999 V2000
   22.2559   73.2763   -4.7924 P   0  0  2  0  0  0  0  0  0  0  0  0
   21.9406   74.8636   -4.7936 O   0  0  0  0  0  0  0  0  0  0  0  0
   23.4244   72.8618   -5.6377 O   0  0  0  0  0  0  0  0  0  0  0  0
   20.8372   72.5981   -5.1738 O   0  0  0  0  0  0  0  0  0  0  0  0
   20.4601   72.5407   -6.5372 C   0  0  0  0  0  0  0  0  0  0  0  0
   19.3532   70.5100   -5.8825 O   0  0  0  0  0  0  0  0  0  0  0  0
   19.6508   69.6463   -8.7385 O   0  0  0  0  0  0  0  0  0  0  0  0
   17.0497   70.4578   -8.6294 O   0  0  0  0  0  0  0  0  0  0  0  0
   19.3942   70.9476   -8.2100 C   0  0  1  0  0  0  0  0  0  0  0  0
   17.9630   71.0436   -7.7254 C   0  0  2  0  0  0  0  0  0  0  0  0
   20.1799   71.0916   -6.9138 C   0  0  1  0  0  0  0  0  0  0  0  0
   18.0288   70.3049   -6.3995 C   0  0  2  0  0  0  0  0  0  0  0  0
   19.1593   69.5308   -9.5672 H   0  0  0  0  0  0  0  0  0  0  0  0
   17.0444   70.9643   -9.4573 H   0  0  0  0  0  0  0  0  0  0  0  0
   16.9820   68.7931   -4.2560 O   0  0  0  0  0  0  0  0  0  0  0  0
   14.3722   72.3072   -2.8124 O   0  0  0  0  0  0  0  0  0  0  0  0
   17.0743   70.8001   -5.4484 N   0  0  0  0  0  0  0  0  0  0  0  0
   15.6824   70.5444   -3.5397 N   0  0  0  0  0  0  0  0  0  0  0  0
   16.6120   69.9586   -4.4090 C   0  0  0  0  0  0  0  0  0  0  0  0
   16.6076   72.1050   -5.5493 C   0  0  0  0  0  0  0  0  0  0  0  0
   15.7215   72.6493   -4.7130 C   0  0  0  0  0  0  0  0  0  0  0  0
   15.1879   71.8372   -3.5999 C   0  0  0  0  0  0  0  0  0  0  0  0
   15.3444   69.9774   -2.8092 H   0  0  0  0  0  0  0  0  0  0  0  0
   22.4091   72.9379   -3.2192 O   0  0  0  0  0  0  0  0  0  0  0  0
   22.6282   71.5316   -2.4524 P   0  0  2  0  0  0  0  0  0  0  0  0
   24.0842   71.0505   -2.9710 O   0  0  0  0  0  0  0  0  0  0  0  0
   21.5309   70.5314   -2.6750 O   0  0  0  0  0  0  0  0  0  0  0  0
   22.8598   71.9389   -0.9088 O   0  0  0  0  0  0  0  0  0  0  0  0
   24.2841   71.1145    0.7945 O   0  0  0  0  0  0  0  0  0  0  0  0
   20.8429   71.9671    2.9157 O   0  0  0  0  0  0  0  0  0  0  0  0
   20.6878   70.6859    0.2948 O   0  0  0  0  0  0  0  0  0  0  0  0
   23.1448   73.7332    3.0981 O   0  0  0  0  0  0  0  0  0  0  0  0
   21.8119   72.1371    1.8812 C   0  0  2  0  0  0  0  0  0  0  0  0
   21.8884   70.8644    1.0374 C   0  0  2  0  0  0  0  0  0  0  0  0
   23.1633   72.4203    2.5410 C   0  0  1  0  0  0  0  0  0  0  0  0
   23.0699   70.9209    0.0681 C   0  0  1  0  0  0  0  0  0  0  0  0
   24.3048   72.3348    1.5318 C   0  0  1  0  0  0  0  0  0  0  0  0
   19.9758   71.7859    2.5201 H   0  0  0  0  0  0  0  0  0  0  0  0
   19.9339   70.6495    0.9037 H   0  0  0  0  0  0  0  0  0  0  0  0
   22.4226   73.8010    3.7421 H   0  0  0  0  0  0  0  0  0  0  0  0
   26.2052   71.0684    2.0667 O   0  0  0  0  0  0  0  0  0  0  0  0
   26.1236   73.2059    2.8563 O   0  0  0  0  0  0  0  0  0  0  0  0
   25.6257   72.2837    2.2281 C   0  0  0  0  0  0  0  0  0  0  0  0
  1  4  1  0
  1 24  1  0
  1  2  1  1
  1  3  2  0
 25 28  1  0
 25 24  1  0
 25 26  1  6
 25 27  2  0
  6 11  1  0
  6 12  1  0
 29 36  1  0
 29 37  1  0
  9  7  1  1
  7 13  1  0
 10  8  1  6
  8 14  1  0
  4  5  1  0
 36 28  1  6
 33 30  1  1
 30 38  1  0
 34 31  1  6
 31 39  1  0
 35 32  1  6
 32 40  1  0
 41 43  1  0
 15 19  2  0
 42 43  2  0
 16 22  2  0
 12 17  1  1
 17 19  1  0
 17 20  1  0
 18 19  1  0
 18 22  1  0
 18 23  1  0
  9 10  1  0
  9 11  1  0
 10 12  1  0
 11  5  1  1
 33 34  1  0
 33 35  1  0
 34 36  1  0
 35 37  1  0
 37 43  1  1
 20 21  2  0
 21 22  1  0
M  CHG  3   2  -1  26  -1  41  -1
M  END
>  <COMPND>  (193) 
    udp_gluA.pdb 

>  <AUTHOR>  (193) 
    GENERATED BY OPEN BABEL 3.1.1

>  <MASTER>  (193) 
        0    0    0    0    0    0    0    0   56    0   56    0

>  <minimizedAffinity>  (193) 
-7.90335

>  <CNNscore>  (193) 
0.5504481196

>  <CNNaffinity>  (193) 
4.3235321045

>  <CNN_VS>  (193) 
2.3798801899

>  <CNNaffinity_variance>  (193) 
0.1524503529

$$$$
194
     RDKit          3D

 43 45  0  0  0  0  0  0  0  0999 V2000
   21.3423   73.9395   -2.2865 P   0  0  2  0  0  0  0  0  0  0  0  0
   21.7125   75.5145   -2.2519 O   0  0  0  0  0  0  0  0  0  0  0  0
   19.8748   73.6352   -2.3633 O   0  0  0  0  0  0  0  0  0  0  0  0
   22.1203   73.3292   -1.0058 O   0  0  0  0  0  0  0  0  0  0  0  0
   21.7839   73.8110    0.2823 C   0  0  0  0  0  0  0  0  0  0  0  0
   22.4312   71.7507    1.3376 O   0  0  0  0  0  0  0  0  0  0  0  0
   19.9767   72.0633    3.0315 O   0  0  0  0  0  0  0  0  0  0  0  0
   21.9625   72.9087    4.6982 O   0  0  0  0  0  0  0  0  0  0  0  0
   20.8649   73.0644    2.5341 C   0  0  1  0  0  0  0  0  0  0  0  0
   22.1666   73.0410    3.3070 C   0  0  2  0  0  0  0  0  0  0  0  0
   21.3138   72.6441    1.1412 C   0  0  1  0  0  0  0  0  0  0  0  0
   22.8709   71.8384    2.7023 C   0  0  2  0  0  0  0  0  0  0  0  0
   19.6764   72.3099    3.9207 H   0  0  0  0  0  0  0  0  0  0  0  0
   21.5115   73.6991    5.0354 H   0  0  0  0  0  0  0  0  0  0  0  0
   24.6776   69.7381    2.1537 O   0  0  0  0  0  0  0  0  0  0  0  0
   28.3336   72.4650    2.8178 O   0  0  0  0  0  0  0  0  0  0  0  0
   24.3001   71.9719    2.7247 N   0  0  0  0  0  0  0  0  0  0  0  0
   26.4968   71.0980    2.4860 N   0  0  0  0  0  0  0  0  0  0  0  0
   25.1180   70.8544    2.4342 C   0  0  0  0  0  0  0  0  0  0  0  0
   24.8774   73.1984    3.0300 C   0  0  0  0  0  0  0  0  0  0  0  0
   26.1934   73.4152    3.0753 C   0  0  0  0  0  0  0  0  0  0  0  0
   27.1180   72.2997    2.7853 C   0  0  0  0  0  0  0  0  0  0  0  0
   27.0865   70.3345    2.2894 H   0  0  0  0  0  0  0  0  0  0  0  0
   22.2101   73.3901   -3.5346 O   0  0  0  0  0  0  0  0  0  0  0  0
   21.9265   73.4337   -5.1256 P   0  0  2  0  0  0  0  0  0  0  0  0
   23.1621   72.5909   -5.7448 O   0  0  0  0  0  0  0  0  0  0  0  0
   21.7794   74.8182   -5.6872 O   0  0  0  0  0  0  0  0  0  0  0  0
   20.6394   72.4847   -5.3381 O   0  0  0  0  0  0  0  0  0  0  0  0
   20.1674   70.3794   -4.3613 O   0  0  0  0  0  0  0  0  0  0  0  0
   18.2689   70.0549   -8.0162 O   0  0  0  0  0  0  0  0  0  0  0  0
   20.9174   71.2730   -7.8262 O   0  0  0  0  0  0  0  0  0  0  0  0
   16.7165   70.5103   -5.6009 O   0  0  0  0  0  0  0  0  0  0  0  0
   18.7600   70.7301   -6.8582 C   0  0  2  0  0  0  0  0  0  0  0  0
   20.2773   70.5621   -6.7728 C   0  0  2  0  0  0  0  0  0  0  0  0
   18.0863   70.1138   -5.6301 C   0  0  1  0  0  0  0  0  0  0  0  0
   20.8095   71.0716   -5.4327 C   0  0  1  0  0  0  0  0  0  0  0  0
   18.7551   70.5741   -4.3381 C   0  0  1  0  0  0  0  0  0  0  0  0
   18.6833   70.4297   -8.8093 H   0  0  0  0  0  0  0  0  0  0  0  0
   20.5842   70.9550   -8.6795 H   0  0  0  0  0  0  0  0  0  0  0  0
   16.2794   70.2234   -6.4179 H   0  0  0  0  0  0  0  0  0  0  0  0
   17.5494   68.6980   -3.6115 O   0  0  0  0  0  0  0  0  0  0  0  0
   18.6126   69.9327   -2.0165 O   0  0  0  0  0  0  0  0  0  0  0  0
   18.3189   69.7299   -3.1851 C   0  0  0  0  0  0  0  0  0  0  0  0
  1  4  1  0
  1 24  1  0
  1  2  1  1
  1  3  2  0
 25 28  1  0
 25 24  1  0
 25 26  1  6
 25 27  2  0
  6 11  1  0
  6 12  1  0
 29 36  1  0
 29 37  1  0
  9  7  1  1
  7 13  1  0
 10  8  1  1
  8 14  1  0
  4  5  1  0
 36 28  1  1
 33 30  1  6
 30 38  1  0
 34 31  1  6
 31 39  1  0
 35 32  1  1
 32 40  1  0
 41 43  1  0
 15 19  2  0
 42 43  2  0
 16 22  2  0
 12 17  1  6
 17 19  1  0
 17 20  1  0
 18 19  1  0
 18 22  1  0
 18 23  1  0
  9 10  1  0
  9 11  1  0
 10 12  1  0
 11  5  1  6
 33 34  1  0
 33 35  1  0
 34 36  1  0
 35 37  1  0
 37 43  1  1
 20 21  2  0
 21 22  1  0
M  CHG  3   2  -1  26  -1  41  -1
M  END
>  <COMPND>  (194) 
    udp_gluA.pdb 

>  <AUTHOR>  (194) 
    GENERATED BY OPEN BABEL 3.1.1

>  <MASTER>  (194) 
        0    0    0    0    0    0    0    0   56    0   56    0

>  <minimizedAffinity>  (194) 
-6.97546

>  <CNNscore>  (194) 
0.5425268412

>  <CNNaffinity>  (194) 
4.2890081406

>  <CNN_VS>  (194) 
2.3269021511

>  <CNNaffinity_variance>  (194) 
0.0715437904

$$$$
195
     RDKit          3D

 43 45  0  0  0  0  0  0  0  0999 V2000
   21.2509   74.5216   -1.5712 P   0  0  2  0  0  0  0  0  0  0  0  0
   22.1597   75.1548   -2.7511 O   0  0  0  0  0  0  0  0  0  0  0  0
   20.0140   75.3023   -1.2359 O   0  0  0  0  0  0  0  0  0  0  0  0
   22.2936   74.3003   -0.3540 O   0  0  0  0  0  0  0  0  0  0  0  0
   21.8357   74.4923    0.9719 C   0  0  0  0  0  0  0  0  0  0  0  0
   22.4415   72.2147    1.4446 O   0  0  0  0  0  0  0  0  0  0  0  0
   20.0593   72.1545    3.2649 O   0  0  0  0  0  0  0  0  0  0  0  0
   22.1307   72.4948    5.0054 O   0  0  0  0  0  0  0  0  0  0  0  0
   20.9667   73.2244    2.9992 C   0  0  1  0  0  0  0  0  0  0  0  0
   22.2921   72.9701    3.6853 C   0  0  2  0  0  0  0  0  0  0  0  0
   21.3521   73.1590    1.5276 C   0  0  1  0  0  0  0  0  0  0  0  0
   22.9302   71.9414    2.7674 C   0  0  2  0  0  0  0  0  0  0  0  0
   19.7988   72.1756    4.1994 H   0  0  0  0  0  0  0  0  0  0  0  0
   21.7211   73.1859    5.5500 H   0  0  0  0  0  0  0  0  0  0  0  0
   24.6511   69.8040    2.0989 O   0  0  0  0  0  0  0  0  0  0  0  0
   28.4126   72.3785    2.7821 O   0  0  0  0  0  0  0  0  0  0  0  0
   24.3633   72.0256    2.7623 N   0  0  0  0  0  0  0  0  0  0  0  0
   26.5229   71.0880    2.4408 N   0  0  0  0  0  0  0  0  0  0  0  0
   25.1357   70.8933    2.4113 C   0  0  0  0  0  0  0  0  0  0  0  0
   24.9891   73.2194    3.1005 C   0  0  0  0  0  0  0  0  0  0  0  0
   26.3125   73.3897    3.1240 C   0  0  0  0  0  0  0  0  0  0  0  0
   27.1915   72.2557    2.7711 C   0  0  0  0  0  0  0  0  0  0  0  0
   27.0816   70.3132    2.2022 H   0  0  0  0  0  0  0  0  0  0  0  0
   20.9764   73.0164   -2.0927 O   0  0  0  0  0  0  0  0  0  0  0  0
   19.8557   71.9327   -1.6647 P   0  0  2  0  0  0  0  0  0  0  0  0
   18.7677   72.8229   -0.8623 O   0  0  0  0  0  0  0  0  0  0  0  0
   20.3929   70.7652   -0.8886 O   0  0  0  0  0  0  0  0  0  0  0  0
   19.1202   71.5375   -3.0451 O   0  0  0  0  0  0  0  0  0  0  0  0
   19.4720   72.2378   -5.2800 O   0  0  0  0  0  0  0  0  0  0  0  0
   15.3685   71.7689   -5.1819 O   0  0  0  0  0  0  0  0  0  0  0  0
   16.7698   73.0212   -2.9453 O   0  0  0  0  0  0  0  0  0  0  0  0
   17.0333   69.7815   -6.4972 O   0  0  0  0  0  0  0  0  0  0  0  0
   16.7213   71.4867   -4.8238 C   0  0  2  0  0  0  0  0  0  0  0  0
   17.3583   72.7328   -4.2082 C   0  0  2  0  0  0  0  0  0  0  0  0
   17.4711   71.0776   -6.0936 C   0  0  1  0  0  0  0  0  0  0  0  0
   18.8646   72.5430   -4.0240 C   0  0  1  0  0  0  0  0  0  0  0  0
   18.9785   71.0326   -5.8604 C   0  0  1  0  0  0  0  0  0  0  0  0
   14.8723   72.0312   -4.3905 H   0  0  0  0  0  0  0  0  0  0  0  0
   15.8139   73.1426   -3.0547 H   0  0  0  0  0  0  0  0  0  0  0  0
   16.0753   69.7965   -6.6487 H   0  0  0  0  0  0  0  0  0  0  0  0
   18.8871   71.2465   -8.1944 O   0  0  0  0  0  0  0  0  0  0  0  0
   20.8982   70.6830   -7.2795 O   0  0  0  0  0  0  0  0  0  0  0  0
   19.7142   70.9596   -7.1587 C   0  0  0  0  0  0  0  0  0  0  0  0
  1  4  1  0
  1 24  1  0
  1  2  1  6
  1  3  2  0
 25 28  1  0
 25 24  1  0
 25 26  1  1
 25 27  2  0
  6 11  1  0
  6 12  1  0
 29 36  1  0
 29 37  1  0
  9  7  1  6
  7 13  1  0
 10  8  1  1
  8 14  1  0
  4  5  1  0
 36 28  1  1
 33 30  1  6
 30 38  1  0
 34 31  1  1
 31 39  1  0
 35 32  1  1
 32 40  1  0
 41 43  1  0
 15 19  2  0
 42 43  2  0
 16 22  2  0
 12 17  1  6
 17 19  1  0
 17 20  1  0
 18 19  1  0
 18 22  1  0
 18 23  1  0
  9 10  1  0
  9 11  1  0
 10 12  1  0
 11  5  1  1
 33 34  1  0
 33 35  1  0
 34 36  1  0
 35 37  1  0
 37 43  1  6
 20 21  2  0
 21 22  1  0
M  CHG  3   2  -1  26  -1  41  -1
M  END
>  <COMPND>  (195) 
    udp_gluA.pdb 

>  <AUTHOR>  (195) 
    GENERATED BY OPEN BABEL 3.1.1

>  <MASTER>  (195) 
        0    0    0    0    0    0    0    0   56    0   56    0

>  <minimizedAffinity>  (195) 
-6.31580

>  <CNNscore>  (195) 
0.5300142169

>  <CNNaffinity>  (195) 
4.1360850334

>  <CNN_VS>  (195) 
2.1921839714

>  <CNNaffinity_variance>  (195) 
0.1194511428

$$$$
196
     RDKit          3D

 43 45  0  0  0  0  0  0  0  0999 V2000
   21.3427   74.7329   -1.5971 P   0  0  2  0  0  0  0  0  0  0  0  0
   22.1218   75.7274   -2.6085 O   0  0  0  0  0  0  0  0  0  0  0  0
   19.9722   75.1891   -1.1904 O   0  0  0  0  0  0  0  0  0  0  0  0
   22.3946   74.5051   -0.3891 O   0  0  0  0  0  0  0  0  0  0  0  0
   21.9361   74.6482    0.9428 C   0  0  0  0  0  0  0  0  0  0  0  0
   22.4837   72.3423    1.3436 O   0  0  0  0  0  0  0  0  0  0  0  0
   20.0520   72.2627    3.0962 O   0  0  0  0  0  0  0  0  0  0  0  0
   22.0813   72.4938    4.9030 O   0  0  0  0  0  0  0  0  0  0  0  0
   20.9872   73.3228    2.8960 C   0  0  1  0  0  0  0  0  0  0  0  0
   22.2881   73.0152    3.6069 C   0  0  2  0  0  0  0  0  0  0  0  0
   21.4113   73.3052    1.4338 C   0  0  1  0  0  0  0  0  0  0  0  0
   22.9307   72.0090    2.6674 C   0  0  2  0  0  0  0  0  0  0  0  0
   19.7664   72.2538    4.0236 H   0  0  0  0  0  0  0  0  0  0  0  0
   21.6706   73.1721    5.4627 H   0  0  0  0  0  0  0  0  0  0  0  0
   24.6259   69.8451    2.0193 O   0  0  0  0  0  0  0  0  0  0  0  0
   28.4182   72.3324    2.8417 O   0  0  0  0  0  0  0  0  0  0  0  0
   24.3647   72.0637    2.7037 N   0  0  0  0  0  0  0  0  0  0  0  0
   26.5130   71.0857    2.4305 N   0  0  0  0  0  0  0  0  0  0  0  0
   25.1236   70.9201    2.3595 C   0  0  0  0  0  0  0  0  0  0  0  0
   25.0048   73.2398    3.0750 C   0  0  0  0  0  0  0  0  0  0  0  0
   26.3302   73.3825    3.1379 C   0  0  0  0  0  0  0  0  0  0  0  0
   27.1956   72.2350    2.7948 C   0  0  0  0  0  0  0  0  0  0  0  0
   27.0624   70.3026    2.1974 H   0  0  0  0  0  0  0  0  0  0  0  0
   21.3770   73.3192   -2.3802 O   0  0  0  0  0  0  0  0  0  0  0  0
   20.3804   72.0476   -2.3193 P   0  0  2  0  0  0  0  0  0  0  0  0
   19.1505   72.5846   -1.4141 O   0  0  0  0  0  0  0  0  0  0  0  0
   21.0195   70.7883   -1.8098 O   0  0  0  0  0  0  0  0  0  0  0  0
   19.7706   71.9339   -3.8085 O   0  0  0  0  0  0  0  0  0  0  0  0
   19.3071   70.2409   -5.3985 O   0  0  0  0  0  0  0  0  0  0  0  0
   21.1729   73.0960   -7.7300 O   0  0  0  0  0  0  0  0  0  0  0  0
   22.1941   72.4596   -5.0679 O   0  0  0  0  0  0  0  0  0  0  0  0
   18.2892   72.7557   -7.8688 O   0  0  0  0  0  0  0  0  0  0  0  0
   20.3657   72.6156   -6.6549 C   0  0  2  0  0  0  0  0  0  0  0  0
   21.2015   71.7058   -5.7543 C   0  0  2  0  0  0  0  0  0  0  0  0
   19.1925   71.8379   -7.2554 C   0  0  1  0  0  0  0  0  0  0  0  0
   20.3200   70.9922   -4.7284 C   0  0  1  0  0  0  0  0  0  0  0  0
   18.4387   71.0530   -6.1857 C   0  0  1  0  0  0  0  0  0  0  0  0
   21.9252   73.5935   -7.3725 H   0  0  0  0  0  0  0  0  0  0  0  0
   22.7570   72.9152   -5.7129 H   0  0  0  0  0  0  0  0  0  0  0  0
   18.7565   73.2619   -8.5516 H   0  0  0  0  0  0  0  0  0  0  0  0
   17.8664   69.8253   -8.1005 O   0  0  0  0  0  0  0  0  0  0  0  0
   16.5834   69.5115   -6.2419 O   0  0  0  0  0  0  0  0  0  0  0  0
   17.5194   70.0541   -6.8097 C   0  0  0  0  0  0  0  0  0  0  0  0
  1  4  1  0
  1 24  1  0
  1  2  1  6
  1  3  2  0
 25 28  1  0
 25 24  1  0
 25 26  1  1
 25 27  2  0
  6 11  1  0
  6 12  1  0
 29 36  1  0
 29 37  1  0
  9  7  1  6
  7 13  1  0
 10  8  1  1
  8 14  1  0
  4  5  1  0
 36 28  1  1
 33 30  1  6
 30 38  1  0
 34 31  1  1
 31 39  1  0
 35 32  1  1
 32 40  1  0
 41 43  1  0
 15 19  2  0
 42 43  2  0
 16 22  2  0
 12 17  1  6
 17 19  1  0
 17 20  1  0
 18 19  1  0
 18 22  1  0
 18 23  1  0
  9 10  1  0
  9 11  1  0
 10 12  1  0
 11  5  1  1
 33 34  1  0
 33 35  1  0
 34 36  1  0
 35 37  1  0
 37 43  1  6
 20 21  2  0
 21 22  1  0
M  CHG  3   2  -1  26  -1  41  -1
M  END
>  <COMPND>  (196) 
    udp_gluA.pdb 

>  <AUTHOR>  (196) 
    GENERATED BY OPEN BABEL 3.1.1

>  <MASTER>  (196) 
        0    0    0    0    0    0    0    0   56    0   56    0

>  <minimizedAffinity>  (196) 
-6.71799

>  <CNNscore>  (196) 
0.5181656480

>  <CNNaffinity>  (196) 
4.1824550629

>  <CNN_VS>  (196) 
2.1672046185

>  <CNNaffinity_variance>  (196) 
0.1113606244

$$$$
197
     RDKit          3D

 43 45  0  0  0  0  0  0  0  0999 V2000
   23.6425   72.3064   -3.4895 P   0  0  2  0  0  0  0  0  0  0  0  0
   24.2001   70.8025   -3.2744 O   0  0  0  0  0  0  0  0  0  0  0  0
   24.6340   73.2731   -4.0675 O   0  0  0  0  0  0  0  0  0  0  0  0
   23.0327   72.7049   -2.0448 O   0  0  0  0  0  0  0  0  0  0  0  0
   22.8718   71.6865   -1.0746 C   0  0  0  0  0  0  0  0  0  0  0  0
   21.1245   70.9946    0.4242 O   0  0  0  0  0  0  0  0  0  0  0  0
   19.2042   72.0061   -1.6449 O   0  0  0  0  0  0  0  0  0  0  0  0
   19.2278   74.0277    0.1850 O   0  0  0  0  0  0  0  0  0  0  0  0
   20.4777   72.5265   -1.2628 C   0  0  1  0  0  0  0  0  0  0  0  0
   20.3799   73.2175    0.0808 C   0  0  2  0  0  0  0  0  0  0  0  0
   21.3915   71.3494   -0.9499 C   0  0  1  0  0  0  0  0  0  0  0  0
   20.3553   72.0398    1.0401 C   0  0  2  0  0  0  0  0  0  0  0  0
   18.6030   72.7397   -1.8497 H   0  0  0  0  0  0  0  0  0  0  0  0
   19.2915   74.7630   -0.4452 H   0  0  0  0  0  0  0  0  0  0  0  0
   19.0384   73.4884    3.0757 O   0  0  0  0  0  0  0  0  0  0  0  0
   22.6801   73.2036    5.8865 O   0  0  0  0  0  0  0  0  0  0  0  0
   20.9360   72.3583    2.3137 N   0  0  0  0  0  0  0  0  0  0  0  0
   20.8538   73.3461    4.4733 N   0  0  0  0  0  0  0  0  0  0  0  0
   20.1894   73.0910    3.2665 C   0  0  0  0  0  0  0  0  0  0  0  0
   22.2294   71.9450    2.6092 C   0  0  0  0  0  0  0  0  0  0  0  0
   22.8494   72.1956    3.7640 C   0  0  0  0  0  0  0  0  0  0  0  0
   22.1393   72.9564    4.8129 C   0  0  0  0  0  0  0  0  0  0  0  0
   20.3549   73.8565    5.1514 H   0  0  0  0  0  0  0  0  0  0  0  0
   22.3207   72.0777   -4.3914 O   0  0  0  0  0  0  0  0  0  0  0  0
   21.6924   72.9548   -5.5954 P   0  0  2  0  0  0  0  0  0  0  0  0
   22.6497   72.5985   -6.8511 O   0  0  0  0  0  0  0  0  0  0  0  0
   21.5845   74.4222   -5.2969 O   0  0  0  0  0  0  0  0  0  0  0  0
   20.2890   72.2360   -5.9364 O   0  0  0  0  0  0  0  0  0  0  0  0
   19.6092   70.0768   -5.2402 O   0  0  0  0  0  0  0  0  0  0  0  0
   17.4446   70.5564   -8.7263 O   0  0  0  0  0  0  0  0  0  0  0  0
   20.2377   71.4018   -8.5892 O   0  0  0  0  0  0  0  0  0  0  0  0
   16.1309   70.8140   -6.1458 O   0  0  0  0  0  0  0  0  0  0  0  0
   18.0969   70.9789   -7.5288 C   0  0  2  0  0  0  0  0  0  0  0  0
   19.5809   70.6181   -7.5997 C   0  0  2  0  0  0  0  0  0  0  0  0
   17.4312   70.2647   -6.3504 C   0  0  1  0  0  0  0  0  0  0  0  0
   20.2642   70.8448   -6.2504 C   0  0  1  0  0  0  0  0  0  0  0  0
   18.2397   70.4343   -5.0674 C   0  0  1  0  0  0  0  0  0  0  0  0
   17.8510   70.9975   -9.4889 H   0  0  0  0  0  0  0  0  0  0  0  0
   19.8091   71.2630   -9.4479 H   0  0  0  0  0  0  0  0  0  0  0  0
   15.6061   70.7127   -6.9552 H   0  0  0  0  0  0  0  0  0  0  0  0
   16.8196   68.6525   -4.5107 O   0  0  0  0  0  0  0  0  0  0  0  0
   18.1914   69.4411   -2.8690 O   0  0  0  0  0  0  0  0  0  0  0  0
   17.7738   69.4797   -4.0167 C   0  0  0  0  0  0  0  0  0  0  0  0
  1  4  1  0
  1 24  1  0
  1  2  1  1
  1  3  2  0
 25 28  1  0
 25 24  1  0
 25 26  1  6
 25 27  2  0
  6 11  1  0
  6 12  1  0
 29 36  1  0
 29 37  1  0
  9  7  1  1
  7 13  1  0
 10  8  1  6
  8 14  1  0
  4  5  1  0
 36 28  1  1
 33 30  1  6
 30 38  1  0
 34 31  1  6
 31 39  1  0
 35 32  1  1
 32 40  1  0
 41 43  1  0
 15 19  2  0
 42 43  2  0
 16 22  2  0
 12 17  1  1
 17 19  1  0
 17 20  1  0
 18 19  1  0
 18 22  1  0
 18 23  1  0
  9 10  1  0
  9 11  1  0
 10 12  1  0
 11  5  1  1
 33 34  1  0
 33 35  1  0
 34 36  1  0
 35 37  1  0
 37 43  1  1
 20 21  2  0
 21 22  1  0
M  CHG  3   2  -1  26  -1  41  -1
M  END
>  <COMPND>  (197) 
    udp_gluA.pdb 

>  <AUTHOR>  (197) 
    GENERATED BY OPEN BABEL 3.1.1

>  <MASTER>  (197) 
        0    0    0    0    0    0    0    0   56    0   56    0

>  <minimizedAffinity>  (197) 
-7.37163

>  <CNNscore>  (197) 
0.5170451999

>  <CNNaffinity>  (197) 
4.1332674026

>  <CNN_VS>  (197) 
2.1370861530

>  <CNNaffinity_variance>  (197) 
0.2053078860

$$$$
198
     RDKit          3D

 43 45  0  0  0  0  0  0  0  0999 V2000
   23.5209   72.3471   -3.1184 P   0  0  2  0  0  0  0  0  0  0  0  0
   24.2322   70.8988   -2.9940 O   0  0  0  0  0  0  0  0  0  0  0  0
   24.4351   73.4703   -3.5113 O   0  0  0  0  0  0  0  0  0  0  0  0
   22.7549   72.5264   -1.7045 O   0  0  0  0  0  0  0  0  0  0  0  0
   23.5303   72.6457   -0.5259 C   0  0  0  0  0  0  0  0  0  0  0  0
   23.9661   71.6475    1.6169 O   0  0  0  0  0  0  0  0  0  0  0  0
   21.4629   70.0562    1.1768 O   0  0  0  0  0  0  0  0  0  0  0  0
   20.6283   72.0234    2.8708 O   0  0  0  0  0  0  0  0  0  0  0  0
   21.7537   71.4041    0.8063 C   0  0  1  0  0  0  0  0  0  0  0  0
   21.7256   72.3006    2.0261 C   0  0  2  0  0  0  0  0  0  0  0  0
   23.2179   71.4726    0.3942 C   0  0  1  0  0  0  0  0  0  0  0  0
   23.0606   71.9862    2.6794 C   0  0  2  0  0  0  0  0  0  0  0  0
   20.5326   69.9875    1.4441 H   0  0  0  0  0  0  0  0  0  0  0  0
   19.8024   72.2403    2.4096 H   0  0  0  0  0  0  0  0  0  0  0  0
   22.4128   72.5982    5.3593 O   0  0  0  0  0  0  0  0  0  0  0  0
   25.1577   76.3009    5.3690 O   0  0  0  0  0  0  0  0  0  0  0  0
   23.5916   73.1043    3.4067 N   0  0  0  0  0  0  0  0  0  0  0  0
   23.7797   74.4423    5.3613 N   0  0  0  0  0  0  0  0  0  0  0  0
   23.2013   73.3226    4.7491 C   0  0  0  0  0  0  0  0  0  0  0  0
   24.4889   73.9688    2.7916 C   0  0  0  0  0  0  0  0  0  0  0  0
   25.0319   75.0319    3.3881 C   0  0  0  0  0  0  0  0  0  0  0  0
   24.6761   75.3314    4.7906 C   0  0  0  0  0  0  0  0  0  0  0  0
   23.5216   74.6161    6.2954 H   0  0  0  0  0  0  0  0  0  0  0  0
   22.3114   72.0695   -4.1542 O   0  0  0  0  0  0  0  0  0  0  0  0
   21.8021   72.9066   -5.4402 P   0  0  2  0  0  0  0  0  0  0  0  0
   22.8132   72.4344   -6.6129 O   0  0  0  0  0  0  0  0  0  0  0  0
   21.7521   74.3919   -5.2277 O   0  0  0  0  0  0  0  0  0  0  0  0
   20.3866   72.2379   -5.8294 O   0  0  0  0  0  0  0  0  0  0  0  0
   19.6258   70.0627   -5.2824 O   0  0  0  0  0  0  0  0  0  0  0  0
   17.5960   70.8025   -8.8039 O   0  0  0  0  0  0  0  0  0  0  0  0
   20.4042   71.5584   -8.5264 O   0  0  0  0  0  0  0  0  0  0  0  0
   16.2016   70.9498   -6.2573 O   0  0  0  0  0  0  0  0  0  0  0  0
   18.2178   71.1371   -7.5631 C   0  0  2  0  0  0  0  0  0  0  0  0
   19.6932   70.7385   -7.6062 C   0  0  2  0  0  0  0  0  0  0  0  0
   17.4931   70.3760   -6.4507 C   0  0  1  0  0  0  0  0  0  0  0  0
   20.3354   70.8682   -6.2243 C   0  0  1  0  0  0  0  0  0  0  0  0
   18.2612   70.4488   -5.1342 C   0  0  1  0  0  0  0  0  0  0  0  0
   18.0400   71.2746   -9.5259 H   0  0  0  0  0  0  0  0  0  0  0  0
   20.0019   71.4813   -9.4054 H   0  0  0  0  0  0  0  0  0  0  0  0
   15.7024   70.9099   -7.0880 H   0  0  0  0  0  0  0  0  0  0  0  0
   16.7507   68.7034   -4.7179 O   0  0  0  0  0  0  0  0  0  0  0  0
   18.1305   69.3146   -3.0086 O   0  0  0  0  0  0  0  0  0  0  0  0
   17.7342   69.4494   -4.1565 C   0  0  0  0  0  0  0  0  0  0  0  0
  1  4  1  0
  1 24  1  0
  1  2  1  1
  1  3  2  0
 25 28  1  0
 25 24  1  0
 25 26  1  6
 25 27  2  0
  6 11  1  0
  6 12  1  0
 29 36  1  0
 29 37  1  0
  9  7  1  1
  7 13  1  0
 10  8  1  1
  8 14  1  0
  4  5  1  0
 36 28  1  1
 33 30  1  6
 30 38  1  0
 34 31  1  6
 31 39  1  0
 35 32  1  1
 32 40  1  0
 41 43  1  0
 15 19  2  0
 42 43  2  0
 16 22  2  0
 12 17  1  6
 17 19  1  0
 17 20  1  0
 18 19  1  0
 18 22  1  0
 18 23  1  0
  9 10  1  0
  9 11  1  0
 10 12  1  0
 11  5  1  6
 33 34  1  0
 33 35  1  0
 34 36  1  0
 35 37  1  0
 37 43  1  1
 20 21  2  0
 21 22  1  0
M  CHG  3   2  -1  26  -1  41  -1
M  END
>  <COMPND>  (198) 
    udp_gluA.pdb 

>  <AUTHOR>  (198) 
    GENERATED BY OPEN BABEL 3.1.1

>  <MASTER>  (198) 
        0    0    0    0    0    0    0    0   56    0   56    0

>  <minimizedAffinity>  (198) 
-7.84603

>  <CNNscore>  (198) 
0.5093616247

>  <CNNaffinity>  (198) 
4.1638193130

>  <CNN_VS>  (198) 
2.1208896637

>  <CNNaffinity_variance>  (198) 
0.1782690436

$$$$
199
     RDKit          3D

 43 45  0  0  0  0  0  0  0  0999 V2000
   19.3513   73.2605   -1.7787 P   0  0  2  0  0  0  0  0  0  0  0  0
   18.0652   74.2145   -1.5442 O   0  0  0  0  0  0  0  0  0  0  0  0
   19.0416   71.7968   -1.8947 O   0  0  0  0  0  0  0  0  0  0  0  0
   20.3631   73.6721   -0.5851 O   0  0  0  0  0  0  0  0  0  0  0  0
   20.9688   72.6415    0.1734 C   0  0  0  0  0  0  0  0  0  0  0  0
   23.1455   73.4213    0.8303 O   0  0  0  0  0  0  0  0  0  0  0  0
   24.2448   71.1738   -0.8226 O   0  0  0  0  0  0  0  0  0  0  0  0
   24.4290   70.1927    1.7150 O   0  0  0  0  0  0  0  0  0  0  0  0
   23.0644   71.2120   -0.0202 C   0  0  1  0  0  0  0  0  0  0  0  0
   23.4269   71.1515    1.4485 C   0  0  2  0  0  0  0  0  0  0  0  0
   22.4586   72.6036   -0.1418 C   0  0  1  0  0  0  0  0  0  0  0  0
   23.8911   72.5727    1.7177 C   0  0  2  0  0  0  0  0  0  0  0  0
   24.6497   70.2941   -0.7610 H   0  0  0  0  0  0  0  0  0  0  0  0
   24.0846   69.3046    1.5285 H   0  0  0  0  0  0  0  0  0  0  0  0
   25.4963   74.4062    3.1454 O   0  0  0  0  0  0  0  0  0  0  0  0
   22.8539   74.0706    6.9069 O   0  0  0  0  0  0  0  0  0  0  0  0
   23.6454   72.9823    3.0715 N   0  0  0  0  0  0  0  0  0  0  0  0
   24.1793   74.2365    5.0178 N   0  0  0  0  0  0  0  0  0  0  0  0
   24.5128   73.9088    3.6971 C   0  0  0  0  0  0  0  0  0  0  0  0
   22.5555   72.4695    3.7643 C   0  0  0  0  0  0  0  0  0  0  0  0
   22.2503   72.7915    5.0229 C   0  0  0  0  0  0  0  0  0  0  0  0
   23.1065   73.7524    5.7488 C   0  0  0  0  0  0  0  0  0  0  0  0
   24.7697   74.8782    5.4749 H   0  0  0  0  0  0  0  0  0  0  0  0
   20.0491   73.9068   -3.0857 O   0  0  0  0  0  0  0  0  0  0  0  0
   20.8497   73.2198   -4.3106 P   0  0  2  0  0  0  0  0  0  0  0  0
   21.6761   72.0286   -3.5906 O   0  0  0  0  0  0  0  0  0  0  0  0
   21.6996   74.1715   -5.1017 O   0  0  0  0  0  0  0  0  0  0  0  0
   19.7127   72.4645   -5.1704 O   0  0  0  0  0  0  0  0  0  0  0  0
   19.2663   70.1621   -4.8403 O   0  0  0  0  0  0  0  0  0  0  0  0
   17.5996   70.8163   -8.5635 O   0  0  0  0  0  0  0  0  0  0  0  0
   20.1831   71.9909   -7.8705 O   0  0  0  0  0  0  0  0  0  0  0  0
   15.8916   70.5560   -6.2255 O   0  0  0  0  0  0  0  0  0  0  0  0
   17.9953   71.1568   -7.2348 C   0  0  2  0  0  0  0  0  0  0  0  0
   19.5103   71.0040   -7.0970 C   0  0  2  0  0  0  0  0  0  0  0  0
   17.2752   70.2120   -6.2701 C   0  0  1  0  0  0  0  0  0  0  0  0
   19.9428   71.1360   -5.6361 C   0  0  1  0  0  0  0  0  0  0  0  0
   17.8486   70.3129   -4.8596 C   0  0  1  0  0  0  0  0  0  0  0  0
   18.0449   71.4037   -9.1943 H   0  0  0  0  0  0  0  0  0  0  0  0
   19.9131   71.9131   -8.7986 H   0  0  0  0  0  0  0  0  0  0  0  0
   15.5146   70.4959   -7.1172 H   0  0  0  0  0  0  0  0  0  0  0  0
   16.0592   69.3034   -3.7278 O   0  0  0  0  0  0  0  0  0  0  0  0
   18.0792   68.2503   -3.6291 O   0  0  0  0  0  0  0  0  0  0  0  0
   17.3787   69.1748   -4.0133 C   0  0  0  0  0  0  0  0  0  0  0  0
  1  4  1  0
  1 24  1  0
  1  2  1  1
  1  3  2  0
 25 28  1  0
 25 24  1  0
 25 26  1  1
 25 27  2  0
  6 11  1  0
  6 12  1  0
 29 36  1  0
 29 37  1  0
  9  7  1  6
  7 13  1  0
 10  8  1  6
  8 14  1  0
  4  5  1  0
 36 28  1  1
 33 30  1  6
 30 38  1  0
 34 31  1  6
 31 39  1  0
 35 32  1  1
 32 40  1  0
 41 43  1  0
 15 19  2  0
 42 43  2  0
 16 22  2  0
 12 17  1  1
 17 19  1  0
 17 20  1  0
 18 19  1  0
 18 22  1  0
 18 23  1  0
  9 10  1  0
  9 11  1  0
 10 12  1  0
 11  5  1  1
 33 34  1  0
 33 35  1  0
 34 36  1  0
 35 37  1  0
 37 43  1  1
 20 21  2  0
 21 22  1  0
M  CHG  3   2  -1  26  -1  41  -1
M  END
>  <COMPND>  (199) 
    udp_gluA.pdb 

>  <AUTHOR>  (199) 
    GENERATED BY OPEN BABEL 3.1.1

>  <MASTER>  (199) 
        0    0    0    0    0    0    0    0   56    0   56    0

>  <minimizedAffinity>  (199) 
-6.27980

>  <CNNscore>  (199) 
0.4944213927

>  <CNNaffinity>  (199) 
4.0866613388

>  <CNN_VS>  (199) 
2.0205328465

>  <CNNaffinity_variance>  (199) 
0.1822101176

$$$$
200
     RDKit          3D

 43 45  0  0  0  0  0  0  0  0999 V2000
   15.3401   70.6669   -1.9159 P   0  0  2  0  0  0  0  0  0  0  0  0
   16.3755   71.8338   -1.4856 O   0  0  0  0  0  0  0  0  0  0  0  0
   13.9077   71.1001   -2.0268 O   0  0  0  0  0  0  0  0  0  0  0  0
   15.6345   69.4773   -0.8595 O   0  0  0  0  0  0  0  0  0  0  0  0
   14.5664   68.6277   -0.4829 C   0  0  0  0  0  0  0  0  0  0  0  0
   12.7142   69.0571    0.9877 O   0  0  0  0  0  0  0  0  0  0  0  0
   14.6027   68.4574    3.2384 O   0  0  0  0  0  0  0  0  0  0  0  0
   13.1852   66.1385    3.0160 O   0  0  0  0  0  0  0  0  0  0  0  0
   14.5228   67.8623    1.9429 C   0  0  1  0  0  0  0  0  0  0  0  0
   13.3239   66.9412    1.8623 C   0  0  2  0  0  0  0  0  0  0  0  0
   14.1540   68.9532    0.9469 C   0  0  1  0  0  0  0  0  0  0  0  0
   12.1798   67.9266    1.6946 C   0  0  2  0  0  0  0  0  0  0  0  0
   14.8372   67.7795    3.8920 H   0  0  0  0  0  0  0  0  0  0  0  0
   13.9375   65.5284    3.0776 H   0  0  0  0  0  0  0  0  0  0  0  0
    9.4540   68.4417    2.2247 O   0  0  0  0  0  0  0  0  0  0  0  0
    8.0808   65.7633   -1.2660 O   0  0  0  0  0  0  0  0  0  0  0  0
   11.0893   67.3769    0.9400 N   0  0  0  0  0  0  0  0  0  0  0  0
    8.7726   67.1064    0.4862 N   0  0  0  0  0  0  0  0  0  0  0  0
    9.7564   67.6987    1.2890 C   0  0  0  0  0  0  0  0  0  0  0  0
   11.3449   66.5313   -0.1327 C   0  0  0  0  0  0  0  0  0  0  0  0
   10.3966   65.9744   -0.8886 C   0  0  0  0  0  0  0  0  0  0  0  0
    8.9776   66.2587   -0.5903 C   0  0  0  0  0  0  0  0  0  0  0  0
    7.8369   67.3140    0.7112 H   0  0  0  0  0  0  0  0  0  0  0  0
   15.9806   70.1012   -3.2880 O   0  0  0  0  0  0  0  0  0  0  0  0
   17.5080   69.7416   -3.6771 P   0  0  2  0  0  0  0  0  0  0  0  0
   17.6436   68.1874   -3.2455 O   0  0  0  0  0  0  0  0  0  0  0  0
   18.5314   70.6475   -3.0558 O   0  0  0  0  0  0  0  0  0  0  0  0
   17.5250   69.7192   -5.2901 O   0  0  0  0  0  0  0  0  0  0  0  0
   18.7558   71.6197   -5.9847 O   0  0  0  0  0  0  0  0  0  0  0  0
   17.8243   69.8534   -9.6014 O   0  0  0  0  0  0  0  0  0  0  0  0
   15.8284   70.0140   -7.4743 O   0  0  0  0  0  0  0  0  0  0  0  0
   20.5128   69.6307   -8.5182 O   0  0  0  0  0  0  0  0  0  0  0  0
   18.1370   69.8851   -8.2089 C   0  0  2  0  0  0  0  0  0  0  0  0
   17.0766   70.6970   -7.4647 C   0  0  2  0  0  0  0  0  0  0  0  0
   19.5138   70.5336   -8.0480 C   0  0  1  0  0  0  0  0  0  0  0  0
   17.4964   70.9471   -6.0155 C   0  0  1  0  0  0  0  0  0  0  0  0
   19.8056   70.8665   -6.5877 C   0  0  1  0  0  0  0  0  0  0  0  0
   16.9533   69.4453   -9.7282 H   0  0  0  0  0  0  0  0  0  0  0  0
   15.5561   69.8518   -8.3908 H   0  0  0  0  0  0  0  0  0  0  0  0
   20.3386   69.4106   -9.4467 H   0  0  0  0  0  0  0  0  0  0  0  0
   21.3733   71.9032   -5.1844 O   0  0  0  0  0  0  0  0  0  0  0  0
   21.5230   72.3448   -7.4164 O   0  0  0  0  0  0  0  0  0  0  0  0
   20.9815   71.7816   -6.4769 C   0  0  0  0  0  0  0  0  0  0  0  0
  1  4  1  0
  1 24  1  0
  1  2  1  1
  1  3  2  0
 25 28  1  0
 25 24  1  0
 25 26  1  1
 25 27  2  0
  6 11  1  0
  6 12  1  0
 29 36  1  0
 29 37  1  0
  9  7  1  1
  7 13  1  0
 10  8  1  1
  8 14  1  0
  4  5  1  0
 36 28  1  1
 33 30  1  6
 30 38  1  0
 34 31  1  1
 31 39  1  0
 35 32  1  1
 32 40  1  0
 41 43  1  0
 15 19  2  0
 42 43  2  0
 16 22  2  0
 12 17  1  6
 17 19  1  0
 17 20  1  0
 18 19  1  0
 18 22  1  0
 18 23  1  0
  9 10  1  0
  9 11  1  0
 10 12  1  0
 11  5  1  6
 33 34  1  0
 33 35  1  0
 34 36  1  0
 35 37  1  0
 37 43  1  6
 20 21  2  0
 21 22  1  0
M  CHG  3   2  -1  26  -1  41  -1
M  END
