1
     RDKit          3D

 43 45  0  0  0  0  0  0  0  0999 V2000
   22.4012   72.0381   -3.1111 P   0  0  2  0  0  0  0  0  0  0  0  0
   21.9193   73.5620   -2.8597 O   0  0  0  0  0  0  0  0  0  0  0  0
   23.8261   71.8895   -3.5570 O   0  0  0  0  0  0  0  0  0  0  0  0
   21.2841   71.4383   -4.1162 O   0  0  0  0  0  0  0  0  0  0  0  0
   20.4739   70.3671   -3.6649 C   0  0  0  0  0  0  0  0  0  0  0  0
   18.6677   71.5365   -4.7343 O   0  0  0  0  0  0  0  0  0  0  0  0
   16.8817   70.2664   -2.6879 O   0  0  0  0  0  0  0  0  0  0  0  0
   16.4602   68.7142   -4.8900 O   0  0  0  0  0  0  0  0  0  0  0  0
   18.0325   69.7299   -3.3384 C   0  0  1  0  0  0  0  0  0  0  0  0
   17.7059   69.3708   -4.7730 C   0  0  2  0  0  0  0  0  0  0  0  0
   19.0407   70.8586   -3.5147 C   0  0  1  0  0  0  0  0  0  0  0  0
   17.7152   70.7316   -5.4484 C   0  0  2  0  0  0  0  0  0  0  0  0
   16.2236   69.5640   -2.5640 H   0  0  0  0  0  0  0  0  0  0  0  0
   16.5050   67.8536   -4.4448 H   0  0  0  0  0  0  0  0  0  0  0  0
   15.9640   70.1144   -7.5768 O   0  0  0  0  0  0  0  0  0  0  0  0
   19.3374   70.4687  -10.6971 O   0  0  0  0  0  0  0  0  0  0  0  0
   18.1091   70.6562   -6.8270 N   0  0  0  0  0  0  0  0  0  0  0  0
   17.6451   70.2915   -9.1288 N   0  0  0  0  0  0  0  0  0  0  0  0
   17.1521   70.3376   -7.8185 C   0  0  0  0  0  0  0  0  0  0  0  0
   19.4314   70.8969   -7.1841 C   0  0  0  0  0  0  0  0  0  0  0  0
   19.8858   70.8477   -8.4381 C   0  0  0  0  0  0  0  0  0  0  0  0
   18.9503   70.5217   -9.5338 C   0  0  0  0  0  0  0  0  0  0  0  0
   16.9965   70.0711   -9.8362 H   0  0  0  0  0  0  0  0  0  0  0  0
   22.0558   71.3117   -1.7089 O   0  0  0  0  0  0  0  0  0  0  0  0
   21.1751   71.8051   -0.4464 P   0  0  2  0  0  0  0  0  0  0  0  0
   20.7851   70.4221    0.2971 O   0  0  0  0  0  0  0  0  0  0  0  0
   19.9995   72.6635   -0.8140 O   0  0  0  0  0  0  0  0  0  0  0  0
   22.2375   72.5132    0.5410 O   0  0  0  0  0  0  0  0  0  0  0  0
   24.1161   72.0080    1.8947 O   0  0  0  0  0  0  0  0  0  0  0  0
   21.6878   73.7347    4.7536 O   0  0  0  0  0  0  0  0  0  0  0  0
   23.9846   75.1659    3.7919 O   0  0  0  0  0  0  0  0  0  0  0  0
   20.5346   72.0294    2.7184 O   0  0  0  0  0  0  0  0  0  0  0  0
   22.2430   73.5632    3.4467 C   0  0  1  0  0  0  0  0  0  0  0  0
   23.7545   73.7833    3.5351 C   0  0  1  0  0  0  0  0  0  0  0  0
   21.9333   72.1508    2.9542 C   0  0  2  0  0  0  0  0  0  0  0  0
   24.4531   73.3575    2.2368 C   0  0  1  0  0  0  0  0  0  0  0  0
   22.7164   71.8108    1.6849 C   0  0  1  0  0  0  0  0  0  0  0  0
   21.8806   74.6297    5.0719 H   0  0  0  0  0  0  0  0  0  0  0  0
   23.5377   75.4220    4.6141 H   0  0  0  0  0  0  0  0  0  0  0  0
   20.0501   72.2469    3.5294 H   0  0  0  0  0  0  0  0  0  0  0  0
   26.3086   73.5973    3.7229 O   0  0  0  0  0  0  0  0  0  0  0  0
   25.9741   73.4201    2.3587 C   0  0  0  0  0  0  0  0  0  0  0  0
   27.2737   73.6386    3.8158 H   0  0  0  0  0  0  0  0  0  0  0  0
 25 28  1  0
 25 24  1  0
 25 26  1  1
 25 27  2  0
  1  4  1  0
  1 24  1  0
  1  2  1  1
  1  3  2  0
  6 11  1  0
  6 12  1  0
 29 36  1  0
 29 37  1  0
  9  7  1  1
  7 13  1  0
 10  8  1  1
  8 14  1  0
 37 28  1  6
  4  5  1  0
 33 30  1  1
 30 38  1  0
 34 31  1  6
 31 39  1  0
 35 32  1  6
 32 40  1  0
 41 42  1  0
 41 43  1  0
 15 19  2  0
 16 22  2  0
 12 17  1  6
 17 19  1  0
 17 20  1  0
 18 19  1  0
 18 22  1  0
 18 23  1  0
  9 10  1  0
  9 11  1  0
 10 12  1  0
 11  5  1  6
 33 34  1  0
 33 35  1  0
 34 36  1  0
 35 37  1  0
 36 42  1  1
 20 21  2  0
 21 22  1  0
M  CHG  2   2  -1  26  -1
M  END
>  <COMPND>  (1) 
    8629 

>  <AUTHOR>  (1) 
    GENERATED BY OPEN BABEL 3.1.1

>  <MASTER>  (1) 
        0    0    0    0    0    0    0    0   58    0   58    0

>  <minimizedAffinity>  (1) 
-7.47202

>  <CNNscore>  (1) 
0.9446315765

>  <CNNaffinity>  (1) 
4.8011751175

>  <CNN_VS>  (1) 
4.5353417397

>  <CNNaffinity_variance>  (1) 
0.0359450355

$$$$
2
     RDKit          3D

 43 45  0  0  0  0  0  0  0  0999 V2000
   22.8554   71.7253   -2.8090 P   0  0  2  0  0  0  0  0  0  0  0  0
   22.8671   73.3151   -2.5094 O   0  0  0  0  0  0  0  0  0  0  0  0
   24.1738   71.1515   -3.2379 O   0  0  0  0  0  0  0  0  0  0  0  0
   21.6336   71.5358   -3.8526 O   0  0  0  0  0  0  0  0  0  0  0  0
   20.7608   70.4332   -3.6788 C   0  0  0  0  0  0  0  0  0  0  0  0
   18.9126   71.6138   -4.6606 O   0  0  0  0  0  0  0  0  0  0  0  0
   17.2319   70.4091   -2.4892 O   0  0  0  0  0  0  0  0  0  0  0  0
   16.6560   68.8263   -4.6339 O   0  0  0  0  0  0  0  0  0  0  0  0
   18.3334   69.8424   -3.1968 C   0  0  1  0  0  0  0  0  0  0  0  0
   17.9166   69.4641   -4.6028 C   0  0  2  0  0  0  0  0  0  0  0  0
   19.3469   70.9509   -3.4530 C   0  0  1  0  0  0  0  0  0  0  0  0
   17.9069   70.8127   -5.3023 C   0  0  2  0  0  0  0  0  0  0  0  0
   16.5714   69.7199   -2.3138 H   0  0  0  0  0  0  0  0  0  0  0  0
   16.7139   67.9729   -4.1765 H   0  0  0  0  0  0  0  0  0  0  0  0
   16.0357   70.1285   -7.3043 O   0  0  0  0  0  0  0  0  0  0  0  0
   19.2091   70.4353  -10.6325 O   0  0  0  0  0  0  0  0  0  0  0  0
   18.2169   70.7069   -6.7001 N   0  0  0  0  0  0  0  0  0  0  0  0
   17.6173   70.2820   -8.9599 N   0  0  0  0  0  0  0  0  0  0  0  0
   17.2045   70.3559   -7.6234 C   0  0  0  0  0  0  0  0  0  0  0  0
   19.5125   70.9502   -7.1430 C   0  0  0  0  0  0  0  0  0  0  0  0
   19.8901   70.8742   -8.4209 C   0  0  0  0  0  0  0  0  0  0  0  0
   18.8931   70.5135   -9.4493 C   0  0  0  0  0  0  0  0  0  0  0  0
   16.9291   70.0388   -9.6209 H   0  0  0  0  0  0  0  0  0  0  0  0
   22.2638   71.1018   -1.4399 O   0  0  0  0  0  0  0  0  0  0  0  0
   21.4670   71.7940   -0.2156 P   0  0  2  0  0  0  0  0  0  0  0  0
   20.8946   70.5300    0.6164 O   0  0  0  0  0  0  0  0  0  0  0  0
   20.4186   72.7800   -0.6429 O   0  0  0  0  0  0  0  0  0  0  0  0
   22.6226   72.4124    0.7262 O   0  0  0  0  0  0  0  0  0  0  0  0
   21.2296   73.8810    1.9587 O   0  0  0  0  0  0  0  0  0  0  0  0
   24.5753   73.9598    4.3776 O   0  0  0  0  0  0  0  0  0  0  0  0
   22.2264   72.5574    5.2517 O   0  0  0  0  0  0  0  0  0  0  0  0
   24.8757   73.8961    1.4992 O   0  0  0  0  0  0  0  0  0  0  0  0
   23.6241   73.3685    3.4883 C   0  0  1  0  0  0  0  0  0  0  0  0
   22.2426   73.4496    4.1407 C   0  0  1  0  0  0  0  0  0  0  0  0
   23.6387   74.1295    2.1639 C   0  0  2  0  0  0  0  0  0  0  0  0
   21.1363   73.0809    3.1431 C   0  0  1  0  0  0  0  0  0  0  0  0
   22.4691   73.7226    1.2657 C   0  0  1  0  0  0  0  0  0  0  0  0
   24.5713   73.4810    5.2203 H   0  0  0  0  0  0  0  0  0  0  0  0
   22.9299   72.8009    5.8737 H   0  0  0  0  0  0  0  0  0  0  0  0
   25.6080   74.1579    2.0779 H   0  0  0  0  0  0  0  0  0  0  0  0
   19.8768   73.9775    4.9648 O   0  0  0  0  0  0  0  0  0  0  0  0
   19.7427   73.3067    3.7254 C   0  0  0  0  0  0  0  0  0  0  0  0
   18.9976   74.1283    5.3470 H   0  0  0  0  0  0  0  0  0  0  0  0
 25 28  1  0
 25 24  1  0
 25 26  1  1
 25 27  2  0
  1  4  1  0
  1 24  1  0
  1  2  1  1
  1  3  2  0
  6 11  1  0
  6 12  1  0
 29 36  1  0
 29 37  1  0
  9  7  1  1
  7 13  1  0
 10  8  1  1
  8 14  1  0
 37 28  1  1
  4  5  1  0
 33 30  1  1
 30 38  1  0
 34 31  1  1
 31 39  1  0
 35 32  1  6
 32 40  1  0
 41 42  1  0
 41 43  1  0
 15 19  2  0
 16 22  2  0
 12 17  1  6
 17 19  1  0
 17 20  1  0
 18 19  1  0
 18 22  1  0
 18 23  1  0
  9 10  1  0
  9 11  1  0
 10 12  1  0
 11  5  1  6
 33 34  1  0
 33 35  1  0
 34 36  1  0
 35 37  1  0
 36 42  1  1
 20 21  2  0
 21 22  1  0
M  CHG  2   2  -1  26  -1
M  END
>  <COMPND>  (2) 
    8629 

>  <AUTHOR>  (2) 
    GENERATED BY OPEN BABEL 3.1.1

>  <MASTER>  (2) 
        0    0    0    0    0    0    0    0   58    0   58    0

>  <minimizedAffinity>  (2) 
-7.53903

>  <CNNscore>  (2) 
0.9295560122

>  <CNNaffinity>  (2) 
4.6907615662

>  <CNN_VS>  (2) 
4.3603258133

>  <CNNaffinity_variance>  (2) 
0.0320714600

$$$$
3
     RDKit          3D

 43 45  0  0  0  0  0  0  0  0999 V2000
   22.9245   72.1188   -3.1690 P   0  0  2  0  0  0  0  0  0  0  0  0
   24.2048   72.2924   -4.1427 O   0  0  0  0  0  0  0  0  0  0  0  0
   23.1613   71.2674   -1.9564 O   0  0  0  0  0  0  0  0  0  0  0  0
   21.7478   71.6180   -4.1602 O   0  0  0  0  0  0  0  0  0  0  0  0
   20.9326   70.5344   -3.7487 C   0  0  0  0  0  0  0  0  0  0  0  0
   19.0454   71.6859   -4.6902 O   0  0  0  0  0  0  0  0  0  0  0  0
   17.4438   70.5062   -2.4465 O   0  0  0  0  0  0  0  0  0  0  0  0
   16.8115   68.8838   -4.5452 O   0  0  0  0  0  0  0  0  0  0  0  0
   18.5263   69.9353   -3.1796 C   0  0  1  0  0  0  0  0  0  0  0  0
   18.0676   69.5306   -4.5650 C   0  0  2  0  0  0  0  0  0  0  0  0
   19.5229   71.0462   -3.4863 C   0  0  1  0  0  0  0  0  0  0  0  0
   18.0257   70.8673   -5.2860 C   0  0  2  0  0  0  0  0  0  0  0  0
   16.7944   69.8155   -2.2387 H   0  0  0  0  0  0  0  0  0  0  0  0
   16.8901   68.0387   -4.0759 H   0  0  0  0  0  0  0  0  0  0  0  0
   16.0961   70.1390   -7.2158 O   0  0  0  0  0  0  0  0  0  0  0  0
   19.1599   70.4095  -10.6482 O   0  0  0  0  0  0  0  0  0  0  0  0
   18.2917   70.7402   -6.6912 N   0  0  0  0  0  0  0  0  0  0  0  0
   17.6232   70.2745   -8.9233 N   0  0  0  0  0  0  0  0  0  0  0  0
   17.2527   70.3680   -7.5757 C   0  0  0  0  0  0  0  0  0  0  0  0
   19.5709   70.9838   -7.1791 C   0  0  0  0  0  0  0  0  0  0  0  0
   19.9082   70.8890   -8.4670 C   0  0  0  0  0  0  0  0  0  0  0  0
   18.8812   70.5054   -9.4570 C   0  0  0  0  0  0  0  0  0  0  0  0
   16.9158   70.0163   -9.5580 H   0  0  0  0  0  0  0  0  0  0  0  0
   22.5030   73.6458   -2.8471 O   0  0  0  0  0  0  0  0  0  0  0  0
   21.7221   74.7426   -3.7416 P   0  0  2  0  0  0  0  0  0  0  0  0
   22.2325   76.1510   -3.1307 O   0  0  0  0  0  0  0  0  0  0  0  0
   20.2300   74.5772   -3.7538 O   0  0  0  0  0  0  0  0  0  0  0  0
   22.4169   74.6533   -5.1957 O   0  0  0  0  0  0  0  0  0  0  0  0
   21.0970   75.5706   -6.9373 O   0  0  0  0  0  0  0  0  0  0  0  0
   23.9300   73.6140   -9.2169 O   0  0  0  0  0  0  0  0  0  0  0  0
   23.9738   76.4811   -9.0548 O   0  0  0  0  0  0  0  0  0  0  0  0
   22.9466   72.3989   -6.7806 O   0  0  0  0  0  0  0  0  0  0  0  0
   23.4471   74.3553   -8.0933 C   0  0  1  0  0  0  0  0  0  0  0  0
   22.8834   75.6837   -8.6015 C   0  0  1  0  0  0  0  0  0  0  0  0
   22.3605   73.5442   -7.3898 C   0  0  2  0  0  0  0  0  0  0  0  0
   22.1090   76.4157   -7.4972 C   0  0  1  0  0  0  0  0  0  0  0  0
   21.6192   74.3798   -6.3447 C   0  0  1  0  0  0  0  0  0  0  0  0
   24.6206   74.1233   -9.6677 H   0  0  0  0  0  0  0  0  0  0  0  0
   24.4547   76.0072   -9.7516 H   0  0  0  0  0  0  0  0  0  0  0  0
   23.4125   71.8781   -7.4526 H   0  0  0  0  0  0  0  0  0  0  0  0
   22.3490   78.7191   -8.0851 O   0  0  0  0  0  0  0  0  0  0  0  0
   21.4059   77.6650   -8.0235 C   0  0  0  0  0  0  0  0  0  0  0  0
   21.9157   79.5208   -8.4187 H   0  0  0  0  0  0  0  0  0  0  0  0
 25 28  1  0
 25 24  1  0
 25 26  1  1
 25 27  2  0
  1  4  1  0
  1 24  1  0
  1  2  1  6
  1  3  2  0
  6 11  1  0
  6 12  1  0
 29 36  1  0
 29 37  1  0
  9  7  1  1
  7 13  1  0
 10  8  1  1
  8 14  1  0
 37 28  1  1
  4  5  1  0
 33 30  1  6
 30 38  1  0
 34 31  1  1
 31 39  1  0
 35 32  1  1
 32 40  1  0
 41 42  1  0
 41 43  1  0
 15 19  2  0
 16 22  2  0
 12 17  1  6
 17 19  1  0
 17 20  1  0
 18 19  1  0
 18 22  1  0
 18 23  1  0
  9 10  1  0
  9 11  1  0
 10 12  1  0
 11  5  1  6
 33 34  1  0
 33 35  1  0
 34 36  1  0
 35 37  1  0
 36 42  1  6
 20 21  2  0
 21 22  1  0
M  CHG  2   2  -1  26  -1
M  END
>  <COMPND>  (3) 
    8629 

>  <AUTHOR>  (3) 
    GENERATED BY OPEN BABEL 3.1.1

>  <MASTER>  (3) 
        0    0    0    0    0    0    0    0   58    0   58    0

>  <minimizedAffinity>  (3) 
-7.12438

>  <CNNscore>  (3) 
0.9235762954

>  <CNNaffinity>  (3) 
4.7053985596

>  <CNN_VS>  (3) 
4.3457946777

>  <CNNaffinity_variance>  (3) 
0.1712437421

$$$$
4
     RDKit          3D

 43 45  0  0  0  0  0  0  0  0999 V2000
   23.0186   71.7323   -3.2722 P   0  0  2  0  0  0  0  0  0  0  0  0
   22.7310   72.0385   -4.8346 O   0  0  0  0  0  0  0  0  0  0  0  0
   24.2839   70.9741   -2.9974 O   0  0  0  0  0  0  0  0  0  0  0  0
   21.6540   71.0327   -2.7560 O   0  0  0  0  0  0  0  0  0  0  0  0
   20.7812   70.4631   -3.7160 C   0  0  0  0  0  0  0  0  0  0  0  0
   18.9423   71.6604   -4.6951 O   0  0  0  0  0  0  0  0  0  0  0  0
   17.2578   70.4858   -2.5103 O   0  0  0  0  0  0  0  0  0  0  0  0
   16.6537   68.8995   -4.6446 O   0  0  0  0  0  0  0  0  0  0  0  0
   18.3494   69.9029   -3.2201 C   0  0  1  0  0  0  0  0  0  0  0  0
   17.9218   69.5227   -4.6223 C   0  0  2  0  0  0  0  0  0  0  0  0
   19.3744   70.9983   -3.4863 C   0  0  1  0  0  0  0  0  0  0  0  0
   17.9245   70.8679   -5.3283 C   0  0  2  0  0  0  0  0  0  0  0  0
   16.5902   69.8052   -2.3285 H   0  0  0  0  0  0  0  0  0  0  0  0
   16.7038   68.0477   -4.1833 H   0  0  0  0  0  0  0  0  0  0  0  0
   16.0352   70.2009   -7.3191 O   0  0  0  0  0  0  0  0  0  0  0  0
   19.1977   70.4496  -10.6624 O   0  0  0  0  0  0  0  0  0  0  0  0
   18.2267   70.7518   -6.7270 N   0  0  0  0  0  0  0  0  0  0  0  0
   17.6114   70.3254   -8.9822 N   0  0  0  0  0  0  0  0  0  0  0  0
   17.2056   70.4108   -7.6443 C   0  0  0  0  0  0  0  0  0  0  0  0
   19.5236   70.9754   -7.1767 C   0  0  0  0  0  0  0  0  0  0  0  0
   19.8945   70.8887   -8.4558 C   0  0  0  0  0  0  0  0  0  0  0  0
   18.8880   70.5372   -9.4783 C   0  0  0  0  0  0  0  0  0  0  0  0
   16.9169   70.0888   -9.6392 H   0  0  0  0  0  0  0  0  0  0  0  0
   22.9530   73.1992   -2.5963 O   0  0  0  0  0  0  0  0  0  0  0  0
   21.7334   74.2512   -2.4591 P   0  0  2  0  0  0  0  0  0  0  0  0
   22.4391   75.5550   -1.8112 O   0  0  0  0  0  0  0  0  0  0  0  0
   20.5580   73.7328   -1.6821 O   0  0  0  0  0  0  0  0  0  0  0  0
   21.3939   74.6833   -3.9767 O   0  0  0  0  0  0  0  0  0  0  0  0
   22.5363   76.5682   -4.8478 O   0  0  0  0  0  0  0  0  0  0  0  0
   19.4400   76.3563   -7.5715 O   0  0  0  0  0  0  0  0  0  0  0  0
   22.0898   75.5940   -8.3749 O   0  0  0  0  0  0  0  0  0  0  0  0
   18.9442   75.7952   -4.7753 O   0  0  0  0  0  0  0  0  0  0  0  0
   20.4245   75.8347   -6.6749 C   0  0  1  0  0  0  0  0  0  0  0  0
   21.8032   76.2848   -7.1621 C   0  0  1  0  0  0  0  0  0  0  0  0
   20.1510   76.3662   -5.2692 C   0  0  2  0  0  0  0  0  0  0  0  0
   22.8841   75.9928   -6.1126 C   0  0  1  0  0  0  0  0  0  0  0  0
   21.3091   76.0649   -4.3162 C   0  0  1  0  0  0  0  0  0  0  0  0
   19.6076   76.0222   -8.4658 H   0  0  0  0  0  0  0  0  0  0  0  0
   21.3995   75.7865   -9.0289 H   0  0  0  0  0  0  0  0  0  0  0  0
   18.2188   75.9932   -5.3872 H   0  0  0  0  0  0  0  0  0  0  0  0
   24.8032   75.7537   -7.5157 O   0  0  0  0  0  0  0  0  0  0  0  0
   24.2390   76.5747   -6.5098 C   0  0  0  0  0  0  0  0  0  0  0  0
   25.6659   76.1121   -7.7786 H   0  0  0  0  0  0  0  0  0  0  0  0
 25 28  1  0
 25 24  1  0
 25 26  1  1
 25 27  2  0
  1  4  1  0
  1 24  1  0
  1  2  1  6
  1  3  2  0
  6 11  1  0
  6 12  1  0
 29 36  1  0
 29 37  1  0
  9  7  1  1
  7 13  1  0
 10  8  1  1
  8 14  1  0
 37 28  1  6
  4  5  1  0
 33 30  1  6
 30 38  1  0
 34 31  1  6
 31 39  1  0
 35 32  1  1
 32 40  1  0
 41 42  1  0
 41 43  1  0
 15 19  2  0
 16 22  2  0
 12 17  1  6
 17 19  1  0
 17 20  1  0
 18 19  1  0
 18 22  1  0
 18 23  1  0
  9 10  1  0
  9 11  1  0
 10 12  1  0
 11  5  1  6
 33 34  1  0
 33 35  1  0
 34 36  1  0
 35 37  1  0
 36 42  1  6
 20 21  2  0
 21 22  1  0
M  CHG  2   2  -1  26  -1
M  END
>  <COMPND>  (4) 
    8629 

>  <AUTHOR>  (4) 
    GENERATED BY OPEN BABEL 3.1.1

>  <MASTER>  (4) 
        0    0    0    0    0    0    0    0   58    0   58    0

>  <minimizedAffinity>  (4) 
-6.78560

>  <CNNscore>  (4) 
0.9099804759

>  <CNNaffinity>  (4) 
4.6205062866

>  <CNN_VS>  (4) 
4.2045702934

>  <CNNaffinity_variance>  (4) 
0.2713733017

$$$$
5
     RDKit          3D

 43 45  0  0  0  0  0  0  0  0999 V2000
   22.7682   72.3321   -4.0471 P   0  0  2  0  0  0  0  0  0  0  0  0
   23.2087   73.2212   -5.3250 O   0  0  0  0  0  0  0  0  0  0  0  0
   23.8656   71.5089   -3.4393 O   0  0  0  0  0  0  0  0  0  0  0  0
   21.4800   71.5068   -4.5736 O   0  0  0  0  0  0  0  0  0  0  0  0
   20.8607   70.5860   -3.6926 C   0  0  0  0  0  0  0  0  0  0  0  0
   18.9311   71.6600   -4.6397 O   0  0  0  0  0  0  0  0  0  0  0  0
   17.3660   70.3875   -2.4212 O   0  0  0  0  0  0  0  0  0  0  0  0
   16.8252   68.7586   -4.5403 O   0  0  0  0  0  0  0  0  0  0  0  0
   18.4794   69.8732   -3.1501 C   0  0  1  0  0  0  0  0  0  0  0  0
   18.0510   69.4616   -4.5431 C   0  0  2  0  0  0  0  0  0  0  0  0
   19.4271   71.0309   -3.4378 C   0  0  1  0  0  0  0  0  0  0  0  0
   17.9545   70.8019   -5.2520 C   0  0  2  0  0  0  0  0  0  0  0  0
   16.7468   69.6662   -2.2255 H   0  0  0  0  0  0  0  0  0  0  0  0
   16.9382   67.9133   -4.0782 H   0  0  0  0  0  0  0  0  0  0  0  0
   16.0388   70.1524   -7.2233 O   0  0  0  0  0  0  0  0  0  0  0  0
   19.1546   70.4403  -10.6072 O   0  0  0  0  0  0  0  0  0  0  0  0
   18.2376   70.7006   -6.6559 N   0  0  0  0  0  0  0  0  0  0  0  0
   17.5917   70.2964   -8.9067 N   0  0  0  0  0  0  0  0  0  0  0  0
   17.2043   70.3675   -7.5625 C   0  0  0  0  0  0  0  0  0  0  0  0
   19.5278   70.9308   -7.1211 C   0  0  0  0  0  0  0  0  0  0  0  0
   19.8811   70.8578   -8.4060 C   0  0  0  0  0  0  0  0  0  0  0  0
   18.8611   70.5153   -9.4181 C   0  0  0  0  0  0  0  0  0  0  0  0
   16.8886   70.0655   -9.5564 H   0  0  0  0  0  0  0  0  0  0  0  0
   22.1168   73.4256   -3.0507 O   0  0  0  0  0  0  0  0  0  0  0  0
   22.8034   74.4669   -2.0224 P   0  0  2  0  0  0  0  0  0  0  0  0
   21.8016   75.7368   -2.0562 O   0  0  0  0  0  0  0  0  0  0  0  0
   24.2324   74.7967   -2.3433 O   0  0  0  0  0  0  0  0  0  0  0  0
   22.5795   73.8097   -0.5654 O   0  0  0  0  0  0  0  0  0  0  0  0
   23.3181   71.6049   -0.1072 O   0  0  0  0  0  0  0  0  0  0  0  0
   20.4337   71.9576    2.8266 O   0  0  0  0  0  0  0  0  0  0  0  0
   23.2111   72.0010    3.5562 O   0  0  0  0  0  0  0  0  0  0  0  0
   19.9763   73.1014    0.2070 O   0  0  0  0  0  0  0  0  0  0  0  0
   21.4766   72.4175    1.9628 C   0  0  1  0  0  0  0  0  0  0  0  0
   22.7418   71.6131    2.2679 C   0  0  1  0  0  0  0  0  0  0  0  0
   21.0478   72.2148    0.5107 C   0  0  2  0  0  0  0  0  0  0  0  0
   23.8241   71.8597    1.2083 C   0  0  1  0  0  0  0  0  0  0  0  0
   22.2108   72.4372   -0.4579 C   0  0  1  0  0  0  0  0  0  0  0  0
   20.6995   72.0839    3.7501 H   0  0  0  0  0  0  0  0  0  0  0  0
   22.5181   71.8406    4.2159 H   0  0  0  0  0  0  0  0  0  0  0  0
   19.2463   72.9505    0.8269 H   0  0  0  0  0  0  0  0  0  0  0  0
   24.7503   70.0440    2.4551 O   0  0  0  0  0  0  0  0  0  0  0  0
   25.0346   70.9496    1.4047 C   0  0  0  0  0  0  0  0  0  0  0  0
   25.5119   69.4582    2.5911 H   0  0  0  0  0  0  0  0  0  0  0  0
 25 28  1  0
 25 24  1  0
 25 26  1  1
 25 27  2  0
  1  4  1  0
  1 24  1  0
  1  2  1  6
  1  3  2  0
  6 11  1  0
  6 12  1  0
 29 36  1  0
 29 37  1  0
  9  7  1  1
  7 13  1  0
 10  8  1  1
  8 14  1  0
 37 28  1  1
  4  5  1  0
 33 30  1  1
 30 38  1  0
 34 31  1  1
 31 39  1  0
 35 32  1  6
 32 40  1  0
 41 42  1  0
 41 43  1  0
 15 19  2  0
 16 22  2  0
 12 17  1  6
 17 19  1  0
 17 20  1  0
 18 19  1  0
 18 22  1  0
 18 23  1  0
  9 10  1  0
  9 11  1  0
 10 12  1  0
 11  5  1  6
 33 34  1  0
 33 35  1  0
 34 36  1  0
 35 37  1  0
 36 42  1  1
 20 21  2  0
 21 22  1  0
M  CHG  2   2  -1  26  -1
M  END
>  <COMPND>  (5) 
    8629 

>  <AUTHOR>  (5) 
    GENERATED BY OPEN BABEL 3.1.1

>  <MASTER>  (5) 
        0    0    0    0    0    0    0    0   58    0   58    0

>  <minimizedAffinity>  (5) 
-7.72163

>  <CNNscore>  (5) 
0.8771379590

>  <CNNaffinity>  (5) 
4.7568740845

>  <CNN_VS>  (5) 
4.1724348068

>  <CNNaffinity_variance>  (5) 
0.0544552803

$$$$
6
     RDKit          3D

 43 45  0  0  0  0  0  0  0  0999 V2000
   21.7753   72.4292   -4.7015 P   0  0  2  0  0  0  0  0  0  0  0  0
   20.9391   73.8129   -4.7628 O   0  0  0  0  0  0  0  0  0  0  0  0
   22.9299   72.3437   -5.6559 O   0  0  0  0  0  0  0  0  0  0  0  0
   20.6437   71.2841   -4.8633 O   0  0  0  0  0  0  0  0  0  0  0  0
   20.0349   70.7652   -3.6937 C   0  0  0  0  0  0  0  0  0  0  0  0
   18.2506   71.7833   -4.9401 O   0  0  0  0  0  0  0  0  0  0  0  0
   16.3969   70.5624   -2.9242 O   0  0  0  0  0  0  0  0  0  0  0  0
   16.1760   68.8596   -5.0428 O   0  0  0  0  0  0  0  0  0  0  0  0
   17.6066   70.0395   -3.4704 C   0  0  1  0  0  0  0  0  0  0  0  0
   17.3838   69.5780   -4.8955 C   0  0  2  0  0  0  0  0  0  0  0  0
   18.5760   71.1995   -3.6596 C   0  0  1  0  0  0  0  0  0  0  0  0
   17.3780   70.8935   -5.6554 C   0  0  2  0  0  0  0  0  0  0  0  0
   15.7621   69.8398   -2.7942 H   0  0  0  0  0  0  0  0  0  0  0  0
   16.2291   68.0311   -4.5412 H   0  0  0  0  0  0  0  0  0  0  0  0
   15.7726   70.1312   -7.8507 O   0  0  0  0  0  0  0  0  0  0  0  0
   19.3291   70.3774  -10.7717 O   0  0  0  0  0  0  0  0  0  0  0  0
   17.8584   70.7510   -7.0009 N   0  0  0  0  0  0  0  0  0  0  0  0
   17.5447   70.2546   -9.3034 N   0  0  0  0  0  0  0  0  0  0  0  0
   16.9700   70.3623   -8.0305 C   0  0  0  0  0  0  0  0  0  0  0  0
   19.1968   70.9959   -7.2884 C   0  0  0  0  0  0  0  0  0  0  0  0
   19.7294   70.8874   -8.5074 C   0  0  0  0  0  0  0  0  0  0  0  0
   18.8692   70.4861   -9.6392 C   0  0  0  0  0  0  0  0  0  0  0  0
   16.9449   69.9848  -10.0364 H   0  0  0  0  0  0  0  0  0  0  0  0
   22.1827   72.3195   -3.1411 O   0  0  0  0  0  0  0  0  0  0  0  0
   23.6208   72.1172   -2.4312 P   0  0  2  0  0  0  0  0  0  0  0  0
   24.2735   73.5965   -2.4869 O   0  0  0  0  0  0  0  0  0  0  0  0
   24.4672   71.0432   -3.0507 O   0  0  0  0  0  0  0  0  0  0  0  0
   23.2770   71.8818   -0.8719 O   0  0  0  0  0  0  0  0  0  0  0  0
   22.9951   73.7585    0.5477 O   0  0  0  0  0  0  0  0  0  0  0  0
   23.7827   70.8828    3.4044 O   0  0  0  0  0  0  0  0  0  0  0  0
   21.1162   71.9125    3.1266 O   0  0  0  0  0  0  0  0  0  0  0  0
   25.2037   70.8404    0.8827 O   0  0  0  0  0  0  0  0  0  0  0  0
   23.2487   71.3893    2.1781 C   0  0  1  0  0  0  0  0  0  0  0  0
   22.2567   72.5053    2.5118 C   0  0  1  0  0  0  0  0  0  0  0  0
   24.3925   71.9256    1.3194 C   0  0  2  0  0  0  0  0  0  0  0  0
   21.8441   73.2752    1.2501 C   0  0  1  0  0  0  0  0  0  0  0  0
   23.8734   72.7167    0.1174 C   0  0  1  0  0  0  0  0  0  0  0  0
   23.0617   70.5403    3.9541 H   0  0  0  0  0  0  0  0  0  0  0  0
   21.3905   71.4290    3.9217 H   0  0  0  0  0  0  0  0  0  0  0  0
   25.5263   70.3477    1.6528 H   0  0  0  0  0  0  0  0  0  0  0  0
   19.6323   74.0677    1.6848 O   0  0  0  0  0  0  0  0  0  0  0  0
   20.9793   74.4903    1.5787 C   0  0  0  0  0  0  0  0  0  0  0  0
   19.0703   74.8306    1.8941 H   0  0  0  0  0  0  0  0  0  0  0  0
 25 28  1  0
 25 24  1  0
 25 26  1  1
 25 27  2  0
  1  4  1  0
  1 24  1  0
  1  2  1  1
  1  3  2  0
  6 11  1  0
  6 12  1  0
 29 36  1  0
 29 37  1  0
  9  7  1  6
  7 13  1  0
 10  8  1  1
  8 14  1  0
 37 28  1  6
  4  5  1  0
 33 30  1  1
 30 38  1  0
 34 31  1  6
 31 39  1  0
 35 32  1  6
 32 40  1  0
 41 42  1  0
 41 43  1  0
 15 19  2  0
 16 22  2  0
 12 17  1  6
 17 19  1  0
 17 20  1  0
 18 19  1  0
 18 22  1  0
 18 23  1  0
  9 10  1  0
  9 11  1  0
 10 12  1  0
 11  5  1  6
 33 34  1  0
 33 35  1  0
 34 36  1  0
 35 37  1  0
 36 42  1  1
 20 21  2  0
 21 22  1  0
M  CHG  2   2  -1  26  -1
M  END
>  <COMPND>  (6) 
    8629 

>  <AUTHOR>  (6) 
    GENERATED BY OPEN BABEL 3.1.1

>  <MASTER>  (6) 
        0    0    0    0    0    0    0    0   58    0   58    0

>  <minimizedAffinity>  (6) 
-7.67774

>  <CNNscore>  (6) 
0.8751701117

>  <CNNaffinity>  (6) 
4.6908454895

>  <CNN_VS>  (6) 
4.1052875519

>  <CNNaffinity_variance>  (6) 
0.0417202897

$$$$
7
     RDKit          3D

 43 45  0  0  0  0  0  0  0  0999 V2000
   21.8232   72.5394   -5.4432 P   0  0  2  0  0  0  0  0  0  0  0  0
   21.1946   74.0014   -5.1514 O   0  0  0  0  0  0  0  0  0  0  0  0
   23.0941   72.5437   -6.2407 O   0  0  0  0  0  0  0  0  0  0  0  0
   20.5927   71.7089   -6.0866 O   0  0  0  0  0  0  0  0  0  0  0  0
   20.1999   72.0035   -7.4158 C   0  0  0  0  0  0  0  0  0  0  0  0
   18.9587   70.0000   -6.9479 O   0  0  0  0  0  0  0  0  0  0  0  0
   18.2111   70.0085   -9.8516 O   0  0  0  0  0  0  0  0  0  0  0  0
   15.9772   71.0213   -8.6598 O   0  0  0  0  0  0  0  0  0  0  0  0
   18.3880   71.1099   -8.9623 C   0  0  1  0  0  0  0  0  0  0  0  0
   17.2167   71.2081   -8.0074 C   0  0  2  0  0  0  0  0  0  0  0  0
   19.5381   70.7733   -8.0214 C   0  0  1  0  0  0  0  0  0  0  0  0
   17.5268   70.1017   -7.0135 C   0  0  2  0  0  0  0  0  0  0  0  0
   17.4819   70.2004  -10.4627 H   0  0  0  0  0  0  0  0  0  0  0  0
   15.8257   71.7505   -9.2812 H   0  0  0  0  0  0  0  0  0  0  0  0
   16.3811   68.1760   -5.2939 O   0  0  0  0  0  0  0  0  0  0  0  0
   15.6102   71.3076   -2.0014 O   0  0  0  0  0  0  0  0  0  0  0  0
   17.0189   70.3861   -5.7011 N   0  0  0  0  0  0  0  0  0  0  0  0
   15.9984   69.7368   -3.6558 N   0  0  0  0  0  0  0  0  0  0  0  0
   16.4626   69.3475   -4.9187 C   0  0  0  0  0  0  0  0  0  0  0  0
   17.0756   71.6830   -5.2022 C   0  0  0  0  0  0  0  0  0  0  0  0
   16.6274   72.0380   -3.9962 C   0  0  0  0  0  0  0  0  0  0  0  0
   16.0314   71.0127   -3.1156 C   0  0  0  0  0  0  0  0  0  0  0  0
   15.6063   69.0301   -3.0932 H   0  0  0  0  0  0  0  0  0  0  0  0
   21.9589   71.9005   -3.9645 O   0  0  0  0  0  0  0  0  0  0  0  0
   23.1351   72.0168   -2.8618 P   0  0  2  0  0  0  0  0  0  0  0  0
   23.6662   73.5340   -3.0444 O   0  0  0  0  0  0  0  0  0  0  0  0
   24.2019   70.9679   -2.9870 O   0  0  0  0  0  0  0  0  0  0  0  0
   22.3657   72.0222   -1.4430 O   0  0  0  0  0  0  0  0  0  0  0  0
   24.0554   72.0987    0.2171 O   0  0  0  0  0  0  0  0  0  0  0  0
   20.7319   71.9644    2.6641 O   0  0  0  0  0  0  0  0  0  0  0  0
   22.2155   74.4113    2.4206 O   0  0  0  0  0  0  0  0  0  0  0  0
   20.7945   70.4040    0.2267 O   0  0  0  0  0  0  0  0  0  0  0  0
   21.4796   72.3296    1.5009 C   0  0  1  0  0  0  0  0  0  0  0  0
   22.6890   73.1535    1.9475 C   0  0  1  0  0  0  0  0  0  0  0  0
   21.9302   71.0614    0.7785 C   0  0  2  0  0  0  0  0  0  0  0  0
   23.6789   73.3554    0.7922 C   0  0  1  0  0  0  0  0  0  0  0  0
   22.9502   71.3688   -0.3193 C   0  0  1  0  0  0  0  0  0  0  0  0
   20.4425   72.7652    3.1271 H   0  0  0  0  0  0  0  0  0  0  0  0
   21.5911   74.2697    3.1495 H   0  0  0  0  0  0  0  0  0  0  0  0
   20.1565   70.2146    0.9316 H   0  0  0  0  0  0  0  0  0  0  0  0
   25.2220   73.6544    2.5917 O   0  0  0  0  0  0  0  0  0  0  0  0
   24.9647   74.0380    1.2535 C   0  0  0  0  0  0  0  0  0  0  0  0
   26.0377   74.0811    2.8986 H   0  0  0  0  0  0  0  0  0  0  0  0
 25 28  1  0
 25 24  1  0
 25 26  1  6
 25 27  2  0
  1  4  1  0
  1 24  1  0
  1  2  1  1
  1  3  2  0
  6 11  1  0
  6 12  1  0
 29 36  1  0
 29 37  1  0
  9  7  1  6
  7 13  1  0
 10  8  1  6
  8 14  1  0
 37 28  1  6
  4  5  1  0
 33 30  1  1
 30 38  1  0
 34 31  1  6
 31 39  1  0
 35 32  1  6
 32 40  1  0
 41 42  1  0
 41 43  1  0
 15 19  2  0
 16 22  2  0
 12 17  1  1
 17 19  1  0
 17 20  1  0
 18 19  1  0
 18 22  1  0
 18 23  1  0
  9 10  1  0
  9 11  1  0
 10 12  1  0
 11  5  1  1
 33 34  1  0
 33 35  1  0
 34 36  1  0
 35 37  1  0
 36 42  1  1
 20 21  2  0
 21 22  1  0
M  CHG  2   2  -1  26  -1
M  END
>  <COMPND>  (7) 
    8629 

>  <AUTHOR>  (7) 
    GENERATED BY OPEN BABEL 3.1.1

>  <MASTER>  (7) 
        0    0    0    0    0    0    0    0   58    0   58    0

>  <minimizedAffinity>  (7) 
-7.91629

>  <CNNscore>  (7) 
0.8310393691

>  <CNNaffinity>  (7) 
4.5737900734

>  <CNN_VS>  (7) 
3.8009996414

>  <CNNaffinity_variance>  (7) 
0.1969313622

$$$$
8
     RDKit          3D

 43 45  0  0  0  0  0  0  0  0999 V2000
   23.1099   71.7764   -3.2158 P   0  0  2  0  0  0  0  0  0  0  0  0
   22.7848   72.1535   -4.7551 O   0  0  0  0  0  0  0  0  0  0  0  0
   24.3525   70.9605   -3.0120 O   0  0  0  0  0  0  0  0  0  0  0  0
   21.7361   71.1099   -2.6807 O   0  0  0  0  0  0  0  0  0  0  0  0
   20.8367   70.5615   -3.6284 C   0  0  0  0  0  0  0  0  0  0  0  0
   19.0333   71.8572   -4.5463 O   0  0  0  0  0  0  0  0  0  0  0  0
   17.3122   70.6175   -2.4269 O   0  0  0  0  0  0  0  0  0  0  0  0
   16.6708   69.1605   -4.6410 O   0  0  0  0  0  0  0  0  0  0  0  0
   18.3895   70.0427   -3.1648 C   0  0  1  0  0  0  0  0  0  0  0  0
   17.9551   69.7471   -4.5852 C   0  0  2  0  0  0  0  0  0  0  0  0
   19.4444   71.1221   -3.3729 C   0  0  1  0  0  0  0  0  0  0  0  0
   17.9960   71.1265   -5.2207 C   0  0  2  0  0  0  0  0  0  0  0  0
   16.6260   69.9468   -2.2814 H   0  0  0  0  0  0  0  0  0  0  0  0
   16.6966   68.2851   -4.2244 H   0  0  0  0  0  0  0  0  0  0  0  0
   16.6120   72.5821   -7.2066 O   0  0  0  0  0  0  0  0  0  0  0  0
   19.2425   70.8481  -10.5703 O   0  0  0  0  0  0  0  0  0  0  0  0
   18.2985   71.0746   -6.6233 N   0  0  0  0  0  0  0  0  0  0  0  0
   17.9230   71.7177   -8.8798 N   0  0  0  0  0  0  0  0  0  0  0  0
   17.5421   71.8440   -7.5378 C   0  0  0  0  0  0  0  0  0  0  0  0
   19.3352   70.2676   -7.0792 C   0  0  0  0  0  0  0  0  0  0  0  0
   19.6850   70.1572   -8.3625 C   0  0  0  0  0  0  0  0  0  0  0  0
   18.9451   70.9281   -9.3824 C   0  0  0  0  0  0  0  0  0  0  0  0
   17.4100   72.2442   -9.5350 H   0  0  0  0  0  0  0  0  0  0  0  0
   23.1237   73.2175   -2.4837 O   0  0  0  0  0  0  0  0  0  0  0  0
   22.3442   74.5910   -2.8286 P   0  0  2  0  0  0  0  0  0  0  0  0
   22.6837   75.5385   -1.5619 O   0  0  0  0  0  0  0  0  0  0  0  0
   20.8772   74.4156   -3.0952 O   0  0  0  0  0  0  0  0  0  0  0  0
   23.1744   75.2352   -4.0537 O   0  0  0  0  0  0  0  0  0  0  0  0
   25.2229   76.3715   -3.6944 O   0  0  0  0  0  0  0  0  0  0  0  0
   24.1277   78.1034   -7.2794 O   0  0  0  0  0  0  0  0  0  0  0  0
   26.2857   76.2093   -7.2205 O   0  0  0  0  0  0  0  0  0  0  0  0
   22.1153   77.5263   -5.2802 O   0  0  0  0  0  0  0  0  0  0  0  0
   24.2336   77.0467   -6.3214 C   0  0  1  0  0  0  0  0  0  0  0  0
   25.7176   76.7918   -6.0507 C   0  0  1  0  0  0  0  0  0  0  0  0
   23.5167   77.4626   -5.0383 C   0  0  2  0  0  0  0  0  0  0  0  0
   25.9091   75.8628   -4.8443 C   0  0  1  0  0  0  0  0  0  0  0  0
   23.8128   76.4986   -3.8880 C   0  0  1  0  0  0  0  0  0  0  0  0
   24.5804   77.8455   -8.0967 H   0  0  0  0  0  0  0  0  0  0  0  0
   26.1576   76.8056   -7.9749 H   0  0  0  0  0  0  0  0  0  0  0  0
   21.9409   78.1399   -6.0102 H   0  0  0  0  0  0  0  0  0  0  0  0
   27.9856   74.7873   -5.3345 O   0  0  0  0  0  0  0  0  0  0  0  0
   27.3801   75.7211   -4.4594 C   0  0  0  0  0  0  0  0  0  0  0  0
   28.9223   74.6871   -5.1016 H   0  0  0  0  0  0  0  0  0  0  0  0
 25 28  1  0
 25 24  1  0
 25 26  1  1
 25 27  2  0
  1  4  1  0
  1 24  1  0
  1  2  1  6
  1  3  2  0
  6 11  1  0
  6 12  1  0
 29 36  1  0
 29 37  1  0
  9  7  1  1
  7 13  1  0
 10  8  1  1
  8 14  1  0
 37 28  1  6
  4  5  1  0
 33 30  1  6
 30 38  1  0
 34 31  1  6
 31 39  1  0
 35 32  1  6
 32 40  1  0
 41 42  1  0
 41 43  1  0
 15 19  2  0
 16 22  2  0
 12 17  1  6
 17 19  1  0
 17 20  1  0
 18 19  1  0
 18 22  1  0
 18 23  1  0
  9 10  1  0
  9 11  1  0
 10 12  1  0
 11  5  1  6
 33 34  1  0
 33 35  1  0
 34 36  1  0
 35 37  1  0
 36 42  1  1
 20 21  2  0
 21 22  1  0
M  CHG  2   2  -1  26  -1
M  END
>  <COMPND>  (8) 
    8629 

>  <AUTHOR>  (8) 
    GENERATED BY OPEN BABEL 3.1.1

>  <MASTER>  (8) 
        0    0    0    0    0    0    0    0   58    0   58    0

>  <minimizedAffinity>  (8) 
-6.32292

>  <CNNscore>  (8) 
0.7373183370

>  <CNNaffinity>  (8) 
4.4720778465

>  <CNN_VS>  (8) 
3.2973449230

>  <CNNaffinity_variance>  (8) 
0.2209444046

$$$$
9
     RDKit          3D

 43 45  0  0  0  0  0  0  0  0999 V2000
   22.3988   73.4821   -4.7170 P   0  0  2  0  0  0  0  0  0  0  0  0
   22.3182   74.9174   -5.4592 O   0  0  0  0  0  0  0  0  0  0  0  0
   23.4360   72.5444   -5.2613 O   0  0  0  0  0  0  0  0  0  0  0  0
   20.8745   72.9406   -4.7519 O   0  0  0  0  0  0  0  0  0  0  0  0
   20.5163   71.8730   -3.8918 C   0  0  0  0  0  0  0  0  0  0  0  0
   18.3869   72.1877   -4.9596 O   0  0  0  0  0  0  0  0  0  0  0  0
   17.2046   70.7590   -2.6033 O   0  0  0  0  0  0  0  0  0  0  0  0
   17.2626   68.8116   -4.5114 O   0  0  0  0  0  0  0  0  0  0  0  0
   18.4473   70.5312   -3.2661 C   0  0  1  0  0  0  0  0  0  0  0  0
   18.2152   69.8516   -4.5994 C   0  0  2  0  0  0  0  0  0  0  0  0
   19.0071   71.8829   -3.6912 C   0  0  1  0  0  0  0  0  0  0  0  0
   17.7408   71.0074   -5.4639 C   0  0  2  0  0  0  0  0  0  0  0  0
   16.8279   69.9099   -2.3221 H   0  0  0  0  0  0  0  0  0  0  0  0
   17.6109   68.1004   -3.9514 H   0  0  0  0  0  0  0  0  0  0  0  0
   15.9130   70.3077   -7.5004 O   0  0  0  0  0  0  0  0  0  0  0  0
   19.2004   70.3834  -10.7298 O   0  0  0  0  0  0  0  0  0  0  0  0
   18.0919   70.8379   -6.8457 N   0  0  0  0  0  0  0  0  0  0  0  0
   17.5513   70.3461   -9.1067 N   0  0  0  0  0  0  0  0  0  0  0  0
   17.0985   70.4847   -7.7885 C   0  0  0  0  0  0  0  0  0  0  0  0
   19.4085   71.0219   -7.2538 C   0  0  0  0  0  0  0  0  0  0  0  0
   19.8243   70.8847   -8.5146 C   0  0  0  0  0  0  0  0  0  0  0  0
   18.8492   70.5172   -9.5616 C   0  0  0  0  0  0  0  0  0  0  0  0
   16.8769   70.1001   -9.7809 H   0  0  0  0  0  0  0  0  0  0  0  0
   22.6052   73.8864   -3.1655 O   0  0  0  0  0  0  0  0  0  0  0  0
   23.6826   74.8611   -2.4569 P   0  0  2  0  0  0  0  0  0  0  0  0
   22.7681   76.0582   -1.8669 O   0  0  0  0  0  0  0  0  0  0  0  0
   24.7898   75.3164   -3.3627 O   0  0  0  0  0  0  0  0  0  0  0  0
   24.1765   74.0457   -1.1545 O   0  0  0  0  0  0  0  0  0  0  0  0
   22.3583   73.1529    0.0758 O   0  0  0  0  0  0  0  0  0  0  0  0
   25.3996   72.4270    2.7729 O   0  0  0  0  0  0  0  0  0  0  0  0
   24.2359   70.2368    1.3248 O   0  0  0  0  0  0  0  0  0  0  0  0
   25.3879   74.8797    1.2355 O   0  0  0  0  0  0  0  0  0  0  0  0
   24.8114   72.5535    1.4754 C   0  0  1  0  0  0  0  0  0  0  0  0
   23.6678   71.5429    1.3668 C   0  0  1  0  0  0  0  0  0  0  0  0
   24.2883   73.9781    1.3013 C   0  0  2  0  0  0  0  0  0  0  0  0
   22.8207   71.7977    0.1128 C   0  0  1  0  0  0  0  0  0  0  0  0
   23.4179   74.1112    0.0503 C   0  0  1  0  0  0  0  0  0  0  0  0
   25.7342   71.5248    2.8897 H   0  0  0  0  0  0  0  0  0  0  0  0
   24.7687   70.0889    2.1220 H   0  0  0  0  0  0  0  0  0  0  0  0
   25.9309   74.7860    2.0331 H   0  0  0  0  0  0  0  0  0  0  0  0
   21.4230   70.2929    1.3339 O   0  0  0  0  0  0  0  0  0  0  0  0
   21.5839   70.9030    0.0666 C   0  0  0  0  0  0  0  0  0  0  0  0
   20.6394   69.7207    1.3195 H   0  0  0  0  0  0  0  0  0  0  0  0
 25 28  1  0
 25 24  1  0
 25 26  1  1
 25 27  2  0
  1  4  1  0
  1 24  1  0
  1  2  1  6
  1  3  2  0
  6 11  1  0
  6 12  1  0
 29 36  1  0
 29 37  1  0
  9  7  1  6
  7 13  1  0
 10  8  1  1
  8 14  1  0
 37 28  1  6
  4  5  1  0
 33 30  1  1
 30 38  1  0
 34 31  1  6
 31 39  1  0
 35 32  1  6
 32 40  1  0
 41 42  1  0
 41 43  1  0
 15 19  2  0
 16 22  2  0
 12 17  1  6
 17 19  1  0
 17 20  1  0
 18 19  1  0
 18 22  1  0
 18 23  1  0
  9 10  1  0
  9 11  1  0
 10 12  1  0
 11  5  1  6
 33 34  1  0
 33 35  1  0
 34 36  1  0
 35 37  1  0
 36 42  1  1
 20 21  2  0
 21 22  1  0
M  CHG  2   2  -1  26  -1
M  END
>  <COMPND>  (9) 
    8629 

>  <AUTHOR>  (9) 
    GENERATED BY OPEN BABEL 3.1.1

>  <MASTER>  (9) 
        0    0    0    0    0    0    0    0   58    0   58    0

>  <minimizedAffinity>  (9) 
-7.08133

>  <CNNscore>  (9) 
0.6573755741

>  <CNNaffinity>  (9) 
4.3968267441

>  <CNN_VS>  (9) 
2.8903665543

>  <CNNaffinity_variance>  (9) 
0.0343137980

$$$$
10
     RDKit          3D

 43 45  0  0  0  0  0  0  0  0999 V2000
   23.1013   71.7174   -2.5697 P   0  0  2  0  0  0  0  0  0  0  0  0
   23.2821   73.2954   -2.2622 O   0  0  0  0  0  0  0  0  0  0  0  0
   24.3215   71.0337   -3.1129 O   0  0  0  0  0  0  0  0  0  0  0  0
   21.7838   71.6527   -3.5067 O   0  0  0  0  0  0  0  0  0  0  0  0
   21.6531   72.5965   -4.5556 C   0  0  0  0  0  0  0  0  0  0  0  0
   20.7934   70.6596   -5.6882 O   0  0  0  0  0  0  0  0  0  0  0  0
   21.3191   72.1482   -8.2374 O   0  0  0  0  0  0  0  0  0  0  0  0
   18.6323   72.4733   -7.9026 O   0  0  0  0  0  0  0  0  0  0  0  0
   20.8739   72.6466   -6.9770 C   0  0  1  0  0  0  0  0  0  0  0  0
   19.4232   72.2769   -6.7481 C   0  0  2  0  0  0  0  0  0  0  0  0
   21.5802   71.8551   -5.8834 C   0  0  1  0  0  0  0  0  0  0  0  0
   19.5293   70.8135   -6.3541 C   0  0  2  0  0  0  0  0  0  0  0  0
   20.8818   72.6388   -8.9516 H   0  0  0  0  0  0  0  0  0  0  0  0
   18.5954   73.4195   -8.1123 H   0  0  0  0  0  0  0  0  0  0  0  0
   17.0003   69.8715   -7.1876 O   0  0  0  0  0  0  0  0  0  0  0  0
   15.5802   69.2917   -2.8415 O   0  0  0  0  0  0  0  0  0  0  0  0
   18.4799   70.4091   -5.4616 N   0  0  0  0  0  0  0  0  0  0  0  0
   16.2953   69.5834   -5.0229 N   0  0  0  0  0  0  0  0  0  0  0  0
   17.2468   69.9522   -5.9824 C   0  0  0  0  0  0  0  0  0  0  0  0
   18.6787   70.4675   -4.0865 C   0  0  0  0  0  0  0  0  0  0  0  0
   17.7607   70.1134   -3.1847 C   0  0  0  0  0  0  0  0  0  0  0  0
   16.4452   69.6247   -3.6457 C   0  0  0  0  0  0  0  0  0  0  0  0
   15.4285   69.2623   -5.3624 H   0  0  0  0  0  0  0  0  0  0  0  0
   22.5731   71.1304   -1.1592 O   0  0  0  0  0  0  0  0  0  0  0  0
   21.5111   71.7223   -0.0940 P   0  0  2  0  0  0  0  0  0  0  0  0
   20.9832   70.4014    0.6767 O   0  0  0  0  0  0  0  0  0  0  0  0
   20.4244   72.5570   -0.7075 O   0  0  0  0  0  0  0  0  0  0  0  0
   22.4145   72.4968    0.9963 O   0  0  0  0  0  0  0  0  0  0  0  0
   24.2684   71.9601    2.3717 O   0  0  0  0  0  0  0  0  0  0  0  0
   21.8924   73.8462    5.1733 O   0  0  0  0  0  0  0  0  0  0  0  0
   24.2428   75.1688    4.1862 O   0  0  0  0  0  0  0  0  0  0  0  0
   20.6868   72.1310    3.1772 O   0  0  0  0  0  0  0  0  0  0  0  0
   22.4462   73.6211    3.8740 C   0  0  1  0  0  0  0  0  0  0  0  0
   23.9642   73.7892    3.9640 C   0  0  1  0  0  0  0  0  0  0  0  0
   22.0879   72.2083    3.4166 C   0  0  2  0  0  0  0  0  0  0  0  0
   24.6523   73.3051    2.6806 C   0  0  1  0  0  0  0  0  0  0  0  0
   22.8634   71.8077    2.1603 C   0  0  1  0  0  0  0  0  0  0  0  0
   22.1159   74.7417    5.4693 H   0  0  0  0  0  0  0  0  0  0  0  0
   23.8022   75.4620    4.9993 H   0  0  0  0  0  0  0  0  0  0  0  0
   20.2071   72.3867    3.9800 H   0  0  0  0  0  0  0  0  0  0  0  0
   26.6282   74.6482    2.6519 O   0  0  0  0  0  0  0  0  0  0  0  0
   26.1740   73.3164    2.8083 C   0  0  0  0  0  0  0  0  0  0  0  0
   27.5951   74.6708    2.7311 H   0  0  0  0  0  0  0  0  0  0  0  0
 25 28  1  0
 25 24  1  0
 25 26  1  1
 25 27  2  0
  1  4  1  0
  1 24  1  0
  1  2  1  1
  1  3  2  0
  6 11  1  0
  6 12  1  0
 29 36  1  0
 29 37  1  0
  9  7  1  6
  7 13  1  0
 10  8  1  6
  8 14  1  0
 37 28  1  6
  4  5  1  0
 33 30  1  1
 30 38  1  0
 34 31  1  6
 31 39  1  0
 35 32  1  6
 32 40  1  0
 41 42  1  0
 41 43  1  0
 15 19  2  0
 16 22  2  0
 12 17  1  1
 17 19  1  0
 17 20  1  0
 18 19  1  0
 18 22  1  0
 18 23  1  0
  9 10  1  0
  9 11  1  0
 10 12  1  0
 11  5  1  1
 33 34  1  0
 33 35  1  0
 34 36  1  0
 35 37  1  0
 36 42  1  1
 20 21  2  0
 21 22  1  0
M  CHG  2   2  -1  26  -1
M  END
>  <COMPND>  (10) 
    8629 

>  <AUTHOR>  (10) 
    GENERATED BY OPEN BABEL 3.1.1

>  <MASTER>  (10) 
        0    0    0    0    0    0    0    0   58    0   58    0

>  <minimizedAffinity>  (10) 
-7.54971

>  <CNNscore>  (10) 
0.6472240090

>  <CNNaffinity>  (10) 
4.3056383133

>  <CNN_VS>  (10) 
2.7867124081

>  <CNNaffinity_variance>  (10) 
0.2215976715

$$$$
11
     RDKit          3D

 43 45  0  0  0  0  0  0  0  0999 V2000
   23.4926   72.2631   -3.4734 P   0  0  2  0  0  0  0  0  0  0  0  0
   24.1074   70.7915   -3.2015 O   0  0  0  0  0  0  0  0  0  0  0  0
   24.4391   73.2375   -4.1106 O   0  0  0  0  0  0  0  0  0  0  0  0
   22.8914   72.7042   -2.0375 O   0  0  0  0  0  0  0  0  0  0  0  0
   22.4044   71.6954   -1.1697 C   0  0  0  0  0  0  0  0  0  0  0  0
   22.9435   73.2944    0.5410 O   0  0  0  0  0  0  0  0  0  0  0  0
   23.1623   70.9518    2.3998 O   0  0  0  0  0  0  0  0  0  0  0  0
   20.6987   71.9567    2.9975 O   0  0  0  0  0  0  0  0  0  0  0  0
   22.2613   71.1605    1.3136 C   0  0  1  0  0  0  0  0  0  0  0  0
   21.2031   72.1743    1.6956 C   0  0  2  0  0  0  0  0  0  0  0  0
   23.0174   71.8903    0.2104 C   0  0  1  0  0  0  0  0  0  0  0  0
   21.9632   73.4841    1.5744 C   0  0  2  0  0  0  0  0  0  0  0  0
   22.7021   70.4869    3.1167 H   0  0  0  0  0  0  0  0  0  0  0  0
   20.2236   71.1115    3.0233 H   0  0  0  0  0  0  0  0  0  0  0  0
   20.5111   75.0532    3.4204 O   0  0  0  0  0  0  0  0  0  0  0  0
   18.7216   77.6654    0.0714 O   0  0  0  0  0  0  0  0  0  0  0  0
   21.1103   74.5809    1.2124 N   0  0  0  0  0  0  0  0  0  0  0  0
   19.6214   76.3527    1.7514 N   0  0  0  0  0  0  0  0  0  0  0  0
   20.4249   75.3038    2.2165 C   0  0  0  0  0  0  0  0  0  0  0  0
   20.9604   74.9300   -0.1253 C   0  0  0  0  0  0  0  0  0  0  0  0
   20.1894   75.9321   -0.5525 C   0  0  0  0  0  0  0  0  0  0  0  0
   19.4390   76.7375    0.4326 C   0  0  0  0  0  0  0  0  0  0  0  0
   19.1340   76.8701    2.4329 H   0  0  0  0  0  0  0  0  0  0  0  0
   22.1659   71.9481   -4.3415 O   0  0  0  0  0  0  0  0  0  0  0  0
   20.8055   72.7965   -4.5469 P   0  0  2  0  0  0  0  0  0  0  0  0
   21.3286   74.3260   -4.6141 O   0  0  0  0  0  0  0  0  0  0  0  0
   19.7596   72.5453   -3.4996 O   0  0  0  0  0  0  0  0  0  0  0  0
   20.3373   72.4592   -6.0542 O   0  0  0  0  0  0  0  0  0  0  0  0
   19.4134   70.2792   -5.9508 O   0  0  0  0  0  0  0  0  0  0  0  0
   18.8932   71.0260   -9.9785 O   0  0  0  0  0  0  0  0  0  0  0  0
   16.6143   71.0243   -8.2309 O   0  0  0  0  0  0  0  0  0  0  0  0
   21.2936   71.9345   -8.6398 O   0  0  0  0  0  0  0  0  0  0  0  0
   18.9553   71.3589   -8.5891 C   0  0  1  0  0  0  0  0  0  0  0  0
   17.8977   70.5358   -7.8510 C   0  0  1  0  0  0  0  0  0  0  0  0
   20.3521   71.0375   -8.0607 C   0  0  2  0  0  0  0  0  0  0  0  0
   18.0792   70.6364   -6.3304 C   0  0  1  0  0  0  0  0  0  0  0  0
   20.4112   71.1194   -6.5343 C   0  0  1  0  0  0  0  0  0  0  0  0
   18.0090   71.2281  -10.3203 H   0  0  0  0  0  0  0  0  0  0  0  0
   16.5127   70.9556   -9.1932 H   0  0  0  0  0  0  0  0  0  0  0  0
   21.2465   71.8730   -9.6062 H   0  0  0  0  0  0  0  0  0  0  0  0
   15.9288   70.3927   -5.3179 O   0  0  0  0  0  0  0  0  0  0  0  0
   17.1357   69.7001   -5.5786 C   0  0  0  0  0  0  0  0  0  0  0  0
   15.3184   69.8088   -4.8401 H   0  0  0  0  0  0  0  0  0  0  0  0
 25 28  1  0
 25 24  1  0
 25 26  1  6
 25 27  2  0
  1  4  1  0
  1 24  1  0
  1  2  1  1
  1  3  2  0
  6 11  1  0
  6 12  1  0
 29 36  1  0
 29 37  1  0
  9  7  1  1
  7 13  1  0
 10  8  1  1
  8 14  1  0
 37 28  1  6
  4  5  1  0
 33 30  1  6
 30 38  1  0
 34 31  1  1
 31 39  1  0
 35 32  1  6
 32 40  1  0
 41 42  1  0
 41 43  1  0
 15 19  2  0
 16 22  2  0
 12 17  1  6
 17 19  1  0
 17 20  1  0
 18 19  1  0
 18 22  1  0
 18 23  1  0
  9 10  1  0
  9 11  1  0
 10 12  1  0
 11  5  1  6
 33 34  1  0
 33 35  1  0
 34 36  1  0
 35 37  1  0
 36 42  1  1
 20 21  2  0
 21 22  1  0
M  CHG  2   2  -1  26  -1
M  END
>  <COMPND>  (11) 
    8629 

>  <AUTHOR>  (11) 
    GENERATED BY OPEN BABEL 3.1.1

>  <MASTER>  (11) 
        0    0    0    0    0    0    0    0   58    0   58    0

>  <minimizedAffinity>  (11) 
-6.87564

>  <CNNscore>  (11) 
0.6440440416

>  <CNNaffinity>  (11) 
4.2235174179

>  <CNN_VS>  (11) 
2.7201311588

>  <CNNaffinity_variance>  (11) 
0.0750603825

$$$$
12
     RDKit          3D

 43 45  0  0  0  0  0  0  0  0999 V2000
   16.3426   72.1678   -2.3577 P   0  0  2  0  0  0  0  0  0  0  0  0
   17.2611   72.4497   -1.0560 O   0  0  0  0  0  0  0  0  0  0  0  0
   15.3898   73.2714   -2.7121 O   0  0  0  0  0  0  0  0  0  0  0  0
   15.6688   70.7286   -2.0533 O   0  0  0  0  0  0  0  0  0  0  0  0
   14.8712   70.5878   -0.8907 C   0  0  0  0  0  0  0  0  0  0  0  0
   14.2925   68.5211    0.1899 O   0  0  0  0  0  0  0  0  0  0  0  0
   11.9472   68.4192   -1.6756 O   0  0  0  0  0  0  0  0  0  0  0  0
   10.8245   69.3159    0.6422 O   0  0  0  0  0  0  0  0  0  0  0  0
   12.5543   69.5488   -1.0504 C   0  0  1  0  0  0  0  0  0  0  0  0
   12.1919   69.5942    0.4194 C   0  0  2  0  0  0  0  0  0  0  0  0
   14.0575   69.3055   -0.9999 C   0  0  1  0  0  0  0  0  0  0  0  0
   13.1075   68.5314    1.0027 C   0  0  2  0  0  0  0  0  0  0  0  0
   10.9868   68.5516   -1.7195 H   0  0  0  0  0  0  0  0  0  0  0  0
   10.2834   70.0203    0.2527 H   0  0  0  0  0  0  0  0  0  0  0  0
   13.7792   66.5624    2.9131 O   0  0  0  0  0  0  0  0  0  0  0  0
   14.5054   69.7246    6.1864 O   0  0  0  0  0  0  0  0  0  0  0  0
   13.4764   68.8121    2.3615 N   0  0  0  0  0  0  0  0  0  0  0  0
   14.1404   68.1385    4.5414 N   0  0  0  0  0  0  0  0  0  0  0  0
   13.7945   67.7508    3.2406 C   0  0  0  0  0  0  0  0  0  0  0  0
   13.5204   70.1277    2.8100 C   0  0  0  0  0  0  0  0  0  0  0  0
   13.8510   70.4807    4.0539 C   0  0  0  0  0  0  0  0  0  0  0  0
   14.1974   69.4323    5.0351 C   0  0  0  0  0  0  0  0  0  0  0  0
   14.3656   67.4160    5.1715 H   0  0  0  0  0  0  0  0  0  0  0  0
   17.4306   71.8247   -3.5029 O   0  0  0  0  0  0  0  0  0  0  0  0
   18.8261   72.5426   -3.8905 P   0  0  2  0  0  0  0  0  0  0  0  0
   19.9412   71.5068   -3.3415 O   0  0  0  0  0  0  0  0  0  0  0  0
   18.9664   73.9408   -3.3622 O   0  0  0  0  0  0  0  0  0  0  0  0
   18.9146   72.4227   -5.4976 O   0  0  0  0  0  0  0  0  0  0  0  0
   18.5403   70.1053   -5.8231 O   0  0  0  0  0  0  0  0  0  0  0  0
   18.5872   71.3265   -9.7674 O   0  0  0  0  0  0  0  0  0  0  0  0
   16.1003   70.5686   -8.5471 O   0  0  0  0  0  0  0  0  0  0  0  0
   20.4173   72.5157   -7.8658 O   0  0  0  0  0  0  0  0  0  0  0  0
   18.3168   71.4496   -8.3684 C   0  0  1  0  0  0  0  0  0  0  0  0
   17.3740   70.3158   -7.9606 C   0  0  1  0  0  0  0  0  0  0  0  0
   19.6316   71.3597   -7.5960 C   0  0  2  0  0  0  0  0  0  0  0  0
   17.2499   70.2206   -6.4340 C   0  0  1  0  0  0  0  0  0  0  0  0
   19.3943   71.2191   -6.0914 C   0  0  1  0  0  0  0  0  0  0  0  0
   17.7565   71.3833  -10.2636 H   0  0  0  0  0  0  0  0  0  0  0  0
   16.1927   70.6270   -9.5111 H   0  0  0  0  0  0  0  0  0  0  0  0
   20.5607   72.5932   -8.8214 H   0  0  0  0  0  0  0  0  0  0  0  0
   16.1655   69.1112   -4.6167 O   0  0  0  0  0  0  0  0  0  0  0  0
   16.4407   69.0000   -6.0010 C   0  0  0  0  0  0  0  0  0  0  0  0
   15.6507   68.3413   -4.3271 H   0  0  0  0  0  0  0  0  0  0  0  0
 25 28  1  0
 25 24  1  0
 25 26  1  1
 25 27  2  0
  1  4  1  0
  1 24  1  0
  1  2  1  1
  1  3  2  0
  6 11  1  0
  6 12  1  0
 29 36  1  0
 29 37  1  0
  9  7  1  6
  7 13  1  0
 10  8  1  6
  8 14  1  0
 37 28  1  6
  4  5  1  0
 33 30  1  6
 30 38  1  0
 34 31  1  6
 31 39  1  0
 35 32  1  1
 32 40  1  0
 41 42  1  0
 41 43  1  0
 15 19  2  0
 16 22  2  0
 12 17  1  1
 17 19  1  0
 17 20  1  0
 18 19  1  0
 18 22  1  0
 18 23  1  0
  9 10  1  0
  9 11  1  0
 10 12  1  0
 11  5  1  1
 33 34  1  0
 33 35  1  0
 34 36  1  0
 35 37  1  0
 36 42  1  6
 20 21  2  0
 21 22  1  0
M  CHG  2   2  -1  26  -1
M  END
>  <COMPND>  (12) 
    8629 

>  <AUTHOR>  (12) 
    GENERATED BY OPEN BABEL 3.1.1

>  <MASTER>  (12) 
        0    0    0    0    0    0    0    0   58    0   58    0

>  <minimizedAffinity>  (12) 
-6.32668

>  <CNNscore>  (12) 
0.6119088531

>  <CNNaffinity>  (12) 
4.0012717247

>  <CNN_VS>  (12) 
2.4484136105

>  <CNNaffinity_variance>  (12) 
0.2768222690

$$$$
13
     RDKit          3D

 43 45  0  0  0  0  0  0  0  0999 V2000
   22.3200   72.5975   -4.0615 P   0  0  2  0  0  0  0  0  0  0  0  0
   23.2259   72.3973   -5.3869 O   0  0  0  0  0  0  0  0  0  0  0  0
   21.9423   74.0181   -3.7607 O   0  0  0  0  0  0  0  0  0  0  0  0
   23.1507   71.8311   -2.9038 O   0  0  0  0  0  0  0  0  0  0  0  0
   23.1566   72.3821   -1.5983 C   0  0  0  0  0  0  0  0  0  0  0  0
   23.9288   71.1359    0.3055 O   0  0  0  0  0  0  0  0  0  0  0  0
   21.0558   70.4064    0.7580 O   0  0  0  0  0  0  0  0  0  0  0  0
   21.4582   72.3951    2.5800 O   0  0  0  0  0  0  0  0  0  0  0  0
   21.6112   71.6295    0.2774 C   0  0  1  0  0  0  0  0  0  0  0  0
   22.2555   72.3966    1.4133 C   0  0  2  0  0  0  0  0  0  0  0  0
   22.8113   71.2883   -0.5970 C   0  0  1  0  0  0  0  0  0  0  0  0
   23.5635   71.6463    1.5981 C   0  0  2  0  0  0  0  0  0  0  0  0
   20.2874   70.5987    1.3189 H   0  0  0  0  0  0  0  0  0  0  0  0
   20.6378   72.8844    2.4118 H   0  0  0  0  0  0  0  0  0  0  0  0
   26.1054   70.7241    2.4146 O   0  0  0  0  0  0  0  0  0  0  0  0
   27.5292   74.9884    3.4292 O   0  0  0  0  0  0  0  0  0  0  0  0
   24.6177   72.4938    2.0797 N   0  0  0  0  0  0  0  0  0  0  0  0
   26.8123   72.8482    2.9190 N   0  0  0  0  0  0  0  0  0  0  0  0
   25.8563   71.9304    2.4654 C   0  0  0  0  0  0  0  0  0  0  0  0
   24.4181   73.8674    2.1653 C   0  0  0  0  0  0  0  0  0  0  0  0
   25.3395   74.7289    2.6013 C   0  0  0  0  0  0  0  0  0  0  0  0
   26.6611   74.2218    3.0236 C   0  0  0  0  0  0  0  0  0  0  0  0
   27.6828   72.4785    3.1935 H   0  0  0  0  0  0  0  0  0  0  0  0
   21.0677   71.6097   -4.3246 O   0  0  0  0  0  0  0  0  0  0  0  0
   19.7236   71.3477   -3.4657 P   0  0  2  0  0  0  0  0  0  0  0  0
   19.2649   72.8370   -3.0309 O   0  0  0  0  0  0  0  0  0  0  0  0
   19.9020   70.3952   -2.3191 O   0  0  0  0  0  0  0  0  0  0  0  0
   18.6264   70.8850   -4.5552 O   0  0  0  0  0  0  0  0  0  0  0  0
   19.0563   72.0737   -6.5598 O   0  0  0  0  0  0  0  0  0  0  0  0
   15.6339   70.0665   -7.7040 O   0  0  0  0  0  0  0  0  0  0  0  0
   18.1741   69.2642   -8.7773 O   0  0  0  0  0  0  0  0  0  0  0  0
   15.8665   71.1062   -5.0125 O   0  0  0  0  0  0  0  0  0  0  0  0
   16.8773   70.2358   -7.0180 C   0  0  1  0  0  0  0  0  0  0  0  0
   17.9709   70.4785   -8.0601 C   0  0  1  0  0  0  0  0  0  0  0  0
   16.7654   71.4273   -6.0686 C   0  0  2  0  0  0  0  0  0  0  0  0
   19.2780   70.9321   -7.3961 C   0  0  1  0  0  0  0  0  0  0  0  0
   18.1285   71.8275   -5.5013 C   0  0  1  0  0  0  0  0  0  0  0  0
   15.6981   69.3112   -8.3082 H   0  0  0  0  0  0  0  0  0  0  0  0
   17.3412   68.9885   -9.1913 H   0  0  0  0  0  0  0  0  0  0  0  0
   15.0073   70.8549   -5.3846 H   0  0  0  0  0  0  0  0  0  0  0  0
   19.7207   71.3853   -9.6999 O   0  0  0  0  0  0  0  0  0  0  0  0
   20.3337   71.3310   -8.4249 C   0  0  0  0  0  0  0  0  0  0  0  0
   20.3806   71.6383  -10.3648 H   0  0  0  0  0  0  0  0  0  0  0  0
 25 28  1  0
 25 24  1  0
 25 26  1  1
 25 27  2  0
  1  4  1  0
  1 24  1  0
  1  2  1  6
  1  3  2  0
  6 11  1  0
  6 12  1  0
 29 36  1  0
 29 37  1  0
  9  7  1  1
  7 13  1  0
 10  8  1  1
  8 14  1  0
 37 28  1  1
  4  5  1  0
 33 30  1  6
 30 38  1  0
 34 31  1  1
 31 39  1  0
 35 32  1  1
 32 40  1  0
 41 42  1  0
 41 43  1  0
 15 19  2  0
 16 22  2  0
 12 17  1  6
 17 19  1  0
 17 20  1  0
 18 19  1  0
 18 22  1  0
 18 23  1  0
  9 10  1  0
  9 11  1  0
 10 12  1  0
 11  5  1  6
 33 34  1  0
 33 35  1  0
 34 36  1  0
 35 37  1  0
 36 42  1  6
 20 21  2  0
 21 22  1  0
M  CHG  2   2  -1  26  -1
M  END
>  <COMPND>  (13) 
    8629 

>  <AUTHOR>  (13) 
    GENERATED BY OPEN BABEL 3.1.1

>  <MASTER>  (13) 
        0    0    0    0    0    0    0    0   58    0   58    0

>  <minimizedAffinity>  (13) 
-7.10397

>  <CNNscore>  (13) 
0.5951251984

>  <CNNaffinity>  (13) 
4.2611246109

>  <CNN_VS>  (13) 
2.5359027386

>  <CNNaffinity_variance>  (13) 
0.1595368683

$$$$
14
     RDKit          3D

 43 45  0  0  0  0  0  0  0  0999 V2000
   23.0433   73.6054   -4.2575 P   0  0  2  0  0  0  0  0  0  0  0  0
   24.1127   72.3932   -4.3215 O   0  0  0  0  0  0  0  0  0  0  0  0
   23.5489   74.9241   -4.7642 O   0  0  0  0  0  0  0  0  0  0  0  0
   22.5323   73.5919   -2.7223 O   0  0  0  0  0  0  0  0  0  0  0  0
   21.6720   74.6302   -2.2869 C   0  0  0  0  0  0  0  0  0  0  0  0
   20.9374   72.7520   -0.9806 O   0  0  0  0  0  0  0  0  0  0  0  0
   18.7106   74.5215   -0.0315 O   0  0  0  0  0  0  0  0  0  0  0  0
   20.4614   74.5970    2.0578 O   0  0  0  0  0  0  0  0  0  0  0  0
   20.0655   74.8563   -0.3270 C   0  0  1  0  0  0  0  0  0  0  0  0
   20.9825   74.3516    0.7675 C   0  0  2  0  0  0  0  0  0  0  0  0
   20.5058   74.0197   -1.5218 C   0  0  1  0  0  0  0  0  0  0  0  0
   21.0719   72.8696    0.4452 C   0  0  2  0  0  0  0  0  0  0  0  0
   18.4069   75.0436    0.7282 H   0  0  0  0  0  0  0  0  0  0  0  0
   20.4245   75.5534    2.2152 H   0  0  0  0  0  0  0  0  0  0  0  0
   21.4377   70.1580    1.1461 O   0  0  0  0  0  0  0  0  0  0  0  0
   25.9304   70.7847    1.9608 O   0  0  0  0  0  0  0  0  0  0  0  0
   22.3266   72.2970    0.8440 N   0  0  0  0  0  0  0  0  0  0  0  0
   23.6744   70.4722    1.5510 N   0  0  0  0  0  0  0  0  0  0  0  0
   22.4027   70.9244    1.1766 C   0  0  0  0  0  0  0  0  0  0  0  0
   23.4648   73.0940    0.9020 C   0  0  0  0  0  0  0  0  0  0  0  0
   24.6699   72.6477    1.2622 C   0  0  0  0  0  0  0  0  0  0  0  0
   24.8354   71.2254    1.6253 C   0  0  0  0  0  0  0  0  0  0  0  0
   23.7514   69.5193    1.7874 H   0  0  0  0  0  0  0  0  0  0  0  0
   21.7754   73.0148   -5.0677 O   0  0  0  0  0  0  0  0  0  0  0  0
   21.0393   73.5320   -6.4107 P   0  0  2  0  0  0  0  0  0  0  0  0
   22.0584   73.0888   -7.5865 O   0  0  0  0  0  0  0  0  0  0  0  0
   20.7014   74.9947   -6.4028 O   0  0  0  0  0  0  0  0  0  0  0  0
   19.7679   72.5527   -6.5827 O   0  0  0  0  0  0  0  0  0  0  0  0
   19.3122   70.3902   -5.7266 O   0  0  0  0  0  0  0  0  0  0  0  0
   17.7258   69.9486   -9.5133 O   0  0  0  0  0  0  0  0  0  0  0  0
   15.9653   70.1552   -7.2536 O   0  0  0  0  0  0  0  0  0  0  0  0
   20.1652   71.4609   -9.1371 O   0  0  0  0  0  0  0  0  0  0  0  0
   18.0524   70.6514   -8.3113 C   0  0  1  0  0  0  0  0  0  0  0  0
   17.3696   69.9419   -7.1404 C   0  0  1  0  0  0  0  0  0  0  0  0
   19.5691   70.6512   -8.1295 C   0  0  2  0  0  0  0  0  0  0  0  0
   17.8838   70.4723   -5.7953 C   0  0  1  0  0  0  0  0  0  0  0  0
   19.9715   71.1510   -6.7408 C   0  0  1  0  0  0  0  0  0  0  0  0
   16.7641   69.9455   -9.6350 H   0  0  0  0  0  0  0  0  0  0  0  0
   15.6534   69.8163   -8.1075 H   0  0  0  0  0  0  0  0  0  0  0  0
   19.9031   71.1342  -10.0114 H   0  0  0  0  0  0  0  0  0  0  0  0
   16.0321   70.1433   -4.3216 O   0  0  0  0  0  0  0  0  0  0  0  0
   17.3339   69.6717   -4.6168 C   0  0  0  0  0  0  0  0  0  0  0  0
   15.6693   69.6426   -3.5737 H   0  0  0  0  0  0  0  0  0  0  0  0
 25 28  1  0
 25 24  1  0
 25 26  1  6
 25 27  2  0
  1  4  1  0
  1 24  1  0
  1  2  1  1
  1  3  2  0
  6 11  1  0
  6 12  1  0
 29 36  1  0
 29 37  1  0
  9  7  1  1
  7 13  1  0
 10  8  1  1
  8 14  1  0
 37 28  1  6
  4  5  1  0
 33 30  1  6
 30 38  1  0
 34 31  1  1
 31 39  1  0
 35 32  1  6
 32 40  1  0
 41 42  1  0
 41 43  1  0
 15 19  2  0
 16 22  2  0
 12 17  1  6
 17 19  1  0
 17 20  1  0
 18 19  1  0
 18 22  1  0
 18 23  1  0
  9 10  1  0
  9 11  1  0
 10 12  1  0
 11  5  1  1
 33 34  1  0
 33 35  1  0
 34 36  1  0
 35 37  1  0
 36 42  1  1
 20 21  2  0
 21 22  1  0
M  CHG  2   2  -1  26  -1
M  END
>  <COMPND>  (14) 
    8629 

>  <AUTHOR>  (14) 
    GENERATED BY OPEN BABEL 3.1.1

>  <MASTER>  (14) 
        0    0    0    0    0    0    0    0   58    0   58    0

>  <minimizedAffinity>  (14) 
-7.48287

>  <CNNscore>  (14) 
0.5565502644

>  <CNNaffinity>  (14) 
4.4015836716

>  <CNN_VS>  (14) 
2.4497025013

>  <CNNaffinity_variance>  (14) 
0.2294849455

$$$$
15
     RDKit          3D

 43 45  0  0  0  0  0  0  0  0999 V2000
   21.8985   72.5804   -5.7275 P   0  0  2  0  0  0  0  0  0  0  0  0
   21.2988   73.9551   -5.1210 O   0  0  0  0  0  0  0  0  0  0  0  0
   23.0213   72.7566   -6.7072 O   0  0  0  0  0  0  0  0  0  0  0  0
   20.5951   71.8008   -6.2854 O   0  0  0  0  0  0  0  0  0  0  0  0
   20.2644   71.9320   -7.6570 C   0  0  0  0  0  0  0  0  0  0  0  0
   18.9569   70.0458   -6.9452 O   0  0  0  0  0  0  0  0  0  0  0  0
   18.0985   69.7983   -9.8075 O   0  0  0  0  0  0  0  0  0  0  0  0
   15.9583   71.0291   -8.6494 O   0  0  0  0  0  0  0  0  0  0  0  0
   18.3571   70.9738   -9.0416 C   0  0  1  0  0  0  0  0  0  0  0  0
   17.2290   71.2220   -8.0621 C   0  0  2  0  0  0  0  0  0  0  0  0
   19.5272   70.6796   -8.1112 C   0  0  1  0  0  0  0  0  0  0  0  0
   17.5293   70.2074   -6.9719 C   0  0  2  0  0  0  0  0  0  0  0  0
   17.3551   69.9620  -10.4096 H   0  0  0  0  0  0  0  0  0  0  0  0
   15.8143   71.6985   -9.3363 H   0  0  0  0  0  0  0  0  0  0  0  0
   16.6791   68.4785   -4.9065 O   0  0  0  0  0  0  0  0  0  0  0  0
   15.8461   71.9999   -2.0523 O   0  0  0  0  0  0  0  0  0  0  0  0
   17.0854   70.6454   -5.6787 N   0  0  0  0  0  0  0  0  0  0  0  0
   16.2652   70.2333   -3.4870 N   0  0  0  0  0  0  0  0  0  0  0  0
   16.6784   69.6959   -4.7127 C   0  0  0  0  0  0  0  0  0  0  0  0
   17.0569   72.0031   -5.3790 C   0  0  0  0  0  0  0  0  0  0  0  0
   16.6589   72.4994   -4.2058 C   0  0  0  0  0  0  0  0  0  0  0  0
   16.2178   71.5746   -3.1417 C   0  0  0  0  0  0  0  0  0  0  0  0
   15.9769   69.5906   -2.7987 H   0  0  0  0  0  0  0  0  0  0  0  0
   22.2868   71.7380   -4.4037 O   0  0  0  0  0  0  0  0  0  0  0  0
   23.3408   72.0496   -3.2184 P   0  0  2  0  0  0  0  0  0  0  0  0
   24.0446   73.4246   -3.6996 O   0  0  0  0  0  0  0  0  0  0  0  0
   24.2992   70.9288   -2.9368 O   0  0  0  0  0  0  0  0  0  0  0  0
   22.4255   72.4788   -1.9602 O   0  0  0  0  0  0  0  0  0  0  0  0
   21.8067   71.3154    0.0096 O   0  0  0  0  0  0  0  0  0  0  0  0
   18.2377   73.2412   -0.7679 O   0  0  0  0  0  0  0  0  0  0  0  0
   19.8727   74.1163    1.4250 O   0  0  0  0  0  0  0  0  0  0  0  0
   19.8171   72.1895   -2.9540 O   0  0  0  0  0  0  0  0  0  0  0  0
   19.6603   73.0994   -0.7295 C   0  0  1  0  0  0  0  0  0  0  0  0
   20.0824   72.8922    0.7265 C   0  0  1  0  0  0  0  0  0  0  0  0
   20.0656   71.8990   -1.5828 C   0  0  2  0  0  0  0  0  0  0  0  0
   21.5542   72.4681    0.8216 C   0  0  1  0  0  0  0  0  0  0  0  0
   21.5359   71.5303   -1.3769 C   0  0  1  0  0  0  0  0  0  0  0  0
   17.9738   74.0020   -0.2285 H   0  0  0  0  0  0  0  0  0  0  0  0
   18.9397   74.3732    1.3568 H   0  0  0  0  0  0  0  0  0  0  0  0
   18.8830   72.4211   -3.0713 H   0  0  0  0  0  0  0  0  0  0  0  0
   20.7748   71.8981    3.0071 O   0  0  0  0  0  0  0  0  0  0  0  0
   21.9532   72.1036    2.2499 C   0  0  0  0  0  0  0  0  0  0  0  0
   21.0133   71.6651    3.9185 H   0  0  0  0  0  0  0  0  0  0  0  0
 25 28  1  0
 25 24  1  0
 25 26  1  6
 25 27  2  0
  1  4  1  0
  1 24  1  0
  1  2  1  1
  1  3  2  0
  6 11  1  0
  6 12  1  0
 29 36  1  0
 29 37  1  0
  9  7  1  6
  7 13  1  0
 10  8  1  6
  8 14  1  0
 37 28  1  1
  4  5  1  0
 33 30  1  1
 30 38  1  0
 34 31  1  1
 31 39  1  0
 35 32  1  6
 32 40  1  0
 41 42  1  0
 41 43  1  0
 15 19  2  0
 16 22  2  0
 12 17  1  1
 17 19  1  0
 17 20  1  0
 18 19  1  0
 18 22  1  0
 18 23  1  0
  9 10  1  0
  9 11  1  0
 10 12  1  0
 11  5  1  1
 33 34  1  0
 33 35  1  0
 34 36  1  0
 35 37  1  0
 36 42  1  1
 20 21  2  0
 21 22  1  0
M  CHG  2   2  -1  26  -1
M  END
>  <COMPND>  (15) 
    8629 

>  <AUTHOR>  (15) 
    GENERATED BY OPEN BABEL 3.1.1

>  <MASTER>  (15) 
        0    0    0    0    0    0    0    0   58    0   58    0

>  <minimizedAffinity>  (15) 
-7.25059

>  <CNNscore>  (15) 
0.5275606513

>  <CNNaffinity>  (15) 
4.1941757202

>  <CNN_VS>  (15) 
2.2126820087

>  <CNNaffinity_variance>  (15) 
0.5449231863

$$$$
16
     RDKit          3D

 43 45  0  0  0  0  0  0  0  0999 V2000
   23.5431   72.5340   -3.7645 P   0  0  2  0  0  0  0  0  0  0  0  0
   24.1294   71.0879   -3.3375 O   0  0  0  0  0  0  0  0  0  0  0  0
   24.5692   73.6212   -3.8927 O   0  0  0  0  0  0  0  0  0  0  0  0
   22.3614   72.8059   -2.6932 O   0  0  0  0  0  0  0  0  0  0  0  0
   22.7126   73.0014   -1.3344 C   0  0  0  0  0  0  0  0  0  0  0  0
   23.7848   71.4142    0.1164 O   0  0  0  0  0  0  0  0  0  0  0  0
   21.0327   70.3875    0.7184 O   0  0  0  0  0  0  0  0  0  0  0  0
   21.5814   71.9311    2.8986 O   0  0  0  0  0  0  0  0  0  0  0  0
   21.4638   71.7262    0.4787 C   0  0  1  0  0  0  0  0  0  0  0  0
   22.2168   72.2591    1.6798 C   0  0  2  0  0  0  0  0  0  0  0  0
   22.5524   71.6849   -0.5865 C   0  0  1  0  0  0  0  0  0  0  0  0
   23.5705   71.5866    1.5268 C   0  0  2  0  0  0  0  0  0  0  0  0
   20.3371   70.3884    1.3953 H   0  0  0  0  0  0  0  0  0  0  0  0
   20.7246   72.3831    2.9485 H   0  0  0  0  0  0  0  0  0  0  0  0
   26.0656   70.5493    2.3494 O   0  0  0  0  0  0  0  0  0  0  0  0
   27.5961   74.7165    3.5878 O   0  0  0  0  0  0  0  0  0  0  0  0
   24.6395   72.3780    2.0676 N   0  0  0  0  0  0  0  0  0  0  0  0
   26.8257   72.6251    2.9652 N   0  0  0  0  0  0  0  0  0  0  0  0
   25.8521   71.7592    2.4510 C   0  0  0  0  0  0  0  0  0  0  0  0
   24.4798   73.7518    2.2127 C   0  0  0  0  0  0  0  0  0  0  0  0
   25.4175   74.5634    2.7060 C   0  0  0  0  0  0  0  0  0  0  0  0
   26.7139   73.9966    3.1303 C   0  0  0  0  0  0  0  0  0  0  0  0
   27.6786   72.2163    3.2393 H   0  0  0  0  0  0  0  0  0  0  0  0
   22.7325   72.2102   -5.1251 O   0  0  0  0  0  0  0  0  0  0  0  0
   21.8321   73.1584   -6.0755 P   0  0  2  0  0  0  0  0  0  0  0  0
   22.5138   72.9786   -7.5317 O   0  0  0  0  0  0  0  0  0  0  0  0
   21.7341   74.5820   -5.6091 O   0  0  0  0  0  0  0  0  0  0  0  0
   20.4156   72.3935   -6.1913 O   0  0  0  0  0  0  0  0  0  0  0  0
   19.7882   70.2309   -5.4523 O   0  0  0  0  0  0  0  0  0  0  0  0
   17.5897   70.3986   -8.9436 O   0  0  0  0  0  0  0  0  0  0  0  0
   16.2476   70.5942   -6.4121 O   0  0  0  0  0  0  0  0  0  0  0  0
   20.2514   71.5332   -8.8574 O   0  0  0  0  0  0  0  0  0  0  0  0
   18.1963   70.9230   -7.7594 C   0  0  1  0  0  0  0  0  0  0  0  0
   17.6065   70.1895   -6.5532 C   0  0  1  0  0  0  0  0  0  0  0  0
   19.7066   70.7067   -7.8344 C   0  0  2  0  0  0  0  0  0  0  0  0
   18.3936   70.5046   -5.2740 C   0  0  1  0  0  0  0  0  0  0  0  0
   20.3866   71.0015   -6.4962 C   0  0  1  0  0  0  0  0  0  0  0  0
   16.6307   70.5333   -8.9025 H   0  0  0  0  0  0  0  0  0  0  0  0
   15.7619   70.3901   -7.2267 H   0  0  0  0  0  0  0  0  0  0  0  0
   19.8129   71.3368   -9.6994 H   0  0  0  0  0  0  0  0  0  0  0  0
   16.9903   68.7067   -4.5617 O   0  0  0  0  0  0  0  0  0  0  0  0
   17.9216   69.6632   -4.0902 C   0  0  0  0  0  0  0  0  0  0  0  0
   16.6815   68.1637   -3.8190 H   0  0  0  0  0  0  0  0  0  0  0  0
 25 28  1  0
 25 24  1  0
 25 26  1  6
 25 27  2  0
  1  4  1  0
  1 24  1  0
  1  2  1  1
  1  3  2  0
  6 11  1  0
  6 12  1  0
 29 36  1  0
 29 37  1  0
  9  7  1  1
  7 13  1  0
 10  8  1  1
  8 14  1  0
 37 28  1  1
  4  5  1  0
 33 30  1  6
 30 38  1  0
 34 31  1  1
 31 39  1  0
 35 32  1  6
 32 40  1  0
 41 42  1  0
 41 43  1  0
 15 19  2  0
 16 22  2  0
 12 17  1  6
 17 19  1  0
 17 20  1  0
 18 19  1  0
 18 22  1  0
 18 23  1  0
  9 10  1  0
  9 11  1  0
 10 12  1  0
 11  5  1  1
 33 34  1  0
 33 35  1  0
 34 36  1  0
 35 37  1  0
 36 42  1  1
 20 21  2  0
 21 22  1  0
M  CHG  2   2  -1  26  -1
M  END
>  <COMPND>  (16) 
    8629 

>  <AUTHOR>  (16) 
    GENERATED BY OPEN BABEL 3.1.1

>  <MASTER>  (16) 
        0    0    0    0    0    0    0    0   58    0   58    0

>  <minimizedAffinity>  (16) 
-7.86514

>  <CNNscore>  (16) 
0.5258591771

>  <CNNaffinity>  (16) 
4.2223291397

>  <CNN_VS>  (16) 
2.2203505039

>  <CNNaffinity_variance>  (16) 
0.1575394720

$$$$
17
     RDKit          3D

 43 45  0  0  0  0  0  0  0  0999 V2000
   22.6724   72.4892   -3.0963 P   0  0  2  0  0  0  0  0  0  0  0  0
   23.1576   70.9460   -3.0745 O   0  0  0  0  0  0  0  0  0  0  0  0
   23.6460   73.4510   -3.7114 O   0  0  0  0  0  0  0  0  0  0  0  0
   22.2636   72.7895   -1.5599 O   0  0  0  0  0  0  0  0  0  0  0  0
   23.2788   72.7592   -0.5718 C   0  0  0  0  0  0  0  0  0  0  0  0
   23.8360   71.7540    1.5384 O   0  0  0  0  0  0  0  0  0  0  0  0
   21.3652   70.0920    1.1867 O   0  0  0  0  0  0  0  0  0  0  0  0
   20.5437   72.0154    2.9366 O   0  0  0  0  0  0  0  0  0  0  0  0
   21.5982   71.4508    0.8199 C   0  0  1  0  0  0  0  0  0  0  0  0
   21.5960   72.3352    2.0493 C   0  0  2  0  0  0  0  0  0  0  0  0
   23.0416   71.5681    0.3464 C   0  0  1  0  0  0  0  0  0  0  0  0
   22.9663   72.0541    2.6421 C   0  0  2  0  0  0  0  0  0  0  0  0
   20.4494   69.9923    1.4923 H   0  0  0  0  0  0  0  0  0  0  0  0
   19.6931   72.2118    2.5138 H   0  0  0  0  0  0  0  0  0  0  0  0
   22.4195   72.6178    5.3553 O   0  0  0  0  0  0  0  0  0  0  0  0
   25.0463   76.4042    5.2878 O   0  0  0  0  0  0  0  0  0  0  0  0
   23.4944   73.1805    3.3590 N   0  0  0  0  0  0  0  0  0  0  0  0
   23.7280   74.5026    5.3195 N   0  0  0  0  0  0  0  0  0  0  0  0
   23.1572   73.3732    4.7190 C   0  0  0  0  0  0  0  0  0  0  0  0
   24.3368   74.0794    2.7139 C   0  0  0  0  0  0  0  0  0  0  0  0
   24.8719   75.1522    3.3005 C   0  0  0  0  0  0  0  0  0  0  0  0
   24.5699   75.4260    4.7203 C   0  0  0  0  0  0  0  0  0  0  0  0
   23.5069   74.6573    6.2666 H   0  0  0  0  0  0  0  0  0  0  0  0
   21.2415   72.4099   -3.8441 O   0  0  0  0  0  0  0  0  0  0  0  0
   19.8666   71.6680   -3.4292 P   0  0  2  0  0  0  0  0  0  0  0  0
   19.0310   72.8300   -2.6749 O   0  0  0  0  0  0  0  0  0  0  0  0
   20.0614   70.4196   -2.6184 O   0  0  0  0  0  0  0  0  0  0  0  0
   19.0860   71.4445   -4.8241 O   0  0  0  0  0  0  0  0  0  0  0  0
   19.4949   72.2065   -7.0306 O   0  0  0  0  0  0  0  0  0  0  0  0
   15.3893   72.6372   -6.9340 O   0  0  0  0  0  0  0  0  0  0  0  0
   16.5568   70.5215   -8.4860 O   0  0  0  0  0  0  0  0  0  0  0  0
   16.9625   73.2637   -4.5862 O   0  0  0  0  0  0  0  0  0  0  0  0
   16.6424   72.0212   -6.6247 C   0  0  1  0  0  0  0  0  0  0  0  0
   17.3072   71.6013   -7.9371 C   0  0  1  0  0  0  0  0  0  0  0  0
   17.5188   73.0222   -5.8741 C   0  0  2  0  0  0  0  0  0  0  0  0
   18.7645   71.1778   -7.7091 C   0  0  1  0  0  0  0  0  0  0  0  0
   18.9598   72.5253   -5.7446 C   0  0  1  0  0  0  0  0  0  0  0  0
   14.8278   72.0068   -7.4102 H   0  0  0  0  0  0  0  0  0  0  0  0
   15.6385   70.8019   -8.6246 H   0  0  0  0  0  0  0  0  0  0  0  0
   16.0505   73.5781   -4.6819 H   0  0  0  0  0  0  0  0  0  0  0  0
   18.6760   71.3497  -10.0906 O   0  0  0  0  0  0  0  0  0  0  0  0
   19.4934   70.9060   -9.0232 C   0  0  0  0  0  0  0  0  0  0  0  0
   19.1273   71.1833  -10.9334 H   0  0  0  0  0  0  0  0  0  0  0  0
 25 28  1  0
 25 24  1  0
 25 26  1  1
 25 27  2  0
  1  4  1  0
  1 24  1  0
  1  2  1  1
  1  3  2  0
  6 11  1  0
  6 12  1  0
 29 36  1  0
 29 37  1  0
  9  7  1  1
  7 13  1  0
 10  8  1  1
  8 14  1  0
 37 28  1  1
  4  5  1  0
 33 30  1  6
 30 38  1  0
 34 31  1  1
 31 39  1  0
 35 32  1  1
 32 40  1  0
 41 42  1  0
 41 43  1  0
 15 19  2  0
 16 22  2  0
 12 17  1  6
 17 19  1  0
 17 20  1  0
 18 19  1  0
 18 22  1  0
 18 23  1  0
  9 10  1  0
  9 11  1  0
 10 12  1  0
 11  5  1  6
 33 34  1  0
 33 35  1  0
 34 36  1  0
 35 37  1  0
 36 42  1  6
 20 21  2  0
 21 22  1  0
M  CHG  2   2  -1  26  -1
M  END
>  <COMPND>  (17) 
    8629 

>  <AUTHOR>  (17) 
    GENERATED BY OPEN BABEL 3.1.1

>  <MASTER>  (17) 
        0    0    0    0    0    0    0    0   58    0   58    0

>  <minimizedAffinity>  (17) 
-6.61573

>  <CNNscore>  (17) 
0.5119069219

>  <CNNaffinity>  (17) 
4.0844120979

>  <CNN_VS>  (17) 
2.0908389091

>  <CNNaffinity_variance>  (17) 
0.1442100704

$$$$
18
     RDKit          3D

 43 45  0  0  0  0  0  0  0  0999 V2000
   21.8258   72.7692   -2.0648 P   0  0  2  0  0  0  0  0  0  0  0  0
   20.3857   73.5033   -1.9966 O   0  0  0  0  0  0  0  0  0  0  0  0
   22.9991   73.6434   -1.7326 O   0  0  0  0  0  0  0  0  0  0  0  0
   21.8476   72.0923   -3.5342 O   0  0  0  0  0  0  0  0  0  0  0  0
   21.4837   72.8865   -4.6499 C   0  0  0  0  0  0  0  0  0  0  0  0
   20.7897   70.7978   -5.6140 O   0  0  0  0  0  0  0  0  0  0  0  0
   21.2992   72.0733   -8.2794 O   0  0  0  0  0  0  0  0  0  0  0  0
   18.5875   72.2442   -8.0473 O   0  0  0  0  0  0  0  0  0  0  0  0
   20.7817   72.6562   -7.0845 C   0  0  1  0  0  0  0  0  0  0  0  0
   19.3517   72.2114   -6.8591 C   0  0  2  0  0  0  0  0  0  0  0  0
   21.5025   72.0207   -5.9021 C   0  0  1  0  0  0  0  0  0  0  0  0
   19.5406   70.8020   -6.3242 C   0  0  2  0  0  0  0  0  0  0  0  0
   20.8542   72.4638   -9.0484 H   0  0  0  0  0  0  0  0  0  0  0  0
   18.4955   73.1618   -8.3476 H   0  0  0  0  0  0  0  0  0  0  0  0
   17.0634   69.7154   -7.1371 O   0  0  0  0  0  0  0  0  0  0  0  0
   15.5901   69.3450   -2.7858 O   0  0  0  0  0  0  0  0  0  0  0  0
   18.4915   70.4124   -5.4248 N   0  0  0  0  0  0  0  0  0  0  0  0
   16.3319   69.5317   -4.9698 N   0  0  0  0  0  0  0  0  0  0  0  0
   17.2856   69.8780   -5.9355 C   0  0  0  0  0  0  0  0  0  0  0  0
   18.6640   70.5612   -4.0529 C   0  0  0  0  0  0  0  0  0  0  0  0
   17.7442   70.2273   -3.1453 C   0  0  0  0  0  0  0  0  0  0  0  0
   16.4560   69.6618   -3.5956 C   0  0  0  0  0  0  0  0  0  0  0  0
   15.4837   69.1578   -5.3023 H   0  0  0  0  0  0  0  0  0  0  0  0
   21.6335   71.4996   -1.0828 O   0  0  0  0  0  0  0  0  0  0  0  0
   22.1071   71.2568    0.4435 P   0  0  2  0  0  0  0  0  0  0  0  0
   23.7196   71.1967    0.3265 O   0  0  0  0  0  0  0  0  0  0  0  0
   21.4883   70.0546    1.0960 O   0  0  0  0  0  0  0  0  0  0  0  0
   21.8046   72.6542    1.1923 O   0  0  0  0  0  0  0  0  0  0  0  0
   21.4222   72.7898    3.5273 O   0  0  0  0  0  0  0  0  0  0  0  0
   19.4019   76.1861    2.3295 O   0  0  0  0  0  0  0  0  0  0  0  0
   21.9097   76.4394    3.7061 O   0  0  0  0  0  0  0  0  0  0  0  0
   19.2837   73.7893    0.7106 O   0  0  0  0  0  0  0  0  0  0  0  0
   20.4388   75.2022    2.2825 C   0  0  1  0  0  0  0  0  0  0  0  0
   21.1777   75.2198    3.6221 C   0  0  1  0  0  0  0  0  0  0  0  0
   19.8146   73.8309    2.0308 C   0  0  2  0  0  0  0  0  0  0  0  0
   22.1244   74.0186    3.7485 C   0  0  1  0  0  0  0  0  0  0  0  0
   20.8290   72.7034    2.2302 C   0  0  1  0  0  0  0  0  0  0  0  0
   19.7916   77.0592    2.4886 H   0  0  0  0  0  0  0  0  0  0  0  0
   21.3004   77.1899    3.6244 H   0  0  0  0  0  0  0  0  0  0  0  0
   18.6427   74.5077    0.5972 H   0  0  0  0  0  0  0  0  0  0  0  0
   22.2527   72.7733    5.7836 O   0  0  0  0  0  0  0  0  0  0  0  0
   22.7530   73.9294    5.1374 C   0  0  0  0  0  0  0  0  0  0  0  0
   22.6444   72.7034    6.6687 H   0  0  0  0  0  0  0  0  0  0  0  0
 25 28  1  0
 25 24  1  0
 25 26  1  6
 25 27  2  0
  1  4  1  0
  1 24  1  0
  1  2  1  6
  1  3  2  0
  6 11  1  0
  6 12  1  0
 29 36  1  0
 29 37  1  0
  9  7  1  6
  7 13  1  0
 10  8  1  6
  8 14  1  0
 37 28  1  6
  4  5  1  0
 33 30  1  1
 30 38  1  0
 34 31  1  6
 31 39  1  0
 35 32  1  6
 32 40  1  0
 41 42  1  0
 41 43  1  0
 15 19  2  0
 16 22  2  0
 12 17  1  1
 17 19  1  0
 17 20  1  0
 18 19  1  0
 18 22  1  0
 18 23  1  0
  9 10  1  0
  9 11  1  0
 10 12  1  0
 11  5  1  1
 33 34  1  0
 33 35  1  0
 34 36  1  0
 35 37  1  0
 36 42  1  1
 20 21  2  0
 21 22  1  0
M  CHG  2   2  -1  26  -1
M  END
>  <COMPND>  (18) 
    8629 

>  <AUTHOR>  (18) 
    GENERATED BY OPEN BABEL 3.1.1

>  <MASTER>  (18) 
        0    0    0    0    0    0    0    0   58    0   58    0

>  <minimizedAffinity>  (18) 
-6.44532

>  <CNNscore>  (18) 
0.4902770221

>  <CNNaffinity>  (18) 
3.9900565147

>  <CNN_VS>  (18) 
1.9562330246

>  <CNNaffinity_variance>  (18) 
0.1548473090

$$$$
19
     RDKit          3D

 43 45  0  0  0  0  0  0  0  0999 V2000
   21.6868   72.3524   -2.1703 P   0  0  2  0  0  0  0  0  0  0  0  0
   21.3311   70.8058   -1.8561 O   0  0  0  0  0  0  0  0  0  0  0  0
   20.5799   73.3265   -1.8918 O   0  0  0  0  0  0  0  0  0  0  0  0
   22.2311   72.3241   -3.6938 O   0  0  0  0  0  0  0  0  0  0  0  0
   21.4375   72.9180   -4.7064 C   0  0  0  0  0  0  0  0  0  0  0  0
   20.7780   70.8080   -5.6480 O   0  0  0  0  0  0  0  0  0  0  0  0
   21.2874   72.0563   -8.3262 O   0  0  0  0  0  0  0  0  0  0  0  0
   18.5721   72.1933   -8.1134 O   0  0  0  0  0  0  0  0  0  0  0  0
   20.7544   72.6472   -7.1422 C   0  0  1  0  0  0  0  0  0  0  0  0
   19.3290   72.1860   -6.9201 C   0  0  2  0  0  0  0  0  0  0  0  0
   21.4760   72.0366   -5.9473 C   0  0  1  0  0  0  0  0  0  0  0  0
   19.5335   70.7862   -6.3660 C   0  0  2  0  0  0  0  0  0  0  0  0
   20.8421   72.4308   -9.1030 H   0  0  0  0  0  0  0  0  0  0  0  0
   18.4698   73.1057   -8.4259 H   0  0  0  0  0  0  0  0  0  0  0  0
   17.0522   69.7126   -7.1838 O   0  0  0  0  0  0  0  0  0  0  0  0
   15.5816   69.3181   -2.8338 O   0  0  0  0  0  0  0  0  0  0  0  0
   18.4839   70.3939   -5.4683 N   0  0  0  0  0  0  0  0  0  0  0  0
   16.3220   69.5169   -5.0172 N   0  0  0  0  0  0  0  0  0  0  0  0
   17.2760   69.8666   -5.9814 C   0  0  0  0  0  0  0  0  0  0  0  0
   18.6581   70.5331   -4.0956 C   0  0  0  0  0  0  0  0  0  0  0  0
   17.7380   70.1961   -3.1894 C   0  0  0  0  0  0  0  0  0  0  0  0
   16.4477   69.6375   -3.6423 C   0  0  0  0  0  0  0  0  0  0  0  0
   15.4724   69.1477   -5.3514 H   0  0  0  0  0  0  0  0  0  0  0  0
   23.0320   72.5984   -1.3084 O   0  0  0  0  0  0  0  0  0  0  0  0
   23.5065   73.8617   -0.4185 P   0  0  2  0  0  0  0  0  0  0  0  0
   24.4286   73.1843    0.7253 O   0  0  0  0  0  0  0  0  0  0  0  0
   22.3789   74.6997    0.1108 O   0  0  0  0  0  0  0  0  0  0  0  0
   24.5463   74.6582   -1.3616 O   0  0  0  0  0  0  0  0  0  0  0  0
   24.1191   76.7704   -2.3479 O   0  0  0  0  0  0  0  0  0  0  0  0
   26.7705   75.2656   -5.1331 O   0  0  0  0  0  0  0  0  0  0  0  0
   27.6179   77.3530   -3.3518 O   0  0  0  0  0  0  0  0  0  0  0  0
   24.8126   73.5178   -3.9119 O   0  0  0  0  0  0  0  0  0  0  0  0
   26.2286   75.4643   -3.8245 C   0  0  1  0  0  0  0  0  0  0  0  0
   26.2575   76.9625   -3.5159 C   0  0  1  0  0  0  0  0  0  0  0  0
   24.7956   74.9362   -3.7923 C   0  0  2  0  0  0  0  0  0  0  0  0
   25.4531   77.2827   -2.2488 C   0  0  1  0  0  0  0  0  0  0  0  0
   24.0692   75.3517   -2.5117 C   0  0  1  0  0  0  0  0  0  0  0  0
   27.6805   75.5984   -5.1602 H   0  0  0  0  0  0  0  0  0  0  0  0
   28.1149   77.1449   -4.1586 H   0  0  0  0  0  0  0  0  0  0  0  0
   25.2748   73.2677   -4.7265 H   0  0  0  0  0  0  0  0  0  0  0  0
   25.5367   79.4541   -3.2424 O   0  0  0  0  0  0  0  0  0  0  0  0
   25.3367   78.7866   -2.0100 C   0  0  0  0  0  0  0  0  0  0  0  0
   25.4651   80.4122   -3.1058 H   0  0  0  0  0  0  0  0  0  0  0  0
 25 28  1  0
 25 24  1  0
 25 26  1  1
 25 27  2  0
  1  4  1  0
  1 24  1  0
  1  2  1  1
  1  3  2  0
  6 11  1  0
  6 12  1  0
 29 36  1  0
 29 37  1  0
  9  7  1  6
  7 13  1  0
 10  8  1  6
  8 14  1  0
 37 28  1  1
  4  5  1  0
 33 30  1  6
 30 38  1  0
 34 31  1  1
 31 39  1  0
 35 32  1  1
 32 40  1  0
 41 42  1  0
 41 43  1  0
 15 19  2  0
 16 22  2  0
 12 17  1  1
 17 19  1  0
 17 20  1  0
 18 19  1  0
 18 22  1  0
 18 23  1  0
  9 10  1  0
  9 11  1  0
 10 12  1  0
 11  5  1  1
 33 34  1  0
 33 35  1  0
 34 36  1  0
 35 37  1  0
 36 42  1  6
 20 21  2  0
 21 22  1  0
M  CHG  2   2  -1  26  -1
M  END
>  <COMPND>  (19) 
    8629 

>  <AUTHOR>  (19) 
    GENERATED BY OPEN BABEL 3.1.1

>  <MASTER>  (19) 
        0    0    0    0    0    0    0    0   58    0   58    0

>  <minimizedAffinity>  (19) 
-5.98354

>  <CNNscore>  (19) 
0.4742693603

>  <CNNaffinity>  (19) 
3.9502480030

>  <CNN_VS>  (19) 
1.8734816313

>  <CNNaffinity_variance>  (19) 
0.2875500619

$$$$
20
     RDKit          3D

 43 45  0  0  0  0  0  0  0  0999 V2000
   18.1795   75.1919   -5.4173 P   0  0  2  0  0  0  0  0  0  0  0  0
   19.1977   75.5567   -6.6205 O   0  0  0  0  0  0  0  0  0  0  0  0
   18.2044   76.1419   -4.2561 O   0  0  0  0  0  0  0  0  0  0  0  0
   18.5243   73.6496   -5.0707 O   0  0  0  0  0  0  0  0  0  0  0  0
   18.9923   73.3371   -3.7703 C   0  0  0  0  0  0  0  0  0  0  0  0
   17.7416   71.4134   -4.4836 O   0  0  0  0  0  0  0  0  0  0  0  0
   18.8662   70.0227   -2.0769 O   0  0  0  0  0  0  0  0  0  0  0  0
   20.4342   69.0760   -4.0973 O   0  0  0  0  0  0  0  0  0  0  0  0
   19.4809   70.9851   -2.9321 C   0  0  1  0  0  0  0  0  0  0  0  0
   19.8484   70.3519   -4.2578 C   0  0  2  0  0  0  0  0  0  0  0  0
   18.4161   71.9934   -3.3456 C   0  0  1  0  0  0  0  0  0  0  0  0
   18.5039   70.2934   -4.9626 C   0  0  2  0  0  0  0  0  0  0  0  0
   19.5270   69.3682   -1.7995 H   0  0  0  0  0  0  0  0  0  0  0  0
   21.2870   69.1662   -3.6442 H   0  0  0  0  0  0  0  0  0  0  0  0
   16.5042   69.5089   -6.7967 O   0  0  0  0  0  0  0  0  0  0  0  0
   19.0939   70.7103  -10.4149 O   0  0  0  0  0  0  0  0  0  0  0  0
   18.6288   70.3906   -6.3896 N   0  0  0  0  0  0  0  0  0  0  0  0
   17.7952   70.1079   -8.5968 N   0  0  0  0  0  0  0  0  0  0  0  0
   17.5662   69.9681   -7.2220 C   0  0  0  0  0  0  0  0  0  0  0  0
   19.7950   70.9004   -6.9500 C   0  0  0  0  0  0  0  0  0  0  0  0
   19.9982   71.0259   -8.2631 C   0  0  0  0  0  0  0  0  0  0  0  0
   18.9374   70.6076   -9.2021 C   0  0  0  0  0  0  0  0  0  0  0  0
   17.0689   69.8197   -9.1961 H   0  0  0  0  0  0  0  0  0  0  0  0
   16.7523   75.0852   -6.1687 O   0  0  0  0  0  0  0  0  0  0  0  0
   16.1533   73.9520   -7.1535 P   0  0  2  0  0  0  0  0  0  0  0  0
   15.3038   73.0039   -6.1550 O   0  0  0  0  0  0  0  0  0  0  0  0
   17.1910   73.2280   -7.9616 O   0  0  0  0  0  0  0  0  0  0  0  0
   15.0388   74.7215   -8.0315 O   0  0  0  0  0  0  0  0  0  0  0  0
   13.3193   74.1541   -9.5606 O   0  0  0  0  0  0  0  0  0  0  0  0
   15.1829   77.1277  -11.7369 O   0  0  0  0  0  0  0  0  0  0  0  0
   12.6212   77.6379  -10.5430 O   0  0  0  0  0  0  0  0  0  0  0  0
   16.7651   75.2750  -10.1736 O   0  0  0  0  0  0  0  0  0  0  0  0
   14.7140   76.4800  -10.5511 C   0  0  1  0  0  0  0  0  0  0  0  0
   13.1940   76.3377  -10.6514 C   0  0  1  0  0  0  0  0  0  0  0  0
   15.3761   75.1081  -10.4366 C   0  0  2  0  0  0  0  0  0  0  0  0
   12.6495   75.4202   -9.5483 C   0  0  1  0  0  0  0  0  0  0  0  0
   14.7278   74.2576   -9.3428 C   0  0  1  0  0  0  0  0  0  0  0  0
   14.7667   77.9995  -11.8153 H   0  0  0  0  0  0  0  0  0  0  0  0
   12.9736   78.2074  -11.2449 H   0  0  0  0  0  0  0  0  0  0  0  0
   17.1640   75.8148  -10.8732 H   0  0  0  0  0  0  0  0  0  0  0  0
   10.8981   73.8155   -9.2902 O   0  0  0  0  0  0  0  0  0  0  0  0
   11.1589   75.1380   -9.7232 C   0  0  0  0  0  0  0  0  0  0  0  0
    9.9531   73.6219   -9.3955 H   0  0  0  0  0  0  0  0  0  0  0  0
 25 28  1  0
 25 24  1  0
 25 26  1  1
 25 27  2  0
  1  4  1  0
  1 24  1  0
  1  2  1  6
  1  3  2  0
  6 11  1  0
  6 12  1  0
 29 36  1  0
 29 37  1  0
  9  7  1  1
  7 13  1  0
 10  8  1  1
  8 14  1  0
 37 28  1  1
  4  5  1  0
 33 30  1  6
 30 38  1  0
 34 31  1  1
 31 39  1  0
 35 32  1  1
 32 40  1  0
 41 42  1  0
 41 43  1  0
 15 19  2  0
 16 22  2  0
 12 17  1  6
 17 19  1  0
 17 20  1  0
 18 19  1  0
 18 22  1  0
 18 23  1  0
  9 10  1  0
  9 11  1  0
 10 12  1  0
 11  5  1  6
 33 34  1  0
 33 35  1  0
 34 36  1  0
 35 37  1  0
 36 42  1  6
 20 21  2  0
 21 22  1  0
M  CHG  2   2  -1  26  -1
M  END
>  <COMPND>  (20) 
    8629 

>  <AUTHOR>  (20) 
    GENERATED BY OPEN BABEL 3.1.1

>  <MASTER>  (20) 
        0    0    0    0    0    0    0    0   58    0   58    0

>  <minimizedAffinity>  (20) 
-5.93362

>  <CNNscore>  (20) 
0.4733369648

>  <CNNaffinity>  (20) 
4.1898565292

>  <CNN_VS>  (20) 
1.9832140207

>  <CNNaffinity_variance>  (20) 
0.3359120488

$$$$
21
     RDKit          3D

 43 45  0  0  0  0  0  0  0  0999 V2000
   22.8114   71.6096   -2.6556 P   0  0  2  0  0  0  0  0  0  0  0  0
   24.1977   70.9103   -3.1102 O   0  0  0  0  0  0  0  0  0  0  0  0
   22.3400   71.2460   -1.2783 O   0  0  0  0  0  0  0  0  0  0  0  0
   21.7891   71.2657   -3.8617 O   0  0  0  0  0  0  0  0  0  0  0  0
   20.8458   70.2255   -3.6726 C   0  0  0  0  0  0  0  0  0  0  0  0
   19.0711   71.5494   -4.6062 O   0  0  0  0  0  0  0  0  0  0  0  0
   17.3435   70.4342   -2.4238 O   0  0  0  0  0  0  0  0  0  0  0  0
   16.6222   68.9293   -4.5805 O   0  0  0  0  0  0  0  0  0  0  0  0
   18.3905   69.8015   -3.1580 C   0  0  1  0  0  0  0  0  0  0  0  0
   17.9254   69.4753   -4.5618 C   0  0  2  0  0  0  0  0  0  0  0  0
   19.4762   70.8390   -3.4156 C   0  0  1  0  0  0  0  0  0  0  0  0
   18.0008   70.8317   -5.2419 C   0  0  2  0  0  0  0  0  0  0  0  0
   16.6385   69.7911   -2.2470 H   0  0  0  0  0  0  0  0  0  0  0  0
   16.6263   68.0671   -4.1363 H   0  0  0  0  0  0  0  0  0  0  0  0
   16.0679   70.2333   -7.2126 O   0  0  0  0  0  0  0  0  0  0  0  0
   19.1871   70.4484  -10.5987 O   0  0  0  0  0  0  0  0  0  0  0  0
   18.2801   70.7255   -6.6462 N   0  0  0  0  0  0  0  0  0  0  0  0
   17.6226   70.3411   -8.8971 N   0  0  0  0  0  0  0  0  0  0  0  0
   17.2381   70.4197   -7.5524 C   0  0  0  0  0  0  0  0  0  0  0  0
   19.5753   70.9241   -7.1121 C   0  0  0  0  0  0  0  0  0  0  0  0
   19.9257   70.8442   -8.3975 C   0  0  0  0  0  0  0  0  0  0  0  0
   18.8966   70.5289   -9.4092 C   0  0  0  0  0  0  0  0  0  0  0  0
   16.9134   70.1288   -9.5465 H   0  0  0  0  0  0  0  0  0  0  0  0
   23.1106   73.1835   -2.8706 O   0  0  0  0  0  0  0  0  0  0  0  0
   22.1107   74.4321   -3.1034 P   0  0  2  0  0  0  0  0  0  0  0  0
   22.7875   75.6166   -2.2337 O   0  0  0  0  0  0  0  0  0  0  0  0
   20.6788   74.1473   -2.7533 O   0  0  0  0  0  0  0  0  0  0  0  0
   22.3501   74.8662   -4.6394 O   0  0  0  0  0  0  0  0  0  0  0  0
   20.7253   75.4021   -6.2793 O   0  0  0  0  0  0  0  0  0  0  0  0
   23.5728   73.6661   -8.7143 O   0  0  0  0  0  0  0  0  0  0  0  0
   23.1822   76.5103   -8.7942 O   0  0  0  0  0  0  0  0  0  0  0  0
   23.0566   72.5678   -6.0862 O   0  0  0  0  0  0  0  0  0  0  0  0
   23.1012   74.4364   -7.6053 C   0  0  1  0  0  0  0  0  0  0  0  0
   22.2850   75.6105   -8.1495 C   0  0  1  0  0  0  0  0  0  0  0  0
   22.2365   73.5484   -6.7125 C   0  0  2  0  0  0  0  0  0  0  0  0
   21.5267   76.3268   -7.0239 C   0  0  1  0  0  0  0  0  0  0  0  0
   21.4881   74.3658   -5.6580 C   0  0  1  0  0  0  0  0  0  0  0  0
   24.1230   74.2240   -9.2849 H   0  0  0  0  0  0  0  0  0  0  0  0
   23.6550   76.0453   -9.5024 H   0  0  0  0  0  0  0  0  0  0  0  0
   23.5247   72.0570   -6.7642 H   0  0  0  0  0  0  0  0  0  0  0  0
   19.4579   76.7634   -8.1368 O   0  0  0  0  0  0  0  0  0  0  0  0
   20.5841   77.4008   -7.5627 C   0  0  0  0  0  0  0  0  0  0  0  0
   18.8490   77.4347   -8.4837 H   0  0  0  0  0  0  0  0  0  0  0  0
 25 28  1  0
 25 24  1  0
 25 26  1  1
 25 27  2  0
  1  4  1  0
  1 24  1  0
  1  2  1  6
  1  3  2  0
  6 11  1  0
  6 12  1  0
 29 36  1  0
 29 37  1  0
  9  7  1  1
  7 13  1  0
 10  8  1  1
  8 14  1  0
 37 28  1  1
  4  5  1  0
 33 30  1  6
 30 38  1  0
 34 31  1  1
 31 39  1  0
 35 32  1  1
 32 40  1  0
 41 42  1  0
 41 43  1  0
 15 19  2  0
 16 22  2  0
 12 17  1  6
 17 19  1  0
 17 20  1  0
 18 19  1  0
 18 22  1  0
 18 23  1  0
  9 10  1  0
  9 11  1  0
 10 12  1  0
 11  5  1  6
 33 34  1  0
 33 35  1  0
 34 36  1  0
 35 37  1  0
 36 42  1  6
 20 21  2  0
 21 22  1  0
M  CHG  2   2  -1  26  -1
M  END
>  <COMPND>  (21) 
    8629 

>  <AUTHOR>  (21) 
    GENERATED BY OPEN BABEL 3.1.1

>  <MASTER>  (21) 
        0    0    0    0    0    0    0    0   58    0   58    0

>  <minimizedAffinity>  (21) 
-7.27091

>  <CNNscore>  (21) 
0.9138426185

>  <CNNaffinity>  (21) 
4.6588959694

>  <CNN_VS>  (21) 
4.2574977875

>  <CNNaffinity_variance>  (21) 
0.3290936649

$$$$
22
     RDKit          3D

 43 45  0  0  0  0  0  0  0  0999 V2000
   22.6166   71.9389   -3.5479 P   0  0  2  0  0  0  0  0  0  0  0  0
   22.1127   72.1040   -5.0764 O   0  0  0  0  0  0  0  0  0  0  0  0
   24.0533   71.5341   -3.3944 O   0  0  0  0  0  0  0  0  0  0  0  0
   21.5303   70.9385   -2.8868 O   0  0  0  0  0  0  0  0  0  0  0  0
   20.6383   70.2472   -3.7437 C   0  0  0  0  0  0  0  0  0  0  0  0
   18.8357   71.4887   -4.7351 O   0  0  0  0  0  0  0  0  0  0  0  0
   17.0851   70.2681   -2.6289 O   0  0  0  0  0  0  0  0  0  0  0  0
   16.5233   68.7486   -4.8226 O   0  0  0  0  0  0  0  0  0  0  0  0
   18.1898   69.6956   -3.3269 C   0  0  1  0  0  0  0  0  0  0  0  0
   17.7956   69.3593   -4.7499 C   0  0  2  0  0  0  0  0  0  0  0  0
   19.2307   70.7886   -3.5351 C   0  0  1  0  0  0  0  0  0  0  0  0
   17.8280   70.7240   -5.4167 C   0  0  2  0  0  0  0  0  0  0  0  0
   16.4073   69.5887   -2.4840 H   0  0  0  0  0  0  0  0  0  0  0  0
   16.5541   67.8837   -4.3848 H   0  0  0  0  0  0  0  0  0  0  0  0
   16.0078   70.0324   -7.4628 O   0  0  0  0  0  0  0  0  0  0  0  0
   19.2347   70.4508  -10.7267 O   0  0  0  0  0  0  0  0  0  0  0  0
   18.1655   70.6449   -6.8100 N   0  0  0  0  0  0  0  0  0  0  0  0
   17.6160   70.2415   -9.0863 N   0  0  0  0  0  0  0  0  0  0  0  0
   17.1775   70.2876   -7.7568 C   0  0  0  0  0  0  0  0  0  0  0  0
   19.4639   70.9202   -7.2252 C   0  0  0  0  0  0  0  0  0  0  0  0
   19.8663   70.8705   -8.4968 C   0  0  0  0  0  0  0  0  0  0  0  0
   18.8956   70.5053   -9.5486 C   0  0  0  0  0  0  0  0  0  0  0  0
   16.9450   69.9944   -9.7635 H   0  0  0  0  0  0  0  0  0  0  0  0
   22.2455   73.3664   -2.8866 O   0  0  0  0  0  0  0  0  0  0  0  0
   23.1788   74.4910   -2.1956 P   0  0  2  0  0  0  0  0  0  0  0  0
   22.1078   75.5001   -1.5233 O   0  0  0  0  0  0  0  0  0  0  0  0
   24.1457   75.1507   -3.1357 O   0  0  0  0  0  0  0  0  0  0  0  0
   23.8690   73.7376   -0.9462 O   0  0  0  0  0  0  0  0  0  0  0  0
   22.3170   72.9334    0.6541 O   0  0  0  0  0  0  0  0  0  0  0  0
   25.7985   72.4867    2.8290 O   0  0  0  0  0  0  0  0  0  0  0  0
   24.4632   70.1628    1.7971 O   0  0  0  0  0  0  0  0  0  0  0  0
   25.4522   74.7942    1.1159 O   0  0  0  0  0  0  0  0  0  0  0  0
   24.9911   72.4910    1.6485 C   0  0  1  0  0  0  0  0  0  0  0  0
   23.8747   71.4602    1.8273 C   0  0  1  0  0  0  0  0  0  0  0  0
   24.4062   73.8879    1.4489 C   0  0  2  0  0  0  0  0  0  0  0  0
   22.8165   71.5927    0.7239 C   0  0  1  0  0  0  0  0  0  0  0  0
   23.3290   73.8992    0.3628 C   0  0  1  0  0  0  0  0  0  0  0  0
   26.1733   71.6026    2.9613 H   0  0  0  0  0  0  0  0  0  0  0  0
   25.1299   70.0925    2.4984 H   0  0  0  0  0  0  0  0  0  0  0  0
   26.1275   74.7780    1.8112 H   0  0  0  0  0  0  0  0  0  0  0  0
   20.7889   70.7073   -0.1783 O   0  0  0  0  0  0  0  0  0  0  0  0
   21.6159   70.6817    0.9705 C   0  0  0  0  0  0  0  0  0  0  0  0
   20.0208   70.1316   -0.0359 H   0  0  0  0  0  0  0  0  0  0  0  0
 25 28  1  0
 25 24  1  0
 25 26  1  1
 25 27  2  0
  1  4  1  0
  1 24  1  0
  1  2  1  6
  1  3  2  0
  6 11  1  0
  6 12  1  0
 29 36  1  0
 29 37  1  0
  9  7  1  1
  7 13  1  0
 10  8  1  1
  8 14  1  0
 37 28  1  6
  4  5  1  0
 33 30  1  1
 30 38  1  0
 34 31  1  6
 31 39  1  0
 35 32  1  6
 32 40  1  0
 41 42  1  0
 41 43  1  0
 15 19  2  0
 16 22  2  0
 12 17  1  6
 17 19  1  0
 17 20  1  0
 18 19  1  0
 18 22  1  0
 18 23  1  0
  9 10  1  0
  9 11  1  0
 10 12  1  0
 11  5  1  6
 33 34  1  0
 33 35  1  0
 34 36  1  0
 35 37  1  0
 36 42  1  1
 20 21  2  0
 21 22  1  0
M  CHG  2   2  -1  26  -1
M  END
>  <COMPND>  (22) 
    8629 

>  <AUTHOR>  (22) 
    GENERATED BY OPEN BABEL 3.1.1

>  <MASTER>  (22) 
        0    0    0    0    0    0    0    0   58    0   58    0

>  <minimizedAffinity>  (22) 
-7.63649

>  <CNNscore>  (22) 
0.8946382403

>  <CNNaffinity>  (22) 
4.6961135864

>  <CNN_VS>  (22) 
4.2013230324

>  <CNNaffinity_variance>  (22) 
0.0761322379

$$$$
23
     RDKit          3D

 43 45  0  0  0  0  0  0  0  0999 V2000
   23.1833   72.0715   -3.2401 P   0  0  2  0  0  0  0  0  0  0  0  0
   23.7574   73.4143   -3.9364 O   0  0  0  0  0  0  0  0  0  0  0  0
   24.1654   70.9418   -3.1362 O   0  0  0  0  0  0  0  0  0  0  0  0
   21.8305   71.7525   -4.0684 O   0  0  0  0  0  0  0  0  0  0  0  0
   21.0499   70.6342   -3.6835 C   0  0  0  0  0  0  0  0  0  0  0  0
   19.1071   71.7185   -4.5910 O   0  0  0  0  0  0  0  0  0  0  0  0
   17.5885   70.4871   -2.3176 O   0  0  0  0  0  0  0  0  0  0  0  0
   16.9744   68.8411   -4.4034 O   0  0  0  0  0  0  0  0  0  0  0  0
   18.6766   69.9530   -3.0701 C   0  0  1  0  0  0  0  0  0  0  0  0
   18.2069   69.5309   -4.4466 C   0  0  2  0  0  0  0  0  0  0  0  0
   19.6284   71.0973   -3.3957 C   0  0  1  0  0  0  0  0  0  0  0  0
   18.1056   70.8644   -5.1675 C   0  0  2  0  0  0  0  0  0  0  0  0
   16.9673   69.7746   -2.0975 H   0  0  0  0  0  0  0  0  0  0  0  0
   17.0909   67.9998   -3.9350 H   0  0  0  0  0  0  0  0  0  0  0  0
   16.1755   70.0394   -7.0574 O   0  0  0  0  0  0  0  0  0  0  0  0
   19.1563   70.4409  -10.5495 O   0  0  0  0  0  0  0  0  0  0  0  0
   18.3501   70.7448   -6.5772 N   0  0  0  0  0  0  0  0  0  0  0  0
   17.6612   70.2402   -8.7947 N   0  0  0  0  0  0  0  0  0  0  0  0
   17.3128   70.3212   -7.4404 C   0  0  0  0  0  0  0  0  0  0  0  0
   19.6068   71.0464   -7.0907 C   0  0  0  0  0  0  0  0  0  0  0  0
   19.9232   70.9628   -8.3846 C   0  0  0  0  0  0  0  0  0  0  0  0
   18.8964   70.5279   -9.3534 C   0  0  0  0  0  0  0  0  0  0  0  0
   16.9546   69.9468   -9.4148 H   0  0  0  0  0  0  0  0  0  0  0  0
   22.6230   72.6084   -1.8221 O   0  0  0  0  0  0  0  0  0  0  0  0
   23.3774   72.8893   -0.4203 P   0  0  2  0  0  0  0  0  0  0  0  0
   24.2462   74.2193   -0.7265 O   0  0  0  0  0  0  0  0  0  0  0  0
   24.1811   71.7282    0.0894 O   0  0  0  0  0  0  0  0  0  0  0  0
   22.2111   73.3855    0.5790 O   0  0  0  0  0  0  0  0  0  0  0  0
   21.9114   72.2145    2.6175 O   0  0  0  0  0  0  0  0  0  0  0  0
   18.2413   74.0934    2.3901 O   0  0  0  0  0  0  0  0  0  0  0  0
   20.1767   74.9903    4.3131 O   0  0  0  0  0  0  0  0  0  0  0  0
   19.4866   73.0619   -0.0109 O   0  0  0  0  0  0  0  0  0  0  0  0
   19.6552   73.9702    2.2135 C   0  0  1  0  0  0  0  0  0  0  0  0
   20.2945   73.7689    3.5888 C   0  0  1  0  0  0  0  0  0  0  0  0
   19.9427   72.7750    1.3068 C   0  0  2  0  0  0  0  0  0  0  0  0
   21.7692   73.3640    3.4603 C   0  0  1  0  0  0  0  0  0  0  0  0
   21.4319   72.4256    1.2880 C   0  0  1  0  0  0  0  0  0  0  0  0
   18.0519   74.8508    2.9645 H   0  0  0  0  0  0  0  0  0  0  0  0
   19.2408   75.2349    4.3867 H   0  0  0  0  0  0  0  0  0  0  0  0
   18.5427   73.2812    0.0144 H   0  0  0  0  0  0  0  0  0  0  0  0
   23.5130   73.8316    5.0254 O   0  0  0  0  0  0  0  0  0  0  0  0
   22.3836   73.0051    4.8115 C   0  0  0  0  0  0  0  0  0  0  0  0
   23.9142   73.6146    5.8819 H   0  0  0  0  0  0  0  0  0  0  0  0
 25 28  1  0
 25 24  1  0
 25 26  1  6
 25 27  2  0
  1  4  1  0
  1 24  1  0
  1  2  1  6
  1  3  2  0
  6 11  1  0
  6 12  1  0
 29 36  1  0
 29 37  1  0
  9  7  1  1
  7 13  1  0
 10  8  1  1
  8 14  1  0
 37 28  1  1
  4  5  1  0
 33 30  1  1
 30 38  1  0
 34 31  1  1
 31 39  1  0
 35 32  1  6
 32 40  1  0
 41 42  1  0
 41 43  1  0
 15 19  2  0
 16 22  2  0
 12 17  1  6
 17 19  1  0
 17 20  1  0
 18 19  1  0
 18 22  1  0
 18 23  1  0
  9 10  1  0
  9 11  1  0
 10 12  1  0
 11  5  1  6
 33 34  1  0
 33 35  1  0
 34 36  1  0
 35 37  1  0
 36 42  1  1
 20 21  2  0
 21 22  1  0
M  CHG  2   2  -1  26  -1
M  END
>  <COMPND>  (23) 
    8629 

>  <AUTHOR>  (23) 
    GENERATED BY OPEN BABEL 3.1.1

>  <MASTER>  (23) 
        0    0    0    0    0    0    0    0   58    0   58    0

>  <minimizedAffinity>  (23) 
-6.72491

>  <CNNscore>  (23) 
0.8767108321

>  <CNNaffinity>  (23) 
4.6072320938

>  <CNN_VS>  (23) 
4.0392103195

>  <CNNaffinity_variance>  (23) 
0.0138117950

$$$$
24
     RDKit          3D

 43 45  0  0  0  0  0  0  0  0999 V2000
   20.9956   71.5892   -1.2766 P   0  0  2  0  0  0  0  0  0  0  0  0
   21.4486   72.6985   -2.3636 O   0  0  0  0  0  0  0  0  0  0  0  0
   22.0773   71.1442   -0.3367 O   0  0  0  0  0  0  0  0  0  0  0  0
   20.3182   70.4232   -2.1706 O   0  0  0  0  0  0  0  0  0  0  0  0
   19.9160   70.7330   -3.4935 C   0  0  0  0  0  0  0  0  0  0  0  0
   18.1398   71.7529   -4.7502 O   0  0  0  0  0  0  0  0  0  0  0  0
   16.2646   70.3985   -2.8423 O   0  0  0  0  0  0  0  0  0  0  0  0
   16.1536   68.7802   -5.0344 O   0  0  0  0  0  0  0  0  0  0  0  0
   17.5041   69.9322   -3.3729 C   0  0  1  0  0  0  0  0  0  0  0  0
   17.3357   69.5247   -4.8218 C   0  0  2  0  0  0  0  0  0  0  0  0
   18.4448   71.1254   -3.4854 C   0  0  1  0  0  0  0  0  0  0  0  0
   17.3140   70.8701   -5.5271 C   0  0  2  0  0  0  0  0  0  0  0  0
   15.6473   69.6540   -2.7610 H   0  0  0  0  0  0  0  0  0  0  0  0
   16.2161   67.9332   -4.5658 H   0  0  0  0  0  0  0  0  0  0  0  0
   15.7916   70.1703   -7.8009 O   0  0  0  0  0  0  0  0  0  0  0  0
   19.4257   70.6209  -10.5994 O   0  0  0  0  0  0  0  0  0  0  0  0
   17.8369   70.7971   -6.8623 N   0  0  0  0  0  0  0  0  0  0  0  0
   17.6023   70.3954   -9.1925 N   0  0  0  0  0  0  0  0  0  0  0  0
   16.9882   70.4349   -7.9342 C   0  0  0  0  0  0  0  0  0  0  0  0
   19.1772   71.0831   -7.0982 C   0  0  0  0  0  0  0  0  0  0  0  0
   19.7477   71.0396   -8.3040 C   0  0  0  0  0  0  0  0  0  0  0  0
   18.9305   70.6699   -9.4777 C   0  0  0  0  0  0  0  0  0  0  0  0
   17.0306   70.1452   -9.9543 H   0  0  0  0  0  0  0  0  0  0  0  0
   19.7237   72.2819   -0.5587 O   0  0  0  0  0  0  0  0  0  0  0  0
   19.5813   73.6921    0.2186 P   0  0  2  0  0  0  0  0  0  0  0  0
   18.0181   73.7307    0.6337 O   0  0  0  0  0  0  0  0  0  0  0  0
   20.0410   74.8810   -0.5745 O   0  0  0  0  0  0  0  0  0  0  0  0
   20.3675   73.4722    1.6109 O   0  0  0  0  0  0  0  0  0  0  0  0
   20.6778   74.9592    3.4300 O   0  0  0  0  0  0  0  0  0  0  0  0
   24.3341   73.0421    3.5138 O   0  0  0  0  0  0  0  0  0  0  0  0
   22.3946   72.4864    5.5577 O   0  0  0  0  0  0  0  0  0  0  0  0
   23.0935   73.6751    0.9762 O   0  0  0  0  0  0  0  0  0  0  0  0
   22.9210   73.1448    3.3193 C   0  0  1  0  0  0  0  0  0  0  0  0
   22.2846   73.5734    4.6430 C   0  0  1  0  0  0  0  0  0  0  0  0
   22.6409   74.1773    2.2289 C   0  0  2  0  0  0  0  0  0  0  0  0
   20.8127   73.9624    4.4498 C   0  0  1  0  0  0  0  0  0  0  0  0
   21.1543   74.5297    2.1531 C   0  0  1  0  0  0  0  0  0  0  0  0
   24.5187   72.3877    4.2046 H   0  0  0  0  0  0  0  0  0  0  0  0
   23.3288   72.2504    5.6705 H   0  0  0  0  0  0  0  0  0  0  0  0
   24.0359   73.4561    1.0371 H   0  0  0  0  0  0  0  0  0  0  0  0
   19.1802   75.4514    5.3591 O   0  0  0  0  0  0  0  0  0  0  0  0
   20.2024   74.5423    5.7239 C   0  0  0  0  0  0  0  0  0  0  0  0
   18.7825   75.8281    6.1601 H   0  0  0  0  0  0  0  0  0  0  0  0
 25 28  1  0
 25 24  1  0
 25 26  1  1
 25 27  2  0
  1  4  1  0
  1 24  1  0
  1  2  1  6
  1  3  2  0
  6 11  1  0
  6 12  1  0
 29 36  1  0
 29 37  1  0
  9  7  1  6
  7 13  1  0
 10  8  1  1
  8 14  1  0
 37 28  1  1
  4  5  1  0
 33 30  1  1
 30 38  1  0
 34 31  1  1
 31 39  1  0
 35 32  1  6
 32 40  1  0
 41 42  1  0
 41 43  1  0
 15 19  2  0
 16 22  2  0
 12 17  1  6
 17 19  1  0
 17 20  1  0
 18 19  1  0
 18 22  1  0
 18 23  1  0
  9 10  1  0
  9 11  1  0
 10 12  1  0
 11  5  1  6
 33 34  1  0
 33 35  1  0
 34 36  1  0
 35 37  1  0
 36 42  1  1
 20 21  2  0
 21 22  1  0
M  CHG  2   2  -1  26  -1
M  END
>  <COMPND>  (24) 
    8629 

>  <AUTHOR>  (24) 
    GENERATED BY OPEN BABEL 3.1.1

>  <MASTER>  (24) 
        0    0    0    0    0    0    0    0   58    0   58    0

>  <minimizedAffinity>  (24) 
-6.42253

>  <CNNscore>  (24) 
0.8468511105

>  <CNNaffinity>  (24) 
4.3480720520

>  <CNN_VS>  (24) 
3.6821696758

>  <CNNaffinity_variance>  (24) 
0.0407620147

$$$$
25
     RDKit          3D

 43 45  0  0  0  0  0  0  0  0999 V2000
   20.6668   71.2185   -1.3192 P   0  0  2  0  0  0  0  0  0  0  0  0
   21.6389   70.7637   -2.5298 O   0  0  0  0  0  0  0  0  0  0  0  0
   20.8808   70.4882   -0.0261 O   0  0  0  0  0  0  0  0  0  0  0  0
   19.1815   71.1078   -1.9513 O   0  0  0  0  0  0  0  0  0  0  0  0
   18.8970   71.8255   -3.1394 C   0  0  0  0  0  0  0  0  0  0  0  0
   17.1416   72.2419   -4.7266 O   0  0  0  0  0  0  0  0  0  0  0  0
   15.3681   70.6606   -2.8977 O   0  0  0  0  0  0  0  0  0  0  0  0
   15.9663   68.8558   -4.8526 O   0  0  0  0  0  0  0  0  0  0  0  0
   16.7472   70.4666   -3.2073 C   0  0  1  0  0  0  0  0  0  0  0  0
   16.8974   69.8880   -4.5988 C   0  0  2  0  0  0  0  0  0  0  0  0
   17.3909   71.8388   -3.3621 C   0  0  1  0  0  0  0  0  0  0  0  0
   16.6697   71.1089   -5.4738 C   0  0  2  0  0  0  0  0  0  0  0  0
   14.9358   69.7979   -2.7937 H   0  0  0  0  0  0  0  0  0  0  0  0
   16.1528   68.1019   -4.2716 H   0  0  0  0  0  0  0  0  0  0  0  0
   15.6253   70.0232   -7.8631 O   0  0  0  0  0  0  0  0  0  0  0  0
   19.5218   70.8794  -10.1709 O   0  0  0  0  0  0  0  0  0  0  0  0
   17.3893   71.0358   -6.7141 N   0  0  0  0  0  0  0  0  0  0  0  0
   17.5662   70.4506   -9.0103 N   0  0  0  0  0  0  0  0  0  0  0  0
   16.7739   70.4707   -7.8554 C   0  0  0  0  0  0  0  0  0  0  0  0
   18.6902   71.5213   -6.7901 C   0  0  0  0  0  0  0  0  0  0  0  0
   19.4328   71.4934   -7.8987 C   0  0  0  0  0  0  0  0  0  0  0  0
   18.8644   70.9195   -9.1355 C   0  0  0  0  0  0  0  0  0  0  0  0
   17.1585   70.0612   -9.8177 H   0  0  0  0  0  0  0  0  0  0  0  0
   20.9092   72.8147   -1.2385 O   0  0  0  0  0  0  0  0  0  0  0  0
   22.2328   73.6706   -0.8805 P   0  0  2  0  0  0  0  0  0  0  0  0
   21.8018   75.1881   -1.2396 O   0  0  0  0  0  0  0  0  0  0  0  0
   23.4771   73.1993   -1.5759 O   0  0  0  0  0  0  0  0  0  0  0  0
   22.3152   73.6408    0.7311 O   0  0  0  0  0  0  0  0  0  0  0  0
   24.4281   73.0612    1.6345 O   0  0  0  0  0  0  0  0  0  0  0  0
   22.1087   72.5743    5.0160 O   0  0  0  0  0  0  0  0  0  0  0  0
   23.8886   74.8204    4.8287 O   0  0  0  0  0  0  0  0  0  0  0  0
   21.0757   71.7829    2.4302 O   0  0  0  0  0  0  0  0  0  0  0  0
   22.5001   73.1790    3.7804 C   0  0  1  0  0  0  0  0  0  0  0  0
   23.9266   73.7097    3.9370 C   0  0  1  0  0  0  0  0  0  0  0  0
   22.4347   72.1324    2.6697 C   0  0  2  0  0  0  0  0  0  0  0  0
   24.5125   74.1314    2.5828 C   0  0  1  0  0  0  0  0  0  0  0  0
   23.0880   72.6349    1.3810 C   0  0  1  0  0  0  0  0  0  0  0  0
   22.1475   73.2337    5.7253 H   0  0  0  0  0  0  0  0  0  0  0  0
   23.5162   74.5408    5.6798 H   0  0  0  0  0  0  0  0  0  0  0  0
   20.6736   71.4660    3.2535 H   0  0  0  0  0  0  0  0  0  0  0  0
   26.7550   73.3293    2.7736 O   0  0  0  0  0  0  0  0  0  0  0  0
   25.9865   74.5154    2.6920 C   0  0  0  0  0  0  0  0  0  0  0  0
   27.6955   73.5582    2.8432 H   0  0  0  0  0  0  0  0  0  0  0  0
 25 28  1  0
 25 24  1  0
 25 26  1  6
 25 27  2  0
  1  4  1  0
  1 24  1  0
  1  2  1  6
  1  3  2  0
  6 11  1  0
  6 12  1  0
 29 36  1  0
 29 37  1  0
  9  7  1  6
  7 13  1  0
 10  8  1  6
  8 14  1  0
 37 28  1  1
  4  5  1  0
 33 30  1  1
 30 38  1  0
 34 31  1  1
 31 39  1  0
 35 32  1  6
 32 40  1  0
 41 42  1  0
 41 43  1  0
 15 19  2  0
 16 22  2  0
 12 17  1  6
 17 19  1  0
 17 20  1  0
 18 19  1  0
 18 22  1  0
 18 23  1  0
  9 10  1  0
  9 11  1  0
 10 12  1  0
 11  5  1  6
 33 34  1  0
 33 35  1  0
 34 36  1  0
 35 37  1  0
 36 42  1  1
 20 21  2  0
 21 22  1  0
M  CHG  2   2  -1  26  -1
M  END
>  <COMPND>  (25) 
    8629 

>  <AUTHOR>  (25) 
    GENERATED BY OPEN BABEL 3.1.1

>  <MASTER>  (25) 
        0    0    0    0    0    0    0    0   58    0   58    0

>  <minimizedAffinity>  (25) 
-6.71268

>  <CNNscore>  (25) 
0.8324371576

>  <CNNaffinity>  (25) 
4.4318132401

>  <CNN_VS>  (25) 
3.6892061234

>  <CNNaffinity_variance>  (25) 
0.1069678813

$$$$
26
     RDKit          3D

 43 45  0  0  0  0  0  0  0  0999 V2000
   22.9223   73.0399   -4.2282 P   0  0  2  0  0  0  0  0  0  0  0  0
   23.3476   73.9655   -5.4851 O   0  0  0  0  0  0  0  0  0  0  0  0
   24.0108   72.1550   -3.6957 O   0  0  0  0  0  0  0  0  0  0  0  0
   21.5870   72.2819   -4.7383 O   0  0  0  0  0  0  0  0  0  0  0  0
   21.0505   71.2442   -3.9363 C   0  0  0  0  0  0  0  0  0  0  0  0
   18.9764   72.0121   -4.8758 O   0  0  0  0  0  0  0  0  0  0  0  0
   17.6506   70.7593   -2.4959 O   0  0  0  0  0  0  0  0  0  0  0  0
   17.2260   68.9102   -4.4548 O   0  0  0  0  0  0  0  0  0  0  0  0
   18.7890   70.3152   -3.2323 C   0  0  1  0  0  0  0  0  0  0  0  0
   18.3611   69.7442   -4.5681 C   0  0  2  0  0  0  0  0  0  0  0  0
   19.5851   71.5445   -3.6521 C   0  0  1  0  0  0  0  0  0  0  0  0
   18.0844   71.0019   -5.3743 C   0  0  2  0  0  0  0  0  0  0  0  0
   17.1267   69.9915   -2.2167 H   0  0  0  0  0  0  0  0  0  0  0  0
   17.4528   68.1242   -3.9338 H   0  0  0  0  0  0  0  0  0  0  0  0
   16.1889   69.9740   -7.1988 O   0  0  0  0  0  0  0  0  0  0  0  0
   19.1236   70.3364  -10.7340 O   0  0  0  0  0  0  0  0  0  0  0  0
   18.3263   70.8173   -6.7774 N   0  0  0  0  0  0  0  0  0  0  0  0
   17.6517   70.1554   -8.9576 N   0  0  0  0  0  0  0  0  0  0  0  0
   17.3076   70.2930   -7.6067 C   0  0  0  0  0  0  0  0  0  0  0  0
   19.5623   71.1551   -7.3178 C   0  0  0  0  0  0  0  0  0  0  0  0
   19.8750   71.0166   -8.6079 C   0  0  0  0  0  0  0  0  0  0  0  0
   18.8667   70.4758   -9.5421 C   0  0  0  0  0  0  0  0  0  0  0  0
   16.9578   69.7918   -9.5543 H   0  0  0  0  0  0  0  0  0  0  0  0
   22.3471   74.1130   -3.1648 O   0  0  0  0  0  0  0  0  0  0  0  0
   23.0351   74.8025   -1.8748 P   0  0  2  0  0  0  0  0  0  0  0  0
   22.3222   76.2531   -1.8050 O   0  0  0  0  0  0  0  0  0  0  0  0
   24.5346   74.8514   -1.9296 O   0  0  0  0  0  0  0  0  0  0  0  0
   22.4380   73.9937   -0.6122 O   0  0  0  0  0  0  0  0  0  0  0  0
   23.3546   73.8075    1.5654 O   0  0  0  0  0  0  0  0  0  0  0  0
   21.5867   70.0873    1.2734 O   0  0  0  0  0  0  0  0  0  0  0  0
   20.4241   72.0793    2.9847 O   0  0  0  0  0  0  0  0  0  0  0  0
   22.8824   71.2555   -1.0365 O   0  0  0  0  0  0  0  0  0  0  0  0
   21.7043   71.4951    1.0506 C   0  0  1  0  0  0  0  0  0  0  0  0
   21.7229   72.1960    2.4104 C   0  0  1  0  0  0  0  0  0  0  0  0
   22.9964   71.7730    0.2847 C   0  0  2  0  0  0  0  0  0  0  0  0
   22.1130   73.6732    2.2670 C   0  0  1  0  0  0  0  0  0  0  0  0
   23.3177   73.2680    0.2427 C   0  0  1  0  0  0  0  0  0  0  0  0
   20.7680   69.9040    1.7589 H   0  0  0  0  0  0  0  0  0  0  0  0
   20.1897   71.1417    3.0694 H   0  0  0  0  0  0  0  0  0  0  0  0
   22.6793   70.3084   -0.9963 H   0  0  0  0  0  0  0  0  0  0  0  0
   21.0129   74.6926    4.1269 O   0  0  0  0  0  0  0  0  0  0  0  0
   22.2914   74.3520    3.6233 C   0  0  0  0  0  0  0  0  0  0  0  0
   21.1108   75.1252    4.9901 H   0  0  0  0  0  0  0  0  0  0  0  0
 25 28  1  0
 25 24  1  0
 25 26  1  1
 25 27  2  0
  1  4  1  0
  1 24  1  0
  1  2  1  6
  1  3  2  0
  6 11  1  0
  6 12  1  0
 29 36  1  0
 29 37  1  0
  9  7  1  1
  7 13  1  0
 10  8  1  1
  8 14  1  0
 37 28  1  6
  4  5  1  0
 33 30  1  1
 30 38  1  0
 34 31  1  6
 31 39  1  0
 35 32  1  6
 32 40  1  0
 41 42  1  0
 41 43  1  0
 15 19  2  0
 16 22  2  0
 12 17  1  6
 17 19  1  0
 17 20  1  0
 18 19  1  0
 18 22  1  0
 18 23  1  0
  9 10  1  0
  9 11  1  0
 10 12  1  0
 11  5  1  6
 33 34  1  0
 33 35  1  0
 34 36  1  0
 35 37  1  0
 36 42  1  1
 20 21  2  0
 21 22  1  0
M  CHG  2   2  -1  26  -1
M  END
>  <COMPND>  (26) 
    8629 

>  <AUTHOR>  (26) 
    GENERATED BY OPEN BABEL 3.1.1

>  <MASTER>  (26) 
        0    0    0    0    0    0    0    0   58    0   58    0

>  <minimizedAffinity>  (26) 
-7.46150

>  <CNNscore>  (26) 
0.8250674605

>  <CNNaffinity>  (26) 
4.6017227173

>  <CNN_VS>  (26) 
3.7967317104

>  <CNNaffinity_variance>  (26) 
0.0343821310

$$$$
27
     RDKit          3D

 43 45  0  0  0  0  0  0  0  0999 V2000
   21.8892   72.6062   -5.5513 P   0  0  2  0  0  0  0  0  0  0  0  0
   21.2961   74.0900   -5.2987 O   0  0  0  0  0  0  0  0  0  0  0  0
   23.1356   72.5553   -6.3852 O   0  0  0  0  0  0  0  0  0  0  0  0
   20.6252   71.7752   -6.1256 O   0  0  0  0  0  0  0  0  0  0  0  0
   20.1473   72.0828   -7.4236 C   0  0  0  0  0  0  0  0  0  0  0  0
   18.9695   70.0413   -6.9557 O   0  0  0  0  0  0  0  0  0  0  0  0
   18.2087   70.0349   -9.8560 O   0  0  0  0  0  0  0  0  0  0  0  0
   15.9506   70.9763   -8.6512 O   0  0  0  0  0  0  0  0  0  0  0  0
   18.3562   71.1388   -8.9644 C   0  0  1  0  0  0  0  0  0  0  0  0
   17.1869   71.1988   -8.0039 C   0  0  2  0  0  0  0  0  0  0  0  0
   19.5203   70.8347   -8.0297 C   0  0  1  0  0  0  0  0  0  0  0  0
   17.5350   70.0996   -7.0146 C   0  0  2  0  0  0  0  0  0  0  0  0
   17.4712   70.2063  -10.4632 H   0  0  0  0  0  0  0  0  0  0  0  0
   15.7742   71.7022   -9.2698 H   0  0  0  0  0  0  0  0  0  0  0  0
   16.3788   68.1509   -5.3283 O   0  0  0  0  0  0  0  0  0  0  0  0
   15.6098   71.2326   -1.9887 O   0  0  0  0  0  0  0  0  0  0  0  0
   17.0247   70.3650   -5.6991 N   0  0  0  0  0  0  0  0  0  0  0  0
   15.9970   69.6869   -3.6667 N   0  0  0  0  0  0  0  0  0  0  0  0
   16.4631   69.3160   -4.9345 C   0  0  0  0  0  0  0  0  0  0  0  0
   17.0843   71.6536   -5.1796 C   0  0  0  0  0  0  0  0  0  0  0  0
   16.6343   71.9911   -3.9693 C   0  0  0  0  0  0  0  0  0  0  0  0
   16.0328   70.9540   -3.1064 C   0  0  0  0  0  0  0  0  0  0  0  0
   15.6013   68.9726   -3.1163 H   0  0  0  0  0  0  0  0  0  0  0  0
   22.0577   72.0223   -4.0535 O   0  0  0  0  0  0  0  0  0  0  0  0
   23.2911   72.1101   -3.0124 P   0  0  2  0  0  0  0  0  0  0  0  0
   23.9708   73.5361   -3.3618 O   0  0  0  0  0  0  0  0  0  0  0  0
   24.2335   70.9431   -3.0749 O   0  0  0  0  0  0  0  0  0  0  0  0
   22.5957   72.3318   -1.5729 O   0  0  0  0  0  0  0  0  0  0  0  0
   23.4606   70.8953    0.1020 O   0  0  0  0  0  0  0  0  0  0  0  0
   20.1714   72.3602    2.1234 O   0  0  0  0  0  0  0  0  0  0  0  0
   22.8025   73.2299    2.8778 O   0  0  0  0  0  0  0  0  0  0  0  0
   19.9853   71.7759   -0.7057 O   0  0  0  0  0  0  0  0  0  0  0  0
   21.2793   72.4203    1.2209 C   0  0  1  0  0  0  0  0  0  0  0  0
   22.5569   72.1269    2.0098 C   0  0  1  0  0  0  0  0  0  0  0  0
   21.0798   71.3845    0.1161 C   0  0  2  0  0  0  0  0  0  0  0  0
   23.7507   71.9102    1.0702 C   0  0  1  0  0  0  0  0  0  0  0  0
   22.3424   71.2108   -0.7299 C   0  0  1  0  0  0  0  0  0  0  0  0
   20.2916   73.0158    2.8271 H   0  0  0  0  0  0  0  0  0  0  0  0
   22.0410   73.3562    3.4655 H   0  0  0  0  0  0  0  0  0  0  0  0
   19.1921   71.8823   -0.1584 H   0  0  0  0  0  0  0  0  0  0  0  0
   24.7956   70.1380    2.2853 O   0  0  0  0  0  0  0  0  0  0  0  0
   24.9995   71.4616    1.8261 C   0  0  0  0  0  0  0  0  0  0  0  0
   25.5825   69.8391    2.7681 H   0  0  0  0  0  0  0  0  0  0  0  0
 25 28  1  0
 25 24  1  0
 25 26  1  6
 25 27  2  0
  1  4  1  0
  1 24  1  0
  1  2  1  1
  1  3  2  0
  6 11  1  0
  6 12  1  0
 29 36  1  0
 29 37  1  0
  9  7  1  6
  7 13  1  0
 10  8  1  6
  8 14  1  0
 37 28  1  1
  4  5  1  0
 33 30  1  1
 30 38  1  0
 34 31  1  1
 31 39  1  0
 35 32  1  6
 32 40  1  0
 41 42  1  0
 41 43  1  0
 15 19  2  0
 16 22  2  0
 12 17  1  1
 17 19  1  0
 17 20  1  0
 18 19  1  0
 18 22  1  0
 18 23  1  0
  9 10  1  0
  9 11  1  0
 10 12  1  0
 11  5  1  1
 33 34  1  0
 33 35  1  0
 34 36  1  0
 35 37  1  0
 36 42  1  1
 20 21  2  0
 21 22  1  0
M  CHG  2   2  -1  26  -1
M  END
>  <COMPND>  (27) 
    8629 

>  <AUTHOR>  (27) 
    GENERATED BY OPEN BABEL 3.1.1

>  <MASTER>  (27) 
        0    0    0    0    0    0    0    0   58    0   58    0

>  <minimizedAffinity>  (27) 
-7.97829

>  <CNNscore>  (27) 
0.7914540172

>  <CNNaffinity>  (27) 
4.5512189865

>  <CNN_VS>  (27) 
3.6020805836

>  <CNNaffinity_variance>  (27) 
0.2531880736

$$$$
28
     RDKit          3D

 43 45  0  0  0  0  0  0  0  0999 V2000
   20.6406   71.5797   -1.3534 P   0  0  2  0  0  0  0  0  0  0  0  0
   20.4006   70.5323   -0.1440 O   0  0  0  0  0  0  0  0  0  0  0  0
   20.4461   73.0225   -0.9903 O   0  0  0  0  0  0  0  0  0  0  0  0
   19.6974   71.0214   -2.5436 O   0  0  0  0  0  0  0  0  0  0  0  0
   19.1594   71.9480   -3.4709 C   0  0  0  0  0  0  0  0  0  0  0  0
   17.2713   71.9991   -4.9563 O   0  0  0  0  0  0  0  0  0  0  0  0
   15.8844   70.2527   -2.9519 O   0  0  0  0  0  0  0  0  0  0  0  0
   16.6521   68.4677   -4.8652 O   0  0  0  0  0  0  0  0  0  0  0  0
   17.2565   70.2640   -3.3423 C   0  0  1  0  0  0  0  0  0  0  0  0
   17.4176   69.6460   -4.7155 C   0  0  2  0  0  0  0  0  0  0  0  0
   17.6605   71.7111   -3.5955 C   0  0  1  0  0  0  0  0  0  0  0  0
   16.9459   70.7688   -5.6237 C   0  0  2  0  0  0  0  0  0  0  0  0
   15.6035   69.3390   -2.7844 H   0  0  0  0  0  0  0  0  0  0  0  0
   16.9909   67.7836   -4.2669 H   0  0  0  0  0  0  0  0  0  0  0  0
   15.6078   70.4144   -8.0858 O   0  0  0  0  0  0  0  0  0  0  0  0
   19.5397   70.7011  -10.4732 O   0  0  0  0  0  0  0  0  0  0  0  0
   17.5953   70.7471   -6.9041 N   0  0  0  0  0  0  0  0  0  0  0  0
   17.5667   70.5576   -9.2725 N   0  0  0  0  0  0  0  0  0  0  0  0
   16.8317   70.5617   -8.0801 C   0  0  0  0  0  0  0  0  0  0  0  0
   18.9741   70.9087   -6.9846 C   0  0  0  0  0  0  0  0  0  0  0  0
   19.6601   70.9011   -8.1294 C   0  0  0  0  0  0  0  0  0  0  0  0
   18.9375   70.7130   -9.4040 C   0  0  0  0  0  0  0  0  0  0  0  0
   17.0558   70.4296  -10.1047 H   0  0  0  0  0  0  0  0  0  0  0  0
   22.1286   71.2094   -1.8650 O   0  0  0  0  0  0  0  0  0  0  0  0
   23.3026   72.1374   -2.4763 P   0  0  2  0  0  0  0  0  0  0  0  0
   24.3403   71.0623   -3.0967 O   0  0  0  0  0  0  0  0  0  0  0  0
   23.9131   73.0881   -1.4878 O   0  0  0  0  0  0  0  0  0  0  0  0
   22.6340   72.8476   -3.7622 O   0  0  0  0  0  0  0  0  0  0  0  0
   23.3908   74.2493   -5.5169 O   0  0  0  0  0  0  0  0  0  0  0  0
   19.9499   76.2848   -4.4837 O   0  0  0  0  0  0  0  0  0  0  0  0
   20.0347   74.7984   -6.9396 O   0  0  0  0  0  0  0  0  0  0  0  0
   21.5897   75.0820   -2.4237 O   0  0  0  0  0  0  0  0  0  0  0  0
   20.7694   75.1307   -4.6878 C   0  0  1  0  0  0  0  0  0  0  0  0
   21.1891   75.0945   -6.1586 C   0  0  1  0  0  0  0  0  0  0  0  0
   21.9953   75.2223   -3.7810 C   0  0  2  0  0  0  0  0  0  0  0  0
   22.2803   74.0422   -6.3976 C   0  0  1  0  0  0  0  0  0  0  0  0
   23.0398   74.1621   -4.1345 C   0  0  1  0  0  0  0  0  0  0  0  0
   19.1695   76.2326   -5.0563 H   0  0  0  0  0  0  0  0  0  0  0  0
   19.3532   75.4700   -6.7791 H   0  0  0  0  0  0  0  0  0  0  0  0
   20.9287   75.7589   -2.2123 H   0  0  0  0  0  0  0  0  0  0  0  0
   22.6067   72.8398   -8.4364 O   0  0  0  0  0  0  0  0  0  0  0  0
   22.8252   74.0970   -7.8232 C   0  0  0  0  0  0  0  0  0  0  0  0
   22.9483   72.8600   -9.3445 H   0  0  0  0  0  0  0  0  0  0  0  0
 25 28  1  0
 25 24  1  0
 25 26  1  6
 25 27  2  0
  1  4  1  0
  1 24  1  0
  1  2  1  1
  1  3  2  0
  6 11  1  0
  6 12  1  0
 29 36  1  0
 29 37  1  0
  9  7  1  6
  7 13  1  0
 10  8  1  1
  8 14  1  0
 37 28  1  6
  4  5  1  0
 33 30  1  6
 30 38  1  0
 34 31  1  6
 31 39  1  0
 35 32  1  1
 32 40  1  0
 41 42  1  0
 41 43  1  0
 15 19  2  0
 16 22  2  0
 12 17  1  6
 17 19  1  0
 17 20  1  0
 18 19  1  0
 18 22  1  0
 18 23  1  0
  9 10  1  0
  9 11  1  0
 10 12  1  0
 11  5  1  6
 33 34  1  0
 33 35  1  0
 34 36  1  0
 35 37  1  0
 36 42  1  6
 20 21  2  0
 21 22  1  0
M  CHG  2   2  -1  26  -1
M  END
>  <COMPND>  (28) 
    8629 

>  <AUTHOR>  (28) 
    GENERATED BY OPEN BABEL 3.1.1

>  <MASTER>  (28) 
        0    0    0    0    0    0    0    0   58    0   58    0

>  <minimizedAffinity>  (28) 
-7.18584

>  <CNNscore>  (28) 
0.7769805193

>  <CNNaffinity>  (28) 
4.4714527130

>  <CNN_VS>  (28) 
3.4742317200

>  <CNNaffinity_variance>  (28) 
0.4174069762

$$$$
29
     RDKit          3D

 43 45  0  0  0  0  0  0  0  0999 V2000
   22.0416   73.0266   -5.2592 P   0  0  2  0  0  0  0  0  0  0  0  0
   21.5833   74.5688   -5.4297 O   0  0  0  0  0  0  0  0  0  0  0  0
   23.3421   72.6752   -5.9199 O   0  0  0  0  0  0  0  0  0  0  0  0
   20.7525   72.1817   -5.7515 O   0  0  0  0  0  0  0  0  0  0  0  0
   20.2584   72.4037   -7.0609 C   0  0  0  0  0  0  0  0  0  0  0  0
   19.2912   70.2518   -6.6051 O   0  0  0  0  0  0  0  0  0  0  0  0
   18.7832   70.0637   -9.5542 O   0  0  0  0  0  0  0  0  0  0  0  0
   16.3375   70.7660   -8.5733 O   0  0  0  0  0  0  0  0  0  0  0  0
   18.7256   71.2047   -8.6998 C   0  0  1  0  0  0  0  0  0  0  0  0
   17.4805   71.1547   -7.8390 C   0  0  2  0  0  0  0  0  0  0  0  0
   19.8343   71.0713   -7.6633 C   0  0  1  0  0  0  0  0  0  0  0  0
   17.8697   70.1366   -6.7808 C   0  0  2  0  0  0  0  0  0  0  0  0
   18.0845   70.1266  -10.2249 H   0  0  0  0  0  0  0  0  0  0  0  0
   16.1304   71.4458   -9.2334 H   0  0  0  0  0  0  0  0  0  0  0  0
   16.3633   68.2141   -5.3621 O   0  0  0  0  0  0  0  0  0  0  0  0
   15.4328   71.1838   -1.9627 O   0  0  0  0  0  0  0  0  0  0  0  0
   17.2231   70.3802   -5.5222 N   0  0  0  0  0  0  0  0  0  0  0  0
   15.9013   69.6943   -3.6705 N   0  0  0  0  0  0  0  0  0  0  0  0
   16.4900   69.3471   -4.8932 C   0  0  0  0  0  0  0  0  0  0  0  0
   17.3196   71.6321   -4.9245 C   0  0  0  0  0  0  0  0  0  0  0  0
   16.7513   71.9474   -3.7588 C   0  0  0  0  0  0  0  0  0  0  0  0
   15.9675   70.9248   -3.0364 C   0  0  0  0  0  0  0  0  0  0  0  0
   15.3853   68.9905   -3.2142 H   0  0  0  0  0  0  0  0  0  0  0  0
   22.0229   72.8169   -3.6565 O   0  0  0  0  0  0  0  0  0  0  0  0
   22.4432   71.5485   -2.7469 P   0  0  2  0  0  0  0  0  0  0  0  0
   23.9868   71.2922   -3.1581 O   0  0  0  0  0  0  0  0  0  0  0  0
   21.5518   70.3516   -2.9107 O   0  0  0  0  0  0  0  0  0  0  0  0
   22.5131   72.1296   -1.2428 O   0  0  0  0  0  0  0  0  0  0  0  0
   24.0877   71.7814    0.4939 O   0  0  0  0  0  0  0  0  0  0  0  0
   20.6283   71.8662    2.7469 O   0  0  0  0  0  0  0  0  0  0  0  0
   22.4487   74.0846    2.8598 O   0  0  0  0  0  0  0  0  0  0  0  0
   20.6297   70.5852    0.1510 O   0  0  0  0  0  0  0  0  0  0  0  0
   21.4920   72.2427    1.6710 C   0  0  1  0  0  0  0  0  0  0  0  0
   22.7728   72.8299    2.2673 C   0  0  1  0  0  0  0  0  0  0  0  0
   21.8079   71.0080    0.8290 C   0  0  2  0  0  0  0  0  0  0  0  0
   23.8527   73.0099    1.1920 C   0  0  1  0  0  0  0  0  0  0  0  0
   22.9287   71.2811   -0.1757 C   0  0  1  0  0  0  0  0  0  0  0  0
   20.4234   72.6458    3.2852 H   0  0  0  0  0  0  0  0  0  0  0  0
   21.7654   73.9570    3.5367 H   0  0  0  0  0  0  0  0  0  0  0  0
   19.9280   70.4152    0.7979 H   0  0  0  0  0  0  0  0  0  0  0  0
   25.1171   74.8270    2.0910 O   0  0  0  0  0  0  0  0  0  0  0  0
   25.1886   73.4455    1.7902 C   0  0  0  0  0  0  0  0  0  0  0  0
   25.9603   75.1182    2.4729 H   0  0  0  0  0  0  0  0  0  0  0  0
 25 28  1  0
 25 24  1  0
 25 26  1  6
 25 27  2  0
  1  4  1  0
  1 24  1  0
  1  2  1  1
  1  3  2  0
  6 11  1  0
  6 12  1  0
 29 36  1  0
 29 37  1  0
  9  7  1  6
  7 13  1  0
 10  8  1  6
  8 14  1  0
 37 28  1  6
  4  5  1  0
 33 30  1  1
 30 38  1  0
 34 31  1  6
 31 39  1  0
 35 32  1  6
 32 40  1  0
 41 42  1  0
 41 43  1  0
 15 19  2  0
 16 22  2  0
 12 17  1  1
 17 19  1  0
 17 20  1  0
 18 19  1  0
 18 22  1  0
 18 23  1  0
  9 10  1  0
  9 11  1  0
 10 12  1  0
 11  5  1  1
 33 34  1  0
 33 35  1  0
 34 36  1  0
 35 37  1  0
 36 42  1  1
 20 21  2  0
 21 22  1  0
M  CHG  2   2  -1  26  -1
M  END
>  <COMPND>  (29) 
    8629 

>  <AUTHOR>  (29) 
    GENERATED BY OPEN BABEL 3.1.1

>  <MASTER>  (29) 
        0    0    0    0    0    0    0    0   58    0   58    0

>  <minimizedAffinity>  (29) 
-7.47852

>  <CNNscore>  (29) 
0.7598736882

>  <CNNaffinity>  (29) 
4.5414514542

>  <CNN_VS>  (29) 
3.4509294033

>  <CNNaffinity_variance>  (29) 
0.1200985163

$$$$
30
     RDKit          3D

 43 45  0  0  0  0  0  0  0  0999 V2000
   21.4283   74.1630   -4.9355 P   0  0  2  0  0  0  0  0  0  0  0  0
   20.7948   75.5478   -5.4819 O   0  0  0  0  0  0  0  0  0  0  0  0
   21.8497   73.1947   -6.0015 O   0  0  0  0  0  0  0  0  0  0  0  0
   20.3231   73.6171   -3.8875 O   0  0  0  0  0  0  0  0  0  0  0  0
   18.9675   73.5706   -4.2974 C   0  0  0  0  0  0  0  0  0  0  0  0
   17.6600   71.6425   -4.8861 O   0  0  0  0  0  0  0  0  0  0  0  0
   18.6996   70.3995   -2.3633 O   0  0  0  0  0  0  0  0  0  0  0  0
   20.2623   69.2501   -4.2800 O   0  0  0  0  0  0  0  0  0  0  0  0
   19.3603   71.2732   -3.2774 C   0  0  1  0  0  0  0  0  0  0  0  0
   19.7244   70.5296   -4.5455 C   0  0  2  0  0  0  0  0  0  0  0  0
   18.3379   72.2832   -3.7833 C   0  0  1  0  0  0  0  0  0  0  0  0
   18.3890   70.4642   -5.2669 C   0  0  2  0  0  0  0  0  0  0  0  0
   19.3327   69.7456   -2.0264 H   0  0  0  0  0  0  0  0  0  0  0  0
   21.1111   69.3451   -3.8204 H   0  0  0  0  0  0  0  0  0  0  0  0
   16.3519   69.7193   -7.0762 O   0  0  0  0  0  0  0  0  0  0  0  0
   19.0743   70.4430  -10.7239 O   0  0  0  0  0  0  0  0  0  0  0  0
   18.5380   70.4492   -6.6948 N   0  0  0  0  0  0  0  0  0  0  0  0
   17.7091   70.0804   -8.8910 N   0  0  0  0  0  0  0  0  0  0  0  0
   17.4534   70.0579   -7.5140 C   0  0  0  0  0  0  0  0  0  0  0  0
   19.7490   70.8200   -7.2691 C   0  0  0  0  0  0  0  0  0  0  0  0
   19.9771   70.8348   -8.5840 C   0  0  0  0  0  0  0  0  0  0  0  0
   18.8959   70.4399   -9.5098 C   0  0  0  0  0  0  0  0  0  0  0  0
   16.9682   69.8113   -9.4813 H   0  0  0  0  0  0  0  0  0  0  0  0
   22.6251   74.6660   -3.9723 O   0  0  0  0  0  0  0  0  0  0  0  0
   23.8865   73.8737   -3.3445 P   0  0  2  0  0  0  0  0  0  0  0  0
   25.0534   74.9941   -3.3199 O   0  0  0  0  0  0  0  0  0  0  0  0
   24.2509   72.6161   -4.0790 O   0  0  0  0  0  0  0  0  0  0  0  0
   23.4997   73.6540   -1.7930 O   0  0  0  0  0  0  0  0  0  0  0  0
   23.7208   71.5510   -0.7228 O   0  0  0  0  0  0  0  0  0  0  0  0
   20.8087   73.2144    1.6862 O   0  0  0  0  0  0  0  0  0  0  0  0
   23.4823   72.9185    2.6922 O   0  0  0  0  0  0  0  0  0  0  0  0
   20.7639   73.6871   -1.1693 O   0  0  0  0  0  0  0  0  0  0  0  0
   21.9755   73.2204    0.8593 C   0  0  1  0  0  0  0  0  0  0  0  0
   23.0187   72.2995    1.4954 C   0  0  1  0  0  0  0  0  0  0  0  0
   21.6008   72.7252   -0.5363 C   0  0  2  0  0  0  0  0  0  0  0  0
   24.1901   72.0444    0.5373 C   0  0  1  0  0  0  0  0  0  0  0  0
   22.8402   72.4560   -1.3917 C   0  0  1  0  0  0  0  0  0  0  0  0
   21.0396   73.5283    2.5737 H   0  0  0  0  0  0  0  0  0  0  0  0
   22.7329   73.0745    3.2882 H   0  0  0  0  0  0  0  0  0  0  0  0
   19.9828   73.8486   -0.6181 H   0  0  0  0  0  0  0  0  0  0  0  0
   24.4594   70.1543    1.9739 O   0  0  0  0  0  0  0  0  0  0  0  0
   25.1639   71.0052    1.0886 C   0  0  0  0  0  0  0  0  0  0  0  0
   25.0666   69.4875    2.3323 H   0  0  0  0  0  0  0  0  0  0  0  0
 25 28  1  0
 25 24  1  0
 25 26  1  1
 25 27  2  0
  1  4  1  0
  1 24  1  0
  1  2  1  6
  1  3  2  0
  6 11  1  0
  6 12  1  0
 29 36  1  0
 29 37  1  0
  9  7  1  1
  7 13  1  0
 10  8  1  1
  8 14  1  0
 37 28  1  1
  4  5  1  0
 33 30  1  1
 30 38  1  0
 34 31  1  1
 31 39  1  0
 35 32  1  6
 32 40  1  0
 41 42  1  0
 41 43  1  0
 15 19  2  0
 16 22  2  0
 12 17  1  6
 17 19  1  0
 17 20  1  0
 18 19  1  0
 18 22  1  0
 18 23  1  0
  9 10  1  0
  9 11  1  0
 10 12  1  0
 11  5  1  6
 33 34  1  0
 33 35  1  0
 34 36  1  0
 35 37  1  0
 36 42  1  1
 20 21  2  0
 21 22  1  0
M  CHG  2   2  -1  26  -1
M  END
>  <COMPND>  (30) 
    8629 

>  <AUTHOR>  (30) 
    GENERATED BY OPEN BABEL 3.1.1

>  <MASTER>  (30) 
        0    0    0    0    0    0    0    0   58    0   58    0

>  <minimizedAffinity>  (30) 
-6.93394

>  <CNNscore>  (30) 
0.7584916949

>  <CNNaffinity>  (30) 
4.3967933655

>  <CNN_VS>  (30) 
3.3349311352

>  <CNNaffinity_variance>  (30) 
0.0975493491

$$$$
31
     RDKit          3D

 43 45  0  0  0  0  0  0  0  0999 V2000
   22.1997   73.3414   -6.7057 P   0  0  2  0  0  0  0  0  0  0  0  0
   23.2850   72.4698   -5.8813 O   0  0  0  0  0  0  0  0  0  0  0  0
   21.3781   74.2816   -5.8737 O   0  0  0  0  0  0  0  0  0  0  0  0
   21.3682   72.2347   -7.5434 O   0  0  0  0  0  0  0  0  0  0  0  0
   19.9529   72.2609   -7.4790 C   0  0  0  0  0  0  0  0  0  0  0  0
   18.9026   70.1620   -6.9642 O   0  0  0  0  0  0  0  0  0  0  0  0
   18.1519   70.0396   -9.8646 O   0  0  0  0  0  0  0  0  0  0  0  0
   15.8365   70.8675   -8.6857 O   0  0  0  0  0  0  0  0  0  0  0  0
   18.2282   71.1714   -8.9993 C   0  0  1  0  0  0  0  0  0  0  0  0
   17.0546   71.1815   -8.0422 C   0  0  2  0  0  0  0  0  0  0  0  0
   19.4063   70.9623   -8.0560 C   0  0  1  0  0  0  0  0  0  0  0  0
   17.4674   70.1298   -7.0264 C   0  0  2  0  0  0  0  0  0  0  0  0
   17.4070   70.1504  -10.4767 H   0  0  0  0  0  0  0  0  0  0  0  0
   15.6171   71.5661   -9.3218 H   0  0  0  0  0  0  0  0  0  0  0  0
   16.4626   68.1492   -5.2813 O   0  0  0  0  0  0  0  0  0  0  0  0
   15.4596   71.2604   -2.0324 O   0  0  0  0  0  0  0  0  0  0  0  0
   16.9378   70.3942   -5.7183 N   0  0  0  0  0  0  0  0  0  0  0  0
   15.9642   69.6999   -3.6650 N   0  0  0  0  0  0  0  0  0  0  0  0
   16.4576   69.3284   -4.9222 C   0  0  0  0  0  0  0  0  0  0  0  0
   16.8988   71.6984   -5.2371 C   0  0  0  0  0  0  0  0  0  0  0  0
   16.4239   72.0361   -4.0364 C   0  0  0  0  0  0  0  0  0  0  0  0
   15.9030   70.9820   -3.1423 C   0  0  0  0  0  0  0  0  0  0  0  0
   15.6239   68.9741   -3.0930 H   0  0  0  0  0  0  0  0  0  0  0  0
   23.0975   74.0586   -7.8427 O   0  0  0  0  0  0  0  0  0  0  0  0
   23.3333   75.6218   -8.1797 P   0  0  2  0  0  0  0  0  0  0  0  0
   24.3756   76.0948   -7.0363 O   0  0  0  0  0  0  0  0  0  0  0  0
   22.0726   76.4346   -8.2430 O   0  0  0  0  0  0  0  0  0  0  0  0
   24.1971   75.6200   -9.5431 O   0  0  0  0  0  0  0  0  0  0  0  0
   24.9152   73.9011  -11.0082 O   0  0  0  0  0  0  0  0  0  0  0  0
   28.3553   76.1838  -10.9328 O   0  0  0  0  0  0  0  0  0  0  0  0
   26.7122   76.1728  -13.2882 O   0  0  0  0  0  0  0  0  0  0  0  0
   26.7998   75.8362   -8.5164 O   0  0  0  0  0  0  0  0  0  0  0  0
   26.9439   75.9534  -10.9178 C   0  0  1  0  0  0  0  0  0  0  0  0
   26.5599   75.2445  -12.2181 C   0  0  1  0  0  0  0  0  0  0  0  0
   26.5922   75.0878   -9.7093 C   0  0  2  0  0  0  0  0  0  0  0  0
   25.1163   74.7268  -12.1613 C   0  0  1  0  0  0  0  0  0  0  0  0
   25.1490   74.5850   -9.7755 C   0  0  1  0  0  0  0  0  0  0  0  0
   28.5852   76.7333  -11.6974 H   0  0  0  0  0  0  0  0  0  0  0  0
   27.6279   76.4924  -13.3127 H   0  0  0  0  0  0  0  0  0  0  0  0
   27.7171   76.1486   -8.4862 H   0  0  0  0  0  0  0  0  0  0  0  0
   25.9580   73.3325  -13.9096 O   0  0  0  0  0  0  0  0  0  0  0  0
   24.7637   73.8807  -13.3827 C   0  0  0  0  0  0  0  0  0  0  0  0
   25.7489   72.7912  -14.6874 H   0  0  0  0  0  0  0  0  0  0  0  0
 25 28  1  0
 25 24  1  0
 25 26  1  1
 25 27  2  0
  1  4  1  0
  1 24  1  0
  1  2  1  1
  1  3  2  0
  6 11  1  0
  6 12  1  0
 29 36  1  0
 29 37  1  0
  9  7  1  6
  7 13  1  0
 10  8  1  6
  8 14  1  0
 37 28  1  6
  4  5  1  0
 33 30  1  6
 30 38  1  0
 34 31  1  6
 31 39  1  0
 35 32  1  1
 32 40  1  0
 41 42  1  0
 41 43  1  0
 15 19  2  0
 16 22  2  0
 12 17  1  1
 17 19  1  0
 17 20  1  0
 18 19  1  0
 18 22  1  0
 18 23  1  0
  9 10  1  0
  9 11  1  0
 10 12  1  0
 11  5  1  1
 33 34  1  0
 33 35  1  0
 34 36  1  0
 35 37  1  0
 36 42  1  6
 20 21  2  0
 21 22  1  0
M  CHG  2   2  -1  26  -1
M  END
>  <COMPND>  (31) 
    8629 

>  <AUTHOR>  (31) 
    GENERATED BY OPEN BABEL 3.1.1

>  <MASTER>  (31) 
        0    0    0    0    0    0    0    0   58    0   58    0

>  <minimizedAffinity>  (31) 
-6.94065

>  <CNNscore>  (31) 
0.7310556769

>  <CNNaffinity>  (31) 
4.6528382301

>  <CNN_VS>  (31) 
3.4014837742

>  <CNNaffinity_variance>  (31) 
0.5864682198

$$$$
32
     RDKit          3D

 43 45  0  0  0  0  0  0  0  0999 V2000
   23.4541   72.6778   -4.0459 P   0  0  2  0  0  0  0  0  0  0  0  0
   23.1430   72.4958   -5.6231 O   0  0  0  0  0  0  0  0  0  0  0  0
   23.9961   71.4573   -3.3618 O   0  0  0  0  0  0  0  0  0  0  0  0
   22.0728   73.2662   -3.4429 O   0  0  0  0  0  0  0  0  0  0  0  0
   20.9248   73.2813   -4.2733 C   0  0  0  0  0  0  0  0  0  0  0  0
   18.8555   72.1208   -4.6543 O   0  0  0  0  0  0  0  0  0  0  0  0
   19.4778   70.5779   -2.1597 O   0  0  0  0  0  0  0  0  0  0  0  0
   20.1904   68.8334   -4.1308 O   0  0  0  0  0  0  0  0  0  0  0  0
   20.3652   71.0591   -3.1679 C   0  0  1  0  0  0  0  0  0  0  0  0
   20.2453   70.2155   -4.4200 C   0  0  2  0  0  0  0  0  0  0  0  0
   19.8462   72.4102   -3.6439 C   0  0  1  0  0  0  0  0  0  0  0  0
   18.9550   70.7371   -5.0290 C   0  0  2  0  0  0  0  0  0  0  0  0
   19.7889   69.7160   -1.8400 H   0  0  0  0  0  0  0  0  0  0  0  0
   21.0341   68.5498   -3.7455 H   0  0  0  0  0  0  0  0  0  0  0  0
   16.8570   69.5997   -6.5400 O   0  0  0  0  0  0  0  0  0  0  0  0
   19.0337   70.4178  -10.5191 O   0  0  0  0  0  0  0  0  0  0  0  0
   18.9471   70.6401   -6.4615 N   0  0  0  0  0  0  0  0  0  0  0  0
   17.9425   70.0081   -8.5201 N   0  0  0  0  0  0  0  0  0  0  0  0
   17.8451   70.0501   -7.1234 C   0  0  0  0  0  0  0  0  0  0  0  0
   20.0235   71.1272   -7.1949 C   0  0  0  0  0  0  0  0  0  0  0  0
   20.1015   71.0784   -8.5264 C   0  0  0  0  0  0  0  0  0  0  0  0
   18.9917   70.4777   -9.2942 C   0  0  0  0  0  0  0  0  0  0  0  0
   17.1866   69.6012   -9.0025 H   0  0  0  0  0  0  0  0  0  0  0  0
   24.4389   73.9593   -4.0153 O   0  0  0  0  0  0  0  0  0  0  0  0
   24.1785   75.5077   -4.3997 P   0  0  2  0  0  0  0  0  0  0  0  0
   25.5494   76.2380   -3.9471 O   0  0  0  0  0  0  0  0  0  0  0  0
   22.9360   76.0919   -3.7924 O   0  0  0  0  0  0  0  0  0  0  0  0
   24.2131   75.5395   -6.0130 O   0  0  0  0  0  0  0  0  0  0  0  0
   22.9518   77.3835   -6.8038 O   0  0  0  0  0  0  0  0  0  0  0  0
   23.7698   75.5479  -10.4111 O   0  0  0  0  0  0  0  0  0  0  0  0
   25.1075   77.9965   -9.7306 O   0  0  0  0  0  0  0  0  0  0  0  0
   23.1780   73.9431   -8.0758 O   0  0  0  0  0  0  0  0  0  0  0  0
   24.0395   75.9613   -9.0688 C   0  0  1  0  0  0  0  0  0  0  0  0
   23.9833   77.4893   -9.0171 C   0  0  1  0  0  0  0  0  0  0  0  0
   22.9913   75.3529   -8.1390 C   0  0  2  0  0  0  0  0  0  0  0  0
   23.9972   77.9954   -7.5684 C   0  0  1  0  0  0  0  0  0  0  0  0
   23.0596   75.9602   -6.7367 C   0  0  1  0  0  0  0  0  0  0  0  0
   24.4321   75.9304  -11.0065 H   0  0  0  0  0  0  0  0  0  0  0  0
   25.0870   77.6691  -10.6436 H   0  0  0  0  0  0  0  0  0  0  0  0
   23.1322   73.5705   -8.9697 H   0  0  0  0  0  0  0  0  0  0  0  0
   22.4731   79.7488   -7.0099 O   0  0  0  0  0  0  0  0  0  0  0  0
   23.7833   79.5054   -7.4880 C   0  0  0  0  0  0  0  0  0  0  0  0
   22.3229   80.7059   -6.9533 H   0  0  0  0  0  0  0  0  0  0  0  0
 25 28  1  0
 25 24  1  0
 25 26  1  1
 25 27  2  0
  1  4  1  0
  1 24  1  0
  1  2  1  6
  1  3  2  0
  6 11  1  0
  6 12  1  0
 29 36  1  0
 29 37  1  0
  9  7  1  1
  7 13  1  0
 10  8  1  1
  8 14  1  0
 37 28  1  6
  4  5  1  0
 33 30  1  6
 30 38  1  0
 34 31  1  6
 31 39  1  0
 35 32  1  1
 32 40  1  0
 41 42  1  0
 41 43  1  0
 15 19  2  0
 16 22  2  0
 12 17  1  6
 17 19  1  0
 17 20  1  0
 18 19  1  0
 18 22  1  0
 18 23  1  0
  9 10  1  0
  9 11  1  0
 10 12  1  0
 11  5  1  6
 33 34  1  0
 33 35  1  0
 34 36  1  0
 35 37  1  0
 36 42  1  6
 20 21  2  0
 21 22  1  0
M  CHG  2   2  -1  26  -1
M  END
>  <COMPND>  (32) 
    8629 

>  <AUTHOR>  (32) 
    GENERATED BY OPEN BABEL 3.1.1

>  <MASTER>  (32) 
        0    0    0    0    0    0    0    0   58    0   58    0

>  <minimizedAffinity>  (32) 
-6.48186

>  <CNNscore>  (32) 
0.6999244690

>  <CNNaffinity>  (32) 
4.3158001900

>  <CNN_VS>  (32) 
3.0207340717

>  <CNNaffinity_variance>  (32) 
0.1523871869

$$$$
33
     RDKit          3D

 43 45  0  0  0  0  0  0  0  0999 V2000
   22.1838   73.3951   -6.8641 P   0  0  2  0  0  0  0  0  0  0  0  0
   23.2062   72.5819   -5.9098 O   0  0  0  0  0  0  0  0  0  0  0  0
   21.4186   74.4920   -6.1840 O   0  0  0  0  0  0  0  0  0  0  0  0
   21.2887   72.2358   -7.5516 O   0  0  0  0  0  0  0  0  0  0  0  0
   19.9019   72.1923   -7.2640 C   0  0  0  0  0  0  0  0  0  0  0  0
   18.7063   70.1770   -6.7324 O   0  0  0  0  0  0  0  0  0  0  0  0
   18.1302   69.9669   -9.6675 O   0  0  0  0  0  0  0  0  0  0  0  0
   15.7963   70.9679   -8.6738 O   0  0  0  0  0  0  0  0  0  0  0  0
   18.2161   71.1301   -8.8459 C   0  0  1  0  0  0  0  0  0  0  0  0
   16.9881   71.2448   -7.9670 C   0  0  2  0  0  0  0  0  0  0  0  0
   19.3202   70.9005   -7.8215 C   0  0  1  0  0  0  0  0  0  0  0  0
   17.2781   70.2185   -6.8850 C   0  0  2  0  0  0  0  0  0  0  0  0
   17.4317   70.0900  -10.3300 H   0  0  0  0  0  0  0  0  0  0  0  0
   15.6559   71.6485   -9.3505 H   0  0  0  0  0  0  0  0  0  0  0  0
   16.7757   68.3867   -4.7945 O   0  0  0  0  0  0  0  0  0  0  0  0
   14.9954   71.6722   -2.0969 O   0  0  0  0  0  0  0  0  0  0  0  0
   16.6845   70.5681   -5.6253 N   0  0  0  0  0  0  0  0  0  0  0  0
   15.8898   70.0242   -3.4530 N   0  0  0  0  0  0  0  0  0  0  0  0
   16.4744   69.5724   -4.6430 C   0  0  0  0  0  0  0  0  0  0  0  0
   16.3179   71.8858   -5.3739 C   0  0  0  0  0  0  0  0  0  0  0  0
   15.7603   72.3001   -4.2343 C   0  0  0  0  0  0  0  0  0  0  0  0
   15.5067   71.3226   -3.1563 C   0  0  0  0  0  0  0  0  0  0  0  0
   15.7335   69.3480   -2.7543 H   0  0  0  0  0  0  0  0  0  0  0  0
   23.1326   73.8885   -8.0763 O   0  0  0  0  0  0  0  0  0  0  0  0
   23.5930   75.3706   -8.5283 P   0  0  2  0  0  0  0  0  0  0  0  0
   24.6439   75.8003   -7.3758 O   0  0  0  0  0  0  0  0  0  0  0  0
   22.4587   76.3348   -8.7228 O   0  0  0  0  0  0  0  0  0  0  0  0
   24.5018   75.1335   -9.8409 O   0  0  0  0  0  0  0  0  0  0  0  0
   25.5221   77.1039  -10.6735 O   0  0  0  0  0  0  0  0  0  0  0  0
   26.1995   74.6014  -13.8875 O   0  0  0  0  0  0  0  0  0  0  0  0
   28.3892   75.3487  -12.1860 O   0  0  0  0  0  0  0  0  0  0  0  0
   23.6971   74.4482  -12.4405 O   0  0  0  0  0  0  0  0  0  0  0  0
   26.0549   74.9361  -12.5046 C   0  0  1  0  0  0  0  0  0  0  0  0
   27.1136   75.9826  -12.1511 C   0  0  1  0  0  0  0  0  0  0  0  0
   24.6512   75.4908  -12.2694 C   0  0  2  0  0  0  0  0  0  0  0  0
   26.8545   76.5861  -10.7642 C   0  0  1  0  0  0  0  0  0  0  0  0
   24.5148   76.1112  -10.8778 C   0  0  1  0  0  0  0  0  0  0  0  0
   27.0886   74.2481  -14.0434 H   0  0  0  0  0  0  0  0  0  0  0  0
   28.5402   74.9714  -13.0670 H   0  0  0  0  0  0  0  0  0  0  0  0
   23.7935   74.0638  -13.3252 H   0  0  0  0  0  0  0  0  0  0  0  0
   28.3249   78.2325  -11.6787 O   0  0  0  0  0  0  0  0  0  0  0  0
   27.8041   77.7420  -10.4570 C   0  0  0  0  0  0  0  0  0  0  0  0
   28.9308   78.9689  -11.4987 H   0  0  0  0  0  0  0  0  0  0  0  0
 25 28  1  0
 25 24  1  0
 25 26  1  1
 25 27  2  0
  1  4  1  0
  1 24  1  0
  1  2  1  1
  1  3  2  0
  6 11  1  0
  6 12  1  0
 29 36  1  0
 29 37  1  0
  9  7  1  6
  7 13  1  0
 10  8  1  6
  8 14  1  0
 37 28  1  1
  4  5  1  0
 33 30  1  6
 30 38  1  0
 34 31  1  1
 31 39  1  0
 35 32  1  1
 32 40  1  0
 41 42  1  0
 41 43  1  0
 15 19  2  0
 16 22  2  0
 12 17  1  1
 17 19  1  0
 17 20  1  0
 18 19  1  0
 18 22  1  0
 18 23  1  0
  9 10  1  0
  9 11  1  0
 10 12  1  0
 11  5  1  1
 33 34  1  0
 33 35  1  0
 34 36  1  0
 35 37  1  0
 36 42  1  6
 20 21  2  0
 21 22  1  0
M  CHG  2   2  -1  26  -1
M  END
>  <COMPND>  (33) 
    8629 

>  <AUTHOR>  (33) 
    GENERATED BY OPEN BABEL 3.1.1

>  <MASTER>  (33) 
        0    0    0    0    0    0    0    0   58    0   58    0

>  <minimizedAffinity>  (33) 
-6.76969

>  <CNNscore>  (33) 
0.6728971004

>  <CNNaffinity>  (33) 
4.5357036591

>  <CNN_VS>  (33) 
3.0520617962

>  <CNNaffinity_variance>  (33) 
0.5527962446

$$$$
34
     RDKit          3D

 43 45  0  0  0  0  0  0  0  0999 V2000
   23.5201   72.8067   -3.6381 P   0  0  2  0  0  0  0  0  0  0  0  0
   23.9336   71.2900   -3.2558 O   0  0  0  0  0  0  0  0  0  0  0  0
   24.5631   73.5767   -4.3935 O   0  0  0  0  0  0  0  0  0  0  0  0
   23.0557   73.4499   -2.2280 O   0  0  0  0  0  0  0  0  0  0  0  0
   22.0782   74.4756   -2.2420 C   0  0  0  0  0  0  0  0  0  0  0  0
   21.1911   72.7590   -0.8137 O   0  0  0  0  0  0  0  0  0  0  0  0
   19.0959   74.7554   -0.0292 O   0  0  0  0  0  0  0  0  0  0  0  0
   20.8277   74.8533    2.0750 O   0  0  0  0  0  0  0  0  0  0  0  0
   20.4750   74.9651   -0.3280 C   0  0  1  0  0  0  0  0  0  0  0  0
   21.3408   74.4751    0.8139 C   0  0  2  0  0  0  0  0  0  0  0  0
   20.8619   74.0121   -1.4520 C   0  0  1  0  0  0  0  0  0  0  0  0
   21.3206   72.9709    0.6017 C   0  0  2  0  0  0  0  0  0  0  0  0
   18.8256   75.3533    0.6859 H   0  0  0  0  0  0  0  0  0  0  0  0
   20.8618   75.8187    2.1619 H   0  0  0  0  0  0  0  0  0  0  0  0
   21.5322   70.2312    1.2553 O   0  0  0  0  0  0  0  0  0  0  0  0
   25.9896   70.6487    2.3503 O   0  0  0  0  0  0  0  0  0  0  0  0
   22.5246   72.3369    1.0598 N   0  0  0  0  0  0  0  0  0  0  0  0
   23.7515   70.4413    1.7998 N   0  0  0  0  0  0  0  0  0  0  0  0
   22.5242   70.9552    1.3621 C   0  0  0  0  0  0  0  0  0  0  0  0
   23.6888   73.0835    1.2050 C   0  0  0  0  0  0  0  0  0  0  0  0
   24.8508   72.5786    1.6248 C   0  0  0  0  0  0  0  0  0  0  0  0
   24.9357   71.1428    1.9615 C   0  0  0  0  0  0  0  0  0  0  0  0
   23.7750   69.4809    2.0166 H   0  0  0  0  0  0  0  0  0  0  0  0
   22.1226   72.6144   -4.4275 O   0  0  0  0  0  0  0  0  0  0  0  0
   21.6097   73.2125   -5.8390 P   0  0  2  0  0  0  0  0  0  0  0  0
   22.6706   72.6132   -6.9034 O   0  0  0  0  0  0  0  0  0  0  0  0
   21.4848   74.7083   -5.8645 O   0  0  0  0  0  0  0  0  0  0  0  0
   20.2362   72.4213   -6.1429 O   0  0  0  0  0  0  0  0  0  0  0  0
   19.5365   70.2507   -5.4980 O   0  0  0  0  0  0  0  0  0  0  0  0
   17.8876   70.3784   -9.2816 O   0  0  0  0  0  0  0  0  0  0  0  0
   16.1763   70.5583   -6.9822 O   0  0  0  0  0  0  0  0  0  0  0  0
   20.4888   71.5536   -8.7997 O   0  0  0  0  0  0  0  0  0  0  0  0
   18.3009   70.9143   -8.0216 C   0  0  1  0  0  0  0  0  0  0  0  0
   17.5467   70.1741   -6.9152 C   0  0  1  0  0  0  0  0  0  0  0  0
   19.8082   70.7208   -7.8671 C   0  0  2  0  0  0  0  0  0  0  0  0
   18.1271   70.5036   -5.5332 C   0  0  1  0  0  0  0  0  0  0  0  0
   20.2741   71.0285   -6.4429 C   0  0  1  0  0  0  0  0  0  0  0  0
   16.9315   70.4985   -9.3862 H   0  0  0  0  0  0  0  0  0  0  0  0
   15.8221   70.3453   -7.8599 H   0  0  0  0  0  0  0  0  0  0  0  0
   20.1853   71.3489   -9.6974 H   0  0  0  0  0  0  0  0  0  0  0  0
   16.1551   70.0802   -4.2521 O   0  0  0  0  0  0  0  0  0  0  0  0
   17.4944   69.6573   -4.4307 C   0  0  0  0  0  0  0  0  0  0  0  0
   15.7397   69.5501   -3.5535 H   0  0  0  0  0  0  0  0  0  0  0  0
 25 28  1  0
 25 24  1  0
 25 26  1  6
 25 27  2  0
  1  4  1  0
  1 24  1  0
  1  2  1  1
  1  3  2  0
  6 11  1  0
  6 12  1  0
 29 36  1  0
 29 37  1  0
  9  7  1  1
  7 13  1  0
 10  8  1  1
  8 14  1  0
 37 28  1  1
  4  5  1  0
 33 30  1  6
 30 38  1  0
 34 31  1  1
 31 39  1  0
 35 32  1  6
 32 40  1  0
 41 42  1  0
 41 43  1  0
 15 19  2  0
 16 22  2  0
 12 17  1  6
 17 19  1  0
 17 20  1  0
 18 19  1  0
 18 22  1  0
 18 23  1  0
  9 10  1  0
  9 11  1  0
 10 12  1  0
 11  5  1  1
 33 34  1  0
 33 35  1  0
 34 36  1  0
 35 37  1  0
 36 42  1  1
 20 21  2  0
 21 22  1  0
M  CHG  2   2  -1  26  -1
M  END
>  <COMPND>  (34) 
    8629 

>  <AUTHOR>  (34) 
    GENERATED BY OPEN BABEL 3.1.1

>  <MASTER>  (34) 
        0    0    0    0    0    0    0    0   58    0   58    0

>  <minimizedAffinity>  (34) 
-7.55569

>  <CNNscore>  (34) 
0.6601977348

>  <CNNaffinity>  (34) 
4.4200735092

>  <CNN_VS>  (34) 
2.9181225300

>  <CNNaffinity_variance>  (34) 
0.0863987803

$$$$
35
     RDKit          3D

 43 45  0  0  0  0  0  0  0  0999 V2000
   21.8662   72.5778   -5.1888 P   0  0  2  0  0  0  0  0  0  0  0  0
   21.4168   74.0599   -5.6566 O   0  0  0  0  0  0  0  0  0  0  0  0
   23.3411   72.3995   -4.9787 O   0  0  0  0  0  0  0  0  0  0  0  0
   21.1900   71.6019   -6.2879 O   0  0  0  0  0  0  0  0  0  0  0  0
   20.0941   72.0897   -7.0422 C   0  0  0  0  0  0  0  0  0  0  0  0
   18.7287   70.1350   -6.7442 O   0  0  0  0  0  0  0  0  0  0  0  0
   18.1770   70.3010   -9.6868 O   0  0  0  0  0  0  0  0  0  0  0  0
   15.9207   71.3775   -8.5973 O   0  0  0  0  0  0  0  0  0  0  0  0
   18.3477   71.3545   -8.7400 C   0  0  1  0  0  0  0  0  0  0  0  0
   17.1217   71.4735   -7.8590 C   0  0  2  0  0  0  0  0  0  0  0  0
   19.4151   70.9210   -7.7430 C   0  0  1  0  0  0  0  0  0  0  0  0
   17.3110   70.3127   -6.8972 C   0  0  2  0  0  0  0  0  0  0  0  0
   17.5002   70.5550  -10.3343 H   0  0  0  0  0  0  0  0  0  0  0  0
   15.8463   72.1383   -9.1943 H   0  0  0  0  0  0  0  0  0  0  0  0
   16.6191   68.3080   -5.0317 O   0  0  0  0  0  0  0  0  0  0  0  0
   15.0924   71.4121   -1.9862 O   0  0  0  0  0  0  0  0  0  0  0  0
   16.7314   70.5688   -5.6089 N   0  0  0  0  0  0  0  0  0  0  0  0
   15.8596   69.8552   -3.5167 N   0  0  0  0  0  0  0  0  0  0  0  0
   16.4203   69.4910   -4.7476 C   0  0  0  0  0  0  0  0  0  0  0  0
   16.4776   71.8769   -5.2108 C   0  0  0  0  0  0  0  0  0  0  0  0
   15.9413   72.2074   -4.0342 C   0  0  0  0  0  0  0  0  0  0  0  0
   15.5870   71.1405   -3.0759 C   0  0  0  0  0  0  0  0  0  0  0  0
   15.6343   69.1209   -2.9005 H   0  0  0  0  0  0  0  0  0  0  0  0
   20.9635   72.3229   -3.8723 O   0  0  0  0  0  0  0  0  0  0  0  0
   20.5616   70.9558   -3.1091 P   0  0  2  0  0  0  0  0  0  0  0  0
   21.5698   69.8639   -3.7484 O   0  0  0  0  0  0  0  0  0  0  0  0
   19.1084   70.5950   -3.2173 O   0  0  0  0  0  0  0  0  0  0  0  0
   21.0889   71.1616   -1.5976 O   0  0  0  0  0  0  0  0  0  0  0  0
   21.3857   73.0050   -0.1380 O   0  0  0  0  0  0  0  0  0  0  0  0
   24.9938   71.0921    0.4730 O   0  0  0  0  0  0  0  0  0  0  0  0
   22.9894   71.0291    2.5289 O   0  0  0  0  0  0  0  0  0  0  0  0
   23.8344   71.1755   -2.1781 O   0  0  0  0  0  0  0  0  0  0  0  0
   23.5889   71.1733    0.2179 C   0  0  1  0  0  0  0  0  0  0  0  0
   22.9282   71.8914    1.3963 C   0  0  1  0  0  0  0  0  0  0  0  0
   23.3610   71.9469   -1.0794 C   0  0  2  0  0  0  0  0  0  0  0  0
   21.4712   72.2532    1.0782 C   0  0  1  0  0  0  0  0  0  0  0  0
   21.8853   72.2988   -1.2754 C   0  0  1  0  0  0  0  0  0  0  0  0
   25.1453   70.6016    1.2952 H   0  0  0  0  0  0  0  0  0  0  0  0
   23.9148   70.8079    2.7188 H   0  0  0  0  0  0  0  0  0  0  0  0
   24.7697   70.9595   -2.0422 H   0  0  0  0  0  0  0  0  0  0  0  0
   20.1467   72.2542    3.0669 O   0  0  0  0  0  0  0  0  0  0  0  0
   20.8413   73.1076    2.1761 C   0  0  0  0  0  0  0  0  0  0  0  0
   19.7408   72.7843    3.7712 H   0  0  0  0  0  0  0  0  0  0  0  0
 25 28  1  0
 25 24  1  0
 25 26  1  6
 25 27  2  0
  1  4  1  0
  1 24  1  0
  1  2  1  6
  1  3  2  0
  6 11  1  0
  6 12  1  0
 29 36  1  0
 29 37  1  0
  9  7  1  6
  7 13  1  0
 10  8  1  6
  8 14  1  0
 37 28  1  1
  4  5  1  0
 33 30  1  1
 30 38  1  0
 34 31  1  1
 31 39  1  0
 35 32  1  6
 32 40  1  0
 41 42  1  0
 41 43  1  0
 15 19  2  0
 16 22  2  0
 12 17  1  1
 17 19  1  0
 17 20  1  0
 18 19  1  0
 18 22  1  0
 18 23  1  0
  9 10  1  0
  9 11  1  0
 10 12  1  0
 11  5  1  1
 33 34  1  0
 33 35  1  0
 34 36  1  0
 35 37  1  0
 36 42  1  1
 20 21  2  0
 21 22  1  0
M  CHG  2   2  -1  26  -1
M  END
>  <COMPND>  (35) 
    8629 

>  <AUTHOR>  (35) 
    GENERATED BY OPEN BABEL 3.1.1

>  <MASTER>  (35) 
        0    0    0    0    0    0    0    0   58    0   58    0

>  <minimizedAffinity>  (35) 
-7.06933

>  <CNNscore>  (35) 
0.6338186264

>  <CNNaffinity>  (35) 
4.4337244034

>  <CNN_VS>  (35) 
2.8101770878

>  <CNNaffinity_variance>  (35) 
0.3323687017

$$$$
36
     RDKit          3D

 43 45  0  0  0  0  0  0  0  0999 V2000
   21.8184   72.5677   -5.5373 P   0  0  2  0  0  0  0  0  0  0  0  0
   21.4429   74.1108   -5.2284 O   0  0  0  0  0  0  0  0  0  0  0  0
   22.8525   72.3688   -6.6061 O   0  0  0  0  0  0  0  0  0  0  0  0
   20.3857   71.8657   -5.8064 O   0  0  0  0  0  0  0  0  0  0  0  0
   20.1662   70.5609   -5.2995 C   0  0  0  0  0  0  0  0  0  0  0  0
   18.2311   71.6925   -4.4343 O   0  0  0  0  0  0  0  0  0  0  0  0
   17.8817   69.3215   -2.6323 O   0  0  0  0  0  0  0  0  0  0  0  0
   16.0530   68.8480   -4.5991 O   0  0  0  0  0  0  0  0  0  0  0  0
   18.3458   69.3695   -3.9805 C   0  0  1  0  0  0  0  0  0  0  0  0
   17.1897   69.6212   -4.9259 C   0  0  2  0  0  0  0  0  0  0  0  0
   19.1745   70.6371   -4.1468 C   0  0  1  0  0  0  0  0  0  0  0  0
   16.9545   71.1114   -4.7462 C   0  0  2  0  0  0  0  0  0  0  0  0
   17.3500   68.5201   -2.5019 H   0  0  0  0  0  0  0  0  0  0  0  0
   16.2528   67.9079   -4.7296 H   0  0  0  0  0  0  0  0  0  0  0  0
   17.2796   70.0804   -7.3557 O   0  0  0  0  0  0  0  0  0  0  0  0
   14.9294   73.5756   -9.2268 O   0  0  0  0  0  0  0  0  0  0  0  0
   16.4376   71.7313   -5.9336 N   0  0  0  0  0  0  0  0  0  0  0  0
   16.1090   71.8215   -8.2852 N   0  0  0  0  0  0  0  0  0  0  0  0
   16.6572   71.1324   -7.1959 C   0  0  0  0  0  0  0  0  0  0  0  0
   15.7215   72.9197   -5.8393 C   0  0  0  0  0  0  0  0  0  0  0  0
   15.2063   73.5649   -6.8878 C   0  0  0  0  0  0  0  0  0  0  0  0
   15.3908   73.0060   -8.2427 C   0  0  0  0  0  0  0  0  0  0  0  0
   16.2497   71.4231   -9.1748 H   0  0  0  0  0  0  0  0  0  0  0  0
   22.2352   71.9970   -4.0835 O   0  0  0  0  0  0  0  0  0  0  0  0
   23.6234   72.0981   -3.2615 P   0  0  2  0  0  0  0  0  0  0  0  0
   24.4705   73.1942   -4.0972 O   0  0  0  0  0  0  0  0  0  0  0  0
   24.3251   70.7840   -3.0749 O   0  0  0  0  0  0  0  0  0  0  0  0
   23.2307   72.8477   -1.8871 O   0  0  0  0  0  0  0  0  0  0  0  0
   23.3988   71.3749   -0.0380 O   0  0  0  0  0  0  0  0  0  0  0  0
   21.6027   74.5857    1.8370 O   0  0  0  0  0  0  0  0  0  0  0  0
   24.3658   74.0024    2.3598 O   0  0  0  0  0  0  0  0  0  0  0  0
   20.8280   73.8695   -0.8586 O   0  0  0  0  0  0  0  0  0  0  0  0
   22.4717   73.9431    0.9004 C   0  0  1  0  0  0  0  0  0  0  0  0
   23.4870   73.1080    1.6830 C   0  0  1  0  0  0  0  0  0  0  0  0
   21.6408   73.0533   -0.0223 C   0  0  2  0  0  0  0  0  0  0  0  0
   24.2804   72.1832    0.7500 C   0  0  1  0  0  0  0  0  0  0  0  0
   22.5252   72.1388   -0.8718 C   0  0  1  0  0  0  0  0  0  0  0  0
   22.1240   75.1526    2.4255 H   0  0  0  0  0  0  0  0  0  0  0  0
   23.8523   74.5810    2.9452 H   0  0  0  0  0  0  0  0  0  0  0  0
   20.2728   74.4435   -0.3090 H   0  0  0  0  0  0  0  0  0  0  0  0
   24.4392   70.0763    1.8657 O   0  0  0  0  0  0  0  0  0  0  0  0
   25.1867   71.2295    1.5253 C   0  0  0  0  0  0  0  0  0  0  0  0
   25.0034   69.4601    2.3593 H   0  0  0  0  0  0  0  0  0  0  0  0
 25 28  1  0
 25 24  1  0
 25 26  1  6
 25 27  2  0
  1  4  1  0
  1 24  1  0
  1  2  1  1
  1  3  2  0
  6 11  1  0
  6 12  1  0
 29 36  1  0
 29 37  1  0
  9  7  1  1
  7 13  1  0
 10  8  1  1
  8 14  1  0
 37 28  1  6
  4  5  1  0
 33 30  1  1
 30 38  1  0
 34 31  1  6
 31 39  1  0
 35 32  1  6
 32 40  1  0
 41 42  1  0
 41 43  1  0
 15 19  2  0
 16 22  2  0
 12 17  1  6
 17 19  1  0
 17 20  1  0
 18 19  1  0
 18 22  1  0
 18 23  1  0
  9 10  1  0
  9 11  1  0
 10 12  1  0
 11  5  1  6
 33 34  1  0
 33 35  1  0
 34 36  1  0
 35 37  1  0
 36 42  1  1
 20 21  2  0
 21 22  1  0
M  CHG  2   2  -1  26  -1
M  END
>  <COMPND>  (36) 
    8629 

>  <AUTHOR>  (36) 
    GENERATED BY OPEN BABEL 3.1.1

>  <MASTER>  (36) 
        0    0    0    0    0    0    0    0   58    0   58    0

>  <minimizedAffinity>  (36) 
-7.56327

>  <CNNscore>  (36) 
0.5726552010

>  <CNNaffinity>  (36) 
4.3319807053

>  <CNN_VS>  (36) 
2.4807312489

>  <CNNaffinity_variance>  (36) 
0.0910197794

$$$$
37
     RDKit          3D

 43 45  0  0  0  0  0  0  0  0999 V2000
   16.9708   69.8196   -2.0607 P   0  0  2  0  0  0  0  0  0  0  0  0
   16.6794   68.2371   -1.8928 O   0  0  0  0  0  0  0  0  0  0  0  0
   18.3507   70.2554   -1.6641 O   0  0  0  0  0  0  0  0  0  0  0  0
   15.7540   70.5255   -1.2613 O   0  0  0  0  0  0  0  0  0  0  0  0
   14.5608   69.7887   -1.0583 C   0  0  0  0  0  0  0  0  0  0  0  0
   12.4989   69.8882    0.1715 O   0  0  0  0  0  0  0  0  0  0  0  0
   13.1884   72.7521    0.7316 O   0  0  0  0  0  0  0  0  0  0  0  0
   13.8839   71.5077    3.0563 O   0  0  0  0  0  0  0  0  0  0  0  0
   14.0500   71.6193    0.6332 C   0  0  1  0  0  0  0  0  0  0  0  0
   13.9163   70.7484    1.8650 C   0  0  2  0  0  0  0  0  0  0  0  0
   13.5055   70.7091   -0.4605 C   0  0  1  0  0  0  0  0  0  0  0  0
   12.6080   70.0236    1.5979 C   0  0  2  0  0  0  0  0  0  0  0  0
   13.5162   73.3483    1.4237 H   0  0  0  0  0  0  0  0  0  0  0  0
   14.7383   71.9492    3.1818 H   0  0  0  0  0  0  0  0  0  0  0  0
   11.9488   69.5194    4.2977 O   0  0  0  0  0  0  0  0  0  0  0  0
   12.5094   64.9746    3.7766 O   0  0  0  0  0  0  0  0  0  0  0  0
   12.5735   68.7180    2.1942 N   0  0  0  0  0  0  0  0  0  0  0  0
   12.2283   67.2568    4.0360 N   0  0  0  0  0  0  0  0  0  0  0  0
   12.2310   68.5738    3.5589 C   0  0  0  0  0  0  0  0  0  0  0  0
   12.8767   67.5979    1.4279 C   0  0  0  0  0  0  0  0  0  0  0  0
   12.8708   66.3489    1.8982 C   0  0  0  0  0  0  0  0  0  0  0  0
   12.5237   66.1112    3.3142 C   0  0  0  0  0  0  0  0  0  0  0  0
   11.9931   67.1320    4.9841 H   0  0  0  0  0  0  0  0  0  0  0  0
   16.5970   70.0957   -3.6089 O   0  0  0  0  0  0  0  0  0  0  0  0
   16.7134   71.4350   -4.5065 P   0  0  2  0  0  0  0  0  0  0  0  0
   17.9347   72.2400   -3.8151 O   0  0  0  0  0  0  0  0  0  0  0  0
   15.4368   72.2180   -4.6120 O   0  0  0  0  0  0  0  0  0  0  0  0
   17.3067   70.9294   -5.9197 O   0  0  0  0  0  0  0  0  0  0  0  0
   18.8999   72.3931   -6.8873 O   0  0  0  0  0  0  0  0  0  0  0  0
   18.1607   69.9725  -10.1500 O   0  0  0  0  0  0  0  0  0  0  0  0
   20.6584   69.7430   -8.7511 O   0  0  0  0  0  0  0  0  0  0  0  0
   15.9898   70.7255   -8.3894 O   0  0  0  0  0  0  0  0  0  0  0  0
   18.3261   70.2733   -8.7616 C   0  0  1  0  0  0  0  0  0  0  0  0
   19.7415   70.8157   -8.5538 C   0  0  1  0  0  0  0  0  0  0  0  0
   17.2859   71.3129   -8.3488 C   0  0  2  0  0  0  0  0  0  0  0  0
   19.9068   71.4082   -7.1478 C   0  0  1  0  0  0  0  0  0  0  0  0
   17.5704   71.8737   -6.9542 C   0  0  1  0  0  0  0  0  0  0  0  0
   18.8179   69.3125  -10.4184 H   0  0  0  0  0  0  0  0  0  0  0  0
   20.5434   69.3775   -9.6423 H   0  0  0  0  0  0  0  0  0  0  0  0
   15.8217   70.3746   -9.2773 H   0  0  0  0  0  0  0  0  0  0  0  0
   21.7822   72.3923   -8.2538 O   0  0  0  0  0  0  0  0  0  0  0  0
   21.2591   72.0956   -6.9721 C   0  0  0  0  0  0  0  0  0  0  0  0
   22.6427   72.8304   -8.1576 H   0  0  0  0  0  0  0  0  0  0  0  0
 25 28  1  0
 25 24  1  0
 25 26  1  1
 25 27  2  0
  1  4  1  0
  1 24  1  0
  1  2  1  6
  1  3  2  0
  6 11  1  0
  6 12  1  0
 29 36  1  0
 29 37  1  0
  9  7  1  1
  7 13  1  0
 10  8  1  1
  8 14  1  0
 37 28  1  1
  4  5  1  0
 33 30  1  6
 30 38  1  0
 34 31  1  1
 31 39  1  0
 35 32  1  1
 32 40  1  0
 41 42  1  0
 41 43  1  0
 15 19  2  0
 16 22  2  0
 12 17  1  1
 17 19  1  0
 17 20  1  0
 18 19  1  0
 18 22  1  0
 18 23  1  0
  9 10  1  0
  9 11  1  0
 10 12  1  0
 11  5  1  1
 33 34  1  0
 33 35  1  0
 34 36  1  0
 35 37  1  0
 36 42  1  6
 20 21  2  0
 21 22  1  0
M  CHG  2   2  -1  26  -1
M  END
>  <COMPND>  (37) 
    8629 

>  <AUTHOR>  (37) 
    GENERATED BY OPEN BABEL 3.1.1

>  <MASTER>  (37) 
        0    0    0    0    0    0    0    0   58    0   58    0

>  <minimizedAffinity>  (37) 
-6.67869

>  <CNNscore>  (37) 
0.5448446274

>  <CNNaffinity>  (37) 
4.1330666542

>  <CNN_VS>  (37) 
2.2518792152

>  <CNNaffinity_variance>  (37) 
0.1362077892

$$$$
38
     RDKit          3D

 43 45  0  0  0  0  0  0  0  0999 V2000
   23.1882   71.9896   -2.6760 P   0  0  2  0  0  0  0  0  0  0  0  0
   24.3257   70.9901   -3.2455 O   0  0  0  0  0  0  0  0  0  0  0  0
   23.6788   73.3544   -2.2911 O   0  0  0  0  0  0  0  0  0  0  0  0
   22.4793   71.1393   -1.4961 O   0  0  0  0  0  0  0  0  0  0  0  0
   22.2272   71.7808   -0.2580 C   0  0  0  0  0  0  0  0  0  0  0  0
   20.4577   71.6485    1.3622 O   0  0  0  0  0  0  0  0  0  0  0  0
   18.7562   73.0700   -0.6565 O   0  0  0  0  0  0  0  0  0  0  0  0
   19.4424   75.0750    1.0597 O   0  0  0  0  0  0  0  0  0  0  0  0
   20.1435   73.2365   -0.3685 C   0  0  1  0  0  0  0  0  0  0  0  0
   20.3236   73.9768    0.9404 C   0  0  2  0  0  0  0  0  0  0  0  0
   20.7226   71.8658   -0.0410 C   0  0  1  0  0  0  0  0  0  0  0  0
   20.0409   72.8868    1.9603 C   0  0  2  0  0  0  0  0  0  0  0  0
   18.3645   73.9321   -0.8691 H   0  0  0  0  0  0  0  0  0  0  0  0
   19.6628   75.7408    0.3898 H   0  0  0  0  0  0  0  0  0  0  0  0
   19.1266   74.4535    4.1254 O   0  0  0  0  0  0  0  0  0  0  0  0
   22.9071   73.5607    6.6057 O   0  0  0  0  0  0  0  0  0  0  0  0
   20.7659   73.0808    3.1843 N   0  0  0  0  0  0  0  0  0  0  0  0
   21.0097   74.0076    5.3587 N   0  0  0  0  0  0  0  0  0  0  0  0
   20.2185   73.8874    4.2091 C   0  0  0  0  0  0  0  0  0  0  0  0
   22.0050   72.4743    3.3593 C   0  0  0  0  0  0  0  0  0  0  0  0
   22.7475   72.5999    4.4612 C   0  0  0  0  0  0  0  0  0  0  0  0
   22.2480   73.4256    5.5795 C   0  0  0  0  0  0  0  0  0  0  0  0
   20.6488   74.5650    6.0858 H   0  0  0  0  0  0  0  0  0  0  0  0
   22.0760   71.9805   -3.8490 O   0  0  0  0  0  0  0  0  0  0  0  0
   21.8995   72.9210   -5.1518 P   0  0  2  0  0  0  0  0  0  0  0  0
   23.0899   72.4271   -6.1299 O   0  0  0  0  0  0  0  0  0  0  0  0
   21.9125   74.3925   -4.8548 O   0  0  0  0  0  0  0  0  0  0  0  0
   20.5471   72.3928   -5.8567 O   0  0  0  0  0  0  0  0  0  0  0  0
   19.5094   70.2625   -5.8168 O   0  0  0  0  0  0  0  0  0  0  0  0
   18.7420   71.2968   -9.7401 O   0  0  0  0  0  0  0  0  0  0  0  0
   16.5996   71.3013   -7.8274 O   0  0  0  0  0  0  0  0  0  0  0  0
   21.2814   71.9882   -8.5348 O   0  0  0  0  0  0  0  0  0  0  0  0
   18.9238   71.5346   -8.3416 C   0  0  1  0  0  0  0  0  0  0  0  0
   17.8771   70.7221   -7.5769 C   0  0  1  0  0  0  0  0  0  0  0  0
   20.3345   71.1062   -7.9417 C   0  0  2  0  0  0  0  0  0  0  0  0
   18.1740   70.7135   -6.0713 C   0  0  1  0  0  0  0  0  0  0  0  0
   20.5089   71.0850   -6.4221 C   0  0  1  0  0  0  0  0  0  0  0  0
   17.8484   71.5672  -10.0006 H   0  0  0  0  0  0  0  0  0  0  0  0
   16.4246   71.3010   -8.7817 H   0  0  0  0  0  0  0  0  0  0  0  0
   21.1609   71.9924   -9.4968 H   0  0  0  0  0  0  0  0  0  0  0  0
   16.0309   70.4760   -5.0418 O   0  0  0  0  0  0  0  0  0  0  0  0
   17.2353   69.7812   -5.3085 C   0  0  0  0  0  0  0  0  0  0  0  0
   15.4237   69.8947   -4.5569 H   0  0  0  0  0  0  0  0  0  0  0  0
 25 28  1  0
 25 24  1  0
 25 26  1  6
 25 27  2  0
  1  4  1  0
  1 24  1  0
  1  2  1  6
  1  3  2  0
  6 11  1  0
  6 12  1  0
 29 36  1  0
 29 37  1  0
  9  7  1  1
  7 13  1  0
 10  8  1  6
  8 14  1  0
 37 28  1  1
  4  5  1  0
 33 30  1  6
 30 38  1  0
 34 31  1  1
 31 39  1  0
 35 32  1  6
 32 40  1  0
 41 42  1  0
 41 43  1  0
 15 19  2  0
 16 22  2  0
 12 17  1  1
 17 19  1  0
 17 20  1  0
 18 19  1  0
 18 22  1  0
 18 23  1  0
  9 10  1  0
  9 11  1  0
 10 12  1  0
 11  5  1  1
 33 34  1  0
 33 35  1  0
 34 36  1  0
 35 37  1  0
 36 42  1  1
 20 21  2  0
 21 22  1  0
M  CHG  2   2  -1  26  -1
M  END
>  <COMPND>  (38) 
    8629 

>  <AUTHOR>  (38) 
    GENERATED BY OPEN BABEL 3.1.1

>  <MASTER>  (38) 
        0    0    0    0    0    0    0    0   58    0   58    0

>  <minimizedAffinity>  (38) 
-7.07301

>  <CNNscore>  (38) 
0.5363983512

>  <CNNaffinity>  (38) 
3.9238543510

>  <CNN_VS>  (38) 
2.1047489643

>  <CNNaffinity_variance>  (38) 
0.1998883039

$$$$
39
     RDKit          3D

 43 45  0  0  0  0  0  0  0  0999 V2000
   22.2142   71.5575   -3.2803 P   0  0  2  0  0  0  0  0  0  0  0  0
   21.3716   70.1826   -3.4111 O   0  0  0  0  0  0  0  0  0  0  0  0
   23.7034   71.3994   -3.3736 O   0  0  0  0  0  0  0  0  0  0  0  0
   21.6625   72.2226   -1.9124 O   0  0  0  0  0  0  0  0  0  0  0  0
   22.5961   72.8038   -1.0188 C   0  0  0  0  0  0  0  0  0  0  0  0
   23.4715   72.6095    1.2105 O   0  0  0  0  0  0  0  0  0  0  0  0
   21.7259   70.1868    1.4837 O   0  0  0  0  0  0  0  0  0  0  0  0
   20.2950   72.1016    2.7963 O   0  0  0  0  0  0  0  0  0  0  0  0
   21.4743   71.4062    0.7871 C   0  0  1  0  0  0  0  0  0  0  0  0
   21.1698   72.5190    1.7681 C   0  0  2  0  0  0  0  0  0  0  0  0
   22.7872   71.8747    0.1721 C   0  0  1  0  0  0  0  0  0  0  0  0
   22.5544   72.8706    2.2854 C   0  0  2  0  0  0  0  0  0  0  0  0
   20.9017   69.8679    1.8849 H   0  0  0  0  0  0  0  0  0  0  0  0
   19.4279   71.8894    2.4169 H   0  0  0  0  0  0  0  0  0  0  0  0
   24.1376   73.8167    4.4246 O   0  0  0  0  0  0  0  0  0  0  0  0
   22.8923   78.1867    3.6545 O   0  0  0  0  0  0  0  0  0  0  0  0
   22.6627   74.2508    2.6659 N   0  0  0  0  0  0  0  0  0  0  0  0
   23.5164   75.9919    4.0393 N   0  0  0  0  0  0  0  0  0  0  0  0
   23.4844   74.6204    3.7561 C   0  0  0  0  0  0  0  0  0  0  0  0
   21.9593   75.2213    1.9607 C   0  0  0  0  0  0  0  0  0  0  0  0
   21.9995   76.5248    2.2443 C   0  0  0  0  0  0  0  0  0  0  0  0
   22.8343   76.9947    3.3687 C   0  0  0  0  0  0  0  0  0  0  0  0
   24.0819   76.2728    4.7950 H   0  0  0  0  0  0  0  0  0  0  0  0
   21.5638   72.4928   -4.4271 O   0  0  0  0  0  0  0  0  0  0  0  0
   20.0343   72.9475   -4.6851 P   0  0  2  0  0  0  0  0  0  0  0  0
   20.1371   74.5594   -4.7787 O   0  0  0  0  0  0  0  0  0  0  0  0
   19.0619   72.4478   -3.6562 O   0  0  0  0  0  0  0  0  0  0  0  0
   19.7154   72.4711   -6.1938 O   0  0  0  0  0  0  0  0  0  0  0  0
   18.9875   70.2194   -6.0642 O   0  0  0  0  0  0  0  0  0  0  0  0
   18.8997   70.7062  -10.1637 O   0  0  0  0  0  0  0  0  0  0  0  0
   16.4332   70.5709   -8.6987 O   0  0  0  0  0  0  0  0  0  0  0  0
   21.0253   71.9115   -8.6117 O   0  0  0  0  0  0  0  0  0  0  0  0
   18.7604   71.1138   -8.7999 C   0  0  1  0  0  0  0  0  0  0  0  0
   17.6994   70.2300   -8.1413 C   0  0  1  0  0  0  0  0  0  0  0  0
   20.1052   70.9575   -8.0924 C   0  0  2  0  0  0  0  0  0  0  0  0
   17.6831   70.4250   -6.6192 C   0  0  1  0  0  0  0  0  0  0  0  0
   19.9690   71.1222   -6.5777 C   0  0  1  0  0  0  0  0  0  0  0  0
   18.0494   70.8035  -10.6188 H   0  0  0  0  0  0  0  0  0  0  0  0
   16.4571   70.4439   -9.6602 H   0  0  0  0  0  0  0  0  0  0  0  0
   21.1029   71.7967   -9.5712 H   0  0  0  0  0  0  0  0  0  0  0  0
   16.9188   69.5607   -4.5268 O   0  0  0  0  0  0  0  0  0  0  0  0
   16.7434   69.4405   -5.9265 C   0  0  0  0  0  0  0  0  0  0  0  0
   16.3268   68.9401   -4.0728 H   0  0  0  0  0  0  0  0  0  0  0  0
 25 28  1  0
 25 24  1  0
 25 26  1  6
 25 27  2  0
  1  4  1  0
  1 24  1  0
  1  2  1  6
  1  3  2  0
  6 11  1  0
  6 12  1  0
 29 36  1  0
 29 37  1  0
  9  7  1  1
  7 13  1  0
 10  8  1  1
  8 14  1  0
 37 28  1  6
  4  5  1  0
 33 30  1  6
 30 38  1  0
 34 31  1  6
 31 39  1  0
 35 32  1  6
 32 40  1  0
 41 42  1  0
 41 43  1  0
 15 19  2  0
 16 22  2  0
 12 17  1  6
 17 19  1  0
 17 20  1  0
 18 19  1  0
 18 22  1  0
 18 23  1  0
  9 10  1  0
  9 11  1  0
 10 12  1  0
 11  5  1  6
 33 34  1  0
 33 35  1  0
 34 36  1  0
 35 37  1  0
 36 42  1  1
 20 21  2  0
 21 22  1  0
M  CHG  2   2  -1  26  -1
M  END
>  <COMPND>  (39) 
    8629 

>  <AUTHOR>  (39) 
    GENERATED BY OPEN BABEL 3.1.1

>  <MASTER>  (39) 
        0    0    0    0    0    0    0    0   58    0   58    0

>  <minimizedAffinity>  (39) 
-6.90687

>  <CNNscore>  (39) 
0.5236780047

>  <CNNaffinity>  (39) 
4.1419272423

>  <CNN_VS>  (39) 
2.1690361500

>  <CNNaffinity_variance>  (39) 
0.1940648854

$$$$
40
     RDKit          3D

 43 45  0  0  0  0  0  0  0  0999 V2000
   20.3389   72.9816   -2.8533 P   0  0  2  0  0  0  0  0  0  0  0  0
   18.7624   73.3244   -2.7329 O   0  0  0  0  0  0  0  0  0  0  0  0
   20.6681   71.5182   -2.8928 O   0  0  0  0  0  0  0  0  0  0  0  0
   21.0123   73.8209   -1.6450 O   0  0  0  0  0  0  0  0  0  0  0  0
   21.4360   73.1199   -0.4888 C   0  0  0  0  0  0  0  0  0  0  0  0
   23.5876   73.4999    0.5112 O   0  0  0  0  0  0  0  0  0  0  0  0
   24.5434   71.1621   -1.1049 O   0  0  0  0  0  0  0  0  0  0  0  0
   24.1912   70.0703    1.3691 O   0  0  0  0  0  0  0  0  0  0  0  0
   23.2800   71.3670   -0.4747 C   0  0  1  0  0  0  0  0  0  0  0  0
   23.4059   71.1934    1.0245 C   0  0  2  0  0  0  0  0  0  0  0  0
   22.9297   72.8449   -0.5954 C   0  0  1  0  0  0  0  0  0  0  0  0
   24.0481   72.5058    1.4409 C   0  0  2  0  0  0  0  0  0  0  0  0
   24.7882   70.2251   -1.0408 H   0  0  0  0  0  0  0  0  0  0  0  0
   23.7403   69.2604    1.0835 H   0  0  0  0  0  0  0  0  0  0  0  0
   25.5450   74.2695    3.0615 O   0  0  0  0  0  0  0  0  0  0  0  0
   22.5183   73.9503    6.5225 O   0  0  0  0  0  0  0  0  0  0  0  0
   23.6743   72.9012    2.7695 N   0  0  0  0  0  0  0  0  0  0  0  0
   24.0366   74.1093    4.7834 N   0  0  0  0  0  0  0  0  0  0  0  0
   24.4965   73.7912    3.4991 C   0  0  0  0  0  0  0  0  0  0  0  0
   22.5039   72.4079    3.3359 C   0  0  0  0  0  0  0  0  0  0  0  0
   22.0800   72.7200    4.5624 C   0  0  0  0  0  0  0  0  0  0  0  0
   22.8812   73.6440    5.3909 C   0  0  0  0  0  0  0  0  0  0  0  0
   24.5934   74.7274    5.3104 H   0  0  0  0  0  0  0  0  0  0  0  0
   20.7914   73.8086   -4.1665 O   0  0  0  0  0  0  0  0  0  0  0  0
   21.0241   73.3317   -5.6933 P   0  0  2  0  0  0  0  0  0  0  0  0
   22.2811   72.3197   -5.5785 O   0  0  0  0  0  0  0  0  0  0  0  0
   21.2225   74.4577   -6.6663 O   0  0  0  0  0  0  0  0  0  0  0  0
   19.7627   72.3794   -6.0207 O   0  0  0  0  0  0  0  0  0  0  0  0
   18.9829   70.1415   -6.0084 O   0  0  0  0  0  0  0  0  0  0  0  0
   18.8828   70.8529  -10.0747 O   0  0  0  0  0  0  0  0  0  0  0  0
   16.4223   70.6951   -8.6019 O   0  0  0  0  0  0  0  0  0  0  0  0
   21.0451   71.9223   -8.4746 O   0  0  0  0  0  0  0  0  0  0  0  0
   18.7610   71.1887   -8.6899 C   0  0  1  0  0  0  0  0  0  0  0  0
   17.6834   70.2950   -8.0727 C   0  0  1  0  0  0  0  0  0  0  0  0
   20.1058   70.9629   -8.0014 C   0  0  2  0  0  0  0  0  0  0  0  0
   17.6805   70.4071   -6.5422 C   0  0  1  0  0  0  0  0  0  0  0  0
   19.9823   71.0479   -6.4791 C   0  0  1  0  0  0  0  0  0  0  0  0
   18.0324   70.9945  -10.5178 H   0  0  0  0  0  0  0  0  0  0  0  0
   16.4377   70.6201   -9.5690 H   0  0  0  0  0  0  0  0  0  0  0  0
   21.1144   71.8582   -9.4394 H   0  0  0  0  0  0  0  0  0  0  0  0
   16.7684   69.5831   -4.4933 O   0  0  0  0  0  0  0  0  0  0  0  0
   16.7220   69.4083   -5.8974 C   0  0  0  0  0  0  0  0  0  0  0  0
   16.1630   68.9542   -4.0695 H   0  0  0  0  0  0  0  0  0  0  0  0
 25 28  1  0
 25 24  1  0
 25 26  1  1
 25 27  2  0
  1  4  1  0
  1 24  1  0
  1  2  1  1
  1  3  2  0
  6 11  1  0
  6 12  1  0
 29 36  1  0
 29 37  1  0
  9  7  1  6
  7 13  1  0
 10  8  1  6
  8 14  1  0
 37 28  1  6
  4  5  1  0
 33 30  1  6
 30 38  1  0
 34 31  1  6
 31 39  1  0
 35 32  1  6
 32 40  1  0
 41 42  1  0
 41 43  1  0
 15 19  2  0
 16 22  2  0
 12 17  1  1
 17 19  1  0
 17 20  1  0
 18 19  1  0
 18 22  1  0
 18 23  1  0
  9 10  1  0
  9 11  1  0
 10 12  1  0
 11  5  1  1
 33 34  1  0
 33 35  1  0
 34 36  1  0
 35 37  1  0
 36 42  1  1
 20 21  2  0
 21 22  1  0
M  CHG  2   2  -1  26  -1
M  END
>  <COMPND>  (40) 
    8629 

>  <AUTHOR>  (40) 
    GENERATED BY OPEN BABEL 3.1.1

>  <MASTER>  (40) 
        0    0    0    0    0    0    0    0   58    0   58    0

>  <minimizedAffinity>  (40) 
-6.63258

>  <CNNscore>  (40) 
0.5223211646

>  <CNNaffinity>  (40) 
4.1240959167

>  <CNN_VS>  (40) 
2.1541025639

>  <CNNaffinity_variance>  (40) 
0.0911175460

$$$$
41
     RDKit          3D

 43 45  0  0  0  0  0  0  0  0999 V2000
   22.9754   71.7403   -2.6912 P   0  0  2  0  0  0  0  0  0  0  0  0
   23.1751   73.3106   -2.3570 O   0  0  0  0  0  0  0  0  0  0  0  0
   24.2111   71.0300   -3.1602 O   0  0  0  0  0  0  0  0  0  0  0  0
   21.7212   71.7172   -3.7131 O   0  0  0  0  0  0  0  0  0  0  0  0
   20.8850   70.5734   -3.7315 C   0  0  0  0  0  0  0  0  0  0  0  0
   18.9513   71.6426   -4.6758 O   0  0  0  0  0  0  0  0  0  0  0  0
   17.3873   70.3391   -2.4745 O   0  0  0  0  0  0  0  0  0  0  0  0
   16.8654   68.7258   -4.6103 O   0  0  0  0  0  0  0  0  0  0  0  0
   18.5068   69.8392   -3.2041 C   0  0  1  0  0  0  0  0  0  0  0  0
   18.0862   69.4374   -4.6024 C   0  0  2  0  0  0  0  0  0  0  0  0
   19.4474   71.0061   -3.4778 C   0  0  1  0  0  0  0  0  0  0  0  0
   17.9829   70.7834   -5.2993 C   0  0  2  0  0  0  0  0  0  0  0  0
   16.7725   69.6117   -2.2876 H   0  0  0  0  0  0  0  0  0  0  0  0
   16.9826   67.8772   -4.1555 H   0  0  0  0  0  0  0  0  0  0  0  0
   16.1199   69.9820   -7.2652 O   0  0  0  0  0  0  0  0  0  0  0  0
   19.2023   70.4871  -10.6542 O   0  0  0  0  0  0  0  0  0  0  0  0
   18.2716   70.6969   -6.7031 N   0  0  0  0  0  0  0  0  0  0  0  0
   17.6561   70.2343   -8.9511 N   0  0  0  0  0  0  0  0  0  0  0  0
   17.2656   70.2825   -7.6068 C   0  0  0  0  0  0  0  0  0  0  0  0
   19.5404   71.0212   -7.1709 C   0  0  0  0  0  0  0  0  0  0  0  0
   19.8972   70.9688   -8.4559 C   0  0  0  0  0  0  0  0  0  0  0  0
   18.9050   70.5456   -9.4650 C   0  0  0  0  0  0  0  0  0  0  0  0
   16.9719   69.9480   -9.5988 H   0  0  0  0  0  0  0  0  0  0  0  0
   22.3411   71.1555   -1.3243 O   0  0  0  0  0  0  0  0  0  0  0  0
   21.3640   71.8363   -0.2311 P   0  0  2  0  0  0  0  0  0  0  0  0
   20.6865   70.5643    0.5041 O   0  0  0  0  0  0  0  0  0  0  0  0
   20.3815   72.8138   -0.8081 O   0  0  0  0  0  0  0  0  0  0  0  0
   22.3603   72.4625    0.8735 O   0  0  0  0  0  0  0  0  0  0  0  0
   24.1796   71.7756    2.2281 O   0  0  0  0  0  0  0  0  0  0  0  0
   21.7872   73.4608    5.1414 O   0  0  0  0  0  0  0  0  0  0  0  0
   24.1776   74.8181    4.3096 O   0  0  0  0  0  0  0  0  0  0  0  0
   20.5877   71.9450    2.9866 O   0  0  0  0  0  0  0  0  0  0  0  0
   22.3601   73.3368    3.8369 C   0  0  1  0  0  0  0  0  0  0  0  0
   23.8790   73.4679    3.9657 C   0  0  1  0  0  0  0  0  0  0  0  0
   21.9855   71.9751    3.2546 C   0  0  2  0  0  0  0  0  0  0  0  0
   24.5814   73.0819    2.6570 C   0  0  1  0  0  0  0  0  0  0  0  0
   22.7762   71.6684    1.9815 C   0  0  1  0  0  0  0  0  0  0  0  0
   22.0209   74.3235    5.5165 H   0  0  0  0  0  0  0  0  0  0  0  0
   23.7276   75.0492    5.1374 H   0  0  0  0  0  0  0  0  0  0  0  0
   20.0983   72.1404    3.8003 H   0  0  0  0  0  0  0  0  0  0  0  0
   26.6021   74.3530    2.5564 O   0  0  0  0  0  0  0  0  0  0  0  0
   26.1005   73.0536    2.8101 C   0  0  0  0  0  0  0  0  0  0  0  0
   27.5679   74.3502    2.6505 H   0  0  0  0  0  0  0  0  0  0  0  0
 25 28  1  0
 25 24  1  0
 25 26  1  1
 25 27  2  0
  1  4  1  0
  1 24  1  0
  1  2  1  1
  1  3  2  0
  6 11  1  0
  6 12  1  0
 29 36  1  0
 29 37  1  0
  9  7  1  1
  7 13  1  0
 10  8  1  1
  8 14  1  0
 37 28  1  6
  4  5  1  0
 33 30  1  1
 30 38  1  0
 34 31  1  6
 31 39  1  0
 35 32  1  6
 32 40  1  0
 41 42  1  0
 41 43  1  0
 15 19  2  0
 16 22  2  0
 12 17  1  6
 17 19  1  0
 17 20  1  0
 18 19  1  0
 18 22  1  0
 18 23  1  0
  9 10  1  0
  9 11  1  0
 10 12  1  0
 11  5  1  6
 33 34  1  0
 33 35  1  0
 34 36  1  0
 35 37  1  0
 36 42  1  1
 20 21  2  0
 21 22  1  0
M  CHG  2   2  -1  26  -1
M  END
>  <COMPND>  (41) 
    8629 

>  <AUTHOR>  (41) 
    GENERATED BY OPEN BABEL 3.1.1

>  <MASTER>  (41) 
        0    0    0    0    0    0    0    0   58    0   58    0

>  <minimizedAffinity>  (41) 
-7.88016

>  <CNNscore>  (41) 
0.9440907240

>  <CNNaffinity>  (41) 
4.7496376038

>  <CNN_VS>  (41) 
4.4840888977

>  <CNNaffinity_variance>  (41) 
0.0436301753

$$$$
42
     RDKit          3D

 43 45  0  0  0  0  0  0  0  0999 V2000
   22.5021   71.5905   -2.8917 P   0  0  2  0  0  0  0  0  0  0  0  0
   22.3227   73.1805   -2.6526 O   0  0  0  0  0  0  0  0  0  0  0  0
   23.9040   71.1492   -3.1939 O   0  0  0  0  0  0  0  0  0  0  0  0
   21.3966   71.2402   -4.0201 O   0  0  0  0  0  0  0  0  0  0  0  0
   20.4553   70.2163   -3.7495 C   0  0  0  0  0  0  0  0  0  0  0  0
   18.7552   71.5411   -4.8117 O   0  0  0  0  0  0  0  0  0  0  0  0
   16.8795   70.4589   -2.7377 O   0  0  0  0  0  0  0  0  0  0  0  0
   16.2926   68.9361   -4.9225 O   0  0  0  0  0  0  0  0  0  0  0  0
   17.9685   69.8123   -3.3945 C   0  0  1  0  0  0  0  0  0  0  0  0
   17.5953   69.4744   -4.8228 C   0  0  2  0  0  0  0  0  0  0  0  0
   19.0758   70.8405   -3.5899 C   0  0  1  0  0  0  0  0  0  0  0  0
   17.7246   70.8232   -5.5099 C   0  0  2  0  0  0  0  0  0  0  0  0
   16.1601   69.8218   -2.6017 H   0  0  0  0  0  0  0  0  0  0  0  0
   16.2615   68.0785   -4.4704 H   0  0  0  0  0  0  0  0  0  0  0  0
   15.9218   70.2199   -7.5988 O   0  0  0  0  0  0  0  0  0  0  0  0
   19.2605   70.3773  -10.7721 O   0  0  0  0  0  0  0  0  0  0  0  0
   18.0956   70.7009   -6.8914 N   0  0  0  0  0  0  0  0  0  0  0  0
   17.5856   70.2989   -9.1772 N   0  0  0  0  0  0  0  0  0  0  0  0
   17.1135   70.3940   -7.8619 C   0  0  0  0  0  0  0  0  0  0  0  0
   19.4204   70.8848   -7.2721 C   0  0  0  0  0  0  0  0  0  0  0  0
   19.8546   70.7895   -8.5306 C   0  0  0  0  0  0  0  0  0  0  0  0
   18.8923   70.4719   -9.6054 C   0  0  0  0  0  0  0  0  0  0  0  0
   16.9194   70.0856   -9.8703 H   0  0  0  0  0  0  0  0  0  0  0  0
   21.8688   70.9475   -1.5507 O   0  0  0  0  0  0  0  0  0  0  0  0
   21.2889   71.6429   -0.2116 P   0  0  2  0  0  0  0  0  0  0  0  0
   21.1053   70.3969    0.8039 O   0  0  0  0  0  0  0  0  0  0  0  0
   20.0440   72.4535   -0.4287 O   0  0  0  0  0  0  0  0  0  0  0  0
   22.5340   72.4770    0.3876 O   0  0  0  0  0  0  0  0  0  0  0  0
   21.8107   73.9462    2.1007 O   0  0  0  0  0  0  0  0  0  0  0  0
   25.7140   75.2404    1.7262 O   0  0  0  0  0  0  0  0  0  0  0  0
   24.9391   73.7223    4.0376 O   0  0  0  0  0  0  0  0  0  0  0  0
   24.2112   74.4839   -0.6295 O   0  0  0  0  0  0  0  0  0  0  0  0
   24.6544   74.2798    1.7292 C   0  0  1  0  0  0  0  0  0  0  0  0
   24.0082   74.2830    3.1160 C   0  0  1  0  0  0  0  0  0  0  0  0
   23.6327   74.6603    0.6592 C   0  0  2  0  0  0  0  0  0  0  0  0
   22.7015   73.4783    3.1201 C   0  0  1  0  0  0  0  0  0  0  0  0
   22.3512   73.8341    0.7827 C   0  0  1  0  0  0  0  0  0  0  0  0
   26.3664   75.0043    2.4030 H   0  0  0  0  0  0  0  0  0  0  0  0
   25.7599   74.2393    4.0249 H   0  0  0  0  0  0  0  0  0  0  0  0
   25.0214   75.0122   -0.6951 H   0  0  0  0  0  0  0  0  0  0  0  0
   22.3401   72.5133    5.2758 O   0  0  0  0  0  0  0  0  0  0  0  0
   21.9601   73.5984    4.4498 C   0  0  0  0  0  0  0  0  0  0  0  0
   21.8762   72.5768    6.1258 H   0  0  0  0  0  0  0  0  0  0  0  0
 25 28  1  0
 25 24  1  0
 25 26  1  1
 25 27  2  0
  1  4  1  0
  1 24  1  0
  1  2  1  1
  1  3  2  0
  6 11  1  0
  6 12  1  0
 29 36  1  0
 29 37  1  0
  9  7  1  1
  7 13  1  0
 10  8  1  1
  8 14  1  0
 37 28  1  1
  4  5  1  0
 33 30  1  1
 30 38  1  0
 34 31  1  1
 31 39  1  0
 35 32  1  6
 32 40  1  0
 41 42  1  0
 41 43  1  0
 15 19  2  0
 16 22  2  0
 12 17  1  6
 17 19  1  0
 17 20  1  0
 18 19  1  0
 18 22  1  0
 18 23  1  0
  9 10  1  0
  9 11  1  0
 10 12  1  0
 11  5  1  6
 33 34  1  0
 33 35  1  0
 34 36  1  0
 35 37  1  0
 36 42  1  1
 20 21  2  0
 21 22  1  0
M  CHG  2   2  -1  26  -1
M  END
>  <COMPND>  (42) 
    8629 

>  <AUTHOR>  (42) 
    GENERATED BY OPEN BABEL 3.1.1

>  <MASTER>  (42) 
        0    0    0    0    0    0    0    0   58    0   58    0

>  <minimizedAffinity>  (42) 
-7.57420

>  <CNNscore>  (42) 
0.9325262308

>  <CNNaffinity>  (42) 
4.7431187630

>  <CNN_VS>  (42) 
4.4230828285

>  <CNNaffinity_variance>  (42) 
0.0377469733

$$$$
43
     RDKit          3D

 43 45  0  0  0  0  0  0  0  0999 V2000
   22.9303   72.0970   -3.1341 P   0  0  2  0  0  0  0  0  0  0  0  0
   24.2058   72.3162   -4.1050 O   0  0  0  0  0  0  0  0  0  0  0  0
   23.1897   71.2388   -1.9310 O   0  0  0  0  0  0  0  0  0  0  0  0
   21.7679   71.5758   -4.1316 O   0  0  0  0  0  0  0  0  0  0  0  0
   20.9584   70.4892   -3.7171 C   0  0  0  0  0  0  0  0  0  0  0  0
   19.0636   71.6431   -4.6401 O   0  0  0  0  0  0  0  0  0  0  0  0
   17.4775   70.4468   -2.3942 O   0  0  0  0  0  0  0  0  0  0  0  0
   16.8353   68.8363   -4.4990 O   0  0  0  0  0  0  0  0  0  0  0  0
   18.5566   69.8823   -3.1373 C   0  0  1  0  0  0  0  0  0  0  0  0
   18.0903   69.4854   -4.5224 C   0  0  2  0  0  0  0  0  0  0  0  0
   19.5494   70.9969   -3.4431 C   0  0  1  0  0  0  0  0  0  0  0  0
   18.0417   70.8264   -5.2348 C   0  0  2  0  0  0  0  0  0  0  0  0
   16.8305   69.7537   -2.1868 H   0  0  0  0  0  0  0  0  0  0  0  0
   16.9183   67.9884   -4.0354 H   0  0  0  0  0  0  0  0  0  0  0  0
   16.0914   70.1510   -7.1631 O   0  0  0  0  0  0  0  0  0  0  0  0
   19.1448   70.4016  -10.6062 O   0  0  0  0  0  0  0  0  0  0  0  0
   18.2994   70.7085   -6.6423 N   0  0  0  0  0  0  0  0  0  0  0  0
   17.6133   70.2765   -8.8759 N   0  0  0  0  0  0  0  0  0  0  0  0
   17.2503   70.3633   -7.5259 C   0  0  0  0  0  0  0  0  0  0  0  0
   19.5806   70.9345   -7.1336 C   0  0  0  0  0  0  0  0  0  0  0  0
   19.9107   70.8464   -8.4237 C   0  0  0  0  0  0  0  0  0  0  0  0
   18.8729   70.4906   -9.4129 C   0  0  0  0  0  0  0  0  0  0  0  0
   16.8989   70.0370   -9.5099 H   0  0  0  0  0  0  0  0  0  0  0  0
   22.4676   73.6083   -2.7953 O   0  0  0  0  0  0  0  0  0  0  0  0
   21.6924   74.7074   -3.6920 P   0  0  2  0  0  0  0  0  0  0  0  0
   22.2101   76.1144   -3.0839 O   0  0  0  0  0  0  0  0  0  0  0  0
   20.1994   74.5498   -3.7037 O   0  0  0  0  0  0  0  0  0  0  0  0
   22.3865   74.6116   -5.1459 O   0  0  0  0  0  0  0  0  0  0  0  0
   21.0357   75.4924   -6.8826 O   0  0  0  0  0  0  0  0  0  0  0  0
   23.9078   73.6065   -9.1727 O   0  0  0  0  0  0  0  0  0  0  0  0
   23.8786   76.4739   -9.0142 O   0  0  0  0  0  0  0  0  0  0  0  0
   22.9669   72.3695   -6.7306 O   0  0  0  0  0  0  0  0  0  0  0  0
   23.4110   74.3365   -8.0478 C   0  0  1  0  0  0  0  0  0  0  0  0
   22.8110   75.6493   -8.5550 C   0  0  1  0  0  0  0  0  0  0  0  0
   22.3488   73.4986   -7.3385 C   0  0  2  0  0  0  0  0  0  0  0  0
   22.0231   76.3626   -7.4480 C   0  0  1  0  0  0  0  0  0  0  0  0
   21.5910   74.3162   -6.2910 C   0  0  1  0  0  0  0  0  0  0  0  0
   24.5830   74.1328   -9.6272 H   0  0  0  0  0  0  0  0  0  0  0  0
   24.3684   76.0117   -9.7125 H   0  0  0  0  0  0  0  0  0  0  0  0
   23.4431   71.8600   -7.4041 H   0  0  0  0  0  0  0  0  0  0  0  0
   20.3368   77.1714   -8.9351 O   0  0  0  0  0  0  0  0  0  0  0  0
   21.2857   77.5927   -7.9726 C   0  0  0  0  0  0  0  0  0  0  0  0
   19.8596   77.9439   -9.2775 H   0  0  0  0  0  0  0  0  0  0  0  0
 25 28  1  0
 25 24  1  0
 25 26  1  1
 25 27  2  0
  1  4  1  0
  1 24  1  0
  1  2  1  6
  1  3  2  0
  6 11  1  0
  6 12  1  0
 29 36  1  0
 29 37  1  0
  9  7  1  1
  7 13  1  0
 10  8  1  1
  8 14  1  0
 37 28  1  1
  4  5  1  0
 33 30  1  6
 30 38  1  0
 34 31  1  1
 31 39  1  0
 35 32  1  1
 32 40  1  0
 41 42  1  0
 41 43  1  0
 15 19  2  0
 16 22  2  0
 12 17  1  6
 17 19  1  0
 17 20  1  0
 18 19  1  0
 18 22  1  0
 18 23  1  0
  9 10  1  0
  9 11  1  0
 10 12  1  0
 11  5  1  6
 33 34  1  0
 33 35  1  0
 34 36  1  0
 35 37  1  0
 36 42  1  6
 20 21  2  0
 21 22  1  0
M  CHG  2   2  -1  26  -1
M  END
>  <COMPND>  (43) 
    8629 

>  <AUTHOR>  (43) 
    GENERATED BY OPEN BABEL 3.1.1

>  <MASTER>  (43) 
        0    0    0    0    0    0    0    0   58    0   58    0

>  <minimizedAffinity>  (43) 
-7.29295

>  <CNNscore>  (43) 
0.9173223972

>  <CNNaffinity>  (43) 
4.6739568710

>  <CNN_VS>  (43) 
4.2875251770

>  <CNNaffinity_variance>  (43) 
0.2430205345

$$$$
44
     RDKit          3D

 43 45  0  0  0  0  0  0  0  0999 V2000
   20.3769   71.1777   -1.3272 P   0  0  2  0  0  0  0  0  0  0  0  0
   20.6672   70.5561    0.1380 O   0  0  0  0  0  0  0  0  0  0  0  0
   19.9021   72.6011   -1.3290 O   0  0  0  0  0  0  0  0  0  0  0  0
   19.3806   70.1038   -2.0142 O   0  0  0  0  0  0  0  0  0  0  0  0
   19.0689   70.2534   -3.3884 C   0  0  0  0  0  0  0  0  0  0  0  0
   17.3784   71.3155   -4.7254 O   0  0  0  0  0  0  0  0  0  0  0  0
   15.4132   69.5477   -3.3099 O   0  0  0  0  0  0  0  0  0  0  0  0
   15.7384   68.2791   -5.7019 O   0  0  0  0  0  0  0  0  0  0  0  0
   16.7492   69.2631   -3.7217 C   0  0  1  0  0  0  0  0  0  0  0  0
   16.8069   69.0699   -5.2227 C   0  0  2  0  0  0  0  0  0  0  0  0
   17.5781   70.5273   -3.5316 C   0  0  1  0  0  0  0  0  0  0  0  0
   16.7468   70.5016   -5.7272 C   0  0  2  0  0  0  0  0  0  0  0  0
   14.8648   68.7548   -3.4218 H   0  0  0  0  0  0  0  0  0  0  0  0
   15.8212   67.3778   -5.3533 H   0  0  0  0  0  0  0  0  0  0  0  0
   15.9426   72.2785   -7.7702 O   0  0  0  0  0  0  0  0  0  0  0  0
   19.4837   71.0748  -10.4633 O   0  0  0  0  0  0  0  0  0  0  0  0
   17.4403   70.6730   -6.9726 N   0  0  0  0  0  0  0  0  0  0  0  0
   17.7065   71.6778   -9.1094 N   0  0  0  0  0  0  0  0  0  0  0  0
   16.9527   71.5908   -7.9320 C   0  0  0  0  0  0  0  0  0  0  0  0
   18.5907   69.9360   -7.2323 C   0  0  0  0  0  0  0  0  0  0  0  0
   19.2973   70.0298   -8.3607 C   0  0  0  0  0  0  0  0  0  0  0  0
   18.8556   70.9657   -9.4147 C   0  0  0  0  0  0  0  0  0  0  0  0
   17.3856   72.3105   -9.7924 H   0  0  0  0  0  0  0  0  0  0  0  0
   21.7704   70.9323   -2.1087 O   0  0  0  0  0  0  0  0  0  0  0  0
   23.1035   71.8408   -2.2126 P   0  0  2  0  0  0  0  0  0  0  0  0
   22.5759   73.1936   -2.9262 O   0  0  0  0  0  0  0  0  0  0  0  0
   24.2487   71.1744   -2.9186 O   0  0  0  0  0  0  0  0  0  0  0  0
   23.4190   72.2786   -0.6915 O   0  0  0  0  0  0  0  0  0  0  0  0
   22.1501   73.3019    1.0288 O   0  0  0  0  0  0  0  0  0  0  0  0
   25.6803   75.3963    1.4779 O   0  0  0  0  0  0  0  0  0  0  0  0
   24.9406   73.4281    3.4341 O   0  0  0  0  0  0  0  0  0  0  0  0
   24.7354   74.7101   -1.1709 O   0  0  0  0  0  0  0  0  0  0  0  0
   24.8715   74.2525    1.1899 C   0  0  1  0  0  0  0  0  0  0  0  0
   24.0497   73.9201    2.4369 C   0  0  1  0  0  0  0  0  0  0  0  0
   23.9543   74.5736    0.0114 C   0  0  2  0  0  0  0  0  0  0  0  0
   22.9678   72.8772    2.1255 C   0  0  1  0  0  0  0  0  0  0  0  0
   22.8845   73.4973   -0.1814 C   0  0  1  0  0  0  0  0  0  0  0  0
   26.2654   75.1989    2.2250 H   0  0  0  0  0  0  0  0  0  0  0  0
   25.6191   74.0959    3.6211 H   0  0  0  0  0  0  0  0  0  0  0  0
   25.4087   75.3945   -1.0362 H   0  0  0  0  0  0  0  0  0  0  0  0
   20.9119   71.9117    2.8673 O   0  0  0  0  0  0  0  0  0  0  0  0
   22.0362   72.6473    3.3136 C   0  0  0  0  0  0  0  0  0  0  0  0
   20.3104   71.7576    3.6130 H   0  0  0  0  0  0  0  0  0  0  0  0
 25 28  1  0
 25 24  1  0
 25 26  1  6
 25 27  2  0
  1  4  1  0
  1 24  1  0
  1  2  1  1
  1  3  2  0
  6 11  1  0
  6 12  1  0
 29 36  1  0
 29 37  1  0
  9  7  1  6
  7 13  1  0
 10  8  1  6
  8 14  1  0
 37 28  1  1
  4  5  1  0
 33 30  1  1
 30 38  1  0
 34 31  1  1
 31 39  1  0
 35 32  1  6
 32 40  1  0
 41 42  1  0
 41 43  1  0
 15 19  2  0
 16 22  2  0
 12 17  1  6
 17 19  1  0
 17 20  1  0
 18 19  1  0
 18 22  1  0
 18 23  1  0
  9 10  1  0
  9 11  1  0
 10 12  1  0
 11  5  1  6
 33 34  1  0
 33 35  1  0
 34 36  1  0
 35 37  1  0
 36 42  1  1
 20 21  2  0
 21 22  1  0
M  CHG  2   2  -1  26  -1
M  END
>  <COMPND>  (44) 
    8629 

>  <AUTHOR>  (44) 
    GENERATED BY OPEN BABEL 3.1.1

>  <MASTER>  (44) 
        0    0    0    0    0    0    0    0   58    0   58    0

>  <minimizedAffinity>  (44) 
-7.28972

>  <CNNscore>  (44) 
0.9142056704

>  <CNNaffinity>  (44) 
4.7351846695

>  <CNN_VS>  (44) 
4.3289327621

>  <CNNaffinity_variance>  (44) 
0.1042657346

$$$$
45
     RDKit          3D

 43 45  0  0  0  0  0  0  0  0999 V2000
   20.6340   71.3266   -1.3102 P   0  0  2  0  0  0  0  0  0  0  0  0
   21.2512   70.5506   -0.0318 O   0  0  0  0  0  0  0  0  0  0  0  0
   20.1753   72.7293   -1.0394 O   0  0  0  0  0  0  0  0  0  0  0  0
   19.5038   70.3136   -1.8710 O   0  0  0  0  0  0  0  0  0  0  0  0
   19.1911   70.3474   -3.2526 C   0  0  0  0  0  0  0  0  0  0  0  0
   17.4952   71.3050   -4.6599 O   0  0  0  0  0  0  0  0  0  0  0  0
   15.5417   69.6145   -3.1378 O   0  0  0  0  0  0  0  0  0  0  0  0
   15.8858   68.1968   -5.4418 O   0  0  0  0  0  0  0  0  0  0  0  0
   16.8814   69.3163   -3.5269 C   0  0  1  0  0  0  0  0  0  0  0  0
   16.9456   69.0267   -5.0121 C   0  0  2  0  0  0  0  0  0  0  0  0
   17.6983   70.5977   -3.4171 C   0  0  1  0  0  0  0  0  0  0  0  0
   16.8741   70.4222   -5.6085 C   0  0  2  0  0  0  0  0  0  0  0  0
   15.0008   68.8111   -3.1995 H   0  0  0  0  0  0  0  0  0  0  0  0
   15.9757   67.3207   -5.0353 H   0  0  0  0  0  0  0  0  0  0  0  0
   15.6142   70.4499   -8.1363 O   0  0  0  0  0  0  0  0  0  0  0  0
   19.6445   70.7955  -10.3450 O   0  0  0  0  0  0  0  0  0  0  0  0
   17.5700   70.5190   -6.8606 N   0  0  0  0  0  0  0  0  0  0  0  0
   17.6220   70.6221   -9.2340 N   0  0  0  0  0  0  0  0  0  0  0  0
   16.8432   70.5236   -8.0739 C   0  0  0  0  0  0  0  0  0  0  0  0
   18.9576   70.6084   -6.8771 C   0  0  0  0  0  0  0  0  0  0  0  0
   19.6856   70.7004   -7.9919 C   0  0  0  0  0  0  0  0  0  0  0  0
   19.0033   70.7119   -9.3021 C   0  0  0  0  0  0  0  0  0  0  0  0
   17.1373   70.6268  -10.0912 H   0  0  0  0  0  0  0  0  0  0  0  0
   21.8104   71.2044   -2.4122 O   0  0  0  0  0  0  0  0  0  0  0  0
   23.1714   72.0537   -2.6106 P   0  0  2  0  0  0  0  0  0  0  0  0
   24.2638   70.9213   -2.9872 O   0  0  0  0  0  0  0  0  0  0  0  0
   23.5431   72.9048   -1.4311 O   0  0  0  0  0  0  0  0  0  0  0  0
   22.9449   72.8737   -3.9822 O   0  0  0  0  0  0  0  0  0  0  0  0
   20.6432   73.3860   -4.2190 O   0  0  0  0  0  0  0  0  0  0  0  0
   21.9994   74.7354   -7.8784 O   0  0  0  0  0  0  0  0  0  0  0  0
   21.2199   76.6322   -5.8678 O   0  0  0  0  0  0  0  0  0  0  0  0
   23.1074   72.3209   -6.7287 O   0  0  0  0  0  0  0  0  0  0  0  0
   22.0763   74.4825   -6.4729 C   0  0  1  0  0  0  0  0  0  0  0  0
   20.9367   75.2382   -5.7866 C   0  0  1  0  0  0  0  0  0  0  0  0
   21.9492   72.9800   -6.2283 C   0  0  2  0  0  0  0  0  0  0  0  0
   20.7899   74.8073   -4.3210 C   0  0  1  0  0  0  0  0  0  0  0  0
   21.7587   72.6635   -4.7438 C   0  0  1  0  0  0  0  0  0  0  0  0
   22.0800   75.6876   -8.0406 H   0  0  0  0  0  0  0  0  0  0  0  0
   21.3107   76.8913   -6.7983 H   0  0  0  0  0  0  0  0  0  0  0  0
   23.2168   72.5289   -7.6692 H   0  0  0  0  0  0  0  0  0  0  0  0
   19.8145   75.5637   -2.2752 O   0  0  0  0  0  0  0  0  0  0  0  0
   19.5616   75.4309   -3.6618 C   0  0  0  0  0  0  0  0  0  0  0  0
   19.0413   75.9597   -1.8426 H   0  0  0  0  0  0  0  0  0  0  0  0
 25 28  1  0
 25 24  1  0
 25 26  1  6
 25 27  2  0
  1  4  1  0
  1 24  1  0
  1  2  1  1
  1  3  2  0
  6 11  1  0
  6 12  1  0
 29 36  1  0
 29 37  1  0
  9  7  1  6
  7 13  1  0
 10  8  1  6
  8 14  1  0
 37 28  1  1
  4  5  1  0
 33 30  1  6
 30 38  1  0
 34 31  1  1
 31 39  1  0
 35 32  1  1
 32 40  1  0
 41 42  1  0
 41 43  1  0
 15 19  2  0
 16 22  2  0
 12 17  1  6
 17 19  1  0
 17 20  1  0
 18 19  1  0
 18 22  1  0
 18 23  1  0
  9 10  1  0
  9 11  1  0
 10 12  1  0
 11  5  1  6
 33 34  1  0
 33 35  1  0
 34 36  1  0
 35 37  1  0
 36 42  1  6
 20 21  2  0
 21 22  1  0
M  CHG  2   2  -1  26  -1
M  END
>  <COMPND>  (45) 
    8629 

>  <AUTHOR>  (45) 
    GENERATED BY OPEN BABEL 3.1.1

>  <MASTER>  (45) 
        0    0    0    0    0    0    0    0   58    0   58    0

>  <minimizedAffinity>  (45) 
-7.68970

>  <CNNscore>  (45) 
0.9094572067

>  <CNNaffinity>  (45) 
4.6347842216

>  <CNN_VS>  (45) 
4.2151379585

>  <CNNaffinity_variance>  (45) 
0.5900993943

$$$$
46
     RDKit          3D

 43 45  0  0  0  0  0  0  0  0999 V2000
   20.9978   72.8737   -3.9153 P   0  0  2  0  0  0  0  0  0  0  0  0
   20.6093   73.5569   -2.5012 O   0  0  0  0  0  0  0  0  0  0  0  0
   21.4914   73.8257   -4.9648 O   0  0  0  0  0  0  0  0  0  0  0  0
   19.6825   72.0166   -4.3068 O   0  0  0  0  0  0  0  0  0  0  0  0
   19.0873   71.1998   -3.3136 C   0  0  0  0  0  0  0  0  0  0  0  0
   17.2871   71.7282   -4.8149 O   0  0  0  0  0  0  0  0  0  0  0  0
   15.5687   70.0060   -3.0620 O   0  0  0  0  0  0  0  0  0  0  0  0
   16.1148   68.3567   -5.1640 O   0  0  0  0  0  0  0  0  0  0  0  0
   16.9389   69.8414   -3.4239 C   0  0  1  0  0  0  0  0  0  0  0  0
   17.0508   69.3705   -4.8589 C   0  0  2  0  0  0  0  0  0  0  0  0
   17.5755   71.2240   -3.4924 C   0  0  1  0  0  0  0  0  0  0  0  0
   16.7962   70.6531   -5.6323 C   0  0  2  0  0  0  0  0  0  0  0  0
   15.1411   69.1363   -3.0116 H   0  0  0  0  0  0  0  0  0  0  0  0
   16.3190   67.5617   -4.6472 H   0  0  0  0  0  0  0  0  0  0  0  0
   15.5232   70.4203   -8.1429 O   0  0  0  0  0  0  0  0  0  0  0  0
   19.5232   70.7558  -10.4075 O   0  0  0  0  0  0  0  0  0  0  0  0
   17.4807   70.6768   -6.8941 N   0  0  0  0  0  0  0  0  0  0  0  0
   17.5159   70.5877   -9.2684 N   0  0  0  0  0  0  0  0  0  0  0  0
   16.7481   70.5512   -8.0975 C   0  0  0  0  0  0  0  0  0  0  0  0
   18.8631   70.8237   -6.9300 C   0  0  0  0  0  0  0  0  0  0  0  0
   19.5806   70.8553   -8.0549 C   0  0  0  0  0  0  0  0  0  0  0  0
   18.8917   70.7305   -9.3556 C   0  0  0  0  0  0  0  0  0  0  0  0
   17.0270   70.5016  -10.1189 H   0  0  0  0  0  0  0  0  0  0  0  0
   22.0607   71.7332   -3.4881 O   0  0  0  0  0  0  0  0  0  0  0  0
   23.4413   71.8283   -2.6527 P   0  0  2  0  0  0  0  0  0  0  0  0
   23.9038   73.3628   -2.8737 O   0  0  0  0  0  0  0  0  0  0  0  0
   24.4703   70.8085   -3.0465 O   0  0  0  0  0  0  0  0  0  0  0  0
   22.9880   71.7580   -1.1052 O   0  0  0  0  0  0  0  0  0  0  0  0
   22.5595   73.6990    0.1854 O   0  0  0  0  0  0  0  0  0  0  0  0
   23.5263   71.0823    3.2300 O   0  0  0  0  0  0  0  0  0  0  0  0
   20.7952   71.8961    2.8735 O   0  0  0  0  0  0  0  0  0  0  0  0
   24.9689   70.9765    0.7225 O   0  0  0  0  0  0  0  0  0  0  0  0
   22.9681   71.4670    1.9707 C   0  0  1  0  0  0  0  0  0  0  0  0
   21.8957   72.5280    2.2254 C   0  0  1  0  0  0  0  0  0  0  0  0
   24.0780   72.0267    1.0828 C   0  0  2  0  0  0  0  0  0  0  0  0
   21.4400   73.1812    0.9137 C   0  0  1  0  0  0  0  0  0  0  0  0
   23.5141   72.6972   -0.1712 C   0  0  1  0  0  0  0  0  0  0  0  0
   22.8268   70.7256    3.7983 H   0  0  0  0  0  0  0  0  0  0  0  0
   21.0966   71.4872    3.7001 H   0  0  0  0  0  0  0  0  0  0  0  0
   25.3192   70.5603    1.5249 H   0  0  0  0  0  0  0  0  0  0  0  0
   19.3939   74.2313    0.2659 O   0  0  0  0  0  0  0  0  0  0  0  0
   20.4874   74.3496    1.1574 C   0  0  0  0  0  0  0  0  0  0  0  0
   18.7790   74.9682    0.4098 H   0  0  0  0  0  0  0  0  0  0  0  0
 25 28  1  0
 25 24  1  0
 25 26  1  1
 25 27  2  0
  1  4  1  0
  1 24  1  0
  1  2  1  1
  1  3  2  0
  6 11  1  0
  6 12  1  0
 29 36  1  0
 29 37  1  0
  9  7  1  6
  7 13  1  0
 10  8  1  6
  8 14  1  0
 37 28  1  6
  4  5  1  0
 33 30  1  1
 30 38  1  0
 34 31  1  6
 31 39  1  0
 35 32  1  6
 32 40  1  0
 41 42  1  0
 41 43  1  0
 15 19  2  0
 16 22  2  0
 12 17  1  6
 17 19  1  0
 17 20  1  0
 18 19  1  0
 18 22  1  0
 18 23  1  0
  9 10  1  0
  9 11  1  0
 10 12  1  0
 11  5  1  6
 33 34  1  0
 33 35  1  0
 34 36  1  0
 35 37  1  0
 36 42  1  1
 20 21  2  0
 21 22  1  0
M  CHG  2   2  -1  26  -1
M  END
>  <COMPND>  (46) 
    8629 

>  <AUTHOR>  (46) 
    GENERATED BY OPEN BABEL 3.1.1

>  <MASTER>  (46) 
        0    0    0    0    0    0    0    0   58    0   58    0

>  <minimizedAffinity>  (46) 
-7.34076

>  <CNNscore>  (46) 
0.8981085420

>  <CNNaffinity>  (46) 
4.6708288193

>  <CNN_VS>  (46) 
4.1949114799

>  <CNNaffinity_variance>  (46) 
0.1407772601

$$$$
47
     RDKit          3D

 43 45  0  0  0  0  0  0  0  0999 V2000
   20.6056   71.2941   -1.1306 P   0  0  2  0  0  0  0  0  0  0  0  0
   20.9017   70.4860    0.2393 O   0  0  0  0  0  0  0  0  0  0  0  0
   20.2348   72.7365   -0.9480 O   0  0  0  0  0  0  0  0  0  0  0  0
   19.5110   70.3783   -1.8929 O   0  0  0  0  0  0  0  0  0  0  0  0
   19.2205   70.6612   -3.2506 C   0  0  0  0  0  0  0  0  0  0  0  0
   17.4841   71.5163   -4.6745 O   0  0  0  0  0  0  0  0  0  0  0  0
   15.5893   69.8613   -3.0430 O   0  0  0  0  0  0  0  0  0  0  0  0
   15.9283   68.3425   -5.2824 O   0  0  0  0  0  0  0  0  0  0  0  0
   16.9290   69.5719   -3.4388 C   0  0  1  0  0  0  0  0  0  0  0  0
   16.9769   69.2132   -4.9094 C   0  0  2  0  0  0  0  0  0  0  0  0
   17.7205   70.8733   -3.4029 C   0  0  1  0  0  0  0  0  0  0  0  0
   16.8674   70.5769   -5.5701 C   0  0  2  0  0  0  0  0  0  0  0  0
   15.0644   69.0451   -3.0579 H   0  0  0  0  0  0  0  0  0  0  0  0
   16.0426   67.4888   -4.8363 H   0  0  0  0  0  0  0  0  0  0  0  0
   15.5716   70.4345   -8.0758 O   0  0  0  0  0  0  0  0  0  0  0  0
   19.5580   70.7807  -10.3626 O   0  0  0  0  0  0  0  0  0  0  0  0
   17.5422   70.6278   -6.8363 N   0  0  0  0  0  0  0  0  0  0  0  0
   17.5575   70.6072   -9.2124 N   0  0  0  0  0  0  0  0  0  0  0  0
   16.7985   70.5472   -8.0367 C   0  0  0  0  0  0  0  0  0  0  0  0
   18.9262   70.7567   -6.8793 C   0  0  0  0  0  0  0  0  0  0  0  0
   19.6352   70.8111   -8.0087 C   0  0  0  0  0  0  0  0  0  0  0  0
   18.9344   70.7336   -9.3068 C   0  0  0  0  0  0  0  0  0  0  0  0
   17.0608   70.5525  -10.0610 H   0  0  0  0  0  0  0  0  0  0  0  0
   21.9495   71.0492   -1.9948 O   0  0  0  0  0  0  0  0  0  0  0  0
   23.4314   71.6793   -1.8545 P   0  0  2  0  0  0  0  0  0  0  0  0
   24.3026   70.8177   -2.9109 O   0  0  0  0  0  0  0  0  0  0  0  0
   23.9729   71.6726   -0.4542 O   0  0  0  0  0  0  0  0  0  0  0  0
   23.3168   73.1451   -2.5202 O   0  0  0  0  0  0  0  0  0  0  0  0
   23.6850   73.0701   -4.8602 O   0  0  0  0  0  0  0  0  0  0  0  0
   23.6876   77.1643   -4.3228 O   0  0  0  0  0  0  0  0  0  0  0  0
   21.4520   75.9049   -5.6128 O   0  0  0  0  0  0  0  0  0  0  0  0
   24.9119   75.4469   -2.3400 O   0  0  0  0  0  0  0  0  0  0  0  0
   23.2783   75.8173   -4.0707 C   0  0  1  0  0  0  0  0  0  0  0  0
   22.6899   75.2453   -5.3620 C   0  0  1  0  0  0  0  0  0  0  0  0
   24.4908   75.0022   -3.6251 C   0  0  2  0  0  0  0  0  0  0  0  0
   22.4746   73.7300   -5.2490 C   0  0  1  0  0  0  0  0  0  0  0  0
   24.1835   73.5040   -3.5932 C   0  0  1  0  0  0  0  0  0  0  0  0
   22.9222   77.6873   -4.6057 H   0  0  0  0  0  0  0  0  0  0  0  0
   21.6018   76.8610   -5.6815 H   0  0  0  0  0  0  0  0  0  0  0  0
   25.1037   76.3966   -2.3735 H   0  0  0  0  0  0  0  0  0  0  0  0
   23.0831   72.2886   -7.0548 O   0  0  0  0  0  0  0  0  0  0  0  0
   22.0372   73.1140   -6.5762 C   0  0  0  0  0  0  0  0  0  0  0  0
   22.8187   71.8894   -7.8989 H   0  0  0  0  0  0  0  0  0  0  0  0
 25 28  1  0
 25 24  1  0
 25 26  1  6
 25 27  2  0
  1  4  1  0
  1 24  1  0
  1  2  1  1
  1  3  2  0
  6 11  1  0
  6 12  1  0
 29 36  1  0
 29 37  1  0
  9  7  1  6
  7 13  1  0
 10  8  1  6
  8 14  1  0
 37 28  1  1
  4  5  1  0
 33 30  1  6
 30 38  1  0
 34 31  1  1
 31 39  1  0
 35 32  1  1
 32 40  1  0
 41 42  1  0
 41 43  1  0
 15 19  2  0
 16 22  2  0
 12 17  1  6
 17 19  1  0
 17 20  1  0
 18 19  1  0
 18 22  1  0
 18 23  1  0
  9 10  1  0
  9 11  1  0
 10 12  1  0
 11  5  1  6
 33 34  1  0
 33 35  1  0
 34 36  1  0
 35 37  1  0
 36 42  1  6
 20 21  2  0
 21 22  1  0
M  CHG  2   2  -1  26  -1
M  END
>  <COMPND>  (47) 
    8629 

>  <AUTHOR>  (47) 
    GENERATED BY OPEN BABEL 3.1.1

>  <MASTER>  (47) 
        0    0    0    0    0    0    0    0   58    0   58    0

>  <minimizedAffinity>  (47) 
-8.11705

>  <CNNscore>  (47) 
0.8911063671

>  <CNNaffinity>  (47) 
4.7046351433

>  <CNN_VS>  (47) 
4.1923303604

>  <CNNaffinity_variance>  (47) 
0.2891993225

$$$$
48
     RDKit          3D

 43 45  0  0  0  0  0  0  0  0999 V2000
   22.7667   72.3421   -3.9369 P   0  0  2  0  0  0  0  0  0  0  0  0
   23.1401   73.4174   -5.0864 O   0  0  0  0  0  0  0  0  0  0  0  0
   23.9247   71.5415   -3.4177 O   0  0  0  0  0  0  0  0  0  0  0  0
   21.5550   71.4869   -4.5838 O   0  0  0  0  0  0  0  0  0  0  0  0
   20.8745   70.5523   -3.7646 C   0  0  0  0  0  0  0  0  0  0  0  0
   18.9838   71.6857   -4.7209 O   0  0  0  0  0  0  0  0  0  0  0  0
   17.3772   70.4961   -2.4861 O   0  0  0  0  0  0  0  0  0  0  0  0
   16.7732   68.8648   -4.5862 O   0  0  0  0  0  0  0  0  0  0  0  0
   18.4696   69.9333   -3.2108 C   0  0  1  0  0  0  0  0  0  0  0  0
   18.0239   69.5224   -4.5986 C   0  0  2  0  0  0  0  0  0  0  0  0
   19.4586   71.0523   -3.5128 C   0  0  1  0  0  0  0  0  0  0  0  0
   17.9753   70.8573   -5.3222 C   0  0  2  0  0  0  0  0  0  0  0  0
   16.7323   69.8002   -2.2816 H   0  0  0  0  0  0  0  0  0  0  0  0
   16.8560   68.0211   -4.1149 H   0  0  0  0  0  0  0  0  0  0  0  0
   16.0715   70.0848   -7.2605 O   0  0  0  0  0  0  0  0  0  0  0  0
   19.1497   70.4015  -10.6760 O   0  0  0  0  0  0  0  0  0  0  0  0
   18.2520   70.7302   -6.7253 N   0  0  0  0  0  0  0  0  0  0  0  0
   17.6057   70.2433   -8.9596 N   0  0  0  0  0  0  0  0  0  0  0  0
   17.2256   70.3348   -7.6145 C   0  0  0  0  0  0  0  0  0  0  0  0
   19.5291   70.9966   -7.2068 C   0  0  0  0  0  0  0  0  0  0  0  0
   19.8757   70.9035   -8.4923 C   0  0  0  0  0  0  0  0  0  0  0  0
   18.8622   70.4965   -9.4868 C   0  0  0  0  0  0  0  0  0  0  0  0
   16.9072   69.9692   -9.5973 H   0  0  0  0  0  0  0  0  0  0  0  0
   22.0200   73.2450   -2.8233 O   0  0  0  0  0  0  0  0  0  0  0  0
   22.5725   74.4300   -1.8728 P   0  0  2  0  0  0  0  0  0  0  0  0
   21.2778   75.3795   -1.6729 O   0  0  0  0  0  0  0  0  0  0  0  0
   23.7820   75.1376   -2.4115 O   0  0  0  0  0  0  0  0  0  0  0  0
   22.7916   73.7314   -0.4344 O   0  0  0  0  0  0  0  0  0  0  0  0
   23.5797   71.5952    0.2229 O   0  0  0  0  0  0  0  0  0  0  0  0
   20.4745   72.0095    2.9131 O   0  0  0  0  0  0  0  0  0  0  0  0
   23.1864   72.2215    3.8343 O   0  0  0  0  0  0  0  0  0  0  0  0
   20.1680   72.9609    0.1964 O   0  0  0  0  0  0  0  0  0  0  0  0
   21.5598   72.4580    2.0968 C   0  0  1  0  0  0  0  0  0  0  0  0
   22.8293   71.7312    2.5450 C   0  0  1  0  0  0  0  0  0  0  0  0
   21.2479   72.1436    0.6349 C   0  0  2  0  0  0  0  0  0  0  0  0
   23.9767   71.9562    1.5510 C   0  0  1  0  0  0  0  0  0  0  0  0
   22.4698   72.3539   -0.2612 C   0  0  1  0  0  0  0  0  0  0  0  0
   20.6660   72.2066    3.8426 H   0  0  0  0  0  0  0  0  0  0  0  0
   22.4533   72.0737    4.4523 H   0  0  0  0  0  0  0  0  0  0  0  0
   19.4006   72.8184    0.7715 H   0  0  0  0  0  0  0  0  0  0  0  0
   24.7877   70.0122    2.6788 O   0  0  0  0  0  0  0  0  0  0  0  0
   25.2039   71.1146    1.8941 C   0  0  0  0  0  0  0  0  0  0  0  0
   25.5584   69.4674    2.9044 H   0  0  0  0  0  0  0  0  0  0  0  0
 25 28  1  0
 25 24  1  0
 25 26  1  1
 25 27  2  0
  1  4  1  0
  1 24  1  0
  1  2  1  6
  1  3  2  0
  6 11  1  0
  6 12  1  0
 29 36  1  0
 29 37  1  0
  9  7  1  1
  7 13  1  0
 10  8  1  1
  8 14  1  0
 37 28  1  1
  4  5  1  0
 33 30  1  1
 30 38  1  0
 34 31  1  1
 31 39  1  0
 35 32  1  6
 32 40  1  0
 41 42  1  0
 41 43  1  0
 15 19  2  0
 16 22  2  0
 12 17  1  6
 17 19  1  0
 17 20  1  0
 18 19  1  0
 18 22  1  0
 18 23  1  0
  9 10  1  0
  9 11  1  0
 10 12  1  0
 11  5  1  6
 33 34  1  0
 33 35  1  0
 34 36  1  0
 35 37  1  0
 36 42  1  1
 20 21  2  0
 21 22  1  0
M  CHG  2   2  -1  26  -1
M  END
>  <COMPND>  (48) 
    8629 

>  <AUTHOR>  (48) 
    GENERATED BY OPEN BABEL 3.1.1

>  <MASTER>  (48) 
        0    0    0    0    0    0    0    0   58    0   58    0

>  <minimizedAffinity>  (48) 
-7.66903

>  <CNNscore>  (48) 
0.8848472834

>  <CNNaffinity>  (48) 
4.7319202423

>  <CNN_VS>  (48) 
4.1870269775

>  <CNNaffinity_variance>  (48) 
0.0658884495

$$$$
49
     RDKit          3D

 43 45  0  0  0  0  0  0  0  0999 V2000
   21.2494   73.1608   -4.3668 P   0  0  2  0  0  0  0  0  0  0  0  0
   21.2556   74.5788   -3.5878 O   0  0  0  0  0  0  0  0  0  0  0  0
   21.9355   73.1678   -5.7012 O   0  0  0  0  0  0  0  0  0  0  0  0
   19.6893   72.7323   -4.3811 O   0  0  0  0  0  0  0  0  0  0  0  0
   19.2568   71.7241   -3.4842 C   0  0  0  0  0  0  0  0  0  0  0  0
   17.3635   71.9152   -4.9514 O   0  0  0  0  0  0  0  0  0  0  0  0
   15.9003   70.1908   -2.9824 O   0  0  0  0  0  0  0  0  0  0  0  0
   16.5585   68.4202   -4.9492 O   0  0  0  0  0  0  0  0  0  0  0  0
   17.2683   70.1401   -3.3842 C   0  0  1  0  0  0  0  0  0  0  0  0
   17.3865   69.5519   -4.7748 C   0  0  2  0  0  0  0  0  0  0  0  0
   17.7467   71.5702   -3.6021 C   0  0  1  0  0  0  0  0  0  0  0  0
   16.9685   70.7223   -5.6486 C   0  0  2  0  0  0  0  0  0  0  0  0
   15.5726   69.2890   -2.8370 H   0  0  0  0  0  0  0  0  0  0  0  0
   16.8649   67.7032   -4.3723 H   0  0  0  0  0  0  0  0  0  0  0  0
   15.6045   70.4065   -8.1016 O   0  0  0  0  0  0  0  0  0  0  0  0
   19.5196   70.6542  -10.5206 O   0  0  0  0  0  0  0  0  0  0  0  0
   17.6066   70.7010   -6.9346 N   0  0  0  0  0  0  0  0  0  0  0  0
   17.5550   70.5303   -9.3041 N   0  0  0  0  0  0  0  0  0  0  0  0
   16.8304   70.5359   -8.1054 C   0  0  0  0  0  0  0  0  0  0  0  0
   18.9869   70.8431   -7.0258 C   0  0  0  0  0  0  0  0  0  0  0  0
   19.6629   70.8343   -8.1765 C   0  0  0  0  0  0  0  0  0  0  0  0
   18.9268   70.6666   -9.4462 C   0  0  0  0  0  0  0  0  0  0  0  0
   17.0353   70.4162  -10.1327 H   0  0  0  0  0  0  0  0  0  0  0  0
   21.8944   72.1485   -3.2841 O   0  0  0  0  0  0  0  0  0  0  0  0
   23.3482   72.1353   -2.5776 P   0  0  2  0  0  0  0  0  0  0  0  0
   23.9874   73.5550   -3.0174 O   0  0  0  0  0  0  0  0  0  0  0  0
   24.1907   70.9424   -2.9258 O   0  0  0  0  0  0  0  0  0  0  0  0
   23.0383   72.2983   -1.0021 O   0  0  0  0  0  0  0  0  0  0  0  0
   24.3442   71.1950    0.6392 O   0  0  0  0  0  0  0  0  0  0  0  0
   20.8700   71.7252    2.8072 O   0  0  0  0  0  0  0  0  0  0  0  0
   23.1837   73.3098    3.4266 O   0  0  0  0  0  0  0  0  0  0  0  0
   20.7288   71.0542   -0.0052 O   0  0  0  0  0  0  0  0  0  0  0  0
   21.8755   72.0734    1.8516 C   0  0  1  0  0  0  0  0  0  0  0  0
   23.2180   72.1645    2.5797 C   0  0  1  0  0  0  0  0  0  0  0  0
   21.9247   71.0006    0.7653 C   0  0  2  0  0  0  0  0  0  0  0  0
   24.3817   72.2702    1.5848 C   0  0  1  0  0  0  0  0  0  0  0  0
   23.1465   71.1688   -0.1397 C   0  0  1  0  0  0  0  0  0  0  0  0
   20.8333   72.4026    3.4995 H   0  0  0  0  0  0  0  0  0  0  0  0
   22.4443   73.2308    4.0496 H   0  0  0  0  0  0  0  0  0  0  0  0
   19.9628   70.9462    0.5791 H   0  0  0  0  0  0  0  0  0  0  0  0
   26.2126   70.8711    2.2168 O   0  0  0  0  0  0  0  0  0  0  0  0
   25.7385   72.2035    2.2825 C   0  0  0  0  0  0  0  0  0  0  0  0
   27.0757   70.8136    2.6567 H   0  0  0  0  0  0  0  0  0  0  0  0
 25 28  1  0
 25 24  1  0
 25 26  1  6
 25 27  2  0
  1  4  1  0
  1 24  1  0
  1  2  1  1
  1  3  2  0
  6 11  1  0
  6 12  1  0
 29 36  1  0
 29 37  1  0
  9  7  1  6
  7 13  1  0
 10  8  1  1
  8 14  1  0
 37 28  1  1
  4  5  1  0
 33 30  1  1
 30 38  1  0
 34 31  1  1
 31 39  1  0
 35 32  1  6
 32 40  1  0
 41 42  1  0
 41 43  1  0
 15 19  2  0
 16 22  2  0
 12 17  1  6
 17 19  1  0
 17 20  1  0
 18 19  1  0
 18 22  1  0
 18 23  1  0
  9 10  1  0
  9 11  1  0
 10 12  1  0
 11  5  1  6
 33 34  1  0
 33 35  1  0
 34 36  1  0
 35 37  1  0
 36 42  1  1
 20 21  2  0
 21 22  1  0
M  CHG  2   2  -1  26  -1
M  END
>  <COMPND>  (49) 
    8629 

>  <AUTHOR>  (49) 
    GENERATED BY OPEN BABEL 3.1.1

>  <MASTER>  (49) 
        0    0    0    0    0    0    0    0   58    0   58    0

>  <minimizedAffinity>  (49) 
-7.71419

>  <CNNscore>  (49) 
0.8644000888

>  <CNNaffinity>  (49) 
4.7566890717

>  <CNN_VS>  (49) 
4.1116824150

>  <CNNaffinity_variance>  (49) 
0.0587155595

$$$$
50
     RDKit          3D

 43 45  0  0  0  0  0  0  0  0999 V2000
   23.1416   72.5588   -3.9889 P   0  0  2  0  0  0  0  0  0  0  0  0
   23.1787   72.5762   -5.6063 O   0  0  0  0  0  0  0  0  0  0  0  0
   24.0238   71.5294   -3.3458 O   0  0  0  0  0  0  0  0  0  0  0  0
   21.5658   72.4519   -3.6377 O   0  0  0  0  0  0  0  0  0  0  0  0
   20.6449   73.1762   -4.4346 C   0  0  0  0  0  0  0  0  0  0  0  0
   18.4177   72.7155   -5.2100 O   0  0  0  0  0  0  0  0  0  0  0  0
   17.9587   71.4209   -2.5446 O   0  0  0  0  0  0  0  0  0  0  0  0
   18.3863   69.2804   -4.1793 O   0  0  0  0  0  0  0  0  0  0  0  0
   19.1374   71.4383   -3.3481 C   0  0  1  0  0  0  0  0  0  0  0  0
   18.9774   70.5133   -4.5365 C   0  0  2  0  0  0  0  0  0  0  0  0
   19.2286   72.8037   -4.0179 C   0  0  1  0  0  0  0  0  0  0  0  0
   18.0975   71.3374   -5.4611 C   0  0  2  0  0  0  0  0  0  0  0  0
   17.8791   70.5586   -2.1064 H   0  0  0  0  0  0  0  0  0  0  0  0
   18.9843   68.7934   -3.5911 H   0  0  0  0  0  0  0  0  0  0  0  0
   16.1802   70.2287   -7.2141 O   0  0  0  0  0  0  0  0  0  0  0  0
   19.1278   70.2685  -10.7568 O   0  0  0  0  0  0  0  0  0  0  0  0
   18.3369   71.0480   -6.8468 N   0  0  0  0  0  0  0  0  0  0  0  0
   17.6494   70.2496   -8.9767 N   0  0  0  0  0  0  0  0  0  0  0  0
   17.3069   70.4909   -7.6401 C   0  0  0  0  0  0  0  0  0  0  0  0
   19.5815   71.3167   -7.4059 C   0  0  0  0  0  0  0  0  0  0  0  0
   19.8925   71.0796   -8.6819 C   0  0  0  0  0  0  0  0  0  0  0  0
   18.8727   70.4983   -9.5787 C   0  0  0  0  0  0  0  0  0  0  0  0
   16.9478   69.8614   -9.5483 H   0  0  0  0  0  0  0  0  0  0  0  0
   23.4975   74.0870   -3.6007 O   0  0  0  0  0  0  0  0  0  0  0  0
   23.5031   74.8460   -2.1735 P   0  0  2  0  0  0  0  0  0  0  0  0
   22.3538   75.9714   -2.3473 O   0  0  0  0  0  0  0  0  0  0  0  0
   24.8439   75.3874   -1.7697 O   0  0  0  0  0  0  0  0  0  0  0  0
   22.8743   73.7775   -1.1402 O   0  0  0  0  0  0  0  0  0  0  0  0
   23.1012   74.3260    1.1542 O   0  0  0  0  0  0  0  0  0  0  0  0
   22.0834   70.3415    1.5260 O   0  0  0  0  0  0  0  0  0  0  0  0
   20.1707   72.3651    2.2294 O   0  0  0  0  0  0  0  0  0  0  0  0
   23.8310   71.1912   -0.6195 O   0  0  0  0  0  0  0  0  0  0  0  0
   22.0514   71.6451    0.9387 C   0  0  1  0  0  0  0  0  0  0  0  0
   21.5500   72.6339    1.9931 C   0  0  1  0  0  0  0  0  0  0  0  0
   23.4585   72.0192    0.4769 C   0  0  2  0  0  0  0  0  0  0  0  0
   21.7397   74.0838    1.5275 C   0  0  1  0  0  0  0  0  0  0  0  0
   23.5500   73.4944    0.0824 C   0  0  1  0  0  0  0  0  0  0  0  0
   21.1928   70.0977    1.8209 H   0  0  0  0  0  0  0  0  0  0  0  0
   20.0647   71.4464    2.5223 H   0  0  0  0  0  0  0  0  0  0  0  0
   23.7693   70.2600   -0.3569 H   0  0  0  0  0  0  0  0  0  0  0  0
   19.9881   75.0942    2.8002 O   0  0  0  0  0  0  0  0  0  0  0  0
   21.3930   75.0871    2.6254 C   0  0  0  0  0  0  0  0  0  0  0  0
   19.7527   75.7281    3.4963 H   0  0  0  0  0  0  0  0  0  0  0  0
 25 28  1  0
 25 24  1  0
 25 26  1  6
 25 27  2  0
  1  4  1  0
  1 24  1  0
  1  2  1  6
  1  3  2  0
  6 11  1  0
  6 12  1  0
 29 36  1  0
 29 37  1  0
  9  7  1  1
  7 13  1  0
 10  8  1  1
  8 14  1  0
 37 28  1  6
  4  5  1  0
 33 30  1  1
 30 38  1  0
 34 31  1  6
 31 39  1  0
 35 32  1  6
 32 40  1  0
 41 42  1  0
 41 43  1  0
 15 19  2  0
 16 22  2  0
 12 17  1  6
 17 19  1  0
 17 20  1  0
 18 19  1  0
 18 22  1  0
 18 23  1  0
  9 10  1  0
  9 11  1  0
 10 12  1  0
 11  5  1  6
 33 34  1  0
 33 35  1  0
 34 36  1  0
 35 37  1  0
 36 42  1  1
 20 21  2  0
 21 22  1  0
M  CHG  2   2  -1  26  -1
M  END
>  <COMPND>  (50) 
    8629 

>  <AUTHOR>  (50) 
    GENERATED BY OPEN BABEL 3.1.1

>  <MASTER>  (50) 
        0    0    0    0    0    0    0    0   58    0   58    0

>  <minimizedAffinity>  (50) 
-6.89381

>  <CNNscore>  (50) 
0.8387099504

>  <CNNaffinity>  (50) 
4.5430045128

>  <CNN_VS>  (50) 
3.8102631569

>  <CNNaffinity_variance>  (50) 
0.0456748232

$$$$
51
     RDKit          3D

 43 45  0  0  0  0  0  0  0  0999 V2000
   21.8346   72.4728   -5.2821 P   0  0  2  0  0  0  0  0  0  0  0  0
   20.9727   73.8183   -5.0290 O   0  0  0  0  0  0  0  0  0  0  0  0
   23.1564   72.6850   -5.9597 O   0  0  0  0  0  0  0  0  0  0  0  0
   20.8029   71.4887   -6.0470 O   0  0  0  0  0  0  0  0  0  0  0  0
   20.3462   71.8581   -7.3364 C   0  0  0  0  0  0  0  0  0  0  0  0
   19.0236   69.8961   -6.9181 O   0  0  0  0  0  0  0  0  0  0  0  0
   18.2939   69.9965   -9.8247 O   0  0  0  0  0  0  0  0  0  0  0  0
   16.0952   71.0719   -8.6224 O   0  0  0  0  0  0  0  0  0  0  0  0
   18.5093   71.0707   -8.9109 C   0  0  1  0  0  0  0  0  0  0  0  0
   17.3372   71.1951   -7.9599 C   0  0  2  0  0  0  0  0  0  0  0  0
   19.6396   70.6685   -7.9718 C   0  0  1  0  0  0  0  0  0  0  0  0
   17.5973   70.0562   -6.9886 C   0  0  2  0  0  0  0  0  0  0  0  0
   17.5765   70.2303  -10.4350 H   0  0  0  0  0  0  0  0  0  0  0  0
   15.9763   71.8196   -9.2286 H   0  0  0  0  0  0  0  0  0  0  0  0
   16.2968   68.1609   -5.3473 O   0  0  0  0  0  0  0  0  0  0  0  0
   15.7046   71.2292   -1.9596 O   0  0  0  0  0  0  0  0  0  0  0  0
   17.0934   70.3326   -5.6729 N   0  0  0  0  0  0  0  0  0  0  0  0
   16.0031   69.6901   -3.6618 N   0  0  0  0  0  0  0  0  0  0  0  0
   16.4553   69.3107   -4.9320 C   0  0  0  0  0  0  0  0  0  0  0  0
   17.2345   71.6050   -5.1300 C   0  0  0  0  0  0  0  0  0  0  0  0
   16.7966   71.9511   -3.9177 C   0  0  0  0  0  0  0  0  0  0  0  0
   16.1185   70.9420   -3.0786 C   0  0  0  0  0  0  0  0  0  0  0  0
   15.5550   68.9947   -3.1275 H   0  0  0  0  0  0  0  0  0  0  0  0
   21.9323   71.8207   -3.8062 O   0  0  0  0  0  0  0  0  0  0  0  0
   23.1128   71.8634   -2.7028 P   0  0  2  0  0  0  0  0  0  0  0  0
   23.5757   73.4136   -2.7144 O   0  0  0  0  0  0  0  0  0  0  0  0
   24.2229   70.8837   -2.9512 O   0  0  0  0  0  0  0  0  0  0  0  0
   22.3575   71.6741   -1.2890 O   0  0  0  0  0  0  0  0  0  0  0  0
   24.0032   72.4776    0.2152 O   0  0  0  0  0  0  0  0  0  0  0  0
   20.8830   71.9547    2.8687 O   0  0  0  0  0  0  0  0  0  0  0  0
   21.6700   74.6108    2.1112 O   0  0  0  0  0  0  0  0  0  0  0  0
   21.2995   70.0434    0.7350 O   0  0  0  0  0  0  0  0  0  0  0  0
   21.4844   72.2789    1.6124 C   0  0  1  0  0  0  0  0  0  0  0  0
   22.4457   73.4494    1.8287 C   0  0  1  0  0  0  0  0  0  0  0  0
   22.2354   71.0563    1.0882 C   0  0  2  0  0  0  0  0  0  0  0  0
   23.3236   73.6811    0.5915 C   0  0  1  0  0  0  0  0  0  0  0  0
   23.1161   71.4064   -0.1125 C   0  0  1  0  0  0  0  0  0  0  0  0
   20.4041   72.7267    3.2068 H   0  0  0  0  0  0  0  0  0  0  0  0
   21.1199   74.4511    2.8941 H   0  0  0  0  0  0  0  0  0  0  0  0
   20.7482   69.8305    1.5035 H   0  0  0  0  0  0  0  0  0  0  0  0
   24.9441   75.1266   -0.4054 O   0  0  0  0  0  0  0  0  0  0  0  0
   24.3959   74.7394    0.8412 C   0  0  0  0  0  0  0  0  0  0  0  0
   25.6278   75.8001   -0.2620 H   0  0  0  0  0  0  0  0  0  0  0  0
 25 28  1  0
 25 24  1  0
 25 26  1  1
 25 27  2  0
  1  4  1  0
  1 24  1  0
  1  2  1  1
  1  3  2  0
  6 11  1  0
  6 12  1  0
 29 36  1  0
 29 37  1  0
  9  7  1  6
  7 13  1  0
 10  8  1  6
  8 14  1  0
 37 28  1  6
  4  5  1  0
 33 30  1  1
 30 38  1  0
 34 31  1  6
 31 39  1  0
 35 32  1  6
 32 40  1  0
 41 42  1  0
 41 43  1  0
 15 19  2  0
 16 22  2  0
 12 17  1  1
 17 19  1  0
 17 20  1  0
 18 19  1  0
 18 22  1  0
 18 23  1  0
  9 10  1  0
  9 11  1  0
 10 12  1  0
 11  5  1  1
 33 34  1  0
 33 35  1  0
 34 36  1  0
 35 37  1  0
 36 42  1  1
 20 21  2  0
 21 22  1  0
M  CHG  2   2  -1  26  -1
M  END
>  <COMPND>  (51) 
    8629 

>  <AUTHOR>  (51) 
    GENERATED BY OPEN BABEL 3.1.1

>  <MASTER>  (51) 
        0    0    0    0    0    0    0    0   58    0   58    0

>  <minimizedAffinity>  (51) 
-7.81356

>  <CNNscore>  (51) 
0.8377205133

>  <CNNaffinity>  (51) 
4.5885963440

>  <CNN_VS>  (51) 
3.8439612389

>  <CNNaffinity_variance>  (51) 
0.2154631913

$$$$
52
     RDKit          3D

 43 45  0  0  0  0  0  0  0  0999 V2000
   22.0748   72.6881   -6.0634 P   0  0  2  0  0  0  0  0  0  0  0  0
   20.7968   73.3588   -5.3325 O   0  0  0  0  0  0  0  0  0  0  0  0
   23.0451   73.6626   -6.6639 O   0  0  0  0  0  0  0  0  0  0  0  0
   21.4201   71.6244   -7.0918 O   0  0  0  0  0  0  0  0  0  0  0  0
   20.2900   72.0227   -7.8481 C   0  0  0  0  0  0  0  0  0  0  0  0
   19.1642   69.9775   -7.2793 O   0  0  0  0  0  0  0  0  0  0  0  0
   18.0968   70.0048  -10.0812 O   0  0  0  0  0  0  0  0  0  0  0  0
   15.9832   70.9353   -8.6308 O   0  0  0  0  0  0  0  0  0  0  0  0
   18.3417   71.0984   -9.1984 C   0  0  1  0  0  0  0  0  0  0  0  0
   17.2823   71.1490   -8.1174 C   0  0  2  0  0  0  0  0  0  0  0  0
   19.5986   70.7823   -8.3973 C   0  0  1  0  0  0  0  0  0  0  0  0
   17.7318   70.0383   -7.1834 C   0  0  2  0  0  0  0  0  0  0  0  0
   17.2989   70.1839  -10.6039 H   0  0  0  0  0  0  0  0  0  0  0  0
   15.7432   71.6684   -9.2189 H   0  0  0  0  0  0  0  0  0  0  0  0
   16.2902   68.2321   -5.5594 O   0  0  0  0  0  0  0  0  0  0  0  0
   16.3836   71.1088   -1.9598 O   0  0  0  0  0  0  0  0  0  0  0  0
   17.3661   70.2895   -5.8179 N   0  0  0  0  0  0  0  0  0  0  0  0
   16.3380   69.6659   -3.7683 N   0  0  0  0  0  0  0  0  0  0  0  0
   16.6411   69.3169   -5.0906 C   0  0  0  0  0  0  0  0  0  0  0  0
   17.7263   71.4889   -5.2134 C   0  0  0  0  0  0  0  0  0  0  0  0
   17.4285   71.8070   -3.9519 C   0  0  0  0  0  0  0  0  0  0  0  0
   16.6728   70.8458   -3.1230 C   0  0  0  0  0  0  0  0  0  0  0  0
   15.8331   69.0039   -3.2424 H   0  0  0  0  0  0  0  0  0  0  0  0
   22.6981   71.7423   -4.9102 O   0  0  0  0  0  0  0  0  0  0  0  0
   23.3244   72.1035   -3.4645 P   0  0  2  0  0  0  0  0  0  0  0  0
   23.9853   73.5613   -3.7001 O   0  0  0  0  0  0  0  0  0  0  0  0
   24.2751   71.0715   -2.9304 O   0  0  0  0  0  0  0  0  0  0  0  0
   22.0437   72.3839   -2.5231 O   0  0  0  0  0  0  0  0  0  0  0  0
   21.0202   74.4952   -2.1892 O   0  0  0  0  0  0  0  0  0  0  0  0
   20.1432   72.7539    1.4507 O   0  0  0  0  0  0  0  0  0  0  0  0
   18.0521   73.1303   -0.4815 O   0  0  0  0  0  0  0  0  0  0  0  0
   22.7094   72.2726    0.2008 O   0  0  0  0  0  0  0  0  0  0  0  0
   20.3605   72.7798    0.0374 C   0  0  1  0  0  0  0  0  0  0  0  0
   19.3392   73.7323   -0.5874 C   0  0  1  0  0  0  0  0  0  0  0  0
   21.7837   73.2602   -0.2400 C   0  0  2  0  0  0  0  0  0  0  0  0
   19.6758   74.0190   -2.0570 C   0  0  1  0  0  0  0  0  0  0  0  0
   21.9984   73.5632   -1.7240 C   0  0  1  0  0  0  0  0  0  0  0  0
   19.2414   72.4492    1.6338 H   0  0  0  0  0  0  0  0  0  0  0  0
   17.8520   72.9540    0.4512 H   0  0  0  0  0  0  0  0  0  0  0  0
   22.5635   72.0899    1.1417 H   0  0  0  0  0  0  0  0  0  0  0  0
   18.9114   75.0687   -4.0626 O   0  0  0  0  0  0  0  0  0  0  0  0
   18.7632   75.0876   -2.6548 C   0  0  0  0  0  0  0  0  0  0  0  0
   18.3361   75.7436   -4.4568 H   0  0  0  0  0  0  0  0  0  0  0  0
 25 28  1  0
 25 24  1  0
 25 26  1  6
 25 27  2  0
  1  4  1  0
  1 24  1  0
  1  2  1  1
  1  3  2  0
  6 11  1  0
  6 12  1  0
 29 36  1  0
 29 37  1  0
  9  7  1  6
  7 13  1  0
 10  8  1  6
  8 14  1  0
 37 28  1  6
  4  5  1  0
 33 30  1  1
 30 38  1  0
 34 31  1  6
 31 39  1  0
 35 32  1  6
 32 40  1  0
 41 42  1  0
 41 43  1  0
 15 19  2  0
 16 22  2  0
 12 17  1  1
 17 19  1  0
 17 20  1  0
 18 19  1  0
 18 22  1  0
 18 23  1  0
  9 10  1  0
  9 11  1  0
 10 12  1  0
 11  5  1  1
 33 34  1  0
 33 35  1  0
 34 36  1  0
 35 37  1  0
 36 42  1  1
 20 21  2  0
 21 22  1  0
M  CHG  2   2  -1  26  -1
M  END
>  <COMPND>  (52) 
    8629 

>  <AUTHOR>  (52) 
    GENERATED BY OPEN BABEL 3.1.1

>  <MASTER>  (52) 
        0    0    0    0    0    0    0    0   58    0   58    0

>  <minimizedAffinity>  (52) 
-6.53419

>  <CNNscore>  (52) 
0.7092877626

>  <CNNaffinity>  (52) 
4.4886751175

>  <CNN_VS>  (52) 
3.1837623119

>  <CNNaffinity_variance>  (52) 
0.2502780557

$$$$
53
     RDKit          3D

 43 45  0  0  0  0  0  0  0  0999 V2000
   21.6254   72.4545   -5.6750 P   0  0  2  0  0  0  0  0  0  0  0  0
   21.0576   73.8290   -6.3122 O   0  0  0  0  0  0  0  0  0  0  0  0
   23.0903   72.4639   -5.3508 O   0  0  0  0  0  0  0  0  0  0  0  0
   21.1439   71.3150   -6.7179 O   0  0  0  0  0  0  0  0  0  0  0  0
   20.3046   71.6949   -7.7945 C   0  0  0  0  0  0  0  0  0  0  0  0
   18.8843   69.9155   -7.0261 O   0  0  0  0  0  0  0  0  0  0  0  0
   17.9236   69.7107   -9.8591 O   0  0  0  0  0  0  0  0  0  0  0  0
   15.9156   71.1043   -8.6498 O   0  0  0  0  0  0  0  0  0  0  0  0
   18.2910   70.8696   -9.1126 C   0  0  1  0  0  0  0  0  0  0  0  0
   17.2143   71.2075   -8.1025 C   0  0  2  0  0  0  0  0  0  0  0  0
   19.4640   70.4969   -8.2145 C   0  0  1  0  0  0  0  0  0  0  0  0
   17.4723   70.1816   -7.0119 C   0  0  2  0  0  0  0  0  0  0  0  0
   17.1764   69.9242  -10.4404 H   0  0  0  0  0  0  0  0  0  0  0  0
   15.8005   71.7775   -9.3386 H   0  0  0  0  0  0  0  0  0  0  0  0
   16.5060   68.5431   -4.9240 O   0  0  0  0  0  0  0  0  0  0  0  0
   16.0780   72.1294   -2.0611 O   0  0  0  0  0  0  0  0  0  0  0  0
   17.1011   70.6608   -5.7104 N   0  0  0  0  0  0  0  0  0  0  0  0
   16.2938   70.3301   -3.5001 N   0  0  0  0  0  0  0  0  0  0  0  0
   16.6264   69.7551   -4.7333 C   0  0  0  0  0  0  0  0  0  0  0  0
   17.2096   72.0150   -5.4136 C   0  0  0  0  0  0  0  0  0  0  0  0
   16.8871   72.5477   -4.2331 C   0  0  0  0  0  0  0  0  0  0  0  0
   16.3830   71.6700   -3.1573 C   0  0  0  0  0  0  0  0  0  0  0  0
   15.9605   69.7184   -2.8041 H   0  0  0  0  0  0  0  0  0  0  0  0
   20.6564   72.2159   -4.4033 O   0  0  0  0  0  0  0  0  0  0  0  0
   20.7529   71.1669   -3.1773 P   0  0  2  0  0  0  0  0  0  0  0  0
   21.8536   70.0976   -3.6896 O   0  0  0  0  0  0  0  0  0  0  0  0
   19.4378   70.5605   -2.7813 O   0  0  0  0  0  0  0  0  0  0  0  0
   21.4950   71.9830   -1.9989 O   0  0  0  0  0  0  0  0  0  0  0  0
   23.7295   72.6185   -2.4676 O   0  0  0  0  0  0  0  0  0  0  0  0
   23.7016   73.2635    1.6109 O   0  0  0  0  0  0  0  0  0  0  0  0
   23.7122   75.5089   -0.1797 O   0  0  0  0  0  0  0  0  0  0  0  0
   22.2986   70.9886    0.4992 O   0  0  0  0  0  0  0  0  0  0  0  0
   23.1476   73.2332    0.2927 C   0  0  1  0  0  0  0  0  0  0  0  0
   23.9694   74.1702   -0.5946 C   0  0  1  0  0  0  0  0  0  0  0  0
   23.2035   71.8024   -0.2394 C   0  0  2  0  0  0  0  0  0  0  0  0
   23.6071   73.9906   -2.0750 C   0  0  1  0  0  0  0  0  0  0  0  0
   22.8740   71.7416   -1.7320 C   0  0  1  0  0  0  0  0  0  0  0  0
   23.6687   74.1692    1.9548 H   0  0  0  0  0  0  0  0  0  0  0  0
   23.9447   75.6088    0.7568 H   0  0  0  0  0  0  0  0  0  0  0  0
   22.5179   71.0354    1.4424 H   0  0  0  0  0  0  0  0  0  0  0  0
   25.0102   73.9452   -4.0084 O   0  0  0  0  0  0  0  0  0  0  0  0
   24.5233   74.7999   -2.9903 C   0  0  0  0  0  0  0  0  0  0  0  0
   25.5946   74.4468   -4.5988 H   0  0  0  0  0  0  0  0  0  0  0  0
 25 28  1  0
 25 24  1  0
 25 26  1  6
 25 27  2  0
  1  4  1  0
  1 24  1  0
  1  2  1  6
  1  3  2  0
  6 11  1  0
  6 12  1  0
 29 36  1  0
 29 37  1  0
  9  7  1  6
  7 13  1  0
 10  8  1  6
  8 14  1  0
 37 28  1  1
  4  5  1  0
 33 30  1  1
 30 38  1  0
 34 31  1  1
 31 39  1  0
 35 32  1  1
 32 40  1  0
 41 42  1  0
 41 43  1  0
 15 19  2  0
 16 22  2  0
 12 17  1  1
 17 19  1  0
 17 20  1  0
 18 19  1  0
 18 22  1  0
 18 23  1  0
  9 10  1  0
  9 11  1  0
 10 12  1  0
 11  5  1  1
 33 34  1  0
 33 35  1  0
 34 36  1  0
 35 37  1  0
 36 42  1  6
 20 21  2  0
 21 22  1  0
M  CHG  2   2  -1  26  -1
M  END
>  <COMPND>  (53) 
    8629 

>  <AUTHOR>  (53) 
    GENERATED BY OPEN BABEL 3.1.1

>  <MASTER>  (53) 
        0    0    0    0    0    0    0    0   58    0   58    0

>  <minimizedAffinity>  (53) 
-6.59756

>  <CNNscore>  (53) 
0.6903440952

>  <CNNaffinity>  (53) 
4.4759435654

>  <CNN_VS>  (53) 
3.0899412632

>  <CNNaffinity_variance>  (53) 
0.2675765157

$$$$
54
     RDKit          3D

 43 45  0  0  0  0  0  0  0  0999 V2000
   23.6113   72.7213   -3.5674 P   0  0  2  0  0  0  0  0  0  0  0  0
   23.9621   71.1998   -3.1437 O   0  0  0  0  0  0  0  0  0  0  0  0
   24.6935   73.4341   -4.3238 O   0  0  0  0  0  0  0  0  0  0  0  0
   23.1502   73.4144   -2.1800 O   0  0  0  0  0  0  0  0  0  0  0  0
   22.1919   74.4569   -2.2307 C   0  0  0  0  0  0  0  0  0  0  0  0
   21.2472   72.7800   -0.7922 O   0  0  0  0  0  0  0  0  0  0  0  0
   19.1894   74.8343   -0.0602 O   0  0  0  0  0  0  0  0  0  0  0  0
   20.8964   74.9196    2.0647 O   0  0  0  0  0  0  0  0  0  0  0  0
   20.5767   75.0082   -0.3439 C   0  0  1  0  0  0  0  0  0  0  0  0
   21.4165   74.5133    0.8152 C   0  0  2  0  0  0  0  0  0  0  0  0
   20.9553   74.0320   -1.4507 C   0  0  1  0  0  0  0  0  0  0  0  0
   21.3639   73.0073    0.6218 C   0  0  2  0  0  0  0  0  0  0  0  0
   18.9241   75.4476    0.6436 H   0  0  0  0  0  0  0  0  0  0  0  0
   20.9520   75.8850    2.1397 H   0  0  0  0  0  0  0  0  0  0  0  0
   21.5251   70.2551    1.2364 O   0  0  0  0  0  0  0  0  0  0  0  0
   25.9540   70.6015    2.4637 O   0  0  0  0  0  0  0  0  0  0  0  0
   22.5469   72.3517    1.1035 N   0  0  0  0  0  0  0  0  0  0  0  0
   23.7303   70.4298    1.8469 N   0  0  0  0  0  0  0  0  0  0  0  0
   22.5220   70.9654    1.3830 C   0  0  0  0  0  0  0  0  0  0  0  0
   23.7151   73.0817    1.2937 C   0  0  0  0  0  0  0  0  0  0  0  0
   24.8587   72.5563    1.7379 C   0  0  0  0  0  0  0  0  0  0  0  0
   24.9174   71.1144    2.0534 C   0  0  0  0  0  0  0  0  0  0  0  0
   23.7365   69.4659    2.0485 H   0  0  0  0  0  0  0  0  0  0  0  0
   22.2195   72.5622   -4.3741 O   0  0  0  0  0  0  0  0  0  0  0  0
   21.7802   73.0718   -5.8439 P   0  0  2  0  0  0  0  0  0  0  0  0
   22.8212   72.3161   -6.8251 O   0  0  0  0  0  0  0  0  0  0  0  0
   21.7582   74.5652   -5.9963 O   0  0  0  0  0  0  0  0  0  0  0  0
   20.3630   72.3503   -6.1197 O   0  0  0  0  0  0  0  0  0  0  0  0
   19.6463   70.1945   -5.4448 O   0  0  0  0  0  0  0  0  0  0  0  0
   17.6857   70.4365   -9.0709 O   0  0  0  0  0  0  0  0  0  0  0  0
   16.1842   70.6374   -6.6309 O   0  0  0  0  0  0  0  0  0  0  0  0
   20.3577   71.5164   -8.7992 O   0  0  0  0  0  0  0  0  0  0  0  0
   18.2234   70.9384   -7.8443 C   0  0  1  0  0  0  0  0  0  0  0  0
   17.5413   70.2066   -6.6867 C   0  0  1  0  0  0  0  0  0  0  0  0
   19.7308   70.6923   -7.8223 C   0  0  2  0  0  0  0  0  0  0  0  0
   18.2486   70.4948   -5.3556 C   0  0  1  0  0  0  0  0  0  0  0  0
   20.3270   70.9619   -6.4396 C   0  0  1  0  0  0  0  0  0  0  0  0
   16.7289   70.5901   -9.0914 H   0  0  0  0  0  0  0  0  0  0  0  0
   15.7492   70.4501   -7.4776 H   0  0  0  0  0  0  0  0  0  0  0  0
   19.9718   71.3361   -9.6700 H   0  0  0  0  0  0  0  0  0  0  0  0
   16.8445   68.6542   -4.7642 O   0  0  0  0  0  0  0  0  0  0  0  0
   17.6834   69.6530   -4.2137 C   0  0  0  0  0  0  0  0  0  0  0  0
   16.4779   68.1105   -4.0489 H   0  0  0  0  0  0  0  0  0  0  0  0
 25 28  1  0
 25 24  1  0
 25 26  1  6
 25 27  2  0
  1  4  1  0
  1 24  1  0
  1  2  1  1
  1  3  2  0
  6 11  1  0
  6 12  1  0
 29 36  1  0
 29 37  1  0
  9  7  1  1
  7 13  1  0
 10  8  1  1
  8 14  1  0
 37 28  1  1
  4  5  1  0
 33 30  1  6
 30 38  1  0
 34 31  1  1
 31 39  1  0
 35 32  1  6
 32 40  1  0
 41 42  1  0
 41 43  1  0
 15 19  2  0
 16 22  2  0
 12 17  1  6
 17 19  1  0
 17 20  1  0
 18 19  1  0
 18 22  1  0
 18 23  1  0
  9 10  1  0
  9 11  1  0
 10 12  1  0
 11  5  1  1
 33 34  1  0
 33 35  1  0
 34 36  1  0
 35 37  1  0
 36 42  1  1
 20 21  2  0
 21 22  1  0
M  CHG  2   2  -1  26  -1
M  END
>  <COMPND>  (54) 
    8629 

>  <AUTHOR>  (54) 
    GENERATED BY OPEN BABEL 3.1.1

>  <MASTER>  (54) 
        0    0    0    0    0    0    0    0   58    0   58    0

>  <minimizedAffinity>  (54) 
-7.80908

>  <CNNscore>  (54) 
0.6540216208

>  <CNNaffinity>  (54) 
4.4183111191

>  <CNN_VS>  (54) 
2.8896710873

>  <CNNaffinity_variance>  (54) 
0.0753971115

$$$$
55
     RDKit          3D

 43 45  0  0  0  0  0  0  0  0999 V2000
   23.0713   71.7092   -2.5882 P   0  0  2  0  0  0  0  0  0  0  0  0
   23.3102   73.2827   -2.2977 O   0  0  0  0  0  0  0  0  0  0  0  0
   24.2626   70.9773   -3.1328 O   0  0  0  0  0  0  0  0  0  0  0  0
   21.7458   71.6822   -3.5155 O   0  0  0  0  0  0  0  0  0  0  0  0
   21.6433   72.6166   -4.5758 C   0  0  0  0  0  0  0  0  0  0  0  0
   20.7957   70.6666   -5.6952 O   0  0  0  0  0  0  0  0  0  0  0  0
   21.3330   72.1324   -8.2552 O   0  0  0  0  0  0  0  0  0  0  0  0
   18.6433   72.4532   -7.9399 O   0  0  0  0  0  0  0  0  0  0  0  0
   20.8787   72.6415   -7.0023 C   0  0  1  0  0  0  0  0  0  0  0  0
   19.4276   72.2700   -6.7788 C   0  0  2  0  0  0  0  0  0  0  0  0
   21.5804   71.8624   -5.8969 C   0  0  1  0  0  0  0  0  0  0  0  0
   19.5353   70.8107   -6.3701 C   0  0  2  0  0  0  0  0  0  0  0  0
   20.8988   72.6149   -8.9767 H   0  0  0  0  0  0  0  0  0  0  0  0
   18.6052   73.3973   -8.1589 H   0  0  0  0  0  0  0  0  0  0  0  0
   17.0103   69.8637   -7.2100 O   0  0  0  0  0  0  0  0  0  0  0  0
   15.5691   69.3111   -2.8673 O   0  0  0  0  0  0  0  0  0  0  0  0
   18.4815   70.4120   -5.4803 N   0  0  0  0  0  0  0  0  0  0  0  0
   16.2948   69.5891   -5.0470 N   0  0  0  0  0  0  0  0  0  0  0  0
   17.2510   69.9518   -6.0042 C   0  0  0  0  0  0  0  0  0  0  0  0
   18.6737   70.4789   -4.1046 C   0  0  0  0  0  0  0  0  0  0  0  0
   17.7513   70.1305   -3.2051 C   0  0  0  0  0  0  0  0  0  0  0  0
   16.4380   69.6390   -3.6694 C   0  0  0  0  0  0  0  0  0  0  0  0
   15.4297   69.2659   -5.3888 H   0  0  0  0  0  0  0  0  0  0  0  0
   22.5328   71.1551   -1.1683 O   0  0  0  0  0  0  0  0  0  0  0  0
   21.4482   71.7616   -0.1345 P   0  0  2  0  0  0  0  0  0  0  0  0
   20.8946   70.4501    0.6343 O   0  0  0  0  0  0  0  0  0  0  0  0
   20.3813   72.5965   -0.7815 O   0  0  0  0  0  0  0  0  0  0  0  0
   22.3288   72.5408    0.9710 O   0  0  0  0  0  0  0  0  0  0  0  0
   24.2003   72.0130    2.3259 O   0  0  0  0  0  0  0  0  0  0  0  0
   21.8183   73.8281    5.1689 O   0  0  0  0  0  0  0  0  0  0  0  0
   24.1422   75.1972    4.1825 O   0  0  0  0  0  0  0  0  0  0  0  0
   20.6227   72.1219    3.1593 O   0  0  0  0  0  0  0  0  0  0  0  0
   22.3657   73.6279    3.8629 C   0  0  1  0  0  0  0  0  0  0  0  0
   23.8818   73.8167    3.9442 C   0  0  1  0  0  0  0  0  0  0  0  0
   22.0243   72.2162    3.3896 C   0  0  2  0  0  0  0  0  0  0  0  0
   24.5672   73.3592    2.6496 C   0  0  1  0  0  0  0  0  0  0  0  0
   22.7961   71.8432    2.1226 C   0  0  1  0  0  0  0  0  0  0  0  0
   22.0311   74.7228    5.4751 H   0  0  0  0  0  0  0  0  0  0  0  0
   23.7035   75.4734    5.0025 H   0  0  0  0  0  0  0  0  0  0  0  0
   20.1453   72.3602    3.9688 H   0  0  0  0  0  0  0  0  0  0  0  0
   26.5327   74.7106    2.5095 O   0  0  0  0  0  0  0  0  0  0  0  0
   26.0895   73.3908    2.7665 C   0  0  0  0  0  0  0  0  0  0  0  0
   27.4998   74.7459    2.5807 H   0  0  0  0  0  0  0  0  0  0  0  0
 25 28  1  0
 25 24  1  0
 25 26  1  1
 25 27  2  0
  1  4  1  0
  1 24  1  0
  1  2  1  1
  1  3  2  0
  6 11  1  0
  6 12  1  0
 29 36  1  0
 29 37  1  0
  9  7  1  6
  7 13  1  0
 10  8  1  6
  8 14  1  0
 37 28  1  6
  4  5  1  0
 33 30  1  1
 30 38  1  0
 34 31  1  6
 31 39  1  0
 35 32  1  6
 32 40  1  0
 41 42  1  0
 41 43  1  0
 15 19  2  0
 16 22  2  0
 12 17  1  1
 17 19  1  0
 17 20  1  0
 18 19  1  0
 18 22  1  0
 18 23  1  0
  9 10  1  0
  9 11  1  0
 10 12  1  0
 11  5  1  1
 33 34  1  0
 33 35  1  0
 34 36  1  0
 35 37  1  0
 36 42  1  1
 20 21  2  0
 21 22  1  0
M  CHG  2   2  -1  26  -1
M  END
>  <COMPND>  (55) 
    8629 

>  <AUTHOR>  (55) 
    GENERATED BY OPEN BABEL 3.1.1

>  <MASTER>  (55) 
        0    0    0    0    0    0    0    0   58    0   58    0

>  <minimizedAffinity>  (55) 
-7.52437

>  <CNNscore>  (55) 
0.6427143812

>  <CNNaffinity>  (55) 
4.3085365295

>  <CNN_VS>  (55) 
2.7691583633

>  <CNNaffinity_variance>  (55) 
0.2203291655

$$$$
56
     RDKit          3D

 43 45  0  0  0  0  0  0  0  0999 V2000
   23.0880   73.5460   -4.6406 P   0  0  2  0  0  0  0  0  0  0  0  0
   24.5163   74.2976   -4.5295 O   0  0  0  0  0  0  0  0  0  0  0  0
   23.0437   72.4110   -5.6210 O   0  0  0  0  0  0  0  0  0  0  0  0
   22.0370   74.7468   -4.9079 O   0  0  0  0  0  0  0  0  0  0  0  0
   21.0118   74.5473   -5.8655 C   0  0  0  0  0  0  0  0  0  0  0  0
   18.6657   74.0783   -6.0885 O   0  0  0  0  0  0  0  0  0  0  0  0
   18.5776   74.0493   -3.0915 O   0  0  0  0  0  0  0  0  0  0  0  0
   18.6127   71.3938   -3.7108 O   0  0  0  0  0  0  0  0  0  0  0  0
   19.6082   73.5970   -3.9682 C   0  0  1  0  0  0  0  0  0  0  0  0
   19.2049   72.2935   -4.6254 C   0  0  2  0  0  0  0  0  0  0  0  0
   19.6643   74.5486   -5.1568 C   0  0  1  0  0  0  0  0  0  0  0  0
   18.2327   72.7665   -5.6929 C   0  0  2  0  0  0  0  0  0  0  0  0
   18.5230   73.4573   -2.3244 H   0  0  0  0  0  0  0  0  0  0  0  0
   19.2708   71.1221   -3.0522 H   0  0  0  0  0  0  0  0  0  0  0  0
   15.8997   71.6970   -6.8724 O   0  0  0  0  0  0  0  0  0  0  0  0
   18.3270   69.4927  -10.1113 O   0  0  0  0  0  0  0  0  0  0  0  0
   18.2259   71.9104   -6.8454 N   0  0  0  0  0  0  0  0  0  0  0  0
   17.1102   70.6005   -8.4843 N   0  0  0  0  0  0  0  0  0  0  0  0
   16.9998   71.4265   -7.3584 C   0  0  0  0  0  0  0  0  0  0  0  0
   19.4254   71.5593   -7.4550 C   0  0  0  0  0  0  0  0  0  0  0  0
   19.5137   70.7696   -8.5273 C   0  0  0  0  0  0  0  0  0  0  0  0
   18.2791   70.2217   -9.1254 C   0  0  0  0  0  0  0  0  0  0  0  0
   16.2691   70.2512   -8.8588 H   0  0  0  0  0  0  0  0  0  0  0  0
   22.7784   73.1260   -3.1107 O   0  0  0  0  0  0  0  0  0  0  0  0
   22.8263   71.6878   -2.3742 P   0  0  2  0  0  0  0  0  0  0  0  0
   24.2400   71.0690   -2.8603 O   0  0  0  0  0  0  0  0  0  0  0  0
   21.6386   70.8132   -2.6541 O   0  0  0  0  0  0  0  0  0  0  0  0
   23.0484   72.0351   -0.8138 O   0  0  0  0  0  0  0  0  0  0  0  0
   24.4008   71.0622    0.8718 O   0  0  0  0  0  0  0  0  0  0  0  0
   20.9951   71.7832    3.0927 O   0  0  0  0  0  0  0  0  0  0  0  0
   23.3302   73.4016    3.5118 O   0  0  0  0  0  0  0  0  0  0  0  0
   20.7673   70.8870    0.3496 O   0  0  0  0  0  0  0  0  0  0  0  0
   21.9720   72.0479    2.0823 C   0  0  1  0  0  0  0  0  0  0  0  0
   23.3362   72.1913    2.7600 C   0  0  1  0  0  0  0  0  0  0  0  0
   21.9857   70.8904    1.0857 C   0  0  2  0  0  0  0  0  0  0  0  0
   24.4694   72.2104    1.7254 C   0  0  1  0  0  0  0  0  0  0  0  0
   23.1800   70.9787    0.1338 C   0  0  1  0  0  0  0  0  0  0  0  0
   20.9810   72.5147    3.7285 H   0  0  0  0  0  0  0  0  0  0  0  0
   22.6098   73.3769    4.1611 H   0  0  0  0  0  0  0  0  0  0  0  0
   20.0190   70.8305    0.9634 H   0  0  0  0  0  0  0  0  0  0  0  0
   26.3377   70.8662    2.3670 O   0  0  0  0  0  0  0  0  0  0  0  0
   25.8466   72.1939    2.3852 C   0  0  0  0  0  0  0  0  0  0  0  0
   27.2139   70.8405    2.7835 H   0  0  0  0  0  0  0  0  0  0  0  0
 25 28  1  0
 25 24  1  0
 25 26  1  6
 25 27  2  0
  1  4  1  0
  1 24  1  0
  1  2  1  1
  1  3  2  0
  6 11  1  0
  6 12  1  0
 29 36  1  0
 29 37  1  0
  9  7  1  1
  7 13  1  0
 10  8  1  1
  8 14  1  0
 37 28  1  1
  4  5  1  0
 33 30  1  1
 30 38  1  0
 34 31  1  6
 31 39  1  0
 35 32  1  6
 32 40  1  0
 41 42  1  0
 41 43  1  0
 15 19  2  0
 16 22  2  0
 12 17  1  6
 17 19  1  0
 17 20  1  0
 18 19  1  0
 18 22  1  0
 18 23  1  0
  9 10  1  0
  9 11  1  0
 10 12  1  0
 11  5  1  6
 33 34  1  0
 33 35  1  0
 34 36  1  0
 35 37  1  0
 36 42  1  1
 20 21  2  0
 21 22  1  0
M  CHG  2   2  -1  26  -1
M  END
>  <COMPND>  (56) 
    8629 

>  <AUTHOR>  (56) 
    GENERATED BY OPEN BABEL 3.1.1

>  <MASTER>  (56) 
        0    0    0    0    0    0    0    0   58    0   58    0

>  <minimizedAffinity>  (56) 
-7.32376

>  <CNNscore>  (56) 
0.6386864781

>  <CNNaffinity>  (56) 
4.3300428391

>  <CNN_VS>  (56) 
2.7655398846

>  <CNNaffinity_variance>  (56) 
0.0387233794

$$$$
57
     RDKit          3D

 43 45  0  0  0  0  0  0  0  0999 V2000
   21.9053   73.3233   -5.3417 P   0  0  2  0  0  0  0  0  0  0  0  0
   21.8491   74.8660   -5.8256 O   0  0  0  0  0  0  0  0  0  0  0  0
   22.7075   72.4115   -6.2228 O   0  0  0  0  0  0  0  0  0  0  0  0
   20.3505   72.9211   -5.1446 O   0  0  0  0  0  0  0  0  0  0  0  0
   19.9563   72.3246   -3.9213 C   0  0  0  0  0  0  0  0  0  0  0  0
   17.9339   72.4909   -5.2083 O   0  0  0  0  0  0  0  0  0  0  0  0
   16.6037   71.0187   -2.9602 O   0  0  0  0  0  0  0  0  0  0  0  0
   16.9798   69.0560   -4.8158 O   0  0  0  0  0  0  0  0  0  0  0  0
   17.9202   70.8620   -3.4871 C   0  0  1  0  0  0  0  0  0  0  0  0
   17.8704   70.1531   -4.8245 C   0  0  2  0  0  0  0  0  0  0  0  0
   18.4366   72.2413   -3.8773 C   0  0  1  0  0  0  0  0  0  0  0  0
   17.4179   71.2660   -5.7544 C   0  0  2  0  0  0  0  0  0  0  0  0
   16.2530   70.1509   -2.7036 H   0  0  0  0  0  0  0  0  0  0  0  0
   17.3112   68.3751   -4.2097 H   0  0  0  0  0  0  0  0  0  0  0  0
   16.5106   72.7321   -7.9917 O   0  0  0  0  0  0  0  0  0  0  0  0
   19.4173   70.5534  -10.8283 O   0  0  0  0  0  0  0  0  0  0  0  0
   17.9204   71.1025   -7.0894 N   0  0  0  0  0  0  0  0  0  0  0  0
   17.9588   71.6462   -9.4022 N   0  0  0  0  0  0  0  0  0  0  0  0
   17.3962   71.8878   -8.1424 C   0  0  0  0  0  0  0  0  0  0  0  0
   18.9222   70.1721   -7.3436 C   0  0  0  0  0  0  0  0  0  0  0  0
   19.4471   69.9528   -8.5510 C   0  0  0  0  0  0  0  0  0  0  0  0
   18.9550   70.7317   -9.7056 C   0  0  0  0  0  0  0  0  0  0  0  0
   17.6089   72.1814  -10.1512 H   0  0  0  0  0  0  0  0  0  0  0  0
   22.4461   73.4383   -3.8227 O   0  0  0  0  0  0  0  0  0  0  0  0
   23.7988   72.8841   -3.1327 P   0  0  2  0  0  0  0  0  0  0  0  0
   24.8886   74.0280   -3.4813 O   0  0  0  0  0  0  0  0  0  0  0  0
   24.1905   71.5021   -3.5691 O   0  0  0  0  0  0  0  0  0  0  0  0
   23.5406   73.0368   -1.5469 O   0  0  0  0  0  0  0  0  0  0  0  0
   21.7562   72.5405   -0.0683 O   0  0  0  0  0  0  0  0  0  0  0  0
   22.6994   76.3266    1.2834 O   0  0  0  0  0  0  0  0  0  0  0  0
   23.3777   74.0399    2.8832 O   0  0  0  0  0  0  0  0  0  0  0  0
   22.7898   75.7408   -1.5500 O   0  0  0  0  0  0  0  0  0  0  0  0
   22.9716   75.0302    0.7442 C   0  0  1  0  0  0  0  0  0  0  0  0
   22.5065   73.9822    1.7571 C   0  0  1  0  0  0  0  0  0  0  0  0
   22.2211   74.8714   -0.5768 C   0  0  2  0  0  0  0  0  0  0  0  0
   22.5185   72.5754    1.1439 C   0  0  1  0  0  0  0  0  0  0  0  0
   22.2533   73.4252   -1.0744 C   0  0  1  0  0  0  0  0  0  0  0  0
   23.1734   76.4340    2.1220 H   0  0  0  0  0  0  0  0  0  0  0  0
   23.3612   74.9335    3.2607 H   0  0  0  0  0  0  0  0  0  0  0  0
   22.7632   76.6532   -1.2233 H   0  0  0  0  0  0  0  0  0  0  0  0
   21.5098   70.4163    1.3161 O   0  0  0  0  0  0  0  0  0  0  0  0
   21.9100   71.5367    2.0835 C   0  0  0  0  0  0  0  0  0  0  0  0
   21.1209   69.7468    1.9011 H   0  0  0  0  0  0  0  0  0  0  0  0
 25 28  1  0
 25 24  1  0
 25 26  1  6
 25 27  2  0
  1  4  1  0
  1 24  1  0
  1  2  1  6
  1  3  2  0
  6 11  1  0
  6 12  1  0
 29 36  1  0
 29 37  1  0
  9  7  1  6
  7 13  1  0
 10  8  1  1
  8 14  1  0
 37 28  1  1
  4  5  1  0
 33 30  1  1
 30 38  1  0
 34 31  1  1
 31 39  1  0
 35 32  1  6
 32 40  1  0
 41 42  1  0
 41 43  1  0
 15 19  2  0
 16 22  2  0
 12 17  1  6
 17 19  1  0
 17 20  1  0
 18 19  1  0
 18 22  1  0
 18 23  1  0
  9 10  1  0
  9 11  1  0
 10 12  1  0
 11  5  1  6
 33 34  1  0
 33 35  1  0
 34 36  1  0
 35 37  1  0
 36 42  1  1
 20 21  2  0
 21 22  1  0
M  CHG  2   2  -1  26  -1
M  END
>  <COMPND>  (57) 
    8629 

>  <AUTHOR>  (57) 
    GENERATED BY OPEN BABEL 3.1.1

>  <MASTER>  (57) 
        0    0    0    0    0    0    0    0   58    0   58    0

>  <minimizedAffinity>  (57) 
-6.41670

>  <CNNscore>  (57) 
0.6173633337

>  <CNNaffinity>  (57) 
4.3517508507

>  <CNN_VS>  (57) 
2.6866114140

>  <CNNaffinity_variance>  (57) 
0.0517929383

$$$$
58
     RDKit          3D

 43 45  0  0  0  0  0  0  0  0999 V2000
   21.9886   72.4938   -5.7201 P   0  0  2  0  0  0  0  0  0  0  0  0
   21.3610   73.7880   -4.9795 O   0  0  0  0  0  0  0  0  0  0  0  0
   23.0379   72.7988   -6.7484 O   0  0  0  0  0  0  0  0  0  0  0  0
   20.6929   71.6867   -6.2563 O   0  0  0  0  0  0  0  0  0  0  0  0
   20.2258   71.9524   -7.5675 C   0  0  0  0  0  0  0  0  0  0  0  0
   18.9461   70.0056   -6.9791 O   0  0  0  0  0  0  0  0  0  0  0  0
   18.1179   69.9097   -9.8594 O   0  0  0  0  0  0  0  0  0  0  0  0
   15.9456   71.0337   -8.6534 O   0  0  0  0  0  0  0  0  0  0  0  0
   18.3485   71.0431   -9.0242 C   0  0  1  0  0  0  0  0  0  0  0  0
   17.2074   71.2143   -8.0433 C   0  0  2  0  0  0  0  0  0  0  0  0
   19.5153   70.7158   -8.1007 C   0  0  1  0  0  0  0  0  0  0  0  0
   17.5161   70.1435   -7.0107 C   0  0  2  0  0  0  0  0  0  0  0  0
   17.3771   70.0950  -10.4584 H   0  0  0  0  0  0  0  0  0  0  0  0
   15.7959   71.7393   -9.3018 H   0  0  0  0  0  0  0  0  0  0  0  0
   16.5682   68.2929   -5.0990 O   0  0  0  0  0  0  0  0  0  0  0  0
   15.7627   71.6175   -2.0105 O   0  0  0  0  0  0  0  0  0  0  0  0
   17.0528   70.4980   -5.6988 N   0  0  0  0  0  0  0  0  0  0  0  0
   16.1681   69.9498   -3.5627 N   0  0  0  0  0  0  0  0  0  0  0  0
   16.5963   69.4922   -4.8154 C   0  0  0  0  0  0  0  0  0  0  0  0
   17.0544   71.8302   -5.2998 C   0  0  0  0  0  0  0  0  0  0  0  0
   16.6415   72.2502   -4.1021 C   0  0  0  0  0  0  0  0  0  0  0  0
   16.1492   71.2629   -3.1199 C   0  0  0  0  0  0  0  0  0  0  0  0
   15.8454   69.2669   -2.9307 H   0  0  0  0  0  0  0  0  0  0  0  0
   22.5000   71.5819   -4.4872 O   0  0  0  0  0  0  0  0  0  0  0  0
   23.4839   71.9234   -3.2510 P   0  0  2  0  0  0  0  0  0  0  0  0
   24.2000   73.2978   -3.7153 O   0  0  0  0  0  0  0  0  0  0  0  0
   24.4361   70.8174   -2.8987 O   0  0  0  0  0  0  0  0  0  0  0  0
   22.4965   72.3629   -2.0523 O   0  0  0  0  0  0  0  0  0  0  0  0
   21.8725   71.2194   -0.0726 O   0  0  0  0  0  0  0  0  0  0  0  0
   18.2673   73.0301   -0.9528 O   0  0  0  0  0  0  0  0  0  0  0  0
   19.8354   73.9909    1.2531 O   0  0  0  0  0  0  0  0  0  0  0  0
   19.9165   71.9826   -3.0887 O   0  0  0  0  0  0  0  0  0  0  0  0
   19.6923   72.9288   -0.8852 C   0  0  1  0  0  0  0  0  0  0  0  0
   20.0920   72.7605    0.5820 C   0  0  1  0  0  0  0  0  0  0  0  0
   20.1467   71.7246   -1.7078 C   0  0  2  0  0  0  0  0  0  0  0  0
   21.5728   72.3794    0.7125 C   0  0  1  0  0  0  0  0  0  0  0  0
   21.6224   71.4009   -1.4677 C   0  0  1  0  0  0  0  0  0  0  0  0
   17.9723   73.7931   -0.4329 H   0  0  0  0  0  0  0  0  0  0  0  0
   18.8971   74.2204    1.1627 H   0  0  0  0  0  0  0  0  0  0  0  0
   18.9788   72.1858   -3.2277 H   0  0  0  0  0  0  0  0  0  0  0  0
   20.7672   71.9186    2.9142 O   0  0  0  0  0  0  0  0  0  0  0  0
   21.9544   72.0527    2.1547 C   0  0  0  0  0  0  0  0  0  0  0  0
   20.9946   71.7104    3.8344 H   0  0  0  0  0  0  0  0  0  0  0  0
 25 28  1  0
 25 24  1  0
 25 26  1  6
 25 27  2  0
  1  4  1  0
  1 24  1  0
  1  2  1  1
  1  3  2  0
  6 11  1  0
  6 12  1  0
 29 36  1  0
 29 37  1  0
  9  7  1  6
  7 13  1  0
 10  8  1  6
  8 14  1  0
 37 28  1  1
  4  5  1  0
 33 30  1  1
 30 38  1  0
 34 31  1  1
 31 39  1  0
 35 32  1  6
 32 40  1  0
 41 42  1  0
 41 43  1  0
 15 19  2  0
 16 22  2  0
 12 17  1  1
 17 19  1  0
 17 20  1  0
 18 19  1  0
 18 22  1  0
 18 23  1  0
  9 10  1  0
  9 11  1  0
 10 12  1  0
 11  5  1  1
 33 34  1  0
 33 35  1  0
 34 36  1  0
 35 37  1  0
 36 42  1  1
 20 21  2  0
 21 22  1  0
M  CHG  2   2  -1  26  -1
M  END
>  <COMPND>  (58) 
    8629 

>  <AUTHOR>  (58) 
    GENERATED BY OPEN BABEL 3.1.1

>  <MASTER>  (58) 
        0    0    0    0    0    0    0    0   58    0   58    0

>  <minimizedAffinity>  (58) 
-7.28193

>  <CNNscore>  (58) 
0.6152216196

>  <CNNaffinity>  (58) 
4.2754125595

>  <CNN_VS>  (58) 
2.6303262711

>  <CNNaffinity_variance>  (58) 
0.4699413180

$$$$
59
     RDKit          3D

 43 45  0  0  0  0  0  0  0  0999 V2000
   17.2032   69.4660   -2.9769 P   0  0  2  0  0  0  0  0  0  0  0  0
   16.9204   68.5650   -1.6633 O   0  0  0  0  0  0  0  0  0  0  0  0
   16.3691   69.1191   -4.1750 O   0  0  0  0  0  0  0  0  0  0  0  0
   18.8048   69.3620   -3.1819 O   0  0  0  0  0  0  0  0  0  0  0  0
   19.6265   70.3629   -2.6068 C   0  0  0  0  0  0  0  0  0  0  0  0
   20.5005   70.1227   -4.8321 O   0  0  0  0  0  0  0  0  0  0  0  0
   22.5726   72.1379   -4.0346 O   0  0  0  0  0  0  0  0  0  0  0  0
   20.8079   73.6378   -5.4743 O   0  0  0  0  0  0  0  0  0  0  0  0
   21.1971   72.0629   -3.6634 C   0  0  1  0  0  0  0  0  0  0  0  0
   20.3164   72.4855   -4.8206 C   0  0  2  0  0  0  0  0  0  0  0  0
   20.8329   70.5918   -3.5070 C   0  0  1  0  0  0  0  0  0  0  0  0
   20.3479   71.2522   -5.7073 C   0  0  2  0  0  0  0  0  0  0  0  0
   22.8286   73.0681   -4.1400 H   0  0  0  0  0  0  0  0  0  0  0  0
   20.7672   74.3949   -4.8694 H   0  0  0  0  0  0  0  0  0  0  0  0
   20.1831   69.8847   -8.1732 O   0  0  0  0  0  0  0  0  0  0  0  0
   15.6626   70.7064   -8.5356 O   0  0  0  0  0  0  0  0  0  0  0  0
   19.1403   71.0932   -6.4675 N   0  0  0  0  0  0  0  0  0  0  0  0
   17.9323   70.2948   -8.3516 N   0  0  0  0  0  0  0  0  0  0  0  0
   19.1656   70.3897   -7.6943 C   0  0  0  0  0  0  0  0  0  0  0  0
   17.9482   71.6314   -5.9952 C   0  0  0  0  0  0  0  0  0  0  0  0
   16.7809   71.5332   -6.6347 C   0  0  0  0  0  0  0  0  0  0  0  0
   16.7207   70.8138   -7.9235 C   0  0  0  0  0  0  0  0  0  0  0  0
   17.9258   69.8094   -9.2084 H   0  0  0  0  0  0  0  0  0  0  0  0
   17.0039   70.9750   -2.4325 O   0  0  0  0  0  0  0  0  0  0  0  0
   15.6984   71.7296   -1.8502 P   0  0  2  0  0  0  0  0  0  0  0  0
   15.0856   72.4690   -3.1523 O   0  0  0  0  0  0  0  0  0  0  0  0
   15.9811   72.6448   -0.6941 O   0  0  0  0  0  0  0  0  0  0  0  0
   14.6526   70.5442   -1.5246 O   0  0  0  0  0  0  0  0  0  0  0  0
   12.6809   71.2620   -0.4230 O   0  0  0  0  0  0  0  0  0  0  0  0
   12.3111   67.1894    0.1496 O   0  0  0  0  0  0  0  0  0  0  0  0
   10.5878   68.5202   -1.7232 O   0  0  0  0  0  0  0  0  0  0  0  0
   14.9167   68.4398    0.3130 O   0  0  0  0  0  0  0  0  0  0  0  0
   12.6723   68.3781   -0.5589 C   0  0  1  0  0  0  0  0  0  0  0  0
   11.4061   69.2077   -0.7808 C   0  0  1  0  0  0  0  0  0  0  0  0
   13.6906   69.1616    0.2672 C   0  0  2  0  0  0  0  0  0  0  0  0
   11.7474   70.6130   -1.2943 C   0  0  1  0  0  0  0  0  0  0  0  0
   13.9211   70.5629   -0.3016 C   0  0  1  0  0  0  0  0  0  0  0  0
   11.6651   66.6870   -0.3698 H   0  0  0  0  0  0  0  0  0  0  0  0
   10.3800   67.6342   -1.3872 H   0  0  0  0  0  0  0  0  0  0  0  0
   14.7574   67.5548    0.6752 H   0  0  0  0  0  0  0  0  0  0  0  0
    9.7995   71.1884   -2.5526 O   0  0  0  0  0  0  0  0  0  0  0  0
   10.5131   71.5087   -1.3726 C   0  0  0  0  0  0  0  0  0  0  0  0
    9.0110   71.7506   -2.6156 H   0  0  0  0  0  0  0  0  0  0  0  0
 25 28  1  0
 25 24  1  0
 25 26  1  6
 25 27  2  0
  1  4  1  0
  1 24  1  0
  1  2  1  1
  1  3  2  0
  6 11  1  0
  6 12  1  0
 29 36  1  0
 29 37  1  0
  9  7  1  6
  7 13  1  0
 10  8  1  6
  8 14  1  0
 37 28  1  6
  4  5  1  0
 33 30  1  1
 30 38  1  0
 34 31  1  6
 31 39  1  0
 35 32  1  6
 32 40  1  0
 41 42  1  0
 41 43  1  0
 15 19  2  0
 16 22  2  0
 12 17  1  1
 17 19  1  0
 17 20  1  0
 18 19  1  0
 18 22  1  0
 18 23  1  0
  9 10  1  0
  9 11  1  0
 10 12  1  0
 11  5  1  1
 33 34  1  0
 33 35  1  0
 34 36  1  0
 35 37  1  0
 36 42  1  1
 20 21  2  0
 21 22  1  0
M  CHG  2   2  -1  26  -1
M  END
>  <COMPND>  (59) 
    8629 

>  <AUTHOR>  (59) 
    GENERATED BY OPEN BABEL 3.1.1

>  <MASTER>  (59) 
        0    0    0    0    0    0    0    0   58    0   58    0

>  <minimizedAffinity>  (59) 
-6.18427

>  <CNNscore>  (59) 
0.5568131804

>  <CNNaffinity>  (59) 
4.2214250565

>  <CNN_VS>  (59) 
2.3505451679

>  <CNNaffinity_variance>  (59) 
0.1262702346

$$$$
60
     RDKit          3D

 43 45  0  0  0  0  0  0  0  0999 V2000
   21.5876   72.4138   -5.1899 P   0  0  2  0  0  0  0  0  0  0  0  0
   21.1579   73.9285   -5.5620 O   0  0  0  0  0  0  0  0  0  0  0  0
   22.9928   72.2591   -4.6871 O   0  0  0  0  0  0  0  0  0  0  0  0
   21.2199   71.5681   -6.5193 O   0  0  0  0  0  0  0  0  0  0  0  0
   20.1396   72.0085   -7.3236 C   0  0  0  0  0  0  0  0  0  0  0  0
   18.8059   70.0665   -6.8505 O   0  0  0  0  0  0  0  0  0  0  0  0
   18.1258   70.0529   -9.7709 O   0  0  0  0  0  0  0  0  0  0  0  0
   15.9093   71.1782   -8.6496 O   0  0  0  0  0  0  0  0  0  0  0  0
   18.3280   71.1621   -8.8967 C   0  0  1  0  0  0  0  0  0  0  0  0
   17.1402   71.3257   -7.9715 C   0  0  2  0  0  0  0  0  0  0  0  0
   19.4413   70.7957   -7.9233 C   0  0  1  0  0  0  0  0  0  0  0  0
   17.3813   70.2258   -6.9517 C   0  0  2  0  0  0  0  0  0  0  0  0
   17.4194   70.2635  -10.4021 H   0  0  0  0  0  0  0  0  0  0  0  0
   15.8024   71.9016   -9.2869 H   0  0  0  0  0  0  0  0  0  0  0  0
   16.4778   68.3262   -5.0667 O   0  0  0  0  0  0  0  0  0  0  0  0
   15.3837   71.6030   -2.0159 O   0  0  0  0  0  0  0  0  0  0  0  0
   16.8558   70.5547   -5.6567 N   0  0  0  0  0  0  0  0  0  0  0  0
   15.9340   69.9593   -3.5491 N   0  0  0  0  0  0  0  0  0  0  0  0
   16.4284   69.5255   -4.7858 C   0  0  0  0  0  0  0  0  0  0  0  0
   16.7686   71.8852   -5.2618 C   0  0  0  0  0  0  0  0  0  0  0  0
   16.2934   72.2824   -4.0795 C   0  0  0  0  0  0  0  0  0  0  0  0
   15.8260   71.2697   -3.1110 C   0  0  0  0  0  0  0  0  0  0  0  0
   15.6300   69.2599   -2.9261 H   0  0  0  0  0  0  0  0  0  0  0  0
   20.4442   71.9587   -4.1419 O   0  0  0  0  0  0  0  0  0  0  0  0
   20.3575   70.6827   -3.1533 P   0  0  2  0  0  0  0  0  0  0  0  0
   21.0027   69.4876   -4.0325 O   0  0  0  0  0  0  0  0  0  0  0  0
   18.9769   70.3964   -2.6376 O   0  0  0  0  0  0  0  0  0  0  0  0
   21.4520   70.9805   -2.0050 O   0  0  0  0  0  0  0  0  0  0  0  0
   21.9429   70.8067    0.3070 O   0  0  0  0  0  0  0  0  0  0  0  0
   21.7201   74.9175   -0.0130 O   0  0  0  0  0  0  0  0  0  0  0  0
   24.2775   73.6593    0.3398 O   0  0  0  0  0  0  0  0  0  0  0  0
   19.8813   73.2514   -1.5038 O   0  0  0  0  0  0  0  0  0  0  0  0
   22.0221   73.5908   -0.4535 C   0  0  1  0  0  0  0  0  0  0  0  0
   23.0362   72.9825    0.5172 C   0  0  1  0  0  0  0  0  0  0  0  0
   20.7361   72.7667   -0.4738 C   0  0  2  0  0  0  0  0  0  0  0  0
   23.2077   71.4779    0.2682 C   0  0  1  0  0  0  0  0  0  0  0  0
   21.0224   71.2781   -0.6791 C   0  0  1  0  0  0  0  0  0  0  0  0
   22.5323   75.4462    0.0017 H   0  0  0  0  0  0  0  0  0  0  0  0
   24.1553   74.6084    0.4994 H   0  0  0  0  0  0  0  0  0  0  0  0
   19.7074   74.1946   -1.3624 H   0  0  0  0  0  0  0  0  0  0  0  0
   25.4140   70.7442    0.8185 O   0  0  0  0  0  0  0  0  0  0  0  0
   24.0939   70.8208    1.3242 C   0  0  0  0  0  0  0  0  0  0  0  0
   25.9894   70.3284    1.4801 H   0  0  0  0  0  0  0  0  0  0  0  0
 25 28  1  0
 25 24  1  0
 25 26  1  6
 25 27  2  0
  1  4  1  0
  1 24  1  0
  1  2  1  6
  1  3  2  0
  6 11  1  0
  6 12  1  0
 29 36  1  0
 29 37  1  0
  9  7  1  6
  7 13  1  0
 10  8  1  6
  8 14  1  0
 37 28  1  6
  4  5  1  0
 33 30  1  1
 30 38  1  0
 34 31  1  6
 31 39  1  0
 35 32  1  6
 32 40  1  0
 41 42  1  0
 41 43  1  0
 15 19  2  0
 16 22  2  0
 12 17  1  1
 17 19  1  0
 17 20  1  0
 18 19  1  0
 18 22  1  0
 18 23  1  0
  9 10  1  0
  9 11  1  0
 10 12  1  0
 11  5  1  1
 33 34  1  0
 33 35  1  0
 34 36  1  0
 35 37  1  0
 36 42  1  1
 20 21  2  0
 21 22  1  0
M  CHG  2   2  -1  26  -1
M  END
>  <COMPND>  (60) 
    8629 

>  <AUTHOR>  (60) 
    GENERATED BY OPEN BABEL 3.1.1

>  <MASTER>  (60) 
        0    0    0    0    0    0    0    0   58    0   58    0

>  <minimizedAffinity>  (60) 
-6.78418

>  <CNNscore>  (60) 
0.5554547310

>  <CNNaffinity>  (60) 
4.3221917152

>  <CNN_VS>  (60) 
2.4007818699

>  <CNNaffinity_variance>  (60) 
0.3229323328

$$$$
61
     RDKit          3D

 43 45  0  0  0  0  0  0  0  0999 V2000
   22.9435   71.6622   -2.6942 P   0  0  2  0  0  0  0  0  0  0  0  0
   23.0997   73.2260   -2.3100 O   0  0  0  0  0  0  0  0  0  0  0  0
   24.2056   70.9934   -3.1537 O   0  0  0  0  0  0  0  0  0  0  0  0
   21.7142   71.6416   -3.7461 O   0  0  0  0  0  0  0  0  0  0  0  0
   20.8365   70.5293   -3.7385 C   0  0  0  0  0  0  0  0  0  0  0  0
   18.9493   71.6610   -4.7036 O   0  0  0  0  0  0  0  0  0  0  0  0
   17.3277   70.4458   -2.4935 O   0  0  0  0  0  0  0  0  0  0  0  0
   16.7516   68.8283   -4.6121 O   0  0  0  0  0  0  0  0  0  0  0  0
   18.4297   69.8941   -3.2123 C   0  0  1  0  0  0  0  0  0  0  0  0
   17.9990   69.4921   -4.6075 C   0  0  2  0  0  0  0  0  0  0  0  0
   19.4159   71.0203   -3.4960 C   0  0  1  0  0  0  0  0  0  0  0  0
   17.9506   70.8325   -5.3209 C   0  0  2  0  0  0  0  0  0  0  0  0
   16.6845   69.7451   -2.3005 H   0  0  0  0  0  0  0  0  0  0  0  0
   16.8341   67.9813   -4.1467 H   0  0  0  0  0  0  0  0  0  0  0  0
   16.0569   70.1135   -7.2894 O   0  0  0  0  0  0  0  0  0  0  0  0
   19.1779   70.4228  -10.6665 O   0  0  0  0  0  0  0  0  0  0  0  0
   18.2410   70.7179   -6.7223 N   0  0  0  0  0  0  0  0  0  0  0  0
   17.6124   70.2683   -8.9693 N   0  0  0  0  0  0  0  0  0  0  0  0
   17.2186   70.3495   -7.6275 C   0  0  0  0  0  0  0  0  0  0  0  0
   19.5275   70.9700   -7.1863 C   0  0  0  0  0  0  0  0  0  0  0  0
   19.8871   70.8869   -8.4689 C   0  0  0  0  0  0  0  0  0  0  0  0
   18.8785   70.5079   -9.4795 C   0  0  0  0  0  0  0  0  0  0  0  0
   16.9170   70.0129   -9.6181 H   0  0  0  0  0  0  0  0  0  0  0  0
   22.2909   71.0237   -1.3603 O   0  0  0  0  0  0  0  0  0  0  0  0
   21.4182   71.6975   -0.1782 P   0  0  2  0  0  0  0  0  0  0  0  0
   20.7514   70.4235    0.5632 O   0  0  0  0  0  0  0  0  0  0  0  0
   20.4312   72.7251   -0.6513 O   0  0  0  0  0  0  0  0  0  0  0  0
   22.5116   72.2534    0.8708 O   0  0  0  0  0  0  0  0  0  0  0  0
   24.2466   71.3740    2.2246 O   0  0  0  0  0  0  0  0  0  0  0  0
   22.2881   73.6508    5.0586 O   0  0  0  0  0  0  0  0  0  0  0  0
   24.8336   74.5208    4.0528 O   0  0  0  0  0  0  0  0  0  0  0  0
   20.7666   72.2010    3.0679 O   0  0  0  0  0  0  0  0  0  0  0  0
   22.7783   73.3348    3.7527 C   0  0  1  0  0  0  0  0  0  0  0  0
   24.3020   73.2181    3.8277 C   0  0  1  0  0  0  0  0  0  0  0  0
   22.1600   72.0158    3.2931 C   0  0  2  0  0  0  0  0  0  0  0  0
   24.8762   72.6226    2.5351 C   0  0  1  0  0  0  0  0  0  0  0  0
   22.8358   71.4860    2.0272 C   0  0  1  0  0  0  0  0  0  0  0  0
   22.6765   74.4876    5.3561 H   0  0  0  0  0  0  0  0  0  0  0  0
   24.4627   74.8857    4.8716 H   0  0  0  0  0  0  0  0  0  0  0  0
   20.3503   72.5363    3.8767 H   0  0  0  0  0  0  0  0  0  0  0  0
   26.6497   71.0962    2.0517 O   0  0  0  0  0  0  0  0  0  0  0  0
   26.3748   72.3509    2.6470 C   0  0  0  0  0  0  0  0  0  0  0  0
   27.6000   70.9101    2.1153 H   0  0  0  0  0  0  0  0  0  0  0  0
 25 28  1  0
 25 24  1  0
 25 26  1  1
 25 27  2  0
  1  4  1  0
  1 24  1  0
  1  2  1  1
  1  3  2  0
  6 11  1  0
  6 12  1  0
 29 36  1  0
 29 37  1  0
  9  7  1  1
  7 13  1  0
 10  8  1  1
  8 14  1  0
 37 28  1  6
  4  5  1  0
 33 30  1  1
 30 38  1  0
 34 31  1  6
 31 39  1  0
 35 32  1  6
 32 40  1  0
 41 42  1  0
 41 43  1  0
 15 19  2  0
 16 22  2  0
 12 17  1  6
 17 19  1  0
 17 20  1  0
 18 19  1  0
 18 22  1  0
 18 23  1  0
  9 10  1  0
  9 11  1  0
 10 12  1  0
 11  5  1  6
 33 34  1  0
 33 35  1  0
 34 36  1  0
 35 37  1  0
 36 42  1  1
 20 21  2  0
 21 22  1  0
M  CHG  2   2  -1  26  -1
M  END
>  <COMPND>  (61) 
    8629 

>  <AUTHOR>  (61) 
    GENERATED BY OPEN BABEL 3.1.1

>  <MASTER>  (61) 
        0    0    0    0    0    0    0    0   58    0   58    0

>  <minimizedAffinity>  (61) 
-7.98482

>  <CNNscore>  (61) 
0.9382770061

>  <CNNaffinity>  (61) 
4.7794580460

>  <CNN_VS>  (61) 
4.4844555855

>  <CNNaffinity_variance>  (61) 
0.0381593034

$$$$
62
     RDKit          3D

 43 45  0  0  0  0  0  0  0  0999 V2000
   20.4078   71.9967   -2.2502 P   0  0  2  0  0  0  0  0  0  0  0  0
   20.2582   70.6924   -1.3047 O   0  0  0  0  0  0  0  0  0  0  0  0
   20.2852   73.3123   -1.5392 O   0  0  0  0  0  0  0  0  0  0  0  0
   19.3416   71.7386   -3.4395 O   0  0  0  0  0  0  0  0  0  0  0  0
   18.2767   72.6588   -3.6042 C   0  0  0  0  0  0  0  0  0  0  0  0
   16.5979   71.8382   -5.1149 O   0  0  0  0  0  0  0  0  0  0  0  0
   15.7779   69.9883   -2.9022 O   0  0  0  0  0  0  0  0  0  0  0  0
   17.2532   68.3627   -4.5200 O   0  0  0  0  0  0  0  0  0  0  0  0
   17.0821   70.4382   -3.2653 C   0  0  1  0  0  0  0  0  0  0  0  0
   17.5440   69.7454   -4.5303 C   0  0  2  0  0  0  0  0  0  0  0  0
   16.9688   71.8880   -3.7198 C   0  0  1  0  0  0  0  0  0  0  0  0
   16.7719   70.4973   -5.6011 C   0  0  2  0  0  0  0  0  0  0  0  0
   15.8249   69.0646   -2.6080 H   0  0  0  0  0  0  0  0  0  0  0  0
   17.7686   67.9289   -3.8221 H   0  0  0  0  0  0  0  0  0  0  0  0
   15.5266   70.3952   -8.1342 O   0  0  0  0  0  0  0  0  0  0  0  0
   19.5662   70.6771  -10.3350 O   0  0  0  0  0  0  0  0  0  0  0  0
   17.4741   70.5426   -6.8527 N   0  0  0  0  0  0  0  0  0  0  0  0
   17.5390   70.5358   -9.2280 N   0  0  0  0  0  0  0  0  0  0  0  0
   16.7544   70.4837   -8.0688 C   0  0  0  0  0  0  0  0  0  0  0  0
   18.8609   70.6446   -6.8659 C   0  0  0  0  0  0  0  0  0  0  0  0
   19.5944   70.6919   -7.9799 C   0  0  0  0  0  0  0  0  0  0  0  0
   18.9197   70.6358   -9.2927 C   0  0  0  0  0  0  0  0  0  0  0  0
   17.0592   70.4959  -10.0871 H   0  0  0  0  0  0  0  0  0  0  0  0
   21.8304   71.7559   -2.9790 O   0  0  0  0  0  0  0  0  0  0  0  0
   23.3422   71.8557   -2.4156 P   0  0  2  0  0  0  0  0  0  0  0  0
   23.6924   73.4277   -2.5690 O   0  0  0  0  0  0  0  0  0  0  0  0
   24.3143   70.9355   -3.0955 O   0  0  0  0  0  0  0  0  0  0  0  0
   23.2014   71.6227   -0.8247 O   0  0  0  0  0  0  0  0  0  0  0  0
   22.9924   73.5793    0.4962 O   0  0  0  0  0  0  0  0  0  0  0  0
   23.9414   70.8748    3.4687 O   0  0  0  0  0  0  0  0  0  0  0  0
   21.2611   71.8884    3.2769 O   0  0  0  0  0  0  0  0  0  0  0  0
   25.2232   70.6842    0.8802 O   0  0  0  0  0  0  0  0  0  0  0  0
   23.3402   71.3092    2.2459 C   0  0  1  0  0  0  0  0  0  0  0  0
   22.3651   72.4435    2.5674 C   0  0  1  0  0  0  0  0  0  0  0  0
   24.4343   71.7937    1.2963 C   0  0  2  0  0  0  0  0  0  0  0  0
   21.8825   73.1387    1.2872 C   0  0  1  0  0  0  0  0  0  0  0  0
   23.8486   72.5136    0.0802 C   0  0  1  0  0  0  0  0  0  0  0  0
   23.2522   70.5654    4.0759 H   0  0  0  0  0  0  0  0  0  0  0  0
   21.5796   71.4520    4.0827 H   0  0  0  0  0  0  0  0  0  0  0  0
   25.5885   70.2371    1.6590 H   0  0  0  0  0  0  0  0  0  0  0  0
   19.6681   74.0109    1.4981 O   0  0  0  0  0  0  0  0  0  0  0  0
   21.0340   74.3715    1.5910 C   0  0  0  0  0  0  0  0  0  0  0  0
   19.1160   74.7857    1.6893 H   0  0  0  0  0  0  0  0  0  0  0  0
 25 28  1  0
 25 24  1  0
 25 26  1  1
 25 27  2  0
  1  4  1  0
  1 24  1  0
  1  2  1  1
  1  3  2  0
  6 11  1  0
  6 12  1  0
 29 36  1  0
 29 37  1  0
  9  7  1  6
  7 13  1  0
 10  8  1  1
  8 14  1  0
 37 28  1  1
  4  5  1  0
 33 30  1  1
 30 38  1  0
 34 31  1  6
 31 39  1  0
 35 32  1  6
 32 40  1  0
 41 42  1  0
 41 43  1  0
 15 19  2  0
 16 22  2  0
 12 17  1  6
 17 19  1  0
 17 20  1  0
 18 19  1  0
 18 22  1  0
 18 23  1  0
  9 10  1  0
  9 11  1  0
 10 12  1  0
 11  5  1  6
 33 34  1  0
 33 35  1  0
 34 36  1  0
 35 37  1  0
 36 42  1  1
 20 21  2  0
 21 22  1  0
M  CHG  2   2  -1  26  -1
M  END
>  <COMPND>  (62) 
    8629 

>  <AUTHOR>  (62) 
    GENERATED BY OPEN BABEL 3.1.1

>  <MASTER>  (62) 
        0    0    0    0    0    0    0    0   58    0   58    0

>  <minimizedAffinity>  (62) 
-7.21884

>  <CNNscore>  (62) 
0.9112158418

>  <CNNaffinity>  (62) 
4.7370185852

>  <CNN_VS>  (62) 
4.3164463043

>  <CNNaffinity_variance>  (62) 
0.0619674437

$$$$
63
     RDKit          3D

 43 45  0  0  0  0  0  0  0  0999 V2000
   20.5366   71.2863   -1.1515 P   0  0  2  0  0  0  0  0  0  0  0  0
   20.8540   70.5314    0.2438 O   0  0  0  0  0  0  0  0  0  0  0  0
   20.1407   72.7274   -1.0166 O   0  0  0  0  0  0  0  0  0  0  0  0
   19.4549   70.3254   -1.8757 O   0  0  0  0  0  0  0  0  0  0  0  0
   19.1808   70.5317   -3.2506 C   0  0  0  0  0  0  0  0  0  0  0  0
   17.4960   71.4555   -4.6933 O   0  0  0  0  0  0  0  0  0  0  0  0
   15.5239   69.8414   -3.1133 O   0  0  0  0  0  0  0  0  0  0  0  0
   15.8548   68.3380   -5.3643 O   0  0  0  0  0  0  0  0  0  0  0  0
   16.8607   69.5154   -3.4900 C   0  0  1  0  0  0  0  0  0  0  0  0
   16.9229   69.1718   -4.9637 C   0  0  2  0  0  0  0  0  0  0  0  0
   17.6908   70.7913   -3.4255 C   0  0  1  0  0  0  0  0  0  0  0  0
   16.8664   70.5455   -5.6101 C   0  0  2  0  0  0  0  0  0  0  0  0
   14.9747   69.0419   -3.1466 H   0  0  0  0  0  0  0  0  0  0  0  0
   15.9353   67.4763   -4.9264 H   0  0  0  0  0  0  0  0  0  0  0  0
   15.6096   70.4773   -8.1387 O   0  0  0  0  0  0  0  0  0  0  0  0
   19.6438   70.7199  -10.3540 O   0  0  0  0  0  0  0  0  0  0  0  0
   17.5641   70.5899   -6.8641 N   0  0  0  0  0  0  0  0  0  0  0  0
   17.6193   70.5983   -9.2397 N   0  0  0  0  0  0  0  0  0  0  0  0
   16.8388   70.5489   -8.0777 C   0  0  0  0  0  0  0  0  0  0  0  0
   18.9521   70.6734   -6.8823 C   0  0  0  0  0  0  0  0  0  0  0  0
   19.6817   70.7184   -7.9990 C   0  0  0  0  0  0  0  0  0  0  0  0
   19.0010   70.6802   -9.3094 C   0  0  0  0  0  0  0  0  0  0  0  0
   17.1356   70.5707  -10.0970 H   0  0  0  0  0  0  0  0  0  0  0  0
   21.8804   71.0357   -2.0143 O   0  0  0  0  0  0  0  0  0  0  0  0
   23.3199   71.7700   -1.9743 P   0  0  2  0  0  0  0  0  0  0  0  0
   24.2481   70.8173   -2.8954 O   0  0  0  0  0  0  0  0  0  0  0  0
   23.8534   72.0034   -0.5905 O   0  0  0  0  0  0  0  0  0  0  0  0
   23.1186   73.1116   -2.8486 O   0  0  0  0  0  0  0  0  0  0  0  0
   23.6498   73.1768   -5.1574 O   0  0  0  0  0  0  0  0  0  0  0  0
   23.9634   77.2026   -4.2943 O   0  0  0  0  0  0  0  0  0  0  0  0
   21.7289   76.2510   -5.8270 O   0  0  0  0  0  0  0  0  0  0  0  0
   24.8874   75.2389   -2.3787 O   0  0  0  0  0  0  0  0  0  0  0  0
   23.4228   75.8836   -4.1788 C   0  0  1  0  0  0  0  0  0  0  0  0
   22.8840   75.4647   -5.5481 C   0  0  1  0  0  0  0  0  0  0  0  0
   24.5252   74.9307   -3.7204 C   0  0  2  0  0  0  0  0  0  0  0  0
   22.5321   73.9711   -5.5717 C   0  0  1  0  0  0  0  0  0  0  0  0
   24.0893   73.4685   -3.8294 C   0  0  1  0  0  0  0  0  0  0  0  0
   23.2684   77.8127   -4.5845 H   0  0  0  0  0  0  0  0  0  0  0  0
   21.9646   77.1919   -5.8086 H   0  0  0  0  0  0  0  0  0  0  0  0
   25.1618   76.1671   -2.3230 H   0  0  0  0  0  0  0  0  0  0  0  0
   20.8035   73.8852   -7.2189 O   0  0  0  0  0  0  0  0  0  0  0  0
   22.1421   73.4974   -6.9701 C   0  0  0  0  0  0  0  0  0  0  0  0
   20.5416   73.5906   -8.1057 H   0  0  0  0  0  0  0  0  0  0  0  0
 25 28  1  0
 25 24  1  0
 25 26  1  6
 25 27  2  0
  1  4  1  0
  1 24  1  0
  1  2  1  1
  1  3  2  0
  6 11  1  0
  6 12  1  0
 29 36  1  0
 29 37  1  0
  9  7  1  6
  7 13  1  0
 10  8  1  6
  8 14  1  0
 37 28  1  1
  4  5  1  0
 33 30  1  6
 30 38  1  0
 34 31  1  1
 31 39  1  0
 35 32  1  1
 32 40  1  0
 41 42  1  0
 41 43  1  0
 15 19  2  0
 16 22  2  0
 12 17  1  6
 17 19  1  0
 17 20  1  0
 18 19  1  0
 18 22  1  0
 18 23  1  0
  9 10  1  0
  9 11  1  0
 10 12  1  0
 11  5  1  6
 33 34  1  0
 33 35  1  0
 34 36  1  0
 35 37  1  0
 36 42  1  6
 20 21  2  0
 21 22  1  0
M  CHG  2   2  -1  26  -1
M  END
>  <COMPND>  (63) 
    8629 

>  <AUTHOR>  (63) 
    GENERATED BY OPEN BABEL 3.1.1

>  <MASTER>  (63) 
        0    0    0    0    0    0    0    0   58    0   58    0

>  <minimizedAffinity>  (63) 
-7.80917

>  <CNNscore>  (63) 
0.9111856222

>  <CNNaffinity>  (63) 
4.6905670166

>  <CNN_VS>  (63) 
4.2739772797

>  <CNNaffinity_variance>  (63) 
0.2728875875

$$$$
64
     RDKit          3D

 43 45  0  0  0  0  0  0  0  0999 V2000
   21.8621   72.3982   -5.8477 P   0  0  2  0  0  0  0  0  0  0  0  0
   20.8764   73.6751   -5.7234 O   0  0  0  0  0  0  0  0  0  0  0  0
   23.2257   72.7011   -6.3955 O   0  0  0  0  0  0  0  0  0  0  0  0
   20.9940   71.3172   -6.6818 O   0  0  0  0  0  0  0  0  0  0  0  0
   20.4277   71.7143   -7.9185 C   0  0  0  0  0  0  0  0  0  0  0  0
   19.1041   69.7855   -7.3692 O   0  0  0  0  0  0  0  0  0  0  0  0
   18.0065   69.9781  -10.1528 O   0  0  0  0  0  0  0  0  0  0  0  0
   16.0210   71.0933   -8.6525 O   0  0  0  0  0  0  0  0  0  0  0  0
   18.3756   71.0230   -9.2543 C   0  0  1  0  0  0  0  0  0  0  0  0
   17.3422   71.1615   -8.1559 C   0  0  2  0  0  0  0  0  0  0  0  0
   19.6040   70.5630   -8.4791 C   0  0  1  0  0  0  0  0  0  0  0  0
   17.6871   69.9921   -7.2494 C   0  0  2  0  0  0  0  0  0  0  0  0
   17.2242   70.2489  -10.6594 H   0  0  0  0  0  0  0  0  0  0  0  0
   15.8501   71.8586   -9.2233 H   0  0  0  0  0  0  0  0  0  0  0  0
   16.2802   68.2079   -5.5716 O   0  0  0  0  0  0  0  0  0  0  0  0
   16.5199   71.0984   -1.9899 O   0  0  0  0  0  0  0  0  0  0  0  0
   17.3685   70.2528   -5.8740 N   0  0  0  0  0  0  0  0  0  0  0  0
   16.4009   69.6486   -3.7895 N   0  0  0  0  0  0  0  0  0  0  0  0
   16.6573   69.2909   -5.1193 C   0  0  0  0  0  0  0  0  0  0  0  0
   17.7604   71.4509   -5.2869 C   0  0  0  0  0  0  0  0  0  0  0  0
   17.5070   71.7773   -4.0178 C   0  0  0  0  0  0  0  0  0  0  0  0
   16.7685   70.8276   -3.1607 C   0  0  0  0  0  0  0  0  0  0  0  0
   15.9063   68.9941   -3.2446 H   0  0  0  0  0  0  0  0  0  0  0  0
   21.8586   71.7893   -4.3503 O   0  0  0  0  0  0  0  0  0  0  0  0
   22.7694   72.1369   -3.0609 P   0  0  2  0  0  0  0  0  0  0  0  0
   24.2077   71.5006   -3.4402 O   0  0  0  0  0  0  0  0  0  0  0  0
   22.2020   71.6524   -1.7581 O   0  0  0  0  0  0  0  0  0  0  0  0
   22.9962   73.7330   -3.1393 O   0  0  0  0  0  0  0  0  0  0  0  0
   24.5337   74.7756   -4.6109 O   0  0  0  0  0  0  0  0  0  0  0  0
   24.4555   77.6177   -1.6164 O   0  0  0  0  0  0  0  0  0  0  0  0
   23.1710   78.1663   -4.1258 O   0  0  0  0  0  0  0  0  0  0  0  0
   24.3704   74.8045   -0.9396 O   0  0  0  0  0  0  0  0  0  0  0  0
   23.9090   76.6075   -2.4685 C   0  0  1  0  0  0  0  0  0  0  0  0
   24.0586   77.0710   -3.9189 C   0  0  1  0  0  0  0  0  0  0  0  0
   24.6653   75.2999   -2.2412 C   0  0  2  0  0  0  0  0  0  0  0  0
   23.7418   75.9338   -4.8994 C   0  0  1  0  0  0  0  0  0  0  0  0
   24.3136   74.2527   -3.2994 C   0  0  1  0  0  0  0  0  0  0  0  0
   23.9793   78.4505   -1.7554 H   0  0  0  0  0  0  0  0  0  0  0  0
   23.3814   78.8772   -3.5001 H   0  0  0  0  0  0  0  0  0  0  0  0
   24.5977   75.4765   -0.2788 H   0  0  0  0  0  0  0  0  0  0  0  0
   22.8883   76.9570   -6.8827 O   0  0  0  0  0  0  0  0  0  0  0  0
   24.0365   76.3267   -6.3454 C   0  0  0  0  0  0  0  0  0  0  0  0
   23.0613   77.2129   -7.8026 H   0  0  0  0  0  0  0  0  0  0  0  0
 25 28  1  0
 25 24  1  0
 25 26  1  6
 25 27  2  0
  1  4  1  0
  1 24  1  0
  1  2  1  1
  1  3  2  0
  6 11  1  0
  6 12  1  0
 29 36  1  0
 29 37  1  0
  9  7  1  6
  7 13  1  0
 10  8  1  6
  8 14  1  0
 37 28  1  6
  4  5  1  0
 33 30  1  1
 30 38  1  0
 34 31  1  6
 31 39  1  0
 35 32  1  1
 32 40  1  0
 41 42  1  0
 41 43  1  0
 15 19  2  0
 16 22  2  0
 12 17  1  1
 17 19  1  0
 17 20  1  0
 18 19  1  0
 18 22  1  0
 18 23  1  0
  9 10  1  0
  9 11  1  0
 10 12  1  0
 11  5  1  1
 33 34  1  0
 33 35  1  0
 34 36  1  0
 35 37  1  0
 36 42  1  6
 20 21  2  0
 21 22  1  0
M  CHG  2   2  -1  26  -1
M  END
>  <COMPND>  (64) 
    8629 

>  <AUTHOR>  (64) 
    GENERATED BY OPEN BABEL 3.1.1

>  <MASTER>  (64) 
        0    0    0    0    0    0    0    0   58    0   58    0

>  <minimizedAffinity>  (64) 
-6.67909

>  <CNNscore>  (64) 
0.9026623368

>  <CNNaffinity>  (64) 
4.6596436501

>  <CNN_VS>  (64) 
4.2060847282

>  <CNNaffinity_variance>  (64) 
0.2642104328

$$$$
65
     RDKit          3D

 43 45  0  0  0  0  0  0  0  0999 V2000
   23.1360   71.6703   -3.1554 P   0  0  2  0  0  0  0  0  0  0  0  0
   22.8394   72.2146   -4.6498 O   0  0  0  0  0  0  0  0  0  0  0  0
   24.4071   70.8868   -3.0069 O   0  0  0  0  0  0  0  0  0  0  0  0
   21.7781   70.8899   -2.7496 O   0  0  0  0  0  0  0  0  0  0  0  0
   20.9099   70.4609   -3.7841 C   0  0  0  0  0  0  0  0  0  0  0  0
   19.0645   71.6661   -4.7409 O   0  0  0  0  0  0  0  0  0  0  0  0
   17.4212   70.5688   -2.4855 O   0  0  0  0  0  0  0  0  0  0  0  0
   16.7345   68.9452   -4.5661 O   0  0  0  0  0  0  0  0  0  0  0  0
   18.4839   69.9522   -3.2108 C   0  0  1  0  0  0  0  0  0  0  0  0
   18.0124   69.5477   -4.5920 C   0  0  2  0  0  0  0  0  0  0  0  0
   19.5186   71.0243   -3.5292 C   0  0  1  0  0  0  0  0  0  0  0  0
   18.0174   70.8766   -5.3283 C   0  0  2  0  0  0  0  0  0  0  0  0
   16.7481   69.9036   -2.2705 H   0  0  0  0  0  0  0  0  0  0  0  0
   16.7834   68.1033   -4.0869 H   0  0  0  0  0  0  0  0  0  0  0  0
   16.0405   70.3356   -7.2718 O   0  0  0  0  0  0  0  0  0  0  0  0
   19.1400   70.3104  -10.6826 O   0  0  0  0  0  0  0  0  0  0  0  0
   18.2798   70.7241   -6.7316 N   0  0  0  0  0  0  0  0  0  0  0  0
   17.5854   70.3237   -8.9686 N   0  0  0  0  0  0  0  0  0  0  0  0
   17.2162   70.4528   -7.6236 C   0  0  0  0  0  0  0  0  0  0  0  0
   19.5798   70.8440   -7.2106 C   0  0  0  0  0  0  0  0  0  0  0  0
   19.9155   70.7169   -8.4960 C   0  0  0  0  0  0  0  0  0  0  0  0
   18.8634   70.4329   -9.4934 C   0  0  0  0  0  0  0  0  0  0  0  0
   16.8611   70.1341   -9.6082 H   0  0  0  0  0  0  0  0  0  0  0  0
   23.0651   73.0133   -2.2587 O   0  0  0  0  0  0  0  0  0  0  0  0
   21.8024   73.8139   -1.6441 P   0  0  2  0  0  0  0  0  0  0  0  0
   22.4135   75.2757   -1.3167 O   0  0  0  0  0  0  0  0  0  0  0  0
   21.1559   73.1361   -0.4708 O   0  0  0  0  0  0  0  0  0  0  0  0
   20.8201   74.0551   -2.9019 O   0  0  0  0  0  0  0  0  0  0  0  0
   21.4142   75.4673   -4.7100 O   0  0  0  0  0  0  0  0  0  0  0  0
   17.3032   75.6530   -5.0507 O   0  0  0  0  0  0  0  0  0  0  0  0
   18.8202   74.1639   -6.9818 O   0  0  0  0  0  0  0  0  0  0  0  0
   18.5347   75.6140   -2.4313 O   0  0  0  0  0  0  0  0  0  0  0  0
   18.5605   75.0326   -4.7685 C   0  0  1  0  0  0  0  0  0  0  0  0
   19.4063   75.0614   -6.0431 C   0  0  1  0  0  0  0  0  0  0  0  0
   19.2548   75.8001   -3.6450 C   0  0  2  0  0  0  0  0  0  0  0  0
   20.8585   74.6586   -5.7535 C   0  0  1  0  0  0  0  0  0  0  0  0
   20.7086   75.3564   -3.4724 C   0  0  1  0  0  0  0  0  0  0  0  0
   16.8569   75.1702   -5.7629 H   0  0  0  0  0  0  0  0  0  0  0  0
   17.9033   74.4291   -7.1556 H   0  0  0  0  0  0  0  0  0  0  0  0
   17.6161   75.8989   -2.5535 H   0  0  0  0  0  0  0  0  0  0  0  0
   21.7416   73.6258   -7.7189 O   0  0  0  0  0  0  0  0  0  0  0  0
   21.7550   74.8319   -6.9776 C   0  0  0  0  0  0  0  0  0  0  0  0
   22.3077   73.7215   -8.5012 H   0  0  0  0  0  0  0  0  0  0  0  0
 25 28  1  0
 25 24  1  0
 25 26  1  1
 25 27  2  0
  1  4  1  0
  1 24  1  0
  1  2  1  6
  1  3  2  0
  6 11  1  0
  6 12  1  0
 29 36  1  0
 29 37  1  0
  9  7  1  1
  7 13  1  0
 10  8  1  1
  8 14  1  0
 37 28  1  6
  4  5  1  0
 33 30  1  6
 30 38  1  0
 34 31  1  6
 31 39  1  0
 35 32  1  1
 32 40  1  0
 41 42  1  0
 41 43  1  0
 15 19  2  0
 16 22  2  0
 12 17  1  6
 17 19  1  0
 17 20  1  0
 18 19  1  0
 18 22  1  0
 18 23  1  0
  9 10  1  0
  9 11  1  0
 10 12  1  0
 11  5  1  6
 33 34  1  0
 33 35  1  0
 34 36  1  0
 35 37  1  0
 36 42  1  6
 20 21  2  0
 21 22  1  0
M  CHG  2   2  -1  26  -1
M  END
>  <COMPND>  (65) 
    8629 

>  <AUTHOR>  (65) 
    GENERATED BY OPEN BABEL 3.1.1

>  <MASTER>  (65) 
        0    0    0    0    0    0    0    0   58    0   58    0

>  <minimizedAffinity>  (65) 
-6.71183

>  <CNNscore>  (65) 
0.8821934462

>  <CNNaffinity>  (65) 
4.4991083145

>  <CNN_VS>  (65) 
3.9690837860

>  <CNNaffinity_variance>  (65) 
0.3362675607

$$$$
66
     RDKit          3D

 43 45  0  0  0  0  0  0  0  0999 V2000
   21.3283   72.8047   -4.5073 P   0  0  2  0  0  0  0  0  0  0  0  0
   21.5312   74.4039   -4.6442 O   0  0  0  0  0  0  0  0  0  0  0  0
   21.9287   71.9924   -5.6169 O   0  0  0  0  0  0  0  0  0  0  0  0
   19.7337   72.6324   -4.2939 O   0  0  0  0  0  0  0  0  0  0  0  0
   19.2735   71.5973   -3.4427 C   0  0  0  0  0  0  0  0  0  0  0  0
   17.3955   71.8635   -4.9178 O   0  0  0  0  0  0  0  0  0  0  0  0
   15.8758   70.1415   -2.9900 O   0  0  0  0  0  0  0  0  0  0  0  0
   16.5017   68.3908   -4.9850 O   0  0  0  0  0  0  0  0  0  0  0  0
   17.2446   70.0632   -3.3842 C   0  0  1  0  0  0  0  0  0  0  0  0
   17.3570   69.4976   -4.7846 C   0  0  2  0  0  0  0  0  0  0  0  0
   17.7607   71.4843   -3.5727 C   0  0  1  0  0  0  0  0  0  0  0  0
   16.9749   70.6941   -5.6392 C   0  0  2  0  0  0  0  0  0  0  0  0
   15.5242   69.2458   -2.8632 H   0  0  0  0  0  0  0  0  0  0  0  0
   16.7858   67.6558   -4.4195 H   0  0  0  0  0  0  0  0  0  0  0  0
   15.6194   70.4603   -8.1062 O   0  0  0  0  0  0  0  0  0  0  0  0
   19.5559   70.6495  -10.4958 O   0  0  0  0  0  0  0  0  0  0  0  0
   17.6207   70.6799   -6.9215 N   0  0  0  0  0  0  0  0  0  0  0  0
   17.5806   70.5549   -9.2940 N   0  0  0  0  0  0  0  0  0  0  0  0
   16.8483   70.5573   -8.1000 C   0  0  0  0  0  0  0  0  0  0  0  0
   19.0049   70.7872   -7.0014 C   0  0  0  0  0  0  0  0  0  0  0  0
   19.6881   70.7819   -8.1479 C   0  0  0  0  0  0  0  0  0  0  0  0
   18.9564   70.6575   -9.4251 C   0  0  0  0  0  0  0  0  0  0  0  0
   17.0636   70.4701  -10.1279 H   0  0  0  0  0  0  0  0  0  0  0  0
   21.9277   72.4865   -3.0402 O   0  0  0  0  0  0  0  0  0  0  0  0
   23.4509   72.2926   -2.5350 P   0  0  2  0  0  0  0  0  0  0  0  0
   24.1683   73.6724   -2.9809 O   0  0  0  0  0  0  0  0  0  0  0  0
   24.1181   71.0519   -3.0541 O   0  0  0  0  0  0  0  0  0  0  0  0
   23.3620   72.3809   -0.9259 O   0  0  0  0  0  0  0  0  0  0  0  0
   24.5107   71.0200    0.6377 O   0  0  0  0  0  0  0  0  0  0  0  0
   21.0749   71.7594    2.8055 O   0  0  0  0  0  0  0  0  0  0  0  0
   23.5344   73.0304    3.5692 O   0  0  0  0  0  0  0  0  0  0  0  0
   20.9138   71.3238   -0.0517 O   0  0  0  0  0  0  0  0  0  0  0  0
   22.1295   72.0676    1.8899 C   0  0  1  0  0  0  0  0  0  0  0  0
   23.4604   71.9560    2.6363 C   0  0  1  0  0  0  0  0  0  0  0  0
   22.0825   71.0817    0.7242 C   0  0  2  0  0  0  0  0  0  0  0  0
   24.6468   72.0096    1.6643 C   0  0  1  0  0  0  0  0  0  0  0  0
   23.3317   71.1839   -0.1528 C   0  0  1  0  0  0  0  0  0  0  0  0
   21.0988   72.3821    3.5479 H   0  0  0  0  0  0  0  0  0  0  0  0
   22.7794   72.9853    4.1768 H   0  0  0  0  0  0  0  0  0  0  0  0
   20.1299   71.2559    0.5147 H   0  0  0  0  0  0  0  0  0  0  0  0
   26.3651   72.9181    3.0539 O   0  0  0  0  0  0  0  0  0  0  0  0
   25.9754   71.7424    2.3682 C   0  0  0  0  0  0  0  0  0  0  0  0
   27.2091   72.7627    3.5070 H   0  0  0  0  0  0  0  0  0  0  0  0
 25 28  1  0
 25 24  1  0
 25 26  1  6
 25 27  2  0
  1  4  1  0
  1 24  1  0
  1  2  1  6
  1  3  2  0
  6 11  1  0
  6 12  1  0
 29 36  1  0
 29 37  1  0
  9  7  1  6
  7 13  1  0
 10  8  1  1
  8 14  1  0
 37 28  1  1
  4  5  1  0
 33 30  1  1
 30 38  1  0
 34 31  1  1
 31 39  1  0
 35 32  1  6
 32 40  1  0
 41 42  1  0
 41 43  1  0
 15 19  2  0
 16 22  2  0
 12 17  1  6
 17 19  1  0
 17 20  1  0
 18 19  1  0
 18 22  1  0
 18 23  1  0
  9 10  1  0
  9 11  1  0
 10 12  1  0
 11  5  1  6
 33 34  1  0
 33 35  1  0
 34 36  1  0
 35 37  1  0
 36 42  1  1
 20 21  2  0
 21 22  1  0
M  CHG  2   2  -1  26  -1
M  END
>  <COMPND>  (66) 
    8629 

>  <AUTHOR>  (66) 
    GENERATED BY OPEN BABEL 3.1.1

>  <MASTER>  (66) 
        0    0    0    0    0    0    0    0   58    0   58    0

>  <minimizedAffinity>  (66) 
-7.44627

>  <CNNscore>  (66) 
0.8668341637

>  <CNNaffinity>  (66) 
4.8031730652

>  <CNN_VS>  (66) 
4.1635546684

>  <CNNaffinity_variance>  (66) 
0.0544559173

$$$$
67
     RDKit          3D

 43 45  0  0  0  0  0  0  0  0999 V2000
   21.8490   72.5564   -5.5361 P   0  0  2  0  0  0  0  0  0  0  0  0
   21.2053   74.0019   -5.1991 O   0  0  0  0  0  0  0  0  0  0  0  0
   23.0945   72.5966   -6.3719 O   0  0  0  0  0  0  0  0  0  0  0  0
   20.6133   71.7161   -6.1565 O   0  0  0  0  0  0  0  0  0  0  0  0
   20.1903   72.0108   -7.4764 C   0  0  0  0  0  0  0  0  0  0  0  0
   18.9875   69.9866   -6.9969 O   0  0  0  0  0  0  0  0  0  0  0  0
   18.1966   69.9929   -9.8892 O   0  0  0  0  0  0  0  0  0  0  0  0
   15.9653   70.9669   -8.6607 O   0  0  0  0  0  0  0  0  0  0  0  0
   18.3697   71.0940   -8.9988 C   0  0  1  0  0  0  0  0  0  0  0  0
   17.2113   71.1709   -8.0262 C   0  0  2  0  0  0  0  0  0  0  0  0
   19.5388   70.7724   -8.0763 C   0  0  1  0  0  0  0  0  0  0  0  0
   17.5535   70.0662   -7.0409 C   0  0  2  0  0  0  0  0  0  0  0  0
   17.4555   70.1753  -10.4886 H   0  0  0  0  0  0  0  0  0  0  0  0
   15.7932   71.6956   -9.2773 H   0  0  0  0  0  0  0  0  0  0  0  0
   16.3008   68.1559   -5.3798 O   0  0  0  0  0  0  0  0  0  0  0  0
   15.7019   71.2240   -1.9931 O   0  0  0  0  0  0  0  0  0  0  0  0
   17.0608   70.3385   -5.7201 N   0  0  0  0  0  0  0  0  0  0  0  0
   16.0038   69.6851   -3.6947 N   0  0  0  0  0  0  0  0  0  0  0  0
   16.4468   69.3091   -4.9692 C   0  0  0  0  0  0  0  0  0  0  0  0
   17.1890   71.6144   -5.1820 C   0  0  0  0  0  0  0  0  0  0  0  0
   16.7601   71.9570   -3.9655 C   0  0  0  0  0  0  0  0  0  0  0  0
   16.1071   70.9401   -3.1161 C   0  0  0  0  0  0  0  0  0  0  0  0
   15.5725   68.9845   -3.1536 H   0  0  0  0  0  0  0  0  0  0  0  0
   22.0410   71.8942   -4.0740 O   0  0  0  0  0  0  0  0  0  0  0  0
   23.2380   72.0297   -2.9962 P   0  0  2  0  0  0  0  0  0  0  0  0
   23.8444   73.4990   -3.2979 O   0  0  0  0  0  0  0  0  0  0  0  0
   24.2469   70.9194   -3.0543 O   0  0  0  0  0  0  0  0  0  0  0  0
   22.4914   72.1811   -1.5734 O   0  0  0  0  0  0  0  0  0  0  0  0
   24.0419   72.0286    0.2125 O   0  0  0  0  0  0  0  0  0  0  0  0
   20.5292   71.9813    2.3827 O   0  0  0  0  0  0  0  0  0  0  0  0
   22.1896   74.3242    2.4234 O   0  0  0  0  0  0  0  0  0  0  0  0
   20.6839   70.5787   -0.1448 O   0  0  0  0  0  0  0  0  0  0  0  0
   21.3919   72.3644    1.3082 C   0  0  1  0  0  0  0  0  0  0  0  0
   22.6139   73.0679    1.9020 C   0  0  1  0  0  0  0  0  0  0  0  0
   21.8129   71.1152    0.5364 C   0  0  2  0  0  0  0  0  0  0  0  0
   23.7057   73.2702    0.8426 C   0  0  1  0  0  0  0  0  0  0  0  0
   22.9372   71.4167   -0.4561 C   0  0  1  0  0  0  0  0  0  0  0  0
   20.2579   72.7700    2.8765 H   0  0  0  0  0  0  0  0  0  0  0  0
   21.5000   74.1824    3.0908 H   0  0  0  0  0  0  0  0  0  0  0  0
   19.9794   70.3918    0.4944 H   0  0  0  0  0  0  0  0  0  0  0  0
   25.0070   73.5250    2.8302 O   0  0  0  0  0  0  0  0  0  0  0  0
   24.9930   73.8266    1.4471 C   0  0  0  0  0  0  0  0  0  0  0  0
   25.8209   73.8729    3.2282 H   0  0  0  0  0  0  0  0  0  0  0  0
 25 28  1  0
 25 24  1  0
 25 26  1  6
 25 27  2  0
  1  4  1  0
  1 24  1  0
  1  2  1  1
  1  3  2  0
  6 11  1  0
  6 12  1  0
 29 36  1  0
 29 37  1  0
  9  7  1  6
  7 13  1  0
 10  8  1  6
  8 14  1  0
 37 28  1  6
  4  5  1  0
 33 30  1  1
 30 38  1  0
 34 31  1  6
 31 39  1  0
 35 32  1  6
 32 40  1  0
 41 42  1  0
 41 43  1  0
 15 19  2  0
 16 22  2  0
 12 17  1  1
 17 19  1  0
 17 20  1  0
 18 19  1  0
 18 22  1  0
 18 23  1  0
  9 10  1  0
  9 11  1  0
 10 12  1  0
 11  5  1  1
 33 34  1  0
 33 35  1  0
 34 36  1  0
 35 37  1  0
 36 42  1  1
 20 21  2  0
 21 22  1  0
M  CHG  2   2  -1  26  -1
M  END
>  <COMPND>  (67) 
    8629 

>  <AUTHOR>  (67) 
    GENERATED BY OPEN BABEL 3.1.1

>  <MASTER>  (67) 
        0    0    0    0    0    0    0    0   58    0   58    0

>  <minimizedAffinity>  (67) 
-7.90135

>  <CNNscore>  (67) 
0.8191102743

>  <CNNaffinity>  (67) 
4.5814809799

>  <CNN_VS>  (67) 
3.7527382374

>  <CNNaffinity_variance>  (67) 
0.1840791404

$$$$
68
     RDKit          3D

 43 45  0  0  0  0  0  0  0  0999 V2000
   20.5491   71.3688   -1.6573 P   0  0  2  0  0  0  0  0  0  0  0  0
   21.1434   70.7763   -0.2741 O   0  0  0  0  0  0  0  0  0  0  0  0
   19.9907   72.7584   -1.5634 O   0  0  0  0  0  0  0  0  0  0  0  0
   19.5153   70.2284   -2.1559 O   0  0  0  0  0  0  0  0  0  0  0  0
   19.1421   70.2051   -3.5227 C   0  0  0  0  0  0  0  0  0  0  0  0
   17.4459   71.2985   -4.8270 O   0  0  0  0  0  0  0  0  0  0  0  0
   15.4752   69.5738   -3.3666 O   0  0  0  0  0  0  0  0  0  0  0  0
   15.7248   68.2940   -5.7616 O   0  0  0  0  0  0  0  0  0  0  0  0
   16.7963   69.2614   -3.8053 C   0  0  1  0  0  0  0  0  0  0  0  0
   16.8188   69.0639   -5.3066 C   0  0  2  0  0  0  0  0  0  0  0  0
   17.6544   70.5089   -3.6356 C   0  0  1  0  0  0  0  0  0  0  0  0
   16.7773   70.4955   -5.8134 C   0  0  2  0  0  0  0  0  0  0  0  0
   14.9086   68.7920   -3.4651 H   0  0  0  0  0  0  0  0  0  0  0  0
   15.7966   67.3919   -5.4126 H   0  0  0  0  0  0  0  0  0  0  0  0
   16.2583   72.5753   -7.6527 O   0  0  0  0  0  0  0  0  0  0  0  0
   19.4108   70.9883  -10.6166 O   0  0  0  0  0  0  0  0  0  0  0  0
   17.4481   70.6502   -7.0733 N   0  0  0  0  0  0  0  0  0  0  0  0
   17.8286   71.7835   -9.1269 N   0  0  0  0  0  0  0  0  0  0  0  0
   17.1124   71.7289   -7.9244 C   0  0  0  0  0  0  0  0  0  0  0  0
   18.4270   69.7387   -7.4538 C   0  0  0  0  0  0  0  0  0  0  0  0
   19.0997   69.8040   -8.6046 C   0  0  0  0  0  0  0  0  0  0  0  0
   18.8095   70.9008   -9.5505 C   0  0  0  0  0  0  0  0  0  0  0  0
   17.6114   72.5263   -9.7359 H   0  0  0  0  0  0  0  0  0  0  0  0
   21.7882   71.2096   -2.6831 O   0  0  0  0  0  0  0  0  0  0  0  0
   23.1672   72.0418   -2.8192 P   0  0  2  0  0  0  0  0  0  0  0  0
   24.2929   70.8830   -2.9064 O   0  0  0  0  0  0  0  0  0  0  0  0
   23.3926   73.0428   -1.7233 O   0  0  0  0  0  0  0  0  0  0  0  0
   23.1178   72.6744   -4.3032 O   0  0  0  0  0  0  0  0  0  0  0  0
   22.0682   74.6620   -5.0547 O   0  0  0  0  0  0  0  0  0  0  0  0
   21.4785   72.3022   -8.3916 O   0  0  0  0  0  0  0  0  0  0  0  0
   23.4005   74.4342   -8.4843 O   0  0  0  0  0  0  0  0  0  0  0  0
   21.2608   71.1443   -5.7474 O   0  0  0  0  0  0  0  0  0  0  0  0
   22.1858   72.7867   -7.2469 C   0  0  1  0  0  0  0  0  0  0  0  0
   22.4432   74.2825   -7.4399 C   0  0  1  0  0  0  0  0  0  0  0  0
   21.3406   72.5434   -5.9980 C   0  0  2  0  0  0  0  0  0  0  0  0
   22.9574   74.9276   -6.1458 C   0  0  1  0  0  0  0  0  0  0  0  0
   21.9127   73.2686   -4.7786 C   0  0  1  0  0  0  0  0  0  0  0  0
   22.0100   72.4532   -9.1880 H   0  0  0  0  0  0  0  0  0  0  0  0
   23.0638   74.0222   -9.2955 H   0  0  0  0  0  0  0  0  0  0  0  0
   20.8969   70.6967   -6.5266 H   0  0  0  0  0  0  0  0  0  0  0  0
   24.3487   76.7595   -6.7918 O   0  0  0  0  0  0  0  0  0  0  0  0
   23.0709   76.4455   -6.2694 C   0  0  0  0  0  0  0  0  0  0  0  0
   24.4350   77.7224   -6.8763 H   0  0  0  0  0  0  0  0  0  0  0  0
 25 28  1  0
 25 24  1  0
 25 26  1  6
 25 27  2  0
  1  4  1  0
  1 24  1  0
  1  2  1  1
  1  3  2  0
  6 11  1  0
  6 12  1  0
 29 36  1  0
 29 37  1  0
  9  7  1  6
  7 13  1  0
 10  8  1  6
  8 14  1  0
 37 28  1  6
  4  5  1  0
 33 30  1  6
 30 38  1  0
 34 31  1  6
 31 39  1  0
 35 32  1  1
 32 40  1  0
 41 42  1  0
 41 43  1  0
 15 19  2  0
 16 22  2  0
 12 17  1  6
 17 19  1  0
 17 20  1  0
 18 19  1  0
 18 22  1  0
 18 23  1  0
  9 10  1  0
  9 11  1  0
 10 12  1  0
 11  5  1  6
 33 34  1  0
 33 35  1  0
 34 36  1  0
 35 37  1  0
 36 42  1  6
 20 21  2  0
 21 22  1  0
M  CHG  2   2  -1  26  -1
M  END
>  <COMPND>  (68) 
    8629 

>  <AUTHOR>  (68) 
    GENERATED BY OPEN BABEL 3.1.1

>  <MASTER>  (68) 
        0    0    0    0    0    0    0    0   58    0   58    0

>  <minimizedAffinity>  (68) 
-7.55310

>  <CNNscore>  (68) 
0.7634443045

>  <CNNaffinity>  (68) 
4.6099991798

>  <CNN_VS>  (68) 
3.5194776058

>  <CNNaffinity_variance>  (68) 
0.7230522633

$$$$
69
     RDKit          3D

 43 45  0  0  0  0  0  0  0  0999 V2000
   20.5300   71.2783   -0.9616 P   0  0  2  0  0  0  0  0  0  0  0  0
   20.8974   70.6711    0.4923 O   0  0  0  0  0  0  0  0  0  0  0  0
   20.0870   72.7119   -0.9561 O   0  0  0  0  0  0  0  0  0  0  0  0
   19.4699   70.2177   -1.5690 O   0  0  0  0  0  0  0  0  0  0  0  0
   19.4112   70.0500   -2.9748 C   0  0  0  0  0  0  0  0  0  0  0  0
   17.1866   69.4891   -2.2605 O   0  0  0  0  0  0  0  0  0  0  0  0
   16.6479   68.7784   -5.1233 O   0  0  0  0  0  0  0  0  0  0  0  0
   15.5122   71.2476   -4.8999 O   0  0  0  0  0  0  0  0  0  0  0  0
   17.4589   69.8243   -4.5905 C   0  0  1  0  0  0  0  0  0  0  0  0
   16.5894   70.9355   -4.0403 C   0  0  2  0  0  0  0  0  0  0  0  0
   18.1365   69.2977   -3.3316 C   0  0  1  0  0  0  0  0  0  0  0  0
   16.1299   70.3496   -2.7161 C   0  0  2  0  0  0  0  0  0  0  0  0
   16.2051   69.0910   -5.9283 H   0  0  0  0  0  0  0  0  0  0  0  0
   15.8559   71.6168   -5.7283 H   0  0  0  0  0  0  0  0  0  0  0  0
   14.0793   70.2279   -0.7774 O   0  0  0  0  0  0  0  0  0  0  0  0
   15.3047   74.2825    1.0390 O   0  0  0  0  0  0  0  0  0  0  0  0
   15.8905   71.3595   -1.7240 N   0  0  0  0  0  0  0  0  0  0  0  0
   14.6912   72.2468    0.1256 N   0  0  0  0  0  0  0  0  0  0  0  0
   14.8338   71.2025   -0.7971 C   0  0  0  0  0  0  0  0  0  0  0  0
   16.6990   72.4900   -1.6768 C   0  0  0  0  0  0  0  0  0  0  0  0
   16.5490   73.4774   -0.7915 C   0  0  0  0  0  0  0  0  0  0  0  0
   15.4684   73.3910    0.2118 C   0  0  0  0  0  0  0  0  0  0  0  0
   13.9614   72.1593    0.7809 H   0  0  0  0  0  0  0  0  0  0  0  0
   21.8666   70.9905   -1.8240 O   0  0  0  0  0  0  0  0  0  0  0  0
   23.0842   71.9640   -2.2515 P   0  0  2  0  0  0  0  0  0  0  0  0
   24.1326   70.9569   -2.9616 O   0  0  0  0  0  0  0  0  0  0  0  0
   23.6619   72.7610   -1.1179 O   0  0  0  0  0  0  0  0  0  0  0  0
   22.4908   72.8536   -3.4604 O   0  0  0  0  0  0  0  0  0  0  0  0
   23.0134   72.6098   -5.7591 O   0  0  0  0  0  0  0  0  0  0  0  0
   22.2492   76.6670   -5.6829 O   0  0  0  0  0  0  0  0  0  0  0  0
   20.3610   74.8915   -6.9200 O   0  0  0  0  0  0  0  0  0  0  0  0
   23.6336   75.4166   -3.4694 O   0  0  0  0  0  0  0  0  0  0  0  0
   22.0725   75.3005   -5.2999 C   0  0  1  0  0  0  0  0  0  0  0  0
   21.6786   74.5010   -6.5435 C   0  0  1  0  0  0  0  0  0  0  0  0
   23.3808   74.7731   -4.7138 C   0  0  2  0  0  0  0  0  0  0  0  0
   21.7314   72.9916   -6.2714 C   0  0  1  0  0  0  0  0  0  0  0  0
   23.3452   73.2551   -4.5281 C   0  0  1  0  0  0  0  0  0  0  0  0
   21.4219   77.0081   -6.0554 H   0  0  0  0  0  0  0  0  0  0  0  0
   20.3413   75.8468   -7.0884 H   0  0  0  0  0  0  0  0  0  0  0  0
   23.6540   76.3770   -3.6004 H   0  0  0  0  0  0  0  0  0  0  0  0
   20.1057   72.1479   -7.8058 O   0  0  0  0  0  0  0  0  0  0  0  0
   21.4959   72.1734   -7.5392 C   0  0  0  0  0  0  0  0  0  0  0  0
   19.9409   71.6307   -8.6102 H   0  0  0  0  0  0  0  0  0  0  0  0
 25 28  1  0
 25 24  1  0
 25 26  1  6
 25 27  2  0
  1  4  1  0
  1 24  1  0
  1  2  1  1
  1  3  2  0
  6 11  1  0
  6 12  1  0
 29 36  1  0
 29 37  1  0
  9  7  1  1
  7 13  1  0
 10  8  1  6
  8 14  1  0
 37 28  1  1
  4  5  1  0
 33 30  1  6
 30 38  1  0
 34 31  1  1
 31 39  1  0
 35 32  1  1
 32 40  1  0
 41 42  1  0
 41 43  1  0
 15 19  2  0
 16 22  2  0
 12 17  1  1
 17 19  1  0
 17 20  1  0
 18 19  1  0
 18 22  1  0
 18 23  1  0
  9 10  1  0
  9 11  1  0
 10 12  1  0
 11  5  1  1
 33 34  1  0
 33 35  1  0
 34 36  1  0
 35 37  1  0
 36 42  1  6
 20 21  2  0
 21 22  1  0
M  CHG  2   2  -1  26  -1
M  END
>  <COMPND>  (69) 
    8629 

>  <AUTHOR>  (69) 
    GENERATED BY OPEN BABEL 3.1.1

>  <MASTER>  (69) 
        0    0    0    0    0    0    0    0   58    0   58    0

>  <minimizedAffinity>  (69) 
-6.42379

>  <CNNscore>  (69) 
0.6903454065

>  <CNNaffinity>  (69) 
4.0365610123

>  <CNN_VS>  (69) 
2.7866213322

>  <CNNaffinity_variance>  (69) 
0.3757115901

$$$$
70
     RDKit          3D

 43 45  0  0  0  0  0  0  0  0999 V2000
   20.5631   72.5546   -4.8004 P   0  0  2  0  0  0  0  0  0  0  0  0
   19.1537   73.3263   -4.9889 O   0  0  0  0  0  0  0  0  0  0  0  0
   21.7630   73.4472   -4.6782 O   0  0  0  0  0  0  0  0  0  0  0  0
   20.5948   71.4986   -6.0259 O   0  0  0  0  0  0  0  0  0  0  0  0
   19.9944   71.8704   -7.2544 C   0  0  0  0  0  0  0  0  0  0  0  0
   18.6047   69.9685   -6.7794 O   0  0  0  0  0  0  0  0  0  0  0  0
   18.0152   69.9009   -9.7186 O   0  0  0  0  0  0  0  0  0  0  0  0
   15.7901   71.0986   -8.6934 O   0  0  0  0  0  0  0  0  0  0  0  0
   18.2143   71.0258   -8.8640 C   0  0  1  0  0  0  0  0  0  0  0  0
   17.0024   71.2360   -7.9805 C   0  0  2  0  0  0  0  0  0  0  0  0
   19.2888   70.6589   -7.8480 C   0  0  1  0  0  0  0  0  0  0  0  0
   17.1878   70.1553   -6.9289 C   0  0  2  0  0  0  0  0  0  0  0  0
   17.3333   70.1114  -10.3764 H   0  0  0  0  0  0  0  0  0  0  0  0
   15.7187   71.8089   -9.3501 H   0  0  0  0  0  0  0  0  0  0  0  0
   16.8225   68.3752   -4.7666 O   0  0  0  0  0  0  0  0  0  0  0  0
   15.0360   71.6862   -2.1044 O   0  0  0  0  0  0  0  0  0  0  0  0
   16.6298   70.5255   -5.6589 N   0  0  0  0  0  0  0  0  0  0  0  0
   15.9334   70.0253   -3.4427 N   0  0  0  0  0  0  0  0  0  0  0  0
   16.4884   69.5550   -4.6397 C   0  0  0  0  0  0  0  0  0  0  0  0
   16.2298   71.8382   -5.4338 C   0  0  0  0  0  0  0  0  0  0  0  0
   15.7012   72.2704   -4.2871 C   0  0  0  0  0  0  0  0  0  0  0  0
   15.5193   71.3197   -3.1712 C   0  0  0  0  0  0  0  0  0  0  0  0
   15.8250   69.3669   -2.7185 H   0  0  0  0  0  0  0  0  0  0  0  0
   20.2923   71.6120   -3.5154 O   0  0  0  0  0  0  0  0  0  0  0  0
   19.8322   71.9767   -2.0094 P   0  0  2  0  0  0  0  0  0  0  0  0
   19.9745   70.5680   -1.2265 O   0  0  0  0  0  0  0  0  0  0  0  0
   18.4705   72.6021   -1.9164 O   0  0  0  0  0  0  0  0  0  0  0  0
   21.0288   72.8897   -1.4265 O   0  0  0  0  0  0  0  0  0  0  0  0
   23.3288   73.0047   -1.9861 O   0  0  0  0  0  0  0  0  0  0  0  0
   23.6213   73.4711    2.1063 O   0  0  0  0  0  0  0  0  0  0  0  0
   24.0857   75.7232    0.3858 O   0  0  0  0  0  0  0  0  0  0  0  0
   21.6783   71.6340    0.9976 O   0  0  0  0  0  0  0  0  0  0  0  0
   23.0219   73.6248    0.8170 C   0  0  1  0  0  0  0  0  0  0  0  0
   24.0037   74.3796   -0.0814 C   0  0  1  0  0  0  0  0  0  0  0  0
   22.7179   72.2435    0.2399 C   0  0  2  0  0  0  0  0  0  0  0  0
   23.5487   74.3502   -1.5468 C   0  0  1  0  0  0  0  0  0  0  0  0
   22.3222   72.3224   -1.2357 C   0  0  1  0  0  0  0  0  0  0  0  0
   23.8164   74.3445    2.4785 H   0  0  0  0  0  0  0  0  0  0  0  0
   24.3735   75.7277    1.3122 H   0  0  0  0  0  0  0  0  0  0  0  0
   21.9411   71.5896    1.9297 H   0  0  0  0  0  0  0  0  0  0  0  0
   24.5226   76.3698   -2.3725 O   0  0  0  0  0  0  0  0  0  0  0  0
   24.5910   74.9599   -2.4816 C   0  0  0  0  0  0  0  0  0  0  0  0
   25.1807   76.7714   -2.9618 H   0  0  0  0  0  0  0  0  0  0  0  0
 25 28  1  0
 25 24  1  0
 25 26  1  1
 25 27  2  0
  1  4  1  0
  1 24  1  0
  1  2  1  6
  1  3  2  0
  6 11  1  0
  6 12  1  0
 29 36  1  0
 29 37  1  0
  9  7  1  6
  7 13  1  0
 10  8  1  6
  8 14  1  0
 37 28  1  1
  4  5  1  0
 33 30  1  1
 30 38  1  0
 34 31  1  1
 31 39  1  0
 35 32  1  1
 32 40  1  0
 41 42  1  0
 41 43  1  0
 15 19  2  0
 16 22  2  0
 12 17  1  1
 17 19  1  0
 17 20  1  0
 18 19  1  0
 18 22  1  0
 18 23  1  0
  9 10  1  0
  9 11  1  0
 10 12  1  0
 11  5  1  1
 33 34  1  0
 33 35  1  0
 34 36  1  0
 35 37  1  0
 36 42  1  6
 20 21  2  0
 21 22  1  0
M  CHG  2   2  -1  26  -1
M  END
>  <COMPND>  (70) 
    8629 

>  <AUTHOR>  (70) 
    GENERATED BY OPEN BABEL 3.1.1

>  <MASTER>  (70) 
        0    0    0    0    0    0    0    0   58    0   58    0

>  <minimizedAffinity>  (70) 
-5.91526

>  <CNNscore>  (70) 
0.6870079637

>  <CNNaffinity>  (70) 
4.2753334045

>  <CNN_VS>  (70) 
2.9371881485

>  <CNNaffinity_variance>  (70) 
0.3696397841

$$$$
71
     RDKit          3D

 43 45  0  0  0  0  0  0  0  0999 V2000
   20.4717   72.5122   -4.7737 P   0  0  2  0  0  0  0  0  0  0  0  0
   19.1728   73.4186   -5.1032 O   0  0  0  0  0  0  0  0  0  0  0  0
   21.6762   73.2763   -4.3082 O   0  0  0  0  0  0  0  0  0  0  0  0
   20.6760   71.6253   -6.1115 O   0  0  0  0  0  0  0  0  0  0  0  0
   19.9200   71.9555   -7.2635 C   0  0  0  0  0  0  0  0  0  0  0  0
   18.6301   70.0028   -6.7189 O   0  0  0  0  0  0  0  0  0  0  0  0
   18.0377   69.8056   -9.6517 O   0  0  0  0  0  0  0  0  0  0  0  0
   15.7570   70.9229   -8.6584 O   0  0  0  0  0  0  0  0  0  0  0  0
   18.1813   70.9675   -8.8364 C   0  0  1  0  0  0  0  0  0  0  0  0
   16.9624   71.1458   -7.9555 C   0  0  2  0  0  0  0  0  0  0  0  0
   19.2755   70.6903   -7.8130 C   0  0  1  0  0  0  0  0  0  0  0  0
   17.2051   70.1122   -6.8688 C   0  0  2  0  0  0  0  0  0  0  0  0
   17.3444   69.9588  -10.3134 H   0  0  0  0  0  0  0  0  0  0  0  0
   15.6479   71.6059   -9.3383 H   0  0  0  0  0  0  0  0  0  0  0  0
   17.0293   68.4213   -4.6132 O   0  0  0  0  0  0  0  0  0  0  0  0
   14.9849   71.6929   -2.0916 O   0  0  0  0  0  0  0  0  0  0  0  0
   16.6320   70.4964   -5.6097 N   0  0  0  0  0  0  0  0  0  0  0  0
   16.0117   70.0518   -3.3594 N   0  0  0  0  0  0  0  0  0  0  0  0
   16.5917   69.5715   -4.5405 C   0  0  0  0  0  0  0  0  0  0  0  0
   16.1180   71.7780   -5.4445 C   0  0  0  0  0  0  0  0  0  0  0  0
   15.5670   72.2201   -4.3122 C   0  0  0  0  0  0  0  0  0  0  0  0
   15.4858   71.3162   -3.1466 C   0  0  0  0  0  0  0  0  0  0  0  0
   15.9723   69.4248   -2.6011 H   0  0  0  0  0  0  0  0  0  0  0  0
   19.9039   71.4372   -3.7083 O   0  0  0  0  0  0  0  0  0  0  0  0
   19.3321   71.6292   -2.2086 P   0  0  2  0  0  0  0  0  0  0  0  0
   18.8701   70.1353   -1.7936 O   0  0  0  0  0  0  0  0  0  0  0  0
   18.2533   72.6665   -2.0895 O   0  0  0  0  0  0  0  0  0  0  0  0
   20.6392   71.9170   -1.3067 O   0  0  0  0  0  0  0  0  0  0  0  0
   21.1449   71.8415    1.0074 O   0  0  0  0  0  0  0  0  0  0  0  0
   22.9045   75.4563    0.0652 O   0  0  0  0  0  0  0  0  0  0  0  0
   24.5594   73.1753    0.6187 O   0  0  0  0  0  0  0  0  0  0  0  0
   20.3930   74.7089   -1.1648 O   0  0  0  0  0  0  0  0  0  0  0  0
   22.5001   74.1043   -0.1669 C   0  0  1  0  0  0  0  0  0  0  0  0
   23.1612   73.2177    0.8903 C   0  0  1  0  0  0  0  0  0  0  0  0
   20.9784   74.0146   -0.0686 C   0  0  2  0  0  0  0  0  0  0  0  0
   22.5704   71.8015    0.8738 C   0  0  1  0  0  0  0  0  0  0  0  0
   20.4986   72.5622   -0.0437 C   0  0  1  0  0  0  0  0  0  0  0  0
   23.8697   75.5203    0.0037 H   0  0  0  0  0  0  0  0  0  0  0  0
   24.9200   74.0758    0.6316 H   0  0  0  0  0  0  0  0  0  0  0  0
   20.7043   75.6270   -1.1693 H   0  0  0  0  0  0  0  0  0  0  0  0
   24.2769   70.2880    1.5853 O   0  0  0  0  0  0  0  0  0  0  0  0
   23.1022   70.9466    2.0220 C   0  0  0  0  0  0  0  0  0  0  0  0
   24.6267   69.7403    2.3060 H   0  0  0  0  0  0  0  0  0  0  0  0
 25 28  1  0
 25 24  1  0
 25 26  1  1
 25 27  2  0
  1  4  1  0
  1 24  1  0
  1  2  1  6
  1  3  2  0
  6 11  1  0
  6 12  1  0
 29 36  1  0
 29 37  1  0
  9  7  1  6
  7 13  1  0
 10  8  1  6
  8 14  1  0
 37 28  1  6
  4  5  1  0
 33 30  1  1
 30 38  1  0
 34 31  1  6
 31 39  1  0
 35 32  1  6
 32 40  1  0
 41 42  1  0
 41 43  1  0
 15 19  2  0
 16 22  2  0
 12 17  1  1
 17 19  1  0
 17 20  1  0
 18 19  1  0
 18 22  1  0
 18 23  1  0
  9 10  1  0
  9 11  1  0
 10 12  1  0
 11  5  1  1
 33 34  1  0
 33 35  1  0
 34 36  1  0
 35 37  1  0
 36 42  1  1
 20 21  2  0
 21 22  1  0
M  CHG  2   2  -1  26  -1
M  END
>  <COMPND>  (71) 
    8629 

>  <AUTHOR>  (71) 
    GENERATED BY OPEN BABEL 3.1.1

>  <MASTER>  (71) 
        0    0    0    0    0    0    0    0   58    0   58    0

>  <minimizedAffinity>  (71) 
-6.24954

>  <CNNscore>  (71) 
0.6833055019

>  <CNNaffinity>  (71) 
4.3961625099

>  <CNN_VS>  (71) 
3.0039219856

>  <CNNaffinity_variance>  (71) 
0.2985377908

$$$$
72
     RDKit          3D

 43 45  0  0  0  0  0  0  0  0999 V2000
   19.3758   72.0586   -1.3158 P   0  0  2  0  0  0  0  0  0  0  0  0
   19.7129   70.4847   -1.1526 O   0  0  0  0  0  0  0  0  0  0  0  0
   18.0189   72.3608   -1.8805 O   0  0  0  0  0  0  0  0  0  0  0  0
   20.6313   72.6397   -2.1548 O   0  0  0  0  0  0  0  0  0  0  0  0
   20.4374   72.9724   -3.5184 C   0  0  0  0  0  0  0  0  0  0  0  0
   20.8012   71.1683   -5.0633 O   0  0  0  0  0  0  0  0  0  0  0  0
   23.3691   72.5434   -5.7745 O   0  0  0  0  0  0  0  0  0  0  0  0
   21.7256   73.2524   -7.8318 O   0  0  0  0  0  0  0  0  0  0  0  0
   22.1055   73.1117   -5.4345 C   0  0  1  0  0  0  0  0  0  0  0  0
   21.1322   72.9554   -6.5843 C   0  0  2  0  0  0  0  0  0  0  0  0
   21.4715   72.2371   -4.3600 C   0  0  1  0  0  0  0  0  0  0  0  0
   20.7304   71.4955   -6.4607 C   0  0  2  0  0  0  0  0  0  0  0  0
   23.7933   73.0850   -6.4590 H   0  0  0  0  0  0  0  0  0  0  0  0
   21.9633   74.1923   -7.8614 H   0  0  0  0  0  0  0  0  0  0  0  0
   20.0408   71.0731   -9.1670 O   0  0  0  0  0  0  0  0  0  0  0  0
   15.5748   70.5779   -8.1420 O   0  0  0  0  0  0  0  0  0  0  0  0
   19.3950   71.2534   -6.9293 N   0  0  0  0  0  0  0  0  0  0  0  0
   17.8176   70.8267   -8.6544 N   0  0  0  0  0  0  0  0  0  0  0  0
   19.1558   71.0547   -8.3090 C   0  0  0  0  0  0  0  0  0  0  0  0
   18.3396   71.2145   -6.0246 C   0  0  0  0  0  0  0  0  0  0  0  0
   17.0689   70.9972   -6.3702 C   0  0  0  0  0  0  0  0  0  0  0  0
   16.7335   70.7801   -7.7923 C   0  0  0  0  0  0  0  0  0  0  0  0
   17.6270   70.6860   -9.6103 H   0  0  0  0  0  0  0  0  0  0  0  0
   19.6310   72.6410    0.1703 O   0  0  0  0  0  0  0  0  0  0  0  0
   19.7171   74.1607    0.7145 P   0  0  2  0  0  0  0  0  0  0  0  0
   18.5536   74.2192    1.8372 O   0  0  0  0  0  0  0  0  0  0  0  0
   19.5973   75.2057   -0.3567 O   0  0  0  0  0  0  0  0  0  0  0  0
   21.0954   74.2169    1.5526 O   0  0  0  0  0  0  0  0  0  0  0  0
   23.2710   73.2820    1.4567 O   0  0  0  0  0  0  0  0  0  0  0  0
   22.3364   72.3777    5.3758 O   0  0  0  0  0  0  0  0  0  0  0  0
   24.2517   74.4430    4.8151 O   0  0  0  0  0  0  0  0  0  0  0  0
   20.3005   72.1928    3.3263 O   0  0  0  0  0  0  0  0  0  0  0  0
   22.3293   73.1676    4.1836 C   0  0  1  0  0  0  0  0  0  0  0  0
   23.7760   73.5238    3.8358 C   0  0  1  0  0  0  0  0  0  0  0  0
   21.6876   72.3625    3.0552 C   0  0  2  0  0  0  0  0  0  0  0  0
   23.8731   74.1395    2.4334 C   0  0  1  0  0  0  0  0  0  0  0  0
   21.8836   73.0383    1.6969 C   0  0  1  0  0  0  0  0  0  0  0  0
   22.7421   72.8834    6.0964 H   0  0  0  0  0  0  0  0  0  0  0  0
   24.1845   74.0422    5.6961 H   0  0  0  0  0  0  0  0  0  0  0  0
   20.1898   71.7637    4.1886 H   0  0  0  0  0  0  0  0  0  0  0  0
   26.1299   73.3813    2.6359 O   0  0  0  0  0  0  0  0  0  0  0  0
   25.3222   74.3569    2.0033 C   0  0  0  0  0  0  0  0  0  0  0  0
   27.0550   73.5073    2.3712 H   0  0  0  0  0  0  0  0  0  0  0  0
 25 28  1  0
 25 24  1  0
 25 26  1  1
 25 27  2  0
  1  4  1  0
  1 24  1  0
  1  2  1  1
  1  3  2  0
  6 11  1  0
  6 12  1  0
 29 36  1  0
 29 37  1  0
  9  7  1  6
  7 13  1  0
 10  8  1  6
  8 14  1  0
 37 28  1  1
  4  5  1  0
 33 30  1  1
 30 38  1  0
 34 31  1  1
 31 39  1  0
 35 32  1  1
 32 40  1  0
 41 42  1  0
 41 43  1  0
 15 19  2  0
 16 22  2  0
 12 17  1  1
 17 19  1  0
 17 20  1  0
 18 19  1  0
 18 22  1  0
 18 23  1  0
  9 10  1  0
  9 11  1  0
 10 12  1  0
 11  5  1  6
 33 34  1  0
 33 35  1  0
 34 36  1  0
 35 37  1  0
 36 42  1  6
 20 21  2  0
 21 22  1  0
M  CHG  2   2  -1  26  -1
M  END
>  <COMPND>  (72) 
    8629 

>  <AUTHOR>  (72) 
    GENERATED BY OPEN BABEL 3.1.1

>  <MASTER>  (72) 
        0    0    0    0    0    0    0    0   58    0   58    0

>  <minimizedAffinity>  (72) 
-6.54988

>  <CNNscore>  (72) 
0.6676926017

>  <CNNaffinity>  (72) 
4.2789125443

>  <CNN_VS>  (72) 
2.8569982052

>  <CNNaffinity_variance>  (72) 
0.1230389625

$$$$
73
     RDKit          3D

 43 45  0  0  0  0  0  0  0  0999 V2000
   23.6035   72.7235   -3.5686 P   0  0  2  0  0  0  0  0  0  0  0  0
   23.9592   71.2050   -3.1384 O   0  0  0  0  0  0  0  0  0  0  0  0
   24.6859   73.4387   -4.3225 O   0  0  0  0  0  0  0  0  0  0  0  0
   23.1332   73.4191   -2.1855 O   0  0  0  0  0  0  0  0  0  0  0  0
   22.1659   74.4529   -2.2434 C   0  0  0  0  0  0  0  0  0  0  0  0
   21.2300   72.7705   -0.8055 O   0  0  0  0  0  0  0  0  0  0  0  0
   19.1603   74.8132   -0.0743 O   0  0  0  0  0  0  0  0  0  0  0  0
   20.8658   74.9078    2.0515 O   0  0  0  0  0  0  0  0  0  0  0  0
   20.5467   74.9949   -0.3572 C   0  0  1  0  0  0  0  0  0  0  0  0
   21.3887   74.5046    0.8022 C   0  0  2  0  0  0  0  0  0  0  0  0
   20.9314   74.0210   -1.4640 C   0  0  1  0  0  0  0  0  0  0  0  0
   21.3447   72.9984    0.6087 C   0  0  2  0  0  0  0  0  0  0  0  0
   18.8912   75.4249    0.6295 H   0  0  0  0  0  0  0  0  0  0  0  0
   20.9159   75.8735    2.1266 H   0  0  0  0  0  0  0  0  0  0  0  0
   21.5206   70.2475    1.2251 O   0  0  0  0  0  0  0  0  0  0  0  0
   25.9475   70.6183    2.4523 O   0  0  0  0  0  0  0  0  0  0  0  0
   22.5312   72.3494    1.0908 N   0  0  0  0  0  0  0  0  0  0  0  0
   23.7248   70.4343    1.8355 N   0  0  0  0  0  0  0  0  0  0  0  0
   22.5136   70.9632    1.3712 C   0  0  0  0  0  0  0  0  0  0  0  0
   23.6955   73.0858    1.2805 C   0  0  0  0  0  0  0  0  0  0  0  0
   24.8419   72.5667    1.7252 C   0  0  0  0  0  0  0  0  0  0  0  0
   24.9083   71.1254    2.0416 C   0  0  0  0  0  0  0  0  0  0  0  0
   23.7361   69.4706    2.0378 H   0  0  0  0  0  0  0  0  0  0  0  0
   22.2161   72.5556   -4.3809 O   0  0  0  0  0  0  0  0  0  0  0  0
   21.7705   73.0851   -5.8418 P   0  0  2  0  0  0  0  0  0  0  0  0
   22.8065   72.3418   -6.8377 O   0  0  0  0  0  0  0  0  0  0  0  0
   21.7491   74.5804   -5.9741 O   0  0  0  0  0  0  0  0  0  0  0  0
   20.3515   72.3685   -6.1208 O   0  0  0  0  0  0  0  0  0  0  0  0
   19.6176   70.2221   -5.4346 O   0  0  0  0  0  0  0  0  0  0  0  0
   17.6880   70.4455   -9.0785 O   0  0  0  0  0  0  0  0  0  0  0  0
   16.1678   70.6740   -6.6527 O   0  0  0  0  0  0  0  0  0  0  0  0
   20.3635   71.5132   -8.7935 O   0  0  0  0  0  0  0  0  0  0  0  0
   18.2184   70.9544   -7.8516 C   0  0  1  0  0  0  0  0  0  0  0  0
   17.5229   70.2355   -6.6939 C   0  0  1  0  0  0  0  0  0  0  0  0
   19.7242   70.7003   -7.8153 C   0  0  2  0  0  0  0  0  0  0  0  0
   18.2208   70.5306   -5.3593 C   0  0  1  0  0  0  0  0  0  0  0  0
   20.3105   70.9778   -6.4299 C   0  0  1  0  0  0  0  0  0  0  0  0
   16.7323   70.6041   -9.1081 H   0  0  0  0  0  0  0  0  0  0  0  0
   15.7387   70.4823   -7.5014 H   0  0  0  0  0  0  0  0  0  0  0  0
   19.9838   71.3280   -9.6660 H   0  0  0  0  0  0  0  0  0  0  0  0
   16.8612   68.6570   -4.7678 O   0  0  0  0  0  0  0  0  0  0  0  0
   17.6418   69.7009   -4.2154 C   0  0  0  0  0  0  0  0  0  0  0  0
   16.4865   68.1204   -4.0512 H   0  0  0  0  0  0  0  0  0  0  0  0
 25 28  1  0
 25 24  1  0
 25 26  1  6
 25 27  2  0
  1  4  1  0
  1 24  1  0
  1  2  1  1
  1  3  2  0
  6 11  1  0
  6 12  1  0
 29 36  1  0
 29 37  1  0
  9  7  1  1
  7 13  1  0
 10  8  1  1
  8 14  1  0
 37 28  1  1
  4  5  1  0
 33 30  1  6
 30 38  1  0
 34 31  1  1
 31 39  1  0
 35 32  1  6
 32 40  1  0
 41 42  1  0
 41 43  1  0
 15 19  2  0
 16 22  2  0
 12 17  1  6
 17 19  1  0
 17 20  1  0
 18 19  1  0
 18 22  1  0
 18 23  1  0
  9 10  1  0
  9 11  1  0
 10 12  1  0
 11  5  1  1
 33 34  1  0
 33 35  1  0
 34 36  1  0
 35 37  1  0
 36 42  1  1
 20 21  2  0
 21 22  1  0
M  CHG  2   2  -1  26  -1
M  END
>  <COMPND>  (73) 
    8629 

>  <AUTHOR>  (73) 
    GENERATED BY OPEN BABEL 3.1.1

>  <MASTER>  (73) 
        0    0    0    0    0    0    0    0   58    0   58    0

>  <minimizedAffinity>  (73) 
-7.78961

>  <CNNscore>  (73) 
0.6524624825

>  <CNNaffinity>  (73) 
4.4125504494

>  <CNN_VS>  (73) 
2.8790235519

>  <CNNaffinity_variance>  (73) 
0.0773314685

$$$$
74
     RDKit          3D

 43 45  0  0  0  0  0  0  0  0999 V2000
   22.4990   72.1065   -3.3697 P   0  0  2  0  0  0  0  0  0  0  0  0
   21.8991   70.6111   -3.2240 O   0  0  0  0  0  0  0  0  0  0  0  0
   23.9123   72.1766   -3.8689 O   0  0  0  0  0  0  0  0  0  0  0  0
   22.2317   72.7751   -1.9208 O   0  0  0  0  0  0  0  0  0  0  0  0
   23.2702   72.7389   -0.9575 C   0  0  0  0  0  0  0  0  0  0  0  0
   24.3934   71.2482    0.5559 O   0  0  0  0  0  0  0  0  0  0  0  0
   21.6714   70.1942    1.2418 O   0  0  0  0  0  0  0  0  0  0  0  0
   22.2110   71.8546    3.3366 O   0  0  0  0  0  0  0  0  0  0  0  0
   22.0704   71.5282    0.9314 C   0  0  1  0  0  0  0  0  0  0  0  0
   22.8252   72.1356    2.0954 C   0  0  2  0  0  0  0  0  0  0  0  0
   23.1473   71.4577   -0.1440 C   0  0  1  0  0  0  0  0  0  0  0  0
   24.1914   71.4853    1.9587 C   0  0  2  0  0  0  0  0  0  0  0  0
   20.9837   70.2135    1.9264 H   0  0  0  0  0  0  0  0  0  0  0  0
   21.3452   72.2901    3.3751 H   0  0  0  0  0  0  0  0  0  0  0  0
   26.8612   70.6388    2.3245 O   0  0  0  0  0  0  0  0  0  0  0  0
   28.1637   74.7925    3.8381 O   0  0  0  0  0  0  0  0  0  0  0  0
   25.2490   72.3249    2.4467 N   0  0  0  0  0  0  0  0  0  0  0  0
   27.5076   72.7078    3.0777 N   0  0  0  0  0  0  0  0  0  0  0  0
   26.5547   71.8018    2.5948 C   0  0  0  0  0  0  0  0  0  0  0  0
   24.9866   73.6511    2.7723 C   0  0  0  0  0  0  0  0  0  0  0  0
   25.9062   74.5017    3.2328 C   0  0  0  0  0  0  0  0  0  0  0  0
   27.2955   74.0348    3.4165 C   0  0  0  0  0  0  0  0  0  0  0  0
   28.4242   72.3655    3.1894 H   0  0  0  0  0  0  0  0  0  0  0  0
   21.4143   72.8428   -4.3153 O   0  0  0  0  0  0  0  0  0  0  0  0
   21.4641   73.2331   -5.8832 P   0  0  2  0  0  0  0  0  0  0  0  0
   22.7084   72.3636   -6.4427 O   0  0  0  0  0  0  0  0  0  0  0  0
   21.5702   74.7072   -6.1472 O   0  0  0  0  0  0  0  0  0  0  0  0
   20.1575   72.5318   -6.5204 O   0  0  0  0  0  0  0  0  0  0  0  0
   19.1460   70.4384   -6.0613 O   0  0  0  0  0  0  0  0  0  0  0  0
   18.5688   70.5680  -10.1480 O   0  0  0  0  0  0  0  0  0  0  0  0
   16.3308   70.9417   -8.3873 O   0  0  0  0  0  0  0  0  0  0  0  0
   21.0339   71.5667   -9.0055 O   0  0  0  0  0  0  0  0  0  0  0  0
   18.6753   71.1112   -8.8293 C   0  0  1  0  0  0  0  0  0  0  0  0
   17.6008   70.4618   -7.9549 C   0  0  1  0  0  0  0  0  0  0  0  0
   20.0687   70.8143   -8.2783 C   0  0  2  0  0  0  0  0  0  0  0  0
   17.8198   70.7910   -6.4721 C   0  0  1  0  0  0  0  0  0  0  0  0
   20.1649   71.1314   -6.7848 C   0  0  1  0  0  0  0  0  0  0  0  0
   17.6864   70.7535  -10.5038 H   0  0  0  0  0  0  0  0  0  0  0  0
   16.2052   70.7278   -9.3253 H   0  0  0  0  0  0  0  0  0  0  0  0
   20.9630   71.3569   -9.9493 H   0  0  0  0  0  0  0  0  0  0  0  0
   16.1663   69.0704   -6.3524 O   0  0  0  0  0  0  0  0  0  0  0  0
   16.8549   70.0270   -5.5680 C   0  0  0  0  0  0  0  0  0  0  0  0
   15.5488   68.5763   -5.7901 H   0  0  0  0  0  0  0  0  0  0  0  0
 25 28  1  0
 25 24  1  0
 25 26  1  6
 25 27  2  0
  1  4  1  0
  1 24  1  0
  1  2  1  1
  1  3  2  0
  6 11  1  0
  6 12  1  0
 29 36  1  0
 29 37  1  0
  9  7  1  1
  7 13  1  0
 10  8  1  1
  8 14  1  0
 37 28  1  6
  4  5  1  0
 33 30  1  6
 30 38  1  0
 34 31  1  6
 31 39  1  0
 35 32  1  6
 32 40  1  0
 41 42  1  0
 41 43  1  0
 15 19  2  0
 16 22  2  0
 12 17  1  6
 17 19  1  0
 17 20  1  0
 18 19  1  0
 18 22  1  0
 18 23  1  0
  9 10  1  0
  9 11  1  0
 10 12  1  0
 11  5  1  1
 33 34  1  0
 33 35  1  0
 34 36  1  0
 35 37  1  0
 36 42  1  1
 20 21  2  0
 21 22  1  0
M  CHG  2   2  -1  26  -1
M  END
>  <COMPND>  (74) 
    8629 

>  <AUTHOR>  (74) 
    GENERATED BY OPEN BABEL 3.1.1

>  <MASTER>  (74) 
        0    0    0    0    0    0    0    0   58    0   58    0

>  <minimizedAffinity>  (74) 
-8.07947

>  <CNNscore>  (74) 
0.6282436848

>  <CNNaffinity>  (74) 
4.3024258614

>  <CNN_VS>  (74) 
2.7029719353

>  <CNNaffinity_variance>  (74) 
0.1183185950

$$$$
75
     RDKit          3D

 43 45  0  0  0  0  0  0  0  0999 V2000
   21.9819   72.5361   -5.7840 P   0  0  2  0  0  0  0  0  0  0  0  0
   21.3741   73.9795   -5.3785 O   0  0  0  0  0  0  0  0  0  0  0  0
   23.1650   72.5829   -6.7057 O   0  0  0  0  0  0  0  0  0  0  0  0
   20.6993   71.7135   -6.3283 O   0  0  0  0  0  0  0  0  0  0  0  0
   20.2072   72.0084   -7.6240 C   0  0  0  0  0  0  0  0  0  0  0  0
   19.0326   69.9793   -7.0979 O   0  0  0  0  0  0  0  0  0  0  0  0
   18.1492   69.9685   -9.9632 O   0  0  0  0  0  0  0  0  0  0  0  0
   15.9527   70.9346   -8.6677 O   0  0  0  0  0  0  0  0  0  0  0  0
   18.3441   71.0745   -9.0834 C   0  0  1  0  0  0  0  0  0  0  0  0
   17.2172   71.1486   -8.0744 C   0  0  2  0  0  0  0  0  0  0  0  0
   19.5442   70.7636   -8.1976 C   0  0  1  0  0  0  0  0  0  0  0  0
   17.5974   70.0502   -7.0961 C   0  0  2  0  0  0  0  0  0  0  0  0
   17.3881   70.1441  -10.5393 H   0  0  0  0  0  0  0  0  0  0  0  0
   15.7564   71.6597   -9.2813 H   0  0  0  0  0  0  0  0  0  0  0  0
   16.2581   68.1870   -5.4490 O   0  0  0  0  0  0  0  0  0  0  0  0
   15.9098   71.2162   -1.9930 O   0  0  0  0  0  0  0  0  0  0  0  0
   17.1458   70.3252   -5.7612 N   0  0  0  0  0  0  0  0  0  0  0  0
   16.0860   69.6968   -3.7294 N   0  0  0  0  0  0  0  0  0  0  0  0
   16.4825   69.3204   -5.0190 C   0  0  0  0  0  0  0  0  0  0  0  0
   17.3621   71.5795   -5.2011 C   0  0  0  0  0  0  0  0  0  0  0  0
   16.9766   71.9229   -3.9704 C   0  0  0  0  0  0  0  0  0  0  0  0
   16.2769   70.9310   -3.1286 C   0  0  0  0  0  0  0  0  0  0  0  0
   15.6217   69.0131   -3.1939 H   0  0  0  0  0  0  0  0  0  0  0  0
   22.2728   71.8484   -4.3503 O   0  0  0  0  0  0  0  0  0  0  0  0
   23.4622   72.0846   -3.2815 P   0  0  2  0  0  0  0  0  0  0  0  0
   24.2892   73.3228   -3.9143 O   0  0  0  0  0  0  0  0  0  0  0  0
   24.2910   70.8641   -3.0033 O   0  0  0  0  0  0  0  0  0  0  0  0
   22.7286   72.7048   -1.9845 O   0  0  0  0  0  0  0  0  0  0  0  0
   21.6378   71.5470   -0.2278 O   0  0  0  0  0  0  0  0  0  0  0  0
   19.2804   74.9351   -0.3486 O   0  0  0  0  0  0  0  0  0  0  0  0
   21.1046   74.5541    1.8366 O   0  0  0  0  0  0  0  0  0  0  0  0
   20.2695   73.7756   -2.8097 O   0  0  0  0  0  0  0  0  0  0  0  0
   20.4972   74.1902   -0.4480 C   0  0  1  0  0  0  0  0  0  0  0  0
   20.7672   73.5298    0.9054 C   0  0  1  0  0  0  0  0  0  0  0  0
   20.3480   73.1340   -1.5415 C   0  0  2  0  0  0  0  0  0  0  0  0
   21.9040   72.5039    0.8043 C   0  0  1  0  0  0  0  0  0  0  0  0
   21.5064   72.1349   -1.5235 C   0  0  1  0  0  0  0  0  0  0  0  0
   19.3686   75.6078    0.3436 H   0  0  0  0  0  0  0  0  0  0  0  0
   20.3787   75.1955    1.8906 H   0  0  0  0  0  0  0  0  0  0  0  0
   19.5323   74.4052   -2.8083 H   0  0  0  0  0  0  0  0  0  0  0  0
   20.9148   71.8719    2.8854 O   0  0  0  0  0  0  0  0  0  0  0  0
   22.0848   71.7207    2.1028 C   0  0  0  0  0  0  0  0  0  0  0  0
   21.0154   71.3785    3.7150 H   0  0  0  0  0  0  0  0  0  0  0  0
 25 28  1  0
 25 24  1  0
 25 26  1  6
 25 27  2  0
  1  4  1  0
  1 24  1  0
  1  2  1  1
  1  3  2  0
  6 11  1  0
  6 12  1  0
 29 36  1  0
 29 37  1  0
  9  7  1  6
  7 13  1  0
 10  8  1  6
  8 14  1  0
 37 28  1  1
  4  5  1  0
 33 30  1  1
 30 38  1  0
 34 31  1  1
 31 39  1  0
 35 32  1  6
 32 40  1  0
 41 42  1  0
 41 43  1  0
 15 19  2  0
 16 22  2  0
 12 17  1  1
 17 19  1  0
 17 20  1  0
 18 19  1  0
 18 22  1  0
 18 23  1  0
  9 10  1  0
  9 11  1  0
 10 12  1  0
 11  5  1  1
 33 34  1  0
 33 35  1  0
 34 36  1  0
 35 37  1  0
 36 42  1  1
 20 21  2  0
 21 22  1  0
M  CHG  2   2  -1  26  -1
M  END
>  <COMPND>  (75) 
    8629 

>  <AUTHOR>  (75) 
    GENERATED BY OPEN BABEL 3.1.1

>  <MASTER>  (75) 
        0    0    0    0    0    0    0    0   58    0   58    0

>  <minimizedAffinity>  (75) 
-7.48052

>  <CNNscore>  (75) 
0.6029115915

>  <CNNaffinity>  (75) 
4.3177099228

>  <CNN_VS>  (75) 
2.6031973362

>  <CNNaffinity_variance>  (75) 
0.4045838416

$$$$
76
     RDKit          3D

 43 45  0  0  0  0  0  0  0  0999 V2000
   21.6238   72.7571   -6.3194 P   0  0  2  0  0  0  0  0  0  0  0  0
   20.8413   74.1582   -6.5245 O   0  0  0  0  0  0  0  0  0  0  0  0
   22.8976   72.6223   -7.1008 O   0  0  0  0  0  0  0  0  0  0  0  0
   20.4959   71.6354   -6.6153 O   0  0  0  0  0  0  0  0  0  0  0  0
   19.8149   71.6725   -7.8573 C   0  0  0  0  0  0  0  0  0  0  0  0
   18.5755   70.1433   -6.4793 O   0  0  0  0  0  0  0  0  0  0  0  0
   16.3913   70.3663   -8.5213 O   0  0  0  0  0  0  0  0  0  0  0  0
   15.5170   72.0155   -6.5333 O   0  0  0  0  0  0  0  0  0  0  0  0
   17.2971   71.3656   -8.0564 C   0  0  1  0  0  0  0  0  0  0  0  0
   16.9102   71.8193   -6.6643 C   0  0  2  0  0  0  0  0  0  0  0  0
   18.6450   70.6992   -7.8106 C   0  0  1  0  0  0  0  0  0  0  0  0
   17.4228   70.6752   -5.8062 C   0  0  2  0  0  0  0  0  0  0  0  0
   15.5233   70.7682   -8.6856 H   0  0  0  0  0  0  0  0  0  0  0  0
   15.2397   72.7536   -7.0982 H   0  0  0  0  0  0  0  0  0  0  0  0
   17.2779   69.0628   -3.4916 O   0  0  0  0  0  0  0  0  0  0  0  0
   18.9259   72.4349   -0.8168 O   0  0  0  0  0  0  0  0  0  0  0  0
   17.8079   71.1063   -4.4919 N   0  0  0  0  0  0  0  0  0  0  0  0
   18.0988   70.7431   -2.1617 N   0  0  0  0  0  0  0  0  0  0  0  0
   17.6952   70.2189   -3.3963 C   0  0  0  0  0  0  0  0  0  0  0  0
   18.2914   72.3959   -4.2995 C   0  0  0  0  0  0  0  0  0  0  0  0
   18.6709   72.8809   -3.1154 C   0  0  0  0  0  0  0  0  0  0  0  0
   18.5847   72.0182   -1.9195 C   0  0  0  0  0  0  0  0  0  0  0  0
   18.0287   70.1431   -1.3840 H   0  0  0  0  0  0  0  0  0  0  0  0
   21.8066   72.6743   -4.7154 O   0  0  0  0  0  0  0  0  0  0  0  0
   23.0123   73.1660   -3.7576 P   0  0  2  0  0  0  0  0  0  0  0  0
   23.0579   74.7636   -4.0090 O   0  0  0  0  0  0  0  0  0  0  0  0
   24.3166   72.4634   -4.0004 O   0  0  0  0  0  0  0  0  0  0  0  0
   22.4349   73.0055   -2.2590 O   0  0  0  0  0  0  0  0  0  0  0  0
   22.7057   74.2509   -0.2609 O   0  0  0  0  0  0  0  0  0  0  0  0
   22.9582   70.4363    1.2998 O   0  0  0  0  0  0  0  0  0  0  0  0
   20.6065   72.0127    1.7819 O   0  0  0  0  0  0  0  0  0  0  0  0
   24.1620   71.0296   -1.2650 O   0  0  0  0  0  0  0  0  0  0  0  0
   22.4845   71.4517    0.4111 C   0  0  1  0  0  0  0  0  0  0  0  0
   21.8145   72.5450    1.2456 C   0  0  1  0  0  0  0  0  0  0  0  0
   23.6663   72.0209   -0.3717 C   0  0  2  0  0  0  0  0  0  0  0  0
   21.5196   73.7883    0.3957 C   0  0  1  0  0  0  0  0  0  0  0  0
   23.2772   73.2832   -1.1434 C   0  0  1  0  0  0  0  0  0  0  0  0
   22.2126   70.0703    1.7995 H   0  0  0  0  0  0  0  0  0  0  0  0
   20.8067   71.2280    2.3161 H   0  0  0  0  0  0  0  0  0  0  0  0
   24.4051   70.2358   -0.7643 H   0  0  0  0  0  0  0  0  0  0  0  0
   21.3841   74.7346    2.5854 O   0  0  0  0  0  0  0  0  0  0  0  0
   20.9964   74.9478    1.2406 C   0  0  0  0  0  0  0  0  0  0  0  0
   21.0582   75.4651    3.1349 H   0  0  0  0  0  0  0  0  0  0  0  0
 25 28  1  0
 25 24  1  0
 25 26  1  6
 25 27  2  0
  1  4  1  0
  1 24  1  0
  1  2  1  1
  1  3  2  0
  6 11  1  0
  6 12  1  0
 29 36  1  0
 29 37  1  0
  9  7  1  1
  7 13  1  0
 10  8  1  6
  8 14  1  0
 37 28  1  6
  4  5  1  0
 33 30  1  1
 30 38  1  0
 34 31  1  6
 31 39  1  0
 35 32  1  6
 32 40  1  0
 41 42  1  0
 41 43  1  0
 15 19  2  0
 16 22  2  0
 12 17  1  1
 17 19  1  0
 17 20  1  0
 18 19  1  0
 18 22  1  0
 18 23  1  0
  9 10  1  0
  9 11  1  0
 10 12  1  0
 11  5  1  1
 33 34  1  0
 33 35  1  0
 34 36  1  0
 35 37  1  0
 36 42  1  1
 20 21  2  0
 21 22  1  0
M  CHG  2   2  -1  26  -1
M  END
>  <COMPND>  (76) 
    8629 

>  <AUTHOR>  (76) 
    GENERATED BY OPEN BABEL 3.1.1

>  <MASTER>  (76) 
        0    0    0    0    0    0    0    0   58    0   58    0

>  <minimizedAffinity>  (76) 
-6.23921

>  <CNNscore>  (76) 
0.5790119171

>  <CNNaffinity>  (76) 
4.2927665710

>  <CNN_VS>  (76) 
2.4855630398

>  <CNNaffinity_variance>  (76) 
0.2431157082

$$$$
77
     RDKit          3D

 43 45  0  0  0  0  0  0  0  0999 V2000
   23.5310   73.7466   -3.7160 P   0  0  2  0  0  0  0  0  0  0  0  0
   23.2311   74.9841   -4.7141 O   0  0  0  0  0  0  0  0  0  0  0  0
   24.4022   72.6674   -4.2886 O   0  0  0  0  0  0  0  0  0  0  0  0
   22.0620   73.2778   -3.2262 O   0  0  0  0  0  0  0  0  0  0  0  0
   21.3685   72.3120   -3.9971 C   0  0  0  0  0  0  0  0  0  0  0  0
   19.1107   72.5917   -4.7703 O   0  0  0  0  0  0  0  0  0  0  0  0
   18.2734   71.2017   -2.2489 O   0  0  0  0  0  0  0  0  0  0  0  0
   18.0889   69.2177   -4.1107 O   0  0  0  0  0  0  0  0  0  0  0  0
   19.4163   70.9691   -3.0705 C   0  0  1  0  0  0  0  0  0  0  0  0
   19.0111   70.2620   -4.3470 C   0  0  2  0  0  0  0  0  0  0  0  0
   19.9006   72.3159   -3.5929 C   0  0  1  0  0  0  0  0  0  0  0  0
   18.4129   71.3975   -5.1599 C   0  0  2  0  0  0  0  0  0  0  0  0
   17.9463   70.3558   -1.9033 H   0  0  0  0  0  0  0  0  0  0  0  0
   18.5167   68.5199   -3.5902 H   0  0  0  0  0  0  0  0  0  0  0  0
   16.4443   72.0122   -7.0898 O   0  0  0  0  0  0  0  0  0  0  0  0
   19.1408   70.6093  -10.5542 O   0  0  0  0  0  0  0  0  0  0  0  0
   18.5741   71.2033   -6.5733 N   0  0  0  0  0  0  0  0  0  0  0  0
   17.7886   71.3133   -8.8132 N   0  0  0  0  0  0  0  0  0  0  0  0
   17.5237   71.5436   -7.4572 C   0  0  0  0  0  0  0  0  0  0  0  0
   19.7634   70.6811   -7.0699 C   0  0  0  0  0  0  0  0  0  0  0  0
   19.9999   70.4664   -8.3657 C   0  0  0  0  0  0  0  0  0  0  0  0
   18.9540   70.7952   -9.3557 C   0  0  0  0  0  0  0  0  0  0  0  0
   17.0711   71.5426   -9.4476 H   0  0  0  0  0  0  0  0  0  0  0  0
   24.1357   74.4748   -2.4057 O   0  0  0  0  0  0  0  0  0  0  0  0
   23.4025   75.2018   -1.1619 P   0  0  2  0  0  0  0  0  0  0  0  0
   22.1990   76.0208   -1.8677 O   0  0  0  0  0  0  0  0  0  0  0  0
   24.3138   76.0451   -0.3179 O   0  0  0  0  0  0  0  0  0  0  0  0
   22.6688   74.0057   -0.3643 O   0  0  0  0  0  0  0  0  0  0  0  0
   23.4640   73.5290    1.8167 O   0  0  0  0  0  0  0  0  0  0  0  0
   21.3729   70.0412    1.0998 O   0  0  0  0  0  0  0  0  0  0  0  0
   20.3239   71.9679    2.9533 O   0  0  0  0  0  0  0  0  0  0  0  0
   22.8756   71.2890   -1.0367 O   0  0  0  0  0  0  0  0  0  0  0  0
   21.6310   71.4456    1.0195 C   0  0  1  0  0  0  0  0  0  0  0  0
   21.6528   72.0113    2.4408 C   0  0  1  0  0  0  0  0  0  0  0  0
   22.9769   71.6673    0.3319 C   0  0  2  0  0  0  0  0  0  0  0  0
   22.1847   73.4507    2.4562 C   0  0  1  0  0  0  0  0  0  0  0  0
   23.4374   73.1215    0.4473 C   0  0  1  0  0  0  0  0  0  0  0  0
   20.5195   69.8936    1.5349 H   0  0  0  0  0  0  0  0  0  0  0  0
   19.9997   71.0537    2.9377 H   0  0  0  0  0  0  0  0  0  0  0  0
   22.5836   70.3665   -1.0963 H   0  0  0  0  0  0  0  0  0  0  0  0
   22.1870   72.9046    4.7822 O   0  0  0  0  0  0  0  0  0  0  0  0
   22.3634   73.9793    3.8777 C   0  0  0  0  0  0  0  0  0  0  0  0
   22.2983   73.2261    5.6911 H   0  0  0  0  0  0  0  0  0  0  0  0
 25 28  1  0
 25 24  1  0
 25 26  1  6
 25 27  2  0
  1  4  1  0
  1 24  1  0
  1  2  1  6
  1  3  2  0
  6 11  1  0
  6 12  1  0
 29 36  1  0
 29 37  1  0
  9  7  1  1
  7 13  1  0
 10  8  1  1
  8 14  1  0
 37 28  1  6
  4  5  1  0
 33 30  1  1
 30 38  1  0
 34 31  1  6
 31 39  1  0
 35 32  1  6
 32 40  1  0
 41 42  1  0
 41 43  1  0
 15 19  2  0
 16 22  2  0
 12 17  1  6
 17 19  1  0
 17 20  1  0
 18 19  1  0
 18 22  1  0
 18 23  1  0
  9 10  1  0
  9 11  1  0
 10 12  1  0
 11  5  1  6
 33 34  1  0
 33 35  1  0
 34 36  1  0
 35 37  1  0
 36 42  1  1
 20 21  2  0
 21 22  1  0
M  CHG  2   2  -1  26  -1
M  END
>  <COMPND>  (77) 
    8629 

>  <AUTHOR>  (77) 
    GENERATED BY OPEN BABEL 3.1.1

>  <MASTER>  (77) 
        0    0    0    0    0    0    0    0   58    0   58    0

>  <minimizedAffinity>  (77) 
-6.93404

>  <CNNscore>  (77) 
0.5758961439

>  <CNNaffinity>  (77) 
4.3085837364

>  <CNN_VS>  (77) 
2.4812967777

>  <CNNaffinity_variance>  (77) 
0.1407538801

$$$$
78
     RDKit          3D

 43 45  0  0  0  0  0  0  0  0999 V2000
   20.1554   72.8589   -4.8076 P   0  0  2  0  0  0  0  0  0  0  0  0
   21.0401   74.1205   -5.3007 O   0  0  0  0  0  0  0  0  0  0  0  0
   20.9412   71.7281   -4.2115 O   0  0  0  0  0  0  0  0  0  0  0  0
   19.2570   72.4855   -6.1004 O   0  0  0  0  0  0  0  0  0  0  0  0
   19.9164   72.0883   -7.2900 C   0  0  0  0  0  0  0  0  0  0  0  0
   18.6656   70.1328   -6.6693 O   0  0  0  0  0  0  0  0  0  0  0  0
   18.0813   69.8077   -9.5922 O   0  0  0  0  0  0  0  0  0  0  0  0
   15.7770   70.9167   -8.6452 O   0  0  0  0  0  0  0  0  0  0  0  0
   18.2002   71.0036   -8.8235 C   0  0  1  0  0  0  0  0  0  0  0  0
   16.9767   71.1917   -7.9510 C   0  0  2  0  0  0  0  0  0  0  0  0
   19.2984   70.7894   -7.7894 C   0  0  1  0  0  0  0  0  0  0  0  0
   17.2389   70.2072   -6.8241 C   0  0  2  0  0  0  0  0  0  0  0  0
   17.3859   69.9204  -10.2598 H   0  0  0  0  0  0  0  0  0  0  0  0
   15.6550   71.5700   -9.3517 H   0  0  0  0  0  0  0  0  0  0  0  0
   16.9594   68.5551   -4.5502 O   0  0  0  0  0  0  0  0  0  0  0  0
   14.9877   71.9328   -2.1120 O   0  0  0  0  0  0  0  0  0  0  0  0
   16.6564   70.6292   -5.5815 N   0  0  0  0  0  0  0  0  0  0  0  0
   15.9780   70.2383   -3.3380 N   0  0  0  0  0  0  0  0  0  0  0  0
   16.5624   69.7211   -4.5012 C   0  0  0  0  0  0  0  0  0  0  0  0
   16.1862   71.9306   -5.4432 C   0  0  0  0  0  0  0  0  0  0  0  0
   15.6303   72.4078   -4.3277 C   0  0  0  0  0  0  0  0  0  0  0  0
   15.4944   71.5237   -3.1521 C   0  0  0  0  0  0  0  0  0  0  0  0
   15.9016   69.6237   -2.5724 H   0  0  0  0  0  0  0  0  0  0  0  0
   19.0843   73.5362   -3.8041 O   0  0  0  0  0  0  0  0  0  0  0  0
   19.2905   74.3455   -2.4202 P   0  0  2  0  0  0  0  0  0  0  0  0
   17.7776   74.6930   -1.9645 O   0  0  0  0  0  0  0  0  0  0  0  0
   20.1927   75.5401   -2.5345 O   0  0  0  0  0  0  0  0  0  0  0  0
   19.7881   73.2302   -1.3649 O   0  0  0  0  0  0  0  0  0  0  0  0
   21.3899   74.1490    0.1206 O   0  0  0  0  0  0  0  0  0  0  0  0
   21.6670   70.1796    1.2242 O   0  0  0  0  0  0  0  0  0  0  0  0
   20.3887   72.0548    2.9842 O   0  0  0  0  0  0  0  0  0  0  0  0
   21.3127   70.8825   -1.5615 O   0  0  0  0  0  0  0  0  0  0  0  0
   21.0020   71.3645    0.7778 C   0  0  1  0  0  0  0  0  0  0  0  0
   21.1653   72.4402    1.8535 C   0  0  1  0  0  0  0  0  0  0  0  0
   21.6269   71.8217   -0.5389 C   0  0  2  0  0  0  0  0  0  0  0  0
   20.7131   73.8129    1.3374 C   0  0  1  0  0  0  0  0  0  0  0  0
   21.1474   73.2188   -0.9367 C   0  0  1  0  0  0  0  0  0  0  0  0
   21.2746   69.8838    2.0597 H   0  0  0  0  0  0  0  0  0  0  0  0
   20.6840   71.1863    3.3000 H   0  0  0  0  0  0  0  0  0  0  0  0
   21.6216   70.0022   -1.2978 H   0  0  0  0  0  0  0  0  0  0  0  0
   19.8782   75.1075    3.1639 O   0  0  0  0  0  0  0  0  0  0  0  0
   21.0135   74.9272    2.3374 C   0  0  0  0  0  0  0  0  0  0  0  0
   20.0550   75.8136    3.8056 H   0  0  0  0  0  0  0  0  0  0  0  0
 25 28  1  0
 25 24  1  0
 25 26  1  1
 25 27  2  0
  1  4  1  0
  1 24  1  0
  1  2  1  6
  1  3  2  0
  6 11  1  0
  6 12  1  0
 29 36  1  0
 29 37  1  0
  9  7  1  6
  7 13  1  0
 10  8  1  6
  8 14  1  0
 37 28  1  1
  4  5  1  0
 33 30  1  1
 30 38  1  0
 34 31  1  1
 31 39  1  0
 35 32  1  6
 32 40  1  0
 41 42  1  0
 41 43  1  0
 15 19  2  0
 16 22  2  0
 12 17  1  1
 17 19  1  0
 17 20  1  0
 18 19  1  0
 18 22  1  0
 18 23  1  0
  9 10  1  0
  9 11  1  0
 10 12  1  0
 11  5  1  1
 33 34  1  0
 33 35  1  0
 34 36  1  0
 35 37  1  0
 36 42  1  1
 20 21  2  0
 21 22  1  0
M  CHG  2   2  -1  26  -1
M  END
>  <COMPND>  (78) 
    8629 

>  <AUTHOR>  (78) 
    GENERATED BY OPEN BABEL 3.1.1

>  <MASTER>  (78) 
        0    0    0    0    0    0    0    0   58    0   58    0

>  <minimizedAffinity>  (78) 
-6.33929

>  <CNNscore>  (78) 
0.5711829066

>  <CNNaffinity>  (78) 
4.2129693031

>  <CNN_VS>  (78) 
2.4063761234

>  <CNNaffinity_variance>  (78) 
0.2272462845

$$$$
79
     RDKit          3D

 43 45  0  0  0  0  0  0  0  0999 V2000
   21.3213   74.3878   -1.5822 P   0  0  2  0  0  0  0  0  0  0  0  0
   20.0334   73.9089   -0.7282 O   0  0  0  0  0  0  0  0  0  0  0  0
   21.8918   75.7154   -1.1778 O   0  0  0  0  0  0  0  0  0  0  0  0
   20.8324   74.2722   -3.1202 O   0  0  0  0  0  0  0  0  0  0  0  0
   20.2783   73.0456   -3.5631 C   0  0  0  0  0  0  0  0  0  0  0  0
   20.6898   71.1703   -5.0081 O   0  0  0  0  0  0  0  0  0  0  0  0
   23.2729   72.5197   -5.7136 O   0  0  0  0  0  0  0  0  0  0  0  0
   21.6854   73.1219   -7.8476 O   0  0  0  0  0  0  0  0  0  0  0  0
   21.9987   73.0987   -5.4367 C   0  0  1  0  0  0  0  0  0  0  0  0
   21.0583   72.8832   -6.6040 C   0  0  2  0  0  0  0  0  0  0  0  0
   21.3374   72.2746   -4.3390 C   0  0  1  0  0  0  0  0  0  0  0  0
   20.6571   71.4293   -6.4211 C   0  0  2  0  0  0  0  0  0  0  0  0
   23.7146   73.0293   -6.4115 H   0  0  0  0  0  0  0  0  0  0  0  0
   21.9214   74.0602   -7.9161 H   0  0  0  0  0  0  0  0  0  0  0  0
   20.0776   69.6667   -8.5507 O   0  0  0  0  0  0  0  0  0  0  0  0
   15.5514   70.4731   -8.2285 O   0  0  0  0  0  0  0  0  0  0  0  0
   19.3359   71.1595   -6.9142 N   0  0  0  0  0  0  0  0  0  0  0  0
   17.8244   70.0695   -8.3885 N   0  0  0  0  0  0  0  0  0  0  0  0
   19.1536   70.2584   -7.9890 C   0  0  0  0  0  0  0  0  0  0  0  0
   18.2383   71.7851   -6.3331 C   0  0  0  0  0  0  0  0  0  0  0  0
   16.9772   71.5951   -6.7266 C   0  0  0  0  0  0  0  0  0  0  0  0
   16.6999   70.6690   -7.8434 C   0  0  0  0  0  0  0  0  0  0  0  0
   17.6731   69.4463   -9.1358 H   0  0  0  0  0  0  0  0  0  0  0  0
   22.3413   73.1430   -1.4306 O   0  0  0  0  0  0  0  0  0  0  0  0
   22.4178   71.9612   -0.3304 P   0  0  2  0  0  0  0  0  0  0  0  0
   23.8943   71.3395   -0.5557 O   0  0  0  0  0  0  0  0  0  0  0  0
   21.3032   70.9597   -0.4245 O   0  0  0  0  0  0  0  0  0  0  0  0
   22.5102   72.7278    1.0869 O   0  0  0  0  0  0  0  0  0  0  0  0
   24.2347   72.3615    2.6707 O   0  0  0  0  0  0  0  0  0  0  0  0
   21.2382   73.5931    5.2310 O   0  0  0  0  0  0  0  0  0  0  0  0
   23.4439   75.3484    4.6812 O   0  0  0  0  0  0  0  0  0  0  0  0
   20.6009   71.9013    2.9702 O   0  0  0  0  0  0  0  0  0  0  0  0
   21.9842   73.5760    4.0109 C   0  0  1  0  0  0  0  0  0  0  0  0
   23.4290   73.9684    4.3267 C   0  0  1  0  0  0  0  0  0  0  0  0
   21.9272   72.1726    3.4106 C   0  0  2  0  0  0  0  0  0  0  0  0
   24.3472   73.7158    3.1233 C   0  0  1  0  0  0  0  0  0  0  0  0
   22.9135   72.0132    2.2522 C   0  0  1  0  0  0  0  0  0  0  0  0
   21.2700   74.4816    5.6171 H   0  0  0  0  0  0  0  0  0  0  0  0
   22.8598   75.4944    5.4419 H   0  0  0  0  0  0  0  0  0  0  0  0
   19.9862   72.0053    3.7126 H   0  0  0  0  0  0  0  0  0  0  0  0
   26.0885   75.3358    3.3524 O   0  0  0  0  0  0  0  0  0  0  0  0
   25.8167   73.9510    3.4659 C   0  0  0  0  0  0  0  0  0  0  0  0
   27.0203   75.5005    3.5678 H   0  0  0  0  0  0  0  0  0  0  0  0
 25 28  1  0
 25 24  1  0
 25 26  1  6
 25 27  2  0
  1  4  1  0
  1 24  1  0
  1  2  1  1
  1  3  2  0
  6 11  1  0
  6 12  1  0
 29 36  1  0
 29 37  1  0
  9  7  1  6
  7 13  1  0
 10  8  1  6
  8 14  1  0
 37 28  1  6
  4  5  1  0
 33 30  1  1
 30 38  1  0
 34 31  1  6
 31 39  1  0
 35 32  1  6
 32 40  1  0
 41 42  1  0
 41 43  1  0
 15 19  2  0
 16 22  2  0
 12 17  1  1
 17 19  1  0
 17 20  1  0
 18 19  1  0
 18 22  1  0
 18 23  1  0
  9 10  1  0
  9 11  1  0
 10 12  1  0
 11  5  1  6
 33 34  1  0
 33 35  1  0
 34 36  1  0
 35 37  1  0
 36 42  1  1
 20 21  2  0
 21 22  1  0
M  CHG  2   2  -1  26  -1
M  END
>  <COMPND>  (79) 
    8629 

>  <AUTHOR>  (79) 
    GENERATED BY OPEN BABEL 3.1.1

>  <MASTER>  (79) 
        0    0    0    0    0    0    0    0   58    0   58    0

>  <minimizedAffinity>  (79) 
-6.44536

>  <CNNscore>  (79) 
0.5635698438

>  <CNNaffinity>  (79) 
4.1870498657

>  <CNN_VS>  (79) 
2.3596949577

>  <CNNaffinity_variance>  (79) 
0.0632331297

$$$$
80
     RDKit          3D

 43 45  0  0  0  0  0  0  0  0999 V2000
   16.7260   69.4469   -2.3085 P   0  0  2  0  0  0  0  0  0  0  0  0
   15.7481   70.0343   -3.4557 O   0  0  0  0  0  0  0  0  0  0  0  0
   17.6326   68.3380   -2.7553 O   0  0  0  0  0  0  0  0  0  0  0  0
   15.7235   69.0871   -1.0904 O   0  0  0  0  0  0  0  0  0  0  0  0
   14.7812   70.0624   -0.6797 C   0  0  0  0  0  0  0  0  0  0  0  0
   13.0767   68.3712   -0.7700 O   0  0  0  0  0  0  0  0  0  0  0  0
   11.2295   70.5469   -1.6893 O   0  0  0  0  0  0  0  0  0  0  0  0
   10.5807   70.2906    0.9470 O   0  0  0  0  0  0  0  0  0  0  0  0
   12.2973   70.6089   -0.7452 C   0  0  1  0  0  0  0  0  0  0  0  0
   11.8916   69.9409    0.5521 C   0  0  2  0  0  0  0  0  0  0  0  0
   13.4129   69.6958   -1.2378 C   0  0  1  0  0  0  0  0  0  0  0  0
   12.0237   68.4683    0.2029 C   0  0  2  0  0  0  0  0  0  0  0  0
   10.5051   71.1225   -1.3962 H   0  0  0  0  0  0  0  0  0  0  0  0
   10.5481   71.2367    1.1585 H   0  0  0  0  0  0  0  0  0  0  0  0
   11.6624   65.6707    0.3472 O   0  0  0  0  0  0  0  0  0  0  0  0
   13.3704   65.4865    4.6239 O   0  0  0  0  0  0  0  0  0  0  0  0
   12.3657   67.6639    1.3419 N   0  0  0  0  0  0  0  0  0  0  0  0
   12.5133   65.5812    2.4764 N   0  0  0  0  0  0  0  0  0  0  0  0
   12.1431   66.2674    1.3128 C   0  0  0  0  0  0  0  0  0  0  0  0
   12.9155   68.2602    2.4715 C   0  0  0  0  0  0  0  0  0  0  0  0
   13.2619   67.5919    3.5736 C   0  0  0  0  0  0  0  0  0  0  0  0
   13.0621   66.1292    3.6250 C   0  0  0  0  0  0  0  0  0  0  0  0
   12.3670   64.6074    2.4792 H   0  0  0  0  0  0  0  0  0  0  0  0
   17.4906   70.7662   -1.7721 O   0  0  0  0  0  0  0  0  0  0  0  0
   18.7654   71.5672   -2.3605 P   0  0  2  0  0  0  0  0  0  0  0  0
   19.9802   70.5136   -2.1821 O   0  0  0  0  0  0  0  0  0  0  0  0
   19.0040   72.9023   -1.7167 O   0  0  0  0  0  0  0  0  0  0  0  0
   18.5097   71.6287   -3.9529 O   0  0  0  0  0  0  0  0  0  0  0  0
   18.2619   70.0169   -5.6726 O   0  0  0  0  0  0  0  0  0  0  0  0
   20.7953   72.6498   -7.5963 O   0  0  0  0  0  0  0  0  0  0  0  0
   18.0391   72.4987   -8.3891 O   0  0  0  0  0  0  0  0  0  0  0  0
   21.1502   72.1047   -4.7756 O   0  0  0  0  0  0  0  0  0  0  0  0
   19.7334   72.2710   -6.7163 C   0  0  1  0  0  0  0  0  0  0  0  0
   18.6664   71.5442   -7.5373 C   0  0  1  0  0  0  0  0  0  0  0  0
   20.2900   71.3557   -5.6274 C   0  0  2  0  0  0  0  0  0  0  0  0
   17.6272   70.8757   -6.6272 C   0  0  1  0  0  0  0  0  0  0  0  0
   19.1721   70.7039   -4.8115 C   0  0  1  0  0  0  0  0  0  0  0  0
   20.4486   73.2315   -8.2898 H   0  0  0  0  0  0  0  0  0  0  0  0
   18.7062   72.9138   -8.9581 H   0  0  0  0  0  0  0  0  0  0  0  0
   21.8536   72.5120   -5.3039 H   0  0  0  0  0  0  0  0  0  0  0  0
   16.0052   70.8316   -8.3811 O   0  0  0  0  0  0  0  0  0  0  0  0
   16.6444   70.0146   -7.4176 C   0  0  0  0  0  0  0  0  0  0  0  0
   15.3769   70.2969   -8.8919 H   0  0  0  0  0  0  0  0  0  0  0  0
 25 28  1  0
 25 24  1  0
 25 26  1  6
 25 27  2  0
  1  4  1  0
  1 24  1  0
  1  2  1  6
  1  3  2  0
  6 11  1  0
  6 12  1  0
 29 36  1  0
 29 37  1  0
  9  7  1  6
  7 13  1  0
 10  8  1  6
  8 14  1  0
 37 28  1  6
  4  5  1  0
 33 30  1  6
 30 38  1  0
 34 31  1  6
 31 39  1  0
 35 32  1  1
 32 40  1  0
 41 42  1  0
 41 43  1  0
 15 19  2  0
 16 22  2  0
 12 17  1  1
 17 19  1  0
 17 20  1  0
 18 19  1  0
 18 22  1  0
 18 23  1  0
  9 10  1  0
  9 11  1  0
 10 12  1  0
 11  5  1  1
 33 34  1  0
 33 35  1  0
 34 36  1  0
 35 37  1  0
 36 42  1  6
 20 21  2  0
 21 22  1  0
M  CHG  2   2  -1  26  -1
M  END
>  <COMPND>  (80) 
    8629 

>  <AUTHOR>  (80) 
    GENERATED BY OPEN BABEL 3.1.1

>  <MASTER>  (80) 
        0    0    0    0    0    0    0    0   58    0   58    0

>  <minimizedAffinity>  (80) 
-6.52929

>  <CNNscore>  (80) 
0.5286611319

>  <CNNaffinity>  (80) 
4.1490187645

>  <CNN_VS>  (80) 
2.1934249401

>  <CNNaffinity_variance>  (80) 
0.1569326669

$$$$
81
     RDKit          3D

 43 45  0  0  0  0  0  0  0  0999 V2000
   20.5785   71.2614   -0.9930 P   0  0  2  0  0  0  0  0  0  0  0  0
   20.7856   70.5151    0.4274 O   0  0  0  0  0  0  0  0  0  0  0  0
   20.1981   72.7098   -0.8984 O   0  0  0  0  0  0  0  0  0  0  0  0
   19.5342   70.3108   -1.7827 O   0  0  0  0  0  0  0  0  0  0  0  0
   19.2250   70.6195   -3.1306 C   0  0  0  0  0  0  0  0  0  0  0  0
   17.4834   71.5463   -4.5024 O   0  0  0  0  0  0  0  0  0  0  0  0
   15.5816   69.8898   -2.8807 O   0  0  0  0  0  0  0  0  0  0  0  0
   15.8511   68.4219   -5.1631 O   0  0  0  0  0  0  0  0  0  0  0  0
   16.9082   69.5829   -3.3067 C   0  0  1  0  0  0  0  0  0  0  0  0
   16.9240   69.2610   -4.7865 C   0  0  2  0  0  0  0  0  0  0  0  0
   17.7274   70.8663   -3.2516 C   0  0  1  0  0  0  0  0  0  0  0  0
   16.8322   70.6431   -5.4106 C   0  0  2  0  0  0  0  0  0  0  0  0
   15.0395   69.0852   -2.9071 H   0  0  0  0  0  0  0  0  0  0  0  0
   15.9548   67.5550   -4.7408 H   0  0  0  0  0  0  0  0  0  0  0  0
   15.5888   70.0495   -7.8763 O   0  0  0  0  0  0  0  0  0  0  0  0
   19.4416   70.9417  -10.2429 O   0  0  0  0  0  0  0  0  0  0  0  0
   17.4868   70.7124   -6.6866 N   0  0  0  0  0  0  0  0  0  0  0  0
   17.5081   70.4944   -9.0527 N   0  0  0  0  0  0  0  0  0  0  0  0
   16.7727   70.3929   -7.8649 C   0  0  0  0  0  0  0  0  0  0  0  0
   18.8220   71.0940   -6.7607 C   0  0  0  0  0  0  0  0  0  0  0  0
   19.5093   71.1847   -7.9011 C   0  0  0  0  0  0  0  0  0  0  0  0
   18.8369   70.8680   -9.1777 C   0  0  0  0  0  0  0  0  0  0  0  0
   17.0314   70.2762   -9.8863 H   0  0  0  0  0  0  0  0  0  0  0  0
   21.9748   70.9812   -1.7578 O   0  0  0  0  0  0  0  0  0  0  0  0
   23.1888   71.9743   -2.1489 P   0  0  2  0  0  0  0  0  0  0  0  0
   24.2048   71.0150   -2.9644 O   0  0  0  0  0  0  0  0  0  0  0  0
   23.8087   72.6795   -0.9775 O   0  0  0  0  0  0  0  0  0  0  0  0
   22.5682   72.9567   -3.2690 O   0  0  0  0  0  0  0  0  0  0  0  0
   23.5050   73.1413   -5.4381 O   0  0  0  0  0  0  0  0  0  0  0  0
   21.6382   76.8175   -5.2105 O   0  0  0  0  0  0  0  0  0  0  0  0
   20.5475   74.7762   -6.9110 O   0  0  0  0  0  0  0  0  0  0  0  0
   22.9367   75.7102   -2.8723 O   0  0  0  0  0  0  0  0  0  0  0  0
   21.7896   75.4159   -4.9696 C   0  0  1  0  0  0  0  0  0  0  0  0
   21.8421   74.7000   -6.3207 C   0  0  1  0  0  0  0  0  0  0  0  0
   23.0795   75.1806   -4.1859 C   0  0  2  0  0  0  0  0  0  0  0  0
   22.2686   73.2351   -6.1553 C   0  0  1  0  0  0  0  0  0  0  0  0
   23.4387   73.6950   -4.1225 C   0  0  1  0  0  0  0  0  0  0  0  0
   20.8208   76.9738   -5.7074 H   0  0  0  0  0  0  0  0  0  0  0  0
   20.2900   75.7064   -7.0095 H   0  0  0  0  0  0  0  0  0  0  0  0
   22.7097   76.6512   -2.9261 H   0  0  0  0  0  0  0  0  0  0  0  0
   23.1754   73.4338   -8.3569 O   0  0  0  0  0  0  0  0  0  0  0  0
   22.4802   72.5455   -7.5013 C   0  0  0  0  0  0  0  0  0  0  0  0
   23.3174   73.0082   -9.2174 H   0  0  0  0  0  0  0  0  0  0  0  0
 25 28  1  0
 25 24  1  0
 25 26  1  6
 25 27  2  0
  1  4  1  0
  1 24  1  0
  1  2  1  1
  1  3  2  0
  6 11  1  0
  6 12  1  0
 29 36  1  0
 29 37  1  0
  9  7  1  6
  7 13  1  0
 10  8  1  1
  8 14  1  0
 37 28  1  1
  4  5  1  0
 33 30  1  6
 30 38  1  0
 34 31  1  1
 31 39  1  0
 35 32  1  1
 32 40  1  0
 41 42  1  0
 41 43  1  0
 15 19  2  0
 16 22  2  0
 12 17  1  6
 17 19  1  0
 17 20  1  0
 18 19  1  0
 18 22  1  0
 18 23  1  0
  9 10  1  0
  9 11  1  0
 10 12  1  0
 11  5  1  6
 33 34  1  0
 33 35  1  0
 34 36  1  0
 35 37  1  0
 36 42  1  6
 20 21  2  0
 21 22  1  0
M  CHG  2   2  -1  26  -1
M  END
>  <COMPND>  (81) 
    8629 

>  <AUTHOR>  (81) 
    GENERATED BY OPEN BABEL 3.1.1

>  <MASTER>  (81) 
        0    0    0    0    0    0    0    0   58    0   58    0

>  <minimizedAffinity>  (81) 
-7.96493

>  <CNNscore>  (81) 
0.9193937182

>  <CNNaffinity>  (81) 
4.6686720848

>  <CNN_VS>  (81) 
4.2923479080

>  <CNNaffinity_variance>  (81) 
0.5244509578

$$$$
82
     RDKit          3D

 43 45  0  0  0  0  0  0  0  0999 V2000
   22.7348   71.5754   -2.6316 P   0  0  2  0  0  0  0  0  0  0  0  0
   24.1644   70.9632   -3.0775 O   0  0  0  0  0  0  0  0  0  0  0  0
   22.2517   71.1377   -1.2802 O   0  0  0  0  0  0  0  0  0  0  0  0
   21.7584   71.2265   -3.8737 O   0  0  0  0  0  0  0  0  0  0  0  0
   20.8127   70.1828   -3.7179 C   0  0  0  0  0  0  0  0  0  0  0  0
   19.0375   71.5070   -4.6501 O   0  0  0  0  0  0  0  0  0  0  0  0
   17.3058   70.3752   -2.4796 O   0  0  0  0  0  0  0  0  0  0  0  0
   16.5957   68.8802   -4.6469 O   0  0  0  0  0  0  0  0  0  0  0  0
   18.3569   69.7494   -3.2137 C   0  0  1  0  0  0  0  0  0  0  0  0
   17.8973   69.4296   -4.6209 C   0  0  2  0  0  0  0  0  0  0  0  0
   19.4406   70.7911   -3.4621 C   0  0  1  0  0  0  0  0  0  0  0  0
   17.9713   70.7899   -5.2933 C   0  0  2  0  0  0  0  0  0  0  0  0
   16.6020   69.7292   -2.3087 H   0  0  0  0  0  0  0  0  0  0  0  0
   16.6007   68.0156   -4.2074 H   0  0  0  0  0  0  0  0  0  0  0  0
   16.0370   70.2487   -7.2792 O   0  0  0  0  0  0  0  0  0  0  0  0
   19.1767   70.4365  -10.6479 O   0  0  0  0  0  0  0  0  0  0  0  0
   18.2555   70.6922   -6.6973 N   0  0  0  0  0  0  0  0  0  0  0  0
   17.6018   70.3428   -8.9549 N   0  0  0  0  0  0  0  0  0  0  0  0
   17.2123   70.4157   -7.6114 C   0  0  0  0  0  0  0  0  0  0  0  0
   19.5566   70.8700   -7.1549 C   0  0  0  0  0  0  0  0  0  0  0  0
   19.9118   70.7961   -8.4393 C   0  0  0  0  0  0  0  0  0  0  0  0
   18.8818   70.5109   -9.4590 C   0  0  0  0  0  0  0  0  0  0  0  0
   16.8919   70.1508   -9.6099 H   0  0  0  0  0  0  0  0  0  0  0  0
   22.9589   73.1691   -2.7822 O   0  0  0  0  0  0  0  0  0  0  0  0
   21.9001   74.3788   -2.9509 P   0  0  2  0  0  0  0  0  0  0  0  0
   22.5288   75.5530   -2.0325 O   0  0  0  0  0  0  0  0  0  0  0  0
   20.4861   74.0117   -2.6046 O   0  0  0  0  0  0  0  0  0  0  0  0
   22.1054   74.8930   -4.4670 O   0  0  0  0  0  0  0  0  0  0  0  0
   20.4473   75.2688   -6.1180 O   0  0  0  0  0  0  0  0  0  0  0  0
   23.5348   74.0158   -8.5569 O   0  0  0  0  0  0  0  0  0  0  0  0
   22.7705   76.7841   -8.5461 O   0  0  0  0  0  0  0  0  0  0  0  0
   23.1320   72.7631   -5.9785 O   0  0  0  0  0  0  0  0  0  0  0  0
   22.9492   74.6756   -7.4312 C   0  0  1  0  0  0  0  0  0  0  0  0
   21.9919   75.7504   -7.9500 C   0  0  1  0  0  0  0  0  0  0  0  0
   22.1977   73.6487   -6.5861 C   0  0  2  0  0  0  0  0  0  0  0  0
   21.1291   76.3182   -6.8150 C   0  0  1  0  0  0  0  0  0  0  0  0
   21.3323   74.3205   -5.5185 C   0  0  1  0  0  0  0  0  0  0  0  0
   24.0139   74.6622   -9.0974 H   0  0  0  0  0  0  0  0  0  0  0  0
   23.3110   76.4123   -9.2608 H   0  0  0  0  0  0  0  0  0  0  0  0
   23.6735   72.3440   -6.6648 H   0  0  0  0  0  0  0  0  0  0  0  0
   18.9607   76.5152   -7.7990 O   0  0  0  0  0  0  0  0  0  0  0  0
   20.0598   77.2769   -7.3342 C   0  0  0  0  0  0  0  0  0  0  0  0
   18.2721   77.1122   -8.1322 H   0  0  0  0  0  0  0  0  0  0  0  0
 25 28  1  0
 25 24  1  0
 25 26  1  1
 25 27  2  0
  1  4  1  0
  1 24  1  0
  1  2  1  6
  1  3  2  0
  6 11  1  0
  6 12  1  0
 29 36  1  0
 29 37  1  0
  9  7  1  1
  7 13  1  0
 10  8  1  1
  8 14  1  0
 37 28  1  1
  4  5  1  0
 33 30  1  6
 30 38  1  0
 34 31  1  1
 31 39  1  0
 35 32  1  1
 32 40  1  0
 41 42  1  0
 41 43  1  0
 15 19  2  0
 16 22  2  0
 12 17  1  6
 17 19  1  0
 17 20  1  0
 18 19  1  0
 18 22  1  0
 18 23  1  0
  9 10  1  0
  9 11  1  0
 10 12  1  0
 11  5  1  6
 33 34  1  0
 33 35  1  0
 34 36  1  0
 35 37  1  0
 36 42  1  6
 20 21  2  0
 21 22  1  0
M  CHG  2   2  -1  26  -1
M  END
>  <COMPND>  (82) 
    8629 

>  <AUTHOR>  (82) 
    GENERATED BY OPEN BABEL 3.1.1

>  <MASTER>  (82) 
        0    0    0    0    0    0    0    0   58    0   58    0

>  <minimizedAffinity>  (82) 
-7.21419

>  <CNNscore>  (82) 
0.9063797593

>  <CNNaffinity>  (82) 
4.6458191872

>  <CNN_VS>  (82) 
4.2108764648

>  <CNNaffinity_variance>  (82) 
0.3549988866

$$$$
83
     RDKit          3D

 43 45  0  0  0  0  0  0  0  0999 V2000
   22.8683   71.7519   -2.3588 P   0  0  2  0  0  0  0  0  0  0  0  0
   24.1021   71.0122   -3.0992 O   0  0  0  0  0  0  0  0  0  0  0  0
   23.1678   72.2548   -0.9772 O   0  0  0  0  0  0  0  0  0  0  0  0
   21.6539   70.6887   -2.4717 O   0  0  0  0  0  0  0  0  0  0  0  0
   20.9220   70.6244   -3.6833 C   0  0  0  0  0  0  0  0  0  0  0  0
   18.9553   71.6558   -4.6009 O   0  0  0  0  0  0  0  0  0  0  0  0
   17.4439   70.3050   -2.3915 O   0  0  0  0  0  0  0  0  0  0  0  0
   16.9354   68.6930   -4.5315 O   0  0  0  0  0  0  0  0  0  0  0  0
   18.5664   69.8344   -3.1357 C   0  0  1  0  0  0  0  0  0  0  0  0
   18.1401   69.4315   -4.5319 C   0  0  2  0  0  0  0  0  0  0  0  0
   19.4780   71.0235   -3.4121 C   0  0  1  0  0  0  0  0  0  0  0  0
   17.9997   70.7789   -5.2196 C   0  0  2  0  0  0  0  0  0  0  0  0
   16.8473   69.5631   -2.2026 H   0  0  0  0  0  0  0  0  0  0  0  0
   17.0762   67.8446   -4.0831 H   0  0  0  0  0  0  0  0  0  0  0  0
   16.1290   69.9644   -7.1728 O   0  0  0  0  0  0  0  0  0  0  0  0
   19.1692   70.5403  -10.5885 O   0  0  0  0  0  0  0  0  0  0  0  0
   18.2755   70.7070   -6.6268 N   0  0  0  0  0  0  0  0  0  0  0  0
   17.6442   70.2520   -8.8719 N   0  0  0  0  0  0  0  0  0  0  0  0
   17.2666   70.2845   -7.5235 C   0  0  0  0  0  0  0  0  0  0  0  0
   19.5345   71.0537   -7.1048 C   0  0  0  0  0  0  0  0  0  0  0  0
   19.8791   71.0160   -8.3936 C   0  0  0  0  0  0  0  0  0  0  0  0
   18.8831   70.5855   -9.3960 C   0  0  0  0  0  0  0  0  0  0  0  0
   16.9577   69.9603   -9.5150 H   0  0  0  0  0  0  0  0  0  0  0  0
   22.4457   72.8997   -3.4156 O   0  0  0  0  0  0  0  0  0  0  0  0
   23.2593   73.5618   -4.6456 P   0  0  2  0  0  0  0  0  0  0  0  0
   23.2426   72.3989   -5.7703 O   0  0  0  0  0  0  0  0  0  0  0  0
   24.6309   74.0527   -4.2828 O   0  0  0  0  0  0  0  0  0  0  0  0
   22.2720   74.7009   -5.2223 O   0  0  0  0  0  0  0  0  0  0  0  0
   20.2590   74.5130   -6.4589 O   0  0  0  0  0  0  0  0  0  0  0  0
   21.8445   77.8606   -8.2840 O   0  0  0  0  0  0  0  0  0  0  0  0
   19.5964   78.1388   -6.5186 O   0  0  0  0  0  0  0  0  0  0  0  0
   23.5834   75.6829   -7.5007 O   0  0  0  0  0  0  0  0  0  0  0  0
   21.5747   76.9759   -7.1932 C   0  0  1  0  0  0  0  0  0  0  0  0
   20.0581   76.8849   -7.0134 C   0  0  1  0  0  0  0  0  0  0  0  0
   22.1622   75.6015   -7.5081 C   0  0  2  0  0  0  0  0  0  0  0  0
   19.6819   75.7565   -6.0437 C   0  0  1  0  0  0  0  0  0  0  0  0
   21.6867   74.5423   -6.5121 C   0  0  1  0  0  0  0  0  0  0  0  0
   21.4745   78.7352   -8.0902 H   0  0  0  0  0  0  0  0  0  0  0  0
   19.8408   78.8427   -7.1398 H   0  0  0  0  0  0  0  0  0  0  0  0
   23.8719   76.3566   -8.1354 H   0  0  0  0  0  0  0  0  0  0  0  0
   17.9234   74.2434   -5.4717 O   0  0  0  0  0  0  0  0  0  0  0  0
   18.1712   75.5449   -5.9709 C   0  0  0  0  0  0  0  0  0  0  0  0
   16.9658   74.0947   -5.4196 H   0  0  0  0  0  0  0  0  0  0  0  0
 25 28  1  0
 25 24  1  0
 25 26  1  6
 25 27  2  0
  1  4  1  0
  1 24  1  0
  1  2  1  6
  1  3  2  0
  6 11  1  0
  6 12  1  0
 29 36  1  0
 29 37  1  0
  9  7  1  1
  7 13  1  0
 10  8  1  1
  8 14  1  0
 37 28  1  1
  4  5  1  0
 33 30  1  6
 30 38  1  0
 34 31  1  1
 31 39  1  0
 35 32  1  1
 32 40  1  0
 41 42  1  0
 41 43  1  0
 15 19  2  0
 16 22  2  0
 12 17  1  6
 17 19  1  0
 17 20  1  0
 18 19  1  0
 18 22  1  0
 18 23  1  0
  9 10  1  0
  9 11  1  0
 10 12  1  0
 11  5  1  6
 33 34  1  0
 33 35  1  0
 34 36  1  0
 35 37  1  0
 36 42  1  6
 20 21  2  0
 21 22  1  0
M  CHG  2   2  -1  26  -1
M  END
>  <COMPND>  (83) 
    8629 

>  <AUTHOR>  (83) 
    GENERATED BY OPEN BABEL 3.1.1

>  <MASTER>  (83) 
        0    0    0    0    0    0    0    0   58    0   58    0

>  <minimizedAffinity>  (83) 
-6.75117

>  <CNNscore>  (83) 
0.8965256810

>  <CNNaffinity>  (83) 
4.5275774002

>  <CNN_VS>  (83) 
4.0590891838

>  <CNNaffinity_variance>  (83) 
0.3057754636

$$$$
84
     RDKit          3D

 43 45  0  0  0  0  0  0  0  0999 V2000
   22.9724   71.4950   -2.1417 P   0  0  2  0  0  0  0  0  0  0  0  0
   22.7029   73.0867   -2.2485 O   0  0  0  0  0  0  0  0  0  0  0  0
   24.0413   70.9706   -3.0548 O   0  0  0  0  0  0  0  0  0  0  0  0
   21.5051   70.8393   -2.3282 O   0  0  0  0  0  0  0  0  0  0  0  0
   20.8552   70.9810   -3.5794 C   0  0  0  0  0  0  0  0  0  0  0  0
   18.8369   71.8345   -4.5650 O   0  0  0  0  0  0  0  0  0  0  0  0
   17.3896   70.4969   -2.3051 O   0  0  0  0  0  0  0  0  0  0  0  0
   17.0140   68.7522   -4.3670 O   0  0  0  0  0  0  0  0  0  0  0  0
   18.5496   70.0654   -3.0147 C   0  0  1  0  0  0  0  0  0  0  0  0
   18.1679   69.5675   -4.3931 C   0  0  2  0  0  0  0  0  0  0  0  0
   19.3850   71.2970   -3.3415 C   0  0  1  0  0  0  0  0  0  0  0  0
   17.9482   70.8674   -5.1480 C   0  0  2  0  0  0  0  0  0  0  0  0
   16.8405   69.7275   -2.0851 H   0  0  0  0  0  0  0  0  0  0  0  0
   17.2044   67.9378   -3.8757 H   0  0  0  0  0  0  0  0  0  0  0  0
   16.1122   69.9678   -7.0967 O   0  0  0  0  0  0  0  0  0  0  0  0
   19.1994   70.4369  -10.4864 O   0  0  0  0  0  0  0  0  0  0  0  0
   18.2455   70.7450   -6.5473 N   0  0  0  0  0  0  0  0  0  0  0  0
   17.6508   70.2023   -8.7830 N   0  0  0  0  0  0  0  0  0  0  0  0
   17.2529   70.2824   -7.4424 C   0  0  0  0  0  0  0  0  0  0  0  0
   19.5094   71.0823   -7.0194 C   0  0  0  0  0  0  0  0  0  0  0  0
   19.8734   70.9990   -8.3007 C   0  0  0  0  0  0  0  0  0  0  0  0
   18.8953   70.5246   -9.3008 C   0  0  0  0  0  0  0  0  0  0  0  0
   16.9759   69.8821   -9.4247 H   0  0  0  0  0  0  0  0  0  0  0  0
   23.2683   71.2814   -0.5670 O   0  0  0  0  0  0  0  0  0  0  0  0
   22.2832   71.3257    0.7139 P   0  0  2  0  0  0  0  0  0  0  0  0
   23.2693   71.7450    1.9260 O   0  0  0  0  0  0  0  0  0  0  0  0
   21.5204   70.0540    0.9478 O   0  0  0  0  0  0  0  0  0  0  0  0
   21.3580   72.6260    0.4727 O   0  0  0  0  0  0  0  0  0  0  0  0
   21.2127   74.9661    0.8184 O   0  0  0  0  0  0  0  0  0  0  0  0
   17.9846   73.7614    3.0941 O   0  0  0  0  0  0  0  0  0  0  0  0
   17.5357   75.0828    0.5840 O   0  0  0  0  0  0  0  0  0  0  0  0
   20.4089   72.1797    3.0757 O   0  0  0  0  0  0  0  0  0  0  0  0
   18.8946   73.7074    1.9920 C   0  0  1  0  0  0  0  0  0  0  0  0
   18.8045   75.0312    1.2304 C   0  0  1  0  0  0  0  0  0  0  0  0
   20.3098   73.4881    2.5236 C   0  0  2  0  0  0  0  0  0  0  0  0
   19.9348   75.1553    0.1997 C   0  0  1  0  0  0  0  0  0  0  0  0
   21.3606   73.6827    1.4291 C   0  0  1  0  0  0  0  0  0  0  0  0
   17.0841   73.9000    2.7634 H   0  0  0  0  0  0  0  0  0  0  0  0
   16.8309   75.0029    1.2458 H   0  0  0  0  0  0  0  0  0  0  0  0
   19.7388   72.0691    3.7674 H   0  0  0  0  0  0  0  0  0  0  0  0
   21.1511   77.1928   -0.0797 O   0  0  0  0  0  0  0  0  0  0  0  0
   19.9582   76.5323   -0.4603 C   0  0  0  0  0  0  0  0  0  0  0  0
   21.1799   78.0705   -0.4927 H   0  0  0  0  0  0  0  0  0  0  0  0
 25 28  1  0
 25 24  1  0
 25 26  1  1
 25 27  2  0
  1  4  1  0
  1 24  1  0
  1  2  1  1
  1  3  2  0
  6 11  1  0
  6 12  1  0
 29 36  1  0
 29 37  1  0
  9  7  1  1
  7 13  1  0
 10  8  1  1
  8 14  1  0
 37 28  1  6
  4  5  1  0
 33 30  1  1
 30 38  1  0
 34 31  1  6
 31 39  1  0
 35 32  1  6
 32 40  1  0
 41 42  1  0
 41 43  1  0
 15 19  2  0
 16 22  2  0
 12 17  1  6
 17 19  1  0
 17 20  1  0
 18 19  1  0
 18 22  1  0
 18 23  1  0
  9 10  1  0
  9 11  1  0
 10 12  1  0
 11  5  1  6
 33 34  1  0
 33 35  1  0
 34 36  1  0
 35 37  1  0
 36 42  1  1
 20 21  2  0
 21 22  1  0
M  CHG  2   2  -1  26  -1
M  END
>  <COMPND>  (84) 
    8629 

>  <AUTHOR>  (84) 
    GENERATED BY OPEN BABEL 3.1.1

>  <MASTER>  (84) 
        0    0    0    0    0    0    0    0   58    0   58    0

>  <minimizedAffinity>  (84) 
-7.01410

>  <CNNscore>  (84) 
0.8888581991

>  <CNNaffinity>  (84) 
4.7597594261

>  <CNN_VS>  (84) 
4.2307510376

>  <CNNaffinity_variance>  (84) 
0.1513326019

$$$$
85
     RDKit          3D

 43 45  0  0  0  0  0  0  0  0999 V2000
   22.6303   72.0863   -2.2240 P   0  0  2  0  0  0  0  0  0  0  0  0
   23.3449   73.4060   -2.8283 O   0  0  0  0  0  0  0  0  0  0  0  0
   23.2128   70.7827   -2.6853 O   0  0  0  0  0  0  0  0  0  0  0  0
   21.0615   72.3098   -2.5513 O   0  0  0  0  0  0  0  0  0  0  0  0
   20.4549   71.4974   -3.5411 C   0  0  0  0  0  0  0  0  0  0  0  0
   18.3718   71.9918   -4.6319 O   0  0  0  0  0  0  0  0  0  0  0  0
   17.0628   70.4417   -2.4241 O   0  0  0  0  0  0  0  0  0  0  0  0
   17.0872   68.6468   -4.4770 O   0  0  0  0  0  0  0  0  0  0  0  0
   18.3120   70.2084   -3.0725 C   0  0  1  0  0  0  0  0  0  0  0  0
   18.0870   69.6453   -4.4602 C   0  0  2  0  0  0  0  0  0  0  0  0
   18.9426   71.5616   -3.3768 C   0  0  1  0  0  0  0  0  0  0  0  0
   17.6883   70.8851   -5.2426 C   0  0  2  0  0  0  0  0  0  0  0  0
   16.6413   69.5917   -2.2194 H   0  0  0  0  0  0  0  0  0  0  0  0
   17.3881   67.8792   -3.9661 H   0  0  0  0  0  0  0  0  0  0  0  0
   15.9222   70.2423   -7.3511 O   0  0  0  0  0  0  0  0  0  0  0  0
   19.2619   70.6124  -10.5055 O   0  0  0  0  0  0  0  0  0  0  0  0
   18.0695   70.8067   -6.6246 N   0  0  0  0  0  0  0  0  0  0  0  0
   17.5865   70.4272   -8.9200 N   0  0  0  0  0  0  0  0  0  0  0  0
   17.1058   70.4750   -7.6053 C   0  0  0  0  0  0  0  0  0  0  0  0
   19.3860   71.0577   -6.9956 C   0  0  0  0  0  0  0  0  0  0  0  0
   19.8287   71.0068   -8.2536 C   0  0  0  0  0  0  0  0  0  0  0  0
   18.8857   70.6673   -9.3388 C   0  0  0  0  0  0  0  0  0  0  0  0
   16.9331   70.1978   -9.6202 H   0  0  0  0  0  0  0  0  0  0  0  0
   22.7068   72.3301   -0.6279 O   0  0  0  0  0  0  0  0  0  0  0  0
   22.1713   71.4378    0.6091 P   0  0  2  0  0  0  0  0  0  0  0  0
   23.4027   70.4293    0.8995 O   0  0  0  0  0  0  0  0  0  0  0  0
   20.8590   70.7551    0.3528 O   0  0  0  0  0  0  0  0  0  0  0  0
   22.1654   72.4472    1.8685 O   0  0  0  0  0  0  0  0  0  0  0  0
   24.1741   72.0187    3.0509 O   0  0  0  0  0  0  0  0  0  0  0  0
   22.5855   74.9483    5.4890 O   0  0  0  0  0  0  0  0  0  0  0  0
   24.8397   75.5622    3.8187 O   0  0  0  0  0  0  0  0  0  0  0  0
   20.8473   72.9679    4.2906 O   0  0  0  0  0  0  0  0  0  0  0  0
   22.8582   74.2930    4.2474 C   0  0  1  0  0  0  0  0  0  0  0  0
   24.3753   74.2365    4.0580 C   0  0  1  0  0  0  0  0  0  0  0  0
   22.2684   72.8844    4.2863 C   0  0  2  0  0  0  0  0  0  0  0  0
   24.7537   73.3184    2.8880 C   0  0  1  0  0  0  0  0  0  0  0  0
   22.7463   72.0391    3.1043 C   0  0  1  0  0  0  0  0  0  0  0  0
   22.9570   75.8434    5.4707 H   0  0  0  0  0  0  0  0  0  0  0  0
   24.5939   76.1317    4.5646 H   0  0  0  0  0  0  0  0  0  0  0  0
   20.5574   73.5052    5.0436 H   0  0  0  0  0  0  0  0  0  0  0  0
   26.8742   73.6916    3.9240 O   0  0  0  0  0  0  0  0  0  0  0  0
   26.2644   73.1228    2.7799 C   0  0  0  0  0  0  0  0  0  0  0  0
   27.8359   73.5742    3.8691 H   0  0  0  0  0  0  0  0  0  0  0  0
 25 28  1  0
 25 24  1  0
 25 26  1  1
 25 27  2  0
  1  4  1  0
  1 24  1  0
  1  2  1  6
  1  3  2  0
  6 11  1  0
  6 12  1  0
 29 36  1  0
 29 37  1  0
  9  7  1  6
  7 13  1  0
 10  8  1  1
  8 14  1  0
 37 28  1  6
  4  5  1  0
 33 30  1  1
 30 38  1  0
 34 31  1  6
 31 39  1  0
 35 32  1  6
 32 40  1  0
 41 42  1  0
 41 43  1  0
 15 19  2  0
 16 22  2  0
 12 17  1  6
 17 19  1  0
 17 20  1  0
 18 19  1  0
 18 22  1  0
 18 23  1  0
  9 10  1  0
  9 11  1  0
 10 12  1  0
 11  5  1  6
 33 34  1  0
 33 35  1  0
 34 36  1  0
 35 37  1  0
 36 42  1  1
 20 21  2  0
 21 22  1  0
M  CHG  2   2  -1  26  -1
M  END
>  <COMPND>  (85) 
    8629 

>  <AUTHOR>  (85) 
    GENERATED BY OPEN BABEL 3.1.1

>  <MASTER>  (85) 
        0    0    0    0    0    0    0    0   58    0   58    0

>  <minimizedAffinity>  (85) 
-6.88806

>  <CNNscore>  (85) 
0.8849644065

>  <CNNaffinity>  (85) 
4.6447854042

>  <CNN_VS>  (85) 
4.1104698181

>  <CNNaffinity_variance>  (85) 
0.1156818271

$$$$
86
     RDKit          3D

 43 45  0  0  0  0  0  0  0  0999 V2000
   22.8910   72.2368   -3.8541 P   0  0  2  0  0  0  0  0  0  0  0  0
   23.4505   73.1558   -5.0623 O   0  0  0  0  0  0  0  0  0  0  0  0
   23.9068   71.3283   -3.2260 O   0  0  0  0  0  0  0  0  0  0  0  0
   21.5938   71.5076   -4.4893 O   0  0  0  0  0  0  0  0  0  0  0  0
   20.9213   70.5295   -3.7154 C   0  0  0  0  0  0  0  0  0  0  0  0
   19.0076   71.6460   -4.6455 O   0  0  0  0  0  0  0  0  0  0  0  0
   17.4301   70.3890   -2.4269 O   0  0  0  0  0  0  0  0  0  0  0  0
   16.8476   68.7844   -4.5535 O   0  0  0  0  0  0  0  0  0  0  0  0
   18.5297   69.8585   -3.1649 C   0  0  1  0  0  0  0  0  0  0  0  0
   18.0864   69.4641   -4.5583 C   0  0  2  0  0  0  0  0  0  0  0  0
   19.4977   70.9999   -3.4502 C   0  0  1  0  0  0  0  0  0  0  0  0
   18.0117   70.8105   -5.2581 C   0  0  2  0  0  0  0  0  0  0  0  0
   16.7983   69.6783   -2.2325 H   0  0  0  0  0  0  0  0  0  0  0  0
   16.9469   67.9342   -4.0973 H   0  0  0  0  0  0  0  0  0  0  0  0
   16.1065   70.0699   -7.2073 O   0  0  0  0  0  0  0  0  0  0  0  0
   19.1755   70.4681  -10.6226 O   0  0  0  0  0  0  0  0  0  0  0  0
   18.2856   70.7130   -6.6641 N   0  0  0  0  0  0  0  0  0  0  0  0
   17.6361   70.2690   -8.9063 N   0  0  0  0  0  0  0  0  0  0  0  0
   17.2587   70.3316   -7.5588 C   0  0  0  0  0  0  0  0  0  0  0  0
   19.5606   70.9942   -7.1429 C   0  0  0  0  0  0  0  0  0  0  0  0
   19.9046   70.9286   -8.4308 C   0  0  0  0  0  0  0  0  0  0  0  0
   18.8903   70.5378   -9.4311 C   0  0  0  0  0  0  0  0  0  0  0  0
   16.9372   70.0050   -9.5479 H   0  0  0  0  0  0  0  0  0  0  0  0
   22.2414   73.3194   -2.8447 O   0  0  0  0  0  0  0  0  0  0  0  0
   22.9310   74.3918   -1.8510 P   0  0  2  0  0  0  0  0  0  0  0  0
   21.9347   75.6641   -1.9290 O   0  0  0  0  0  0  0  0  0  0  0  0
   24.3619   74.7046   -2.1807 O   0  0  0  0  0  0  0  0  0  0  0  0
   22.7025   73.7850   -0.3730 O   0  0  0  0  0  0  0  0  0  0  0  0
   23.5499   71.6649    0.2623 O   0  0  0  0  0  0  0  0  0  0  0  0
   20.4334   71.9636    2.9548 O   0  0  0  0  0  0  0  0  0  0  0  0
   23.1381   72.2417    3.8798 O   0  0  0  0  0  0  0  0  0  0  0  0
   20.1013   72.9347    0.2481 O   0  0  0  0  0  0  0  0  0  0  0  0
   21.5060   72.4510    2.1439 C   0  0  1  0  0  0  0  0  0  0  0  0
   22.7952   71.7553    2.5852 C   0  0  1  0  0  0  0  0  0  0  0  0
   21.2035   72.1434    0.6785 C   0  0  2  0  0  0  0  0  0  0  0  0
   23.9361   72.0228    1.5943 C   0  0  1  0  0  0  0  0  0  0  0  0
   22.4193   72.3972   -0.2145 C   0  0  1  0  0  0  0  0  0  0  0  0
   20.6191   72.1562    3.8864 H   0  0  0  0  0  0  0  0  0  0  0  0
   22.4091   72.0670    4.4957 H   0  0  0  0  0  0  0  0  0  0  0  0
   19.3380   72.7647    0.8211 H   0  0  0  0  0  0  0  0  0  0  0  0
   24.7953   70.0642    2.6594 O   0  0  0  0  0  0  0  0  0  0  0  0
   25.1863   71.2123    1.9293 C   0  0  0  0  0  0  0  0  0  0  0  0
   25.5808   69.5385    2.8792 H   0  0  0  0  0  0  0  0  0  0  0  0
 25 28  1  0
 25 24  1  0
 25 26  1  1
 25 27  2  0
  1  4  1  0
  1 24  1  0
  1  2  1  6
  1  3  2  0
  6 11  1  0
  6 12  1  0
 29 36  1  0
 29 37  1  0
  9  7  1  1
  7 13  1  0
 10  8  1  1
  8 14  1  0
 37 28  1  1
  4  5  1  0
 33 30  1  1
 30 38  1  0
 34 31  1  1
 31 39  1  0
 35 32  1  6
 32 40  1  0
 41 42  1  0
 41 43  1  0
 15 19  2  0
 16 22  2  0
 12 17  1  6
 17 19  1  0
 17 20  1  0
 18 19  1  0
 18 22  1  0
 18 23  1  0
  9 10  1  0
  9 11  1  0
 10 12  1  0
 11  5  1  6
 33 34  1  0
 33 35  1  0
 34 36  1  0
 35 37  1  0
 36 42  1  1
 20 21  2  0
 21 22  1  0
M  CHG  2   2  -1  26  -1
M  END
>  <COMPND>  (86) 
    8629 

>  <AUTHOR>  (86) 
    GENERATED BY OPEN BABEL 3.1.1

>  <MASTER>  (86) 
        0    0    0    0    0    0    0    0   58    0   58    0

>  <minimizedAffinity>  (86) 
-7.78791

>  <CNNscore>  (86) 
0.8839784861

>  <CNNaffinity>  (86) 
4.7524080276

>  <CNN_VS>  (86) 
4.2010264397

>  <CNNaffinity_variance>  (86) 
0.0607966594

$$$$
87
     RDKit          3D

 43 45  0  0  0  0  0  0  0  0999 V2000
   22.7736   72.7388   -4.3266 P   0  0  2  0  0  0  0  0  0  0  0  0
   23.1699   73.6303   -5.6172 O   0  0  0  0  0  0  0  0  0  0  0  0
   23.8898   71.9102   -3.7618 O   0  0  0  0  0  0  0  0  0  0  0  0
   21.4642   71.9193   -4.8079 O   0  0  0  0  0  0  0  0  0  0  0  0
   20.8752   70.9970   -3.9078 C   0  0  0  0  0  0  0  0  0  0  0  0
   18.8971   71.9229   -4.9096 O   0  0  0  0  0  0  0  0  0  0  0  0
   17.3951   70.7164   -2.6119 O   0  0  0  0  0  0  0  0  0  0  0  0
   16.9262   68.9398   -4.6269 O   0  0  0  0  0  0  0  0  0  0  0  0
   18.5297   70.2104   -3.3133 C   0  0  1  0  0  0  0  0  0  0  0  0
   18.1185   69.6965   -4.6773 C   0  0  2  0  0  0  0  0  0  0  0  0
   19.4231   71.3907   -3.6742 C   0  0  1  0  0  0  0  0  0  0  0  0
   17.9598   70.9859   -5.4650 C   0  0  2  0  0  0  0  0  0  0  0  0
   16.8099   69.9808   -2.3706 H   0  0  0  0  0  0  0  0  0  0  0  0
   17.0785   68.1300   -4.1153 H   0  0  0  0  0  0  0  0  0  0  0  0
   16.0858   70.0862   -7.3773 O   0  0  0  0  0  0  0  0  0  0  0  0
   19.1664   70.3595  -10.7943 O   0  0  0  0  0  0  0  0  0  0  0  0
   18.2451   70.8131   -6.8615 N   0  0  0  0  0  0  0  0  0  0  0  0
   17.6212   70.2232   -9.0772 N   0  0  0  0  0  0  0  0  0  0  0  0
   17.2336   70.3551   -7.7376 C   0  0  0  0  0  0  0  0  0  0  0  0
   19.5160   71.0971   -7.3495 C   0  0  0  0  0  0  0  0  0  0  0  0
   19.8699   70.9649   -8.6295 C   0  0  0  0  0  0  0  0  0  0  0  0
   18.8719   70.4916   -9.6104 C   0  0  0  0  0  0  0  0  0  0  0  0
   16.9331   69.9052   -9.7058 H   0  0  0  0  0  0  0  0  0  0  0  0
   22.1628   73.8314   -3.3038 O   0  0  0  0  0  0  0  0  0  0  0  0
   22.8464   74.6419   -2.0837 P   0  0  2  0  0  0  0  0  0  0  0  0
   22.0754   76.0641   -2.1049 O   0  0  0  0  0  0  0  0  0  0  0  0
   24.3413   74.7465   -2.1754 O   0  0  0  0  0  0  0  0  0  0  0  0
   22.3078   73.9061   -0.7519 O   0  0  0  0  0  0  0  0  0  0  0  0
   23.2687   73.8498    1.4138 O   0  0  0  0  0  0  0  0  0  0  0  0
   21.6412   70.0561    1.3151 O   0  0  0  0  0  0  0  0  0  0  0  0
   20.4323   72.0752    2.9613 O   0  0  0  0  0  0  0  0  0  0  0  0
   22.8504   71.1709   -1.0670 O   0  0  0  0  0  0  0  0  0  0  0  0
   21.7003   71.4563    1.0300 C   0  0  1  0  0  0  0  0  0  0  0  0
   21.7155   72.2159    2.3580 C   0  0  1  0  0  0  0  0  0  0  0  0
   22.9673   71.7494    0.2285 C   0  0  2  0  0  0  0  0  0  0  0  0
   22.0456   73.6993    2.1439 C   0  0  1  0  0  0  0  0  0  0  0  0
   23.2297   73.2523    0.1164 C   0  0  1  0  0  0  0  0  0  0  0  0
   20.8387   69.8632    1.8235 H   0  0  0  0  0  0  0  0  0  0  0  0
   20.2358   71.1340    3.0905 H   0  0  0  0  0  0  0  0  0  0  0  0
   22.6848   70.2195   -0.9824 H   0  0  0  0  0  0  0  0  0  0  0  0
   22.4948   73.4949    4.4817 O   0  0  0  0  0  0  0  0  0  0  0  0
   22.2211   74.4427    3.4663 C   0  0  0  0  0  0  0  0  0  0  0  0
   22.6092   73.9538    5.3291 H   0  0  0  0  0  0  0  0  0  0  0  0
 25 28  1  0
 25 24  1  0
 25 26  1  1
 25 27  2  0
  1  4  1  0
  1 24  1  0
  1  2  1  6
  1  3  2  0
  6 11  1  0
  6 12  1  0
 29 36  1  0
 29 37  1  0
  9  7  1  1
  7 13  1  0
 10  8  1  1
  8 14  1  0
 37 28  1  6
  4  5  1  0
 33 30  1  1
 30 38  1  0
 34 31  1  6
 31 39  1  0
 35 32  1  6
 32 40  1  0
 41 42  1  0
 41 43  1  0
 15 19  2  0
 16 22  2  0
 12 17  1  6
 17 19  1  0
 17 20  1  0
 18 19  1  0
 18 22  1  0
 18 23  1  0
  9 10  1  0
  9 11  1  0
 10 12  1  0
 11  5  1  6
 33 34  1  0
 33 35  1  0
 34 36  1  0
 35 37  1  0
 36 42  1  1
 20 21  2  0
 21 22  1  0
M  CHG  2   2  -1  26  -1
M  END
>  <COMPND>  (87) 
    8629 

>  <AUTHOR>  (87) 
    GENERATED BY OPEN BABEL 3.1.1

>  <MASTER>  (87) 
        0    0    0    0    0    0    0    0   58    0   58    0

>  <minimizedAffinity>  (87) 
-7.57281

>  <CNNscore>  (87) 
0.8465101719

>  <CNNaffinity>  (87) 
4.6541938782

>  <CNN_VS>  (87) 
3.9398224354

>  <CNNaffinity_variance>  (87) 
0.0283907838

$$$$
88
     RDKit          3D

 43 45  0  0  0  0  0  0  0  0999 V2000
   22.2875   72.4370   -2.0554 P   0  0  2  0  0  0  0  0  0  0  0  0
   22.9643   73.8620   -2.4142 O   0  0  0  0  0  0  0  0  0  0  0  0
   23.0152   71.2378   -2.5881 O   0  0  0  0  0  0  0  0  0  0  0  0
   20.7535   72.6019   -2.5428 O   0  0  0  0  0  0  0  0  0  0  0  0
   20.2294   71.6555   -3.4579 C   0  0  0  0  0  0  0  0  0  0  0  0
   18.1723   72.0572   -4.6329 O   0  0  0  0  0  0  0  0  0  0  0  0
   16.8441   70.4556   -2.4739 O   0  0  0  0  0  0  0  0  0  0  0  0
   17.0285   68.6599   -4.5180 O   0  0  0  0  0  0  0  0  0  0  0  0
   18.1272   70.2756   -3.0710 C   0  0  1  0  0  0  0  0  0  0  0  0
   17.9827   69.7008   -4.4646 C   0  0  2  0  0  0  0  0  0  0  0  0
   18.7104   71.6543   -3.3544 C   0  0  1  0  0  0  0  0  0  0  0  0
   17.5624   70.9208   -5.2666 C   0  0  2  0  0  0  0  0  0  0  0  0
   16.4518   69.5886   -2.2834 H   0  0  0  0  0  0  0  0  0  0  0  0
   17.3415   67.9070   -3.9928 H   0  0  0  0  0  0  0  0  0  0  0  0
   16.0196   69.8824   -7.3925 O   0  0  0  0  0  0  0  0  0  0  0  0
   19.3512   70.7239  -10.4638 O   0  0  0  0  0  0  0  0  0  0  0  0
   18.0019   70.8567   -6.6320 N   0  0  0  0  0  0  0  0  0  0  0  0
   17.6796   70.3024   -8.9201 N   0  0  0  0  0  0  0  0  0  0  0  0
   17.1503   70.3157   -7.6233 C   0  0  0  0  0  0  0  0  0  0  0  0
   19.2643   71.3273   -6.9765 C   0  0  0  0  0  0  0  0  0  0  0  0
   19.7547   71.3063   -8.2176 C   0  0  0  0  0  0  0  0  0  0  0  0
   18.9287   70.7572   -9.3122 C   0  0  0  0  0  0  0  0  0  0  0  0
   17.1044   69.9297   -9.6271 H   0  0  0  0  0  0  0  0  0  0  0  0
   22.1645   72.4885   -0.4444 O   0  0  0  0  0  0  0  0  0  0  0  0
   21.8662   71.3230    0.6352 P   0  0  2  0  0  0  0  0  0  0  0  0
   23.2852   70.5550    0.7536 O   0  0  0  0  0  0  0  0  0  0  0  0
   20.7093   70.4351    0.2784 O   0  0  0  0  0  0  0  0  0  0  0  0
   21.7045   72.0998    2.0407 O   0  0  0  0  0  0  0  0  0  0  0  0
   20.8994   74.1725    2.8606 O   0  0  0  0  0  0  0  0  0  0  0  0
   24.6522   74.1943    4.5832 O   0  0  0  0  0  0  0  0  0  0  0  0
   22.3398   73.7505    6.2275 O   0  0  0  0  0  0  0  0  0  0  0  0
   24.2996   73.1588    1.9031 O   0  0  0  0  0  0  0  0  0  0  0  0
   23.4397   73.6025    4.1088 C   0  0  1  0  0  0  0  0  0  0  0  0
   22.2715   74.2165    4.8828 C   0  0  1  0  0  0  0  0  0  0  0  0
   23.2998   73.8815    2.6135 C   0  0  2  0  0  0  0  0  0  0  0  0
   20.9263   73.8327    4.2518 C   0  0  1  0  0  0  0  0  0  0  0  0
   21.9089   73.5092    2.0971 C   0  0  1  0  0  0  0  0  0  0  0  0
   24.7473   74.0204    5.5320 H   0  0  0  0  0  0  0  0  0  0  0  0
   23.1942   73.9989    6.6141 H   0  0  0  0  0  0  0  0  0  0  0  0
   25.1755   73.4036    2.2390 H   0  0  0  0  0  0  0  0  0  0  0  0
   19.3298   73.8039    6.0293 O   0  0  0  0  0  0  0  0  0  0  0  0
   19.7568   74.5604    4.9114 C   0  0  0  0  0  0  0  0  0  0  0  0
   18.5860   74.2552    6.4593 H   0  0  0  0  0  0  0  0  0  0  0  0
 25 28  1  0
 25 24  1  0
 25 26  1  1
 25 27  2  0
  1  4  1  0
  1 24  1  0
  1  2  1  6
  1  3  2  0
  6 11  1  0
  6 12  1  0
 29 36  1  0
 29 37  1  0
  9  7  1  6
  7 13  1  0
 10  8  1  1
  8 14  1  0
 37 28  1  1
  4  5  1  0
 33 30  1  1
 30 38  1  0
 34 31  1  1
 31 39  1  0
 35 32  1  6
 32 40  1  0
 41 42  1  0
 41 43  1  0
 15 19  2  0
 16 22  2  0
 12 17  1  6
 17 19  1  0
 17 20  1  0
 18 19  1  0
 18 22  1  0
 18 23  1  0
  9 10  1  0
  9 11  1  0
 10 12  1  0
 11  5  1  6
 33 34  1  0
 33 35  1  0
 34 36  1  0
 35 37  1  0
 36 42  1  1
 20 21  2  0
 21 22  1  0
M  CHG  2   2  -1  26  -1
M  END
>  <COMPND>  (88) 
    8629 

>  <AUTHOR>  (88) 
    GENERATED BY OPEN BABEL 3.1.1

>  <MASTER>  (88) 
        0    0    0    0    0    0    0    0   58    0   58    0

>  <minimizedAffinity>  (88) 
-6.76294

>  <CNNscore>  (88) 
0.8404144049

>  <CNNaffinity>  (88) 
4.4912061691

>  <CNN_VS>  (88) 
3.7744743824

>  <CNNaffinity_variance>  (88) 
0.0333101451

$$$$
89
     RDKit          3D

 43 45  0  0  0  0  0  0  0  0999 V2000
   22.7747   72.2607   -3.9494 P   0  0  2  0  0  0  0  0  0  0  0  0
   23.4666   72.7183   -5.3384 O   0  0  0  0  0  0  0  0  0  0  0  0
   23.4911   71.1656   -3.2152 O   0  0  0  0  0  0  0  0  0  0  0  0
   21.2434   71.9434   -4.3643 O   0  0  0  0  0  0  0  0  0  0  0  0
   20.5794   70.8662   -3.7267 C   0  0  0  0  0  0  0  0  0  0  0  0
   18.6383   71.7865   -4.8033 O   0  0  0  0  0  0  0  0  0  0  0  0
   17.0407   70.4620   -2.6390 O   0  0  0  0  0  0  0  0  0  0  0  0
   16.7259   68.7531   -4.7407 O   0  0  0  0  0  0  0  0  0  0  0  0
   18.2240   70.0075   -3.2937 C   0  0  1  0  0  0  0  0  0  0  0  0
   17.9009   69.5368   -4.6964 C   0  0  2  0  0  0  0  0  0  0  0  0
   19.1078   71.2195   -3.5605 C   0  0  1  0  0  0  0  0  0  0  0  0
   17.7556   70.8512   -5.4442 C   0  0  2  0  0  0  0  0  0  0  0  0
   16.4606   69.7054   -2.4579 H   0  0  0  0  0  0  0  0  0  0  0  0
   16.8687   67.9280   -4.2513 H   0  0  0  0  0  0  0  0  0  0  0  0
   15.9971   70.0343   -7.4981 O   0  0  0  0  0  0  0  0  0  0  0  0
   19.2698   70.4503  -10.7164 O   0  0  0  0  0  0  0  0  0  0  0  0
   18.1216   70.7376   -6.8279 N   0  0  0  0  0  0  0  0  0  0  0  0
   17.6280   70.2422   -9.0989 N   0  0  0  0  0  0  0  0  0  0  0  0
   17.1633   70.3176   -7.7797 C   0  0  0  0  0  0  0  0  0  0  0  0
   19.4180   71.0413   -7.2290 C   0  0  0  0  0  0  0  0  0  0  0  0
   19.8456   70.9631   -8.4908 C   0  0  0  0  0  0  0  0  0  0  0  0
   18.9070   70.5322   -9.5470 C   0  0  0  0  0  0  0  0  0  0  0  0
   16.9781   69.9515   -9.7792 H   0  0  0  0  0  0  0  0  0  0  0  0
   22.6493   73.6491   -3.1312 O   0  0  0  0  0  0  0  0  0  0  0  0
   23.7822   74.6374   -2.5374 P   0  0  2  0  0  0  0  0  0  0  0  0
   22.9327   75.9249   -2.0494 O   0  0  0  0  0  0  0  0  0  0  0  0
   24.8886   74.9547   -3.5014 O   0  0  0  0  0  0  0  0  0  0  0  0
   24.2681   73.9280   -1.1716 O   0  0  0  0  0  0  0  0  0  0  0  0
   22.4136   73.0591    0.0210 O   0  0  0  0  0  0  0  0  0  0  0  0
   25.3585   72.4598    2.8528 O   0  0  0  0  0  0  0  0  0  0  0  0
   24.2704   70.2083    1.4403 O   0  0  0  0  0  0  0  0  0  0  0  0
   25.3813   74.8574    1.2310 O   0  0  0  0  0  0  0  0  0  0  0  0
   24.8180   72.5349    1.5308 C   0  0  1  0  0  0  0  0  0  0  0  0
   23.6889   71.5089    1.4153 C   0  0  1  0  0  0  0  0  0  0  0  0
   24.2885   73.9469    1.2875 C   0  0  2  0  0  0  0  0  0  0  0  0
   22.8870   71.7110    0.1226 C   0  0  1  0  0  0  0  0  0  0  0  0
   23.4644   74.0272    0.0012 C   0  0  1  0  0  0  0  0  0  0  0  0
   25.6969   71.5658    3.0135 H   0  0  0  0  0  0  0  0  0  0  0  0
   24.7743   70.0939    2.2614 H   0  0  0  0  0  0  0  0  0  0  0  0
   25.8949   74.7972    2.0510 H   0  0  0  0  0  0  0  0  0  0  0  0
   21.3665   70.3570    1.3731 O   0  0  0  0  0  0  0  0  0  0  0  0
   21.6613   70.8020    0.0619 C   0  0  0  0  0  0  0  0  0  0  0  0
   20.5884   69.7777    1.3500 H   0  0  0  0  0  0  0  0  0  0  0  0
 25 28  1  0
 25 24  1  0
 25 26  1  1
 25 27  2  0
  1  4  1  0
  1 24  1  0
  1  2  1  6
  1  3  2  0
  6 11  1  0
  6 12  1  0
 29 36  1  0
 29 37  1  0
  9  7  1  6
  7 13  1  0
 10  8  1  1
  8 14  1  0
 37 28  1  6
  4  5  1  0
 33 30  1  1
 30 38  1  0
 34 31  1  6
 31 39  1  0
 35 32  1  6
 32 40  1  0
 41 42  1  0
 41 43  1  0
 15 19  2  0
 16 22  2  0
 12 17  1  6
 17 19  1  0
 17 20  1  0
 18 19  1  0
 18 22  1  0
 18 23  1  0
  9 10  1  0
  9 11  1  0
 10 12  1  0
 11  5  1  6
 33 34  1  0
 33 35  1  0
 34 36  1  0
 35 37  1  0
 36 42  1  1
 20 21  2  0
 21 22  1  0
M  CHG  2   2  -1  26  -1
M  END
>  <COMPND>  (89) 
    8629 

>  <AUTHOR>  (89) 
    GENERATED BY OPEN BABEL 3.1.1

>  <MASTER>  (89) 
        0    0    0    0    0    0    0    0   58    0   58    0

>  <minimizedAffinity>  (89) 
-7.55480

>  <CNNscore>  (89) 
0.8274775743

>  <CNNaffinity>  (89) 
4.6219949722

>  <CNN_VS>  (89) 
3.8245971203

>  <CNNaffinity_variance>  (89) 
0.0487010404

$$$$
90
     RDKit          3D

 43 45  0  0  0  0  0  0  0  0999 V2000
   20.2530   71.8255   -1.1026 P   0  0  2  0  0  0  0  0  0  0  0  0
   20.6644   70.6015   -0.1278 O   0  0  0  0  0  0  0  0  0  0  0  0
   19.2305   72.7681   -0.5393 O   0  0  0  0  0  0  0  0  0  0  0  0
   19.8491   71.0980   -2.4902 O   0  0  0  0  0  0  0  0  0  0  0  0
   19.3893   71.8991   -3.5647 C   0  0  0  0  0  0  0  0  0  0  0  0
   17.4981   72.0372   -5.0406 O   0  0  0  0  0  0  0  0  0  0  0  0
   16.0111   70.4447   -2.9806 O   0  0  0  0  0  0  0  0  0  0  0  0
   16.6423   68.5597   -4.8474 O   0  0  0  0  0  0  0  0  0  0  0  0
   17.3780   70.3522   -3.3787 C   0  0  1  0  0  0  0  0  0  0  0  0
   17.4867   69.6871   -4.7350 C   0  0  2  0  0  0  0  0  0  0  0  0
   17.8770   71.7610   -3.6744 C   0  0  1  0  0  0  0  0  0  0  0  0
   17.0854   70.8140   -5.6715 C   0  0  2  0  0  0  0  0  0  0  0  0
   15.6704   69.5570   -2.7861 H   0  0  0  0  0  0  0  0  0  0  0  0
   16.9385   67.8710   -4.2321 H   0  0  0  0  0  0  0  0  0  0  0  0
   15.7162   70.3767   -8.1030 O   0  0  0  0  0  0  0  0  0  0  0  0
   19.6324   70.4427  -10.5320 O   0  0  0  0  0  0  0  0  0  0  0  0
   17.7223   70.7130   -6.9543 N   0  0  0  0  0  0  0  0  0  0  0  0
   17.6673   70.4101   -9.3105 N   0  0  0  0  0  0  0  0  0  0  0  0
   16.9435   70.4915   -8.1140 C   0  0  0  0  0  0  0  0  0  0  0  0
   19.1042   70.8338   -7.0533 C   0  0  0  0  0  0  0  0  0  0  0  0
   19.7793   70.7525   -8.2018 C   0  0  0  0  0  0  0  0  0  0  0  0
   19.0405   70.5224   -9.4600 C   0  0  0  0  0  0  0  0  0  0  0  0
   17.1457   70.2558  -10.1314 H   0  0  0  0  0  0  0  0  0  0  0  0
   21.6768   72.5072   -1.4508 O   0  0  0  0  0  0  0  0  0  0  0  0
   22.4602   73.7409   -0.7601 P   0  0  2  0  0  0  0  0  0  0  0  0
   21.4500   74.9868   -0.9714 O   0  0  0  0  0  0  0  0  0  0  0  0
   23.8442   73.9681   -1.2956 O   0  0  0  0  0  0  0  0  0  0  0  0
   22.3981   73.4297    0.8224 O   0  0  0  0  0  0  0  0  0  0  0  0
   24.5286   73.5905    1.8478 O   0  0  0  0  0  0  0  0  0  0  0  0
   22.4217   71.8927    4.9670 O   0  0  0  0  0  0  0  0  0  0  0  0
   23.2127   74.6491    5.1244 O   0  0  0  0  0  0  0  0  0  0  0  0
   21.8887   71.0648    2.2448 O   0  0  0  0  0  0  0  0  0  0  0  0
   22.6074   72.7341    3.8255 C   0  0  1  0  0  0  0  0  0  0  0  0
   23.7133   73.7413    4.1469 C   0  0  1  0  0  0  0  0  0  0  0  0
   22.9980   71.8708    2.6273 C   0  0  2  0  0  0  0  0  0  0  0  0
   24.1538   74.5008    2.8882 C   0  0  1  0  0  0  0  0  0  0  0  0
   23.4668   72.7226    1.4463 C   0  0  1  0  0  0  0  0  0  0  0  0
   22.1730   72.4347    5.7311 H   0  0  0  0  0  0  0  0  0  0  0  0
   22.9375   74.1568    5.9138 H   0  0  0  0  0  0  0  0  0  0  0  0
   21.6017   70.5302    3.0009 H   0  0  0  0  0  0  0  0  0  0  0  0
   26.4794   74.8576    2.4718 O   0  0  0  0  0  0  0  0  0  0  0  0
   25.3619   75.3963    3.1541 C   0  0  0  0  0  0  0  0  0  0  0  0
   27.2557   75.4174    2.6317 H   0  0  0  0  0  0  0  0  0  0  0  0
 25 28  1  0
 25 24  1  0
 25 26  1  1
 25 27  2  0
  1  4  1  0
  1 24  1  0
  1  2  1  1
  1  3  2  0
  6 11  1  0
  6 12  1  0
 29 36  1  0
 29 37  1  0
  9  7  1  6
  7 13  1  0
 10  8  1  1
  8 14  1  0
 37 28  1  1
  4  5  1  0
 33 30  1  1
 30 38  1  0
 34 31  1  1
 31 39  1  0
 35 32  1  6
 32 40  1  0
 41 42  1  0
 41 43  1  0
 15 19  2  0
 16 22  2  0
 12 17  1  6
 17 19  1  0
 17 20  1  0
 18 19  1  0
 18 22  1  0
 18 23  1  0
  9 10  1  0
  9 11  1  0
 10 12  1  0
 11  5  1  6
 33 34  1  0
 33 35  1  0
 34 36  1  0
 35 37  1  0
 36 42  1  1
 20 21  2  0
 21 22  1  0
M  CHG  2   2  -1  26  -1
M  END
>  <COMPND>  (90) 
    8629 

>  <AUTHOR>  (90) 
    GENERATED BY OPEN BABEL 3.1.1

>  <MASTER>  (90) 
        0    0    0    0    0    0    0    0   58    0   58    0

>  <minimizedAffinity>  (90) 
-6.54809

>  <CNNscore>  (90) 
0.8162169456

>  <CNNaffinity>  (90) 
4.4512333870

>  <CNN_VS>  (90) 
3.6331720352

>  <CNNaffinity_variance>  (90) 
0.0938188359

$$$$
91
     RDKit          3D

 43 45  0  0  0  0  0  0  0  0999 V2000
   21.8813   72.5284   -5.5703 P   0  0  2  0  0  0  0  0  0  0  0  0
   21.1968   73.9636   -5.2718 O   0  0  0  0  0  0  0  0  0  0  0  0
   23.1402   72.5837   -6.3847 O   0  0  0  0  0  0  0  0  0  0  0  0
   20.6776   71.6468   -6.1963 O   0  0  0  0  0  0  0  0  0  0  0  0
   20.2145   71.9623   -7.4977 C   0  0  0  0  0  0  0  0  0  0  0  0
   18.9884   69.9524   -7.0173 O   0  0  0  0  0  0  0  0  0  0  0  0
   18.1866   69.9738   -9.9065 O   0  0  0  0  0  0  0  0  0  0  0  0
   15.9723   70.9734   -8.6677 O   0  0  0  0  0  0  0  0  0  0  0  0
   18.3768   71.0711   -9.0148 C   0  0  1  0  0  0  0  0  0  0  0  0
   17.2232   71.1606   -8.0376 C   0  0  2  0  0  0  0  0  0  0  0  0
   19.5453   70.7332   -8.0974 C   0  0  1  0  0  0  0  0  0  0  0  0
   17.5553   70.0500   -7.0556 C   0  0  2  0  0  0  0  0  0  0  0  0
   17.4455   70.1666  -10.5027 H   0  0  0  0  0  0  0  0  0  0  0  0
   15.8069   71.7053   -9.2823 H   0  0  0  0  0  0  0  0  0  0  0  0
   16.2889   68.1513   -5.3914 O   0  0  0  0  0  0  0  0  0  0  0  0
   15.7374   71.2216   -1.9988 O   0  0  0  0  0  0  0  0  0  0  0  0
   17.0711   70.3260   -5.7325 N   0  0  0  0  0  0  0  0  0  0  0  0
   16.0155   69.6816   -3.7034 N   0  0  0  0  0  0  0  0  0  0  0  0
   16.4492   69.3023   -4.9802 C   0  0  0  0  0  0  0  0  0  0  0  0
   17.2153   71.5997   -5.1934 C   0  0  0  0  0  0  0  0  0  0  0  0
   16.7952   71.9455   -3.9748 C   0  0  0  0  0  0  0  0  0  0  0  0
   16.1348   70.9347   -3.1237 C   0  0  0  0  0  0  0  0  0  0  0  0
   15.5789   68.9850   -3.1613 H   0  0  0  0  0  0  0  0  0  0  0  0
   22.0630   71.8981   -4.0929 O   0  0  0  0  0  0  0  0  0  0  0  0
   23.2674   72.0307   -3.0230 P   0  0  2  0  0  0  0  0  0  0  0  0
   23.8864   73.4914   -3.3402 O   0  0  0  0  0  0  0  0  0  0  0  0
   24.2651   70.9102   -3.0776 O   0  0  0  0  0  0  0  0  0  0  0  0
   22.5304   72.2012   -1.5972 O   0  0  0  0  0  0  0  0  0  0  0  0
   24.0459   71.9687    0.2099 O   0  0  0  0  0  0  0  0  0  0  0  0
   20.4967   71.9626    2.3203 O   0  0  0  0  0  0  0  0  0  0  0  0
   22.2149   74.2606    2.4422 O   0  0  0  0  0  0  0  0  0  0  0  0
   20.6590   70.6139   -0.2359 O   0  0  0  0  0  0  0  0  0  0  0  0
   21.3870   72.3475    1.2693 C   0  0  1  0  0  0  0  0  0  0  0  0
   22.6161   73.0059    1.8991 C   0  0  1  0  0  0  0  0  0  0  0  0
   21.7893   71.1057    0.4760 C   0  0  2  0  0  0  0  0  0  0  0  0
   23.7305   73.2040    0.8628 C   0  0  1  0  0  0  0  0  0  0  0  0
   22.9376   71.4006   -0.4907 C   0  0  1  0  0  0  0  0  0  0  0  0
   20.2369   72.7466    2.8276 H   0  0  0  0  0  0  0  0  0  0  0  0
   21.5105   74.1215    3.0947 H   0  0  0  0  0  0  0  0  0  0  0  0
   19.9391   70.4308    0.3872 H   0  0  0  0  0  0  0  0  0  0  0  0
   24.9024   73.5993    2.9072 O   0  0  0  0  0  0  0  0  0  0  0  0
   25.0210   73.7134    1.5010 C   0  0  0  0  0  0  0  0  0  0  0  0
   25.7167   73.9196    3.3267 H   0  0  0  0  0  0  0  0  0  0  0  0
 25 28  1  0
 25 24  1  0
 25 26  1  6
 25 27  2  0
  1  4  1  0
  1 24  1  0
  1  2  1  1
  1  3  2  0
  6 11  1  0
  6 12  1  0
 29 36  1  0
 29 37  1  0
  9  7  1  6
  7 13  1  0
 10  8  1  6
  8 14  1  0
 37 28  1  6
  4  5  1  0
 33 30  1  1
 30 38  1  0
 34 31  1  6
 31 39  1  0
 35 32  1  6
 32 40  1  0
 41 42  1  0
 41 43  1  0
 15 19  2  0
 16 22  2  0
 12 17  1  1
 17 19  1  0
 17 20  1  0
 18 19  1  0
 18 22  1  0
 18 23  1  0
  9 10  1  0
  9 11  1  0
 10 12  1  0
 11  5  1  1
 33 34  1  0
 33 35  1  0
 34 36  1  0
 35 37  1  0
 36 42  1  1
 20 21  2  0
 21 22  1  0
M  CHG  2   2  -1  26  -1
M  END
>  <COMPND>  (91) 
    8629 

>  <AUTHOR>  (91) 
    GENERATED BY OPEN BABEL 3.1.1

>  <MASTER>  (91) 
        0    0    0    0    0    0    0    0   58    0   58    0

>  <minimizedAffinity>  (91) 
-7.91630

>  <CNNscore>  (91) 
0.8100942373

>  <CNNaffinity>  (91) 
4.5776166916

>  <CNN_VS>  (91) 
3.7083008289

>  <CNNaffinity_variance>  (91) 
0.1908871233

$$$$
92
     RDKit          3D

 43 45  0  0  0  0  0  0  0  0999 V2000
   22.2934   72.1835   -3.3617 P   0  0  2  0  0  0  0  0  0  0  0  0
   22.9870   73.3859   -4.1927 O   0  0  0  0  0  0  0  0  0  0  0  0
   23.2379   71.1276   -2.8673 O   0  0  0  0  0  0  0  0  0  0  0  0
   21.1116   71.6672   -4.3388 O   0  0  0  0  0  0  0  0  0  0  0  0
   21.0527   72.1806   -5.6582 C   0  0  0  0  0  0  0  0  0  0  0  0
   19.6724   70.2213   -5.8309 O   0  0  0  0  0  0  0  0  0  0  0  0
   19.7196   70.6777   -8.7940 O   0  0  0  0  0  0  0  0  0  0  0  0
   17.2816   71.6682   -8.0789 O   0  0  0  0  0  0  0  0  0  0  0  0
   19.6881   71.6326   -7.7345 C   0  0  1  0  0  0  0  0  0  0  0  0
   18.3095   71.6790   -7.1093 C   0  0  2  0  0  0  0  0  0  0  0  0
   20.5380   71.0927   -6.5909 C   0  0  1  0  0  0  0  0  0  0  0  0
   18.3125   70.4285   -6.2465 C   0  0  2  0  0  0  0  0  0  0  0  0
   19.1840   71.0006   -9.5361 H   0  0  0  0  0  0  0  0  0  0  0  0
   17.3217   72.4841   -8.6019 H   0  0  0  0  0  0  0  0  0  0  0  0
   16.5067   68.4583   -5.3327 O   0  0  0  0  0  0  0  0  0  0  0  0
   15.1860   71.0615   -1.7662 O   0  0  0  0  0  0  0  0  0  0  0  0
   17.4845   70.5649   -5.0816 N   0  0  0  0  0  0  0  0  0  0  0  0
   15.8507   69.7560   -3.5575 N   0  0  0  0  0  0  0  0  0  0  0  0
   16.6108   69.5167   -4.7094 C   0  0  0  0  0  0  0  0  0  0  0  0
   17.5438   71.7280   -4.3215 C   0  0  0  0  0  0  0  0  0  0  0  0
   16.8114   71.9411   -3.2264 C   0  0  0  0  0  0  0  0  0  0  0  0
   15.8733   70.8956   -2.7692 C   0  0  0  0  0  0  0  0  0  0  0  0
   15.2347   69.0398   -3.2793 H   0  0  0  0  0  0  0  0  0  0  0  0
   21.4876   72.9637   -2.1977 O   0  0  0  0  0  0  0  0  0  0  0  0
   20.5418   72.4120   -1.0085 P   0  0  2  0  0  0  0  0  0  0  0  0
   20.4885   70.8189   -1.2855 O   0  0  0  0  0  0  0  0  0  0  0  0
   19.1959   73.0733   -0.9358 O   0  0  0  0  0  0  0  0  0  0  0  0
   21.4347   72.5639    0.3274 O   0  0  0  0  0  0  0  0  0  0  0  0
   22.9872   70.9058    1.0036 O   0  0  0  0  0  0  0  0  0  0  0  0
   22.2367   72.6431    4.6737 O   0  0  0  0  0  0  0  0  0  0  0  0
   24.7600   73.0969    3.3795 O   0  0  0  0  0  0  0  0  0  0  0  0
   20.0819   72.2984    2.7717 O   0  0  0  0  0  0  0  0  0  0  0  0
   22.4193   72.6213    3.2554 C   0  0  1  0  0  0  0  0  0  0  0  0
   23.8284   72.1032    2.9612 C   0  0  1  0  0  0  0  0  0  0  0  0
   21.3684   71.7053    2.6309 C   0  0  2  0  0  0  0  0  0  0  0  0
   24.0062   71.7991    1.4675 C   0  0  1  0  0  0  0  0  0  0  0  0
   21.6657   71.4277    1.1562 C   0  0  1  0  0  0  0  0  0  0  0  0
   22.9006   73.2233    5.0763 H   0  0  0  0  0  0  0  0  0  0  0  0
   24.6369   73.2800    4.3243 H   0  0  0  0  0  0  0  0  0  0  0  0
   19.9055   72.4689    3.7096 H   0  0  0  0  0  0  0  0  0  0  0  0
   25.9204   70.7162    2.4015 O   0  0  0  0  0  0  0  0  0  0  0  0
   25.3494   71.1339    1.1752 C   0  0  0  0  0  0  0  0  0  0  0  0
   26.7757   70.2907    2.2310 H   0  0  0  0  0  0  0  0  0  0  0  0
 25 28  1  0
 25 24  1  0
 25 26  1  6
 25 27  2  0
  1  4  1  0
  1 24  1  0
  1  2  1  6
  1  3  2  0
  6 11  1  0
  6 12  1  0
 29 36  1  0
 29 37  1  0
  9  7  1  6
  7 13  1  0
 10  8  1  6
  8 14  1  0
 37 28  1  6
  4  5  1  0
 33 30  1  1
 30 38  1  0
 34 31  1  6
 31 39  1  0
 35 32  1  6
 32 40  1  0
 41 42  1  0
 41 43  1  0
 15 19  2  0
 16 22  2  0
 12 17  1  1
 17 19  1  0
 17 20  1  0
 18 19  1  0
 18 22  1  0
 18 23  1  0
  9 10  1  0
  9 11  1  0
 10 12  1  0
 11  5  1  1
 33 34  1  0
 33 35  1  0
 34 36  1  0
 35 37  1  0
 36 42  1  1
 20 21  2  0
 21 22  1  0
M  CHG  2   2  -1  26  -1
M  END
>  <COMPND>  (92) 
    8629 

>  <AUTHOR>  (92) 
    GENERATED BY OPEN BABEL 3.1.1

>  <MASTER>  (92) 
        0    0    0    0    0    0    0    0   58    0   58    0

>  <minimizedAffinity>  (92) 
-6.19605

>  <CNNscore>  (92) 
0.7249442339

>  <CNNaffinity>  (92) 
4.3334717751

>  <CNN_VS>  (92) 
3.1415252686

>  <CNNaffinity_variance>  (92) 
0.1671758592

$$$$
93
     RDKit          3D

 43 45  0  0  0  0  0  0  0  0999 V2000
   23.5169   72.2509   -3.4268 P   0  0  2  0  0  0  0  0  0  0  0  0
   24.1082   70.7733   -3.1363 O   0  0  0  0  0  0  0  0  0  0  0  0
   24.4243   73.1541   -4.2094 O   0  0  0  0  0  0  0  0  0  0  0  0
   23.0804   72.7891   -1.9647 O   0  0  0  0  0  0  0  0  0  0  0  0
   23.2141   71.9172   -0.8557 C   0  0  0  0  0  0  0  0  0  0  0  0
   23.0709   72.0941    1.5363 O   0  0  0  0  0  0  0  0  0  0  0  0
   21.1771   74.3710    1.0673 O   0  0  0  0  0  0  0  0  0  0  0  0
   23.5117   75.6513    1.6564 O   0  0  0  0  0  0  0  0  0  0  0  0
   22.3347   73.9926    0.3242 C   0  0  1  0  0  0  0  0  0  0  0  0
   23.5914   74.3616    1.0846 C   0  0  2  0  0  0  0  0  0  0  0  0
   22.4066   72.4708    0.3103 C   0  0  1  0  0  0  0  0  0  0  0  0
   23.6613   73.2617    2.1303 C   0  0  2  0  0  0  0  0  0  0  0  0
   21.1096   75.3389    1.0899 H   0  0  0  0  0  0  0  0  0  0  0  0
   23.4693   76.3158    0.9511 H   0  0  0  0  0  0  0  0  0  0  0  0
   25.2636   74.9120    3.7695 O   0  0  0  0  0  0  0  0  0  0  0  0
   28.8235   71.9937    3.5420 O   0  0  0  0  0  0  0  0  0  0  0  0
   25.0105   72.9574    2.5156 N   0  0  0  0  0  0  0  0  0  0  0  0
   27.0348   73.4575    3.6551 N   0  0  0  0  0  0  0  0  0  0  0  0
   25.7285   73.8537    3.3411 C   0  0  0  0  0  0  0  0  0  0  0  0
   25.6081   71.7810    2.0762 C   0  0  0  0  0  0  0  0  0  0  0  0
   26.8552   71.4184    2.3835 C   0  0  0  0  0  0  0  0  0  0  0  0
   27.6736   72.2991    3.2418 C   0  0  0  0  0  0  0  0  0  0  0  0
   27.5543   74.0665    4.2287 H   0  0  0  0  0  0  0  0  0  0  0  0
   22.0988   71.9415   -4.1383 O   0  0  0  0  0  0  0  0  0  0  0  0
   20.6806   72.7132   -4.0590 P   0  0  2  0  0  0  0  0  0  0  0  0
   21.0960   74.2694   -4.2111 O   0  0  0  0  0  0  0  0  0  0  0  0
   19.8796   72.4035   -2.8276 O   0  0  0  0  0  0  0  0  0  0  0  0
   19.9405   72.3513   -5.4469 O   0  0  0  0  0  0  0  0  0  0  0  0
   19.0830   70.1592   -5.1711 O   0  0  0  0  0  0  0  0  0  0  0  0
   17.8588   70.8632   -9.0514 O   0  0  0  0  0  0  0  0  0  0  0  0
   15.9187   70.8439   -6.9339 O   0  0  0  0  0  0  0  0  0  0  0  0
   20.4408   71.8179   -8.1562 O   0  0  0  0  0  0  0  0  0  0  0  0
   18.1563   71.2091   -7.6960 C   0  0  1  0  0  0  0  0  0  0  0  0
   17.2563   70.3773   -6.7801 C   0  0  1  0  0  0  0  0  0  0  0  0
   19.6285   70.9125   -7.4167 C   0  0  2  0  0  0  0  0  0  0  0  0
   17.6977   70.4938   -5.3150 C   0  0  1  0  0  0  0  0  0  0  0  0
   19.9509   71.0085   -5.9244 C   0  0  1  0  0  0  0  0  0  0  0  0
   16.9256   71.0496   -9.2354 H   0  0  0  0  0  0  0  0  0  0  0  0
   15.6525   70.7654   -7.8635 H   0  0  0  0  0  0  0  0  0  0  0  0
   20.2274   71.7473   -9.0992 H   0  0  0  0  0  0  0  0  0  0  0  0
   16.1784   68.6524   -5.2150 O   0  0  0  0  0  0  0  0  0  0  0  0
   16.9141   69.5505   -4.4049 C   0  0  0  0  0  0  0  0  0  0  0  0
   15.6750   68.0457   -4.6492 H   0  0  0  0  0  0  0  0  0  0  0  0
 25 28  1  0
 25 24  1  0
 25 26  1  6
 25 27  2  0
  1  4  1  0
  1 24  1  0
  1  2  1  1
  1  3  2  0
  6 11  1  0
  6 12  1  0
 29 36  1  0
 29 37  1  0
  9  7  1  1
  7 13  1  0
 10  8  1  1
  8 14  1  0
 37 28  1  1
  4  5  1  0
 33 30  1  6
 30 38  1  0
 34 31  1  1
 31 39  1  0
 35 32  1  6
 32 40  1  0
 41 42  1  0
 41 43  1  0
 15 19  2  0
 16 22  2  0
 12 17  1  6
 17 19  1  0
 17 20  1  0
 18 19  1  0
 18 22  1  0
 18 23  1  0
  9 10  1  0
  9 11  1  0
 10 12  1  0
 11  5  1  6
 33 34  1  0
 33 35  1  0
 34 36  1  0
 35 37  1  0
 36 42  1  1
 20 21  2  0
 21 22  1  0
M  CHG  2   2  -1  26  -1
M  END
>  <COMPND>  (93) 
    8629 

>  <AUTHOR>  (93) 
    GENERATED BY OPEN BABEL 3.1.1

>  <MASTER>  (93) 
        0    0    0    0    0    0    0    0   58    0   58    0

>  <minimizedAffinity>  (93) 
-7.14183

>  <CNNscore>  (93) 
0.6930862665

>  <CNNaffinity>  (93) 
4.3899364471

>  <CNN_VS>  (93) 
3.0426046848

>  <CNNaffinity_variance>  (93) 
0.1872956008

$$$$
94
     RDKit          3D

 43 45  0  0  0  0  0  0  0  0999 V2000
   21.9342   72.9150   -5.2984 P   0  0  2  0  0  0  0  0  0  0  0  0
   21.6955   74.5151   -5.2794 O   0  0  0  0  0  0  0  0  0  0  0  0
   23.1131   72.4597   -6.1072 O   0  0  0  0  0  0  0  0  0  0  0  0
   20.5004   72.3137   -5.7463 O   0  0  0  0  0  0  0  0  0  0  0  0
   20.0368   72.5776   -7.0590 C   0  0  0  0  0  0  0  0  0  0  0  0
   19.1308   70.3856   -6.6742 O   0  0  0  0  0  0  0  0  0  0  0  0
   18.5201   70.3271   -9.6092 O   0  0  0  0  0  0  0  0  0  0  0  0
   16.0978   70.9277   -8.5100 O   0  0  0  0  0  0  0  0  0  0  0  0
   18.4703   71.4245   -8.6990 C   0  0  1  0  0  0  0  0  0  0  0  0
   17.2585   71.3061   -7.7984 C   0  0  2  0  0  0  0  0  0  0  0  0
   19.6184   71.2664   -7.7100 C   0  0  1  0  0  0  0  0  0  0  0  0
   17.7065   70.2475   -6.8050 C   0  0  2  0  0  0  0  0  0  0  0  0
   17.7964   70.4064  -10.2510 H   0  0  0  0  0  0  0  0  0  0  0  0
   15.8532   71.6335   -9.1287 H   0  0  0  0  0  0  0  0  0  0  0  0
   16.3972   68.1935   -5.3751 O   0  0  0  0  0  0  0  0  0  0  0  0
   15.4194   71.0116   -1.8619 O   0  0  0  0  0  0  0  0  0  0  0  0
   17.1010   70.4166   -5.5142 N   0  0  0  0  0  0  0  0  0  0  0  0
   15.9116   69.5983   -3.6269 N   0  0  0  0  0  0  0  0  0  0  0  0
   16.4677   69.3212   -4.8822 C   0  0  0  0  0  0  0  0  0  0  0  0
   17.1392   71.6578   -4.8881 C   0  0  0  0  0  0  0  0  0  0  0  0
   16.6029   71.9059   -3.6914 C   0  0  0  0  0  0  0  0  0  0  0  0
   15.9225   70.8152   -2.9638 C   0  0  0  0  0  0  0  0  0  0  0  0
   15.4648   68.8503   -3.1679 H   0  0  0  0  0  0  0  0  0  0  0  0
   22.0107   72.5403   -3.7278 O   0  0  0  0  0  0  0  0  0  0  0  0
   22.2940   71.1330   -2.9848 P   0  0  2  0  0  0  0  0  0  0  0  0
   23.9074   71.0161   -3.0141 O   0  0  0  0  0  0  0  0  0  0  0  0
   21.5772   69.9616   -3.5915 O   0  0  0  0  0  0  0  0  0  0  0  0
   21.9333   71.4088   -1.4360 O   0  0  0  0  0  0  0  0  0  0  0  0
   21.4053   73.4722   -0.3967 O   0  0  0  0  0  0  0  0  0  0  0  0
   23.3602   71.6337    2.7417 O   0  0  0  0  0  0  0  0  0  0  0  0
   20.5090   71.9621    2.8445 O   0  0  0  0  0  0  0  0  0  0  0  0
   24.3199   71.2756    0.0342 O   0  0  0  0  0  0  0  0  0  0  0  0
   22.5234   71.6931    1.5834 C   0  0  1  0  0  0  0  0  0  0  0  0
   21.3426   72.6158    1.8916 C   0  0  1  0  0  0  0  0  0  0  0  0
   23.3357   72.2337    0.4080 C   0  0  2  0  0  0  0  0  0  0  0  0
   20.5473   72.9414    0.6202 C   0  0  1  0  0  0  0  0  0  0  0  0
   22.4431   72.5711   -0.7876 C   0  0  1  0  0  0  0  0  0  0  0  0
   22.8507   71.2908    3.4915 H   0  0  0  0  0  0  0  0  0  0  0  0
   21.0233   71.7617    3.6423 H   0  0  0  0  0  0  0  0  0  0  0  0
   24.8786   71.0706    0.7996 H   0  0  0  0  0  0  0  0  0  0  0  0
   19.7655   74.6636    2.0801 O   0  0  0  0  0  0  0  0  0  0  0  0
   19.4611   73.9838    0.8762 C   0  0  0  0  0  0  0  0  0  0  0  0
   19.0827   75.3305    2.2557 H   0  0  0  0  0  0  0  0  0  0  0  0
 25 28  1  0
 25 24  1  0
 25 26  1  1
 25 27  2  0
  1  4  1  0
  1 24  1  0
  1  2  1  1
  1  3  2  0
  6 11  1  0
  6 12  1  0
 29 36  1  0
 29 37  1  0
  9  7  1  6
  7 13  1  0
 10  8  1  6
  8 14  1  0
 37 28  1  1
  4  5  1  0
 33 30  1  1
 30 38  1  0
 34 31  1  1
 31 39  1  0
 35 32  1  6
 32 40  1  0
 41 42  1  0
 41 43  1  0
 15 19  2  0
 16 22  2  0
 12 17  1  1
 17 19  1  0
 17 20  1  0
 18 19  1  0
 18 22  1  0
 18 23  1  0
  9 10  1  0
  9 11  1  0
 10 12  1  0
 11  5  1  1
 33 34  1  0
 33 35  1  0
 34 36  1  0
 35 37  1  0
 36 42  1  1
 20 21  2  0
 21 22  1  0
M  CHG  2   2  -1  26  -1
M  END
>  <COMPND>  (94) 
    8629 

>  <AUTHOR>  (94) 
    GENERATED BY OPEN BABEL 3.1.1

>  <MASTER>  (94) 
        0    0    0    0    0    0    0    0   58    0   58    0

>  <minimizedAffinity>  (94) 
-6.96210

>  <CNNscore>  (94) 
0.6864577532

>  <CNNaffinity>  (94) 
4.4635539055

>  <CNN_VS>  (94) 
3.0640411377

>  <CNNaffinity_variance>  (94) 
0.1437941492

$$$$
95
     RDKit          3D

 43 45  0  0  0  0  0  0  0  0999 V2000
   23.5765   72.6585   -3.6123 P   0  0  2  0  0  0  0  0  0  0  0  0
   23.9842   71.1522   -3.1856 O   0  0  0  0  0  0  0  0  0  0  0  0
   24.6399   73.4183   -4.3494 O   0  0  0  0  0  0  0  0  0  0  0  0
   23.0639   73.3281   -2.2314 O   0  0  0  0  0  0  0  0  0  0  0  0
   22.0924   74.3574   -2.2989 C   0  0  0  0  0  0  0  0  0  0  0  0
   21.1962   72.7174   -0.7887 O   0  0  0  0  0  0  0  0  0  0  0  0
   19.1570   74.7871   -0.0479 O   0  0  0  0  0  0  0  0  0  0  0  0
   20.9281   74.9307    2.0207 O   0  0  0  0  0  0  0  0  0  0  0  0
   20.5345   74.9556   -0.3785 C   0  0  1  0  0  0  0  0  0  0  0  0
   21.4105   74.4925    0.7668 C   0  0  2  0  0  0  0  0  0  0  0  0
   20.8813   73.9512   -1.4704 C   0  0  1  0  0  0  0  0  0  0  0  0
   21.3556   72.9819    0.6147 C   0  0  2  0  0  0  0  0  0  0  0  0
   18.9119   75.4182    0.6475 H   0  0  0  0  0  0  0  0  0  0  0  0
   20.9836   75.8978    2.0686 H   0  0  0  0  0  0  0  0  0  0  0  0
   21.5530   70.2380    1.2549 O   0  0  0  0  0  0  0  0  0  0  0  0
   26.0051   70.6328    2.3793 O   0  0  0  0  0  0  0  0  0  0  0  0
   22.5544   72.3410    1.0768 N   0  0  0  0  0  0  0  0  0  0  0  0
   23.7697   70.4368    1.8141 N   0  0  0  0  0  0  0  0  0  0  0  0
   22.5470   70.9577    1.3716 C   0  0  0  0  0  0  0  0  0  0  0  0
   23.7205   73.0824    1.2331 C   0  0  0  0  0  0  0  0  0  0  0  0
   24.8779   72.5708    1.6573 C   0  0  0  0  0  0  0  0  0  0  0  0
   24.9555   71.1330    1.9868 C   0  0  0  0  0  0  0  0  0  0  0  0
   23.7883   69.4752    2.0258 H   0  0  0  0  0  0  0  0  0  0  0  0
   22.2061   72.4429   -4.4422 O   0  0  0  0  0  0  0  0  0  0  0  0
   21.6744   73.1233   -5.8086 P   0  0  2  0  0  0  0  0  0  0  0  0
   22.6896   72.5479   -6.9292 O   0  0  0  0  0  0  0  0  0  0  0  0
   21.5921   74.6216   -5.7585 O   0  0  0  0  0  0  0  0  0  0  0  0
   20.2711   72.3862   -6.1128 O   0  0  0  0  0  0  0  0  0  0  0  0
   19.5349   70.2371   -5.4378 O   0  0  0  0  0  0  0  0  0  0  0  0
   17.7331   70.4163   -9.1490 O   0  0  0  0  0  0  0  0  0  0  0  0
   16.1259   70.6455   -6.7799 O   0  0  0  0  0  0  0  0  0  0  0  0
   20.3861   71.5132   -8.7773 O   0  0  0  0  0  0  0  0  0  0  0  0
   18.2147   70.9387   -7.9078 C   0  0  1  0  0  0  0  0  0  0  0  0
   17.4859   70.2206   -6.7702 C   0  0  1  0  0  0  0  0  0  0  0  0
   19.7207   70.7004   -7.8166 C   0  0  2  0  0  0  0  0  0  0  0  0
   18.1333   70.5317   -5.4140 C   0  0  1  0  0  0  0  0  0  0  0  0
   20.2550   70.9931   -6.4134 C   0  0  1  0  0  0  0  0  0  0  0  0
   16.7775   70.5648   -9.2134 H   0  0  0  0  0  0  0  0  0  0  0  0
   15.7290   70.4437   -7.6419 H   0  0  0  0  0  0  0  0  0  0  0  0
   20.0393   71.3182   -9.6614 H   0  0  0  0  0  0  0  0  0  0  0  0
   16.7734   68.6476   -4.8575 O   0  0  0  0  0  0  0  0  0  0  0  0
   17.5225   69.7039   -4.2854 C   0  0  0  0  0  0  0  0  0  0  0  0
   16.3790   68.1121   -4.1508 H   0  0  0  0  0  0  0  0  0  0  0  0
 25 28  1  0
 25 24  1  0
 25 26  1  6
 25 27  2  0
  1  4  1  0
  1 24  1  0
  1  2  1  1
  1  3  2  0
  6 11  1  0
  6 12  1  0
 29 36  1  0
 29 37  1  0
  9  7  1  1
  7 13  1  0
 10  8  1  1
  8 14  1  0
 37 28  1  1
  4  5  1  0
 33 30  1  6
 30 38  1  0
 34 31  1  1
 31 39  1  0
 35 32  1  6
 32 40  1  0
 41 42  1  0
 41 43  1  0
 15 19  2  0
 16 22  2  0
 12 17  1  6
 17 19  1  0
 17 20  1  0
 18 19  1  0
 18 22  1  0
 18 23  1  0
  9 10  1  0
  9 11  1  0
 10 12  1  0
 11  5  1  1
 33 34  1  0
 33 35  1  0
 34 36  1  0
 35 37  1  0
 36 42  1  1
 20 21  2  0
 21 22  1  0
M  CHG  2   2  -1  26  -1
M  END
>  <COMPND>  (95) 
    8629 

>  <AUTHOR>  (95) 
    GENERATED BY OPEN BABEL 3.1.1

>  <MASTER>  (95) 
        0    0    0    0    0    0    0    0   58    0   58    0

>  <minimizedAffinity>  (95) 
-7.76635

>  <CNNscore>  (95) 
0.6657918692

>  <CNNaffinity>  (95) 
4.4371542931

>  <CNN_VS>  (95) 
2.9542212486

>  <CNNaffinity_variance>  (95) 
0.0710818172

$$$$
96
     RDKit          3D

 43 45  0  0  0  0  0  0  0  0999 V2000
   15.0763   70.9570   -2.0359 P   0  0  2  0  0  0  0  0  0  0  0  0
   16.0427   71.7704   -1.0251 O   0  0  0  0  0  0  0  0  0  0  0  0
   14.4584   71.7839   -3.1249 O   0  0  0  0  0  0  0  0  0  0  0  0
   14.0374   70.1987   -1.0542 O   0  0  0  0  0  0  0  0  0  0  0  0
   14.4872   69.0567   -0.3462 C   0  0  0  0  0  0  0  0  0  0  0  0
   12.5970   69.1069    1.1366 O   0  0  0  0  0  0  0  0  0  0  0  0
   14.5361   68.4536    3.3284 O   0  0  0  0  0  0  0  0  0  0  0  0
   13.3817   66.0367    2.8162 O   0  0  0  0  0  0  0  0  0  0  0  0
   14.5242   68.0100    1.9725 C   0  0  1  0  0  0  0  0  0  0  0  0
   13.4331   66.9804    1.7657 C   0  0  2  0  0  0  0  0  0  0  0  0
   14.0399   69.1653    1.1052 C   0  0  1  0  0  0  0  0  0  0  0  0
   12.1885   67.8492    1.6989 C   0  0  2  0  0  0  0  0  0  0  0  0
   14.8424   67.7327    3.9016 H   0  0  0  0  0  0  0  0  0  0  0  0
   14.1954   65.5087    2.8168 H   0  0  0  0  0  0  0  0  0  0  0  0
    9.5306   67.3852    2.5343 O   0  0  0  0  0  0  0  0  0  0  0  0
    8.3499   65.6504   -1.5691 O   0  0  0  0  0  0  0  0  0  0  0  0
   11.1656   67.2777    0.8693 N   0  0  0  0  0  0  0  0  0  0  0  0
    8.9448   66.5220    0.4904 N   0  0  0  0  0  0  0  0  0  0  0  0
    9.8629   67.0857    1.3856 C   0  0  0  0  0  0  0  0  0  0  0  0
   11.4583   66.9146   -0.4408 C   0  0  0  0  0  0  0  0  0  0  0  0
   10.5718   66.3769   -1.2812 C   0  0  0  0  0  0  0  0  0  0  0  0
    9.1880   66.1432   -0.8203 C   0  0  0  0  0  0  0  0  0  0  0  0
    8.0310   66.3786    0.8283 H   0  0  0  0  0  0  0  0  0  0  0  0
   16.0246   69.7567   -2.5584 O   0  0  0  0  0  0  0  0  0  0  0  0
   17.4262   69.7848   -3.3632 P   0  0  2  0  0  0  0  0  0  0  0  0
   17.8260   68.2205   -3.4667 O   0  0  0  0  0  0  0  0  0  0  0  0
   18.4785   70.6527   -2.7361 O   0  0  0  0  0  0  0  0  0  0  0  0
   17.0242   70.2033   -4.8692 O   0  0  0  0  0  0  0  0  0  0  0  0
   18.7549   71.3349   -6.0272 O   0  0  0  0  0  0  0  0  0  0  0  0
   15.6302   72.0756   -8.6231 O   0  0  0  0  0  0  0  0  0  0  0  0
   17.6786   70.2051   -9.3670 O   0  0  0  0  0  0  0  0  0  0  0  0
   15.1726   72.1123   -5.7649 O   0  0  0  0  0  0  0  0  0  0  0  0
   16.3896   71.3111   -7.6828 C   0  0  1  0  0  0  0  0  0  0  0  0
   17.7900   71.0953   -8.2600 C   0  0  1  0  0  0  0  0  0  0  0  0
   16.4642   72.0754   -6.3623 C   0  0  2  0  0  0  0  0  0  0  0  0
   18.7417   70.5178   -7.2036 C   0  0  1  0  0  0  0  0  0  0  0  0
   17.4749   71.4461   -5.4018 C   0  0  1  0  0  0  0  0  0  0  0  0
   15.5786   71.5956   -9.4636 H   0  0  0  0  0  0  0  0  0  0  0  0
   17.0746   70.5814  -10.0264 H   0  0  0  0  0  0  0  0  0  0  0  0
   14.5421   72.5130   -6.3827 H   0  0  0  0  0  0  0  0  0  0  0  0
   20.4030   71.5247   -8.5947 O   0  0  0  0  0  0  0  0  0  0  0  0
   20.1803   70.4419   -7.7102 C   0  0  0  0  0  0  0  0  0  0  0  0
   21.3148   71.4895   -8.9248 H   0  0  0  0  0  0  0  0  0  0  0  0
 25 28  1  0
 25 24  1  0
 25 26  1  6
 25 27  2  0
  1  4  1  0
  1 24  1  0
  1  2  1  1
  1  3  2  0
  6 11  1  0
  6 12  1  0
 29 36  1  0
 29 37  1  0
  9  7  1  1
  7 13  1  0
 10  8  1  1
  8 14  1  0
 37 28  1  6
  4  5  1  0
 33 30  1  6
 30 38  1  0
 34 31  1  6
 31 39  1  0
 35 32  1  1
 32 40  1  0
 41 42  1  0
 41 43  1  0
 15 19  2  0
 16 22  2  0
 12 17  1  6
 17 19  1  0
 17 20  1  0
 18 19  1  0
 18 22  1  0
 18 23  1  0
  9 10  1  0
  9 11  1  0
 10 12  1  0
 11  5  1  6
 33 34  1  0
 33 35  1  0
 34 36  1  0
 35 37  1  0
 36 42  1  6
 20 21  2  0
 21 22  1  0
M  CHG  2   2  -1  26  -1
M  END
>  <COMPND>  (96) 
    8629 

>  <AUTHOR>  (96) 
    GENERATED BY OPEN BABEL 3.1.1

>  <MASTER>  (96) 
        0    0    0    0    0    0    0    0   58    0   58    0

>  <minimizedAffinity>  (96) 
-7.14668

>  <CNNscore>  (96) 
0.6440207362

>  <CNNaffinity>  (96) 
4.3235483170

>  <CNN_VS>  (96) 
2.7844548225

>  <CNNaffinity_variance>  (96) 
0.0815088823

$$$$
97
     RDKit          3D

 43 45  0  0  0  0  0  0  0  0999 V2000
   19.1295   72.6043   -1.9244 P   0  0  2  0  0  0  0  0  0  0  0  0
   17.5259   72.8075   -1.8577 O   0  0  0  0  0  0  0  0  0  0  0  0
   19.7251   71.8750   -0.7561 O   0  0  0  0  0  0  0  0  0  0  0  0
   19.6994   74.0959   -2.1861 O   0  0  0  0  0  0  0  0  0  0  0  0
   20.3276   74.7774   -1.1143 C   0  0  0  0  0  0  0  0  0  0  0  0
   22.6435   75.1899   -0.6244 O   0  0  0  0  0  0  0  0  0  0  0  0
   22.9735   75.7320   -3.5549 O   0  0  0  0  0  0  0  0  0  0  0  0
   23.9355   73.1922   -3.3082 O   0  0  0  0  0  0  0  0  0  0  0  0
   22.1374   74.7777   -2.9025 C   0  0  1  0  0  0  0  0  0  0  0  0
   22.9669   73.6255   -2.3750 C   0  0  2  0  0  0  0  0  0  0  0  0
   21.6179   75.4100   -1.6173 C   0  0  1  0  0  0  0  0  0  0  0  0
   23.5870   74.2293   -1.1264 C   0  0  2  0  0  0  0  0  0  0  0  0
   23.3170   75.3509   -4.3787 H   0  0  0  0  0  0  0  0  0  0  0  0
   23.4916   72.8162   -4.0842 H   0  0  0  0  0  0  0  0  0  0  0  0
   25.1909   74.6698    1.1564 O   0  0  0  0  0  0  0  0  0  0  0  0
   24.4815   70.3878    2.7066 O   0  0  0  0  0  0  0  0  0  0  0  0
   23.8381   73.2471   -0.1098 N   0  0  0  0  0  0  0  0  0  0  0  0
   24.8362   72.5374    1.9265 N   0  0  0  0  0  0  0  0  0  0  0  0
   24.6591   73.5693    0.9960 C   0  0  0  0  0  0  0  0  0  0  0  0
   23.2730   71.9809   -0.2149 C   0  0  0  0  0  0  0  0  0  0  0  0
   23.4527   71.0075    0.6804 C   0  0  0  0  0  0  0  0  0  0  0  0
   24.2969   71.2622    1.8656 C   0  0  0  0  0  0  0  0  0  0  0  0
   25.4047   72.7387    2.7050 H   0  0  0  0  0  0  0  0  0  0  0  0
   19.3448   71.8774   -3.3520 O   0  0  0  0  0  0  0  0  0  0  0  0
   19.2132   70.3251   -3.7834 P   0  0  2  0  0  0  0  0  0  0  0  0
   18.3131   69.6863   -2.6005 O   0  0  0  0  0  0  0  0  0  0  0  0
   20.5277   69.6340   -4.0033 O   0  0  0  0  0  0  0  0  0  0  0  0
   18.2416   70.3402   -5.0721 O   0  0  0  0  0  0  0  0  0  0  0  0
   19.1741   71.7967   -6.6924 O   0  0  0  0  0  0  0  0  0  0  0  0
   15.6343   70.8640   -8.6030 O   0  0  0  0  0  0  0  0  0  0  0  0
   18.1036   69.7694   -9.5791 O   0  0  0  0  0  0  0  0  0  0  0  0
   15.6693   71.2461   -5.7338 O   0  0  0  0  0  0  0  0  0  0  0  0
   16.7750   70.6127   -7.7778 C   0  0  1  0  0  0  0  0  0  0  0  0
   18.0334   70.8228   -8.6222 C   0  0  1  0  0  0  0  0  0  0  0  0
   16.7556   71.5762   -6.5926 C   0  0  2  0  0  0  0  0  0  0  0  0
   19.2932   70.8334   -7.7458 C   0  0  1  0  0  0  0  0  0  0  0  0
   18.0736   71.5437   -5.8168 C   0  0  1  0  0  0  0  0  0  0  0  0
   15.6403   70.2551   -9.3572 H   0  0  0  0  0  0  0  0  0  0  0  0
   17.3020   69.7735  -10.1256 H   0  0  0  0  0  0  0  0  0  0  0  0
   14.8409   71.2704   -6.2367 H   0  0  0  0  0  0  0  0  0  0  0  0
   21.0849   72.3918   -8.0107 O   0  0  0  0  0  0  0  0  0  0  0  0
   20.5426   71.1980   -8.5446 C   0  0  0  0  0  0  0  0  0  0  0  0
   21.8809   72.6358   -8.5091 H   0  0  0  0  0  0  0  0  0  0  0  0
 25 28  1  0
 25 24  1  0
 25 26  1  1
 25 27  2  0
  1  4  1  0
  1 24  1  0
  1  2  1  1
  1  3  2  0
  6 11  1  0
  6 12  1  0
 29 36  1  0
 29 37  1  0
  9  7  1  1
  7 13  1  0
 10  8  1  6
  8 14  1  0
 37 28  1  6
  4  5  1  0
 33 30  1  6
 30 38  1  0
 34 31  1  6
 31 39  1  0
 35 32  1  1
 32 40  1  0
 41 42  1  0
 41 43  1  0
 15 19  2  0
 16 22  2  0
 12 17  1  1
 17 19  1  0
 17 20  1  0
 18 19  1  0
 18 22  1  0
 18 23  1  0
  9 10  1  0
  9 11  1  0
 10 12  1  0
 11  5  1  1
 33 34  1  0
 33 35  1  0
 34 36  1  0
 35 37  1  0
 36 42  1  6
 20 21  2  0
 21 22  1  0
M  CHG  2   2  -1  26  -1
M  END
>  <COMPND>  (97) 
    8629 

>  <AUTHOR>  (97) 
    GENERATED BY OPEN BABEL 3.1.1

>  <MASTER>  (97) 
        0    0    0    0    0    0    0    0   58    0   58    0

>  <minimizedAffinity>  (97) 
-6.47826

>  <CNNscore>  (97) 
0.5943663120

>  <CNNaffinity>  (97) 
4.2476625443

>  <CNN_VS>  (97) 
2.5246675014

>  <CNNaffinity_variance>  (97) 
0.1357894391

$$$$
98
     RDKit          3D

 43 45  0  0  0  0  0  0  0  0999 V2000
   23.0221   71.7462   -2.8611 P   0  0  2  0  0  0  0  0  0  0  0  0
   24.3481   70.8376   -3.0441 O   0  0  0  0  0  0  0  0  0  0  0  0
   21.8151   71.0117   -2.3562 O   0  0  0  0  0  0  0  0  0  0  0  0
   22.8512   72.4771   -4.2944 O   0  0  0  0  0  0  0  0  0  0  0  0
   21.5474   72.6146   -4.8321 C   0  0  0  0  0  0  0  0  0  0  0  0
   20.6908   70.6012   -5.8252 O   0  0  0  0  0  0  0  0  0  0  0  0
   21.1171   71.9473   -8.4705 O   0  0  0  0  0  0  0  0  0  0  0  0
   18.4355   72.2474   -8.0761 O   0  0  0  0  0  0  0  0  0  0  0  0
   20.6989   72.5109   -7.2284 C   0  0  1  0  0  0  0  0  0  0  0  0
   19.2622   72.1316   -6.9360 C   0  0  2  0  0  0  0  0  0  0  0  0
   21.4501   71.7960   -6.1121 C   0  0  1  0  0  0  0  0  0  0  0  0
   19.4058   70.6955   -6.4614 C   0  0  2  0  0  0  0  0  0  0  0  0
   20.6510   72.3882   -9.1987 H   0  0  0  0  0  0  0  0  0  0  0  0
   18.3756   73.1791   -8.3390 H   0  0  0  0  0  0  0  0  0  0  0  0
   16.8311   69.7725   -7.1662 O   0  0  0  0  0  0  0  0  0  0  0  0
   15.5882   69.3111   -2.7522 O   0  0  0  0  0  0  0  0  0  0  0  0
   18.3895   70.3267   -5.5166 N   0  0  0  0  0  0  0  0  0  0  0  0
   16.2144   69.5433   -4.9678 N   0  0  0  0  0  0  0  0  0  0  0  0
   17.1294   69.8764   -5.9746 C   0  0  0  0  0  0  0  0  0  0  0  0
   18.6472   70.4129   -4.1528 C   0  0  0  0  0  0  0  0  0  0  0  0
   17.7633   70.0927   -3.2054 C   0  0  0  0  0  0  0  0  0  0  0  0
   16.4229   69.6133   -3.5994 C   0  0  0  0  0  0  0  0  0  0  0  0
   15.3296   69.2275   -5.2632 H   0  0  0  0  0  0  0  0  0  0  0  0
   23.5314   72.9432   -1.9014 O   0  0  0  0  0  0  0  0  0  0  0  0
   22.8212   74.3276   -1.4632 P   0  0  2  0  0  0  0  0  0  0  0  0
   23.1434   74.4252    0.1193 O   0  0  0  0  0  0  0  0  0  0  0  0
   21.3611   74.4050   -1.8038 O   0  0  0  0  0  0  0  0  0  0  0  0
   23.7270   75.4820   -2.1355 O   0  0  0  0  0  0  0  0  0  0  0  0
   23.1077   77.1611   -3.6892 O   0  0  0  0  0  0  0  0  0  0  0  0
   26.9391   76.4027   -5.0295 O   0  0  0  0  0  0  0  0  0  0  0  0
   26.3832   78.8513   -3.6355 O   0  0  0  0  0  0  0  0  0  0  0  0
   25.2730   74.2216   -4.1095 O   0  0  0  0  0  0  0  0  0  0  0  0
   25.9050   76.5450   -4.0518 C   0  0  1  0  0  0  0  0  0  0  0  0
   25.3702   77.9767   -4.1244 C   0  0  1  0  0  0  0  0  0  0  0  0
   24.7939   75.5402   -4.3505 C   0  0  2  0  0  0  0  0  0  0  0  0
   24.0864   78.1310   -3.2979 C   0  0  1  0  0  0  0  0  0  0  0  0
   23.5452   75.8126   -3.5099 C   0  0  1  0  0  0  0  0  0  0  0  0
   27.6479   77.0376   -4.8453 H   0  0  0  0  0  0  0  0  0  0  0  0
   27.1886   78.7436   -4.1656 H   0  0  0  0  0  0  0  0  0  0  0  0
   26.0633   74.0614   -4.6476 H   0  0  0  0  0  0  0  0  0  0  0  0
   23.8401   80.0174   -4.7435 O   0  0  0  0  0  0  0  0  0  0  0  0
   23.4495   79.5067   -3.4822 C   0  0  0  0  0  0  0  0  0  0  0  0
   23.4419   80.8926   -4.8747 H   0  0  0  0  0  0  0  0  0  0  0  0
 25 28  1  0
 25 24  1  0
 25 26  1  1
 25 27  2  0
  1  4  1  0
  1 24  1  0
  1  2  1  6
  1  3  2  0
  6 11  1  0
  6 12  1  0
 29 36  1  0
 29 37  1  0
  9  7  1  6
  7 13  1  0
 10  8  1  6
  8 14  1  0
 37 28  1  1
  4  5  1  0
 33 30  1  6
 30 38  1  0
 34 31  1  1
 31 39  1  0
 35 32  1  1
 32 40  1  0
 41 42  1  0
 41 43  1  0
 15 19  2  0
 16 22  2  0
 12 17  1  1
 17 19  1  0
 17 20  1  0
 18 19  1  0
 18 22  1  0
 18 23  1  0
  9 10  1  0
  9 11  1  0
 10 12  1  0
 11  5  1  1
 33 34  1  0
 33 35  1  0
 34 36  1  0
 35 37  1  0
 36 42  1  6
 20 21  2  0
 21 22  1  0
M  CHG  2   2  -1  26  -1
M  END
>  <COMPND>  (98) 
    8629 

>  <AUTHOR>  (98) 
    GENERATED BY OPEN BABEL 3.1.1

>  <MASTER>  (98) 
        0    0    0    0    0    0    0    0   58    0   58    0

>  <minimizedAffinity>  (98) 
-6.00335

>  <CNNscore>  (98) 
0.5871602893

>  <CNNaffinity>  (98) 
4.1264433861

>  <CNN_VS>  (98) 
2.4228837490

>  <CNNaffinity_variance>  (98) 
0.1932233423

$$$$
99
     RDKit          3D

 43 45  0  0  0  0  0  0  0  0999 V2000
   22.9455   71.6420   -2.8831 P   0  0  2  0  0  0  0  0  0  0  0  0
   24.3489   70.8452   -2.9973 O   0  0  0  0  0  0  0  0  0  0  0  0
   21.7606   70.7913   -2.5312 O   0  0  0  0  0  0  0  0  0  0  0  0
   22.8413   72.4476   -4.2824 O   0  0  0  0  0  0  0  0  0  0  0  0
   21.5603   72.6451   -4.8550 C   0  0  0  0  0  0  0  0  0  0  0  0
   20.7056   70.6228   -5.8315 O   0  0  0  0  0  0  0  0  0  0  0  0
   21.0979   71.9603   -8.4863 O   0  0  0  0  0  0  0  0  0  0  0  0
   18.4187   72.2467   -8.0666 O   0  0  0  0  0  0  0  0  0  0  0  0
   20.6888   72.5267   -7.2424 C   0  0  1  0  0  0  0  0  0  0  0  0
   19.2573   72.1404   -6.9343 C   0  0  2  0  0  0  0  0  0  0  0  0
   21.4551   71.8207   -6.1307 C   0  0  1  0  0  0  0  0  0  0  0  0
   19.4138   70.7071   -6.4553 C   0  0  2  0  0  0  0  0  0  0  0  0
   20.6221   72.3956   -9.2116 H   0  0  0  0  0  0  0  0  0  0  0  0
   18.3509   73.1770   -8.3327 H   0  0  0  0  0  0  0  0  0  0  0  0
   16.8478   69.7389   -7.1307 O   0  0  0  0  0  0  0  0  0  0  0  0
   15.6405   69.3178   -2.7028 O   0  0  0  0  0  0  0  0  0  0  0  0
   18.4091   70.3365   -5.4990 N   0  0  0  0  0  0  0  0  0  0  0  0
   16.2488   69.5298   -4.9254 N   0  0  0  0  0  0  0  0  0  0  0  0
   17.1525   69.8626   -5.9426 C   0  0  0  0  0  0  0  0  0  0  0  0
   18.6744   70.4441   -4.1381 C   0  0  0  0  0  0  0  0  0  0  0  0
   17.8014   70.1239   -3.1807 C   0  0  0  0  0  0  0  0  0  0  0  0
   16.4653   69.6206   -3.5595 C   0  0  0  0  0  0  0  0  0  0  0  0
   15.3667   69.1978   -5.2107 H   0  0  0  0  0  0  0  0  0  0  0  0
   23.2763   72.8096   -1.8153 O   0  0  0  0  0  0  0  0  0  0  0  0
   22.4325   74.1165   -1.3761 P   0  0  2  0  0  0  0  0  0  0  0  0
   20.9270   73.5477   -1.2100 O   0  0  0  0  0  0  0  0  0  0  0  0
   22.5558   75.2753   -2.3227 O   0  0  0  0  0  0  0  0  0  0  0  0
   22.9187   74.4292    0.1308 O   0  0  0  0  0  0  0  0  0  0  0  0
   22.8816   72.3174    1.2057 O   0  0  0  0  0  0  0  0  0  0  0  0
   24.2782   74.6246    4.3324 O   0  0  0  0  0  0  0  0  0  0  0  0
   26.0679   72.8250    2.9885 O   0  0  0  0  0  0  0  0  0  0  0  0
   22.2513   75.6775    2.5540 O   0  0  0  0  0  0  0  0  0  0  0  0
   24.1350   74.2336    2.9642 C   0  0  1  0  0  0  0  0  0  0  0  0
   24.6534   72.8016    2.8180 C   0  0  1  0  0  0  0  0  0  0  0  0
   22.6605   74.3141    2.5737 C   0  0  2  0  0  0  0  0  0  0  0  0
   24.2902   72.2185    1.4457 C   0  0  1  0  0  0  0  0  0  0  0  0
   22.3997   73.6626    1.2145 C   0  0  1  0  0  0  0  0  0  0  0  0
   25.2123   74.5762    4.5866 H   0  0  0  0  0  0  0  0  0  0  0  0
   26.2838   73.1958    3.8586 H   0  0  0  0  0  0  0  0  0  0  0  0
   22.4213   76.0785    3.4201 H   0  0  0  0  0  0  0  0  0  0  0  0
   24.7774   70.2094    2.6437 O   0  0  0  0  0  0  0  0  0  0  0  0
   24.6586   70.7404    1.3367 C   0  0  0  0  0  0  0  0  0  0  0  0
   25.0113   69.2691    2.5900 H   0  0  0  0  0  0  0  0  0  0  0  0
 25 28  1  0
 25 24  1  0
 25 26  1  1
 25 27  2  0
  1  4  1  0
  1 24  1  0
  1  2  1  6
  1  3  2  0
  6 11  1  0
  6 12  1  0
 29 36  1  0
 29 37  1  0
  9  7  1  6
  7 13  1  0
 10  8  1  6
  8 14  1  0
 37 28  1  6
  4  5  1  0
 33 30  1  1
 30 38  1  0
 34 31  1  6
 31 39  1  0
 35 32  1  6
 32 40  1  0
 41 42  1  0
 41 43  1  0
 15 19  2  0
 16 22  2  0
 12 17  1  1
 17 19  1  0
 17 20  1  0
 18 19  1  0
 18 22  1  0
 18 23  1  0
  9 10  1  0
  9 11  1  0
 10 12  1  0
 11  5  1  1
 33 34  1  0
 33 35  1  0
 34 36  1  0
 35 37  1  0
 36 42  1  1
 20 21  2  0
 21 22  1  0
M  CHG  2   2  -1  26  -1
M  END
>  <COMPND>  (99) 
    8629 

>  <AUTHOR>  (99) 
    GENERATED BY OPEN BABEL 3.1.1

>  <MASTER>  (99) 
        0    0    0    0    0    0    0    0   58    0   58    0

>  <minimizedAffinity>  (99) 
-6.93684

>  <CNNscore>  (99) 
0.5862520933

>  <CNNaffinity>  (99) 
4.1833405495

>  <CNN_VS>  (99) 
2.4524922371

>  <CNNaffinity_variance>  (99) 
0.2115202397

$$$$
100
     RDKit          3D

 43 45  0  0  0  0  0  0  0  0999 V2000
   21.9150   72.4980   -5.7040 P   0  0  2  0  0  0  0  0  0  0  0  0
   21.2493   73.8529   -5.1223 O   0  0  0  0  0  0  0  0  0  0  0  0
   23.0542   72.7102   -6.6572 O   0  0  0  0  0  0  0  0  0  0  0  0
   20.6560   71.6662   -6.2879 O   0  0  0  0  0  0  0  0  0  0  0  0
   20.2558   71.8972   -7.6274 C   0  0  0  0  0  0  0  0  0  0  0  0
   18.9564   69.9720   -7.0115 O   0  0  0  0  0  0  0  0  0  0  0  0
   18.0905   69.8714   -9.8805 O   0  0  0  0  0  0  0  0  0  0  0  0
   15.9497   71.0328   -8.6539 O   0  0  0  0  0  0  0  0  0  0  0  0
   18.3476   71.0062   -9.0550 C   0  0  1  0  0  0  0  0  0  0  0  0
   17.2215   71.1991   -8.0609 C   0  0  2  0  0  0  0  0  0  0  0  0
   19.5213   70.6678   -8.1443 C   0  0  1  0  0  0  0  0  0  0  0  0
   17.5282   70.1300   -7.0259 C   0  0  2  0  0  0  0  0  0  0  0  0
   17.3449   70.0638  -10.4712 H   0  0  0  0  0  0  0  0  0  0  0  0
   15.8017   71.7368   -9.3045 H   0  0  0  0  0  0  0  0  0  0  0  0
   16.5415   68.3089   -5.1055 O   0  0  0  0  0  0  0  0  0  0  0  0
   15.8611   71.6569   -2.0121 O   0  0  0  0  0  0  0  0  0  0  0  0
   17.0866   70.4985   -5.7104 N   0  0  0  0  0  0  0  0  0  0  0  0
   16.2037   69.9774   -3.5667 N   0  0  0  0  0  0  0  0  0  0  0  0
   16.6077   69.5070   -4.8227 C   0  0  0  0  0  0  0  0  0  0  0  0
   17.1312   71.8301   -5.3121 C   0  0  0  0  0  0  0  0  0  0  0  0
   16.7410   72.2626   -4.1113 C   0  0  0  0  0  0  0  0  0  0  0  0
   16.2276   71.2906   -3.1244 C   0  0  0  0  0  0  0  0  0  0  0  0
   15.8660   69.3046   -2.9318 H   0  0  0  0  0  0  0  0  0  0  0  0
   22.3018   71.6792   -4.3650 O   0  0  0  0  0  0  0  0  0  0  0  0
   23.3594   72.0085   -3.1876 P   0  0  2  0  0  0  0  0  0  0  0  0
   24.0398   73.3925   -3.6765 O   0  0  0  0  0  0  0  0  0  0  0  0
   24.3359   70.9024   -2.9106 O   0  0  0  0  0  0  0  0  0  0  0  0
   22.4467   72.4271   -1.9240 O   0  0  0  0  0  0  0  0  0  0  0  0
   21.8602   71.2839    0.0675 O   0  0  0  0  0  0  0  0  0  0  0  0
   18.2346   73.0815   -0.7537 O   0  0  0  0  0  0  0  0  0  0  0  0
   19.8366   74.0504    1.4241 O   0  0  0  0  0  0  0  0  0  0  0  0
   19.8508   72.0367   -2.9160 O   0  0  0  0  0  0  0  0  0  0  0  0
   19.6608   72.9851   -0.7101 C   0  0  1  0  0  0  0  0  0  0  0  0
   20.0859   72.8199    0.7503 C   0  0  1  0  0  0  0  0  0  0  0  0
   20.1053   71.7813   -1.5389 C   0  0  2  0  0  0  0  0  0  0  0  0
   21.5700   72.4439    0.8561 C   0  0  1  0  0  0  0  0  0  0  0  0
   21.5859   71.4629   -1.3234 C   0  0  1  0  0  0  0  0  0  0  0  0
   17.9458   73.8442   -0.2298 H   0  0  0  0  0  0  0  0  0  0  0  0
   18.8961   74.2766    1.3493 H   0  0  0  0  0  0  0  0  0  0  0  0
   18.9102   72.2366   -3.0393 H   0  0  0  0  0  0  0  0  0  0  0  0
   20.8042   71.8884    3.0501 O   0  0  0  0  0  0  0  0  0  0  0  0
   21.9771   72.1204    2.2920 C   0  0  0  0  0  0  0  0  0  0  0  0
   21.0479   71.6810    3.9663 H   0  0  0  0  0  0  0  0  0  0  0  0
 25 28  1  0
 25 24  1  0
 25 26  1  6
 25 27  2  0
  1  4  1  0
  1 24  1  0
  1  2  1  1
  1  3  2  0
  6 11  1  0
  6 12  1  0
 29 36  1  0
 29 37  1  0
  9  7  1  6
  7 13  1  0
 10  8  1  6
  8 14  1  0
 37 28  1  1
  4  5  1  0
 33 30  1  1
 30 38  1  0
 34 31  1  1
 31 39  1  0
 35 32  1  6
 32 40  1  0
 41 42  1  0
 41 43  1  0
 15 19  2  0
 16 22  2  0
 12 17  1  1
 17 19  1  0
 17 20  1  0
 18 19  1  0
 18 22  1  0
 18 23  1  0
  9 10  1  0
  9 11  1  0
 10 12  1  0
 11  5  1  1
 33 34  1  0
 33 35  1  0
 34 36  1  0
 35 37  1  0
 36 42  1  1
 20 21  2  0
 21 22  1  0
M  CHG  2   2  -1  26  -1
M  END
>  <COMPND>  (100) 
    8629 

>  <AUTHOR>  (100) 
    GENERATED BY OPEN BABEL 3.1.1

>  <MASTER>  (100) 
        0    0    0    0    0    0    0    0   58    0   58    0

>  <minimizedAffinity>  (100) 
-7.35360

>  <CNNscore>  (100) 
0.5861395001

>  <CNNaffinity>  (100) 
4.2539873123

>  <CNN_VS>  (100) 
2.4934298992

>  <CNNaffinity_variance>  (100) 
0.5225853920

$$$$
101
     RDKit          3D

 43 45  0  0  0  0  0  0  0  0999 V2000
   22.7843   71.5912   -2.6379 P   0  0  2  0  0  0  0  0  0  0  0  0
   24.1939   70.9460   -3.1005 O   0  0  0  0  0  0  0  0  0  0  0  0
   22.3114   71.1713   -1.2772 O   0  0  0  0  0  0  0  0  0  0  0  0
   21.7830   71.2566   -3.8640 O   0  0  0  0  0  0  0  0  0  0  0  0
   20.8331   70.2185   -3.6971 C   0  0  0  0  0  0  0  0  0  0  0  0
   19.0587   71.5409   -4.6334 O   0  0  0  0  0  0  0  0  0  0  0  0
   17.3333   70.4376   -2.4434 O   0  0  0  0  0  0  0  0  0  0  0  0
   16.6061   68.9244   -4.5923 O   0  0  0  0  0  0  0  0  0  0  0  0
   18.3781   69.8003   -3.1765 C   0  0  1  0  0  0  0  0  0  0  0  0
   17.9101   69.4686   -4.5782 C   0  0  2  0  0  0  0  0  0  0  0  0
   19.4648   70.8350   -3.4405 C   0  0  1  0  0  0  0  0  0  0  0  0
   17.9863   70.8220   -5.2643 C   0  0  2  0  0  0  0  0  0  0  0  0
   16.6276   69.7963   -2.2626 H   0  0  0  0  0  0  0  0  0  0  0  0
   16.6098   68.0642   -4.1444 H   0  0  0  0  0  0  0  0  0  0  0  0
   16.0413   70.2614   -7.2342 O   0  0  0  0  0  0  0  0  0  0  0  0
   19.1634   70.4116  -10.6211 O   0  0  0  0  0  0  0  0  0  0  0  0
   18.2631   70.7094   -6.6686 N   0  0  0  0  0  0  0  0  0  0  0  0
   17.5974   70.3368   -8.9190 N   0  0  0  0  0  0  0  0  0  0  0  0
   17.2149   70.4240   -7.5743 C   0  0  0  0  0  0  0  0  0  0  0  0
   19.5619   70.8815   -7.1349 C   0  0  0  0  0  0  0  0  0  0  0  0
   19.9103   70.7939   -8.4203 C   0  0  0  0  0  0  0  0  0  0  0  0
   18.8748   70.4987   -9.4315 C   0  0  0  0  0  0  0  0  0  0  0  0
   16.8839   70.1385   -9.5682 H   0  0  0  0  0  0  0  0  0  0  0  0
   23.0404   73.1789   -2.8008 O   0  0  0  0  0  0  0  0  0  0  0  0
   22.0050   74.4117   -2.9467 P   0  0  2  0  0  0  0  0  0  0  0  0
   22.6777   75.5705   -2.0400 O   0  0  0  0  0  0  0  0  0  0  0  0
   20.5907   74.0751   -2.5721 O   0  0  0  0  0  0  0  0  0  0  0  0
   22.1908   74.9236   -4.4661 O   0  0  0  0  0  0  0  0  0  0  0  0
   20.5114   75.3591   -6.0805 O   0  0  0  0  0  0  0  0  0  0  0  0
   23.4978   73.9970   -8.5859 O   0  0  0  0  0  0  0  0  0  0  0  0
   22.8336   76.7910   -8.5596 O   0  0  0  0  0  0  0  0  0  0  0  0
   23.1070   72.7587   -5.9988 O   0  0  0  0  0  0  0  0  0  0  0  0
   22.9610   74.6770   -7.4480 C   0  0  1  0  0  0  0  0  0  0  0  0
   22.0317   75.7856   -7.9461 C   0  0  1  0  0  0  0  0  0  0  0  0
   22.1919   73.6774   -6.5862 C   0  0  2  0  0  0  0  0  0  0  0  0
   21.2148   76.3836   -6.7928 C   0  0  1  0  0  0  0  0  0  0  0  0
   21.3747   74.3795   -5.5001 C   0  0  1  0  0  0  0  0  0  0  0  0
   23.9878   74.6260   -9.1371 H   0  0  0  0  0  0  0  0  0  0  0  0
   23.3446   76.4002   -9.2858 H   0  0  0  0  0  0  0  0  0  0  0  0
   23.6180   72.3207   -6.6965 H   0  0  0  0  0  0  0  0  0  0  0  0
   19.8637   77.0767   -8.6374 O   0  0  0  0  0  0  0  0  0  0  0  0
   20.1694   77.3801   -7.2889 C   0  0  0  0  0  0  0  0  0  0  0  0
   19.1992   77.7028   -8.9665 H   0  0  0  0  0  0  0  0  0  0  0  0
 25 28  1  0
 25 24  1  0
 25 26  1  1
 25 27  2  0
  1  4  1  0
  1 24  1  0
  1  2  1  6
  1  3  2  0
  6 11  1  0
  6 12  1  0
 29 36  1  0
 29 37  1  0
  9  7  1  1
  7 13  1  0
 10  8  1  1
  8 14  1  0
 37 28  1  1
  4  5  1  0
 33 30  1  6
 30 38  1  0
 34 31  1  1
 31 39  1  0
 35 32  1  1
 32 40  1  0
 41 42  1  0
 41 43  1  0
 15 19  2  0
 16 22  2  0
 12 17  1  6
 17 19  1  0
 17 20  1  0
 18 19  1  0
 18 22  1  0
 18 23  1  0
  9 10  1  0
  9 11  1  0
 10 12  1  0
 11  5  1  6
 33 34  1  0
 33 35  1  0
 34 36  1  0
 35 37  1  0
 36 42  1  6
 20 21  2  0
 21 22  1  0
M  CHG  2   2  -1  26  -1
M  END
>  <COMPND>  (101) 
    8629 

>  <AUTHOR>  (101) 
    GENERATED BY OPEN BABEL 3.1.1

>  <MASTER>  (101) 
        0    0    0    0    0    0    0    0   58    0   58    0

>  <minimizedAffinity>  (101) 
-7.24582

>  <CNNscore>  (101) 
0.8988773227

>  <CNNaffinity>  (101) 
4.6631593704

>  <CNN_VS>  (101) 
4.1916084290

>  <CNNaffinity_variance>  (101) 
0.3095311821

$$$$
102
     RDKit          3D

 43 45  0  0  0  0  0  0  0  0999 V2000
   22.8109   71.7273   -3.3990 P   0  0  2  0  0  0  0  0  0  0  0  0
   22.4633   71.8232   -4.9762 O   0  0  0  0  0  0  0  0  0  0  0  0
   24.1581   71.1481   -3.0810 O   0  0  0  0  0  0  0  0  0  0  0  0
   21.5430   70.9443   -2.7688 O   0  0  0  0  0  0  0  0  0  0  0  0
   20.6469   70.2892   -3.6496 C   0  0  0  0  0  0  0  0  0  0  0  0
   18.8465   71.5358   -4.6387 O   0  0  0  0  0  0  0  0  0  0  0  0
   17.1035   70.3518   -2.5054 O   0  0  0  0  0  0  0  0  0  0  0  0
   16.5104   68.8148   -4.6785 O   0  0  0  0  0  0  0  0  0  0  0  0
   18.1975   69.7628   -3.2066 C   0  0  1  0  0  0  0  0  0  0  0  0
   17.7884   69.4153   -4.6228 C   0  0  2  0  0  0  0  0  0  0  0  0
   19.2457   70.8447   -3.4348 C   0  0  1  0  0  0  0  0  0  0  0  0
   17.8267   70.7727   -5.3039 C   0  0  2  0  0  0  0  0  0  0  0  0
   16.4212   69.6798   -2.3478 H   0  0  0  0  0  0  0  0  0  0  0  0
   16.5377   67.9541   -4.2321 H   0  0  0  0  0  0  0  0  0  0  0  0
   15.9590   70.1901   -7.3411 O   0  0  0  0  0  0  0  0  0  0  0  0
   19.1874   70.4270  -10.6217 O   0  0  0  0  0  0  0  0  0  0  0  0
   18.1518   70.6764   -6.6991 N   0  0  0  0  0  0  0  0  0  0  0  0
   17.5680   70.3087   -8.9729 N   0  0  0  0  0  0  0  0  0  0  0  0
   17.1398   70.3780   -7.6411 C   0  0  0  0  0  0  0  0  0  0  0  0
   19.4616   70.8772   -7.1209 C   0  0  0  0  0  0  0  0  0  0  0  0
   19.8538   70.8064   -8.3947 C   0  0  0  0  0  0  0  0  0  0  0  0
   18.8582   70.4992   -9.4417 C   0  0  0  0  0  0  0  0  0  0  0  0
   16.8803   70.1017   -9.6468 H   0  0  0  0  0  0  0  0  0  0  0  0
   22.5928   73.2445   -2.8858 O   0  0  0  0  0  0  0  0  0  0  0  0
   23.6572   74.3898   -2.4758 P   0  0  2  0  0  0  0  0  0  0  0  0
   22.7341   75.7058   -2.2925 O   0  0  0  0  0  0  0  0  0  0  0  0
   24.7871   74.5569   -3.4502 O   0  0  0  0  0  0  0  0  0  0  0  0
   24.1173   74.0027   -0.9780 O   0  0  0  0  0  0  0  0  0  0  0  0
   22.1106   73.8410    0.2724 O   0  0  0  0  0  0  0  0  0  0  0  0
   24.8222   72.9625    3.2600 O   0  0  0  0  0  0  0  0  0  0  0  0
   23.1763   70.8718    2.1794 O   0  0  0  0  0  0  0  0  0  0  0  0
   25.4527   74.9842    1.2865 O   0  0  0  0  0  0  0  0  0  0  0  0
   24.3091   72.9629    1.9251 C   0  0  1  0  0  0  0  0  0  0  0  0
   22.9517   72.2571    1.9329 C   0  0  1  0  0  0  0  0  0  0  0  0
   24.1617   74.4064    1.4474 C   0  0  2  0  0  0  0  0  0  0  0  0
   22.2191   72.4504    0.5983 C   0  0  1  0  0  0  0  0  0  0  0  0
   23.3762   74.4904    0.1374 C   0  0  1  0  0  0  0  0  0  0  0  0
   24.9186   72.0489    3.5692 H   0  0  0  0  0  0  0  0  0  0  0  0
   23.6399   70.7636    3.0247 H   0  0  0  0  0  0  0  0  0  0  0  0
   25.9398   74.9251    2.1227 H   0  0  0  0  0  0  0  0  0  0  0  0
   20.8470   70.5195    0.2856 O   0  0  0  0  0  0  0  0  0  0  0  0
   20.7993   71.8896    0.6388 C   0  0  0  0  0  0  0  0  0  0  0  0
   19.9503   70.1491    0.3074 H   0  0  0  0  0  0  0  0  0  0  0  0
 25 28  1  0
 25 24  1  0
 25 26  1  1
 25 27  2  0
  1  4  1  0
  1 24  1  0
  1  2  1  6
  1  3  2  0
  6 11  1  0
  6 12  1  0
 29 36  1  0
 29 37  1  0
  9  7  1  1
  7 13  1  0
 10  8  1  1
  8 14  1  0
 37 28  1  6
  4  5  1  0
 33 30  1  1
 30 38  1  0
 34 31  1  6
 31 39  1  0
 35 32  1  6
 32 40  1  0
 41 42  1  0
 41 43  1  0
 15 19  2  0
 16 22  2  0
 12 17  1  6
 17 19  1  0
 17 20  1  0
 18 19  1  0
 18 22  1  0
 18 23  1  0
  9 10  1  0
  9 11  1  0
 10 12  1  0
 11  5  1  6
 33 34  1  0
 33 35  1  0
 34 36  1  0
 35 37  1  0
 36 42  1  1
 20 21  2  0
 21 22  1  0
M  CHG  2   2  -1  26  -1
M  END
>  <COMPND>  (102) 
    8629 

>  <AUTHOR>  (102) 
    GENERATED BY OPEN BABEL 3.1.1

>  <MASTER>  (102) 
        0    0    0    0    0    0    0    0   58    0   58    0

>  <minimizedAffinity>  (102) 
-7.36341

>  <CNNscore>  (102) 
0.8978945613

>  <CNNaffinity>  (102) 
4.7537946701

>  <CNN_VS>  (102) 
4.2684063911

>  <CNNaffinity_variance>  (102) 
0.0335425772

$$$$
103
     RDKit          3D

 43 45  0  0  0  0  0  0  0  0999 V2000
   20.6436   71.2837   -1.0739 P   0  0  2  0  0  0  0  0  0  0  0  0
   20.6891   70.6060    0.3945 O   0  0  0  0  0  0  0  0  0  0  0  0
   20.2248   72.7244   -1.0943 O   0  0  0  0  0  0  0  0  0  0  0  0
   19.7244   70.2725   -1.9401 O   0  0  0  0  0  0  0  0  0  0  0  0
   19.4132   70.6197   -3.2781 C   0  0  0  0  0  0  0  0  0  0  0  0
   17.6784   71.5778   -4.6370 O   0  0  0  0  0  0  0  0  0  0  0  0
   15.7555   69.9900   -2.9719 O   0  0  0  0  0  0  0  0  0  0  0  0
   15.9551   68.4910   -5.2412 O   0  0  0  0  0  0  0  0  0  0  0  0
   17.0676   69.6433   -3.4120 C   0  0  1  0  0  0  0  0  0  0  0  0
   17.0548   69.3052   -4.8882 C   0  0  2  0  0  0  0  0  0  0  0  0
   17.9212   70.9050   -3.3821 C   0  0  1  0  0  0  0  0  0  0  0  0
   16.9912   70.6824   -5.5264 C   0  0  2  0  0  0  0  0  0  0  0  0
   15.1919   69.2000   -2.9822 H   0  0  0  0  0  0  0  0  0  0  0  0
   16.0415   67.6262   -4.8106 H   0  0  0  0  0  0  0  0  0  0  0  0
   15.6705   70.2169   -7.9793 O   0  0  0  0  0  0  0  0  0  0  0  0
   19.5433   70.8531  -10.3954 O   0  0  0  0  0  0  0  0  0  0  0  0
   17.6301   70.7205   -6.8116 N   0  0  0  0  0  0  0  0  0  0  0  0
   17.5999   70.5343   -9.1803 N   0  0  0  0  0  0  0  0  0  0  0  0
   16.8767   70.4713   -7.9824 C   0  0  0  0  0  0  0  0  0  0  0  0
   18.9887   71.0029   -6.9021 C   0  0  0  0  0  0  0  0  0  0  0  0
   19.6638   71.0580   -8.0520 C   0  0  0  0  0  0  0  0  0  0  0  0
   18.9507   70.8098   -9.3217 C   0  0  0  0  0  0  0  0  0  0  0  0
   17.0958   70.3637  -10.0089 H   0  0  0  0  0  0  0  0  0  0  0  0
   22.1290   71.0068   -1.6482 O   0  0  0  0  0  0  0  0  0  0  0  0
   23.2142   72.0050   -2.3107 P   0  0  2  0  0  0  0  0  0  0  0  0
   24.2601   70.9965   -3.0224 O   0  0  0  0  0  0  0  0  0  0  0  0
   23.8411   72.9639   -1.3405 O   0  0  0  0  0  0  0  0  0  0  0  0
   22.4295   72.7080   -3.5334 O   0  0  0  0  0  0  0  0  0  0  0  0
   23.1996   73.8838   -5.4415 O   0  0  0  0  0  0  0  0  0  0  0  0
   19.9124   76.2058   -4.5179 O   0  0  0  0  0  0  0  0  0  0  0  0
   19.8307   74.4818   -6.8134 O   0  0  0  0  0  0  0  0  0  0  0  0
   21.5553   75.1200   -2.3963 O   0  0  0  0  0  0  0  0  0  0  0  0
   20.6605   74.9920   -4.6288 C   0  0  1  0  0  0  0  0  0  0  0  0
   21.0260   74.7867   -6.1002 C   0  0  1  0  0  0  0  0  0  0  0  0
   21.9203   75.1020   -3.7721 C   0  0  2  0  0  0  0  0  0  0  0  0
   22.0495   73.6550   -6.2641 C   0  0  1  0  0  0  0  0  0  0  0  0
   22.8928   73.9538   -4.0477 C   0  0  1  0  0  0  0  0  0  0  0  0
   19.1108   76.1423   -5.0592 H   0  0  0  0  0  0  0  0  0  0  0  0
   19.1928   75.2040   -6.7013 H   0  0  0  0  0  0  0  0  0  0  0  0
   20.9398   75.8514   -2.2347 H   0  0  0  0  0  0  0  0  0  0  0  0
   22.4235   74.8028   -8.3260 O   0  0  0  0  0  0  0  0  0  0  0  0
   22.5466   73.5374   -7.7032 C   0  0  0  0  0  0  0  0  0  0  0  0
   22.7365   74.7431   -9.2427 H   0  0  0  0  0  0  0  0  0  0  0  0
 25 28  1  0
 25 24  1  0
 25 26  1  6
 25 27  2  0
  1  4  1  0
  1 24  1  0
  1  2  1  1
  1  3  2  0
  6 11  1  0
  6 12  1  0
 29 36  1  0
 29 37  1  0
  9  7  1  6
  7 13  1  0
 10  8  1  1
  8 14  1  0
 37 28  1  6
  4  5  1  0
 33 30  1  6
 30 38  1  0
 34 31  1  6
 31 39  1  0
 35 32  1  1
 32 40  1  0
 41 42  1  0
 41 43  1  0
 15 19  2  0
 16 22  2  0
 12 17  1  6
 17 19  1  0
 17 20  1  0
 18 19  1  0
 18 22  1  0
 18 23  1  0
  9 10  1  0
  9 11  1  0
 10 12  1  0
 11  5  1  6
 33 34  1  0
 33 35  1  0
 34 36  1  0
 35 37  1  0
 36 42  1  6
 20 21  2  0
 21 22  1  0
M  CHG  2   2  -1  26  -1
M  END
>  <COMPND>  (103) 
    8629 

>  <AUTHOR>  (103) 
    GENERATED BY OPEN BABEL 3.1.1

>  <MASTER>  (103) 
        0    0    0    0    0    0    0    0   58    0   58    0

>  <minimizedAffinity>  (103) 
-7.70484

>  <CNNscore>  (103) 
0.8963145614

>  <CNNaffinity>  (103) 
4.5796012878

>  <CNN_VS>  (103) 
4.1047635078

>  <CNNaffinity_variance>  (103) 
0.4273374081

$$$$
104
     RDKit          3D

 43 45  0  0  0  0  0  0  0  0999 V2000
   21.3252   73.4128   -4.5661 P   0  0  2  0  0  0  0  0  0  0  0  0
   21.8980   74.7114   -3.7896 O   0  0  0  0  0  0  0  0  0  0  0  0
   21.3397   73.5121   -6.0632 O   0  0  0  0  0  0  0  0  0  0  0  0
   19.8751   73.1656   -3.8922 O   0  0  0  0  0  0  0  0  0  0  0  0
   19.5302   71.8504   -3.4936 C   0  0  0  0  0  0  0  0  0  0  0  0
   17.5821   72.0118   -4.8911 O   0  0  0  0  0  0  0  0  0  0  0  0
   16.1945   70.3334   -2.8300 O   0  0  0  0  0  0  0  0  0  0  0  0
   16.7757   68.5189   -4.7810 O   0  0  0  0  0  0  0  0  0  0  0  0
   17.5460   70.2719   -3.2826 C   0  0  1  0  0  0  0  0  0  0  0  0
   17.6104   69.6530   -4.6634 C   0  0  2  0  0  0  0  0  0  0  0  0
   18.0165   71.6961   -3.5502 C   0  0  1  0  0  0  0  0  0  0  0  0
   17.1600   70.8045   -5.5461 C   0  0  2  0  0  0  0  0  0  0  0  0
   15.8720   69.4354   -2.6522 H   0  0  0  0  0  0  0  0  0  0  0  0
   17.1035   67.8144   -4.2005 H   0  0  0  0  0  0  0  0  0  0  0  0
   15.7051   70.4167   -7.9358 O   0  0  0  0  0  0  0  0  0  0  0  0
   19.5225   70.6265  -10.5096 O   0  0  0  0  0  0  0  0  0  0  0  0
   17.7483   70.7539   -6.8548 N   0  0  0  0  0  0  0  0  0  0  0  0
   17.6070   70.5217   -9.2154 N   0  0  0  0  0  0  0  0  0  0  0  0
   16.9290   70.5537   -7.9902 C   0  0  0  0  0  0  0  0  0  0  0  0
   19.1231   70.9024   -7.0029 C   0  0  0  0  0  0  0  0  0  0  0  0
   19.7544   70.8681   -8.1782 C   0  0  0  0  0  0  0  0  0  0  0  0
   18.9713   70.6630   -9.4139 C   0  0  0  0  0  0  0  0  0  0  0  0
   17.0566   70.3829  -10.0202 H   0  0  0  0  0  0  0  0  0  0  0  0
   22.2164   72.2065   -3.9632 O   0  0  0  0  0  0  0  0  0  0  0  0
   23.6462   72.2171   -3.2092 P   0  0  2  0  0  0  0  0  0  0  0  0
   24.4717   73.3652   -3.9952 O   0  0  0  0  0  0  0  0  0  0  0  0
   24.3300   70.8812   -3.1677 O   0  0  0  0  0  0  0  0  0  0  0  0
   23.3387   72.8563   -1.7594 O   0  0  0  0  0  0  0  0  0  0  0  0
   22.9749   71.2884   -0.0199 O   0  0  0  0  0  0  0  0  0  0  0  0
   21.5149   74.6784    1.8314 O   0  0  0  0  0  0  0  0  0  0  0  0
   24.0270   73.5720    2.6759 O   0  0  0  0  0  0  0  0  0  0  0  0
   21.0281   74.2507   -0.9899 O   0  0  0  0  0  0  0  0  0  0  0  0
   22.3851   73.9339    0.9747 C   0  0  1  0  0  0  0  0  0  0  0  0
   23.1134   72.8888    1.8221 C   0  0  1  0  0  0  0  0  0  0  0  0
   21.5548   73.2587   -0.1152 C   0  0  2  0  0  0  0  0  0  0  0  0
   23.8600   71.8810    0.9378 C   0  0  1  0  0  0  0  0  0  0  0  0
   22.3795   72.2401   -0.9041 C   0  0  1  0  0  0  0  0  0  0  0  0
   22.0360   75.1101    2.5254 H   0  0  0  0  0  0  0  0  0  0  0  0
   23.5430   74.2055    3.2286 H   0  0  0  0  0  0  0  0  0  0  0  0
   20.5079   74.8892   -0.4785 H   0  0  0  0  0  0  0  0  0  0  0  0
   25.8367   71.0109    1.9596 O   0  0  0  0  0  0  0  0  0  0  0  0
   24.4624   70.7398    1.7543 C   0  0  0  0  0  0  0  0  0  0  0  0
   26.2333   70.2930    2.4783 H   0  0  0  0  0  0  0  0  0  0  0  0
 25 28  1  0
 25 24  1  0
 25 26  1  6
 25 27  2  0
  1  4  1  0
  1 24  1  0
  1  2  1  1
  1  3  2  0
  6 11  1  0
  6 12  1  0
 29 36  1  0
 29 37  1  0
  9  7  1  6
  7 13  1  0
 10  8  1  1
  8 14  1  0
 37 28  1  1
  4  5  1  0
 33 30  1  1
 30 38  1  0
 34 31  1  1
 31 39  1  0
 35 32  1  6
 32 40  1  0
 41 42  1  0
 41 43  1  0
 15 19  2  0
 16 22  2  0
 12 17  1  6
 17 19  1  0
 17 20  1  0
 18 19  1  0
 18 22  1  0
 18 23  1  0
  9 10  1  0
  9 11  1  0
 10 12  1  0
 11  5  1  6
 33 34  1  0
 33 35  1  0
 34 36  1  0
 35 37  1  0
 36 42  1  1
 20 21  2  0
 21 22  1  0
M  CHG  2   2  -1  26  -1
M  END
>  <COMPND>  (104) 
    8629 

>  <AUTHOR>  (104) 
    GENERATED BY OPEN BABEL 3.1.1

>  <MASTER>  (104) 
        0    0    0    0    0    0    0    0   58    0   58    0

>  <minimizedAffinity>  (104) 
-7.25163

>  <CNNscore>  (104) 
0.8807500601

>  <CNNaffinity>  (104) 
4.6631460190

>  <CNN_VS>  (104) 
4.1070661545

>  <CNNaffinity_variance>  (104) 
0.0286741145

$$$$
105
     RDKit          3D

 43 45  0  0  0  0  0  0  0  0999 V2000
   23.1608   71.7603   -3.1771 P   0  0  2  0  0  0  0  0  0  0  0  0
   22.9617   72.2517   -4.7056 O   0  0  0  0  0  0  0  0  0  0  0  0
   24.3378   70.8578   -2.9497 O   0  0  0  0  0  0  0  0  0  0  0  0
   21.7181   71.1483   -2.7748 O   0  0  0  0  0  0  0  0  0  0  0  0
   20.8794   70.6593   -3.8069 C   0  0  0  0  0  0  0  0  0  0  0  0
   18.9849   71.7654   -4.7874 O   0  0  0  0  0  0  0  0  0  0  0  0
   17.3778   70.5993   -2.5406 O   0  0  0  0  0  0  0  0  0  0  0  0
   16.7926   68.9320   -4.6178 O   0  0  0  0  0  0  0  0  0  0  0  0
   18.4767   70.0328   -3.2526 C   0  0  1  0  0  0  0  0  0  0  0  0
   18.0389   69.5977   -4.6356 C   0  0  2  0  0  0  0  0  0  0  0  0
   19.4593   71.1536   -3.5680 C   0  0  1  0  0  0  0  0  0  0  0  0
   17.9842   70.9212   -5.3797 C   0  0  2  0  0  0  0  0  0  0  0  0
   16.7368   69.9022   -2.3278 H   0  0  0  0  0  0  0  0  0  0  0  0
   16.8792   68.0962   -4.1333 H   0  0  0  0  0  0  0  0  0  0  0  0
   16.0576   70.2586   -7.3359 O   0  0  0  0  0  0  0  0  0  0  0  0
   19.1835   70.3838  -10.7203 O   0  0  0  0  0  0  0  0  0  0  0  0
   18.2670   70.7745   -6.7797 N   0  0  0  0  0  0  0  0  0  0  0  0
   17.6156   70.3216   -9.0195 N   0  0  0  0  0  0  0  0  0  0  0  0
   17.2280   70.4387   -7.6786 C   0  0  0  0  0  0  0  0  0  0  0  0
   19.5625   70.9634   -7.2485 C   0  0  0  0  0  0  0  0  0  0  0  0
   19.9160   70.8468   -8.5302 C   0  0  0  0  0  0  0  0  0  0  0  0
   18.8901   70.4984   -9.5343 C   0  0  0  0  0  0  0  0  0  0  0  0
   16.9085   70.0880   -9.6639 H   0  0  0  0  0  0  0  0  0  0  0  0
   23.2090   73.1495   -2.3520 O   0  0  0  0  0  0  0  0  0  0  0  0
   22.0241   74.0579   -1.7324 P   0  0  2  0  0  0  0  0  0  0  0  0
   22.7305   75.4987   -1.5258 O   0  0  0  0  0  0  0  0  0  0  0  0
   21.3992   73.4908   -0.4908 O   0  0  0  0  0  0  0  0  0  0  0  0
   20.9965   74.2797   -2.9571 O   0  0  0  0  0  0  0  0  0  0  0  0
   21.6269   75.3967   -4.9499 O   0  0  0  0  0  0  0  0  0  0  0  0
   17.5543   76.0666   -5.0780 O   0  0  0  0  0  0  0  0  0  0  0  0
   18.7411   74.1925   -6.9021 O   0  0  0  0  0  0  0  0  0  0  0  0
   18.9541   76.1597   -2.5459 O   0  0  0  0  0  0  0  0  0  0  0  0
   18.7447   75.3258   -4.7958 C   0  0  1  0  0  0  0  0  0  0  0  0
   19.4957   75.1059   -6.1105 C   0  0  1  0  0  0  0  0  0  0  0  0
   19.6039   76.1175   -3.8118 C   0  0  2  0  0  0  0  0  0  0  0  0
   20.9057   74.5555   -5.8577 C   0  0  1  0  0  0  0  0  0  0  0  0
   21.0022   75.5137   -3.6701 C   0  0  1  0  0  0  0  0  0  0  0  0
   17.0041   75.5692   -5.7020 H   0  0  0  0  0  0  0  0  0  0  0  0
   17.8528   74.5518   -7.0541 H   0  0  0  0  0  0  0  0  0  0  0  0
   18.0701   76.5442   -2.6490 H   0  0  0  0  0  0  0  0  0  0  0  0
   23.0994   74.4231   -6.7952 O   0  0  0  0  0  0  0  0  0  0  0  0
   21.7279   74.4771   -7.1422 C   0  0  0  0  0  0  0  0  0  0  0  0
   23.6349   74.3727   -7.6030 H   0  0  0  0  0  0  0  0  0  0  0  0
 25 28  1  0
 25 24  1  0
 25 26  1  1
 25 27  2  0
  1  4  1  0
  1 24  1  0
  1  2  1  6
  1  3  2  0
  6 11  1  0
  6 12  1  0
 29 36  1  0
 29 37  1  0
  9  7  1  1
  7 13  1  0
 10  8  1  1
  8 14  1  0
 37 28  1  6
  4  5  1  0
 33 30  1  6
 30 38  1  0
 34 31  1  6
 31 39  1  0
 35 32  1  1
 32 40  1  0
 41 42  1  0
 41 43  1  0
 15 19  2  0
 16 22  2  0
 12 17  1  6
 17 19  1  0
 17 20  1  0
 18 19  1  0
 18 22  1  0
 18 23  1  0
  9 10  1  0
  9 11  1  0
 10 12  1  0
 11  5  1  6
 33 34  1  0
 33 35  1  0
 34 36  1  0
 35 37  1  0
 36 42  1  6
 20 21  2  0
 21 22  1  0
M  CHG  2   2  -1  26  -1
M  END
>  <COMPND>  (105) 
    8629 

>  <AUTHOR>  (105) 
    GENERATED BY OPEN BABEL 3.1.1

>  <MASTER>  (105) 
        0    0    0    0    0    0    0    0   58    0   58    0

>  <minimizedAffinity>  (105) 
-6.53138

>  <CNNscore>  (105) 
0.8778498769

>  <CNNaffinity>  (105) 
4.4446001053

>  <CNN_VS>  (105) 
3.9016916752

>  <CNNaffinity_variance>  (105) 
0.2985095084

$$$$
106
     RDKit          3D

 43 45  0  0  0  0  0  0  0  0999 V2000
   21.7960   72.5282   -5.4357 P   0  0  2  0  0  0  0  0  0  0  0  0
   21.0815   73.9391   -5.0949 O   0  0  0  0  0  0  0  0  0  0  0  0
   23.0645   72.6358   -6.2299 O   0  0  0  0  0  0  0  0  0  0  0  0
   20.6172   71.6488   -6.1102 O   0  0  0  0  0  0  0  0  0  0  0  0
   20.2076   71.9655   -7.4291 C   0  0  0  0  0  0  0  0  0  0  0  0
   18.9702   69.9550   -6.9811 O   0  0  0  0  0  0  0  0  0  0  0  0
   18.1977   70.0078   -9.8779 O   0  0  0  0  0  0  0  0  0  0  0  0
   15.9743   71.0023   -8.6515 O   0  0  0  0  0  0  0  0  0  0  0  0
   18.3824   71.0955   -8.9734 C   0  0  1  0  0  0  0  0  0  0  0  0
   17.2193   71.1791   -8.0070 C   0  0  2  0  0  0  0  0  0  0  0  0
   19.5405   70.7446   -8.0477 C   0  0  1  0  0  0  0  0  0  0  0  0
   17.5379   70.0577   -7.0329 C   0  0  2  0  0  0  0  0  0  0  0  0
   17.4632   70.2090  -10.4796 H   0  0  0  0  0  0  0  0  0  0  0  0
   15.8174   71.7408   -9.2604 H   0  0  0  0  0  0  0  0  0  0  0  0
   16.2846   68.1363   -5.3850 O   0  0  0  0  0  0  0  0  0  0  0  0
   15.6711   71.1854   -1.9839 O   0  0  0  0  0  0  0  0  0  0  0  0
   17.0413   70.3221   -5.7119 N   0  0  0  0  0  0  0  0  0  0  0  0
   15.9803   69.6560   -3.6928 N   0  0  0  0  0  0  0  0  0  0  0  0
   16.4274   69.2876   -4.9681 C   0  0  0  0  0  0  0  0  0  0  0  0
   17.1656   71.5954   -5.1669 C   0  0  0  0  0  0  0  0  0  0  0  0
   16.7329   71.9308   -3.9497 C   0  0  0  0  0  0  0  0  0  0  0  0
   16.0797   70.9082   -3.1073 C   0  0  0  0  0  0  0  0  0  0  0  0
   15.5490   68.9517   -3.1564 H   0  0  0  0  0  0  0  0  0  0  0  0
   21.9695   71.8476   -3.9798 O   0  0  0  0  0  0  0  0  0  0  0  0
   23.1320   72.0024   -2.8673 P   0  0  2  0  0  0  0  0  0  0  0  0
   23.6454   73.5224   -3.0763 O   0  0  0  0  0  0  0  0  0  0  0  0
   24.2135   70.9653   -2.9590 O   0  0  0  0  0  0  0  0  0  0  0  0
   22.3471   72.0276   -1.4572 O   0  0  0  0  0  0  0  0  0  0  0  0
   24.0073   72.0547    0.2339 O   0  0  0  0  0  0  0  0  0  0  0  0
   20.6376   71.9643    2.6188 O   0  0  0  0  0  0  0  0  0  0  0  0
   22.1738   74.3832    2.4259 O   0  0  0  0  0  0  0  0  0  0  0  0
   20.7137   70.4257    0.1680 O   0  0  0  0  0  0  0  0  0  0  0  0
   21.4136   72.3253    1.4730 C   0  0  1  0  0  0  0  0  0  0  0  0
   22.6308   73.1206    1.9493 C   0  0  1  0  0  0  0  0  0  0  0  0
   21.8520   71.0550    0.7466 C   0  0  2  0  0  0  0  0  0  0  0  0
   23.6454   73.3133    0.8142 C   0  0  1  0  0  0  0  0  0  0  0  0
   22.8979   71.3521   -0.3295 C   0  0  1  0  0  0  0  0  0  0  0  0
   20.3557   72.7664    3.0842 H   0  0  0  0  0  0  0  0  0  0  0  0
   21.5335   74.2474    3.1420 H   0  0  0  0  0  0  0  0  0  0  0  0
   20.0593   70.2426    0.8594 H   0  0  0  0  0  0  0  0  0  0  0  0
   25.0479   73.7467    2.6994 O   0  0  0  0  0  0  0  0  0  0  0  0
   24.9359   73.9656    1.3052 C   0  0  0  0  0  0  0  0  0  0  0  0
   25.8649   74.1562    3.0258 H   0  0  0  0  0  0  0  0  0  0  0  0
 25 28  1  0
 25 24  1  0
 25 26  1  6
 25 27  2  0
  1  4  1  0
  1 24  1  0
  1  2  1  1
  1  3  2  0
  6 11  1  0
  6 12  1  0
 29 36  1  0
 29 37  1  0
  9  7  1  6
  7 13  1  0
 10  8  1  6
  8 14  1  0
 37 28  1  6
  4  5  1  0
 33 30  1  1
 30 38  1  0
 34 31  1  6
 31 39  1  0
 35 32  1  6
 32 40  1  0
 41 42  1  0
 41 43  1  0
 15 19  2  0
 16 22  2  0
 12 17  1  1
 17 19  1  0
 17 20  1  0
 18 19  1  0
 18 22  1  0
 18 23  1  0
  9 10  1  0
  9 11  1  0
 10 12  1  0
 11  5  1  1
 33 34  1  0
 33 35  1  0
 34 36  1  0
 35 37  1  0
 36 42  1  1
 20 21  2  0
 21 22  1  0
M  CHG  2   2  -1  26  -1
M  END
>  <COMPND>  (106) 
    8629 

>  <AUTHOR>  (106) 
    GENERATED BY OPEN BABEL 3.1.1

>  <MASTER>  (106) 
        0    0    0    0    0    0    0    0   58    0   58    0

>  <minimizedAffinity>  (106) 
-7.90329

>  <CNNscore>  (106) 
0.8449592590

>  <CNNaffinity>  (106) 
4.5856518745

>  <CNN_VS>  (106) 
3.8746891022

>  <CNNaffinity_variance>  (106) 
0.1969685256

$$$$
107
     RDKit          3D

 43 45  0  0  0  0  0  0  0  0999 V2000
   22.9652   71.8302   -3.0708 P   0  0  2  0  0  0  0  0  0  0  0  0
   24.2894   70.9029   -3.0077 O   0  0  0  0  0  0  0  0  0  0  0  0
   23.0430   73.1012   -2.2771 O   0  0  0  0  0  0  0  0  0  0  0  0
   21.7655   70.8223   -2.6673 O   0  0  0  0  0  0  0  0  0  0  0  0
   20.9075   70.3485   -3.6906 C   0  0  0  0  0  0  0  0  0  0  0  0
   19.0135   71.5279   -4.5827 O   0  0  0  0  0  0  0  0  0  0  0  0
   17.4105   70.2115   -2.4175 O   0  0  0  0  0  0  0  0  0  0  0  0
   16.8110   68.6975   -4.6051 O   0  0  0  0  0  0  0  0  0  0  0  0
   18.5044   69.6929   -3.1723 C   0  0  1  0  0  0  0  0  0  0  0  0
   18.0598   69.3584   -4.5808 C   0  0  2  0  0  0  0  0  0  0  0  0
   19.4902   70.8298   -3.4115 C   0  0  1  0  0  0  0  0  0  0  0  0
   18.0074   70.7313   -5.2292 C   0  0  2  0  0  0  0  0  0  0  0  0
   16.7676   69.5034   -2.2520 H   0  0  0  0  0  0  0  0  0  0  0  0
   16.8962   67.8292   -4.1813 H   0  0  0  0  0  0  0  0  0  0  0  0
   16.0904   70.1239   -7.2126 O   0  0  0  0  0  0  0  0  0  0  0  0
   19.1834   70.5738  -10.5996 O   0  0  0  0  0  0  0  0  0  0  0  0
   18.2843   70.6831   -6.6371 N   0  0  0  0  0  0  0  0  0  0  0  0
   17.6320   70.3486   -8.8974 N   0  0  0  0  0  0  0  0  0  0  0  0
   17.2509   70.3672   -7.5497 C   0  0  0  0  0  0  0  0  0  0  0  0
   19.5686   70.9476   -7.1003 C   0  0  0  0  0  0  0  0  0  0  0  0
   19.9160   70.9245   -8.3887 C   0  0  0  0  0  0  0  0  0  0  0  0
   18.8954   70.6031   -9.4071 C   0  0  0  0  0  0  0  0  0  0  0  0
   16.9287   70.1305   -9.5513 H   0  0  0  0  0  0  0  0  0  0  0  0
   22.7443   72.0409   -4.6582 O   0  0  0  0  0  0  0  0  0  0  0  0
   22.5810   73.3872   -5.5378 P   0  0  2  0  0  0  0  0  0  0  0  0
   22.8309   72.8740   -7.0516 O   0  0  0  0  0  0  0  0  0  0  0  0
   23.4762   74.5140   -5.1101 O   0  0  0  0  0  0  0  0  0  0  0  0
   21.0041   73.7259   -5.4773 O   0  0  0  0  0  0  0  0  0  0  0  0
   19.5004   75.3238   -6.3731 O   0  0  0  0  0  0  0  0  0  0  0  0
   18.4594   75.6004   -2.3868 O   0  0  0  0  0  0  0  0  0  0  0  0
   16.6727   74.3171   -4.2332 O   0  0  0  0  0  0  0  0  0  0  0  0
   21.2344   75.2522   -3.1337 O   0  0  0  0  0  0  0  0  0  0  0  0
   18.8884   74.9359   -3.5784 C   0  0  1  0  0  0  0  0  0  0  0  0
   17.7954   75.0961   -4.6369 C   0  0  1  0  0  0  0  0  0  0  0  0
   20.1963   75.5636   -4.0567 C   0  0  2  0  0  0  0  0  0  0  0  0
   18.2907   74.6444   -6.0174 C   0  0  1  0  0  0  0  0  0  0  0  0
   20.5729   75.0842   -5.4597 C   0  0  1  0  0  0  0  0  0  0  0  0
   17.6297   75.2063   -2.0776 H   0  0  0  0  0  0  0  0  0  0  0  0
   16.3702   74.6121   -3.3599 H   0  0  0  0  0  0  0  0  0  0  0  0
   20.9841   75.5609   -2.2495 H   0  0  0  0  0  0  0  0  0  0  0  0
   16.2731   75.7921   -6.5839 O   0  0  0  0  0  0  0  0  0  0  0  0
   17.2724   74.9419   -7.1158 C   0  0  0  0  0  0  0  0  0  0  0  0
   15.6182   75.9902   -7.2720 H   0  0  0  0  0  0  0  0  0  0  0  0
 25 28  1  0
 25 24  1  0
 25 26  1  6
 25 27  2  0
  1  4  1  0
  1 24  1  0
  1  2  1  6
  1  3  2  0
  6 11  1  0
  6 12  1  0
 29 36  1  0
 29 37  1  0
  9  7  1  1
  7 13  1  0
 10  8  1  1
  8 14  1  0
 37 28  1  1
  4  5  1  0
 33 30  1  1
 30 38  1  0
 34 31  1  1
 31 39  1  0
 35 32  1  1
 32 40  1  0
 41 42  1  0
 41 43  1  0
 15 19  2  0
 16 22  2  0
 12 17  1  6
 17 19  1  0
 17 20  1  0
 18 19  1  0
 18 22  1  0
 18 23  1  0
  9 10  1  0
  9 11  1  0
 10 12  1  0
 11  5  1  6
 33 34  1  0
 33 35  1  0
 34 36  1  0
 35 37  1  0
 36 42  1  6
 20 21  2  0
 21 22  1  0
M  CHG  2   2  -1  26  -1
M  END
>  <COMPND>  (107) 
    8629 

>  <AUTHOR>  (107) 
    GENERATED BY OPEN BABEL 3.1.1

>  <MASTER>  (107) 
        0    0    0    0    0    0    0    0   58    0   58    0

>  <minimizedAffinity>  (107) 
-6.55508

>  <CNNscore>  (107) 
0.8249314427

>  <CNNaffinity>  (107) 
4.3686394691

>  <CNN_VS>  (107) 
3.6038279533

>  <CNNaffinity_variance>  (107) 
0.3417114615

$$$$
108
     RDKit          3D

 43 45  0  0  0  0  0  0  0  0999 V2000
   22.1527   73.1907   -4.8541 P   0  0  2  0  0  0  0  0  0  0  0  0
   22.0759   74.7105   -5.4035 O   0  0  0  0  0  0  0  0  0  0  0  0
   23.1184   72.3019   -5.5812 O   0  0  0  0  0  0  0  0  0  0  0  0
   20.6109   72.7001   -4.8523 O   0  0  0  0  0  0  0  0  0  0  0  0
   20.1984   71.7701   -3.8659 C   0  0  0  0  0  0  0  0  0  0  0  0
   18.1532   72.0955   -5.0845 O   0  0  0  0  0  0  0  0  0  0  0  0
   16.7983   70.6637   -2.8250 O   0  0  0  0  0  0  0  0  0  0  0  0
   16.9884   68.7220   -4.7304 O   0  0  0  0  0  0  0  0  0  0  0  0
   18.0850   70.4335   -3.3965 C   0  0  1  0  0  0  0  0  0  0  0  0
   17.9482   69.7589   -4.7455 C   0  0  2  0  0  0  0  0  0  0  0  0
   18.6787   71.7846   -3.7754 C   0  0  1  0  0  0  0  0  0  0  0  0
   17.5416   70.9190   -5.6382 C   0  0  2  0  0  0  0  0  0  0  0  0
   16.3994   69.8150   -2.5748 H   0  0  0  0  0  0  0  0  0  0  0  0
   17.2927   68.0079   -4.1488 H   0  0  0  0  0  0  0  0  0  0  0  0
   15.8418   70.3921   -7.8316 O   0  0  0  0  0  0  0  0  0  0  0  0
   19.3788   70.2978  -10.7849 O   0  0  0  0  0  0  0  0  0  0  0  0
   17.9915   70.7525   -6.9915 N   0  0  0  0  0  0  0  0  0  0  0  0
   17.6043   70.3457   -9.3004 N   0  0  0  0  0  0  0  0  0  0  0  0
   17.0562   70.4899   -8.0194 C   0  0  0  0  0  0  0  0  0  0  0  0
   19.3466   70.8504   -7.2882 C   0  0  0  0  0  0  0  0  0  0  0  0
   19.8533   70.7091   -8.5148 C   0  0  0  0  0  0  0  0  0  0  0  0
   18.9437   70.4329   -9.6455 C   0  0  0  0  0  0  0  0  0  0  0  0
   16.9717   70.1619  -10.0323 H   0  0  0  0  0  0  0  0  0  0  0  0
   22.4729   73.3883   -3.2820 O   0  0  0  0  0  0  0  0  0  0  0  0
   22.1980   74.6355   -2.2912 P   0  0  2  0  0  0  0  0  0  0  0  0
   20.7696   75.2029   -2.7965 O   0  0  0  0  0  0  0  0  0  0  0  0
   23.2975   75.6576   -2.2688 O   0  0  0  0  0  0  0  0  0  0  0  0
   21.8845   73.9588   -0.8599 O   0  0  0  0  0  0  0  0  0  0  0  0
   23.1582   73.8666    1.1366 O   0  0  0  0  0  0  0  0  0  0  0  0
   21.5292   70.0731    1.2174 O   0  0  0  0  0  0  0  0  0  0  0  0
   20.5827   72.0622    3.0601 O   0  0  0  0  0  0  0  0  0  0  0  0
   22.3703   71.2301   -1.2993 O   0  0  0  0  0  0  0  0  0  0  0  0
   21.5470   71.4781    0.9506 C   0  0  1  0  0  0  0  0  0  0  0  0
   21.7614   72.2148    2.2742 C   0  0  1  0  0  0  0  0  0  0  0  0
   22.6802   71.7864   -0.0261 C   0  0  2  0  0  0  0  0  0  0  0  0
   22.0578   73.7020    2.0387 C   0  0  1  0  0  0  0  0  0  0  0  0
   22.9249   73.2913   -0.1504 C   0  0  1  0  0  0  0  0  0  0  0  0
   20.8116   69.8705    1.8366 H   0  0  0  0  0  0  0  0  0  0  0  0
   20.4065   71.1187    3.2011 H   0  0  0  0  0  0  0  0  0  0  0  0
   22.2179   70.2771   -1.2071 H   0  0  0  0  0  0  0  0  0  0  0  0
   21.2738   74.5146    4.1445 O   0  0  0  0  0  0  0  0  0  0  0  0
   22.4300   74.4229    3.3325 C   0  0  0  0  0  0  0  0  0  0  0  0
   21.4958   74.9709    4.9716 H   0  0  0  0  0  0  0  0  0  0  0  0
 25 28  1  0
 25 24  1  0
 25 26  1  6
 25 27  2  0
  1  4  1  0
  1 24  1  0
  1  2  1  6
  1  3  2  0
  6 11  1  0
  6 12  1  0
 29 36  1  0
 29 37  1  0
  9  7  1  6
  7 13  1  0
 10  8  1  1
  8 14  1  0
 37 28  1  1
  4  5  1  0
 33 30  1  1
 30 38  1  0
 34 31  1  1
 31 39  1  0
 35 32  1  6
 32 40  1  0
 41 42  1  0
 41 43  1  0
 15 19  2  0
 16 22  2  0
 12 17  1  6
 17 19  1  0
 17 20  1  0
 18 19  1  0
 18 22  1  0
 18 23  1  0
  9 10  1  0
  9 11  1  0
 10 12  1  0
 11  5  1  6
 33 34  1  0
 33 35  1  0
 34 36  1  0
 35 37  1  0
 36 42  1  1
 20 21  2  0
 21 22  1  0
M  CHG  2   2  -1  26  -1
M  END
>  <COMPND>  (108) 
    8629 

>  <AUTHOR>  (108) 
    GENERATED BY OPEN BABEL 3.1.1

>  <MASTER>  (108) 
        0    0    0    0    0    0    0    0   58    0   58    0

>  <minimizedAffinity>  (108) 
-7.20104

>  <CNNscore>  (108) 
0.8062384129

>  <CNNaffinity>  (108) 
4.5364007950

>  <CNN_VS>  (108) 
3.6574206352

>  <CNNaffinity_variance>  (108) 
0.0228910986

$$$$
109
     RDKit          3D

 43 45  0  0  0  0  0  0  0  0999 V2000
   20.7078   72.0288   -0.5930 P   0  0  2  0  0  0  0  0  0  0  0  0
   19.8962   70.7200   -1.0887 O   0  0  0  0  0  0  0  0  0  0  0  0
   20.0603   72.7897    0.5265 O   0  0  0  0  0  0  0  0  0  0  0  0
   20.9651   72.8649   -1.9542 O   0  0  0  0  0  0  0  0  0  0  0  0
   20.3546   72.4134   -3.1505 C   0  0  0  0  0  0  0  0  0  0  0  0
   20.8353   70.8566   -4.9166 O   0  0  0  0  0  0  0  0  0  0  0  0
   23.2785   72.5095   -5.4549 O   0  0  0  0  0  0  0  0  0  0  0  0
   21.5560   73.3448   -7.3970 O   0  0  0  0  0  0  0  0  0  0  0  0
   21.9795   72.9282   -5.0394 C   0  0  1  0  0  0  0  0  0  0  0  0
   21.0052   72.8445   -6.1957 C   0  0  2  0  0  0  0  0  0  0  0  0
   21.4306   71.8759   -4.0840 C   0  0  1  0  0  0  0  0  0  0  0  0
   20.7196   71.3537   -6.2599 C   0  0  2  0  0  0  0  0  0  0  0  0
   23.6497   73.1661   -6.0656 H   0  0  0  0  0  0  0  0  0  0  0  0
   21.7197   74.2965   -7.3061 H   0  0  0  0  0  0  0  0  0  0  0  0
   20.0475   71.1300   -8.9941 O   0  0  0  0  0  0  0  0  0  0  0  0
   15.6264   70.2612   -8.0247 O   0  0  0  0  0  0  0  0  0  0  0  0
   19.4005   71.0693   -6.7503 N   0  0  0  0  0  0  0  0  0  0  0  0
   17.8467   70.6974   -8.5092 N   0  0  0  0  0  0  0  0  0  0  0  0
   19.1690   70.9790   -8.1426 C   0  0  0  0  0  0  0  0  0  0  0  0
   18.3534   70.8829   -5.8544 C   0  0  0  0  0  0  0  0  0  0  0  0
   17.0978   70.6164   -6.2202 C   0  0  0  0  0  0  0  0  0  0  0  0
   16.7712   70.5053   -7.6565 C   0  0  0  0  0  0  0  0  0  0  0  0
   17.6616   70.6302   -9.4741 H   0  0  0  0  0  0  0  0  0  0  0  0
   22.1724   71.4388   -0.2467 O   0  0  0  0  0  0  0  0  0  0  0  0
   23.5268   72.1766    0.2371 P   0  0  2  0  0  0  0  0  0  0  0  0
   23.7228   73.3493   -0.8602 O   0  0  0  0  0  0  0  0  0  0  0  0
   24.7078   71.2612    0.3828 O   0  0  0  0  0  0  0  0  0  0  0  0
   23.1094   72.9505    1.5906 O   0  0  0  0  0  0  0  0  0  0  0  0
   24.5210   72.9396    3.4942 O   0  0  0  0  0  0  0  0  0  0  0  0
   20.9181   73.7332    5.3490 O   0  0  0  0  0  0  0  0  0  0  0  0
   22.8791   75.8177    5.1097 O   0  0  0  0  0  0  0  0  0  0  0  0
   21.0216   71.8784    3.1289 O   0  0  0  0  0  0  0  0  0  0  0  0
   21.8844   73.8000    4.2968 C   0  0  1  0  0  0  0  0  0  0  0  0
   23.1559   74.4436    4.8537 C   0  0  1  0  0  0  0  0  0  0  0  0
   22.1731   72.3869    3.7936 C   0  0  2  0  0  0  0  0  0  0  0  0
   24.3231   74.3085    3.8666 C   0  0  1  0  0  0  0  0  0  0  0  0
   23.3824   72.3569    2.8572 C   0  0  1  0  0  0  0  0  0  0  0  0
   20.7300   74.6272    5.6726 H   0  0  0  0  0  0  0  0  0  0  0  0
   22.1398   75.8890    5.7339 H   0  0  0  0  0  0  0  0  0  0  0  0
   20.2631   71.9024    3.7323 H   0  0  0  0  0  0  0  0  0  0  0  0
   26.6027   74.8770    3.4312 O   0  0  0  0  0  0  0  0  0  0  0  0
   25.6384   74.8026    4.4651 C   0  0  0  0  0  0  0  0  0  0  0  0
   27.4449   75.1904    3.7975 H   0  0  0  0  0  0  0  0  0  0  0  0
 25 28  1  0
 25 24  1  0
 25 26  1  6
 25 27  2  0
  1  4  1  0
  1 24  1  0
  1  2  1  6
  1  3  2  0
  6 11  1  0
  6 12  1  0
 29 36  1  0
 29 37  1  0
  9  7  1  6
  7 13  1  0
 10  8  1  6
  8 14  1  0
 37 28  1  6
  4  5  1  0
 33 30  1  1
 30 38  1  0
 34 31  1  6
 31 39  1  0
 35 32  1  6
 32 40  1  0
 41 42  1  0
 41 43  1  0
 15 19  2  0
 16 22  2  0
 12 17  1  1
 17 19  1  0
 17 20  1  0
 18 19  1  0
 18 22  1  0
 18 23  1  0
  9 10  1  0
  9 11  1  0
 10 12  1  0
 11  5  1  1
 33 34  1  0
 33 35  1  0
 34 36  1  0
 35 37  1  0
 36 42  1  1
 20 21  2  0
 21 22  1  0
M  CHG  2   2  -1  26  -1
M  END
>  <COMPND>  (109) 
    8629 

>  <AUTHOR>  (109) 
    GENERATED BY OPEN BABEL 3.1.1

>  <MASTER>  (109) 
        0    0    0    0    0    0    0    0   58    0   58    0

>  <minimizedAffinity>  (109) 
-6.51141

>  <CNNscore>  (109) 
0.6368715763

>  <CNNaffinity>  (109) 
4.1916885376

>  <CNN_VS>  (109) 
2.6695673466

>  <CNNaffinity_variance>  (109) 
0.0879232734

$$$$
110
     RDKit          3D

 43 45  0  0  0  0  0  0  0  0999 V2000
   19.5141   71.5732   -1.9026 P   0  0  2  0  0  0  0  0  0  0  0  0
   18.9658   72.9367   -1.2261 O   0  0  0  0  0  0  0  0  0  0  0  0
   20.2081   70.6332   -0.9612 O   0  0  0  0  0  0  0  0  0  0  0  0
   20.3959   72.0893   -3.1571 O   0  0  0  0  0  0  0  0  0  0  0  0
   20.6590   73.4768   -3.2733 C   0  0  0  0  0  0  0  0  0  0  0  0
   22.7516   73.9817   -2.2057 O   0  0  0  0  0  0  0  0  0  0  0  0
   24.0600   72.8542   -4.6567 O   0  0  0  0  0  0  0  0  0  0  0  0
   24.2678   70.8010   -2.8741 O   0  0  0  0  0  0  0  0  0  0  0  0
   22.8647   72.4370   -3.9992 C   0  0  1  0  0  0  0  0  0  0  0  0
   23.1982   71.7102   -2.7131 C   0  0  2  0  0  0  0  0  0  0  0  0
   22.1526   73.6822   -3.4855 C   0  0  1  0  0  0  0  0  0  0  0  0
   23.5433   72.8599   -1.7819 C   0  0  2  0  0  0  0  0  0  0  0  0
   24.5319   72.0759   -4.9937 H   0  0  0  0  0  0  0  0  0  0  0  0
   23.9990   70.0884   -3.4747 H   0  0  0  0  0  0  0  0  0  0  0  0
   24.9624   71.0046   -0.1938 O   0  0  0  0  0  0  0  0  0  0  0  0
   22.2793   71.8076    3.4664 O   0  0  0  0  0  0  0  0  0  0  0  0
   23.2373   72.5648   -0.4105 N   0  0  0  0  0  0  0  0  0  0  0  0
   23.6254   71.4061    1.6274 N   0  0  0  0  0  0  0  0  0  0  0  0
   24.0112   71.6158    0.2973 C   0  0  0  0  0  0  0  0  0  0  0  0
   22.1803   73.2134    0.2188 C   0  0  0  0  0  0  0  0  0  0  0  0
   21.8245   73.0012    1.4875 C   0  0  0  0  0  0  0  0  0  0  0  0
   22.5818   72.0250    2.2972 C   0  0  0  0  0  0  0  0  0  0  0  0
   24.1499   70.7489    2.1401 H   0  0  0  0  0  0  0  0  0  0  0  0
   18.1956   70.9635   -2.6116 O   0  0  0  0  0  0  0  0  0  0  0  0
   18.0007   69.6617   -3.5499 P   0  0  2  0  0  0  0  0  0  0  0  0
   16.8880   68.7957   -2.7566 O   0  0  0  0  0  0  0  0  0  0  0  0
   19.2717   68.9180   -3.8422 O   0  0  0  0  0  0  0  0  0  0  0  0
   17.2321   70.2124   -4.8580 O   0  0  0  0  0  0  0  0  0  0  0  0
   18.8788   71.3930   -6.0873 O   0  0  0  0  0  0  0  0  0  0  0  0
   15.6541   71.9423   -8.6073 O   0  0  0  0  0  0  0  0  0  0  0  0
   17.7612   70.1468   -9.3717 O   0  0  0  0  0  0  0  0  0  0  0  0
   15.2745   72.0201   -5.7386 O   0  0  0  0  0  0  0  0  0  0  0  0
   16.4720   71.2316   -7.6739 C   0  0  1  0  0  0  0  0  0  0  0  0
   17.8641   71.0644   -8.2864 C   0  0  1  0  0  0  0  0  0  0  0  0
   16.5495   72.0263   -6.3717 C   0  0  2  0  0  0  0  0  0  0  0  0
   18.8689   70.5512   -7.2462 C   0  0  1  0  0  0  0  0  0  0  0  0
   17.6129   71.4620   -5.4280 C   0  0  1  0  0  0  0  0  0  0  0  0
   15.6004   71.4428   -9.4362 H   0  0  0  0  0  0  0  0  0  0  0  0
   17.1233   70.4824  -10.0210 H   0  0  0  0  0  0  0  0  0  0  0  0
   14.6102   72.3799   -6.3461 H   0  0  0  0  0  0  0  0  0  0  0  0
   20.4342   71.5762   -8.7322 O   0  0  0  0  0  0  0  0  0  0  0  0
   20.2950   70.5269   -7.7920 C   0  0  0  0  0  0  0  0  0  0  0  0
   21.3371   71.5731   -9.0878 H   0  0  0  0  0  0  0  0  0  0  0  0
 25 28  1  0
 25 24  1  0
 25 26  1  1
 25 27  2  0
  1  4  1  0
  1 24  1  0
  1  2  1  1
  1  3  2  0
  6 11  1  0
  6 12  1  0
 29 36  1  0
 29 37  1  0
  9  7  1  1
  7 13  1  0
 10  8  1  6
  8 14  1  0
 37 28  1  6
  4  5  1  0
 33 30  1  6
 30 38  1  0
 34 31  1  6
 31 39  1  0
 35 32  1  1
 32 40  1  0
 41 42  1  0
 41 43  1  0
 15 19  2  0
 16 22  2  0
 12 17  1  1
 17 19  1  0
 17 20  1  0
 18 19  1  0
 18 22  1  0
 18 23  1  0
  9 10  1  0
  9 11  1  0
 10 12  1  0
 11  5  1  1
 33 34  1  0
 33 35  1  0
 34 36  1  0
 35 37  1  0
 36 42  1  6
 20 21  2  0
 21 22  1  0
M  CHG  2   2  -1  26  -1
M  END
>  <COMPND>  (110) 
    8629 

>  <AUTHOR>  (110) 
    GENERATED BY OPEN BABEL 3.1.1

>  <MASTER>  (110) 
        0    0    0    0    0    0    0    0   58    0   58    0

>  <minimizedAffinity>  (110) 
-7.55052

>  <CNNscore>  (110) 
0.6093207002

>  <CNNaffinity>  (110) 
4.3052310944

>  <CNN_VS>  (110) 
2.6232664585

>  <CNNaffinity_variance>  (110) 
0.5236594677

$$$$
111
     RDKit          3D

 43 45  0  0  0  0  0  0  0  0999 V2000
   23.5374   72.0188   -3.2294 P   0  0  2  0  0  0  0  0  0  0  0  0
   24.1921   73.1133   -4.2248 O   0  0  0  0  0  0  0  0  0  0  0  0
   24.3586   70.7804   -3.0209 O   0  0  0  0  0  0  0  0  0  0  0  0
   22.0537   71.7850   -3.8311 O   0  0  0  0  0  0  0  0  0  0  0  0
   21.6095   72.6267   -4.8808 C   0  0  0  0  0  0  0  0  0  0  0  0
   20.7549   70.6165   -5.8822 O   0  0  0  0  0  0  0  0  0  0  0  0
   21.1885   71.9702   -8.5223 O   0  0  0  0  0  0  0  0  0  0  0  0
   18.5059   72.2700   -8.1341 O   0  0  0  0  0  0  0  0  0  0  0  0
   20.7672   72.5303   -7.2797 C   0  0  1  0  0  0  0  0  0  0  0  0
   19.3296   72.1506   -6.9922 C   0  0  2  0  0  0  0  0  0  0  0  0
   21.5153   71.8119   -6.1636 C   0  0  1  0  0  0  0  0  0  0  0  0
   19.4716   70.7131   -6.5214 C   0  0  2  0  0  0  0  0  0  0  0  0
   20.7244   72.4135   -9.2504 H   0  0  0  0  0  0  0  0  0  0  0  0
   18.4470   73.2025   -8.3944 H   0  0  0  0  0  0  0  0  0  0  0  0
   16.8846   69.8321   -7.2352 O   0  0  0  0  0  0  0  0  0  0  0  0
   15.6446   69.3168   -2.8263 O   0  0  0  0  0  0  0  0  0  0  0  0
   18.4528   70.3418   -5.5804 N   0  0  0  0  0  0  0  0  0  0  0  0
   16.2693   69.5761   -5.0393 N   0  0  0  0  0  0  0  0  0  0  0  0
   17.1864   69.9139   -6.0427 C   0  0  0  0  0  0  0  0  0  0  0  0
   18.7140   70.4036   -4.2159 C   0  0  0  0  0  0  0  0  0  0  0  0
   17.8281   70.0792   -3.2718 C   0  0  0  0  0  0  0  0  0  0  0  0
   16.4812   69.6222   -3.6705 C   0  0  0  0  0  0  0  0  0  0  0  0
   15.3803   69.2755   -5.3378 H   0  0  0  0  0  0  0  0  0  0  0  0
   23.2543   72.8724   -1.8862 O   0  0  0  0  0  0  0  0  0  0  0  0
   21.9913   72.8764   -0.8774 P   0  0  2  0  0  0  0  0  0  0  0  0
   21.6391   71.3054   -0.7176 O   0  0  0  0  0  0  0  0  0  0  0  0
   20.8409   73.7255   -1.3351 O   0  0  0  0  0  0  0  0  0  0  0  0
   22.6106   73.3027    0.5508 O   0  0  0  0  0  0  0  0  0  0  0  0
   24.6369   72.7661    1.6566 O   0  0  0  0  0  0  0  0  0  0  0  0
   22.0574   72.5726    4.8753 O   0  0  0  0  0  0  0  0  0  0  0  0
   23.8895   74.7735    4.6568 O   0  0  0  0  0  0  0  0  0  0  0  0
   21.2095   71.5981    2.2848 O   0  0  0  0  0  0  0  0  0  0  0  0
   22.5536   73.0749    3.6315 C   0  0  1  0  0  0  0  0  0  0  0  0
   23.9739   73.5969    3.8575 C   0  0  1  0  0  0  0  0  0  0  0  0
   22.5528   71.9468    2.6016 C   0  0  2  0  0  0  0  0  0  0  0  0
   24.6694   73.9051    2.5246 C   0  0  1  0  0  0  0  0  0  0  0  0
   23.3120   72.3397    1.3330 C   0  0  1  0  0  0  0  0  0  0  0  0
   22.0549   73.2841    5.5335 H   0  0  0  0  0  0  0  0  0  0  0  0
   23.4480   74.5653    5.4952 H   0  0  0  0  0  0  0  0  0  0  0  0
   20.7397   71.3511    3.0960 H   0  0  0  0  0  0  0  0  0  0  0  0
   26.5270   73.9032    4.0273 O   0  0  0  0  0  0  0  0  0  0  0  0
   26.1379   74.2765    2.7183 C   0  0  0  0  0  0  0  0  0  0  0  0
   27.4597   74.1333    4.1648 H   0  0  0  0  0  0  0  0  0  0  0  0
 25 28  1  0
 25 24  1  0
 25 26  1  1
 25 27  2  0
  1  4  1  0
  1 24  1  0
  1  2  1  6
  1  3  2  0
  6 11  1  0
  6 12  1  0
 29 36  1  0
 29 37  1  0
  9  7  1  6
  7 13  1  0
 10  8  1  6
  8 14  1  0
 37 28  1  1
  4  5  1  0
 33 30  1  1
 30 38  1  0
 34 31  1  1
 31 39  1  0
 35 32  1  6
 32 40  1  0
 41 42  1  0
 41 43  1  0
 15 19  2  0
 16 22  2  0
 12 17  1  1
 17 19  1  0
 17 20  1  0
 18 19  1  0
 18 22  1  0
 18 23  1  0
  9 10  1  0
  9 11  1  0
 10 12  1  0
 11  5  1  1
 33 34  1  0
 33 35  1  0
 34 36  1  0
 35 37  1  0
 36 42  1  1
 20 21  2  0
 21 22  1  0
M  CHG  2   2  -1  26  -1
M  END
>  <COMPND>  (111) 
    8629 

>  <AUTHOR>  (111) 
    GENERATED BY OPEN BABEL 3.1.1

>  <MASTER>  (111) 
        0    0    0    0    0    0    0    0   58    0   58    0

>  <minimizedAffinity>  (111) 
-7.42060

>  <CNNscore>  (111) 
0.6050822139

>  <CNNaffinity>  (111) 
4.2604756355

>  <CNN_VS>  (111) 
2.5779380798

>  <CNNaffinity_variance>  (111) 
0.1698084027

$$$$
112
     RDKit          3D

 43 45  0  0  0  0  0  0  0  0999 V2000
   23.1909   72.3145   -3.5800 P   0  0  2  0  0  0  0  0  0  0  0  0
   24.0851   70.9866   -3.3464 O   0  0  0  0  0  0  0  0  0  0  0  0
   23.8421   73.3785   -4.4138 O   0  0  0  0  0  0  0  0  0  0  0  0
   22.7585   72.7594   -2.0856 O   0  0  0  0  0  0  0  0  0  0  0  0
   22.4503   71.7485   -1.1418 C   0  0  0  0  0  0  0  0  0  0  0  0
   24.0933   72.8933    0.1863 O   0  0  0  0  0  0  0  0  0  0  0  0
   24.4499   70.2980    1.6451 O   0  0  0  0  0  0  0  0  0  0  0  0
   22.8699   71.7254    3.3489 O   0  0  0  0  0  0  0  0  0  0  0  0
   23.2613   70.8738    1.1055 C   0  0  1  0  0  0  0  0  0  0  0  0
   22.7960   72.0267    1.9704 C   0  0  2  0  0  0  0  0  0  0  0  0
   23.6296   71.5792   -0.1937 C   0  0  1  0  0  0  0  0  0  0  0  0
   23.7532   73.1334    1.5617 C   0  0  2  0  0  0  0  0  0  0  0  0
   24.2397   69.8415    2.4754 H   0  0  0  0  0  0  0  0  0  0  0  0
   22.2427   71.0160    3.5591 H   0  0  0  0  0  0  0  0  0  0  0  0
   23.7366   74.6766    3.9273 O   0  0  0  0  0  0  0  0  0  0  0  0
   21.4596   78.1220    1.8815 O   0  0  0  0  0  0  0  0  0  0  0  0
   23.1633   74.4374    1.6754 N   0  0  0  0  0  0  0  0  0  0  0  0
   22.6030   76.3910    2.9067 N   0  0  0  0  0  0  0  0  0  0  0  0
   23.2083   75.1278    2.9090 C   0  0  0  0  0  0  0  0  0  0  0  0
   22.5492   75.0189    0.5714 C   0  0  0  0  0  0  0  0  0  0  0  0
   21.9754   76.2238    0.5861 C   0  0  0  0  0  0  0  0  0  0  0  0
   21.9789   77.0111    1.8359 C   0  0  0  0  0  0  0  0  0  0  0  0
   22.6218   76.8903    3.7553 H   0  0  0  0  0  0  0  0  0  0  0  0
   21.8174   71.7243   -4.1950 O   0  0  0  0  0  0  0  0  0  0  0  0
   20.3454   72.3791   -4.3260 P   0  0  2  0  0  0  0  0  0  0  0  0
   20.6298   73.9647   -4.1758 O   0  0  0  0  0  0  0  0  0  0  0  0
   19.3410   71.8352   -3.3516 O   0  0  0  0  0  0  0  0  0  0  0  0
   19.9469   72.1816   -5.8775 O   0  0  0  0  0  0  0  0  0  0  0  0
   19.0792   69.9875   -6.1003 O   0  0  0  0  0  0  0  0  0  0  0  0
   18.9188   71.1652  -10.0548 O   0  0  0  0  0  0  0  0  0  0  0  0
   16.4868   70.9301   -8.5456 O   0  0  0  0  0  0  0  0  0  0  0  0
   21.1563   71.9627   -8.4003 O   0  0  0  0  0  0  0  0  0  0  0  0
   18.8408   71.3437   -8.6380 C   0  0  1  0  0  0  0  0  0  0  0  0
   17.7421   70.4255   -8.0988 C   0  0  1  0  0  0  0  0  0  0  0  0
   20.1902   70.9906   -8.0153 C   0  0  2  0  0  0  0  0  0  0  0  0
   17.7771   70.3607   -6.5659 C   0  0  1  0  0  0  0  0  0  0  0  0
   20.1034   70.9044   -6.4905 C   0  0  1  0  0  0  0  0  0  0  0  0
   18.0653   71.3882  -10.4564 H   0  0  0  0  0  0  0  0  0  0  0  0
   16.4780   70.9664   -9.5151 H   0  0  0  0  0  0  0  0  0  0  0  0
   21.2020   72.0075   -9.3677 H   0  0  0  0  0  0  0  0  0  0  0  0
   16.1720   69.8735   -4.8644 O   0  0  0  0  0  0  0  0  0  0  0  0
   16.7939   69.3305   -6.0145 C   0  0  0  0  0  0  0  0  0  0  0  0
   15.5432   69.2289   -4.5027 H   0  0  0  0  0  0  0  0  0  0  0  0
 25 28  1  0
 25 24  1  0
 25 26  1  1
 25 27  2  0
  1  4  1  0
  1 24  1  0
  1  2  1  1
  1  3  2  0
  6 11  1  0
  6 12  1  0
 29 36  1  0
 29 37  1  0
  9  7  1  1
  7 13  1  0
 10  8  1  1
  8 14  1  0
 37 28  1  1
  4  5  1  0
 33 30  1  6
 30 38  1  0
 34 31  1  1
 31 39  1  0
 35 32  1  1
 32 40  1  0
 41 42  1  0
 41 43  1  0
 15 19  2  0
 16 22  2  0
 12 17  1  6
 17 19  1  0
 17 20  1  0
 18 19  1  0
 18 22  1  0
 18 23  1  0
  9 10  1  0
  9 11  1  0
 10 12  1  0
 11  5  1  6
 33 34  1  0
 33 35  1  0
 34 36  1  0
 35 37  1  0
 36 42  1  6
 20 21  2  0
 21 22  1  0
M  CHG  2   2  -1  26  -1
M  END
>  <COMPND>  (112) 
    8629 

>  <AUTHOR>  (112) 
    GENERATED BY OPEN BABEL 3.1.1

>  <MASTER>  (112) 
        0    0    0    0    0    0    0    0   58    0   58    0

>  <minimizedAffinity>  (112) 
-7.00375

>  <CNNscore>  (112) 
0.5993123651

>  <CNNaffinity>  (112) 
4.2344026566

>  <CNN_VS>  (112) 
2.5377299786

>  <CNNaffinity_variance>  (112) 
0.0578594506

$$$$
113
     RDKit          3D

 43 45  0  0  0  0  0  0  0  0999 V2000
   23.1245   72.0784   -2.7039 P   0  0  2  0  0  0  0  0  0  0  0  0
   23.6171   73.5603   -3.1265 O   0  0  0  0  0  0  0  0  0  0  0  0
   24.1534   70.9983   -2.8655 O   0  0  0  0  0  0  0  0  0  0  0  0
   21.7529   71.8726   -3.5372 O   0  0  0  0  0  0  0  0  0  0  0  0
   21.4948   72.7287   -4.6364 C   0  0  0  0  0  0  0  0  0  0  0  0
   20.7265   70.6914   -5.6528 O   0  0  0  0  0  0  0  0  0  0  0  0
   21.2367   72.0323   -8.2857 O   0  0  0  0  0  0  0  0  0  0  0  0
   18.5346   72.2746   -8.0090 O   0  0  0  0  0  0  0  0  0  0  0  0
   20.7530   72.5932   -7.0664 C   0  0  1  0  0  0  0  0  0  0  0  0
   19.3137   72.1834   -6.8337 C   0  0  2  0  0  0  0  0  0  0  0  0
   21.4709   71.9013   -5.9143 C   0  0  1  0  0  0  0  0  0  0  0  0
   19.4684   70.7535   -6.3442 C   0  0  2  0  0  0  0  0  0  0  0  0
   20.7928   72.4588   -9.0361 H   0  0  0  0  0  0  0  0  0  0  0  0
   18.4656   73.2033   -8.2801 H   0  0  0  0  0  0  0  0  0  0  0  0
   16.9548   69.7505   -7.1528 O   0  0  0  0  0  0  0  0  0  0  0  0
   15.5254   69.3051   -2.7940 O   0  0  0  0  0  0  0  0  0  0  0  0
   18.4207   70.3672   -5.4417 N   0  0  0  0  0  0  0  0  0  0  0  0
   16.2452   69.5294   -4.9818 N   0  0  0  0  0  0  0  0  0  0  0  0
   17.1956   69.8765   -5.9504 C   0  0  0  0  0  0  0  0  0  0  0  0
   18.6135   70.4763   -4.0688 C   0  0  0  0  0  0  0  0  0  0  0  0
   17.6966   70.1422   -3.1584 C   0  0  0  0  0  0  0  0  0  0  0  0
   16.3891   69.6209   -3.6064 C   0  0  0  0  0  0  0  0  0  0  0  0
   15.3839   69.1854   -5.3128 H   0  0  0  0  0  0  0  0  0  0  0  0
   22.6012   72.2877   -1.1888 O   0  0  0  0  0  0  0  0  0  0  0  0
   21.5136   71.4674   -0.3186 P   0  0  2  0  0  0  0  0  0  0  0  0
   22.4232   70.6703    0.7560 O   0  0  0  0  0  0  0  0  0  0  0  0
   20.6074   70.5911   -1.1339 O   0  0  0  0  0  0  0  0  0  0  0  0
   20.7510   72.5944    0.5493 O   0  0  0  0  0  0  0  0  0  0  0  0
   21.3552   74.8227    1.0844 O   0  0  0  0  0  0  0  0  0  0  0  0
   19.6097   73.7345    4.6649 O   0  0  0  0  0  0  0  0  0  0  0  0
   18.2401   75.5538    2.9149 O   0  0  0  0  0  0  0  0  0  0  0  0
   21.2240   71.8251    3.2063 O   0  0  0  0  0  0  0  0  0  0  0  0
   19.7704   73.7452    3.2438 C   0  0  1  0  0  0  0  0  0  0  0  0
   19.6070   75.1852    2.7535 C   0  0  1  0  0  0  0  0  0  0  0  0
   21.1587   73.2125    2.8944 C   0  0  2  0  0  0  0  0  0  0  0  0
   20.0272   75.3210    1.2838 C   0  0  1  0  0  0  0  0  0  0  0  0
   21.4968   73.4410    1.4201 C   0  0  1  0  0  0  0  0  0  0  0  0
   18.7300   74.0712    4.8935 H   0  0  0  0  0  0  0  0  0  0  0  0
   17.9874   75.4631    3.8471 H   0  0  0  0  0  0  0  0  0  0  0  0
   21.0083   71.6937    4.1423 H   0  0  0  0  0  0  0  0  0  0  0  0
   19.9695   77.6116    1.9612 O   0  0  0  0  0  0  0  0  0  0  0  0
   20.0223   76.7759    0.8196 C   0  0  0  0  0  0  0  0  0  0  0  0
   19.9662   78.5407    1.6811 H   0  0  0  0  0  0  0  0  0  0  0  0
 25 28  1  0
 25 24  1  0
 25 26  1  1
 25 27  2  0
  1  4  1  0
  1 24  1  0
  1  2  1  6
  1  3  2  0
  6 11  1  0
  6 12  1  0
 29 36  1  0
 29 37  1  0
  9  7  1  6
  7 13  1  0
 10  8  1  6
  8 14  1  0
 37 28  1  6
  4  5  1  0
 33 30  1  1
 30 38  1  0
 34 31  1  6
 31 39  1  0
 35 32  1  6
 32 40  1  0
 41 42  1  0
 41 43  1  0
 15 19  2  0
 16 22  2  0
 12 17  1  1
 17 19  1  0
 17 20  1  0
 18 19  1  0
 18 22  1  0
 18 23  1  0
  9 10  1  0
  9 11  1  0
 10 12  1  0
 11  5  1  1
 33 34  1  0
 33 35  1  0
 34 36  1  0
 35 37  1  0
 36 42  1  1
 20 21  2  0
 21 22  1  0
M  CHG  2   2  -1  26  -1
M  END
>  <COMPND>  (113) 
    8629 

>  <AUTHOR>  (113) 
    GENERATED BY OPEN BABEL 3.1.1

>  <MASTER>  (113) 
        0    0    0    0    0    0    0    0   58    0   58    0

>  <minimizedAffinity>  (113) 
-6.52906

>  <CNNscore>  (113) 
0.5863603950

>  <CNNaffinity>  (113) 
4.1246199608

>  <CNN_VS>  (113) 
2.4185137749

>  <CNNaffinity_variance>  (113) 
0.2445607930

$$$$
114
     RDKit          3D

 43 45  0  0  0  0  0  0  0  0999 V2000
   22.4276   71.8425   -3.1879 P   0  0  2  0  0  0  0  0  0  0  0  0
   21.9315   70.5897   -2.2925 O   0  0  0  0  0  0  0  0  0  0  0  0
   23.8379   71.7432   -3.6904 O   0  0  0  0  0  0  0  0  0  0  0  0
   22.0987   73.1320   -2.2677 O   0  0  0  0  0  0  0  0  0  0  0  0
   21.7990   72.9266   -0.8981 C   0  0  0  0  0  0  0  0  0  0  0  0
   22.7894   73.9827    1.0196 O   0  0  0  0  0  0  0  0  0  0  0  0
   24.9566   71.9220    0.8017 O   0  0  0  0  0  0  0  0  0  0  0  0
   23.4062   70.9429    2.8201 O   0  0  0  0  0  0  0  0  0  0  0  0
   23.5589   71.7918    0.5470 C   0  0  1  0  0  0  0  0  0  0  0  0
   22.7874   71.7630    1.8499 C   0  0  2  0  0  0  0  0  0  0  0  0
   23.0734   73.0920   -0.0815 C   0  0  1  0  0  0  0  0  0  0  0  0
   22.7793   73.2302    2.2437 C   0  0  2  0  0  0  0  0  0  0  0  0
   25.2896   71.1034    1.2029 H   0  0  0  0  0  0  0  0  0  0  0  0
   23.3862   70.0196    2.5236 H   0  0  0  0  0  0  0  0  0  0  0  0
   22.5771   73.0265    5.0536 O   0  0  0  0  0  0  0  0  0  0  0  0
   18.2556   74.6283    5.0421 O   0  0  0  0  0  0  0  0  0  0  0  0
   21.6130   73.5875    3.0011 N   0  0  0  0  0  0  0  0  0  0  0  0
   20.4256   73.8244    5.0456 N   0  0  0  0  0  0  0  0  0  0  0  0
   21.6143   73.4464    4.4084 C   0  0  0  0  0  0  0  0  0  0  0  0
   20.4846   74.0721    2.3486 C   0  0  0  0  0  0  0  0  0  0  0  0
   19.3585   74.4270    2.9707 C   0  0  0  0  0  0  0  0  0  0  0  0
   19.2770   74.3102    4.4410 C   0  0  0  0  0  0  0  0  0  0  0  0
   20.4031   73.7344    6.0260 H   0  0  0  0  0  0  0  0  0  0  0  0
   21.3046   71.9277   -4.3475 O   0  0  0  0  0  0  0  0  0  0  0  0
   20.7578   73.1839   -5.2054 P   0  0  2  0  0  0  0  0  0  0  0  0
   22.0597   73.6572   -6.0412 O   0  0  0  0  0  0  0  0  0  0  0  0
   20.1260   74.2657   -4.3781 O   0  0  0  0  0  0  0  0  0  0  0  0
   19.7799   72.5294   -6.3101 O   0  0  0  0  0  0  0  0  0  0  0  0
   18.8043   70.4002   -5.9478 O   0  0  0  0  0  0  0  0  0  0  0  0
   18.5563   70.5474  -10.0670 O   0  0  0  0  0  0  0  0  0  0  0  0
   16.1719   70.8325   -8.4919 O   0  0  0  0  0  0  0  0  0  0  0  0
   20.8863   71.6154   -8.7217 O   0  0  0  0  0  0  0  0  0  0  0  0
   18.5376   71.0820   -8.7407 C   0  0  1  0  0  0  0  0  0  0  0  0
   17.4179   70.3903   -7.9606 C   0  0  1  0  0  0  0  0  0  0  0  0
   19.8908   70.8256   -8.0800 C   0  0  2  0  0  0  0  0  0  0  0  0
   17.5049   70.7132   -6.4629 C   0  0  1  0  0  0  0  0  0  0  0  0
   19.8550   71.1323   -6.5818 C   0  0  1  0  0  0  0  0  0  0  0  0
   17.7001   70.7073  -10.4923 H   0  0  0  0  0  0  0  0  0  0  0  0
   16.1299   70.6230   -9.4383 H   0  0  0  0  0  0  0  0  0  0  0  0
   20.8992   71.4118   -9.6694 H   0  0  0  0  0  0  0  0  0  0  0  0
   16.8410   68.5396   -5.7255 O   0  0  0  0  0  0  0  0  0  0  0  0
   16.4956   69.9103   -5.6451 C   0  0  0  0  0  0  0  0  0  0  0  0
   16.2073   68.0164   -5.2094 H   0  0  0  0  0  0  0  0  0  0  0  0
 25 28  1  0
 25 24  1  0
 25 26  1  6
 25 27  2  0
  1  4  1  0
  1 24  1  0
  1  2  1  1
  1  3  2  0
  6 11  1  0
  6 12  1  0
 29 36  1  0
 29 37  1  0
  9  7  1  1
  7 13  1  0
 10  8  1  1
  8 14  1  0
 37 28  1  6
  4  5  1  0
 33 30  1  6
 30 38  1  0
 34 31  1  6
 31 39  1  0
 35 32  1  6
 32 40  1  0
 41 42  1  0
 41 43  1  0
 15 19  2  0
 16 22  2  0
 12 17  1  6
 17 19  1  0
 17 20  1  0
 18 19  1  0
 18 22  1  0
 18 23  1  0
  9 10  1  0
  9 11  1  0
 10 12  1  0
 11  5  1  1
 33 34  1  0
 33 35  1  0
 34 36  1  0
 35 37  1  0
 36 42  1  1
 20 21  2  0
 21 22  1  0
M  CHG  2   2  -1  26  -1
M  END
>  <COMPND>  (114) 
    8629 

>  <AUTHOR>  (114) 
    GENERATED BY OPEN BABEL 3.1.1

>  <MASTER>  (114) 
        0    0    0    0    0    0    0    0   58    0   58    0

>  <minimizedAffinity>  (114) 
-6.50313

>  <CNNscore>  (114) 
0.5824243426

>  <CNNaffinity>  (114) 
4.2237634659

>  <CNN_VS>  (114) 
2.4600226879

>  <CNNaffinity_variance>  (114) 
0.1157442331

$$$$
115
     RDKit          3D

 43 45  0  0  0  0  0  0  0  0999 V2000
   20.4055   71.2466   -1.4521 P   0  0  2  0  0  0  0  0  0  0  0  0
   20.8867   70.5870   -0.0554 O   0  0  0  0  0  0  0  0  0  0  0  0
   19.8126   72.6198   -1.3334 O   0  0  0  0  0  0  0  0  0  0  0  0
   19.4439   70.1199   -2.1029 O   0  0  0  0  0  0  0  0  0  0  0  0
   19.1015   70.2327   -3.4733 C   0  0  0  0  0  0  0  0  0  0  0  0
   17.3913   71.2993   -4.7815 O   0  0  0  0  0  0  0  0  0  0  0  0
   15.4451   69.5412   -3.3281 O   0  0  0  0  0  0  0  0  0  0  0  0
   15.7224   68.2677   -5.7235 O   0  0  0  0  0  0  0  0  0  0  0  0
   16.7724   69.2509   -3.7633 C   0  0  1  0  0  0  0  0  0  0  0  0
   16.8024   69.0551   -5.2648 C   0  0  2  0  0  0  0  0  0  0  0  0
   17.6094   70.5121   -3.5902 C   0  0  1  0  0  0  0  0  0  0  0  0
   16.7387   70.4863   -5.7705 C   0  0  2  0  0  0  0  0  0  0  0  0
   14.8917   68.7503   -3.4289 H   0  0  0  0  0  0  0  0  0  0  0  0
   15.8081   67.3666   -5.3750 H   0  0  0  0  0  0  0  0  0  0  0  0
   16.3406   72.6721   -7.5146 O   0  0  0  0  0  0  0  0  0  0  0  0
   19.3695   71.0208  -10.5707 O   0  0  0  0  0  0  0  0  0  0  0  0
   17.4104   70.6531   -7.0284 N   0  0  0  0  0  0  0  0  0  0  0  0
   17.8492   71.8482   -9.0348 N   0  0  0  0  0  0  0  0  0  0  0  0
   17.1382   71.7865   -7.8295 C   0  0  0  0  0  0  0  0  0  0  0  0
   18.3278   69.6995   -7.4559 C   0  0  0  0  0  0  0  0  0  0  0  0
   18.9966   69.7724   -8.6086 C   0  0  0  0  0  0  0  0  0  0  0  0
   18.7701   70.9250   -9.5042 C   0  0  0  0  0  0  0  0  0  0  0  0
   17.6755   72.6288   -9.6095 H   0  0  0  0  0  0  0  0  0  0  0  0
   21.7339   71.1645   -2.3695 O   0  0  0  0  0  0  0  0  0  0  0  0
   22.9132   72.2393   -2.6287 P   0  0  2  0  0  0  0  0  0  0  0  0
   24.0513   71.3678   -3.3788 O   0  0  0  0  0  0  0  0  0  0  0  0
   23.3878   72.9426   -1.3901 O   0  0  0  0  0  0  0  0  0  0  0  0
   22.3298   73.2181   -3.7717 O   0  0  0  0  0  0  0  0  0  0  0  0
   20.1257   73.2575   -4.6416 O   0  0  0  0  0  0  0  0  0  0  0  0
   22.1916   74.4085   -8.0266 O   0  0  0  0  0  0  0  0  0  0  0  0
   20.6229   76.3430   -6.5965 O   0  0  0  0  0  0  0  0  0  0  0  0
   23.3045   72.3940   -6.2709 O   0  0  0  0  0  0  0  0  0  0  0  0
   21.9265   74.3378   -6.6230 C   0  0  1  0  0  0  0  0  0  0  0  0
   20.5436   74.9392   -6.3652 C   0  0  1  0  0  0  0  0  0  0  0  0
   21.9683   72.8764   -6.1801 C   0  0  2  0  0  0  0  0  0  0  0  0
   20.0766   74.6597   -4.9303 C   0  0  1  0  0  0  0  0  0  0  0  0
   21.4374   72.7024   -4.7561 C   0  0  1  0  0  0  0  0  0  0  0  0
   22.1670   75.3338   -8.3142 H   0  0  0  0  0  0  0  0  0  0  0  0
   20.9193   76.5058   -7.5058 H   0  0  0  0  0  0  0  0  0  0  0  0
   23.6290   72.5094   -7.1771 H   0  0  0  0  0  0  0  0  0  0  0  0
   17.7660   74.1378   -5.2433 O   0  0  0  0  0  0  0  0  0  0  0  0
   18.6366   75.1126   -4.6991 C   0  0  0  0  0  0  0  0  0  0  0  0
   16.8459   74.4126   -5.1032 H   0  0  0  0  0  0  0  0  0  0  0  0
 25 28  1  0
 25 24  1  0
 25 26  1  6
 25 27  2  0
  1  4  1  0
  1 24  1  0
  1  2  1  1
  1  3  2  0
  6 11  1  0
  6 12  1  0
 29 36  1  0
 29 37  1  0
  9  7  1  6
  7 13  1  0
 10  8  1  6
  8 14  1  0
 37 28  1  1
  4  5  1  0
 33 30  1  6
 30 38  1  0
 34 31  1  1
 31 39  1  0
 35 32  1  1
 32 40  1  0
 41 42  1  0
 41 43  1  0
 15 19  2  0
 16 22  2  0
 12 17  1  6
 17 19  1  0
 17 20  1  0
 18 19  1  0
 18 22  1  0
 18 23  1  0
  9 10  1  0
  9 11  1  0
 10 12  1  0
 11  5  1  6
 33 34  1  0
 33 35  1  0
 34 36  1  0
 35 37  1  0
 36 42  1  6
 20 21  2  0
 21 22  1  0
M  CHG  2   2  -1  26  -1
M  END
>  <COMPND>  (115) 
    8629 

>  <AUTHOR>  (115) 
    GENERATED BY OPEN BABEL 3.1.1

>  <MASTER>  (115) 
        0    0    0    0    0    0    0    0   58    0   58    0

>  <minimizedAffinity>  (115) 
-7.22467

>  <CNNscore>  (115) 
0.5742376447

>  <CNNaffinity>  (115) 
4.2178535461

>  <CNN_VS>  (115) 
2.4220502377

>  <CNNaffinity_variance>  (115) 
1.0455036163

$$$$
116
     RDKit          3D

 43 45  0  0  0  0  0  0  0  0999 V2000
   23.1270   73.4811   -4.2353 P   0  0  2  0  0  0  0  0  0  0  0  0
   24.1376   72.2189   -4.1788 O   0  0  0  0  0  0  0  0  0  0  0  0
   23.7196   74.7431   -4.7901 O   0  0  0  0  0  0  0  0  0  0  0  0
   22.5457   73.5810   -2.7287 O   0  0  0  0  0  0  0  0  0  0  0  0
   21.6050   74.5986   -2.4330 C   0  0  0  0  0  0  0  0  0  0  0  0
   20.8618   72.7226   -1.1284 O   0  0  0  0  0  0  0  0  0  0  0  0
   18.6131   74.4851   -0.2185 O   0  0  0  0  0  0  0  0  0  0  0  0
   20.3343   74.5790    1.8946 O   0  0  0  0  0  0  0  0  0  0  0  0
   19.9703   74.8254   -0.4967 C   0  0  1  0  0  0  0  0  0  0  0  0
   20.8746   74.3304    0.6128 C   0  0  2  0  0  0  0  0  0  0  0  0
   20.4314   73.9856   -1.6814 C   0  0  1  0  0  0  0  0  0  0  0  0
   20.9758   72.8474    0.2986 C   0  0  2  0  0  0  0  0  0  0  0  0
   18.2963   75.0091    0.5345 H   0  0  0  0  0  0  0  0  0  0  0  0
   20.2904   75.5359    2.0470 H   0  0  0  0  0  0  0  0  0  0  0  0
   21.3274   70.1615    1.0987 O   0  0  0  0  0  0  0  0  0  0  0  0
   25.8241   70.7931    1.8869 O   0  0  0  0  0  0  0  0  0  0  0  0
   22.2278   72.2830    0.7175 N   0  0  0  0  0  0  0  0  0  0  0  0
   23.5662   70.4781    1.4903 N   0  0  0  0  0  0  0  0  0  0  0  0
   22.2966   70.9232    1.1004 C   0  0  0  0  0  0  0  0  0  0  0  0
   23.3703   73.0753    0.7453 C   0  0  0  0  0  0  0  0  0  0  0  0
   24.5733   72.6360    1.1210 C   0  0  0  0  0  0  0  0  0  0  0  0
   24.7313   71.2271    1.5361 C   0  0  0  0  0  0  0  0  0  0  0  0
   23.6381   69.5342    1.7617 H   0  0  0  0  0  0  0  0  0  0  0  0
   21.8704   72.9034   -5.0721 O   0  0  0  0  0  0  0  0  0  0  0  0
   21.0945   73.4905   -6.3629 P   0  0  2  0  0  0  0  0  0  0  0  0
   22.0435   73.0517   -7.5976 O   0  0  0  0  0  0  0  0  0  0  0  0
   20.8106   74.9631   -6.2931 O   0  0  0  0  0  0  0  0  0  0  0  0
   19.7821   72.5624   -6.5077 O   0  0  0  0  0  0  0  0  0  0  0  0
   19.1896   70.4429   -5.6284 O   0  0  0  0  0  0  0  0  0  0  0  0
   17.7401   69.9926   -9.4686 O   0  0  0  0  0  0  0  0  0  0  0  0
   15.9005   70.3306   -7.2891 O   0  0  0  0  0  0  0  0  0  0  0  0
   20.2312   71.3975   -9.0209 O   0  0  0  0  0  0  0  0  0  0  0  0
   18.0503   70.7056   -8.2682 C   0  0  1  0  0  0  0  0  0  0  0  0
   17.2873   70.0546   -7.1129 C   0  0  1  0  0  0  0  0  0  0  0  0
   19.5566   70.6387   -8.0231 C   0  0  2  0  0  0  0  0  0  0  0  0
   17.7707   70.5899   -5.7584 C   0  0  1  0  0  0  0  0  0  0  0  0
   19.9252   71.1496   -6.6291 C   0  0  1  0  0  0  0  0  0  0  0  0
   16.7852   70.0316   -9.6303 H   0  0  0  0  0  0  0  0  0  0  0  0
   15.6080   69.9879   -8.1483 H   0  0  0  0  0  0  0  0  0  0  0  0
   19.9898   71.0641   -9.8987 H   0  0  0  0  0  0  0  0  0  0  0  0
   16.6269   68.6100   -5.0653 O   0  0  0  0  0  0  0  0  0  0  0  0
   17.1357   69.8419   -4.5882 C   0  0  0  0  0  0  0  0  0  0  0  0
   16.2199   68.1229   -4.3313 H   0  0  0  0  0  0  0  0  0  0  0  0
 25 28  1  0
 25 24  1  0
 25 26  1  6
 25 27  2  0
  1  4  1  0
  1 24  1  0
  1  2  1  1
  1  3  2  0
  6 11  1  0
  6 12  1  0
 29 36  1  0
 29 37  1  0
  9  7  1  1
  7 13  1  0
 10  8  1  1
  8 14  1  0
 37 28  1  6
  4  5  1  0
 33 30  1  6
 30 38  1  0
 34 31  1  6
 31 39  1  0
 35 32  1  6
 32 40  1  0
 41 42  1  0
 41 43  1  0
 15 19  2  0
 16 22  2  0
 12 17  1  6
 17 19  1  0
 17 20  1  0
 18 19  1  0
 18 22  1  0
 18 23  1  0
  9 10  1  0
  9 11  1  0
 10 12  1  0
 11  5  1  1
 33 34  1  0
 33 35  1  0
 34 36  1  0
 35 37  1  0
 36 42  1  1
 20 21  2  0
 21 22  1  0
M  CHG  2   2  -1  26  -1
M  END
>  <COMPND>  (116) 
    8629 

>  <AUTHOR>  (116) 
    GENERATED BY OPEN BABEL 3.1.1

>  <MASTER>  (116) 
        0    0    0    0    0    0    0    0   58    0   58    0

>  <minimizedAffinity>  (116) 
-7.55232

>  <CNNscore>  (116) 
0.5679813623

>  <CNNaffinity>  (116) 
4.4197273254

>  <CNN_VS>  (116) 
2.5103228092

>  <CNNaffinity_variance>  (116) 
0.1906872988

$$$$
117
     RDKit          3D

 43 45  0  0  0  0  0  0  0  0999 V2000
   18.7410   74.2310   -2.8552 P   0  0  2  0  0  0  0  0  0  0  0  0
   18.6295   75.2983   -4.0660 O   0  0  0  0  0  0  0  0  0  0  0  0
   17.4687   74.0012   -2.0938 O   0  0  0  0  0  0  0  0  0  0  0  0
   19.9956   74.7629   -1.9829 O   0  0  0  0  0  0  0  0  0  0  0  0
   20.2467   74.1628   -0.7240 C   0  0  0  0  0  0  0  0  0  0  0  0
   22.3320   73.5907    0.3237 O   0  0  0  0  0  0  0  0  0  0  0  0
   22.3085   71.1356   -1.3975 O   0  0  0  0  0  0  0  0  0  0  0  0
   21.4600   70.1806    1.0118 O   0  0  0  0  0  0  0  0  0  0  0  0
   21.2172   71.8115   -0.7750 C   0  0  1  0  0  0  0  0  0  0  0  0
   21.2112   71.5396    0.7148 C   0  0  2  0  0  0  0  0  0  0  0  0
   21.5022   73.3074   -0.8241 C   0  0  1  0  0  0  0  0  0  0  0  0
   22.3171   72.4575    1.2071 C   0  0  2  0  0  0  0  0  0  0  0  0
   22.1489   70.1784   -1.3786 H   0  0  0  0  0  0  0  0  0  0  0  0
   20.7287   69.6376    0.6786 H   0  0  0  0  0  0  0  0  0  0  0  0
   23.2512   71.1358    3.5220 O   0  0  0  0  0  0  0  0  0  0  0  0
   21.3924   74.3053    6.3042 O   0  0  0  0  0  0  0  0  0  0  0  0
   22.0920   72.9154    2.5491 N   0  0  0  0  0  0  0  0  0  0  0  0
   22.3251   72.7151    4.9054 N   0  0  0  0  0  0  0  0  0  0  0  0
   22.6032   72.1776    3.6422 C   0  0  0  0  0  0  0  0  0  0  0  0
   21.3719   74.0842    2.7709 C   0  0  0  0  0  0  0  0  0  0  0  0
   21.1143   74.5828    3.9818 C   0  0  0  0  0  0  0  0  0  0  0  0
   21.6128   73.8725    5.1772 C   0  0  0  0  0  0  0  0  0  0  0  0
   22.6709   72.2178    5.6818 H   0  0  0  0  0  0  0  0  0  0  0  0
   19.3361   72.9162   -3.5833 O   0  0  0  0  0  0  0  0  0  0  0  0
   20.4891   72.7539   -4.7045 P   0  0  2  0  0  0  0  0  0  0  0  0
   21.3030   71.4449   -4.2130 O   0  0  0  0  0  0  0  0  0  0  0  0
   21.3393   73.9766   -4.8944 O   0  0  0  0  0  0  0  0  0  0  0  0
   19.7048   72.2721   -6.0303 O   0  0  0  0  0  0  0  0  0  0  0  0
   18.8710   70.0539   -6.0643 O   0  0  0  0  0  0  0  0  0  0  0  0
   18.7734   70.8575  -10.1134 O   0  0  0  0  0  0  0  0  0  0  0  0
   16.3152   70.7266   -8.6342 O   0  0  0  0  0  0  0  0  0  0  0  0
   20.9668   71.8387   -8.4990 O   0  0  0  0  0  0  0  0  0  0  0  0
   18.6649   71.1653   -8.7210 C   0  0  1  0  0  0  0  0  0  0  0  0
   17.5681   70.2845   -8.1193 C   0  0  1  0  0  0  0  0  0  0  0  0
   20.0063   70.8920   -8.0433 C   0  0  2  0  0  0  0  0  0  0  0  0
   17.5735   70.3627   -6.5866 C   0  0  1  0  0  0  0  0  0  0  0  0
   19.8904   70.9461   -6.5189 C   0  0  1  0  0  0  0  0  0  0  0  0
   17.9251   71.0294  -10.5497 H   0  0  0  0  0  0  0  0  0  0  0  0
   16.3252   70.6727   -9.6028 H   0  0  0  0  0  0  0  0  0  0  0  0
   21.0310   71.7943   -9.4653 H   0  0  0  0  0  0  0  0  0  0  0  0
   17.1438   68.9054   -4.7425 O   0  0  0  0  0  0  0  0  0  0  0  0
   16.5934   69.3733   -5.9601 C   0  0  0  0  0  0  0  0  0  0  0  0
   16.5306   68.2749   -4.3323 H   0  0  0  0  0  0  0  0  0  0  0  0
 25 28  1  0
 25 24  1  0
 25 26  1  1
 25 27  2  0
  1  4  1  0
  1 24  1  0
  1  2  1  6
  1  3  2  0
  6 11  1  0
  6 12  1  0
 29 36  1  0
 29 37  1  0
  9  7  1  6
  7 13  1  0
 10  8  1  6
  8 14  1  0
 37 28  1  6
  4  5  1  0
 33 30  1  6
 30 38  1  0
 34 31  1  6
 31 39  1  0
 35 32  1  6
 32 40  1  0
 41 42  1  0
 41 43  1  0
 15 19  2  0
 16 22  2  0
 12 17  1  1
 17 19  1  0
 17 20  1  0
 18 19  1  0
 18 22  1  0
 18 23  1  0
  9 10  1  0
  9 11  1  0
 10 12  1  0
 11  5  1  1
 33 34  1  0
 33 35  1  0
 34 36  1  0
 35 37  1  0
 36 42  1  1
 20 21  2  0
 21 22  1  0
M  CHG  2   2  -1  26  -1
M  END
>  <COMPND>  (117) 
    8629 

>  <AUTHOR>  (117) 
    GENERATED BY OPEN BABEL 3.1.1

>  <MASTER>  (117) 
        0    0    0    0    0    0    0    0   58    0   58    0

>  <minimizedAffinity>  (117) 
-6.64238

>  <CNNscore>  (117) 
0.5436924100

>  <CNNaffinity>  (117) 
3.9947991371

>  <CNN_VS>  (117) 
2.1719419956

>  <CNNaffinity_variance>  (117) 
0.0920326933

$$$$
118
     RDKit          3D

 43 45  0  0  0  0  0  0  0  0999 V2000
   21.8746   72.5573   -5.7359 P   0  0  2  0  0  0  0  0  0  0  0  0
   21.2518   73.9350   -5.1602 O   0  0  0  0  0  0  0  0  0  0  0  0
   23.0132   72.7297   -6.6978 O   0  0  0  0  0  0  0  0  0  0  0  0
   20.5884   71.7578   -6.3055 O   0  0  0  0  0  0  0  0  0  0  0  0
   20.2589   71.8966   -7.6767 C   0  0  0  0  0  0  0  0  0  0  0  0
   18.9348   70.0208   -6.9683 O   0  0  0  0  0  0  0  0  0  0  0  0
   18.0589   69.7982   -9.8273 O   0  0  0  0  0  0  0  0  0  0  0  0
   15.9381   71.0456   -8.6514 O   0  0  0  0  0  0  0  0  0  0  0  0
   18.3342   70.9666   -9.0564 C   0  0  1  0  0  0  0  0  0  0  0  0
   17.2139   71.2216   -8.0698 C   0  0  2  0  0  0  0  0  0  0  0  0
   19.5058   70.6548   -8.1337 C   0  0  1  0  0  0  0  0  0  0  0  0
   17.5089   70.1979   -6.9867 C   0  0  2  0  0  0  0  0  0  0  0  0
   17.3142   69.9731  -10.4246 H   0  0  0  0  0  0  0  0  0  0  0  0
   15.7979   71.7204   -9.3339 H   0  0  0  0  0  0  0  0  0  0  0  0
   16.6816   68.4651   -4.9152 O   0  0  0  0  0  0  0  0  0  0  0  0
   15.8690   71.9818   -2.0492 O   0  0  0  0  0  0  0  0  0  0  0  0
   17.0764   70.6337   -5.6888 N   0  0  0  0  0  0  0  0  0  0  0  0
   16.2778   70.2175   -3.4898 N   0  0  0  0  0  0  0  0  0  0  0  0
   16.6805   69.6823   -4.7200 C   0  0  0  0  0  0  0  0  0  0  0  0
   17.0481   71.9910   -5.3873 C   0  0  0  0  0  0  0  0  0  0  0  0
   16.6603   72.4852   -4.2098 C   0  0  0  0  0  0  0  0  0  0  0  0
   16.2312   71.5584   -3.1426 C   0  0  0  0  0  0  0  0  0  0  0  0
   15.9973   69.5735   -2.7996 H   0  0  0  0  0  0  0  0  0  0  0  0
   22.2465   71.7376   -4.3932 O   0  0  0  0  0  0  0  0  0  0  0  0
   23.3187   72.0464   -3.2236 P   0  0  2  0  0  0  0  0  0  0  0  0
   24.0144   73.4229   -3.7121 O   0  0  0  0  0  0  0  0  0  0  0  0
   24.2818   70.9253   -2.9601 O   0  0  0  0  0  0  0  0  0  0  0  0
   22.4229   72.4719   -1.9502 O   0  0  0  0  0  0  0  0  0  0  0  0
   21.7889   71.2912    0.0044 O   0  0  0  0  0  0  0  0  0  0  0  0
   18.2559   73.2990   -0.7289 O   0  0  0  0  0  0  0  0  0  0  0  0
   19.9165   74.1081    1.4701 O   0  0  0  0  0  0  0  0  0  0  0  0
   19.8054   72.2495   -2.9373 O   0  0  0  0  0  0  0  0  0  0  0  0
   19.6755   73.1285   -0.6986 C   0  0  1  0  0  0  0  0  0  0  0  0
   20.0991   72.8908    0.7523 C   0  0  1  0  0  0  0  0  0  0  0  0
   20.0535   71.9333   -1.5716 C   0  0  2  0  0  0  0  0  0  0  0  0
   21.5625   72.4362    0.8347 C   0  0  1  0  0  0  0  0  0  0  0  0
   21.5170   71.5325   -1.3776 C   0  0  1  0  0  0  0  0  0  0  0  0
   18.0093   74.0566   -0.1769 H   0  0  0  0  0  0  0  0  0  0  0  0
   18.9885   74.3844    1.4097 H   0  0  0  0  0  0  0  0  0  0  0  0
   18.8757   72.5013   -3.0471 H   0  0  0  0  0  0  0  0  0  0  0  0
   20.7816   71.8879    3.0253 O   0  0  0  0  0  0  0  0  0  0  0  0
   21.9598   72.0423    2.2557 C   0  0  0  0  0  0  0  0  0  0  0  0
   21.0190   71.6368    3.9321 H   0  0  0  0  0  0  0  0  0  0  0  0
 25 28  1  0
 25 24  1  0
 25 26  1  6
 25 27  2  0
  1  4  1  0
  1 24  1  0
  1  2  1  1
  1  3  2  0
  6 11  1  0
  6 12  1  0
 29 36  1  0
 29 37  1  0
  9  7  1  6
  7 13  1  0
 10  8  1  6
  8 14  1  0
 37 28  1  1
  4  5  1  0
 33 30  1  1
 30 38  1  0
 34 31  1  1
 31 39  1  0
 35 32  1  6
 32 40  1  0
 41 42  1  0
 41 43  1  0
 15 19  2  0
 16 22  2  0
 12 17  1  1
 17 19  1  0
 17 20  1  0
 18 19  1  0
 18 22  1  0
 18 23  1  0
  9 10  1  0
  9 11  1  0
 10 12  1  0
 11  5  1  1
 33 34  1  0
 33 35  1  0
 34 36  1  0
 35 37  1  0
 36 42  1  1
 20 21  2  0
 21 22  1  0
M  CHG  2   2  -1  26  -1
M  END
>  <COMPND>  (118) 
    8629 

>  <AUTHOR>  (118) 
    GENERATED BY OPEN BABEL 3.1.1

>  <MASTER>  (118) 
        0    0    0    0    0    0    0    0   58    0   58    0

>  <minimizedAffinity>  (118) 
-7.27228

>  <CNNscore>  (118) 
0.5345831513

>  <CNNaffinity>  (118) 
4.2059087753

>  <CNN_VS>  (118) 
2.2484080791

>  <CNNaffinity_variance>  (118) 
0.5424211025

$$$$
119
     RDKit          3D

 43 45  0  0  0  0  0  0  0  0999 V2000
   23.5649   72.3951   -3.5323 P   0  0  2  0  0  0  0  0  0  0  0  0
   24.2021   70.9445   -3.2048 O   0  0  0  0  0  0  0  0  0  0  0  0
   24.5641   73.4712   -3.8407 O   0  0  0  0  0  0  0  0  0  0  0  0
   22.5878   72.6829   -2.2752 O   0  0  0  0  0  0  0  0  0  0  0  0
   23.1681   72.8623   -0.9950 C   0  0  0  0  0  0  0  0  0  0  0  0
   24.2861   71.3350    0.4854 O   0  0  0  0  0  0  0  0  0  0  0  0
   21.5593   70.2859    1.1597 O   0  0  0  0  0  0  0  0  0  0  0  0
   22.1167   71.9016    3.2846 O   0  0  0  0  0  0  0  0  0  0  0  0
   21.9662   71.6231    0.8740 C   0  0  1  0  0  0  0  0  0  0  0  0
   22.7289   72.2026    2.0471 C   0  0  2  0  0  0  0  0  0  0  0  0
   23.0392   71.5664   -0.2062 C   0  0  1  0  0  0  0  0  0  0  0  0
   24.0902   71.5460    1.8932 C   0  0  2  0  0  0  0  0  0  0  0  0
   20.8739   70.2965    1.8468 H   0  0  0  0  0  0  0  0  0  0  0  0
   21.2540   72.3421    3.3344 H   0  0  0  0  0  0  0  0  0  0  0  0
   26.7354   70.6504    2.3163 O   0  0  0  0  0  0  0  0  0  0  0  0
   28.0916   74.7909    3.8191 O   0  0  0  0  0  0  0  0  0  0  0  0
   25.1549   72.3689    2.3939 N   0  0  0  0  0  0  0  0  0  0  0  0
   27.4086   72.7128    3.0641 N   0  0  0  0  0  0  0  0  0  0  0  0
   26.4470   71.8216    2.5710 C   0  0  0  0  0  0  0  0  0  0  0  0
   24.9129   73.7029    2.7033 C   0  0  0  0  0  0  0  0  0  0  0  0
   25.8404   74.5392    3.1739 C   0  0  0  0  0  0  0  0  0  0  0  0
   27.2165   74.0466    3.3876 C   0  0  0  0  0  0  0  0  0  0  0  0
   28.3160   72.3536    3.1958 H   0  0  0  0  0  0  0  0  0  0  0  0
   22.5294   72.0749   -4.7315 O   0  0  0  0  0  0  0  0  0  0  0  0
   21.8179   73.0485   -5.8079 P   0  0  2  0  0  0  0  0  0  0  0  0
   22.6935   72.8214   -7.1493 O   0  0  0  0  0  0  0  0  0  0  0  0
   21.7167   74.4809   -5.3696 O   0  0  0  0  0  0  0  0  0  0  0  0
   20.4004   72.3435   -6.1221 O   0  0  0  0  0  0  0  0  0  0  0  0
   19.6799   70.1883   -5.4494 O   0  0  0  0  0  0  0  0  0  0  0  0
   17.6981   70.4485   -9.0627 O   0  0  0  0  0  0  0  0  0  0  0  0
   16.2123   70.6475   -6.6131 O   0  0  0  0  0  0  0  0  0  0  0  0
   20.3757   71.5178   -8.8041 O   0  0  0  0  0  0  0  0  0  0  0  0
   18.2451   70.9447   -7.8379 C   0  0  1  0  0  0  0  0  0  0  0  0
   17.5674   70.2119   -6.6784 C   0  0  1  0  0  0  0  0  0  0  0  0
   19.7517   70.6930   -7.8259 C   0  0  2  0  0  0  0  0  0  0  0  0
   18.2838   70.4934   -5.3508 C   0  0  1  0  0  0  0  0  0  0  0  0
   20.3573   70.9562   -6.4460 C   0  0  1  0  0  0  0  0  0  0  0  0
   16.7418   70.6057   -9.0770 H   0  0  0  0  0  0  0  0  0  0  0  0
   15.7714   70.4644   -7.4577 H   0  0  0  0  0  0  0  0  0  0  0  0
   19.9838   71.3416   -9.6731 H   0  0  0  0  0  0  0  0  0  0  0  0
   16.8667   68.6642   -4.7554 O   0  0  0  0  0  0  0  0  0  0  0  0
   17.7225   69.6502   -4.2080 C   0  0  0  0  0  0  0  0  0  0  0  0
   16.5023   68.1197   -4.0395 H   0  0  0  0  0  0  0  0  0  0  0  0
 25 28  1  0
 25 24  1  0
 25 26  1  6
 25 27  2  0
  1  4  1  0
  1 24  1  0
  1  2  1  1
  1  3  2  0
  6 11  1  0
  6 12  1  0
 29 36  1  0
 29 37  1  0
  9  7  1  1
  7 13  1  0
 10  8  1  1
  8 14  1  0
 37 28  1  1
  4  5  1  0
 33 30  1  6
 30 38  1  0
 34 31  1  1
 31 39  1  0
 35 32  1  6
 32 40  1  0
 41 42  1  0
 41 43  1  0
 15 19  2  0
 16 22  2  0
 12 17  1  6
 17 19  1  0
 17 20  1  0
 18 19  1  0
 18 22  1  0
 18 23  1  0
  9 10  1  0
  9 11  1  0
 10 12  1  0
 11  5  1  1
 33 34  1  0
 33 35  1  0
 34 36  1  0
 35 37  1  0
 36 42  1  1
 20 21  2  0
 21 22  1  0
M  CHG  2   2  -1  26  -1
M  END
>  <COMPND>  (119) 
    8629 

>  <AUTHOR>  (119) 
    GENERATED BY OPEN BABEL 3.1.1

>  <MASTER>  (119) 
        0    0    0    0    0    0    0    0   58    0   58    0

>  <minimizedAffinity>  (119) 
-8.05622

>  <CNNscore>  (119) 
0.5187534690

>  <CNNaffinity>  (119) 
4.2491388321

>  <CNN_VS>  (119) 
2.2042555809

>  <CNNaffinity_variance>  (119) 
0.1941706240

$$$$
120
     RDKit          3D

 43 45  0  0  0  0  0  0  0  0999 V2000
   23.4739   72.4075   -3.1139 P   0  0  2  0  0  0  0  0  0  0  0  0
   24.1089   70.9197   -3.0893 O   0  0  0  0  0  0  0  0  0  0  0  0
   24.4425   73.5046   -3.4451 O   0  0  0  0  0  0  0  0  0  0  0  0
   22.7294   72.5359   -1.6831 O   0  0  0  0  0  0  0  0  0  0  0  0
   23.5239   72.6428   -0.5147 C   0  0  0  0  0  0  0  0  0  0  0  0
   23.9591   71.6490    1.6292 O   0  0  0  0  0  0  0  0  0  0  0  0
   21.4564   70.0569    1.1904 O   0  0  0  0  0  0  0  0  0  0  0  0
   20.6192   72.0266    2.8803 O   0  0  0  0  0  0  0  0  0  0  0  0
   21.7461   71.4033    0.8181 C   0  0  1  0  0  0  0  0  0  0  0  0
   21.7178   72.3033    2.0358 C   0  0  2  0  0  0  0  0  0  0  0  0
   23.2114   71.4714    0.4062 C   0  0  1  0  0  0  0  0  0  0  0  0
   23.0523   71.9893    2.6907 C   0  0  2  0  0  0  0  0  0  0  0  0
   20.5258   69.9885    1.4571 H   0  0  0  0  0  0  0  0  0  0  0  0
   19.7939   72.2426    2.4187 H   0  0  0  0  0  0  0  0  0  0  0  0
   22.4178   72.5962    5.3753 O   0  0  0  0  0  0  0  0  0  0  0  0
   25.1470   76.3100    5.3727 O   0  0  0  0  0  0  0  0  0  0  0  0
   23.5830   73.1086    3.4165 N   0  0  0  0  0  0  0  0  0  0  0  0
   23.7774   74.4448    5.3718 N   0  0  0  0  0  0  0  0  0  0  0  0
   23.1995   73.3247    4.7606 C   0  0  0  0  0  0  0  0  0  0  0  0
   24.4735   73.9778    2.7957 C   0  0  0  0  0  0  0  0  0  0  0  0
   25.0147   75.0421    3.3921 C   0  0  0  0  0  0  0  0  0  0  0  0
   24.6663   75.3390    4.7966 C   0  0  0  0  0  0  0  0  0  0  0  0
   23.5245   74.6154    6.3082 H   0  0  0  0  0  0  0  0  0  0  0  0
   22.2434   72.2604   -4.1519 O   0  0  0  0  0  0  0  0  0  0  0  0
   21.9122   73.0481   -5.5240 P   0  0  2  0  0  0  0  0  0  0  0  0
   23.0271   72.4861   -6.5529 O   0  0  0  0  0  0  0  0  0  0  0  0
   21.8941   74.5430   -5.3865 O   0  0  0  0  0  0  0  0  0  0  0  0
   20.5231   72.4068   -6.0380 O   0  0  0  0  0  0  0  0  0  0  0  0
   19.5441   70.2588   -5.8272 O   0  0  0  0  0  0  0  0  0  0  0  0
   18.6087   71.0256   -9.7753 O   0  0  0  0  0  0  0  0  0  0  0  0
   16.5373   71.0988   -7.7873 O   0  0  0  0  0  0  0  0  0  0  0  0
   21.1708   71.8524   -8.7116 O   0  0  0  0  0  0  0  0  0  0  0  0
   18.8345   71.3552   -8.4021 C   0  0  1  0  0  0  0  0  0  0  0  0
   17.8378   70.5674   -7.5496 C   0  0  1  0  0  0  0  0  0  0  0  0
   20.2695   70.9869   -8.0298 C   0  0  2  0  0  0  0  0  0  0  0  0
   18.1889   70.6607   -6.0586 C   0  0  1  0  0  0  0  0  0  0  0  0
   20.4991   71.0655   -6.5194 C   0  0  1  0  0  0  0  0  0  0  0  0
   17.6994   71.2575  -10.0183 H   0  0  0  0  0  0  0  0  0  0  0  0
   16.3281   71.0343   -8.7325 H   0  0  0  0  0  0  0  0  0  0  0  0
   21.0156   71.7932   -9.6668 H   0  0  0  0  0  0  0  0  0  0  0  0
   16.0497   70.3900   -5.0293 O   0  0  0  0  0  0  0  0  0  0  0  0
   17.3033   69.7559   -5.2048 C   0  0  0  0  0  0  0  0  0  0  0  0
   15.4754   69.8254   -4.4879 H   0  0  0  0  0  0  0  0  0  0  0  0
 25 28  1  0
 25 24  1  0
 25 26  1  6
 25 27  2  0
  1  4  1  0
  1 24  1  0
  1  2  1  1
  1  3  2  0
  6 11  1  0
  6 12  1  0
 29 36  1  0
 29 37  1  0
  9  7  1  1
  7 13  1  0
 10  8  1  1
  8 14  1  0
 37 28  1  1
  4  5  1  0
 33 30  1  6
 30 38  1  0
 34 31  1  1
 31 39  1  0
 35 32  1  6
 32 40  1  0
 41 42  1  0
 41 43  1  0
 15 19  2  0
 16 22  2  0
 12 17  1  6
 17 19  1  0
 17 20  1  0
 18 19  1  0
 18 22  1  0
 18 23  1  0
  9 10  1  0
  9 11  1  0
 10 12  1  0
 11  5  1  6
 33 34  1  0
 33 35  1  0
 34 36  1  0
 35 37  1  0
 36 42  1  1
 20 21  2  0
 21 22  1  0
M  CHG  2   2  -1  26  -1
M  END
>  <COMPND>  (120) 
    8629 

>  <AUTHOR>  (120) 
    GENERATED BY OPEN BABEL 3.1.1

>  <MASTER>  (120) 
        0    0    0    0    0    0    0    0   58    0   58    0

>  <minimizedAffinity>  (120) 
-7.81839

>  <CNNscore>  (120) 
0.5179156661

>  <CNNaffinity>  (120) 
4.0829877853

>  <CNN_VS>  (120) 
2.1146433353

>  <CNNaffinity_variance>  (120) 
0.2293430865

$$$$
121
     RDKit          3D

 43 45  0  0  0  0  0  0  0  0999 V2000
   22.9175   72.0981   -3.1553 P   0  0  2  0  0  0  0  0  0  0  0  0
   24.1742   72.3698   -4.1374 O   0  0  0  0  0  0  0  0  0  0  0  0
   23.2167   71.2302   -1.9685 O   0  0  0  0  0  0  0  0  0  0  0  0
   21.7593   71.5571   -4.1472 O   0  0  0  0  0  0  0  0  0  0  0  0
   20.9329   70.4942   -3.7055 C   0  0  0  0  0  0  0  0  0  0  0  0
   19.0644   71.6740   -4.6493 O   0  0  0  0  0  0  0  0  0  0  0  0
   17.4457   70.5306   -2.3992 O   0  0  0  0  0  0  0  0  0  0  0  0
   16.7832   68.9110   -4.4908 O   0  0  0  0  0  0  0  0  0  0  0  0
   18.5174   69.9384   -3.1313 C   0  0  1  0  0  0  0  0  0  0  0  0
   18.0502   69.5362   -4.5146 C   0  0  2  0  0  0  0  0  0  0  0  0
   19.5324   71.0310   -3.4435 C   0  0  1  0  0  0  0  0  0  0  0  0
   18.0302   70.8705   -5.2407 C   0  0  2  0  0  0  0  0  0  0  0  0
   16.7848   69.8519   -2.1879 H   0  0  0  0  0  0  0  0  0  0  0  0
   16.8481   68.0665   -4.0182 H   0  0  0  0  0  0  0  0  0  0  0  0
   16.0850   70.1733   -7.1663 O   0  0  0  0  0  0  0  0  0  0  0  0
   19.1501   70.3723  -10.6024 O   0  0  0  0  0  0  0  0  0  0  0  0
   18.2923   70.7334   -6.6457 N   0  0  0  0  0  0  0  0  0  0  0  0
   17.6127   70.2731   -8.8756 N   0  0  0  0  0  0  0  0  0  0  0  0
   17.2454   70.3785   -7.5280 C   0  0  0  0  0  0  0  0  0  0  0  0
   19.5755   70.9504   -7.1357 C   0  0  0  0  0  0  0  0  0  0  0  0
   19.9097   70.8446   -8.4235 C   0  0  0  0  0  0  0  0  0  0  0  0
   18.8744   70.4776   -9.4112 C   0  0  0  0  0  0  0  0  0  0  0  0
   16.8998   70.0266   -9.5087 H   0  0  0  0  0  0  0  0  0  0  0  0
   22.4140   73.5896   -2.7882 O   0  0  0  0  0  0  0  0  0  0  0  0
   21.6698   74.7096   -3.6852 P   0  0  2  0  0  0  0  0  0  0  0  0
   22.2135   76.1021   -3.0663 O   0  0  0  0  0  0  0  0  0  0  0  0
   20.1738   74.5848   -3.7089 O   0  0  0  0  0  0  0  0  0  0  0  0
   22.3727   74.6057   -5.1343 O   0  0  0  0  0  0  0  0  0  0  0  0
   21.0512   75.5358   -6.8679 O   0  0  0  0  0  0  0  0  0  0  0  0
   23.8985   73.6199   -9.1642 O   0  0  0  0  0  0  0  0  0  0  0  0
   23.9271   76.4851   -8.9696 O   0  0  0  0  0  0  0  0  0  0  0  0
   22.9170   72.3721   -6.7437 O   0  0  0  0  0  0  0  0  0  0  0  0
   23.4097   74.3459   -8.0332 C   0  0  1  0  0  0  0  0  0  0  0  0
   22.8400   75.6770   -8.5274 C   0  0  1  0  0  0  0  0  0  0  0  0
   22.3261   73.5212   -7.3410 C   0  0  2  0  0  0  0  0  0  0  0  0
   22.0598   76.3924   -7.4163 C   0  0  1  0  0  0  0  0  0  0  0  0
   21.5785   74.3411   -6.2879 C   0  0  1  0  0  0  0  0  0  0  0  0
   24.5873   74.1378   -9.6079 H   0  0  0  0  0  0  0  0  0  0  0  0
   24.4117   76.0217   -9.6708 H   0  0  0  0  0  0  0  0  0  0  0  0
   23.3869   71.8614   -7.4206 H   0  0  0  0  0  0  0  0  0  0  0  0
   22.3284   78.6259   -8.2216 O   0  0  0  0  0  0  0  0  0  0  0  0
   21.3512   77.6439   -7.9297 C   0  0  0  0  0  0  0  0  0  0  0  0
   21.8919   79.4280   -8.5497 H   0  0  0  0  0  0  0  0  0  0  0  0
 25 28  1  0
 25 24  1  0
 25 26  1  1
 25 27  2  0
  1  4  1  0
  1 24  1  0
  1  2  1  6
  1  3  2  0
  6 11  1  0
  6 12  1  0
 29 36  1  0
 29 37  1  0
  9  7  1  1
  7 13  1  0
 10  8  1  1
  8 14  1  0
 37 28  1  1
  4  5  1  0
 33 30  1  6
 30 38  1  0
 34 31  1  1
 31 39  1  0
 35 32  1  1
 32 40  1  0
 41 42  1  0
 41 43  1  0
 15 19  2  0
 16 22  2  0
 12 17  1  6
 17 19  1  0
 17 20  1  0
 18 19  1  0
 18 22  1  0
 18 23  1  0
  9 10  1  0
  9 11  1  0
 10 12  1  0
 11  5  1  6
 33 34  1  0
 33 35  1  0
 34 36  1  0
 35 37  1  0
 36 42  1  6
 20 21  2  0
 21 22  1  0
M  CHG  2   2  -1  26  -1
M  END
>  <COMPND>  (121) 
    8629 

>  <AUTHOR>  (121) 
    GENERATED BY OPEN BABEL 3.1.1

>  <MASTER>  (121) 
        0    0    0    0    0    0    0    0   58    0   58    0

>  <minimizedAffinity>  (121) 
-7.11790

>  <CNNscore>  (121) 
0.9260622263

>  <CNNaffinity>  (121) 
4.7024292946

>  <CNN_VS>  (121) 
4.3547420502

>  <CNNaffinity_variance>  (121) 
0.1786375046

$$$$
122
     RDKit          3D

 43 45  0  0  0  0  0  0  0  0999 V2000
   23.4886   72.1431   -3.2619 P   0  0  2  0  0  0  0  0  0  0  0  0
   24.3834   73.1661   -4.1396 O   0  0  0  0  0  0  0  0  0  0  0  0
   24.0724   70.7706   -3.0982 O   0  0  0  0  0  0  0  0  0  0  0  0
   22.0296   72.2076   -3.9582 O   0  0  0  0  0  0  0  0  0  0  0  0
   21.2413   71.0305   -3.9865 C   0  0  0  0  0  0  0  0  0  0  0  0
   19.1812   71.9098   -4.8564 O   0  0  0  0  0  0  0  0  0  0  0  0
   17.8611   70.6729   -2.4651 O   0  0  0  0  0  0  0  0  0  0  0  0
   17.3015   68.8832   -4.4451 O   0  0  0  0  0  0  0  0  0  0  0  0
   18.9584   70.1918   -3.2395 C   0  0  1  0  0  0  0  0  0  0  0  0
   18.4704   69.6667   -4.5736 C   0  0  2  0  0  0  0  0  0  0  0  0
   19.7991   71.3915   -3.6581 C   0  0  1  0  0  0  0  0  0  0  0  0
   18.2311   70.9510   -5.3491 C   0  0  2  0  0  0  0  0  0  0  0  0
   17.3098   69.9245   -2.1860 H   0  0  0  0  0  0  0  0  0  0  0  0
   17.5053   68.0778   -3.9446 H   0  0  0  0  0  0  0  0  0  0  0  0
   16.2592   69.9988   -7.1331 O   0  0  0  0  0  0  0  0  0  0  0  0
   19.0994   70.3450  -10.7462 O   0  0  0  0  0  0  0  0  0  0  0  0
   18.4281   70.7828   -6.7613 N   0  0  0  0  0  0  0  0  0  0  0  0
   17.6749   70.1721   -8.9307 N   0  0  0  0  0  0  0  0  0  0  0  0
   17.3733   70.2967   -7.5685 C   0  0  0  0  0  0  0  0  0  0  0  0
   19.6561   71.0987   -7.3322 C   0  0  0  0  0  0  0  0  0  0  0  0
   19.9281   70.9730   -8.6328 C   0  0  0  0  0  0  0  0  0  0  0  0
   18.8803   70.4718   -9.5454 C   0  0  0  0  0  0  0  0  0  0  0  0
   16.9554   69.8350   -9.5124 H   0  0  0  0  0  0  0  0  0  0  0  0
   23.2669   72.9492   -1.8784 O   0  0  0  0  0  0  0  0  0  0  0  0
   22.0791   72.8740   -0.7846 P   0  0  2  0  0  0  0  0  0  0  0  0
   21.8065   71.2857   -0.6415 O   0  0  0  0  0  0  0  0  0  0  0  0
   20.8641   73.6814   -1.1392 O   0  0  0  0  0  0  0  0  0  0  0  0
   22.7787   73.2946    0.6078 O   0  0  0  0  0  0  0  0  0  0  0  0
   24.7810   72.6745    1.7136 O   0  0  0  0  0  0  0  0  0  0  0  0
   22.2016   72.6167    4.9376 O   0  0  0  0  0  0  0  0  0  0  0  0
   24.1301   74.7317    4.7024 O   0  0  0  0  0  0  0  0  0  0  0  0
   21.3059   71.6653    2.3545 O   0  0  0  0  0  0  0  0  0  0  0  0
   22.7174   73.0886    3.6899 C   0  0  1  0  0  0  0  0  0  0  0  0
   24.1601   73.5477    3.9103 C   0  0  1  0  0  0  0  0  0  0  0  0
   22.6641   71.9553    2.6671 C   0  0  2  0  0  0  0  0  0  0  0  0
   24.8662   73.8162    2.5745 C   0  0  1  0  0  0  0  0  0  0  0  0
   23.4377   72.3059    1.3948 C   0  0  1  0  0  0  0  0  0  0  0  0
   22.2322   73.3316    5.5914 H   0  0  0  0  0  0  0  0  0  0  0  0
   23.6812   74.5487    5.5428 H   0  0  0  0  0  0  0  0  0  0  0  0
   20.8270   71.4446    3.1681 H   0  0  0  0  0  0  0  0  0  0  0  0
   27.0261   72.9120    3.0502 O   0  0  0  0  0  0  0  0  0  0  0  0
   26.3503   74.1226    2.7635 C   0  0  0  0  0  0  0  0  0  0  0  0
   27.9718   73.0916    3.1726 H   0  0  0  0  0  0  0  0  0  0  0  0
 25 28  1  0
 25 24  1  0
 25 26  1  1
 25 27  2  0
  1  4  1  0
  1 24  1  0
  1  2  1  6
  1  3  2  0
  6 11  1  0
  6 12  1  0
 29 36  1  0
 29 37  1  0
  9  7  1  1
  7 13  1  0
 10  8  1  1
  8 14  1  0
 37 28  1  1
  4  5  1  0
 33 30  1  1
 30 38  1  0
 34 31  1  1
 31 39  1  0
 35 32  1  6
 32 40  1  0
 41 42  1  0
 41 43  1  0
 15 19  2  0
 16 22  2  0
 12 17  1  6
 17 19  1  0
 17 20  1  0
 18 19  1  0
 18 22  1  0
 18 23  1  0
  9 10  1  0
  9 11  1  0
 10 12  1  0
 11  5  1  6
 33 34  1  0
 33 35  1  0
 34 36  1  0
 35 37  1  0
 36 42  1  1
 20 21  2  0
 21 22  1  0
M  CHG  2   2  -1  26  -1
M  END
>  <COMPND>  (122) 
    8629 

>  <AUTHOR>  (122) 
    GENERATED BY OPEN BABEL 3.1.1

>  <MASTER>  (122) 
        0    0    0    0    0    0    0    0   58    0   58    0

>  <minimizedAffinity>  (122) 
-7.60895

>  <CNNscore>  (122) 
0.8923209906

>  <CNNaffinity>  (122) 
4.6189994812

>  <CNN_VS>  (122) 
4.1216301918

>  <CNNaffinity_variance>  (122) 
0.0289906301

$$$$
123
     RDKit          3D

 43 45  0  0  0  0  0  0  0  0999 V2000
   22.4212   72.3526   -3.5609 P   0  0  2  0  0  0  0  0  0  0  0  0
   23.7866   72.2882   -4.4263 O   0  0  0  0  0  0  0  0  0  0  0  0
   22.5710   71.9898   -2.1127 O   0  0  0  0  0  0  0  0  0  0  0  0
   21.3814   71.4476   -4.4080 O   0  0  0  0  0  0  0  0  0  0  0  0
   20.6787   70.4169   -3.7358 C   0  0  0  0  0  0  0  0  0  0  0  0
   18.7944   71.4964   -4.7644 O   0  0  0  0  0  0  0  0  0  0  0  0
   17.1211   70.1606   -2.6653 O   0  0  0  0  0  0  0  0  0  0  0  0
   16.7139   68.5763   -4.8472 O   0  0  0  0  0  0  0  0  0  0  0  0
   18.2779   69.6723   -3.3425 C   0  0  1  0  0  0  0  0  0  0  0  0
   17.9311   69.2893   -4.7662 C   0  0  2  0  0  0  0  0  0  0  0  0
   19.2290   70.8441   -3.5511 C   0  0  1  0  0  0  0  0  0  0  0  0
   17.8614   70.6446   -5.4490 C   0  0  2  0  0  0  0  0  0  0  0  0
   16.4989   69.4299   -2.5205 H   0  0  0  0  0  0  0  0  0  0  0  0
   16.8091   67.7216   -4.3986 H   0  0  0  0  0  0  0  0  0  0  0  0
   16.0624   70.0317   -7.5385 O   0  0  0  0  0  0  0  0  0  0  0  0
   19.3594   70.4154  -10.7361 O   0  0  0  0  0  0  0  0  0  0  0  0
   18.2227   70.5779   -6.8370 N   0  0  0  0  0  0  0  0  0  0  0  0
   17.7055   70.2234   -9.1290 N   0  0  0  0  0  0  0  0  0  0  0  0
   17.2435   70.2608   -7.8071 C   0  0  0  0  0  0  0  0  0  0  0  0
   19.5352   70.8256   -7.2241 C   0  0  0  0  0  0  0  0  0  0  0  0
   19.9598   70.7847   -8.4887 C   0  0  0  0  0  0  0  0  0  0  0  0
   18.9998   70.4608   -9.5637 C   0  0  0  0  0  0  0  0  0  0  0  0
   17.0411   70.0042   -9.8220 H   0  0  0  0  0  0  0  0  0  0  0  0
   21.8932   73.8572   -3.8264 O   0  0  0  0  0  0  0  0  0  0  0  0
   20.7112   74.7069   -3.1236 P   0  0  2  0  0  0  0  0  0  0  0  0
   21.5001   75.9393   -2.4335 O   0  0  0  0  0  0  0  0  0  0  0  0
   19.8588   73.9103   -2.1787 O   0  0  0  0  0  0  0  0  0  0  0  0
   19.9038   75.3758   -4.3507 O   0  0  0  0  0  0  0  0  0  0  0  0
   19.2583   74.2291   -6.3218 O   0  0  0  0  0  0  0  0  0  0  0  0
   19.5868   78.0480   -7.8577 O   0  0  0  0  0  0  0  0  0  0  0  0
   16.9862   76.8858   -7.4916 O   0  0  0  0  0  0  0  0  0  0  0  0
   21.4848   77.1192   -5.8792 O   0  0  0  0  0  0  0  0  0  0  0  0
   19.2870   77.0649   -6.8631 C   0  0  1  0  0  0  0  0  0  0  0  0
   18.1988   76.1415   -7.4143 C   0  0  1  0  0  0  0  0  0  0  0  0
   20.5542   76.2731   -6.5460 C   0  0  2  0  0  0  0  0  0  0  0  0
   18.0129   74.9086   -6.5196 C   0  0  1  0  0  0  0  0  0  0  0  0
   20.2513   75.0408   -5.6917 C   0  0  1  0  0  0  0  0  0  0  0  0
   18.7864   78.5547   -8.0632 H   0  0  0  0  0  0  0  0  0  0  0  0
   17.1172   77.6617   -8.0590 H   0  0  0  0  0  0  0  0  0  0  0  0
   21.6685   77.8953   -6.4303 H   0  0  0  0  0  0  0  0  0  0  0  0
   17.1186   74.0037   -8.5421 O   0  0  0  0  0  0  0  0  0  0  0  0
   17.0457   73.8980   -7.1322 C   0  0  0  0  0  0  0  0  0  0  0  0
   16.5085   73.3660   -8.9455 H   0  0  0  0  0  0  0  0  0  0  0  0
 25 28  1  0
 25 24  1  0
 25 26  1  1
 25 27  2  0
  1  4  1  0
  1 24  1  0
  1  2  1  6
  1  3  2  0
  6 11  1  0
  6 12  1  0
 29 36  1  0
 29 37  1  0
  9  7  1  1
  7 13  1  0
 10  8  1  1
  8 14  1  0
 37 28  1  1
  4  5  1  0
 33 30  1  6
 30 38  1  0
 34 31  1  1
 31 39  1  0
 35 32  1  1
 32 40  1  0
 41 42  1  0
 41 43  1  0
 15 19  2  0
 16 22  2  0
 12 17  1  6
 17 19  1  0
 17 20  1  0
 18 19  1  0
 18 22  1  0
 18 23  1  0
  9 10  1  0
  9 11  1  0
 10 12  1  0
 11  5  1  6
 33 34  1  0
 33 35  1  0
 34 36  1  0
 35 37  1  0
 36 42  1  6
 20 21  2  0
 21 22  1  0
M  CHG  2   2  -1  26  -1
M  END
>  <COMPND>  (123) 
    8629 

>  <AUTHOR>  (123) 
    GENERATED BY OPEN BABEL 3.1.1

>  <MASTER>  (123) 
        0    0    0    0    0    0    0    0   58    0   58    0

>  <minimizedAffinity>  (123) 
-5.92453

>  <CNNscore>  (123) 
0.8762560487

>  <CNNaffinity>  (123) 
4.5456366539

>  <CNN_VS>  (123) 
3.9831416607

>  <CNNaffinity_variance>  (123) 
0.2334882766

$$$$
124
     RDKit          3D

 43 45  0  0  0  0  0  0  0  0999 V2000
   19.9091   72.0390   -1.1964 P   0  0  2  0  0  0  0  0  0  0  0  0
   19.5157   70.4715   -1.1213 O   0  0  0  0  0  0  0  0  0  0  0  0
   18.8037   72.9878   -0.8368 O   0  0  0  0  0  0  0  0  0  0  0  0
   20.5295   72.2131   -2.6806 O   0  0  0  0  0  0  0  0  0  0  0  0
   19.9197   71.5177   -3.7541 C   0  0  0  0  0  0  0  0  0  0  0  0
   18.2039   72.3703   -5.2042 O   0  0  0  0  0  0  0  0  0  0  0  0
   16.2449   71.3607   -3.1709 O   0  0  0  0  0  0  0  0  0  0  0  0
   16.1530   69.4301   -5.0947 O   0  0  0  0  0  0  0  0  0  0  0  0
   17.4863   70.7939   -3.5868 C   0  0  1  0  0  0  0  0  0  0  0  0
   17.3470   70.1741   -4.9616 C   0  0  2  0  0  0  0  0  0  0  0  0
   18.4591   71.9366   -3.8502 C   0  0  1  0  0  0  0  0  0  0  0  0
   17.3776   71.3966   -5.8630 C   0  0  2  0  0  0  0  0  0  0  0  0
   15.6075   70.6500   -2.9964 H   0  0  0  0  0  0  0  0  0  0  0  0
   16.1818   68.6633   -4.5014 H   0  0  0  0  0  0  0  0  0  0  0  0
   15.9125   70.3358   -8.0323 O   0  0  0  0  0  0  0  0  0  0  0  0
   19.6177   70.3379  -10.7733 O   0  0  0  0  0  0  0  0  0  0  0  0
   17.9343   71.1105   -7.1552 N   0  0  0  0  0  0  0  0  0  0  0  0
   17.7585   70.3379   -9.3954 N   0  0  0  0  0  0  0  0  0  0  0  0
   17.1126   70.5783   -8.1760 C   0  0  0  0  0  0  0  0  0  0  0  0
   19.2806   71.3579   -7.4000 C   0  0  0  0  0  0  0  0  0  0  0  0
   19.8817   71.1220   -8.5680 C   0  0  0  0  0  0  0  0  0  0  0  0
   19.0940   70.5660   -9.6872 C   0  0  0  0  0  0  0  0  0  0  0  0
   17.2060   69.9668  -10.1212 H   0  0  0  0  0  0  0  0  0  0  0  0
   21.2123   72.1327   -0.2446 O   0  0  0  0  0  0  0  0  0  0  0  0
   21.4359   71.6946    1.2952 P   0  0  2  0  0  0  0  0  0  0  0  0
   21.6402   70.0925    1.1992 O   0  0  0  0  0  0  0  0  0  0  0  0
   20.3367   72.1242    2.2230 O   0  0  0  0  0  0  0  0  0  0  0  0
   22.8953   72.2695    1.6756 O   0  0  0  0  0  0  0  0  0  0  0  0
   24.7028   71.4357    2.9617 O   0  0  0  0  0  0  0  0  0  0  0  0
   24.7192   75.3543    4.2636 O   0  0  0  0  0  0  0  0  0  0  0  0
   26.8036   74.4319    2.5165 O   0  0  0  0  0  0  0  0  0  0  0  0
   22.2050   74.0080    3.7676 O   0  0  0  0  0  0  0  0  0  0  0  0
   24.5529   74.2973    3.3147 C   0  0  1  0  0  0  0  0  0  0  0  0
   25.8877   73.5625    3.1765 C   0  0  1  0  0  0  0  0  0  0  0  0
   23.4650   73.3470    3.8115 C   0  0  2  0  0  0  0  0  0  0  0  0
   25.7229   72.2587    2.3840 C   0  0  1  0  0  0  0  0  0  0  0  0
   23.4180   72.0606    2.9850 C   0  0  1  0  0  0  0  0  0  0  0  0
   25.4082   75.9615    3.9538 H   0  0  0  0  0  0  0  0  0  0  0  0
   26.8982   75.2515    3.0268 H   0  0  0  0  0  0  0  0  0  0  0  0
   22.2477   74.8205    4.2948 H   0  0  0  0  0  0  0  0  0  0  0  0
   27.9115   71.9902    3.3044 O   0  0  0  0  0  0  0  0  0  0  0  0
   27.0072   71.4325    2.3687 C   0  0  0  0  0  0  0  0  0  0  0  0
   28.7334   71.4743    3.3058 H   0  0  0  0  0  0  0  0  0  0  0  0
 25 28  1  0
 25 24  1  0
 25 26  1  6
 25 27  2  0
  1  4  1  0
  1 24  1  0
  1  2  1  6
  1  3  2  0
  6 11  1  0
  6 12  1  0
 29 36  1  0
 29 37  1  0
  9  7  1  6
  7 13  1  0
 10  8  1  1
  8 14  1  0
 37 28  1  6
  4  5  1  0
 33 30  1  1
 30 38  1  0
 34 31  1  6
 31 39  1  0
 35 32  1  6
 32 40  1  0
 41 42  1  0
 41 43  1  0
 15 19  2  0
 16 22  2  0
 12 17  1  6
 17 19  1  0
 17 20  1  0
 18 19  1  0
 18 22  1  0
 18 23  1  0
  9 10  1  0
  9 11  1  0
 10 12  1  0
 11  5  1  6
 33 34  1  0
 33 35  1  0
 34 36  1  0
 35 37  1  0
 36 42  1  1
 20 21  2  0
 21 22  1  0
M  CHG  2   2  -1  26  -1
M  END
>  <COMPND>  (124) 
    8629 

>  <AUTHOR>  (124) 
    GENERATED BY OPEN BABEL 3.1.1

>  <MASTER>  (124) 
        0    0    0    0    0    0    0    0   58    0   58    0

>  <minimizedAffinity>  (124) 
-7.09243

>  <CNNscore>  (124) 
0.8719325662

>  <CNNaffinity>  (124) 
4.5005636215

>  <CNN_VS>  (124) 
3.9241878986

>  <CNNaffinity_variance>  (124) 
0.0973616764

$$$$
125
     RDKit          3D

 43 45  0  0  0  0  0  0  0  0999 V2000
   21.8087   72.5072   -5.4043 P   0  0  2  0  0  0  0  0  0  0  0  0
   21.1049   73.9313   -5.0977 O   0  0  0  0  0  0  0  0  0  0  0  0
   23.0910   72.5878   -6.1793 O   0  0  0  0  0  0  0  0  0  0  0  0
   20.6309   71.6303   -6.0839 O   0  0  0  0  0  0  0  0  0  0  0  0
   20.2286   71.9470   -7.4051 C   0  0  0  0  0  0  0  0  0  0  0  0
   18.9929   69.9334   -6.9663 O   0  0  0  0  0  0  0  0  0  0  0  0
   18.2393   69.9860   -9.8681 O   0  0  0  0  0  0  0  0  0  0  0  0
   16.0056   70.9747   -8.6558 O   0  0  0  0  0  0  0  0  0  0  0  0
   18.4155   71.0737   -8.9618 C   0  0  1  0  0  0  0  0  0  0  0  0
   17.2460   71.1541   -8.0031 C   0  0  2  0  0  0  0  0  0  0  0  0
   19.5684   70.7249   -8.0287 C   0  0  1  0  0  0  0  0  0  0  0  0
   17.5607   70.0328   -7.0274 C   0  0  2  0  0  0  0  0  0  0  0  0
   17.5083   70.1859  -10.4745 H   0  0  0  0  0  0  0  0  0  0  0  0
   15.8510   71.7132   -9.2653 H   0  0  0  0  0  0  0  0  0  0  0  0
   16.2745   68.1153   -5.4006 O   0  0  0  0  0  0  0  0  0  0  0  0
   15.6595   71.1531   -1.9896 O   0  0  0  0  0  0  0  0  0  0  0  0
   17.0548   70.2953   -5.7096 N   0  0  0  0  0  0  0  0  0  0  0  0
   15.9695   69.6294   -3.7034 N   0  0  0  0  0  0  0  0  0  0  0  0
   16.4245   69.2630   -4.9765 C   0  0  0  0  0  0  0  0  0  0  0  0
   17.1864   71.5647   -5.1570 C   0  0  0  0  0  0  0  0  0  0  0  0
   16.7460   71.8981   -3.9421 C   0  0  0  0  0  0  0  0  0  0  0  0
   16.0756   70.8776   -3.1107 C   0  0  0  0  0  0  0  0  0  0  0  0
   15.5267   68.9266   -3.1745 H   0  0  0  0  0  0  0  0  0  0  0  0
   21.9508   71.8482   -3.9352 O   0  0  0  0  0  0  0  0  0  0  0  0
   23.1293   71.9537   -2.8339 P   0  0  2  0  0  0  0  0  0  0  0  0
   23.6554   73.4748   -2.9980 O   0  0  0  0  0  0  0  0  0  0  0  0
   24.1990   70.9098   -2.9754 O   0  0  0  0  0  0  0  0  0  0  0  0
   22.3635   71.9384   -1.4132 O   0  0  0  0  0  0  0  0  0  0  0  0
   24.0750   72.2063    0.2040 O   0  0  0  0  0  0  0  0  0  0  0  0
   20.8107   72.0056    2.7249 O   0  0  0  0  0  0  0  0  0  0  0  0
   22.1372   74.5205    2.3203 O   0  0  0  0  0  0  0  0  0  0  0  0
   20.9246   70.3217    0.3731 O   0  0  0  0  0  0  0  0  0  0  0  0
   21.5136   72.3514    1.5284 C   0  0  1  0  0  0  0  0  0  0  0  0
   22.6782   73.2695    1.9046 C   0  0  1  0  0  0  0  0  0  0  0  0
   22.0277   71.0752    0.8649 C   0  0  2  0  0  0  0  0  0  0  0  0
   23.6328   73.4675    0.7195 C   0  0  1  0  0  0  0  0  0  0  0  0
   23.0071   71.3832   -0.2692 C   0  0  1  0  0  0  0  0  0  0  0  0
   20.4812   72.8115    3.1509 H   0  0  0  0  0  0  0  0  0  0  0  0
   21.5359   74.3814    3.0688 H   0  0  0  0  0  0  0  0  0  0  0  0
   20.3121   70.1329    1.1005 H   0  0  0  0  0  0  0  0  0  0  0  0
   25.0703   74.1188    2.5134 O   0  0  0  0  0  0  0  0  0  0  0  0
   24.8826   74.2501    1.1163 C   0  0  0  0  0  0  0  0  0  0  0  0
   25.8625   74.6117    2.7803 H   0  0  0  0  0  0  0  0  0  0  0  0
 25 28  1  0
 25 24  1  0
 25 26  1  6
 25 27  2  0
  1  4  1  0
  1 24  1  0
  1  2  1  1
  1  3  2  0
  6 11  1  0
  6 12  1  0
 29 36  1  0
 29 37  1  0
  9  7  1  6
  7 13  1  0
 10  8  1  6
  8 14  1  0
 37 28  1  6
  4  5  1  0
 33 30  1  1
 30 38  1  0
 34 31  1  6
 31 39  1  0
 35 32  1  6
 32 40  1  0
 41 42  1  0
 41 43  1  0
 15 19  2  0
 16 22  2  0
 12 17  1  1
 17 19  1  0
 17 20  1  0
 18 19  1  0
 18 22  1  0
 18 23  1  0
  9 10  1  0
  9 11  1  0
 10 12  1  0
 11  5  1  1
 33 34  1  0
 33 35  1  0
 34 36  1  0
 35 37  1  0
 36 42  1  1
 20 21  2  0
 21 22  1  0
M  CHG  2   2  -1  26  -1
M  END
>  <COMPND>  (125) 
    8629 

>  <AUTHOR>  (125) 
    GENERATED BY OPEN BABEL 3.1.1

>  <MASTER>  (125) 
        0    0    0    0    0    0    0    0   58    0   58    0

>  <minimizedAffinity>  (125) 
-7.90728

>  <CNNscore>  (125) 
0.8533363342

>  <CNNaffinity>  (125) 
4.5837683678

>  <CNN_VS>  (125) 
3.9114961624

>  <CNNaffinity_variance>  (125) 
0.2086640894

$$$$
126
     RDKit          3D

 43 45  0  0  0  0  0  0  0  0999 V2000
   21.4684   73.4918   -4.8730 P   0  0  2  0  0  0  0  0  0  0  0  0
   21.5038   74.7647   -3.8750 O   0  0  0  0  0  0  0  0  0  0  0  0
   22.0087   73.7499   -6.2488 O   0  0  0  0  0  0  0  0  0  0  0  0
   19.9326   72.9872   -4.8045 O   0  0  0  0  0  0  0  0  0  0  0  0
   19.5513   72.1230   -3.7483 C   0  0  0  0  0  0  0  0  0  0  0  0
   17.5940   72.1152   -5.1421 O   0  0  0  0  0  0  0  0  0  0  0  0
   16.2460   70.6211   -2.9191 O   0  0  0  0  0  0  0  0  0  0  0  0
   16.8494   68.6362   -4.6890 O   0  0  0  0  0  0  0  0  0  0  0  0
   17.5962   70.5390   -3.3725 C   0  0  1  0  0  0  0  0  0  0  0  0
   17.6647   69.7903   -4.6872 C   0  0  2  0  0  0  0  0  0  0  0  0
   18.0403   71.9383   -3.7798 C   0  0  1  0  0  0  0  0  0  0  0  0
   17.1899   70.8431   -5.6744 C   0  0  2  0  0  0  0  0  0  0  0  0
   15.9402   69.7393   -2.6531 H   0  0  0  0  0  0  0  0  0  0  0  0
   17.1924   67.9969   -4.0452 H   0  0  0  0  0  0  0  0  0  0  0  0
   15.7077   70.5054   -8.0549 O   0  0  0  0  0  0  0  0  0  0  0  0
   19.5319   70.2090  -10.6102 O   0  0  0  0  0  0  0  0  0  0  0  0
   17.7726   70.6758   -6.9758 N   0  0  0  0  0  0  0  0  0  0  0  0
   17.6131   70.3583   -9.3253 N   0  0  0  0  0  0  0  0  0  0  0  0
   16.9394   70.5128   -8.1070 C   0  0  0  0  0  0  0  0  0  0  0  0
   19.1556   70.6750   -7.1210 C   0  0  0  0  0  0  0  0  0  0  0  0
   19.7825   70.5252   -8.2897 C   0  0  0  0  0  0  0  0  0  0  0  0
   18.9851   70.3492   -9.5206 C   0  0  0  0  0  0  0  0  0  0  0  0
   17.0530   70.2427  -10.1271 H   0  0  0  0  0  0  0  0  0  0  0  0
   22.2616   72.3554   -4.0409 O   0  0  0  0  0  0  0  0  0  0  0  0
   23.7310   72.3643   -3.3673 P   0  0  2  0  0  0  0  0  0  0  0  0
   24.5729   73.3585   -4.3266 O   0  0  0  0  0  0  0  0  0  0  0  0
   24.3397   71.0022   -3.2004 O   0  0  0  0  0  0  0  0  0  0  0  0
   23.5445   73.1868   -1.9912 O   0  0  0  0  0  0  0  0  0  0  0  0
   23.0302   71.6919   -0.2256 O   0  0  0  0  0  0  0  0  0  0  0  0
   22.5112   75.2708    1.7678 O   0  0  0  0  0  0  0  0  0  0  0  0
   24.8027   73.6413    2.3526 O   0  0  0  0  0  0  0  0  0  0  0  0
   21.6691   75.0188   -0.9903 O   0  0  0  0  0  0  0  0  0  0  0  0
   23.1152   74.3792    0.8266 C   0  0  1  0  0  0  0  0  0  0  0  0
   23.6855   73.1853    1.5948 C   0  0  1  0  0  0  0  0  0  0  0  0
   22.0573   73.9187   -0.1745 C   0  0  2  0  0  0  0  0  0  0  0  0
   24.1108   72.0631    0.6383 C   0  0  1  0  0  0  0  0  0  0  0  0
   22.5657   72.7673   -1.0439 C   0  0  1  0  0  0  0  0  0  0  0  0
   23.1777   75.5673    2.4060 H   0  0  0  0  0  0  0  0  0  0  0  0
   24.5207   74.3500    2.9521 H   0  0  0  0  0  0  0  0  0  0  0  0
   21.3489   75.7409   -0.4282 H   0  0  0  0  0  0  0  0  0  0  0  0
   25.9157   70.9009    1.6873 O   0  0  0  0  0  0  0  0  0  0  0  0
   24.5354   70.8025    1.3885 C   0  0  0  0  0  0  0  0  0  0  0  0
   26.1999   70.1055    2.1651 H   0  0  0  0  0  0  0  0  0  0  0  0
 25 28  1  0
 25 24  1  0
 25 26  1  6
 25 27  2  0
  1  4  1  0
  1 24  1  0
  1  2  1  1
  1  3  2  0
  6 11  1  0
  6 12  1  0
 29 36  1  0
 29 37  1  0
  9  7  1  6
  7 13  1  0
 10  8  1  1
  8 14  1  0
 37 28  1  1
  4  5  1  0
 33 30  1  1
 30 38  1  0
 34 31  1  6
 31 39  1  0
 35 32  1  6
 32 40  1  0
 41 42  1  0
 41 43  1  0
 15 19  2  0
 16 22  2  0
 12 17  1  6
 17 19  1  0
 17 20  1  0
 18 19  1  0
 18 22  1  0
 18 23  1  0
  9 10  1  0
  9 11  1  0
 10 12  1  0
 11  5  1  6
 33 34  1  0
 33 35  1  0
 34 36  1  0
 35 37  1  0
 36 42  1  1
 20 21  2  0
 21 22  1  0
M  CHG  2   2  -1  26  -1
M  END
>  <COMPND>  (126) 
    8629 

>  <AUTHOR>  (126) 
    GENERATED BY OPEN BABEL 3.1.1

>  <MASTER>  (126) 
        0    0    0    0    0    0    0    0   58    0   58    0

>  <minimizedAffinity>  (126) 
-7.18880

>  <CNNscore>  (126) 
0.8453736305

>  <CNNaffinity>  (126) 
4.5611028671

>  <CNN_VS>  (126) 
3.8558361530

>  <CNNaffinity_variance>  (126) 
0.0554788485

$$$$
127
     RDKit          3D

 43 45  0  0  0  0  0  0  0  0999 V2000
   20.6898   72.7848   -2.5337 P   0  0  2  0  0  0  0  0  0  0  0  0
   19.9288   73.5247   -1.3127 O   0  0  0  0  0  0  0  0  0  0  0  0
   20.4205   73.3631   -3.8918 O   0  0  0  0  0  0  0  0  0  0  0  0
   20.3024   71.2253   -2.3447 O   0  0  0  0  0  0  0  0  0  0  0  0
   19.6928   70.5440   -3.4273 C   0  0  0  0  0  0  0  0  0  0  0  0
   17.9188   71.5538   -4.6949 O   0  0  0  0  0  0  0  0  0  0  0  0
   16.0386   70.0400   -2.9161 O   0  0  0  0  0  0  0  0  0  0  0  0
   16.0622   68.5243   -5.1830 O   0  0  0  0  0  0  0  0  0  0  0  0
   17.3119   69.6470   -3.4254 C   0  0  1  0  0  0  0  0  0  0  0  0
   17.2064   69.3024   -4.8964 C   0  0  2  0  0  0  0  0  0  0  0  0
   18.2078   70.8791   -3.4509 C   0  0  1  0  0  0  0  0  0  0  0  0
   17.1539   70.6780   -5.5392 C   0  0  2  0  0  0  0  0  0  0  0  0
   15.4491   69.2694   -2.8901 H   0  0  0  0  0  0  0  0  0  0  0  0
   16.1431   67.6591   -4.7521 H   0  0  0  0  0  0  0  0  0  0  0  0
   15.6989   70.1739   -7.9071 O   0  0  0  0  0  0  0  0  0  0  0  0
   19.4369   70.7426  -10.5425 O   0  0  0  0  0  0  0  0  0  0  0  0
   17.7217   70.6883   -6.8579 N   0  0  0  0  0  0  0  0  0  0  0  0
   17.5613   70.4577   -9.2174 N   0  0  0  0  0  0  0  0  0  0  0  0
   16.9044   70.4213   -7.9808 C   0  0  0  0  0  0  0  0  0  0  0  0
   19.0747   70.9613   -7.0277 C   0  0  0  0  0  0  0  0  0  0  0  0
   19.6862   70.9909   -8.2136 C   0  0  0  0  0  0  0  0  0  0  0  0
   18.9037   70.7228   -9.4375 C   0  0  0  0  0  0  0  0  0  0  0  0
   17.0119   70.2743  -10.0139 H   0  0  0  0  0  0  0  0  0  0  0  0
   22.2399   72.8320   -2.0778 O   0  0  0  0  0  0  0  0  0  0  0  0
   23.2847   74.0625   -1.9938 P   0  0  2  0  0  0  0  0  0  0  0  0
   22.3471   75.3187   -1.5933 O   0  0  0  0  0  0  0  0  0  0  0  0
   24.0954   74.2676   -3.2407 O   0  0  0  0  0  0  0  0  0  0  0  0
   24.1582   73.7671   -0.6692 O   0  0  0  0  0  0  0  0  0  0  0  0
   22.5799   72.9773    0.9125 O   0  0  0  0  0  0  0  0  0  0  0  0
   26.0066   72.6868    3.1982 O   0  0  0  0  0  0  0  0  0  0  0  0
   24.7569   70.2987    2.2065 O   0  0  0  0  0  0  0  0  0  0  0  0
   25.6557   74.9284    1.4006 O   0  0  0  0  0  0  0  0  0  0  0  0
   25.2339   72.6330    1.9960 C   0  0  1  0  0  0  0  0  0  0  0  0
   24.1374   71.5815    2.1772 C   0  0  1  0  0  0  0  0  0  0  0  0
   24.6222   74.0080    1.7338 C   0  0  2  0  0  0  0  0  0  0  0  0
   23.1087   71.6523    1.0407 C   0  0  1  0  0  0  0  0  0  0  0  0
   23.5769   73.9577    0.6180 C   0  0  1  0  0  0  0  0  0  0  0  0
   26.3982   71.8169    3.3702 H   0  0  0  0  0  0  0  0  0  0  0  0
   25.4045   70.2674    2.9282 H   0  0  0  0  0  0  0  0  0  0  0  0
   26.3108   74.9513    2.1149 H   0  0  0  0  0  0  0  0  0  0  0  0
   20.7697   71.3004    0.7027 O   0  0  0  0  0  0  0  0  0  0  0  0
   21.9233   70.7205    1.2833 C   0  0  0  0  0  0  0  0  0  0  0  0
   20.0073   70.7181    0.8490 H   0  0  0  0  0  0  0  0  0  0  0  0
 25 28  1  0
 25 24  1  0
 25 26  1  1
 25 27  2  0
  1  4  1  0
  1 24  1  0
  1  2  1  1
  1  3  2  0
  6 11  1  0
  6 12  1  0
 29 36  1  0
 29 37  1  0
  9  7  1  6
  7 13  1  0
 10  8  1  1
  8 14  1  0
 37 28  1  6
  4  5  1  0
 33 30  1  1
 30 38  1  0
 34 31  1  6
 31 39  1  0
 35 32  1  6
 32 40  1  0
 41 42  1  0
 41 43  1  0
 15 19  2  0
 16 22  2  0
 12 17  1  6
 17 19  1  0
 17 20  1  0
 18 19  1  0
 18 22  1  0
 18 23  1  0
  9 10  1  0
  9 11  1  0
 10 12  1  0
 11  5  1  6
 33 34  1  0
 33 35  1  0
 34 36  1  0
 35 37  1  0
 36 42  1  1
 20 21  2  0
 21 22  1  0
M  CHG  2   2  -1  26  -1
M  END
>  <COMPND>  (127) 
    8629 

>  <AUTHOR>  (127) 
    GENERATED BY OPEN BABEL 3.1.1

>  <MASTER>  (127) 
        0    0    0    0    0    0    0    0   58    0   58    0

>  <minimizedAffinity>  (127) 
-6.83535

>  <CNNscore>  (127) 
0.8444386721

>  <CNNaffinity>  (127) 
4.5774445534

>  <CNN_VS>  (127) 
3.8653712273

>  <CNNaffinity_variance>  (127) 
0.0206975378

$$$$
128
     RDKit          3D

 43 45  0  0  0  0  0  0  0  0999 V2000
   23.4835   72.1389   -3.3643 P   0  0  2  0  0  0  0  0  0  0  0  0
   24.2664   73.0797   -4.4223 O   0  0  0  0  0  0  0  0  0  0  0  0
   24.1447   70.8232   -3.0759 O   0  0  0  0  0  0  0  0  0  0  0  0
   21.9805   72.0549   -3.9572 O   0  0  0  0  0  0  0  0  0  0  0  0
   21.2400   70.8636   -3.7563 C   0  0  0  0  0  0  0  0  0  0  0  0
   19.1913   71.7919   -4.6019 O   0  0  0  0  0  0  0  0  0  0  0  0
   17.8506   70.4827   -2.2610 O   0  0  0  0  0  0  0  0  0  0  0  0
   17.2831   68.7697   -4.3055 O   0  0  0  0  0  0  0  0  0  0  0  0
   18.9468   70.0195   -3.0480 C   0  0  1  0  0  0  0  0  0  0  0  0
   18.4594   69.5467   -4.4017 C   0  0  2  0  0  0  0  0  0  0  0  0
   19.7997   71.2258   -3.4205 C   0  0  1  0  0  0  0  0  0  0  0  0
   18.2347   70.8598   -5.1319 C   0  0  2  0  0  0  0  0  0  0  0  0
   17.2916   69.7299   -2.0107 H   0  0  0  0  0  0  0  0  0  0  0  0
   17.4778   67.9452   -3.8333 H   0  0  0  0  0  0  0  0  0  0  0  0
   16.2736   69.9526   -6.9511 O   0  0  0  0  0  0  0  0  0  0  0  0
   19.1185   70.4402  -10.5441 O   0  0  0  0  0  0  0  0  0  0  0  0
   18.4358   70.7402   -6.5485 N   0  0  0  0  0  0  0  0  0  0  0  0
   17.6917   70.1963   -8.7387 N   0  0  0  0  0  0  0  0  0  0  0  0
   17.3864   70.2733   -7.3738 C   0  0  0  0  0  0  0  0  0  0  0  0
   19.6626   71.0842   -7.1058 C   0  0  0  0  0  0  0  0  0  0  0  0
   19.9381   71.0038   -8.4092 C   0  0  0  0  0  0  0  0  0  0  0  0
   18.8960   70.5254   -9.3404 C   0  0  0  0  0  0  0  0  0  0  0  0
   16.9759   69.8733   -9.3329 H   0  0  0  0  0  0  0  0  0  0  0  0
   23.3132   73.1025   -2.0776 O   0  0  0  0  0  0  0  0  0  0  0  0
   22.8406   72.7809   -0.5656 P   0  0  2  0  0  0  0  0  0  0  0  0
   23.4042   74.0427    0.2756 O   0  0  0  0  0  0  0  0  0  0  0  0
   23.2898   71.4437   -0.0518 O   0  0  0  0  0  0  0  0  0  0  0  0
   21.2399   72.9865   -0.5855 O   0  0  0  0  0  0  0  0  0  0  0  0
   20.7091   75.0593   -1.6045 O   0  0  0  0  0  0  0  0  0  0  0  0
   16.9411   73.9779   -0.3070 O   0  0  0  0  0  0  0  0  0  0  0  0
   17.5627   73.8645   -3.1085 O   0  0  0  0  0  0  0  0  0  0  0  0
   19.2518   73.4237    1.3462 O   0  0  0  0  0  0  0  0  0  0  0  0
   18.2561   73.7529   -0.8221 C   0  0  1  0  0  0  0  0  0  0  0  0
   18.3894   74.5108   -2.1445 C   0  0  1  0  0  0  0  0  0  0  0  0
   19.2822   74.2558    0.1916 C   0  0  2  0  0  0  0  0  0  0  0  0
   19.8472   74.5380   -2.6230 C   0  0  1  0  0  0  0  0  0  0  0  0
   20.6921   74.2892   -0.4010 C   0  0  1  0  0  0  0  0  0  0  0  0
   16.2848   73.6603   -0.9456 H   0  0  0  0  0  0  0  0  0  0  0  0
   16.6450   73.8537   -2.7940 H   0  0  0  0  0  0  0  0  0  0  0  0
   18.3541   73.4112    1.7121 H   0  0  0  0  0  0  0  0  0  0  0  0
   19.7535   74.6460   -5.0080 O   0  0  0  0  0  0  0  0  0  0  0  0
   20.0282   75.4211   -3.8556 C   0  0  0  0  0  0  0  0  0  0  0  0
   19.8645   75.1953   -5.8003 H   0  0  0  0  0  0  0  0  0  0  0  0
 25 28  1  0
 25 24  1  0
 25 26  1  1
 25 27  2  0
  1  4  1  0
  1 24  1  0
  1  2  1  6
  1  3  2  0
  6 11  1  0
  6 12  1  0
 29 36  1  0
 29 37  1  0
  9  7  1  1
  7 13  1  0
 10  8  1  1
  8 14  1  0
 37 28  1  6
  4  5  1  0
 33 30  1  1
 30 38  1  0
 34 31  1  6
 31 39  1  0
 35 32  1  1
 32 40  1  0
 41 42  1  0
 41 43  1  0
 15 19  2  0
 16 22  2  0
 12 17  1  6
 17 19  1  0
 17 20  1  0
 18 19  1  0
 18 22  1  0
 18 23  1  0
  9 10  1  0
  9 11  1  0
 10 12  1  0
 11  5  1  6
 33 34  1  0
 33 35  1  0
 34 36  1  0
 35 37  1  0
 36 42  1  6
 20 21  2  0
 21 22  1  0
M  CHG  2   2  -1  26  -1
M  END
>  <COMPND>  (128) 
    8629 

>  <AUTHOR>  (128) 
    GENERATED BY OPEN BABEL 3.1.1

>  <MASTER>  (128) 
        0    0    0    0    0    0    0    0   58    0   58    0

>  <minimizedAffinity>  (128) 
-6.41398

>  <CNNscore>  (128) 
0.8086394072

>  <CNNaffinity>  (128) 
4.4800653458

>  <CNN_VS>  (128) 
3.6227574348

>  <CNNaffinity_variance>  (128) 
0.1258254796

$$$$
129
     RDKit          3D

 43 45  0  0  0  0  0  0  0  0999 V2000
   21.6455   72.7244   -1.2844 P   0  0  2  0  0  0  0  0  0  0  0  0
   21.4459   74.2599   -1.7533 O   0  0  0  0  0  0  0  0  0  0  0  0
   23.0651   72.2386   -1.2929 O   0  0  0  0  0  0  0  0  0  0  0  0
   20.6140   71.8965   -2.2162 O   0  0  0  0  0  0  0  0  0  0  0  0
   20.3484   72.3765   -3.5226 C   0  0  0  0  0  0  0  0  0  0  0  0
   20.7485   70.8205   -5.3095 O   0  0  0  0  0  0  0  0  0  0  0  0
   23.2337   72.3994   -5.8770 O   0  0  0  0  0  0  0  0  0  0  0  0
   21.5055   73.3060   -7.7817 O   0  0  0  0  0  0  0  0  0  0  0  0
   21.9561   72.8556   -5.4354 C   0  0  1  0  0  0  0  0  0  0  0  0
   20.9598   72.8131   -6.5751 C   0  0  2  0  0  0  0  0  0  0  0  0
   21.3903   71.8131   -4.4792 C   0  0  1  0  0  0  0  0  0  0  0  0
   20.6256   71.3327   -6.6464 C   0  0  2  0  0  0  0  0  0  0  0  0
   23.6152   73.0491   -6.4887 H   0  0  0  0  0  0  0  0  0  0  0  0
   21.7011   74.2512   -7.6859 H   0  0  0  0  0  0  0  0  0  0  0  0
   19.9827   69.7448   -8.8921 O   0  0  0  0  0  0  0  0  0  0  0  0
   15.4664   70.4912   -8.3562 O   0  0  0  0  0  0  0  0  0  0  0  0
   19.2898   71.0948   -7.1159 N   0  0  0  0  0  0  0  0  0  0  0  0
   17.7344   70.1176   -8.6233 N   0  0  0  0  0  0  0  0  0  0  0  0
   19.0754   70.2826   -8.2539 C   0  0  0  0  0  0  0  0  0  0  0  0
   18.2096   71.6635   -6.4500 C   0  0  0  0  0  0  0  0  0  0  0  0
   16.9369   71.4975   -6.8158 C   0  0  0  0  0  0  0  0  0  0  0  0
   16.6263   70.6631   -7.9946 C   0  0  0  0  0  0  0  0  0  0  0  0
   17.5608   69.5561   -9.4135 H   0  0  0  0  0  0  0  0  0  0  0  0
   20.9319   72.6915    0.1657 O   0  0  0  0  0  0  0  0  0  0  0  0
   21.3201   71.9027    1.5222 P   0  0  2  0  0  0  0  0  0  0  0  0
   21.4068   70.3600    1.0424 O   0  0  0  0  0  0  0  0  0  0  0  0
   20.3773   72.1435    2.6654 O   0  0  0  0  0  0  0  0  0  0  0  0
   22.8499   72.3246    1.8166 O   0  0  0  0  0  0  0  0  0  0  0  0
   24.6925   71.4434    3.0186 O   0  0  0  0  0  0  0  0  0  0  0  0
   24.7954   75.3300    4.4095 O   0  0  0  0  0  0  0  0  0  0  0  0
   26.8076   74.4289    2.5691 O   0  0  0  0  0  0  0  0  0  0  0  0
   22.2515   74.0200    3.9712 O   0  0  0  0  0  0  0  0  0  0  0  0
   24.5850   74.2972    3.4428 C   0  0  1  0  0  0  0  0  0  0  0  0
   25.9064   73.5530    3.2407 C   0  0  1  0  0  0  0  0  0  0  0  0
   23.5052   73.3460    3.9555 C   0  0  2  0  0  0  0  0  0  0  0  0
   25.7004   72.2699    2.4245 C   0  0  1  0  0  0  0  0  0  0  0  0
   23.4159   72.0800    3.1015 C   0  0  1  0  0  0  0  0  0  0  0  0
   25.4795   75.9377    4.0898 H   0  0  0  0  0  0  0  0  0  0  0  0
   26.9287   75.2353    3.0947 H   0  0  0  0  0  0  0  0  0  0  0  0
   22.3210   74.8194    4.5153 H   0  0  0  0  0  0  0  0  0  0  0  0
   27.8747   71.8873    3.3382 O   0  0  0  0  0  0  0  0  0  0  0  0
   26.9746   71.4319    2.3449 C   0  0  0  0  0  0  0  0  0  0  0  0
   28.6903   71.3628    3.2995 H   0  0  0  0  0  0  0  0  0  0  0  0
 25 28  1  0
 25 24  1  0
 25 26  1  6
 25 27  2  0
  1  4  1  0
  1 24  1  0
  1  2  1  6
  1  3  2  0
  6 11  1  0
  6 12  1  0
 29 36  1  0
 29 37  1  0
  9  7  1  6
  7 13  1  0
 10  8  1  6
  8 14  1  0
 37 28  1  6
  4  5  1  0
 33 30  1  1
 30 38  1  0
 34 31  1  6
 31 39  1  0
 35 32  1  6
 32 40  1  0
 41 42  1  0
 41 43  1  0
 15 19  2  0
 16 22  2  0
 12 17  1  1
 17 19  1  0
 17 20  1  0
 18 19  1  0
 18 22  1  0
 18 23  1  0
  9 10  1  0
  9 11  1  0
 10 12  1  0
 11  5  1  1
 33 34  1  0
 33 35  1  0
 34 36  1  0
 35 37  1  0
 36 42  1  1
 20 21  2  0
 21 22  1  0
M  CHG  2   2  -1  26  -1
M  END
>  <COMPND>  (129) 
    8629 

>  <AUTHOR>  (129) 
    GENERATED BY OPEN BABEL 3.1.1

>  <MASTER>  (129) 
        0    0    0    0    0    0    0    0   58    0   58    0

>  <minimizedAffinity>  (129) 
-6.73127

>  <CNNscore>  (129) 
0.7565013766

>  <CNNaffinity>  (129) 
4.2696938515

>  <CNN_VS>  (129) 
3.2300293446

>  <CNNaffinity_variance>  (129) 
0.1503635347

$$$$
130
     RDKit          3D

 43 45  0  0  0  0  0  0  0  0999 V2000
   21.9108   72.4373   -5.4883 P   0  0  2  0  0  0  0  0  0  0  0  0
   22.8986   72.4085   -6.7693 O   0  0  0  0  0  0  0  0  0  0  0  0
   22.4607   71.7939   -4.2494 O   0  0  0  0  0  0  0  0  0  0  0  0
   20.5280   71.8125   -6.0500 O   0  0  0  0  0  0  0  0  0  0  0  0
   20.1572   72.0867   -7.3898 C   0  0  0  0  0  0  0  0  0  0  0  0
   18.9502   70.0630   -6.9194 O   0  0  0  0  0  0  0  0  0  0  0  0
   18.2212   70.0430   -9.8278 O   0  0  0  0  0  0  0  0  0  0  0  0
   15.9614   71.0204   -8.6553 O   0  0  0  0  0  0  0  0  0  0  0  0
   18.3721   71.1520   -8.9431 C   0  0  1  0  0  0  0  0  0  0  0  0
   17.1930   71.2333   -7.9961 C   0  0  2  0  0  0  0  0  0  0  0  0
   19.5222   70.8414   -7.9932 C   0  0  1  0  0  0  0  0  0  0  0  0
   17.5172   70.1378   -6.9946 C   0  0  2  0  0  0  0  0  0  0  0  0
   17.4925   70.2183  -10.4444 H   0  0  0  0  0  0  0  0  0  0  0  0
   15.8004   71.7434   -9.2814 H   0  0  0  0  0  0  0  0  0  0  0  0
   16.4396   68.1924   -5.2533 O   0  0  0  0  0  0  0  0  0  0  0  0
   15.5444   71.3337   -2.0018 O   0  0  0  0  0  0  0  0  0  0  0  0
   16.9957   70.4195   -5.6869 N   0  0  0  0  0  0  0  0  0  0  0  0
   15.9949   69.7581   -3.6357 N   0  0  0  0  0  0  0  0  0  0  0  0
   16.4764   69.3706   -4.8927 C   0  0  0  0  0  0  0  0  0  0  0  0
   17.0028   71.7236   -5.2041 C   0  0  0  0  0  0  0  0  0  0  0  0
   16.5387   72.0767   -4.0036 C   0  0  0  0  0  0  0  0  0  0  0  0
   15.9790   71.0409   -3.1114 C   0  0  0  0  0  0  0  0  0  0  0  0
   15.6280   69.0443   -3.0651 H   0  0  0  0  0  0  0  0  0  0  0  0
   21.5630   74.0082   -5.3328 O   0  0  0  0  0  0  0  0  0  0  0  0
   22.5247   75.3036   -5.2333 P   0  0  2  0  0  0  0  0  0  0  0  0
   23.9631   74.6693   -4.8506 O   0  0  0  0  0  0  0  0  0  0  0  0
   22.0400   76.3582   -4.2810 O   0  0  0  0  0  0  0  0  0  0  0  0
   22.6931   75.8056   -6.7580 O   0  0  0  0  0  0  0  0  0  0  0  0
   24.6855   75.5933   -8.0236 O   0  0  0  0  0  0  0  0  0  0  0  0
   23.0871   78.9266   -9.8634 O   0  0  0  0  0  0  0  0  0  0  0  0
   23.0904   76.4090  -11.2453 O   0  0  0  0  0  0  0  0  0  0  0  0
   22.8344   78.5979   -6.9985 O   0  0  0  0  0  0  0  0  0  0  0  0
   23.0489   77.6574   -9.2055 C   0  0  1  0  0  0  0  0  0  0  0  0
   23.8324   76.6537  -10.0537 C   0  0  1  0  0  0  0  0  0  0  0  0
   23.6756   77.7946   -7.8192 C   0  0  2  0  0  0  0  0  0  0  0  0
   24.0631   75.3432   -9.2892 C   0  0  1  0  0  0  0  0  0  0  0  0
   23.9071   76.4306   -7.1664 C   0  0  1  0  0  0  0  0  0  0  0  0
   22.6903   78.8465  -10.7440 H   0  0  0  0  0  0  0  0  0  0  0  0
   22.9512   77.2445  -11.7183 H   0  0  0  0  0  0  0  0  0  0  0  0
   22.6957   79.4587   -7.4225 H   0  0  0  0  0  0  0  0  0  0  0  0
   24.3958   73.0967  -10.0317 O   0  0  0  0  0  0  0  0  0  0  0  0
   24.9762   74.3878  -10.0544 C   0  0  0  0  0  0  0  0  0  0  0  0
   24.9660   72.4780  -10.5153 H   0  0  0  0  0  0  0  0  0  0  0  0
 25 28  1  0
 25 24  1  0
 25 26  1  1
 25 27  2  0
  1  4  1  0
  1 24  1  0
  1  2  1  6
  1  3  2  0
  6 11  1  0
  6 12  1  0
 29 36  1  0
 29 37  1  0
  9  7  1  6
  7 13  1  0
 10  8  1  6
  8 14  1  0
 37 28  1  6
  4  5  1  0
 33 30  1  6
 30 38  1  0
 34 31  1  6
 31 39  1  0
 35 32  1  1
 32 40  1  0
 41 42  1  0
 41 43  1  0
 15 19  2  0
 16 22  2  0
 12 17  1  1
 17 19  1  0
 17 20  1  0
 18 19  1  0
 18 22  1  0
 18 23  1  0
  9 10  1  0
  9 11  1  0
 10 12  1  0
 11  5  1  1
 33 34  1  0
 33 35  1  0
 34 36  1  0
 35 37  1  0
 36 42  1  6
 20 21  2  0
 21 22  1  0
M  CHG  2   2  -1  26  -1
M  END
>  <COMPND>  (130) 
    8629 

>  <AUTHOR>  (130) 
    GENERATED BY OPEN BABEL 3.1.1

>  <MASTER>  (130) 
        0    0    0    0    0    0    0    0   58    0   58    0

>  <minimizedAffinity>  (130) 
-6.71630

>  <CNNscore>  (130) 
0.7381604910

>  <CNNaffinity>  (130) 
4.3995823860

>  <CNN_VS>  (130) 
3.2475979328

>  <CNNaffinity_variance>  (130) 
0.1243612766

$$$$
131
     RDKit          3D

 43 45  0  0  0  0  0  0  0  0999 V2000
   21.9389   72.6270   -5.7897 P   0  0  2  0  0  0  0  0  0  0  0  0
   21.3018   74.0289   -5.2936 O   0  0  0  0  0  0  0  0  0  0  0  0
   23.0748   72.7557   -6.7615 O   0  0  0  0  0  0  0  0  0  0  0  0
   20.6609   71.7822   -6.3105 O   0  0  0  0  0  0  0  0  0  0  0  0
   20.1556   72.0510   -7.6067 C   0  0  0  0  0  0  0  0  0  0  0  0
   19.0113   70.0117   -7.0537 O   0  0  0  0  0  0  0  0  0  0  0  0
   18.1544   69.9333   -9.9261 O   0  0  0  0  0  0  0  0  0  0  0  0
   15.9299   70.8846   -8.6680 O   0  0  0  0  0  0  0  0  0  0  0  0
   18.3223   71.0583   -9.0651 C   0  0  1  0  0  0  0  0  0  0  0  0
   17.1850   71.1313   -8.0676 C   0  0  2  0  0  0  0  0  0  0  0  0
   19.5193   70.7846   -8.1632 C   0  0  1  0  0  0  0  0  0  0  0  0
   17.5751   70.0577   -7.0659 C   0  0  2  0  0  0  0  0  0  0  0  0
   17.3957   70.0850  -10.5119 H   0  0  0  0  0  0  0  0  0  0  0  0
   15.7268   71.5948   -9.2966 H   0  0  0  0  0  0  0  0  0  0  0  0
   16.2591   68.2001   -5.3941 O   0  0  0  0  0  0  0  0  0  0  0  0
   15.8209   71.2875   -2.0003 O   0  0  0  0  0  0  0  0  0  0  0  0
   17.1066   70.3492   -5.7404 N   0  0  0  0  0  0  0  0  0  0  0  0
   16.0421   69.7388   -3.7055 N   0  0  0  0  0  0  0  0  0  0  0  0
   16.4571   69.3457   -4.9843 C   0  0  0  0  0  0  0  0  0  0  0  0
   17.2932   71.6181   -5.2029 C   0  0  0  0  0  0  0  0  0  0  0  0
   16.8904   71.9773   -3.9822 C   0  0  0  0  0  0  0  0  0  0  0  0
   16.2033   70.9879   -3.1272 C   0  0  0  0  0  0  0  0  0  0  0  0
   15.5869   69.0564   -3.1607 H   0  0  0  0  0  0  0  0  0  0  0  0
   22.3205   71.8902   -4.4024 O   0  0  0  0  0  0  0  0  0  0  0  0
   23.5554   72.1176   -3.3844 P   0  0  2  0  0  0  0  0  0  0  0  0
   24.5019   73.1633   -4.1770 O   0  0  0  0  0  0  0  0  0  0  0  0
   24.2466   70.8532   -2.9632 O   0  0  0  0  0  0  0  0  0  0  0  0
   22.9298   72.9749   -2.1684 O   0  0  0  0  0  0  0  0  0  0  0  0
   21.5561   71.8547   -0.5952 O   0  0  0  0  0  0  0  0  0  0  0  0
   20.3744   75.7412    0.1462 O   0  0  0  0  0  0  0  0  0  0  0  0
   22.0182   74.3694    2.0603 O   0  0  0  0  0  0  0  0  0  0  0  0
   20.9173   74.8897   -2.5667 O   0  0  0  0  0  0  0  0  0  0  0  0
   21.2959   74.7023   -0.1954 C   0  0  1  0  0  0  0  0  0  0  0  0
   21.3646   73.7185    0.9743 C   0  0  1  0  0  0  0  0  0  0  0  0
   20.8089   73.9994   -1.4612 C   0  0  2  0  0  0  0  0  0  0  0  0
   22.1223   72.4430    0.5816 C   0  0  1  0  0  0  0  0  0  0  0  0
   21.5971   72.7170   -1.7340 C   0  0  1  0  0  0  0  0  0  0  0  0
   20.6780   76.1918    0.9488 H   0  0  0  0  0  0  0  0  0  0  0  0
   21.5300   75.1734    2.2980 H   0  0  0  0  0  0  0  0  0  0  0  0
   20.4139   75.6973   -2.3818 H   0  0  0  0  0  0  0  0  0  0  0  0
   21.4895   70.2084    1.1431 O   0  0  0  0  0  0  0  0  0  0  0  0
   22.0672   71.3839    1.6805 C   0  0  0  0  0  0  0  0  0  0  0  0
   21.4483   69.5254    1.8312 H   0  0  0  0  0  0  0  0  0  0  0  0
 25 28  1  0
 25 24  1  0
 25 26  1  6
 25 27  2  0
  1  4  1  0
  1 24  1  0
  1  2  1  1
  1  3  2  0
  6 11  1  0
  6 12  1  0
 29 36  1  0
 29 37  1  0
  9  7  1  6
  7 13  1  0
 10  8  1  6
  8 14  1  0
 37 28  1  1
  4  5  1  0
 33 30  1  1
 30 38  1  0
 34 31  1  1
 31 39  1  0
 35 32  1  6
 32 40  1  0
 41 42  1  0
 41 43  1  0
 15 19  2  0
 16 22  2  0
 12 17  1  1
 17 19  1  0
 17 20  1  0
 18 19  1  0
 18 22  1  0
 18 23  1  0
  9 10  1  0
  9 11  1  0
 10 12  1  0
 11  5  1  1
 33 34  1  0
 33 35  1  0
 34 36  1  0
 35 37  1  0
 36 42  1  1
 20 21  2  0
 21 22  1  0
M  CHG  2   2  -1  26  -1
M  END
>  <COMPND>  (131) 
    8629 

>  <AUTHOR>  (131) 
    GENERATED BY OPEN BABEL 3.1.1

>  <MASTER>  (131) 
        0    0    0    0    0    0    0    0   58    0   58    0

>  <minimizedAffinity>  (131) 
-7.77973

>  <CNNscore>  (131) 
0.6897163987

>  <CNNaffinity>  (131) 
4.4023022652

>  <CNN_VS>  (131) 
3.0363399982

>  <CNNaffinity_variance>  (131) 
0.4219055772

$$$$
132
     RDKit          3D

 43 45  0  0  0  0  0  0  0  0999 V2000
   23.6370   72.6295   -3.5571 P   0  0  2  0  0  0  0  0  0  0  0  0
   24.0118   71.1206   -3.1097 O   0  0  0  0  0  0  0  0  0  0  0  0
   24.7184   73.3574   -4.3001 O   0  0  0  0  0  0  0  0  0  0  0  0
   23.1338   73.3273   -2.1868 O   0  0  0  0  0  0  0  0  0  0  0  0
   22.1696   74.3624   -2.2696 C   0  0  0  0  0  0  0  0  0  0  0  0
   21.2325   72.7202   -0.7867 O   0  0  0  0  0  0  0  0  0  0  0  0
   19.1863   74.7959   -0.0832 O   0  0  0  0  0  0  0  0  0  0  0  0
   20.9112   74.9231    2.0252 O   0  0  0  0  0  0  0  0  0  0  0  0
   20.5717   74.9596   -0.3821 C   0  0  1  0  0  0  0  0  0  0  0  0
   21.4197   74.4879    0.7806 C   0  0  2  0  0  0  0  0  0  0  0  0
   20.9385   73.9582   -1.4702 C   0  0  1  0  0  0  0  0  0  0  0  0
   21.3616   72.9782    0.6210 C   0  0  2  0  0  0  0  0  0  0  0  0
   18.9285   75.4253    0.6092 H   0  0  0  0  0  0  0  0  0  0  0  0
   20.9699   75.8898    2.0784 H   0  0  0  0  0  0  0  0  0  0  0  0
   21.5324   70.2309    1.2540 O   0  0  0  0  0  0  0  0  0  0  0  0
   25.9599   70.6010    2.4794 O   0  0  0  0  0  0  0  0  0  0  0  0
   22.5469   72.3300    1.1071 N   0  0  0  0  0  0  0  0  0  0  0  0
   23.7369   70.4174    1.8635 N   0  0  0  0  0  0  0  0  0  0  0  0
   22.5267   70.9456    1.3959 C   0  0  0  0  0  0  0  0  0  0  0  0
   23.7125   73.0655    1.2925 C   0  0  0  0  0  0  0  0  0  0  0  0
   24.8578   72.5470    1.7404 C   0  0  0  0  0  0  0  0  0  0  0  0
   24.9216   71.1075    2.0656 C   0  0  0  0  0  0  0  0  0  0  0  0
   23.7465   69.4549    2.0716 H   0  0  0  0  0  0  0  0  0  0  0  0
   22.2652   72.4317   -4.3891 O   0  0  0  0  0  0  0  0  0  0  0  0
   21.7929   73.0290   -5.8149 P   0  0  2  0  0  0  0  0  0  0  0  0
   22.8145   72.3393   -6.8629 O   0  0  0  0  0  0  0  0  0  0  0  0
   21.7637   74.5289   -5.8745 O   0  0  0  0  0  0  0  0  0  0  0  0
   20.3720   72.3203   -6.1043 O   0  0  0  0  0  0  0  0  0  0  0  0
   19.6374   70.1654   -5.4461 O   0  0  0  0  0  0  0  0  0  0  0  0
   17.6924   70.4448   -9.0779 O   0  0  0  0  0  0  0  0  0  0  0  0
   16.1831   70.6406   -6.6424 O   0  0  0  0  0  0  0  0  0  0  0  0
   20.3709   71.5038   -8.7892 O   0  0  0  0  0  0  0  0  0  0  0  0
   18.2289   70.9349   -7.8461 C   0  0  1  0  0  0  0  0  0  0  0  0
   17.5373   70.2005   -6.6958 C   0  0  1  0  0  0  0  0  0  0  0  0
   19.7345   70.6779   -7.8201 C   0  0  2  0  0  0  0  0  0  0  0  0
   18.2415   70.4750   -5.3603 C   0  0  1  0  0  0  0  0  0  0  0  0
   20.3273   70.9343   -6.4334 C   0  0  1  0  0  0  0  0  0  0  0  0
   16.7368   70.6053   -9.1010 H   0  0  0  0  0  0  0  0  0  0  0  0
   15.7500   70.4619   -7.4919 H   0  0  0  0  0  0  0  0  0  0  0  0
   19.9871   71.3319   -9.6626 H   0  0  0  0  0  0  0  0  0  0  0  0
   16.7702   68.6841   -4.7801 O   0  0  0  0  0  0  0  0  0  0  0  0
   17.6661   69.6299   -4.2259 C   0  0  0  0  0  0  0  0  0  0  0  0
   16.3964   68.1388   -4.0697 H   0  0  0  0  0  0  0  0  0  0  0  0
 25 28  1  0
 25 24  1  0
 25 26  1  6
 25 27  2  0
  1  4  1  0
  1 24  1  0
  1  2  1  1
  1  3  2  0
  6 11  1  0
  6 12  1  0
 29 36  1  0
 29 37  1  0
  9  7  1  1
  7 13  1  0
 10  8  1  1
  8 14  1  0
 37 28  1  1
  4  5  1  0
 33 30  1  6
 30 38  1  0
 34 31  1  1
 31 39  1  0
 35 32  1  6
 32 40  1  0
 41 42  1  0
 41 43  1  0
 15 19  2  0
 16 22  2  0
 12 17  1  6
 17 19  1  0
 17 20  1  0
 18 19  1  0
 18 22  1  0
 18 23  1  0
  9 10  1  0
  9 11  1  0
 10 12  1  0
 11  5  1  1
 33 34  1  0
 33 35  1  0
 34 36  1  0
 35 37  1  0
 36 42  1  1
 20 21  2  0
 21 22  1  0
M  CHG  2   2  -1  26  -1
M  END
>  <COMPND>  (132) 
    8629 

>  <AUTHOR>  (132) 
    GENERATED BY OPEN BABEL 3.1.1

>  <MASTER>  (132) 
        0    0    0    0    0    0    0    0   58    0   58    0

>  <minimizedAffinity>  (132) 
-7.87643

>  <CNNscore>  (132) 
0.6699237227

>  <CNNaffinity>  (132) 
4.4474225044

>  <CNN_VS>  (132) 
2.9794337749

>  <CNNaffinity_variance>  (132) 
0.0687767118

$$$$
133
     RDKit          3D

 43 45  0  0  0  0  0  0  0  0999 V2000
   19.8608   73.6089   -2.3568 P   0  0  2  0  0  0  0  0  0  0  0  0
   19.5078   72.5917   -1.1493 O   0  0  0  0  0  0  0  0  0  0  0  0
   19.5417   75.0498   -2.0854 O   0  0  0  0  0  0  0  0  0  0  0  0
   19.1254   72.9564   -3.6418 O   0  0  0  0  0  0  0  0  0  0  0  0
   18.7084   71.6042   -3.5678 C   0  0  0  0  0  0  0  0  0  0  0  0
   16.9412   71.9774   -5.1526 O   0  0  0  0  0  0  0  0  0  0  0  0
   15.2555   70.2188   -3.4044 O   0  0  0  0  0  0  0  0  0  0  0  0
   15.9750   68.5342   -5.4246 O   0  0  0  0  0  0  0  0  0  0  0  0
   16.6458   70.1214   -3.7092 C   0  0  1  0  0  0  0  0  0  0  0  0
   16.8399   69.6099   -5.1214 C   0  0  2  0  0  0  0  0  0  0  0  0
   17.2057   71.5352   -3.8032 C   0  0  1  0  0  0  0  0  0  0  0  0
   16.5439   70.8491   -5.9488 C   0  0  2  0  0  0  0  0  0  0  0  0
   14.8758   69.3280   -3.3389 H   0  0  0  0  0  0  0  0  0  0  0  0
   16.2034   67.7701   -4.8726 H   0  0  0  0  0  0  0  0  0  0  0  0
   16.3475   72.8967   -7.8846 O   0  0  0  0  0  0  0  0  0  0  0  0
   19.3937   70.8234  -10.6528 O   0  0  0  0  0  0  0  0  0  0  0  0
   17.2747   70.8700   -7.1845 N   0  0  0  0  0  0  0  0  0  0  0  0
   17.8646   71.8627   -9.2613 N   0  0  0  0  0  0  0  0  0  0  0  0
   17.1030   71.9442   -8.0885 C   0  0  0  0  0  0  0  0  0  0  0  0
   18.1502   69.8335   -7.4894 C   0  0  0  0  0  0  0  0  0  0  0  0
   18.8681   69.7700   -8.6128 C   0  0  0  0  0  0  0  0  0  0  0  0
   18.7471   70.8528   -9.6103 C   0  0  0  0  0  0  0  0  0  0  0  0
   17.7611   72.5998   -9.9061 H   0  0  0  0  0  0  0  0  0  0  0  0
   21.4234   73.3078   -2.6407 O   0  0  0  0  0  0  0  0  0  0  0  0
   22.4059   72.1622   -2.0618 P   0  0  2  0  0  0  0  0  0  0  0  0
   23.7763   72.3958   -2.8895 O   0  0  0  0  0  0  0  0  0  0  0  0
   21.8528   70.7699   -2.1601 O   0  0  0  0  0  0  0  0  0  0  0  0
   22.7506   72.6405   -0.5594 O   0  0  0  0  0  0  0  0  0  0  0  0
   24.4617   72.1727    1.0122 O   0  0  0  0  0  0  0  0  0  0  0  0
   21.1824   71.9007    3.5068 O   0  0  0  0  0  0  0  0  0  0  0  0
   22.9426   74.1599    3.7199 O   0  0  0  0  0  0  0  0  0  0  0  0
   21.0230   70.8941    0.7973 O   0  0  0  0  0  0  0  0  0  0  0  0
   21.9510   72.4167    2.4166 C   0  0  1  0  0  0  0  0  0  0  0  0
   23.2562   72.9853    2.9768 C   0  0  1  0  0  0  0  0  0  0  0  0
   22.2368   71.2872    1.4287 C   0  0  2  0  0  0  0  0  0  0  0  0
   24.2458   73.3136    1.8508 C   0  0  1  0  0  0  0  0  0  0  0  0
   23.2698   71.7024    0.3796 C   0  0  1  0  0  0  0  0  0  0  0  0
   20.9971   72.6129    4.1375 H   0  0  0  0  0  0  0  0  0  0  0  0
   22.3166   73.9389    4.4274 H   0  0  0  0  0  0  0  0  0  0  0  0
   20.3775   70.6334    1.4720 H   0  0  0  0  0  0  0  0  0  0  0  0
   25.5879   73.6191    3.8039 O   0  0  0  0  0  0  0  0  0  0  0  0
   25.6104   73.7334    2.3929 C   0  0  0  0  0  0  0  0  0  0  0  0
   26.4501   73.8827    4.1628 H   0  0  0  0  0  0  0  0  0  0  0  0
 25 28  1  0
 25 24  1  0
 25 26  1  6
 25 27  2  0
  1  4  1  0
  1 24  1  0
  1  2  1  1
  1  3  2  0
  6 11  1  0
  6 12  1  0
 29 36  1  0
 29 37  1  0
  9  7  1  6
  7 13  1  0
 10  8  1  6
  8 14  1  0
 37 28  1  1
  4  5  1  0
 33 30  1  1
 30 38  1  0
 34 31  1  6
 31 39  1  0
 35 32  1  6
 32 40  1  0
 41 42  1  0
 41 43  1  0
 15 19  2  0
 16 22  2  0
 12 17  1  6
 17 19  1  0
 17 20  1  0
 18 19  1  0
 18 22  1  0
 18 23  1  0
  9 10  1  0
  9 11  1  0
 10 12  1  0
 11  5  1  6
 33 34  1  0
 33 35  1  0
 34 36  1  0
 35 37  1  0
 36 42  1  1
 20 21  2  0
 21 22  1  0
M  CHG  2   2  -1  26  -1
M  END
>  <COMPND>  (133) 
    8629 

>  <AUTHOR>  (133) 
    GENERATED BY OPEN BABEL 3.1.1

>  <MASTER>  (133) 
        0    0    0    0    0    0    0    0   58    0   58    0

>  <minimizedAffinity>  (133) 
-6.60533

>  <CNNscore>  (133) 
0.6661211252

>  <CNNaffinity>  (133) 
4.2657442093

>  <CNN_VS>  (133) 
2.8415024281

>  <CNNaffinity_variance>  (133) 
0.1882597506

$$$$
134
     RDKit          3D

 43 45  0  0  0  0  0  0  0  0999 V2000
   22.7512   72.7428   -4.2998 P   0  0  2  0  0  0  0  0  0  0  0  0
   23.1693   73.6977   -5.5371 O   0  0  0  0  0  0  0  0  0  0  0  0
   23.8426   71.8452   -3.7950 O   0  0  0  0  0  0  0  0  0  0  0  0
   21.4126   71.9973   -4.8196 O   0  0  0  0  0  0  0  0  0  0  0  0
   20.5923   71.3401   -3.8693 C   0  0  0  0  0  0  0  0  0  0  0  0
   18.9484   72.5812   -5.1067 O   0  0  0  0  0  0  0  0  0  0  0  0
   17.0479   71.9190   -2.8840 O   0  0  0  0  0  0  0  0  0  0  0  0
   16.3535   70.1227   -4.8148 O   0  0  0  0  0  0  0  0  0  0  0  0
   18.0931   71.1256   -3.4438 C   0  0  1  0  0  0  0  0  0  0  0  0
   17.6835   70.6001   -4.8038 C   0  0  2  0  0  0  0  0  0  0  0  0
   19.2491   72.0533   -3.7963 C   0  0  1  0  0  0  0  0  0  0  0  0
   17.8728   71.8235   -5.6844 C   0  0  2  0  0  0  0  0  0  0  0  0
   16.2985   71.3482   -2.6506 H   0  0  0  0  0  0  0  0  0  0  0  0
   16.2845   69.3444   -4.2401 H   0  0  0  0  0  0  0  0  0  0  0  0
   16.7426   73.0247   -7.9774 O   0  0  0  0  0  0  0  0  0  0  0  0
   19.2727   70.4185  -10.8143 O   0  0  0  0  0  0  0  0  0  0  0  0
   18.2181   71.4784   -7.0346 N   0  0  0  0  0  0  0  0  0  0  0  0
   18.0035   71.7262   -9.3881 N   0  0  0  0  0  0  0  0  0  0  0  0
   17.5912   72.1412   -8.1154 C   0  0  0  0  0  0  0  0  0  0  0  0
   19.1690   70.4929   -7.2764 C   0  0  0  0  0  0  0  0  0  0  0  0
   19.5501   70.1078   -8.4961 C   0  0  0  0  0  0  0  0  0  0  0  0
   18.9436   70.7505   -9.6797 C   0  0  0  0  0  0  0  0  0  0  0  0
   17.5800   72.1737  -10.1563 H   0  0  0  0  0  0  0  0  0  0  0  0
   22.1829   73.7905   -3.2080 O   0  0  0  0  0  0  0  0  0  0  0  0
   22.9359   74.6293   -2.0494 P   0  0  2  0  0  0  0  0  0  0  0  0
   22.2013   76.0700   -2.0974 O   0  0  0  0  0  0  0  0  0  0  0  0
   24.4280   74.6896   -2.2042 O   0  0  0  0  0  0  0  0  0  0  0  0
   22.4331   73.9612   -0.6689 O   0  0  0  0  0  0  0  0  0  0  0  0
   23.5043   73.6587    1.4234 O   0  0  0  0  0  0  0  0  0  0  0  0
   21.4860   70.0638    1.1895 O   0  0  0  0  0  0  0  0  0  0  0  0
   20.5905   72.0754    3.0334 O   0  0  0  0  0  0  0  0  0  0  0  0
   22.6678   71.2137   -1.1897 O   0  0  0  0  0  0  0  0  0  0  0  0
   21.6750   71.4674    0.9901 C   0  0  1  0  0  0  0  0  0  0  0  0
   21.8450   72.1278    2.3596 C   0  0  1  0  0  0  0  0  0  0  0  0
   22.9180   71.6863    0.1296 C   0  0  2  0  0  0  0  0  0  0  0  0
   22.3157   73.5817    2.2190 C   0  0  1  0  0  0  0  0  0  0  0  0
   23.3293   73.1593    0.0960 C   0  0  1  0  0  0  0  0  0  0  0  0
   20.6980   69.9179    1.7348 H   0  0  0  0  0  0  0  0  0  0  0  0
   20.3044   71.1520    3.1152 H   0  0  0  0  0  0  0  0  0  0  0  0
   22.4086   70.2802   -1.1549 H   0  0  0  0  0  0  0  0  0  0  0  0
   22.7895   73.1740    4.5251 O   0  0  0  0  0  0  0  0  0  0  0  0
   22.6429   74.2103    3.5717 C   0  0  0  0  0  0  0  0  0  0  0  0
   22.9983   73.5593    5.3910 H   0  0  0  0  0  0  0  0  0  0  0  0
 25 28  1  0
 25 24  1  0
 25 26  1  1
 25 27  2  0
  1  4  1  0
  1 24  1  0
  1  2  1  6
  1  3  2  0
  6 11  1  0
  6 12  1  0
 29 36  1  0
 29 37  1  0
  9  7  1  6
  7 13  1  0
 10  8  1  1
  8 14  1  0
 37 28  1  1
  4  5  1  0
 33 30  1  1
 30 38  1  0
 34 31  1  6
 31 39  1  0
 35 32  1  6
 32 40  1  0
 41 42  1  0
 41 43  1  0
 15 19  2  0
 16 22  2  0
 12 17  1  6
 17 19  1  0
 17 20  1  0
 18 19  1  0
 18 22  1  0
 18 23  1  0
  9 10  1  0
  9 11  1  0
 10 12  1  0
 11  5  1  6
 33 34  1  0
 33 35  1  0
 34 36  1  0
 35 37  1  0
 36 42  1  1
 20 21  2  0
 21 22  1  0
M  CHG  2   2  -1  26  -1
M  END
>  <COMPND>  (134) 
    8629 

>  <AUTHOR>  (134) 
    GENERATED BY OPEN BABEL 3.1.1

>  <MASTER>  (134) 
        0    0    0    0    0    0    0    0   58    0   58    0

>  <minimizedAffinity>  (134) 
-7.19334

>  <CNNscore>  (134) 
0.6022232175

>  <CNNaffinity>  (134) 
4.3102355003

>  <CNN_VS>  (134) 
2.5957238674

>  <CNNaffinity_variance>  (134) 
0.0728843659

$$$$
135
     RDKit          3D

 43 45  0  0  0  0  0  0  0  0999 V2000
   22.6476   73.0082   -3.9101 P   0  0  2  0  0  0  0  0  0  0  0  0
   24.0799   72.2753   -4.0799 O   0  0  0  0  0  0  0  0  0  0  0  0
   22.5390   74.3490   -4.5749 O   0  0  0  0  0  0  0  0  0  0  0  0
   22.3904   72.9930   -2.3128 O   0  0  0  0  0  0  0  0  0  0  0  0
   23.4106   72.4890   -1.4684 C   0  0  0  0  0  0  0  0  0  0  0  0
   23.6366   71.2745    0.5925 O   0  0  0  0  0  0  0  0  0  0  0  0
   20.7975   70.4053    0.1743 O   0  0  0  0  0  0  0  0  0  0  0  0
   20.5426   72.4044    2.0116 O   0  0  0  0  0  0  0  0  0  0  0  0
   21.4126   71.6556   -0.1317 C   0  0  1  0  0  0  0  0  0  0  0  0
   21.6511   72.4487    1.1363 C   0  0  2  0  0  0  0  0  0  0  0  0
   22.8340   71.3761   -0.6040 C   0  0  1  0  0  0  0  0  0  0  0  0
   22.8781   71.7618    1.7115 C   0  0  2  0  0  0  0  0  0  0  0  0
   19.8884   70.5582    0.4780 H   0  0  0  0  0  0  0  0  0  0  0  0
   19.7878   72.8540    1.6008 H   0  0  0  0  0  0  0  0  0  0  0  0
   22.3402   72.5389    4.3732 O   0  0  0  0  0  0  0  0  0  0  0  0
   26.0959   75.2045    4.5475 O   0  0  0  0  0  0  0  0  0  0  0  0
   23.6989   72.6575    2.4766 N   0  0  0  0  0  0  0  0  0  0  0  0
   24.2108   73.8654    4.4579 N   0  0  0  0  0  0  0  0  0  0  0  0
   23.3396   72.9840    3.8051 C   0  0  0  0  0  0  0  0  0  0  0  0
   24.8460   73.2017    1.9093 C   0  0  0  0  0  0  0  0  0  0  0  0
   25.6655   74.0418    2.5448 C   0  0  0  0  0  0  0  0  0  0  0  0
   25.3621   74.4339    3.9363 C   0  0  0  0  0  0  0  0  0  0  0  0
   23.9804   74.1074    5.3842 H   0  0  0  0  0  0  0  0  0  0  0  0
   21.6053   71.9001   -4.4565 O   0  0  0  0  0  0  0  0  0  0  0  0
   20.1783   71.4085   -3.8778 P   0  0  2  0  0  0  0  0  0  0  0  0
   19.5920   72.7348   -3.1603 O   0  0  0  0  0  0  0  0  0  0  0  0
   20.2583   70.2050   -2.9839 O   0  0  0  0  0  0  0  0  0  0  0  0
   19.2535   71.2100   -5.1856 O   0  0  0  0  0  0  0  0  0  0  0  0
   19.6777   71.4822   -7.5013 O   0  0  0  0  0  0  0  0  0  0  0  0
   15.8681   73.0667   -7.3377 O   0  0  0  0  0  0  0  0  0  0  0  0
   16.2843   70.4977   -8.5523 O   0  0  0  0  0  0  0  0  0  0  0  0
   17.7349   73.5698   -5.1834 O   0  0  0  0  0  0  0  0  0  0  0  0
   16.9253   72.1754   -6.9726 C   0  0  1  0  0  0  0  0  0  0  0  0
   17.3429   71.3910   -8.2181 C   0  0  1  0  0  0  0  0  0  0  0  0
   18.0992   72.9889   -6.4309 C   0  0  2  0  0  0  0  0  0  0  0  0
   18.6421   70.6120   -7.9724 C   0  0  1  0  0  0  0  0  0  0  0  0
   19.3548   72.1301   -6.2693 C   0  0  1  0  0  0  0  0  0  0  0  0
   15.1193   72.5564   -7.6821 H   0  0  0  0  0  0  0  0  0  0  0  0
   15.4698   71.0022   -8.7044 H   0  0  0  0  0  0  0  0  0  0  0  0
   16.9391   74.1112   -5.2991 H   0  0  0  0  0  0  0  0  0  0  0  0
   18.5933   70.6122  -10.3613 O   0  0  0  0  0  0  0  0  0  0  0  0
   19.1613   69.9495   -9.2466 C   0  0  0  0  0  0  0  0  0  0  0  0
   18.9151   70.2014  -11.1794 H   0  0  0  0  0  0  0  0  0  0  0  0
 25 28  1  0
 25 24  1  0
 25 26  1  1
 25 27  2  0
  1  4  1  0
  1 24  1  0
  1  2  1  1
  1  3  2  0
  6 11  1  0
  6 12  1  0
 29 36  1  0
 29 37  1  0
  9  7  1  1
  7 13  1  0
 10  8  1  1
  8 14  1  0
 37 28  1  1
  4  5  1  0
 33 30  1  6
 30 38  1  0
 34 31  1  1
 31 39  1  0
 35 32  1  1
 32 40  1  0
 41 42  1  0
 41 43  1  0
 15 19  2  0
 16 22  2  0
 12 17  1  6
 17 19  1  0
 17 20  1  0
 18 19  1  0
 18 22  1  0
 18 23  1  0
  9 10  1  0
  9 11  1  0
 10 12  1  0
 11  5  1  6
 33 34  1  0
 33 35  1  0
 34 36  1  0
 35 37  1  0
 36 42  1  6
 20 21  2  0
 21 22  1  0
M  CHG  2   2  -1  26  -1
M  END
>  <COMPND>  (135) 
    8629 

>  <AUTHOR>  (135) 
    GENERATED BY OPEN BABEL 3.1.1

>  <MASTER>  (135) 
        0    0    0    0    0    0    0    0   58    0   58    0

>  <minimizedAffinity>  (135) 
-6.65593

>  <CNNscore>  (135) 
0.5991756916

>  <CNNaffinity>  (135) 
4.1819624901

>  <CNN_VS>  (135) 
2.5057301521

>  <CNNaffinity_variance>  (135) 
0.2251724303

$$$$
136
     RDKit          3D

 43 45  0  0  0  0  0  0  0  0999 V2000
   23.1262   71.7668   -2.6097 P   0  0  2  0  0  0  0  0  0  0  0  0
   23.3628   73.3535   -2.4010 O   0  0  0  0  0  0  0  0  0  0  0  0
   24.3173   71.0100   -3.1196 O   0  0  0  0  0  0  0  0  0  0  0  0
   21.7980   71.6899   -3.5305 O   0  0  0  0  0  0  0  0  0  0  0  0
   21.6557   72.6191   -4.5908 C   0  0  0  0  0  0  0  0  0  0  0  0
   20.8166   70.6612   -5.7027 O   0  0  0  0  0  0  0  0  0  0  0  0
   21.3396   72.1227   -8.2681 O   0  0  0  0  0  0  0  0  0  0  0  0
   18.6489   72.4291   -7.9473 O   0  0  0  0  0  0  0  0  0  0  0  0
   20.8854   72.6328   -7.0156 C   0  0  1  0  0  0  0  0  0  0  0  0
   19.4370   72.2537   -6.7876 C   0  0  2  0  0  0  0  0  0  0  0  0
   21.5941   71.8608   -5.9097 C   0  0  1  0  0  0  0  0  0  0  0  0
   19.5539   70.7962   -6.3751 C   0  0  2  0  0  0  0  0  0  0  0  0
   20.9010   72.6007   -8.9899 H   0  0  0  0  0  0  0  0  0  0  0  0
   18.6049   73.3723   -8.1689 H   0  0  0  0  0  0  0  0  0  0  0  0
   17.0121   69.8868   -7.2057 O   0  0  0  0  0  0  0  0  0  0  0  0
   15.6056   69.2811   -2.8587 O   0  0  0  0  0  0  0  0  0  0  0  0
   18.5045   70.3940   -5.4816 N   0  0  0  0  0  0  0  0  0  0  0  0
   16.3139   69.5858   -5.0406 N   0  0  0  0  0  0  0  0  0  0  0  0
   17.2647   69.9539   -6.0010 C   0  0  0  0  0  0  0  0  0  0  0  0
   18.7100   70.4378   -4.1069 C   0  0  0  0  0  0  0  0  0  0  0  0
   17.7926   70.0845   -3.2043 C   0  0  0  0  0  0  0  0  0  0  0  0
   16.4702   69.6130   -3.6638 C   0  0  0  0  0  0  0  0  0  0  0  0
   15.4425   69.2763   -5.3792 H   0  0  0  0  0  0  0  0  0  0  0  0
   22.5928   71.2853   -1.1617 O   0  0  0  0  0  0  0  0  0  0  0  0
   21.4453   71.8914   -0.1979 P   0  0  2  0  0  0  0  0  0  0  0  0
   20.7998   70.5740    0.4843 O   0  0  0  0  0  0  0  0  0  0  0  0
   20.4544   72.7737   -0.9003 O   0  0  0  0  0  0  0  0  0  0  0  0
   22.2550   72.6138    0.9969 O   0  0  0  0  0  0  0  0  0  0  0  0
   24.1393   72.0365    2.3132 O   0  0  0  0  0  0  0  0  0  0  0  0
   21.6948   73.5383    5.2831 O   0  0  0  0  0  0  0  0  0  0  0  0
   23.9763   75.0555    4.4223 O   0  0  0  0  0  0  0  0  0  0  0  0
   20.5583   71.9646    3.1357 O   0  0  0  0  0  0  0  0  0  0  0  0
   22.2511   73.4624    3.9677 C   0  0  1  0  0  0  0  0  0  0  0  0
   23.7603   73.6915    4.0713 C   0  0  1  0  0  0  0  0  0  0  0  0
   21.9557   72.0839    3.3796 C   0  0  2  0  0  0  0  0  0  0  0  0
   24.4627   73.3628    2.7470 C   0  0  1  0  0  0  0  0  0  0  0  0
   22.7417   71.8397    2.0901 C   0  0  1  0  0  0  0  0  0  0  0  0
   21.8785   74.4113    5.6620 H   0  0  0  0  0  0  0  0  0  0  0  0
   23.5272   75.2501    5.2599 H   0  0  0  0  0  0  0  0  0  0  0  0
   20.0719   72.1210    3.9596 H   0  0  0  0  0  0  0  0  0  0  0  0
   26.5040   72.1211    2.7600 O   0  0  0  0  0  0  0  0  0  0  0  0
   25.9830   73.4326    2.8733 C   0  0  0  0  0  0  0  0  0  0  0  0
   27.4708   72.1501    2.8381 H   0  0  0  0  0  0  0  0  0  0  0  0
 25 28  1  0
 25 24  1  0
 25 26  1  1
 25 27  2  0
  1  4  1  0
  1 24  1  0
  1  2  1  1
  1  3  2  0
  6 11  1  0
  6 12  1  0
 29 36  1  0
 29 37  1  0
  9  7  1  6
  7 13  1  0
 10  8  1  6
  8 14  1  0
 37 28  1  6
  4  5  1  0
 33 30  1  1
 30 38  1  0
 34 31  1  6
 31 39  1  0
 35 32  1  6
 32 40  1  0
 41 42  1  0
 41 43  1  0
 15 19  2  0
 16 22  2  0
 12 17  1  1
 17 19  1  0
 17 20  1  0
 18 19  1  0
 18 22  1  0
 18 23  1  0
  9 10  1  0
  9 11  1  0
 10 12  1  0
 11  5  1  1
 33 34  1  0
 33 35  1  0
 34 36  1  0
 35 37  1  0
 36 42  1  1
 20 21  2  0
 21 22  1  0
M  CHG  2   2  -1  26  -1
M  END
>  <COMPND>  (136) 
    8629 

>  <AUTHOR>  (136) 
    GENERATED BY OPEN BABEL 3.1.1

>  <MASTER>  (136) 
        0    0    0    0    0    0    0    0   58    0   58    0

>  <minimizedAffinity>  (136) 
-7.62452

>  <CNNscore>  (136) 
0.5919879675

>  <CNNaffinity>  (136) 
4.1839737892

>  <CNN_VS>  (136) 
2.4768621922

>  <CNNaffinity_variance>  (136) 
0.3251437247

$$$$
137
     RDKit          3D

 43 45  0  0  0  0  0  0  0  0999 V2000
   22.1533   73.1422   -5.0157 P   0  0  2  0  0  0  0  0  0  0  0  0
   21.9055   74.7361   -4.8924 O   0  0  0  0  0  0  0  0  0  0  0  0
   23.3795   72.7491   -5.7861 O   0  0  0  0  0  0  0  0  0  0  0  0
   20.7510   72.5743   -5.5894 O   0  0  0  0  0  0  0  0  0  0  0  0
   20.5858   72.4740   -6.9931 C   0  0  0  0  0  0  0  0  0  0  0  0
   19.5246   70.4539   -6.2401 O   0  0  0  0  0  0  0  0  0  0  0  0
   19.4955   69.6176   -9.1194 O   0  0  0  0  0  0  0  0  0  0  0  0
   16.9349   70.4671   -8.7213 O   0  0  0  0  0  0  0  0  0  0  0  0
   19.3187   70.9160   -8.5552 C   0  0  1  0  0  0  0  0  0  0  0  0
   17.9506   71.0295   -7.9157 C   0  0  2  0  0  0  0  0  0  0  0  0
   20.2438   71.0340   -7.3504 C   0  0  1  0  0  0  0  0  0  0  0  0
   18.1484   70.2744   -6.6123 C   0  0  2  0  0  0  0  0  0  0  0  0
   18.9150   69.5188   -9.8909 H   0  0  0  0  0  0  0  0  0  0  0  0
   16.8475   70.9825   -9.5383 H   0  0  0  0  0  0  0  0  0  0  0  0
   16.6647   68.6443   -4.8461 O   0  0  0  0  0  0  0  0  0  0  0  0
   14.9699   72.2981   -2.6059 O   0  0  0  0  0  0  0  0  0  0  0  0
   17.3113   70.7733   -5.5579 N   0  0  0  0  0  0  0  0  0  0  0  0
   15.8222   70.4650   -3.7320 N   0  0  0  0  0  0  0  0  0  0  0  0
   16.6078   69.8700   -4.7274 C   0  0  0  0  0  0  0  0  0  0  0  0
   17.1945   72.1442   -5.3556 C   0  0  0  0  0  0  0  0  0  0  0  0
   16.4401   72.6955   -4.4026 C   0  0  0  0  0  0  0  0  0  0  0  0
   15.6727   71.8217   -3.4919 C   0  0  0  0  0  0  0  0  0  0  0  0
   15.3227   69.8553   -3.1416 H   0  0  0  0  0  0  0  0  0  0  0  0
   22.1408   72.6521   -3.4753 O   0  0  0  0  0  0  0  0  0  0  0  0
   22.3759   71.1914   -2.8241 P   0  0  2  0  0  0  0  0  0  0  0  0
   23.9796   70.9983   -2.9155 O   0  0  0  0  0  0  0  0  0  0  0  0
   21.5821   70.0940   -3.4717 O   0  0  0  0  0  0  0  0  0  0  0  0
   22.0786   71.3930   -1.2506 O   0  0  0  0  0  0  0  0  0  0  0  0
   21.8374   73.4592   -0.1151 O   0  0  0  0  0  0  0  0  0  0  0  0
   23.4173   71.1981    2.9577 O   0  0  0  0  0  0  0  0  0  0  0  0
   20.6449   71.9446    3.0270 O   0  0  0  0  0  0  0  0  0  0  0  0
   24.3809   70.8323    0.2527 O   0  0  0  0  0  0  0  0  0  0  0  0
   22.6282   71.4385    1.7894 C   0  0  1  0  0  0  0  0  0  0  0  0
   21.5903   72.5116    2.1242 C   0  0  1  0  0  0  0  0  0  0  0  0
   23.5411   71.9078    0.6582 C   0  0  2  0  0  0  0  0  0  0  0  0
   20.8847   73.0141    0.8575 C   0  0  1  0  0  0  0  0  0  0  0  0
   22.7391   72.4329   -0.5339 C   0  0  1  0  0  0  0  0  0  0  0  0
   22.8437   70.8993    3.6796 H   0  0  0  0  0  0  0  0  0  0  0  0
   21.1035   71.6308    3.8223 H   0  0  0  0  0  0  0  0  0  0  0  0
   24.8835   70.5090    1.0161 H   0  0  0  0  0  0  0  0  0  0  0  0
   18.7437   73.6929    1.6727 O   0  0  0  0  0  0  0  0  0  0  0  0
   19.9595   74.1939    1.1480 C   0  0  0  0  0  0  0  0  0  0  0  0
   18.1451   74.4327    1.8626 H   0  0  0  0  0  0  0  0  0  0  0  0
 25 28  1  0
 25 24  1  0
 25 26  1  1
 25 27  2  0
  1  4  1  0
  1 24  1  0
  1  2  1  1
  1  3  2  0
  6 11  1  0
  6 12  1  0
 29 36  1  0
 29 37  1  0
  9  7  1  1
  7 13  1  0
 10  8  1  6
  8 14  1  0
 37 28  1  1
  4  5  1  0
 33 30  1  1
 30 38  1  0
 34 31  1  1
 31 39  1  0
 35 32  1  6
 32 40  1  0
 41 42  1  0
 41 43  1  0
 15 19  2  0
 16 22  2  0
 12 17  1  1
 17 19  1  0
 17 20  1  0
 18 19  1  0
 18 22  1  0
 18 23  1  0
  9 10  1  0
  9 11  1  0
 10 12  1  0
 11  5  1  1
 33 34  1  0
 33 35  1  0
 34 36  1  0
 35 37  1  0
 36 42  1  1
 20 21  2  0
 21 22  1  0
M  CHG  2   2  -1  26  -1
M  END
>  <COMPND>  (137) 
    8629 

>  <AUTHOR>  (137) 
    GENERATED BY OPEN BABEL 3.1.1

>  <MASTER>  (137) 
        0    0    0    0    0    0    0    0   58    0   58    0

>  <minimizedAffinity>  (137) 
-7.07395

>  <CNNscore>  (137) 
0.5772290230

>  <CNNaffinity>  (137) 
4.3412675858

>  <CNN_VS>  (137) 
2.5059056282

>  <CNNaffinity_variance>  (137) 
0.2082131803

$$$$
138
     RDKit          3D

 43 45  0  0  0  0  0  0  0  0999 V2000
   22.5096   72.9537   -3.5583 P   0  0  2  0  0  0  0  0  0  0  0  0
   23.8475   72.1241   -3.9318 O   0  0  0  0  0  0  0  0  0  0  0  0
   22.6925   74.4396   -3.4586 O   0  0  0  0  0  0  0  0  0  0  0  0
   21.9590   72.2224   -2.2242 O   0  0  0  0  0  0  0  0  0  0  0  0
   21.9434   72.9530   -1.0102 C   0  0  0  0  0  0  0  0  0  0  0  0
   23.3115   73.6880    0.8234 O   0  0  0  0  0  0  0  0  0  0  0  0
   25.0386   71.3061    0.2451 O   0  0  0  0  0  0  0  0  0  0  0  0
   23.5703   70.4700    2.3855 O   0  0  0  0  0  0  0  0  0  0  0  0
   23.6207   71.4357    0.1548 C   0  0  1  0  0  0  0  0  0  0  0  0
   23.0048   71.4494    1.5382 C   0  0  2  0  0  0  0  0  0  0  0  0
   23.3089   72.8403   -0.3462 C   0  0  1  0  0  0  0  0  0  0  0  0
   23.3021   72.8654    2.0015 C   0  0  2  0  0  0  0  0  0  0  0  0
   25.2623   70.4167    0.5628 H   0  0  0  0  0  0  0  0  0  0  0  0
   23.3533   69.5867    2.0488 H   0  0  0  0  0  0  0  0  0  0  0  0
   20.6629   71.8753    2.1817 O   0  0  0  0  0  0  0  0  0  0  0  0
   19.5778   74.8564    5.5250 O   0  0  0  0  0  0  0  0  0  0  0  0
   22.3090   73.3641    2.9106 N   0  0  0  0  0  0  0  0  0  0  0  0
   20.1248   73.3603    3.8464 N   0  0  0  0  0  0  0  0  0  0  0  0
   21.0128   72.7980    2.9205 C   0  0  0  0  0  0  0  0  0  0  0  0
   22.6243   74.4028    3.7797 C   0  0  0  0  0  0  0  0  0  0  0  0
   21.7657   74.9287    4.6557 C   0  0  0  0  0  0  0  0  0  0  0  0
   20.3906   74.3942    4.7302 C   0  0  0  0  0  0  0  0  0  0  0  0
   19.2159   72.9822    3.8710 H   0  0  0  0  0  0  0  0  0  0  0  0
   21.4596   72.4796   -4.6922 O   0  0  0  0  0  0  0  0  0  0  0  0
   20.7891   73.2866   -5.9219 P   0  0  2  0  0  0  0  0  0  0  0  0
   21.8613   73.0969   -7.1186 O   0  0  0  0  0  0  0  0  0  0  0  0
   20.4554   74.7168   -5.6104 O   0  0  0  0  0  0  0  0  0  0  0  0
   19.5245   72.3849   -6.3610 O   0  0  0  0  0  0  0  0  0  0  0  0
   18.8762   70.1958   -5.7255 O   0  0  0  0  0  0  0  0  0  0  0  0
   17.8110   70.0679   -9.7129 O   0  0  0  0  0  0  0  0  0  0  0  0
   15.7650   70.2114   -7.7026 O   0  0  0  0  0  0  0  0  0  0  0  0
   20.2293   71.4401   -8.9076 O   0  0  0  0  0  0  0  0  0  0  0  0
   17.9947   70.6774   -8.4323 C   0  0  1  0  0  0  0  0  0  0  0  0
   17.1315   69.9273   -7.4159 C   0  0  1  0  0  0  0  0  0  0  0  0
   19.4708   70.5963   -8.0479 C   0  0  2  0  0  0  0  0  0  0  0  0
   17.4749   70.3474   -5.9804 C   0  0  1  0  0  0  0  0  0  0  0  0
   19.6963   70.9882   -6.5865 C   0  0  1  0  0  0  0  0  0  0  0  0
   16.8759   70.1165   -9.9631 H   0  0  0  0  0  0  0  0  0  0  0  0
   15.5614   69.9418   -8.6121 H   0  0  0  0  0  0  0  0  0  0  0  0
   20.0782   71.1816   -9.8297 H   0  0  0  0  0  0  0  0  0  0  0  0
   16.0777   68.4435   -5.6167 O   0  0  0  0  0  0  0  0  0  0  0  0
   16.7389   69.4998   -4.9449 C   0  0  0  0  0  0  0  0  0  0  0  0
   15.6052   67.8955   -4.9701 H   0  0  0  0  0  0  0  0  0  0  0  0
 25 28  1  0
 25 24  1  0
 25 26  1  6
 25 27  2  0
  1  4  1  0
  1 24  1  0
  1  2  1  6
  1  3  2  0
  6 11  1  0
  6 12  1  0
 29 36  1  0
 29 37  1  0
  9  7  1  1
  7 13  1  0
 10  8  1  1
  8 14  1  0
 37 28  1  6
  4  5  1  0
 33 30  1  6
 30 38  1  0
 34 31  1  6
 31 39  1  0
 35 32  1  6
 32 40  1  0
 41 42  1  0
 41 43  1  0
 15 19  2  0
 16 22  2  0
 12 17  1  1
 17 19  1  0
 17 20  1  0
 18 19  1  0
 18 22  1  0
 18 23  1  0
  9 10  1  0
  9 11  1  0
 10 12  1  0
 11  5  1  1
 33 34  1  0
 33 35  1  0
 34 36  1  0
 35 37  1  0
 36 42  1  1
 20 21  2  0
 21 22  1  0
M  CHG  2   2  -1  26  -1
M  END
>  <COMPND>  (138) 
    8629 

>  <AUTHOR>  (138) 
    GENERATED BY OPEN BABEL 3.1.1

>  <MASTER>  (138) 
        0    0    0    0    0    0    0    0   58    0   58    0

>  <minimizedAffinity>  (138) 
-7.09446

>  <CNNscore>  (138) 
0.5603655577

>  <CNNaffinity>  (138) 
4.3097181320

>  <CNN_VS>  (138) 
2.4150176048

>  <CNNaffinity_variance>  (138) 
0.2471799105

$$$$
139
     RDKit          3D

 43 45  0  0  0  0  0  0  0  0999 V2000
   23.0538   73.4429   -4.0760 P   0  0  2  0  0  0  0  0  0  0  0  0
   24.6133   73.0284   -4.1922 O   0  0  0  0  0  0  0  0  0  0  0  0
   22.7250   74.8192   -4.5751 O   0  0  0  0  0  0  0  0  0  0  0  0
   22.6888   73.1515   -2.5269 O   0  0  0  0  0  0  0  0  0  0  0  0
   23.5621   72.3325   -1.7691 C   0  0  0  0  0  0  0  0  0  0  0  0
   23.3805   71.1400    0.3091 O   0  0  0  0  0  0  0  0  0  0  0  0
   20.5059   70.6902   -0.4158 O   0  0  0  0  0  0  0  0  0  0  0  0
   20.3535   72.7419    1.3742 O   0  0  0  0  0  0  0  0  0  0  0  0
   21.3296   71.8298   -0.6572 C   0  0  1  0  0  0  0  0  0  0  0  0
   21.5444   72.6047    0.6261 C   0  0  2  0  0  0  0  0  0  0  0  0
   22.7363   71.3345   -0.9690 C   0  0  1  0  0  0  0  0  0  0  0  0
   22.5861   71.7564    1.3357 C   0  0  2  0  0  0  0  0  0  0  0  0
   19.6022   70.9814   -0.2148 H   0  0  0  0  0  0  0  0  0  0  0  0
   19.7229   73.2894    0.8809 H   0  0  0  0  0  0  0  0  0  0  0  0
   21.9272   72.5663    3.9602 O   0  0  0  0  0  0  0  0  0  0  0  0
   25.9511   74.7492    4.4931 O   0  0  0  0  0  0  0  0  0  0  0  0
   23.4431   72.5368    2.1831 N   0  0  0  0  0  0  0  0  0  0  0  0
   23.9314   73.6524    4.2235 N   0  0  0  0  0  0  0  0  0  0  0  0
   23.0169   72.8913    3.4843 C   0  0  0  0  0  0  0  0  0  0  0  0
   24.6909   72.9420    1.7220 C   0  0  0  0  0  0  0  0  0  0  0  0
   25.5507   73.6686    2.4389 C   0  0  0  0  0  0  0  0  0  0  0  0
   25.1825   74.0808    3.8088 C   0  0  0  0  0  0  0  0  0  0  0  0
   23.6559   73.9114    5.1327 H   0  0  0  0  0  0  0  0  0  0  0  0
   22.3002   72.2458   -4.8582 O   0  0  0  0  0  0  0  0  0  0  0  0
   20.7907   71.6810   -4.7333 P   0  0  2  0  0  0  0  0  0  0  0  0
   19.9606   72.9584   -4.1885 O   0  0  0  0  0  0  0  0  0  0  0  0
   20.6625   70.4505   -3.8829 O   0  0  0  0  0  0  0  0  0  0  0  0
   20.2969   71.4944   -6.2586 O   0  0  0  0  0  0  0  0  0  0  0  0
   17.9800   70.9968   -6.2869 O   0  0  0  0  0  0  0  0  0  0  0  0
   18.8142   70.4836  -10.2984 O   0  0  0  0  0  0  0  0  0  0  0  0
   17.3215   72.7834   -9.4434 O   0  0  0  0  0  0  0  0  0  0  0  0
   20.7271   69.6218   -8.3040 O   0  0  0  0  0  0  0  0  0  0  0  0
   18.9457   71.0828   -9.0065 C   0  0  1  0  0  0  0  0  0  0  0  0
   17.5874   71.6618   -8.6058 C   0  0  1  0  0  0  0  0  0  0  0  0
   19.3929   70.0188   -8.0059 C   0  0  2  0  0  0  0  0  0  0  0  0
   17.5781   72.0828   -7.1301 C   0  0  1  0  0  0  0  0  0  0  0  0
   19.2994   70.5237   -6.5649 C   0  0  1  0  0  0  0  0  0  0  0  0
   18.5310   71.1540  -10.9385 H   0  0  0  0  0  0  0  0  0  0  0  0
   17.3307   72.5041  -10.3725 H   0  0  0  0  0  0  0  0  0  0  0  0
   20.7730   69.3040   -9.2187 H   0  0  0  0  0  0  0  0  0  0  0  0
   15.6435   71.4892   -5.8598 O   0  0  0  0  0  0  0  0  0  0  0  0
   16.1887   72.5160   -6.6677 C   0  0  0  0  0  0  0  0  0  0  0  0
   14.7592   71.7512   -5.5579 H   0  0  0  0  0  0  0  0  0  0  0  0
 25 28  1  0
 25 24  1  0
 25 26  1  1
 25 27  2  0
  1  4  1  0
  1 24  1  0
  1  2  1  1
  1  3  2  0
  6 11  1  0
  6 12  1  0
 29 36  1  0
 29 37  1  0
  9  7  1  1
  7 13  1  0
 10  8  1  1
  8 14  1  0
 37 28  1  6
  4  5  1  0
 33 30  1  6
 30 38  1  0
 34 31  1  6
 31 39  1  0
 35 32  1  6
 32 40  1  0
 41 42  1  0
 41 43  1  0
 15 19  2  0
 16 22  2  0
 12 17  1  1
 17 19  1  0
 17 20  1  0
 18 19  1  0
 18 22  1  0
 18 23  1  0
  9 10  1  0
  9 11  1  0
 10 12  1  0
 11  5  1  6
 33 34  1  0
 33 35  1  0
 34 36  1  0
 35 37  1  0
 36 42  1  1
 20 21  2  0
 21 22  1  0
M  CHG  2   2  -1  26  -1
M  END
>  <COMPND>  (139) 
    8629 

>  <AUTHOR>  (139) 
    GENERATED BY OPEN BABEL 3.1.1

>  <MASTER>  (139) 
        0    0    0    0    0    0    0    0   58    0   58    0

>  <minimizedAffinity>  (139) 
-6.87251

>  <CNNscore>  (139) 
0.5052741170

>  <CNNaffinity>  (139) 
4.0944509506

>  <CNN_VS>  (139) 
2.0688199997

>  <CNNaffinity_variance>  (139) 
0.0780917555

$$$$
140
     RDKit          3D

 43 45  0  0  0  0  0  0  0  0999 V2000
   23.1640   73.4968   -4.1702 P   0  0  2  0  0  0  0  0  0  0  0  0
   24.6225   72.8025   -4.0799 O   0  0  0  0  0  0  0  0  0  0  0  0
   23.0771   74.6701   -5.1015 O   0  0  0  0  0  0  0  0  0  0  0  0
   22.7794   73.7946   -2.6271 O   0  0  0  0  0  0  0  0  0  0  0  0
   21.7513   74.7310   -2.3551 C   0  0  0  0  0  0  0  0  0  0  0  0
   21.0148   72.7242   -1.2579 O   0  0  0  0  0  0  0  0  0  0  0  0
   18.5815   74.2805   -0.4530 O   0  0  0  0  0  0  0  0  0  0  0  0
   20.0905   74.3201    1.8181 O   0  0  0  0  0  0  0  0  0  0  0  0
   19.9335   74.7193   -0.5751 C   0  0  1  0  0  0  0  0  0  0  0  0
   20.7618   74.1981    0.5807 C   0  0  2  0  0  0  0  0  0  0  0  0
   20.5558   73.9970   -1.7635 C   0  0  1  0  0  0  0  0  0  0  0  0
   20.9882   72.7506    0.1786 C   0  0  2  0  0  0  0  0  0  0  0  0
   18.1630   74.7285    0.2994 H   0  0  0  0  0  0  0  0  0  0  0  0
   19.9703   75.2590    2.0297 H   0  0  0  0  0  0  0  0  0  0  0  0
   21.3581   70.1052    1.0968 O   0  0  0  0  0  0  0  0  0  0  0  0
   25.7972   70.8698    2.0722 O   0  0  0  0  0  0  0  0  0  0  0  0
   22.2303   72.2314    0.6776 N   0  0  0  0  0  0  0  0  0  0  0  0
   23.5682   70.4880    1.5816 N   0  0  0  0  0  0  0  0  0  0  0  0
   22.3096   70.8888    1.1151 C   0  0  0  0  0  0  0  0  0  0  0  0
   23.3530   73.0505    0.7291 C   0  0  0  0  0  0  0  0  0  0  0  0
   24.5456   72.6534    1.1779 C   0  0  0  0  0  0  0  0  0  0  0  0
   24.7135   71.2651    1.6537 C   0  0  0  0  0  0  0  0  0  0  0  0
   23.6471   69.5568    1.8920 H   0  0  0  0  0  0  0  0  0  0  0  0
   22.1960   72.2603   -4.5538 O   0  0  0  0  0  0  0  0  0  0  0  0
   20.7866   72.2211   -5.3444 P   0  0  2  0  0  0  0  0  0  0  0  0
   21.1644   71.4961   -6.7405 O   0  0  0  0  0  0  0  0  0  0  0  0
   20.1313   73.5628   -5.5008 O   0  0  0  0  0  0  0  0  0  0  0  0
   19.9009   71.1330   -4.5467 O   0  0  0  0  0  0  0  0  0  0  0  0
   17.6326   71.7233   -4.8977 O   0  0  0  0  0  0  0  0  0  0  0  0
   17.0913   68.4765   -2.4044 O   0  0  0  0  0  0  0  0  0  0  0  0
   16.4530   68.2434   -5.1948 O   0  0  0  0  0  0  0  0  0  0  0  0
   19.2849   70.3065   -1.9366 O   0  0  0  0  0  0  0  0  0  0  0  0
   17.7303   69.2368   -3.4334 C   0  0  1  0  0  0  0  0  0  0  0  0
   16.7122   69.4863   -4.5479 C   0  0  1  0  0  0  0  0  0  0  0  0
   18.2195   70.5594   -2.8462 C   0  0  2  0  0  0  0  0  0  0  0  0
   17.2376   70.5151   -5.5581 C   0  0  1  0  0  0  0  0  0  0  0  0
   18.6740   71.5288   -3.9388 C   0  0  1  0  0  0  0  0  0  0  0  0
   16.7788   67.6352   -2.7706 H   0  0  0  0  0  0  0  0  0  0  0  0
   16.1222   67.6026   -4.5458 H   0  0  0  0  0  0  0  0  0  0  0  0
   18.9844   69.6918   -1.2497 H   0  0  0  0  0  0  0  0  0  0  0  0
   16.3907   70.1261   -7.7582 O   0  0  0  0  0  0  0  0  0  0  0  0
   16.1780   70.8965   -6.5896 C   0  0  0  0  0  0  0  0  0  0  0  0
   15.7234   70.3580   -8.4235 H   0  0  0  0  0  0  0  0  0  0  0  0
 25 28  1  0
 25 24  1  0
 25 26  1  6
 25 27  2  0
  1  4  1  0
  1 24  1  0
  1  2  1  1
  1  3  2  0
  6 11  1  0
  6 12  1  0
 29 36  1  0
 29 37  1  0
  9  7  1  1
  7 13  1  0
 10  8  1  1
  8 14  1  0
 37 28  1  6
  4  5  1  0
 33 30  1  1
 30 38  1  0
 34 31  1  6
 31 39  1  0
 35 32  1  1
 32 40  1  0
 41 42  1  0
 41 43  1  0
 15 19  2  0
 16 22  2  0
 12 17  1  1
 17 19  1  0
 17 20  1  0
 18 19  1  0
 18 22  1  0
 18 23  1  0
  9 10  1  0
  9 11  1  0
 10 12  1  0
 11  5  1  1
 33 34  1  0
 33 35  1  0
 34 36  1  0
 35 37  1  0
 36 42  1  6
 20 21  2  0
 21 22  1  0
M  CHG  2   2  -1  26  -1
M  END
>  <COMPND>  (140) 
    8629 

>  <AUTHOR>  (140) 
    GENERATED BY OPEN BABEL 3.1.1

>  <MASTER>  (140) 
        0    0    0    0    0    0    0    0   58    0   58    0

>  <minimizedAffinity>  (140) 
-6.87861

>  <CNNscore>  (140) 
0.5010511875

>  <CNNaffinity>  (140) 
4.1422910690

>  <CNN_VS>  (140) 
2.0754997730

>  <CNNaffinity_variance>  (140) 
0.1959411353

$$$$
141
     RDKit          3D

 43 45  0  0  0  0  0  0  0  0999 V2000
   22.5492   71.5115   -2.7679 P   0  0  2  0  0  0  0  0  0  0  0  0
   22.4613   73.1185   -2.6026 O   0  0  0  0  0  0  0  0  0  0  0  0
   23.9307   70.9725   -2.9968 O   0  0  0  0  0  0  0  0  0  0  0  0
   21.4653   71.1799   -3.9225 O   0  0  0  0  0  0  0  0  0  0  0  0
   20.5049   70.1674   -3.6776 C   0  0  0  0  0  0  0  0  0  0  0  0
   18.8147   71.5331   -4.7033 O   0  0  0  0  0  0  0  0  0  0  0  0
   16.9474   70.4617   -2.6161 O   0  0  0  0  0  0  0  0  0  0  0  0
   16.3053   68.9729   -4.8088 O   0  0  0  0  0  0  0  0  0  0  0  0
   18.0162   69.8033   -3.2941 C   0  0  1  0  0  0  0  0  0  0  0  0
   17.6184   69.4873   -4.7208 C   0  0  2  0  0  0  0  0  0  0  0  0
   19.1388   70.8139   -3.4932 C   0  0  1  0  0  0  0  0  0  0  0  0
   17.7626   70.8410   -5.3952 C   0  0  2  0  0  0  0  0  0  0  0  0
   16.2186   69.8359   -2.4773 H   0  0  0  0  0  0  0  0  0  0  0  0
   16.2649   68.1112   -4.3654 H   0  0  0  0  0  0  0  0  0  0  0  0
   15.9138   70.3493   -7.4733 O   0  0  0  0  0  0  0  0  0  0  0  0
   19.2220   70.4217  -10.6814 O   0  0  0  0  0  0  0  0  0  0  0  0
   18.1133   70.7269   -6.7828 N   0  0  0  0  0  0  0  0  0  0  0  0
   17.5626   70.3859   -9.0690 N   0  0  0  0  0  0  0  0  0  0  0  0
   17.1089   70.4780   -7.7470 C   0  0  0  0  0  0  0  0  0  0  0  0
   19.4405   70.8620   -7.1755 C   0  0  0  0  0  0  0  0  0  0  0  0
   19.8569   70.7702   -8.4402 C   0  0  0  0  0  0  0  0  0  0  0  0
   18.8707   70.5115   -9.5091 C   0  0  0  0  0  0  0  0  0  0  0  0
   16.8806   70.2125   -9.7579 H   0  0  0  0  0  0  0  0  0  0  0  0
   21.8289   70.9682   -1.4266 O   0  0  0  0  0  0  0  0  0  0  0  0
   22.1398   71.2510    0.1343 P   0  0  2  0  0  0  0  0  0  0  0  0
   23.7351   71.5196    0.1521 O   0  0  0  0  0  0  0  0  0  0  0  0
   21.6852   70.1599    1.0598 O   0  0  0  0  0  0  0  0  0  0  0  0
   21.4801   72.6946    0.4272 O   0  0  0  0  0  0  0  0  0  0  0  0
   22.2743   74.7634    1.2675 O   0  0  0  0  0  0  0  0  0  0  0  0
   18.7530   74.4904    3.4068 O   0  0  0  0  0  0  0  0  0  0  0  0
   18.9651   76.3875    1.2611 O   0  0  0  0  0  0  0  0  0  0  0  0
   20.3369   72.1161    2.9239 O   0  0  0  0  0  0  0  0  0  0  0  0
   19.6044   74.3158    2.2711 C   0  0  1  0  0  0  0  0  0  0  0  0
   20.0817   75.6953    1.8128 C   0  0  1  0  0  0  0  0  0  0  0  0
   20.7918   73.4403    2.6673 C   0  0  2  0  0  0  0  0  0  0  0  0
   21.2036   75.5759    0.7725 C   0  0  1  0  0  0  0  0  0  0  0  0
   21.8718   73.4293    1.5840 C   0  0  1  0  0  0  0  0  0  0  0  0
   17.9968   75.0450    3.1619 H   0  0  0  0  0  0  0  0  0  0  0  0
   18.2637   76.4556    1.9279 H   0  0  0  0  0  0  0  0  0  0  0  0
   19.6538   72.1365    3.6115 H   0  0  0  0  0  0  0  0  0  0  0  0
   21.6029   77.8127    1.5118 O   0  0  0  0  0  0  0  0  0  0  0  0
   21.8023   76.9355    0.4185 C   0  0  0  0  0  0  0  0  0  0  0  0
   21.9792   78.6819    1.3008 H   0  0  0  0  0  0  0  0  0  0  0  0
 25 28  1  0
 25 24  1  0
 25 26  1  6
 25 27  2  0
  1  4  1  0
  1 24  1  0
  1  2  1  1
  1  3  2  0
  6 11  1  0
  6 12  1  0
 29 36  1  0
 29 37  1  0
  9  7  1  1
  7 13  1  0
 10  8  1  1
  8 14  1  0
 37 28  1  6
  4  5  1  0
 33 30  1  1
 30 38  1  0
 34 31  1  6
 31 39  1  0
 35 32  1  6
 32 40  1  0
 41 42  1  0
 41 43  1  0
 15 19  2  0
 16 22  2  0
 12 17  1  6
 17 19  1  0
 17 20  1  0
 18 19  1  0
 18 22  1  0
 18 23  1  0
  9 10  1  0
  9 11  1  0
 10 12  1  0
 11  5  1  6
 33 34  1  0
 33 35  1  0
 34 36  1  0
 35 37  1  0
 36 42  1  1
 20 21  2  0
 21 22  1  0
M  CHG  2   2  -1  26  -1
M  END
>  <COMPND>  (141) 
    8629 

>  <AUTHOR>  (141) 
    GENERATED BY OPEN BABEL 3.1.1

>  <MASTER>  (141) 
        0    0    0    0    0    0    0    0   58    0   58    0

>  <minimizedAffinity>  (141) 
-7.17027

>  <CNNscore>  (141) 
0.9258794188

>  <CNNaffinity>  (141) 
4.7940850258

>  <CNN_VS>  (141) 
4.4387445450

>  <CNNaffinity_variance>  (141) 
0.0686414391

$$$$
142
     RDKit          3D

 43 45  0  0  0  0  0  0  0  0999 V2000
   22.9209   71.5425   -2.3580 P   0  0  2  0  0  0  0  0  0  0  0  0
   22.7542   73.1500   -2.2839 O   0  0  0  0  0  0  0  0  0  0  0  0
   24.1654   71.0655   -3.0474 O   0  0  0  0  0  0  0  0  0  0  0  0
   21.5244   71.0363   -2.9994 O   0  0  0  0  0  0  0  0  0  0  0  0
   20.8478   71.8901   -3.9055 C   0  0  0  0  0  0  0  0  0  0  0  0
   18.6397   72.1422   -4.8190 O   0  0  0  0  0  0  0  0  0  0  0  0
   17.6690   70.6856   -2.3845 O   0  0  0  0  0  0  0  0  0  0  0  0
   17.6463   68.7366   -4.2917 O   0  0  0  0  0  0  0  0  0  0  0  0
   18.8674   70.4916   -3.1340 C   0  0  1  0  0  0  0  0  0  0  0  0
   18.5604   69.8029   -4.4474 C   0  0  2  0  0  0  0  0  0  0  0  0
   19.3569   71.8577   -3.5980 C   0  0  1  0  0  0  0  0  0  0  0  0
   17.9931   70.9430   -5.2759 C   0  0  2  0  0  0  0  0  0  0  0  0
   17.3375   69.8267   -2.0771 H   0  0  0  0  0  0  0  0  0  0  0  0
   18.0536   68.0367   -3.7578 H   0  0  0  0  0  0  0  0  0  0  0  0
   16.0853   70.0400   -7.1528 O   0  0  0  0  0  0  0  0  0  0  0  0
   19.0894   70.3572  -10.6336 O   0  0  0  0  0  0  0  0  0  0  0  0
   18.2496   70.7806   -6.6792 N   0  0  0  0  0  0  0  0  0  0  0  0
   17.5826   70.1988   -8.8845 N   0  0  0  0  0  0  0  0  0  0  0  0
   17.2230   70.3199   -7.5361 C   0  0  0  0  0  0  0  0  0  0  0  0
   19.5075   71.0773   -7.1927 C   0  0  0  0  0  0  0  0  0  0  0  0
   19.8347   70.9553   -8.4808 C   0  0  0  0  0  0  0  0  0  0  0  0
   18.8195   70.4800   -9.4428 C   0  0  0  0  0  0  0  0  0  0  0  0
   16.8836   69.8792   -9.5001 H   0  0  0  0  0  0  0  0  0  0  0  0
   22.7944   71.0922   -0.8107 O   0  0  0  0  0  0  0  0  0  0  0  0
   21.6883   71.4508    0.3122 P   0  0  2  0  0  0  0  0  0  0  0  0
   21.4665   70.0428    1.0776 O   0  0  0  0  0  0  0  0  0  0  0  0
   20.4314   72.0626   -0.2355 O   0  0  0  0  0  0  0  0  0  0  0  0
   22.4727   72.3749    1.3779 O   0  0  0  0  0  0  0  0  0  0  0  0
   24.2429   71.5896    2.7440 O   0  0  0  0  0  0  0  0  0  0  0  0
   22.8623   74.6501    5.1478 O   0  0  0  0  0  0  0  0  0  0  0  0
   25.3594   74.9521    3.7617 O   0  0  0  0  0  0  0  0  0  0  0  0
   20.9850   73.0163    3.6693 O   0  0  0  0  0  0  0  0  0  0  0  0
   23.1691   74.0027    3.9099 C   0  0  1  0  0  0  0  0  0  0  0  0
   24.6706   73.7105    3.8808 C   0  0  1  0  0  0  0  0  0  0  0  0
   22.3670   72.7064    3.8123 C   0  0  2  0  0  0  0  0  0  0  0  0
   25.0322   72.7845    2.7117 C   0  0  1  0  0  0  0  0  0  0  0  0
   22.8389   71.8367    2.6457 C   0  0  1  0  0  0  0  0  0  0  0  0
   23.3680   75.4742    5.2158 H   0  0  0  0  0  0  0  0  0  0  0  0
   25.1220   75.5277    4.5057 H   0  0  0  0  0  0  0  0  0  0  0  0
   20.6984   73.5668    4.4140 H   0  0  0  0  0  0  0  0  0  0  0  0
   26.5919   71.0347    2.2488 O   0  0  0  0  0  0  0  0  0  0  0  0
   26.4965   72.3532    2.7554 C   0  0  0  0  0  0  0  0  0  0  0  0
   27.5184   70.7470    2.2703 H   0  0  0  0  0  0  0  0  0  0  0  0
 25 28  1  0
 25 24  1  0
 25 26  1  1
 25 27  2  0
  1  4  1  0
  1 24  1  0
  1  2  1  1
  1  3  2  0
  6 11  1  0
  6 12  1  0
 29 36  1  0
 29 37  1  0
  9  7  1  1
  7 13  1  0
 10  8  1  1
  8 14  1  0
 37 28  1  6
  4  5  1  0
 33 30  1  1
 30 38  1  0
 34 31  1  6
 31 39  1  0
 35 32  1  6
 32 40  1  0
 41 42  1  0
 41 43  1  0
 15 19  2  0
 16 22  2  0
 12 17  1  6
 17 19  1  0
 17 20  1  0
 18 19  1  0
 18 22  1  0
 18 23  1  0
  9 10  1  0
  9 11  1  0
 10 12  1  0
 11  5  1  6
 33 34  1  0
 33 35  1  0
 34 36  1  0
 35 37  1  0
 36 42  1  1
 20 21  2  0
 21 22  1  0
M  CHG  2   2  -1  26  -1
M  END
>  <COMPND>  (142) 
    8629 

>  <AUTHOR>  (142) 
    GENERATED BY OPEN BABEL 3.1.1

>  <MASTER>  (142) 
        0    0    0    0    0    0    0    0   58    0   58    0

>  <minimizedAffinity>  (142) 
-7.76232

>  <CNNscore>  (142) 
0.9221508503

>  <CNNaffinity>  (142) 
4.6492066383

>  <CNN_VS>  (142) 
4.2872700691

>  <CNNaffinity_variance>  (142) 
0.0710821450

$$$$
143
     RDKit          3D

 43 45  0  0  0  0  0  0  0  0999 V2000
   21.7538   72.2178   -3.0964 P   0  0  2  0  0  0  0  0  0  0  0  0
   22.9584   71.1487   -2.9434 O   0  0  0  0  0  0  0  0  0  0  0  0
   21.2233   72.7641   -1.8035 O   0  0  0  0  0  0  0  0  0  0  0  0
   20.6757   71.4570   -4.0327 O   0  0  0  0  0  0  0  0  0  0  0  0
   19.8976   70.4194   -3.4620 C   0  0  0  0  0  0  0  0  0  0  0  0
   18.1539   71.5611   -4.6578 O   0  0  0  0  0  0  0  0  0  0  0  0
   16.2370   70.1553   -2.8301 O   0  0  0  0  0  0  0  0  0  0  0  0
   16.0819   68.6690   -5.1112 O   0  0  0  0  0  0  0  0  0  0  0  0
   17.4631   69.6841   -3.3868 C   0  0  1  0  0  0  0  0  0  0  0  0
   17.2850   69.3652   -4.8566 C   0  0  2  0  0  0  0  0  0  0  0  0
   18.4385   70.8536   -3.4311 C   0  0  1  0  0  0  0  0  0  0  0  0
   17.3037   70.7488   -5.4837 C   0  0  2  0  0  0  0  0  0  0  0  0
   15.5981   69.4258   -2.7914 H   0  0  0  0  0  0  0  0  0  0  0  0
   16.1189   67.7952   -4.6918 H   0  0  0  0  0  0  0  0  0  0  0  0
   15.7778   70.1653   -7.7879 O   0  0  0  0  0  0  0  0  0  0  0  0
   19.4139   70.7315  -10.5627 O   0  0  0  0  0  0  0  0  0  0  0  0
   17.8261   70.7369   -6.8210 N   0  0  0  0  0  0  0  0  0  0  0  0
   17.5895   70.4479   -9.1677 N   0  0  0  0  0  0  0  0  0  0  0  0
   16.9757   70.4303   -7.9088 C   0  0  0  0  0  0  0  0  0  0  0  0
   19.1677   71.0276   -7.0435 C   0  0  0  0  0  0  0  0  0  0  0  0
   19.7380   71.0389   -8.2501 C   0  0  0  0  0  0  0  0  0  0  0  0
   18.9189   70.7293   -9.4398 C   0  0  0  0  0  0  0  0  0  0  0  0
   17.0166   70.2369   -9.9404 H   0  0  0  0  0  0  0  0  0  0  0  0
   22.3783   73.3291   -4.0904 O   0  0  0  0  0  0  0  0  0  0  0  0
   22.3765   73.4311   -5.7037 P   0  0  2  0  0  0  0  0  0  0  0  0
   20.9311   74.0791   -6.0330 O   0  0  0  0  0  0  0  0  0  0  0  0
   22.6457   72.1300   -6.4028 O   0  0  0  0  0  0  0  0  0  0  0  0
   23.4346   74.6025   -6.0401 O   0  0  0  0  0  0  0  0  0  0  0  0
   23.3118   76.9105   -5.5160 O   0  0  0  0  0  0  0  0  0  0  0  0
   25.2483   77.1621   -9.1544 O   0  0  0  0  0  0  0  0  0  0  0  0
   26.7044   77.6823   -6.7342 O   0  0  0  0  0  0  0  0  0  0  0  0
   23.1523   75.2035   -8.7666 O   0  0  0  0  0  0  0  0  0  0  0  0
   24.9230   76.5804   -7.8890 C   0  0  1  0  0  0  0  0  0  0  0  0
   25.2840   77.5846   -6.7926 C   0  0  1  0  0  0  0  0  0  0  0  0
   23.4295   76.2615   -7.8554 C   0  0  2  0  0  0  0  0  0  0  0  0
   24.7222   77.1465   -5.4333 C   0  0  1  0  0  0  0  0  0  0  0  0
   22.9640   75.8845   -6.4478 C   0  0  1  0  0  0  0  0  0  0  0  0
   26.1954   77.3666   -9.1825 H   0  0  0  0  0  0  0  0  0  0  0  0
   27.0464   77.9592   -7.5988 H   0  0  0  0  0  0  0  0  0  0  0  0
   23.4514   75.4546   -9.6540 H   0  0  0  0  0  0  0  0  0  0  0  0
   26.2880   78.1670   -3.9447 O   0  0  0  0  0  0  0  0  0  0  0  0
   24.9344   78.2092   -4.3574 C   0  0  0  0  0  0  0  0  0  0  0  0
   26.4378   78.8383   -3.2602 H   0  0  0  0  0  0  0  0  0  0  0  0
 25 28  1  0
 25 24  1  0
 25 26  1  6
 25 27  2  0
  1  4  1  0
  1 24  1  0
  1  2  1  1
  1  3  2  0
  6 11  1  0
  6 12  1  0
 29 36  1  0
 29 37  1  0
  9  7  1  6
  7 13  1  0
 10  8  1  1
  8 14  1  0
 37 28  1  1
  4  5  1  0
 33 30  1  6
 30 38  1  0
 34 31  1  1
 31 39  1  0
 35 32  1  6
 32 40  1  0
 41 42  1  0
 41 43  1  0
 15 19  2  0
 16 22  2  0
 12 17  1  6
 17 19  1  0
 17 20  1  0
 18 19  1  0
 18 22  1  0
 18 23  1  0
  9 10  1  0
  9 11  1  0
 10 12  1  0
 11  5  1  6
 33 34  1  0
 33 35  1  0
 34 36  1  0
 35 37  1  0
 36 42  1  1
 20 21  2  0
 21 22  1  0
M  CHG  2   2  -1  26  -1
M  END
>  <COMPND>  (143) 
    8629 

>  <AUTHOR>  (143) 
    GENERATED BY OPEN BABEL 3.1.1

>  <MASTER>  (143) 
        0    0    0    0    0    0    0    0   58    0   58    0

>  <minimizedAffinity>  (143) 
-6.45437

>  <CNNscore>  (143) 
0.9206922650

>  <CNNaffinity>  (143) 
4.8939909935

>  <CNN_VS>  (143) 
4.5058598518

>  <CNNaffinity_variance>  (143) 
0.1594377309

$$$$
144
     RDKit          3D

 43 45  0  0  0  0  0  0  0  0999 V2000
   22.4866   72.3189   -3.5184 P   0  0  2  0  0  0  0  0  0  0  0  0
   23.8782   72.2826   -4.3428 O   0  0  0  0  0  0  0  0  0  0  0  0
   22.6066   71.9967   -2.0578 O   0  0  0  0  0  0  0  0  0  0  0  0
   21.5045   71.3570   -4.3716 O   0  0  0  0  0  0  0  0  0  0  0  0
   20.8013   70.3329   -3.6900 C   0  0  0  0  0  0  0  0  0  0  0  0
   18.9012   71.4668   -4.6267 O   0  0  0  0  0  0  0  0  0  0  0  0
   17.2898   70.1597   -2.4621 O   0  0  0  0  0  0  0  0  0  0  0  0
   16.7448   68.6011   -4.6324 O   0  0  0  0  0  0  0  0  0  0  0  0
   18.4022   69.6468   -3.1934 C   0  0  1  0  0  0  0  0  0  0  0  0
   17.9824   69.2824   -4.6021 C   0  0  2  0  0  0  0  0  0  0  0  0
   19.3728   70.7955   -3.4379 C   0  0  1  0  0  0  0  0  0  0  0  0
   17.9169   70.6437   -5.2735 C   0  0  2  0  0  0  0  0  0  0  0  0
   16.6562   69.4441   -2.2936 H   0  0  0  0  0  0  0  0  0  0  0  0
   16.8381   67.7412   -4.1933 H   0  0  0  0  0  0  0  0  0  0  0  0
   16.0130   70.0810   -7.2826 O   0  0  0  0  0  0  0  0  0  0  0  0
   19.1702   70.4128  -10.6238 O   0  0  0  0  0  0  0  0  0  0  0  0
   18.2139   70.5771   -6.6767 N   0  0  0  0  0  0  0  0  0  0  0  0
   17.5866   70.2469   -8.9446 N   0  0  0  0  0  0  0  0  0  0  0  0
   17.1855   70.2865   -7.6032 C   0  0  0  0  0  0  0  0  0  0  0  0
   19.5126   70.7992   -7.1214 C   0  0  0  0  0  0  0  0  0  0  0  0
   19.8790   70.7565   -8.4041 C   0  0  0  0  0  0  0  0  0  0  0  0
   18.8649   70.4592   -9.4362 C   0  0  0  0  0  0  0  0  0  0  0  0
   16.8871   70.0458   -9.6080 H   0  0  0  0  0  0  0  0  0  0  0  0
   21.9141   73.7967   -3.8364 O   0  0  0  0  0  0  0  0  0  0  0  0
   20.7904   74.6840   -3.0861 P   0  0  2  0  0  0  0  0  0  0  0  0
   21.6465   75.8912   -2.4322 O   0  0  0  0  0  0  0  0  0  0  0  0
   19.9539   73.9156   -2.1044 O   0  0  0  0  0  0  0  0  0  0  0  0
   19.9536   75.3775   -4.2793 O   0  0  0  0  0  0  0  0  0  0  0  0
   18.3928   74.4798   -5.8203 O   0  0  0  0  0  0  0  0  0  0  0  0
   20.3409   77.1265   -8.3205 O   0  0  0  0  0  0  0  0  0  0  0  0
   17.6699   77.7107   -7.4414 O   0  0  0  0  0  0  0  0  0  0  0  0
   21.8406   75.6411   -6.3396 O   0  0  0  0  0  0  0  0  0  0  0  0
   19.7920   76.6674   -7.0822 C   0  0  1  0  0  0  0  0  0  0  0  0
   18.2919   76.4392   -7.2778 C   0  0  1  0  0  0  0  0  0  0  0  0
   20.4858   75.3672   -6.6802 C   0  0  2  0  0  0  0  0  0  0  0  0
   17.6837   75.6970   -6.0802 C   0  0  1  0  0  0  0  0  0  0  0  0
   19.7729   74.6845   -5.5115 C   0  0  1  0  0  0  0  0  0  0  0  0
   19.9050   77.9521   -8.5811 H   0  0  0  0  0  0  0  0  0  0  0  0
   18.0634   78.1691   -8.2005 H   0  0  0  0  0  0  0  0  0  0  0  0
   22.2810   76.0728   -7.0876 H   0  0  0  0  0  0  0  0  0  0  0  0
   15.9594   75.4151   -7.7101 O   0  0  0  0  0  0  0  0  0  0  0  0
   16.2239   75.3197   -6.3225 C   0  0  0  0  0  0  0  0  0  0  0  0
   15.0339   75.1775   -7.8793 H   0  0  0  0  0  0  0  0  0  0  0  0
 25 28  1  0
 25 24  1  0
 25 26  1  1
 25 27  2  0
  1  4  1  0
  1 24  1  0
  1  2  1  6
  1  3  2  0
  6 11  1  0
  6 12  1  0
 29 36  1  0
 29 37  1  0
  9  7  1  1
  7 13  1  0
 10  8  1  1
  8 14  1  0
 37 28  1  1
  4  5  1  0
 33 30  1  6
 30 38  1  0
 34 31  1  1
 31 39  1  0
 35 32  1  1
 32 40  1  0
 41 42  1  0
 41 43  1  0
 15 19  2  0
 16 22  2  0
 12 17  1  6
 17 19  1  0
 17 20  1  0
 18 19  1  0
 18 22  1  0
 18 23  1  0
  9 10  1  0
  9 11  1  0
 10 12  1  0
 11  5  1  6
 33 34  1  0
 33 35  1  0
 34 36  1  0
 35 37  1  0
 36 42  1  6
 20 21  2  0
 21 22  1  0
M  CHG  2   2  -1  26  -1
M  END
>  <COMPND>  (144) 
    8629 

>  <AUTHOR>  (144) 
    GENERATED BY OPEN BABEL 3.1.1

>  <MASTER>  (144) 
        0    0    0    0    0    0    0    0   58    0   58    0

>  <minimizedAffinity>  (144) 
-5.81176

>  <CNNscore>  (144) 
0.9067467451

>  <CNNaffinity>  (144) 
4.6189923286

>  <CNN_VS>  (144) 
4.1882562637

>  <CNNaffinity_variance>  (144) 
0.1841159761

$$$$
145
     RDKit          3D

 43 45  0  0  0  0  0  0  0  0999 V2000
   22.4330   72.0120   -3.2564 P   0  0  2  0  0  0  0  0  0  0  0  0
   22.0863   73.5601   -2.9389 O   0  0  0  0  0  0  0  0  0  0  0  0
   23.8125   71.7690   -3.7943 O   0  0  0  0  0  0  0  0  0  0  0  0
   21.2141   71.5273   -4.2035 O   0  0  0  0  0  0  0  0  0  0  0  0
   20.3351   70.5285   -3.7161 C   0  0  0  0  0  0  0  0  0  0  0  0
   18.6196   71.7574   -4.8652 O   0  0  0  0  0  0  0  0  0  0  0  0
   16.7287   70.6838   -2.8006 O   0  0  0  0  0  0  0  0  0  0  0  0
   16.2483   69.0679   -4.9440 O   0  0  0  0  0  0  0  0  0  0  0  0
   17.8549   70.0526   -3.4076 C   0  0  1  0  0  0  0  0  0  0  0  0
   17.5295   69.6533   -4.8318 C   0  0  2  0  0  0  0  0  0  0  0  0
   18.9321   71.1105   -3.6121 C   0  0  1  0  0  0  0  0  0  0  0  0
   17.6314   70.9814   -5.5625 C   0  0  2  0  0  0  0  0  0  0  0  0
   16.0275   70.0278   -2.6597 H   0  0  0  0  0  0  0  0  0  0  0  0
   16.2342   68.2258   -4.4630 H   0  0  0  0  0  0  0  0  0  0  0  0
   15.9323   70.1237   -7.6494 O   0  0  0  0  0  0  0  0  0  0  0  0
   19.3132   70.4139  -10.7681 O   0  0  0  0  0  0  0  0  0  0  0  0
   18.0413   70.8244   -6.9295 N   0  0  0  0  0  0  0  0  0  0  0  0
   17.6171   70.2691   -9.2006 N   0  0  0  0  0  0  0  0  0  0  0  0
   17.1102   70.3869   -7.9001 C   0  0  0  0  0  0  0  0  0  0  0  0
   19.3535   71.1033   -7.2959 C   0  0  0  0  0  0  0  0  0  0  0  0
   19.8214   70.9846   -8.5402 C   0  0  0  0  0  0  0  0  0  0  0  0
   18.9132   70.5331   -9.6142 C   0  0  0  0  0  0  0  0  0  0  0  0
   16.9866   69.9655   -9.8935 H   0  0  0  0  0  0  0  0  0  0  0  0
   22.1185   71.2739   -1.8531 O   0  0  0  0  0  0  0  0  0  0  0  0
   22.3138   71.7682   -0.3265 P   0  0  2  0  0  0  0  0  0  0  0  0
   23.8303   72.3319   -0.3102 O   0  0  0  0  0  0  0  0  0  0  0  0
   22.0348   70.7117    0.7029 O   0  0  0  0  0  0  0  0  0  0  0  0
   21.3883   73.0846   -0.2017 O   0  0  0  0  0  0  0  0  0  0  0  0
   19.8591   72.9776    1.6056 O   0  0  0  0  0  0  0  0  0  0  0  0
   18.3325   76.2750   -0.3560 O   0  0  0  0  0  0  0  0  0  0  0  0
   19.7401   76.6255    2.1227 O   0  0  0  0  0  0  0  0  0  0  0  0
   19.3459   74.0306   -1.8777 O   0  0  0  0  0  0  0  0  0  0  0  0
   19.3600   75.3947    0.1074 C   0  0  1  0  0  0  0  0  0  0  0  0
   19.3070   75.3583    1.6360 C   0  0  1  0  0  0  0  0  0  0  0  0
   19.1225   74.0014   -0.4721 C   0  0  2  0  0  0  0  0  0  0  0  0
   20.1959   74.2391    2.1947 C   0  0  1  0  0  0  0  0  0  0  0  0
   20.0231   72.9548    0.1863 C   0  0  1  0  0  0  0  0  0  0  0  0
   18.4778   77.1615    0.0080 H   0  0  0  0  0  0  0  0  0  0  0  0
   19.1709   77.3235    1.7621 H   0  0  0  0  0  0  0  0  0  0  0  0
   18.7698   74.6968   -2.2828 H   0  0  0  0  0  0  0  0  0  0  0  0
   18.7351   74.5064    4.0665 O   0  0  0  0  0  0  0  0  0  0  0  0
   20.0368   74.0826    3.7055 C   0  0  0  0  0  0  0  0  0  0  0  0
   18.6193   74.4122    5.0253 H   0  0  0  0  0  0  0  0  0  0  0  0
 25 28  1  0
 25 24  1  0
 25 26  1  6
 25 27  2  0
  1  4  1  0
  1 24  1  0
  1  2  1  1
  1  3  2  0
  6 11  1  0
  6 12  1  0
 29 36  1  0
 29 37  1  0
  9  7  1  6
  7 13  1  0
 10  8  1  1
  8 14  1  0
 37 28  1  1
  4  5  1  0
 33 30  1  6
 30 38  1  0
 34 31  1  1
 31 39  1  0
 35 32  1  6
 32 40  1  0
 41 42  1  0
 41 43  1  0
 15 19  2  0
 16 22  2  0
 12 17  1  6
 17 19  1  0
 17 20  1  0
 18 19  1  0
 18 22  1  0
 18 23  1  0
  9 10  1  0
  9 11  1  0
 10 12  1  0
 11  5  1  6
 33 34  1  0
 33 35  1  0
 34 36  1  0
 35 37  1  0
 36 42  1  1
 20 21  2  0
 21 22  1  0
M  CHG  2   2  -1  26  -1
M  END
>  <COMPND>  (145) 
    8629 

>  <AUTHOR>  (145) 
    GENERATED BY OPEN BABEL 3.1.1

>  <MASTER>  (145) 
        0    0    0    0    0    0    0    0   58    0   58    0

>  <minimizedAffinity>  (145) 
-6.32151

>  <CNNscore>  (145) 
0.9036850929

>  <CNNaffinity>  (145) 
4.7218513489

>  <CNN_VS>  (145) 
4.2670664787

>  <CNNaffinity_variance>  (145) 
0.0893667191

$$$$
146
     RDKit          3D

 43 45  0  0  0  0  0  0  0  0999 V2000
   20.6875   71.2408   -1.0175 P   0  0  2  0  0  0  0  0  0  0  0  0
   20.7821   70.4746    0.4043 O   0  0  0  0  0  0  0  0  0  0  0  0
   20.2719   72.6802   -0.9353 O   0  0  0  0  0  0  0  0  0  0  0  0
   19.7362   70.2847   -1.9114 O   0  0  0  0  0  0  0  0  0  0  0  0
   19.4183   70.6909   -3.2311 C   0  0  0  0  0  0  0  0  0  0  0  0
   17.6416   71.5562   -4.5981 O   0  0  0  0  0  0  0  0  0  0  0  0
   15.7883   69.9324   -2.8895 O   0  0  0  0  0  0  0  0  0  0  0  0
   16.0310   68.3961   -5.1294 O   0  0  0  0  0  0  0  0  0  0  0  0
   17.1099   69.6257   -3.3307 C   0  0  1  0  0  0  0  0  0  0  0  0
   17.1015   69.2575   -4.7997 C   0  0  2  0  0  0  0  0  0  0  0  0
   17.9162   70.9185   -3.3314 C   0  0  1  0  0  0  0  0  0  0  0  0
   16.9833   70.6182   -5.4650 C   0  0  2  0  0  0  0  0  0  0  0  0
   15.2544   69.1220   -2.8803 H   0  0  0  0  0  0  0  0  0  0  0  0
   16.1518   67.5440   -4.6821 H   0  0  0  0  0  0  0  0  0  0  0  0
   15.6136   70.3308   -7.9184 O   0  0  0  0  0  0  0  0  0  0  0  0
   19.5031   70.7700  -10.3514 O   0  0  0  0  0  0  0  0  0  0  0  0
   17.6132   70.6538   -6.7547 N   0  0  0  0  0  0  0  0  0  0  0  0
   17.5513   70.5499   -9.1278 N   0  0  0  0  0  0  0  0  0  0  0  0
   16.8348   70.4984   -7.9253 C   0  0  0  0  0  0  0  0  0  0  0  0
   18.9879   70.8414   -6.8496 C   0  0  0  0  0  0  0  0  0  0  0  0
   19.6562   70.8868   -8.0039 C   0  0  0  0  0  0  0  0  0  0  0  0
   18.9173   70.7330   -9.2737 C   0  0  0  0  0  0  0  0  0  0  0  0
   17.0299   70.4437   -9.9565 H   0  0  0  0  0  0  0  0  0  0  0  0
   22.1514   70.9988   -1.6589 O   0  0  0  0  0  0  0  0  0  0  0  0
   23.1988   72.0294   -2.3325 P   0  0  2  0  0  0  0  0  0  0  0  0
   24.2580   71.0533   -3.0693 O   0  0  0  0  0  0  0  0  0  0  0  0
   23.8173   72.9976   -1.3661 O   0  0  0  0  0  0  0  0  0  0  0  0
   22.3752   72.7201   -3.5365 O   0  0  0  0  0  0  0  0  0  0  0  0
   23.1590   74.0981   -5.2982 O   0  0  0  0  0  0  0  0  0  0  0  0
   19.4852   75.8713   -4.6581 O   0  0  0  0  0  0  0  0  0  0  0  0
   19.9018   74.2833   -7.0145 O   0  0  0  0  0  0  0  0  0  0  0  0
   21.0385   74.9155   -2.4101 O   0  0  0  0  0  0  0  0  0  0  0  0
   20.4124   74.7849   -4.7323 C   0  0  1  0  0  0  0  0  0  0  0  0
   20.9570   74.7160   -6.1603 C   0  0  1  0  0  0  0  0  0  0  0  0
   21.5448   75.0263   -3.7360 C   0  0  2  0  0  0  0  0  0  0  0  0
   22.1484   73.7531   -6.2530 C   0  0  1  0  0  0  0  0  0  0  0  0
   22.7003   74.0460   -3.9459 C   0  0  1  0  0  0  0  0  0  0  0  0
   18.7633   75.7239   -5.2879 H   0  0  0  0  0  0  0  0  0  0  0  0
   19.1557   74.8996   -6.9463 H   0  0  0  0  0  0  0  0  0  0  0  0
   20.3078   75.5412   -2.2898 H   0  0  0  0  0  0  0  0  0  0  0  0
   22.2102   72.7893   -8.4384 O   0  0  0  0  0  0  0  0  0  0  0  0
   22.8060   73.7878   -7.6308 C   0  0  0  0  0  0  0  0  0  0  0  0
   22.6187   72.7999   -9.3186 H   0  0  0  0  0  0  0  0  0  0  0  0
 25 28  1  0
 25 24  1  0
 25 26  1  6
 25 27  2  0
  1  4  1  0
  1 24  1  0
  1  2  1  1
  1  3  2  0
  6 11  1  0
  6 12  1  0
 29 36  1  0
 29 37  1  0
  9  7  1  6
  7 13  1  0
 10  8  1  1
  8 14  1  0
 37 28  1  6
  4  5  1  0
 33 30  1  6
 30 38  1  0
 34 31  1  6
 31 39  1  0
 35 32  1  1
 32 40  1  0
 41 42  1  0
 41 43  1  0
 15 19  2  0
 16 22  2  0
 12 17  1  6
 17 19  1  0
 17 20  1  0
 18 19  1  0
 18 22  1  0
 18 23  1  0
  9 10  1  0
  9 11  1  0
 10 12  1  0
 11  5  1  6
 33 34  1  0
 33 35  1  0
 34 36  1  0
 35 37  1  0
 36 42  1  6
 20 21  2  0
 21 22  1  0
M  CHG  2   2  -1  26  -1
M  END
>  <COMPND>  (146) 
    8629 

>  <AUTHOR>  (146) 
    GENERATED BY OPEN BABEL 3.1.1

>  <MASTER>  (146) 
        0    0    0    0    0    0    0    0   58    0   58    0

>  <minimizedAffinity>  (146) 
-7.76487

>  <CNNscore>  (146) 
0.8674028516

>  <CNNaffinity>  (146) 
4.5832343102

>  <CNN_VS>  (146) 
3.9755105972

>  <CNNaffinity_variance>  (146) 
0.4117623866

$$$$
147
     RDKit          3D

 43 45  0  0  0  0  0  0  0  0999 V2000
   22.4663   73.0266   -4.3953 P   0  0  2  0  0  0  0  0  0  0  0  0
   21.9630   74.4910   -4.8642 O   0  0  0  0  0  0  0  0  0  0  0  0
   23.8402   72.6482   -4.8650 O   0  0  0  0  0  0  0  0  0  0  0  0
   21.2698   72.0391   -4.8548 O   0  0  0  0  0  0  0  0  0  0  0  0
   20.7251   71.1464   -3.8987 C   0  0  0  0  0  0  0  0  0  0  0  0
   18.7275   71.9619   -4.9562 O   0  0  0  0  0  0  0  0  0  0  0  0
   17.2337   70.7038   -2.6810 O   0  0  0  0  0  0  0  0  0  0  0  0
   16.9022   68.8864   -4.6869 O   0  0  0  0  0  0  0  0  0  0  0  0
   18.4085   70.2487   -3.3503 C   0  0  1  0  0  0  0  0  0  0  0  0
   18.0560   69.7016   -4.7178 C   0  0  2  0  0  0  0  0  0  0  0  0
   19.2500   71.4689   -3.7031 C   0  0  1  0  0  0  0  0  0  0  0  0
   17.8518   70.9736   -5.5230 C   0  0  2  0  0  0  0  0  0  0  0  0
   16.6805   69.9420   -2.4453 H   0  0  0  0  0  0  0  0  0  0  0  0
   17.0826   68.0902   -4.1631 H   0  0  0  0  0  0  0  0  0  0  0  0
   16.0440   70.0462   -7.4850 O   0  0  0  0  0  0  0  0  0  0  0  0
   19.2157   70.3528  -10.8148 O   0  0  0  0  0  0  0  0  0  0  0  0
   18.1784   70.8019   -6.9105 N   0  0  0  0  0  0  0  0  0  0  0  0
   17.6247   70.1998   -9.1414 N   0  0  0  0  0  0  0  0  0  0  0  0
   17.1979   70.3292   -7.8136 C   0  0  0  0  0  0  0  0  0  0  0  0
   19.4588   71.1014   -7.3632 C   0  0  0  0  0  0  0  0  0  0  0  0
   19.8502   70.9713   -8.6325 C   0  0  0  0  0  0  0  0  0  0  0  0
   18.8864   70.4833   -9.6399 C   0  0  0  0  0  0  0  0  0  0  0  0
   16.9587   69.8717   -9.7884 H   0  0  0  0  0  0  0  0  0  0  0  0
   22.2958   73.0809   -2.7887 O   0  0  0  0  0  0  0  0  0  0  0  0
   21.9711   74.3153   -1.7968 P   0  0  2  0  0  0  0  0  0  0  0  0
   20.3635   74.4635   -1.9027 O   0  0  0  0  0  0  0  0  0  0  0  0
   22.7308   75.5720   -2.1092 O   0  0  0  0  0  0  0  0  0  0  0  0
   22.2297   73.7281   -0.3158 O   0  0  0  0  0  0  0  0  0  0  0  0
   23.1725   71.6774    0.4070 O   0  0  0  0  0  0  0  0  0  0  0  0
   20.1985   72.0727    3.2443 O   0  0  0  0  0  0  0  0  0  0  0  0
   22.9397   72.4817    3.9970 O   0  0  0  0  0  0  0  0  0  0  0  0
   19.6921   72.8534    0.5032 O   0  0  0  0  0  0  0  0  0  0  0  0
   21.2108   72.5330    2.3450 C   0  0  1  0  0  0  0  0  0  0  0  0
   22.5420   71.9018    2.7577 C   0  0  1  0  0  0  0  0  0  0  0  0
   20.8389   72.1213    0.9218 C   0  0  2  0  0  0  0  0  0  0  0  0
   23.6193   72.1327    1.6895 C   0  0  1  0  0  0  0  0  0  0  0  0
   21.9966   72.3469   -0.0523 C   0  0  1  0  0  0  0  0  0  0  0  0
   20.4283   72.3313    4.1497 H   0  0  0  0  0  0  0  0  0  0  0  0
   22.2506   72.3292    4.6626 H   0  0  0  0  0  0  0  0  0  0  0  0
   18.9662   72.7020    1.1277 H   0  0  0  0  0  0  0  0  0  0  0  0
   24.5987   70.0081    2.1750 O   0  0  0  0  0  0  0  0  0  0  0  0
   24.9092   71.3789    2.0059 C   0  0  0  0  0  0  0  0  0  0  0  0
   25.4103   69.5158    2.3765 H   0  0  0  0  0  0  0  0  0  0  0  0
 25 28  1  0
 25 24  1  0
 25 26  1  1
 25 27  2  0
  1  4  1  0
  1 24  1  0
  1  2  1  6
  1  3  2  0
  6 11  1  0
  6 12  1  0
 29 36  1  0
 29 37  1  0
  9  7  1  6
  7 13  1  0
 10  8  1  1
  8 14  1  0
 37 28  1  1
  4  5  1  0
 33 30  1  1
 30 38  1  0
 34 31  1  1
 31 39  1  0
 35 32  1  6
 32 40  1  0
 41 42  1  0
 41 43  1  0
 15 19  2  0
 16 22  2  0
 12 17  1  6
 17 19  1  0
 17 20  1  0
 18 19  1  0
 18 22  1  0
 18 23  1  0
  9 10  1  0
  9 11  1  0
 10 12  1  0
 11  5  1  6
 33 34  1  0
 33 35  1  0
 34 36  1  0
 35 37  1  0
 36 42  1  1
 20 21  2  0
 21 22  1  0
M  CHG  2   2  -1  26  -1
M  END
>  <COMPND>  (147) 
    8629 

>  <AUTHOR>  (147) 
    GENERATED BY OPEN BABEL 3.1.1

>  <MASTER>  (147) 
        0    0    0    0    0    0    0    0   58    0   58    0

>  <minimizedAffinity>  (147) 
-7.42657

>  <CNNscore>  (147) 
0.8574800491

>  <CNNaffinity>  (147) 
4.6313619614

>  <CNN_VS>  (147) 
3.9713003635

>  <CNNaffinity_variance>  (147) 
0.0446129330

$$$$
148
     RDKit          3D

 43 45  0  0  0  0  0  0  0  0999 V2000
   21.8196   72.5331   -5.4115 P   0  0  2  0  0  0  0  0  0  0  0  0
   21.1076   73.9495   -5.0884 O   0  0  0  0  0  0  0  0  0  0  0  0
   23.0971   72.6295   -6.1926 O   0  0  0  0  0  0  0  0  0  0  0  0
   20.6443   71.6539   -6.0924 O   0  0  0  0  0  0  0  0  0  0  0  0
   20.2516   71.9617   -7.4186 C   0  0  0  0  0  0  0  0  0  0  0  0
   19.0017   69.9611   -6.9616 O   0  0  0  0  0  0  0  0  0  0  0  0
   18.2304   70.0050   -9.8588 O   0  0  0  0  0  0  0  0  0  0  0  0
   16.0128   71.0190   -8.6379 O   0  0  0  0  0  0  0  0  0  0  0  0
   18.4215   71.0958   -8.9594 C   0  0  1  0  0  0  0  0  0  0  0  0
   17.2587   71.1912   -7.9939 C   0  0  2  0  0  0  0  0  0  0  0  0
   19.5772   70.7421   -8.0317 C   0  0  1  0  0  0  0  0  0  0  0  0
   17.5700   70.0723   -7.0143 C   0  0  2  0  0  0  0  0  0  0  0  0
   17.4974   70.2079  -10.4617 H   0  0  0  0  0  0  0  0  0  0  0  0
   15.8607   71.7556   -9.2503 H   0  0  0  0  0  0  0  0  0  0  0  0
   16.2508   68.1827   -5.3813 O   0  0  0  0  0  0  0  0  0  0  0  0
   15.7113   71.2346   -1.9702 O   0  0  0  0  0  0  0  0  0  0  0  0
   17.0746   70.3460   -5.6948 N   0  0  0  0  0  0  0  0  0  0  0  0
   15.9834   69.7038   -3.6841 N   0  0  0  0  0  0  0  0  0  0  0  0
   16.4259   69.3274   -4.9586 C   0  0  0  0  0  0  0  0  0  0  0  0
   17.2343   71.6127   -5.1436 C   0  0  0  0  0  0  0  0  0  0  0  0
   16.8054   71.9559   -3.9272 C   0  0  0  0  0  0  0  0  0  0  0  0
   16.1173   70.9500   -3.0926 C   0  0  0  0  0  0  0  0  0  0  0  0
   15.5282   69.0106   -3.1530 H   0  0  0  0  0  0  0  0  0  0  0  0
   21.9743   71.8622   -3.9490 O   0  0  0  0  0  0  0  0  0  0  0  0
   23.1450   71.9888   -2.8415 P   0  0  2  0  0  0  0  0  0  0  0  0
   23.6403   73.5209   -2.9986 O   0  0  0  0  0  0  0  0  0  0  0  0
   24.2367   70.9677   -2.9806 O   0  0  0  0  0  0  0  0  0  0  0  0
   22.3726   71.9533   -1.4247 O   0  0  0  0  0  0  0  0  0  0  0  0
   24.0825   72.1901    0.1990 O   0  0  0  0  0  0  0  0  0  0  0  0
   20.8117   71.9812    2.7109 O   0  0  0  0  0  0  0  0  0  0  0  0
   22.1561   74.4917    2.3392 O   0  0  0  0  0  0  0  0  0  0  0  0
   20.9190   70.3251    0.3391 O   0  0  0  0  0  0  0  0  0  0  0  0
   21.5194   72.3367    1.5199 C   0  0  1  0  0  0  0  0  0  0  0  0
   22.6894   73.2422    1.9096 C   0  0  1  0  0  0  0  0  0  0  0  0
   22.0262   71.0650    0.8421 C   0  0  2  0  0  0  0  0  0  0  0  0
   23.6478   73.4480    0.7288 C   0  0  1  0  0  0  0  0  0  0  0  0
   23.0100   71.3801   -0.2862 C   0  0  1  0  0  0  0  0  0  0  0  0
   20.4868   72.7842    3.1458 H   0  0  0  0  0  0  0  0  0  0  0  0
   21.5523   74.3477    3.0848 H   0  0  0  0  0  0  0  0  0  0  0  0
   20.3039   70.1317    1.0630 H   0  0  0  0  0  0  0  0  0  0  0  0
   25.2863   73.7946    2.4329 O   0  0  0  0  0  0  0  0  0  0  0  0
   24.9020   74.2173    1.1375 C   0  0  0  0  0  0  0  0  0  0  0  0
   26.0836   74.2757    2.7060 H   0  0  0  0  0  0  0  0  0  0  0  0
 25 28  1  0
 25 24  1  0
 25 26  1  6
 25 27  2  0
  1  4  1  0
  1 24  1  0
  1  2  1  1
  1  3  2  0
  6 11  1  0
  6 12  1  0
 29 36  1  0
 29 37  1  0
  9  7  1  6
  7 13  1  0
 10  8  1  6
  8 14  1  0
 37 28  1  6
  4  5  1  0
 33 30  1  1
 30 38  1  0
 34 31  1  6
 31 39  1  0
 35 32  1  6
 32 40  1  0
 41 42  1  0
 41 43  1  0
 15 19  2  0
 16 22  2  0
 12 17  1  1
 17 19  1  0
 17 20  1  0
 18 19  1  0
 18 22  1  0
 18 23  1  0
  9 10  1  0
  9 11  1  0
 10 12  1  0
 11  5  1  1
 33 34  1  0
 33 35  1  0
 34 36  1  0
 35 37  1  0
 36 42  1  1
 20 21  2  0
 21 22  1  0
M  CHG  2   2  -1  26  -1
M  END
>  <COMPND>  (148) 
    8629 

>  <AUTHOR>  (148) 
    GENERATED BY OPEN BABEL 3.1.1

>  <MASTER>  (148) 
        0    0    0    0    0    0    0    0   58    0   58    0

>  <minimizedAffinity>  (148) 
-7.89230

>  <CNNscore>  (148) 
0.8486066461

>  <CNNaffinity>  (148) 
4.5732550621

>  <CNN_VS>  (148) 
3.8808946609

>  <CNNaffinity_variance>  (148) 
0.2120048702

$$$$
149
     RDKit          3D

 43 45  0  0  0  0  0  0  0  0999 V2000
   23.1119   73.0980   -3.7741 P   0  0  2  0  0  0  0  0  0  0  0  0
   23.0322   73.4538   -5.3504 O   0  0  0  0  0  0  0  0  0  0  0  0
   24.0936   72.0212   -3.4163 O   0  0  0  0  0  0  0  0  0  0  0  0
   21.5736   72.8114   -3.3624 O   0  0  0  0  0  0  0  0  0  0  0  0
   20.9116   71.7046   -3.9493 C   0  0  0  0  0  0  0  0  0  0  0  0
   18.7486   72.1578   -4.8927 O   0  0  0  0  0  0  0  0  0  0  0  0
   17.6152   70.7990   -2.4719 O   0  0  0  0  0  0  0  0  0  0  0  0
   17.4392   68.8585   -4.3798 O   0  0  0  0  0  0  0  0  0  0  0  0
   18.8006   70.4949   -3.2051 C   0  0  1  0  0  0  0  0  0  0  0  0
   18.4495   69.8361   -4.5228 C   0  0  2  0  0  0  0  0  0  0  0  0
   19.4200   71.8098   -3.6621 C   0  0  1  0  0  0  0  0  0  0  0  0
   18.0007   71.0227   -5.3586 C   0  0  2  0  0  0  0  0  0  0  0  0
   17.2020   69.9746   -2.1693 H   0  0  0  0  0  0  0  0  0  0  0  0
   17.7731   68.1247   -3.8406 H   0  0  0  0  0  0  0  0  0  0  0  0
   16.0569   70.2360   -7.2509 O   0  0  0  0  0  0  0  0  0  0  0  0
   19.1104   70.3364  -10.7016 O   0  0  0  0  0  0  0  0  0  0  0  0
   18.2602   70.8361   -6.7583 N   0  0  0  0  0  0  0  0  0  0  0  0
   17.5789   70.2868   -8.9675 N   0  0  0  0  0  0  0  0  0  0  0  0
   17.2143   70.4387   -7.6236 C   0  0  0  0  0  0  0  0  0  0  0  0
   19.5399   71.0469   -7.2601 C   0  0  0  0  0  0  0  0  0  0  0  0
   19.8715   70.8965   -8.5441 C   0  0  0  0  0  0  0  0  0  0  0  0
   18.8371   70.4833   -9.5143 C   0  0  0  0  0  0  0  0  0  0  0  0
   16.8666   70.0102   -9.5888 H   0  0  0  0  0  0  0  0  0  0  0  0
   23.4092   74.5331   -3.0922 O   0  0  0  0  0  0  0  0  0  0  0  0
   23.4895   74.9741   -1.5391 P   0  0  2  0  0  0  0  0  0  0  0  0
   22.4356   76.1981   -1.4460 O   0  0  0  0  0  0  0  0  0  0  0  0
   24.8738   75.3116   -1.0660 O   0  0  0  0  0  0  0  0  0  0  0  0
   22.7835   73.7662   -0.7344 O   0  0  0  0  0  0  0  0  0  0  0  0
   23.7304   73.4268    1.4114 O   0  0  0  0  0  0  0  0  0  0  0  0
   21.4155   70.0164    1.1648 O   0  0  0  0  0  0  0  0  0  0  0  0
   20.6202   72.1461    2.9197 O   0  0  0  0  0  0  0  0  0  0  0  0
   22.7979   70.9960   -1.1823 O   0  0  0  0  0  0  0  0  0  0  0  0
   21.7360   71.3924    0.9430 C   0  0  1  0  0  0  0  0  0  0  0  0
   21.9029   72.0713    2.3038 C   0  0  1  0  0  0  0  0  0  0  0  0
   23.0303   71.4796    0.1363 C   0  0  2  0  0  0  0  0  0  0  0  0
   22.5057   73.4745    2.1527 C   0  0  1  0  0  0  0  0  0  0  0  0
   23.5709   72.9098    0.0889 C   0  0  1  0  0  0  0  0  0  0  0  0
   20.5944   69.9539    1.6761 H   0  0  0  0  0  0  0  0  0  0  0  0
   20.2504   71.2536    3.0088 H   0  0  0  0  0  0  0  0  0  0  0  0
   22.4562   70.0898   -1.1386 H   0  0  0  0  0  0  0  0  0  0  0  0
   22.7796   73.0982    4.4963 O   0  0  0  0  0  0  0  0  0  0  0  0
   22.8269   74.1076    3.5047 C   0  0  0  0  0  0  0  0  0  0  0  0
   22.9823   73.4866    5.3621 H   0  0  0  0  0  0  0  0  0  0  0  0
 25 28  1  0
 25 24  1  0
 25 26  1  6
 25 27  2  0
  1  4  1  0
  1 24  1  0
  1  2  1  6
  1  3  2  0
  6 11  1  0
  6 12  1  0
 29 36  1  0
 29 37  1  0
  9  7  1  1
  7 13  1  0
 10  8  1  1
  8 14  1  0
 37 28  1  6
  4  5  1  0
 33 30  1  1
 30 38  1  0
 34 31  1  6
 31 39  1  0
 35 32  1  6
 32 40  1  0
 41 42  1  0
 41 43  1  0
 15 19  2  0
 16 22  2  0
 12 17  1  6
 17 19  1  0
 17 20  1  0
 18 19  1  0
 18 22  1  0
 18 23  1  0
  9 10  1  0
  9 11  1  0
 10 12  1  0
 11  5  1  6
 33 34  1  0
 33 35  1  0
 34 36  1  0
 35 37  1  0
 36 42  1  1
 20 21  2  0
 21 22  1  0
M  CHG  2   2  -1  26  -1
M  END
>  <COMPND>  (149) 
    8629 

>  <AUTHOR>  (149) 
    GENERATED BY OPEN BABEL 3.1.1

>  <MASTER>  (149) 
        0    0    0    0    0    0    0    0   58    0   58    0

>  <minimizedAffinity>  (149) 
-7.35925

>  <CNNscore>  (149) 
0.8233765364

>  <CNNaffinity>  (149) 
4.6170711517

>  <CNN_VS>  (149) 
3.8015880585

>  <CNNaffinity_variance>  (149) 
0.0240660217

$$$$
150
     RDKit          3D

 43 45  0  0  0  0  0  0  0  0999 V2000
   20.7954   72.2920   -4.7219 P   0  0  2  0  0  0  0  0  0  0  0  0
   19.5434   73.2948   -4.9327 O   0  0  0  0  0  0  0  0  0  0  0  0
   22.0638   72.9495   -4.2632 O   0  0  0  0  0  0  0  0  0  0  0  0
   20.8880   71.4867   -6.1221 O   0  0  0  0  0  0  0  0  0  0  0  0
   20.0912   71.9255   -7.2085 C   0  0  0  0  0  0  0  0  0  0  0  0
   18.6970   70.0205   -6.7602 O   0  0  0  0  0  0  0  0  0  0  0  0
   18.1024   69.9992   -9.6990 O   0  0  0  0  0  0  0  0  0  0  0  0
   15.8823   71.1873   -8.6520 O   0  0  0  0  0  0  0  0  0  0  0  0
   18.3061   71.1104   -8.8278 C   0  0  1  0  0  0  0  0  0  0  0  0
   17.0962   71.3105   -7.9391 C   0  0  2  0  0  0  0  0  0  0  0  0
   19.3812   70.7251   -7.8193 C   0  0  1  0  0  0  0  0  0  0  0  0
   17.2804   70.2135   -6.9044 C   0  0  2  0  0  0  0  0  0  0  0  0
   17.4201   70.2216  -10.3524 H   0  0  0  0  0  0  0  0  0  0  0  0
   15.8118   71.9077   -9.2976 H   0  0  0  0  0  0  0  0  0  0  0  0
   16.7418   68.3687   -4.8344 O   0  0  0  0  0  0  0  0  0  0  0  0
   15.1497   71.6785   -2.0502 O   0  0  0  0  0  0  0  0  0  0  0  0
   16.7255   70.5658   -5.6279 N   0  0  0  0  0  0  0  0  0  0  0  0
   15.9497   70.0183   -3.4497 N   0  0  0  0  0  0  0  0  0  0  0  0
   16.4927   69.5631   -4.6580 C   0  0  0  0  0  0  0  0  0  0  0  0
   16.4184   71.8930   -5.3483 C   0  0  0  0  0  0  0  0  0  0  0  0
   15.8998   72.3105   -4.1916 C   0  0  0  0  0  0  0  0  0  0  0  0
   15.6262   71.3261   -3.1247 C   0  0  0  0  0  0  0  0  0  0  0  0
   15.7786   69.3374   -2.7591 H   0  0  0  0  0  0  0  0  0  0  0  0
   20.2059   71.1837   -3.7035 O   0  0  0  0  0  0  0  0  0  0  0  0
   19.5555   71.3340   -2.2313 P   0  0  2  0  0  0  0  0  0  0  0  0
   18.7372   69.9509   -2.0442 O   0  0  0  0  0  0  0  0  0  0  0  0
   18.7277   72.5730   -2.0479 O   0  0  0  0  0  0  0  0  0  0  0  0
   20.8053   71.2086   -1.2178 O   0  0  0  0  0  0  0  0  0  0  0  0
   21.2266   72.9765    0.3032 O   0  0  0  0  0  0  0  0  0  0  0  0
   24.9429   71.1768    0.3375 O   0  0  0  0  0  0  0  0  0  0  0  0
   23.2208   70.9176    2.6212 O   0  0  0  0  0  0  0  0  0  0  0  0
   23.4523   71.3645   -2.1368 O   0  0  0  0  0  0  0  0  0  0  0  0
   23.5151   71.2165    0.2665 C   0  0  1  0  0  0  0  0  0  0  0  0
   22.9877   71.8398    1.5603 C   0  0  1  0  0  0  0  0  0  0  0  0
   23.0985   72.0529   -0.9420 C   0  0  2  0  0  0  0  0  0  0  0  0
   21.4910   72.1608    1.4506 C   0  0  1  0  0  0  0  0  0  0  0  0
   21.5993   72.3564   -0.9291 C   0  0  1  0  0  0  0  0  0  0  0  0
   25.2141   70.6469    1.1025 H   0  0  0  0  0  0  0  0  0  0  0  0
   24.1695   70.7230    2.6794 H   0  0  0  0  0  0  0  0  0  0  0  0
   24.4037   71.1784   -2.1330 H   0  0  0  0  0  0  0  0  0  0  0  0
   19.7988   72.2964    3.1320 O   0  0  0  0  0  0  0  0  0  0  0  0
   20.9794   72.9259    2.6692 C   0  0  0  0  0  0  0  0  0  0  0  0
   19.4619   72.7724    3.9076 H   0  0  0  0  0  0  0  0  0  0  0  0
 25 28  1  0
 25 24  1  0
 25 26  1  1
 25 27  2  0
  1  4  1  0
  1 24  1  0
  1  2  1  6
  1  3  2  0
  6 11  1  0
  6 12  1  0
 29 36  1  0
 29 37  1  0
  9  7  1  6
  7 13  1  0
 10  8  1  6
  8 14  1  0
 37 28  1  1
  4  5  1  0
 33 30  1  1
 30 38  1  0
 34 31  1  1
 31 39  1  0
 35 32  1  6
 32 40  1  0
 41 42  1  0
 41 43  1  0
 15 19  2  0
 16 22  2  0
 12 17  1  1
 17 19  1  0
 17 20  1  0
 18 19  1  0
 18 22  1  0
 18 23  1  0
  9 10  1  0
  9 11  1  0
 10 12  1  0
 11  5  1  1
 33 34  1  0
 33 35  1  0
 34 36  1  0
 35 37  1  0
 36 42  1  1
 20 21  2  0
 21 22  1  0
M  CHG  2   2  -1  26  -1
M  END
>  <COMPND>  (150) 
    8629 

>  <AUTHOR>  (150) 
    GENERATED BY OPEN BABEL 3.1.1

>  <MASTER>  (150) 
        0    0    0    0    0    0    0    0   58    0   58    0

>  <minimizedAffinity>  (150) 
-6.96079

>  <CNNscore>  (150) 
0.7615489364

>  <CNNaffinity>  (150) 
4.4905157089

>  <CNN_VS>  (150) 
3.4197473526

>  <CNNaffinity_variance>  (150) 
0.3730389774

$$$$
151
     RDKit          3D

 43 45  0  0  0  0  0  0  0  0999 V2000
   23.4944   72.6739   -3.5607 P   0  0  2  0  0  0  0  0  0  0  0  0
   23.7301   71.1425   -3.0953 O   0  0  0  0  0  0  0  0  0  0  0  0
   24.6234   73.2799   -4.3415 O   0  0  0  0  0  0  0  0  0  0  0  0
   23.0967   73.4391   -2.1916 O   0  0  0  0  0  0  0  0  0  0  0  0
   22.1132   74.4576   -2.2475 C   0  0  0  0  0  0  0  0  0  0  0  0
   21.2157   72.7667   -0.7952 O   0  0  0  0  0  0  0  0  0  0  0  0
   19.1491   74.7957   -0.0186 O   0  0  0  0  0  0  0  0  0  0  0  0
   20.8958   74.8957    2.0733 O   0  0  0  0  0  0  0  0  0  0  0  0
   20.5286   74.9861   -0.3285 C   0  0  1  0  0  0  0  0  0  0  0  0
   21.3961   74.4982    0.8129 C   0  0  2  0  0  0  0  0  0  0  0  0
   20.8969   74.0168   -1.4448 C   0  0  1  0  0  0  0  0  0  0  0  0
   21.3570   72.9921    0.6169 C   0  0  2  0  0  0  0  0  0  0  0  0
   18.8904   75.4043    0.6918 H   0  0  0  0  0  0  0  0  0  0  0  0
   20.9417   75.8615    2.1496 H   0  0  0  0  0  0  0  0  0  0  0  0
   21.5517   70.2482    1.2578 O   0  0  0  0  0  0  0  0  0  0  0  0
   26.0096   70.6346    2.3620 O   0  0  0  0  0  0  0  0  0  0  0  0
   22.5566   72.3490    1.0740 N   0  0  0  0  0  0  0  0  0  0  0  0
   23.7712   70.4428    1.8069 N   0  0  0  0  0  0  0  0  0  0  0  0
   22.5477   70.9659    1.3696 C   0  0  0  0  0  0  0  0  0  0  0  0
   23.7249   73.0881    1.2247 C   0  0  0  0  0  0  0  0  0  0  0  0
   24.8832   72.5745    1.6439 C   0  0  0  0  0  0  0  0  0  0  0  0
   24.9592   71.1367    1.9739 C   0  0  0  0  0  0  0  0  0  0  0  0
   23.7889   69.4813    2.0191 H   0  0  0  0  0  0  0  0  0  0  0  0
   22.0896   72.5998   -4.3568 O   0  0  0  0  0  0  0  0  0  0  0  0
   21.6803   73.1044   -5.8369 P   0  0  2  0  0  0  0  0  0  0  0  0
   22.7608   72.3700   -6.7912 O   0  0  0  0  0  0  0  0  0  0  0  0
   21.6349   74.5975   -5.9874 O   0  0  0  0  0  0  0  0  0  0  0  0
   20.2844   72.3577   -6.1516 O   0  0  0  0  0  0  0  0  0  0  0  0
   19.5781   70.1946   -5.4891 O   0  0  0  0  0  0  0  0  0  0  0  0
   17.7430   70.3854   -9.1833 O   0  0  0  0  0  0  0  0  0  0  0  0
   16.1535   70.5760   -6.7989 O   0  0  0  0  0  0  0  0  0  0  0  0
   20.3865   71.5089   -8.8245 O   0  0  0  0  0  0  0  0  0  0  0  0
   18.2292   70.9025   -7.9417 C   0  0  1  0  0  0  0  0  0  0  0  0
   17.5182   70.1665   -6.8043 C   0  0  1  0  0  0  0  0  0  0  0  0
   19.7385   70.6804   -7.8652 C   0  0  2  0  0  0  0  0  0  0  0  0
   18.1736   70.4733   -5.4510 C   0  0  1  0  0  0  0  0  0  0  0  0
   20.2814   70.9671   -6.4641 C   0  0  1  0  0  0  0  0  0  0  0  0
   16.7852   70.5237   -9.2384 H   0  0  0  0  0  0  0  0  0  0  0  0
   15.7516   70.3772   -7.6592 H   0  0  0  0  0  0  0  0  0  0  0  0
   20.0344   71.3176   -9.7072 H   0  0  0  0  0  0  0  0  0  0  0  0
   16.7259   68.6558   -4.8943 O   0  0  0  0  0  0  0  0  0  0  0  0
   17.5818   69.6290   -4.3245 C   0  0  0  0  0  0  0  0  0  0  0  0
   16.3422   68.1108   -4.1890 H   0  0  0  0  0  0  0  0  0  0  0  0
 25 28  1  0
 25 24  1  0
 25 26  1  6
 25 27  2  0
  1  4  1  0
  1 24  1  0
  1  2  1  1
  1  3  2  0
  6 11  1  0
  6 12  1  0
 29 36  1  0
 29 37  1  0
  9  7  1  1
  7 13  1  0
 10  8  1  1
  8 14  1  0
 37 28  1  1
  4  5  1  0
 33 30  1  6
 30 38  1  0
 34 31  1  1
 31 39  1  0
 35 32  1  6
 32 40  1  0
 41 42  1  0
 41 43  1  0
 15 19  2  0
 16 22  2  0
 12 17  1  6
 17 19  1  0
 17 20  1  0
 18 19  1  0
 18 22  1  0
 18 23  1  0
  9 10  1  0
  9 11  1  0
 10 12  1  0
 11  5  1  1
 33 34  1  0
 33 35  1  0
 34 36  1  0
 35 37  1  0
 36 42  1  1
 20 21  2  0
 21 22  1  0
M  CHG  2   2  -1  26  -1
M  END
>  <COMPND>  (151) 
    8629 

>  <AUTHOR>  (151) 
    GENERATED BY OPEN BABEL 3.1.1

>  <MASTER>  (151) 
        0    0    0    0    0    0    0    0   58    0   58    0

>  <minimizedAffinity>  (151) 
-7.76642

>  <CNNscore>  (151) 
0.6629027128

>  <CNNaffinity>  (151) 
4.4330511093

>  <CNN_VS>  (151) 
2.9386816025

>  <CNNaffinity_variance>  (151) 
0.0694109723

$$$$
152
     RDKit          3D

 43 45  0  0  0  0  0  0  0  0999 V2000
   22.9475   72.1546   -2.7005 P   0  0  2  0  0  0  0  0  0  0  0  0
   24.0392   71.0944   -3.2496 O   0  0  0  0  0  0  0  0  0  0  0  0
   23.4852   73.5251   -2.4103 O   0  0  0  0  0  0  0  0  0  0  0  0
   22.2586   71.3911   -1.4514 O   0  0  0  0  0  0  0  0  0  0  0  0
   23.0473   71.1213   -0.3056 C   0  0  0  0  0  0  0  0  0  0  0  0
   23.0095   71.1354    2.0970 O   0  0  0  0  0  0  0  0  0  0  0  0
   20.2109   72.1856    1.8603 O   0  0  0  0  0  0  0  0  0  0  0  0
   21.6464   74.4378    2.4113 O   0  0  0  0  0  0  0  0  0  0  0  0
   21.3471   72.4526    1.0399 C   0  0  1  0  0  0  0  0  0  0  0  0
   22.3099   73.3744    1.7589 C   0  0  2  0  0  0  0  0  0  0  0  0
   22.1589   71.1679    0.9300 C   0  0  1  0  0  0  0  0  0  0  0  0
   22.9887   72.4246    2.7312 C   0  0  2  0  0  0  0  0  0  0  0  0
   19.6768   72.9916    1.9449 H   0  0  0  0  0  0  0  0  0  0  0  0
   21.2309   75.0137    1.7506 H   0  0  0  0  0  0  0  0  0  0  0  0
   23.6845   74.5159    4.4977 O   0  0  0  0  0  0  0  0  0  0  0  0
   28.1917   73.8488    3.8037 O   0  0  0  0  0  0  0  0  0  0  0  0
   24.3364   72.8186    3.0309 N   0  0  0  0  0  0  0  0  0  0  0  0
   25.9282   74.1819    4.1508 N   0  0  0  0  0  0  0  0  0  0  0  0
   24.5776   73.8824    3.9313 C   0  0  0  0  0  0  0  0  0  0  0  0
   25.4019   72.1525    2.4351 C   0  0  0  0  0  0  0  0  0  0  0  0
   26.6841   72.4512    2.6541 C   0  0  0  0  0  0  0  0  0  0  0  0
   27.0224   73.5500    3.5816 C   0  0  0  0  0  0  0  0  0  0  0  0
   26.1203   74.9198    4.7741 H   0  0  0  0  0  0  0  0  0  0  0  0
   21.7956   72.1100   -3.8337 O   0  0  0  0  0  0  0  0  0  0  0  0
   21.2927   73.2340   -4.8810 P   0  0  2  0  0  0  0  0  0  0  0  0
   22.5624   73.4171   -5.8668 O   0  0  0  0  0  0  0  0  0  0  0  0
   20.8190   74.5055   -4.2387 O   0  0  0  0  0  0  0  0  0  0  0  0
   20.1821   72.4854   -5.7816 O   0  0  0  0  0  0  0  0  0  0  0  0
   19.4204   70.2414   -5.7467 O   0  0  0  0  0  0  0  0  0  0  0  0
   19.3253   70.9073   -9.8209 O   0  0  0  0  0  0  0  0  0  0  0  0
   16.8623   70.7457   -8.3527 O   0  0  0  0  0  0  0  0  0  0  0  0
   21.4746   72.0117   -8.2270 O   0  0  0  0  0  0  0  0  0  0  0  0
   19.1971   71.2572   -8.4401 C   0  0  1  0  0  0  0  0  0  0  0  0
   18.1251   70.3617   -7.8159 C   0  0  1  0  0  0  0  0  0  0  0  0
   20.5419   71.0500   -7.7458 C   0  0  2  0  0  0  0  0  0  0  0  0
   18.1173   70.4906   -6.2867 C   0  0  1  0  0  0  0  0  0  0  0  0
   20.4136   71.1507   -6.2247 C   0  0  1  0  0  0  0  0  0  0  0  0
   18.4749   71.0371  -10.2676 H   0  0  0  0  0  0  0  0  0  0  0  0
   16.8808   70.6602   -9.3189 H   0  0  0  0  0  0  0  0  0  0  0  0
   21.5470   71.9376   -9.1909 H   0  0  0  0  0  0  0  0  0  0  0  0
   16.2277   70.2085   -4.8518 O   0  0  0  0  0  0  0  0  0  0  0  0
   17.1651   69.4912   -5.6334 C   0  0  0  0  0  0  0  0  0  0  0  0
   15.6149   69.5852   -4.4302 H   0  0  0  0  0  0  0  0  0  0  0  0
 25 28  1  0
 25 24  1  0
 25 26  1  6
 25 27  2  0
  1  4  1  0
  1 24  1  0
  1  2  1  6
  1  3  2  0
  6 11  1  0
  6 12  1  0
 29 36  1  0
 29 37  1  0
  9  7  1  1
  7 13  1  0
 10  8  1  1
  8 14  1  0
 37 28  1  6
  4  5  1  0
 33 30  1  6
 30 38  1  0
 34 31  1  6
 31 39  1  0
 35 32  1  6
 32 40  1  0
 41 42  1  0
 41 43  1  0
 15 19  2  0
 16 22  2  0
 12 17  1  6
 17 19  1  0
 17 20  1  0
 18 19  1  0
 18 22  1  0
 18 23  1  0
  9 10  1  0
  9 11  1  0
 10 12  1  0
 11  5  1  6
 33 34  1  0
 33 35  1  0
 34 36  1  0
 35 37  1  0
 36 42  1  1
 20 21  2  0
 21 22  1  0
M  CHG  2   2  -1  26  -1
M  END
>  <COMPND>  (152) 
    8629 

>  <AUTHOR>  (152) 
    GENERATED BY OPEN BABEL 3.1.1

>  <MASTER>  (152) 
        0    0    0    0    0    0    0    0   58    0   58    0

>  <minimizedAffinity>  (152) 
-6.81786

>  <CNNscore>  (152) 
0.6357328296

>  <CNNaffinity>  (152) 
4.3127527237

>  <CNN_VS>  (152) 
2.7417585850

>  <CNNaffinity_variance>  (152) 
0.1074202806

$$$$
153
     RDKit          3D

 43 45  0  0  0  0  0  0  0  0999 V2000
   20.1050   71.2585   -2.0589 P   0  0  2  0  0  0  0  0  0  0  0  0
   19.9565   70.4657   -0.6564 O   0  0  0  0  0  0  0  0  0  0  0  0
   20.9170   70.5512   -3.1039 O   0  0  0  0  0  0  0  0  0  0  0  0
   20.6415   72.7214   -1.6233 O   0  0  0  0  0  0  0  0  0  0  0  0
   21.2639   72.8643   -0.3583 C   0  0  0  0  0  0  0  0  0  0  0  0
   23.4114   73.4698    0.5335 O   0  0  0  0  0  0  0  0  0  0  0  0
   24.5146   71.1981   -1.0831 O   0  0  0  0  0  0  0  0  0  0  0  0
   24.3798   70.1333    1.4238 O   0  0  0  0  0  0  0  0  0  0  0  0
   23.2668   71.2958   -0.3986 C   0  0  1  0  0  0  0  0  0  0  0  0
   23.4755   71.1685    1.0960 C   0  0  2  0  0  0  0  0  0  0  0  0
   22.7709   72.7305   -0.5293 C   0  0  1  0  0  0  0  0  0  0  0  0
   24.0064   72.5450    1.4584 C   0  0  2  0  0  0  0  0  0  0  0  0
   24.8511   70.2904   -1.0137 H   0  0  0  0  0  0  0  0  0  0  0  0
   23.9966   69.2779    1.1741 H   0  0  0  0  0  0  0  0  0  0  0  0
   25.3888   74.4895    2.9704 O   0  0  0  0  0  0  0  0  0  0  0  0
   22.5734   73.9498    6.5792 O   0  0  0  0  0  0  0  0  0  0  0  0
   23.6560   72.9326    2.7957 N   0  0  0  0  0  0  0  0  0  0  0  0
   23.9857   74.2193    4.7660 N   0  0  0  0  0  0  0  0  0  0  0  0
   24.4159   73.9184    3.4674 C   0  0  0  0  0  0  0  0  0  0  0  0
   22.5694   72.3375    3.4274 C   0  0  0  0  0  0  0  0  0  0  0  0
   22.1730   72.6346    4.6667 C   0  0  0  0  0  0  0  0  0  0  0  0
   22.9130   73.6545    5.4376 C   0  0  0  0  0  0  0  0  0  0  0  0
   24.5003   74.9030    5.2535 H   0  0  0  0  0  0  0  0  0  0  0  0
   18.5704   71.5445   -2.4789 O   0  0  0  0  0  0  0  0  0  0  0  0
   17.3897   70.5391   -2.9350 P   0  0  2  0  0  0  0  0  0  0  0  0
   16.0437   71.3754   -2.6088 O   0  0  0  0  0  0  0  0  0  0  0  0
   17.4498   69.1856   -2.2882 O   0  0  0  0  0  0  0  0  0  0  0  0
   17.4738   70.5147   -4.5466 O   0  0  0  0  0  0  0  0  0  0  0  0
   18.9795   71.6883   -5.9508 O   0  0  0  0  0  0  0  0  0  0  0  0
   15.6572   71.6846   -8.4030 O   0  0  0  0  0  0  0  0  0  0  0  0
   17.8938   70.0005   -9.0430 O   0  0  0  0  0  0  0  0  0  0  0  0
   15.3440   72.0434   -5.5477 O   0  0  0  0  0  0  0  0  0  0  0  0
   16.5573   71.1518   -7.4276 C   0  0  1  0  0  0  0  0  0  0  0  0
   17.9429   71.0367   -8.0661 C   0  0  1  0  0  0  0  0  0  0  0  0
   16.5973   72.0880   -6.2212 C   0  0  2  0  0  0  0  0  0  0  0  0
   19.0145   70.7270   -7.0121 C   0  0  1  0  0  0  0  0  0  0  0  0
   17.7294   71.7220   -5.2596 C   0  0  1  0  0  0  0  0  0  0  0  0
   15.6268   71.0946   -9.1714 H   0  0  0  0  0  0  0  0  0  0  0  0
   17.2129   70.2080   -9.7022 H   0  0  0  0  0  0  0  0  0  0  0  0
   14.6358   72.2773   -6.1670 H   0  0  0  0  0  0  0  0  0  0  0  0
   20.4278   71.6557   -8.7001 O   0  0  0  0  0  0  0  0  0  0  0  0
   20.4232   70.7635   -7.6008 C   0  0  0  0  0  0  0  0  0  0  0  0
   21.3181   71.6894   -9.0846 H   0  0  0  0  0  0  0  0  0  0  0  0
 25 28  1  0
 25 24  1  0
 25 26  1  6
 25 27  2  0
  1  4  1  0
  1 24  1  0
  1  2  1  1
  1  3  2  0
  6 11  1  0
  6 12  1  0
 29 36  1  0
 29 37  1  0
  9  7  1  6
  7 13  1  0
 10  8  1  6
  8 14  1  0
 37 28  1  6
  4  5  1  0
 33 30  1  6
 30 38  1  0
 34 31  1  6
 31 39  1  0
 35 32  1  1
 32 40  1  0
 41 42  1  0
 41 43  1  0
 15 19  2  0
 16 22  2  0
 12 17  1  1
 17 19  1  0
 17 20  1  0
 18 19  1  0
 18 22  1  0
 18 23  1  0
  9 10  1  0
  9 11  1  0
 10 12  1  0
 11  5  1  1
 33 34  1  0
 33 35  1  0
 34 36  1  0
 35 37  1  0
 36 42  1  6
 20 21  2  0
 21 22  1  0
M  CHG  2   2  -1  26  -1
M  END
>  <COMPND>  (153) 
    8629 

>  <AUTHOR>  (153) 
    GENERATED BY OPEN BABEL 3.1.1

>  <MASTER>  (153) 
        0    0    0    0    0    0    0    0   58    0   58    0

>  <minimizedAffinity>  (153) 
-6.73015

>  <CNNscore>  (153) 
0.5972743034

>  <CNNaffinity>  (153) 
4.1693716049

>  <CNN_VS>  (153) 
2.4902584553

>  <CNNaffinity_variance>  (153) 
0.1613039672

$$$$
154
     RDKit          3D

 43 45  0  0  0  0  0  0  0  0999 V2000
   22.9591   71.6934   -2.4669 P   0  0  2  0  0  0  0  0  0  0  0  0
   23.0888   73.2280   -1.9714 O   0  0  0  0  0  0  0  0  0  0  0  0
   24.2045   71.1153   -3.0719 O   0  0  0  0  0  0  0  0  0  0  0  0
   21.6530   71.7026   -3.4218 O   0  0  0  0  0  0  0  0  0  0  0  0
   21.5935   72.6466   -4.4768 C   0  0  0  0  0  0  0  0  0  0  0  0
   20.7650   70.7006   -5.6172 O   0  0  0  0  0  0  0  0  0  0  0  0
   21.3043   72.1923   -8.1617 O   0  0  0  0  0  0  0  0  0  0  0  0
   18.6110   72.4915   -7.8567 O   0  0  0  0  0  0  0  0  0  0  0  0
   20.8404   72.6874   -6.9067 C   0  0  1  0  0  0  0  0  0  0  0  0
   19.3909   72.3038   -6.6935 C   0  0  2  0  0  0  0  0  0  0  0  0
   21.5423   71.9035   -5.8047 C   0  0  1  0  0  0  0  0  0  0  0  0
   19.5069   70.8418   -6.2970 C   0  0  2  0  0  0  0  0  0  0  0  0
   20.8702   72.6781   -8.8811 H   0  0  0  0  0  0  0  0  0  0  0  0
   18.5672   73.4372   -8.0677 H   0  0  0  0  0  0  0  0  0  0  0  0
   17.0023   69.8598   -7.1575 O   0  0  0  0  0  0  0  0  0  0  0  0
   15.5341   69.2851   -2.8268 O   0  0  0  0  0  0  0  0  0  0  0  0
   18.4517   70.4279   -5.4158 N   0  0  0  0  0  0  0  0  0  0  0  0
   16.2734   69.5742   -5.0004 N   0  0  0  0  0  0  0  0  0  0  0  0
   17.2320   69.9507   -5.9498 C   0  0  0  0  0  0  0  0  0  0  0  0
   18.6319   70.4969   -4.0386 C   0  0  0  0  0  0  0  0  0  0  0  0
   17.7073   70.1352   -3.1467 C   0  0  0  0  0  0  0  0  0  0  0  0
   16.4047   69.6255   -3.6217 C   0  0  0  0  0  0  0  0  0  0  0  0
   15.4156   69.2391   -5.3493 H   0  0  0  0  0  0  0  0  0  0  0  0
   22.4360   70.9271   -1.1432 O   0  0  0  0  0  0  0  0  0  0  0  0
   21.6688   71.4778    0.1688 P   0  0  2  0  0  0  0  0  0  0  0  0
   21.3105   70.1267    0.9835 O   0  0  0  0  0  0  0  0  0  0  0  0
   20.4858   72.3519   -0.1317 O   0  0  0  0  0  0  0  0  0  0  0  0
   22.8207   72.1899    1.0468 O   0  0  0  0  0  0  0  0  0  0  0  0
   24.5341   71.8474    2.6480 O   0  0  0  0  0  0  0  0  0  0  0  0
   21.9473   74.1214    4.9258 O   0  0  0  0  0  0  0  0  0  0  0  0
   24.3987   75.2817    3.9809 O   0  0  0  0  0  0  0  0  0  0  0  0
   20.8979   72.1442    3.0903 O   0  0  0  0  0  0  0  0  0  0  0  0
   22.6120   73.7118    3.7275 C   0  0  1  0  0  0  0  0  0  0  0  0
   24.1183   73.8855    3.9313 C   0  0  1  0  0  0  0  0  0  0  0  0
   22.2729   72.2497    3.4435 C   0  0  2  0  0  0  0  0  0  0  0  0
   24.9110   73.2213    2.7975 C   0  0  1  0  0  0  0  0  0  0  0  0
   23.1515   71.6717    2.3326 C   0  0  1  0  0  0  0  0  0  0  0  0
   22.1580   75.0491    5.1115 H   0  0  0  0  0  0  0  0  0  0  0  0
   23.8916   75.6891    4.7006 H   0  0  0  0  0  0  0  0  0  0  0  0
   20.3523   72.5132    3.8016 H   0  0  0  0  0  0  0  0  0  0  0  0
   26.9483   71.9744    2.7364 O   0  0  0  0  0  0  0  0  0  0  0  0
   26.4150   73.2451    3.0609 C   0  0  0  0  0  0  0  0  0  0  0  0
   27.9050   71.9748    2.8988 H   0  0  0  0  0  0  0  0  0  0  0  0
 25 28  1  0
 25 24  1  0
 25 26  1  1
 25 27  2  0
  1  4  1  0
  1 24  1  0
  1  2  1  1
  1  3  2  0
  6 11  1  0
  6 12  1  0
 29 36  1  0
 29 37  1  0
  9  7  1  6
  7 13  1  0
 10  8  1  6
  8 14  1  0
 37 28  1  6
  4  5  1  0
 33 30  1  1
 30 38  1  0
 34 31  1  6
 31 39  1  0
 35 32  1  6
 32 40  1  0
 41 42  1  0
 41 43  1  0
 15 19  2  0
 16 22  2  0
 12 17  1  1
 17 19  1  0
 17 20  1  0
 18 19  1  0
 18 22  1  0
 18 23  1  0
  9 10  1  0
  9 11  1  0
 10 12  1  0
 11  5  1  1
 33 34  1  0
 33 35  1  0
 34 36  1  0
 35 37  1  0
 36 42  1  1
 20 21  2  0
 21 22  1  0
M  CHG  2   2  -1  26  -1
M  END
>  <COMPND>  (154) 
    8629 

>  <AUTHOR>  (154) 
    GENERATED BY OPEN BABEL 3.1.1

>  <MASTER>  (154) 
        0    0    0    0    0    0    0    0   58    0   58    0

>  <minimizedAffinity>  (154) 
-7.53180

>  <CNNscore>  (154) 
0.5766517520

>  <CNNaffinity>  (154) 
4.1513729095

>  <CNN_VS>  (154) 
2.3938965797

>  <CNNaffinity_variance>  (154) 
0.2519938350

$$$$
155
     RDKit          3D

 43 45  0  0  0  0  0  0  0  0999 V2000
   15.0594   71.1891   -2.1475 P   0  0  2  0  0  0  0  0  0  0  0  0
   14.5038   72.1081   -3.3576 O   0  0  0  0  0  0  0  0  0  0  0  0
   15.7791   71.9361   -1.0634 O   0  0  0  0  0  0  0  0  0  0  0  0
   15.9158   70.0381   -2.8955 O   0  0  0  0  0  0  0  0  0  0  0  0
   16.7017   70.4014   -4.0172 C   0  0  0  0  0  0  0  0  0  0  0  0
   18.9894   70.0239   -4.6478 O   0  0  0  0  0  0  0  0  0  0  0  0
   19.7116   71.9637   -2.4783 O   0  0  0  0  0  0  0  0  0  0  0  0
   19.9114   73.4889   -4.7300 O   0  0  0  0  0  0  0  0  0  0  0  0
   18.5912   71.9739   -3.3614 C   0  0  1  0  0  0  0  0  0  0  0  0
   19.0216   72.3913   -4.7521 C   0  0  2  0  0  0  0  0  0  0  0  0
   18.1553   70.5309   -3.5831 C   0  0  1  0  0  0  0  0  0  0  0  0
   19.6721   71.1218   -5.2750 C   0  0  2  0  0  0  0  0  0  0  0  0
   20.0077   72.8745   -2.3214 H   0  0  0  0  0  0  0  0  0  0  0  0
   19.4509   74.2719   -4.3900 H   0  0  0  0  0  0  0  0  0  0  0  0
   21.5021   72.2041   -7.1344 O   0  0  0  0  0  0  0  0  0  0  0  0
   19.1130   70.5632  -10.7179 O   0  0  0  0  0  0  0  0  0  0  0  0
   19.5529   70.9922   -6.6999 N   0  0  0  0  0  0  0  0  0  0  0  0
   20.3112   71.3860   -8.9172 N   0  0  0  0  0  0  0  0  0  0  0  0
   20.5256   71.5741   -7.5458 C   0  0  0  0  0  0  0  0  0  0  0  0
   18.4807   70.2942   -7.2450 C   0  0  0  0  0  0  0  0  0  0  0  0
   18.2899   70.1249   -8.5550 C   0  0  0  0  0  0  0  0  0  0  0  0
   19.2607   70.7014   -9.5075 C   0  0  0  0  0  0  0  0  0  0  0  0
   20.9759   71.7830   -9.5257 H   0  0  0  0  0  0  0  0  0  0  0  0
   13.7383   70.3977   -1.6562 O   0  0  0  0  0  0  0  0  0  0  0  0
   12.4332   70.9081   -0.8505 P   0  0  2  0  0  0  0  0  0  0  0  0
   11.3083   71.0321   -2.0067 O   0  0  0  0  0  0  0  0  0  0  0  0
   12.6508   72.1661   -0.0606 O   0  0  0  0  0  0  0  0  0  0  0  0
   11.9737   69.6362    0.0305 O   0  0  0  0  0  0  0  0  0  0  0  0
   13.1562   67.6885    0.6823 O   0  0  0  0  0  0  0  0  0  0  0  0
    9.4473   66.0091   -0.0067 O   0  0  0  0  0  0  0  0  0  0  0  0
   10.3898   66.3079    2.6897 O   0  0  0  0  0  0  0  0  0  0  0  0
   10.4274   68.1074   -1.7434 O   0  0  0  0  0  0  0  0  0  0  0  0
   10.3584   67.0299    0.4096 C   0  0  1  0  0  0  0  0  0  0  0  0
   11.2201   66.4703    1.5432 C   0  0  1  0  0  0  0  0  0  0  0  0
   11.2294   67.4361   -0.7777 C   0  0  2  0  0  0  0  0  0  0  0  0
   12.3933   67.4070    1.8615 C   0  0  1  0  0  0  0  0  0  0  0  0
   12.3948   68.3272   -0.3445 C   0  0  1  0  0  0  0  0  0  0  0  0
    8.8909   65.7470    0.7425 H   0  0  0  0  0  0  0  0  0  0  0  0
    9.6527   65.7146    2.4752 H   0  0  0  0  0  0  0  0  0  0  0  0
    9.6934   67.5328   -2.0097 H   0  0  0  0  0  0  0  0  0  0  0  0
   13.2118   65.3871    2.8409 O   0  0  0  0  0  0  0  0  0  0  0  0
   13.3540   66.7952    2.8788 C   0  0  0  0  0  0  0  0  0  0  0  0
   13.8175   64.9842    3.4831 H   0  0  0  0  0  0  0  0  0  0  0  0
 25 28  1  0
 25 24  1  0
 25 26  1  6
 25 27  2  0
  1  4  1  0
  1 24  1  0
  1  2  1  6
  1  3  2  0
  6 11  1  0
  6 12  1  0
 29 36  1  0
 29 37  1  0
  9  7  1  1
  7 13  1  0
 10  8  1  1
  8 14  1  0
 37 28  1  1
  4  5  1  0
 33 30  1  6
 30 38  1  0
 34 31  1  1
 31 39  1  0
 35 32  1  6
 32 40  1  0
 41 42  1  0
 41 43  1  0
 15 19  2  0
 16 22  2  0
 12 17  1  6
 17 19  1  0
 17 20  1  0
 18 19  1  0
 18 22  1  0
 18 23  1  0
  9 10  1  0
  9 11  1  0
 10 12  1  0
 11  5  1  6
 33 34  1  0
 33 35  1  0
 34 36  1  0
 35 37  1  0
 36 42  1  1
 20 21  2  0
 21 22  1  0
M  CHG  2   2  -1  26  -1
M  END
>  <COMPND>  (155) 
    8629 

>  <AUTHOR>  (155) 
    GENERATED BY OPEN BABEL 3.1.1

>  <MASTER>  (155) 
        0    0    0    0    0    0    0    0   58    0   58    0

>  <minimizedAffinity>  (155) 
-6.36482

>  <CNNscore>  (155) 
0.5738032460

>  <CNNaffinity>  (155) 
4.2603130341

>  <CNN_VS>  (155) 
2.4445815086

>  <CNNaffinity_variance>  (155) 
0.0515581593

$$$$
156
     RDKit          3D

 43 45  0  0  0  0  0  0  0  0999 V2000
   23.3785   72.2790   -3.7062 P   0  0  2  0  0  0  0  0  0  0  0  0
   24.2475   71.0224   -3.1741 O   0  0  0  0  0  0  0  0  0  0  0  0
   24.0624   73.1334   -4.7326 O   0  0  0  0  0  0  0  0  0  0  0  0
   22.9227   73.0374   -2.3515 O   0  0  0  0  0  0  0  0  0  0  0  0
   22.0111   74.1172   -2.4552 C   0  0  0  0  0  0  0  0  0  0  0  0
   21.0755   72.6387   -0.8083 O   0  0  0  0  0  0  0  0  0  0  0  0
   19.1468   74.8499   -0.1907 O   0  0  0  0  0  0  0  0  0  0  0  0
   20.9668   75.0674    1.8284 O   0  0  0  0  0  0  0  0  0  0  0  0
   20.5231   74.9295   -0.5581 C   0  0  1  0  0  0  0  0  0  0  0  0
   21.4021   74.5142    0.6032 C   0  0  2  0  0  0  0  0  0  0  0  0
   20.8012   73.8308   -1.5764 C   0  0  1  0  0  0  0  0  0  0  0  0
   21.2767   73.0006    0.5677 C   0  0  2  0  0  0  0  0  0  0  0  0
   18.9452   75.5423    0.4588 H   0  0  0  0  0  0  0  0  0  0  0  0
   21.0663   76.0318    1.8015 H   0  0  0  0  0  0  0  0  0  0  0  0
   21.4232   70.2510    1.1972 O   0  0  0  0  0  0  0  0  0  0  0  0
   25.8509   70.5825    2.4329 O   0  0  0  0  0  0  0  0  0  0  0  0
   22.4555   72.3418    1.0555 N   0  0  0  0  0  0  0  0  0  0  0  0
   23.6278   70.4183    1.8118 N   0  0  0  0  0  0  0  0  0  0  0  0
   22.4232   70.9572    1.3423 C   0  0  0  0  0  0  0  0  0  0  0  0
   23.6267   73.0673    1.2446 C   0  0  0  0  0  0  0  0  0  0  0  0
   24.7668   72.5386    1.6942 C   0  0  0  0  0  0  0  0  0  0  0  0
   24.8178   71.0982    2.0175 C   0  0  0  0  0  0  0  0  0  0  0  0
   23.6289   69.4554    2.0186 H   0  0  0  0  0  0  0  0  0  0  0  0
   22.0090   71.5855   -4.2126 O   0  0  0  0  0  0  0  0  0  0  0  0
   20.9425   72.0398   -5.3392 P   0  0  2  0  0  0  0  0  0  0  0  0
   21.6137   71.5203   -6.7165 O   0  0  0  0  0  0  0  0  0  0  0  0
   20.6172   73.5053   -5.3231 O   0  0  0  0  0  0  0  0  0  0  0  0
   19.6721   71.0701   -5.1137 O   0  0  0  0  0  0  0  0  0  0  0  0
   17.5124   71.6781   -5.8771 O   0  0  0  0  0  0  0  0  0  0  0  0
   16.4382   69.0077   -2.9164 O   0  0  0  0  0  0  0  0  0  0  0  0
   16.1426   68.2618   -5.6740 O   0  0  0  0  0  0  0  0  0  0  0  0
   18.6762   70.7969   -2.5044 O   0  0  0  0  0  0  0  0  0  0  0  0
   17.2529   69.5239   -3.9724 C   0  0  1  0  0  0  0  0  0  0  0  0
   16.4032   69.5946   -5.2428 C   0  0  1  0  0  0  0  0  0  0  0  0
   17.7541   70.9132   -3.5827 C   0  0  2  0  0  0  0  0  0  0  0  0
   17.1216   70.3825   -6.3465 C   0  0  1  0  0  0  0  0  0  0  0  0
   18.4086   71.6298   -4.7651 C   0  0  1  0  0  0  0  0  0  0  0  0
   16.1172   68.1254   -3.1573 H   0  0  0  0  0  0  0  0  0  0  0  0
   15.6893   67.7750   -4.9678 H   0  0  0  0  0  0  0  0  0  0  0  0
   18.2497   70.3419   -1.7621 H   0  0  0  0  0  0  0  0  0  0  0  0
   17.0280   70.4980   -8.7312 O   0  0  0  0  0  0  0  0  0  0  0  0
   16.2295   70.6006   -7.5667 C   0  0  0  0  0  0  0  0  0  0  0  0
   16.4734   70.6343   -9.5158 H   0  0  0  0  0  0  0  0  0  0  0  0
 25 28  1  0
 25 24  1  0
 25 26  1  6
 25 27  2  0
  1  4  1  0
  1 24  1  0
  1  2  1  1
  1  3  2  0
  6 11  1  0
  6 12  1  0
 29 36  1  0
 29 37  1  0
  9  7  1  1
  7 13  1  0
 10  8  1  1
  8 14  1  0
 37 28  1  6
  4  5  1  0
 33 30  1  1
 30 38  1  0
 34 31  1  6
 31 39  1  0
 35 32  1  1
 32 40  1  0
 41 42  1  0
 41 43  1  0
 15 19  2  0
 16 22  2  0
 12 17  1  6
 17 19  1  0
 17 20  1  0
 18 19  1  0
 18 22  1  0
 18 23  1  0
  9 10  1  0
  9 11  1  0
 10 12  1  0
 11  5  1  1
 33 34  1  0
 33 35  1  0
 34 36  1  0
 35 37  1  0
 36 42  1  6
 20 21  2  0
 21 22  1  0
M  CHG  2   2  -1  26  -1
M  END
>  <COMPND>  (156) 
    8629 

>  <AUTHOR>  (156) 
    GENERATED BY OPEN BABEL 3.1.1

>  <MASTER>  (156) 
        0    0    0    0    0    0    0    0   58    0   58    0

>  <minimizedAffinity>  (156) 
-7.45453

>  <CNNscore>  (156) 
0.5584734082

>  <CNNaffinity>  (156) 
4.3186898232

>  <CNN_VS>  (156) 
2.4118733406

>  <CNNaffinity_variance>  (156) 
0.1292333901

$$$$
157
     RDKit          3D

 43 45  0  0  0  0  0  0  0  0999 V2000
   21.7985   72.7262   -5.6730 P   0  0  2  0  0  0  0  0  0  0  0  0
   21.2019   73.9648   -4.8201 O   0  0  0  0  0  0  0  0  0  0  0  0
   22.7965   73.1052   -6.7275 O   0  0  0  0  0  0  0  0  0  0  0  0
   20.4818   71.9471   -6.1995 O   0  0  0  0  0  0  0  0  0  0  0  0
   20.1024   72.1008   -7.5560 C   0  0  0  0  0  0  0  0  0  0  0  0
   18.9160   70.1180   -6.8966 O   0  0  0  0  0  0  0  0  0  0  0  0
   18.1350   69.8525   -9.7794 O   0  0  0  0  0  0  0  0  0  0  0  0
   15.8909   70.9142   -8.6510 O   0  0  0  0  0  0  0  0  0  0  0  0
   18.2952   71.0320   -8.9930 C   0  0  1  0  0  0  0  0  0  0  0  0
   17.1329   71.1868   -8.0345 C   0  0  2  0  0  0  0  0  0  0  0  0
   19.4640   70.8068   -8.0419 C   0  0  1  0  0  0  0  0  0  0  0  0
   17.4814   70.1800   -6.9515 C   0  0  2  0  0  0  0  0  0  0  0  0
   17.3943   69.9726  -10.3949 H   0  0  0  0  0  0  0  0  0  0  0  0
   15.7144   71.5819   -9.3320 H   0  0  0  0  0  0  0  0  0  0  0  0
   16.6453   68.3671   -4.9534 O   0  0  0  0  0  0  0  0  0  0  0  0
   15.5812   71.7797   -2.0444 O   0  0  0  0  0  0  0  0  0  0  0  0
   16.9818   70.5674   -5.6624 N   0  0  0  0  0  0  0  0  0  0  0  0
   16.1163   70.0678   -3.5065 N   0  0  0  0  0  0  0  0  0  0  0  0
   16.5875   69.5783   -4.7314 C   0  0  0  0  0  0  0  0  0  0  0  0
   16.8872   71.9149   -5.3321 C   0  0  0  0  0  0  0  0  0  0  0  0
   16.4346   72.3653   -4.1602 C   0  0  0  0  0  0  0  0  0  0  0  0
   16.0022   71.3971   -3.1317 C   0  0  0  0  0  0  0  0  0  0  0  0
   15.8356   69.3970   -2.8425 H   0  0  0  0  0  0  0  0  0  0  0  0
   22.3714   71.7391   -4.5283 O   0  0  0  0  0  0  0  0  0  0  0  0
   23.3440   72.0252   -3.2693 P   0  0  2  0  0  0  0  0  0  0  0  0
   24.0754   73.4108   -3.6729 O   0  0  0  0  0  0  0  0  0  0  0  0
   24.2840   70.8992   -2.9495 O   0  0  0  0  0  0  0  0  0  0  0  0
   22.3466   72.4263   -2.0655 O   0  0  0  0  0  0  0  0  0  0  0  0
   21.7804   71.2414   -0.0927 O   0  0  0  0  0  0  0  0  0  0  0  0
   18.1151   72.9610   -0.9045 O   0  0  0  0  0  0  0  0  0  0  0  0
   19.6841   73.9382    1.2935 O   0  0  0  0  0  0  0  0  0  0  0  0
   19.7651   71.9865   -3.0741 O   0  0  0  0  0  0  0  0  0  0  0  0
   19.5431   72.8989   -0.8561 C   0  0  1  0  0  0  0  0  0  0  0  0
   19.9663   72.7238    0.6037 C   0  0  1  0  0  0  0  0  0  0  0  0
   20.0202   71.7181   -1.6996 C   0  0  2  0  0  0  0  0  0  0  0  0
   21.4587   72.3828    0.7107 C   0  0  1  0  0  0  0  0  0  0  0  0
   21.5073   71.4331   -1.4821 C   0  0  1  0  0  0  0  0  0  0  0  0
   17.8056   73.7090   -0.3713 H   0  0  0  0  0  0  0  0  0  0  0  0
   18.7387   74.1424    1.2178 H   0  0  0  0  0  0  0  0  0  0  0  0
   18.8204   72.1651   -3.1986 H   0  0  0  0  0  0  0  0  0  0  0  0
   20.6965   71.9365    2.9308 O   0  0  0  0  0  0  0  0  0  0  0  0
   21.8678   72.0493    2.1437 C   0  0  0  0  0  0  0  0  0  0  0  0
   20.9414   71.7241    3.8455 H   0  0  0  0  0  0  0  0  0  0  0  0
 25 28  1  0
 25 24  1  0
 25 26  1  6
 25 27  2  0
  1  4  1  0
  1 24  1  0
  1  2  1  1
  1  3  2  0
  6 11  1  0
  6 12  1  0
 29 36  1  0
 29 37  1  0
  9  7  1  6
  7 13  1  0
 10  8  1  6
  8 14  1  0
 37 28  1  1
  4  5  1  0
 33 30  1  1
 30 38  1  0
 34 31  1  1
 31 39  1  0
 35 32  1  6
 32 40  1  0
 41 42  1  0
 41 43  1  0
 15 19  2  0
 16 22  2  0
 12 17  1  1
 17 19  1  0
 17 20  1  0
 18 19  1  0
 18 22  1  0
 18 23  1  0
  9 10  1  0
  9 11  1  0
 10 12  1  0
 11  5  1  1
 33 34  1  0
 33 35  1  0
 34 36  1  0
 35 37  1  0
 36 42  1  1
 20 21  2  0
 21 22  1  0
M  CHG  2   2  -1  26  -1
M  END
>  <COMPND>  (157) 
    8629 

>  <AUTHOR>  (157) 
    GENERATED BY OPEN BABEL 3.1.1

>  <MASTER>  (157) 
        0    0    0    0    0    0    0    0   58    0   58    0

>  <minimizedAffinity>  (157) 
-7.11245

>  <CNNscore>  (157) 
0.5384917259

>  <CNNaffinity>  (157) 
4.1825132370

>  <CNN_VS>  (157) 
2.2522487640

>  <CNNaffinity_variance>  (157) 
0.5393613577

$$$$
158
     RDKit          3D

 43 45  0  0  0  0  0  0  0  0999 V2000
   23.5704   72.4148   -3.5471 P   0  0  2  0  0  0  0  0  0  0  0  0
   24.2093   70.9678   -3.2075 O   0  0  0  0  0  0  0  0  0  0  0  0
   24.5693   73.4972   -3.8334 O   0  0  0  0  0  0  0  0  0  0  0  0
   22.5653   72.6954   -2.3106 O   0  0  0  0  0  0  0  0  0  0  0  0
   23.1175   72.8793   -1.0187 C   0  0  0  0  0  0  0  0  0  0  0  0
   24.2526   71.3467    0.4430 O   0  0  0  0  0  0  0  0  0  0  0  0
   21.5357   70.2769    1.1247 O   0  0  0  0  0  0  0  0  0  0  0  0
   22.0965   71.8789    3.2591 O   0  0  0  0  0  0  0  0  0  0  0  0
   21.9335   71.6186    0.8473 C   0  0  1  0  0  0  0  0  0  0  0  0
   22.6997   72.1931    2.0205 C   0  0  2  0  0  0  0  0  0  0  0  0
   23.0005   71.5765   -0.2395 C   0  0  1  0  0  0  0  0  0  0  0  0
   24.0638   71.5455    1.8536 C   0  0  2  0  0  0  0  0  0  0  0  0
   20.8543   70.2781    1.8158 H   0  0  0  0  0  0  0  0  0  0  0  0
   21.2316   72.3140    3.3174 H   0  0  0  0  0  0  0  0  0  0  0  0
   26.6978   70.6419    2.3264 O   0  0  0  0  0  0  0  0  0  0  0  0
   28.0589   74.7989    3.7783 O   0  0  0  0  0  0  0  0  0  0  0  0
   25.1267   72.3705    2.3546 N   0  0  0  0  0  0  0  0  0  0  0  0
   27.3734   72.7125    3.0488 N   0  0  0  0  0  0  0  0  0  0  0  0
   26.4131   71.8187    2.5578 C   0  0  0  0  0  0  0  0  0  0  0  0
   24.8886   73.7108    2.6387 C   0  0  0  0  0  0  0  0  0  0  0  0
   25.8148   74.5495    3.1076 C   0  0  0  0  0  0  0  0  0  0  0  0
   27.1851   74.0526    3.3476 C   0  0  0  0  0  0  0  0  0  0  0  0
   28.2768   72.3503    3.1985 H   0  0  0  0  0  0  0  0  0  0  0  0
   22.5624   72.0895   -4.7681 O   0  0  0  0  0  0  0  0  0  0  0  0
   21.8326   73.0648   -5.8308 P   0  0  2  0  0  0  0  0  0  0  0  0
   22.6906   72.8462   -7.1849 O   0  0  0  0  0  0  0  0  0  0  0  0
   21.7323   74.4950   -5.3854 O   0  0  0  0  0  0  0  0  0  0  0  0
   20.4136   72.3558   -6.1284 O   0  0  0  0  0  0  0  0  0  0  0  0
   19.7008   70.2028   -5.4407 O   0  0  0  0  0  0  0  0  0  0  0  0
   17.6923   70.4443   -9.0405 O   0  0  0  0  0  0  0  0  0  0  0  0
   16.2242   70.6523   -6.5809 O   0  0  0  0  0  0  0  0  0  0  0  0
   20.3702   71.5181   -8.8063 O   0  0  0  0  0  0  0  0  0  0  0  0
   18.2475   70.9466   -7.8220 C   0  0  1  0  0  0  0  0  0  0  0  0
   17.5793   70.2181   -6.6543 C   0  0  1  0  0  0  0  0  0  0  0  0
   19.7545   70.6969   -7.8199 C   0  0  2  0  0  0  0  0  0  0  0  0
   18.3051   70.5066   -5.3333 C   0  0  1  0  0  0  0  0  0  0  0  0
   20.3699   70.9671   -6.4457 C   0  0  1  0  0  0  0  0  0  0  0  0
   16.7356   70.6001   -9.0484 H   0  0  0  0  0  0  0  0  0  0  0  0
   15.7774   70.4648   -7.4214 H   0  0  0  0  0  0  0  0  0  0  0  0
   19.9722   71.3374   -9.6717 H   0  0  0  0  0  0  0  0  0  0  0  0
   16.9069   68.6685   -4.7205 O   0  0  0  0  0  0  0  0  0  0  0  0
   17.7533   69.6677   -4.1826 C   0  0  0  0  0  0  0  0  0  0  0  0
   16.5486   68.1266   -3.9996 H   0  0  0  0  0  0  0  0  0  0  0  0
 25 28  1  0
 25 24  1  0
 25 26  1  6
 25 27  2  0
  1  4  1  0
  1 24  1  0
  1  2  1  1
  1  3  2  0
  6 11  1  0
  6 12  1  0
 29 36  1  0
 29 37  1  0
  9  7  1  1
  7 13  1  0
 10  8  1  1
  8 14  1  0
 37 28  1  1
  4  5  1  0
 33 30  1  6
 30 38  1  0
 34 31  1  1
 31 39  1  0
 35 32  1  6
 32 40  1  0
 41 42  1  0
 41 43  1  0
 15 19  2  0
 16 22  2  0
 12 17  1  6
 17 19  1  0
 17 20  1  0
 18 19  1  0
 18 22  1  0
 18 23  1  0
  9 10  1  0
  9 11  1  0
 10 12  1  0
 11  5  1  1
 33 34  1  0
 33 35  1  0
 34 36  1  0
 35 37  1  0
 36 42  1  1
 20 21  2  0
 21 22  1  0
M  CHG  2   2  -1  26  -1
M  END
>  <COMPND>  (158) 
    8629 

>  <AUTHOR>  (158) 
    GENERATED BY OPEN BABEL 3.1.1

>  <MASTER>  (158) 
        0    0    0    0    0    0    0    0   58    0   58    0

>  <minimizedAffinity>  (158) 
-8.04503

>  <CNNscore>  (158) 
0.5175483227

>  <CNNaffinity>  (158) 
4.2423009872

>  <CNN_VS>  (158) 
2.1955957413

>  <CNNaffinity_variance>  (158) 
0.1913400441

$$$$
159
     RDKit          3D

 43 45  0  0  0  0  0  0  0  0999 V2000
   22.8952   72.8702   -3.3099 P   0  0  2  0  0  0  0  0  0  0  0  0
   24.1207   72.5359   -4.3117 O   0  0  0  0  0  0  0  0  0  0  0  0
   22.7797   74.3115   -2.9086 O   0  0  0  0  0  0  0  0  0  0  0  0
   23.0863   71.8164   -2.0971 O   0  0  0  0  0  0  0  0  0  0  0  0
   23.3889   72.3180   -0.8069 C   0  0  0  0  0  0  0  0  0  0  0  0
   23.9475   71.5035    1.3836 O   0  0  0  0  0  0  0  0  0  0  0  0
   21.4357   69.8747    1.2140 O   0  0  0  0  0  0  0  0  0  0  0  0
   20.6783   71.9737    2.7816 O   0  0  0  0  0  0  0  0  0  0  0  0
   21.6953   71.1870    0.7180 C   0  0  1  0  0  0  0  0  0  0  0  0
   21.7273   72.1832    1.8582 C   0  0  2  0  0  0  0  0  0  0  0  0
   23.1354   71.2248    0.2221 C   0  0  1  0  0  0  0  0  0  0  0  0
   23.0976   71.9270    2.4621 C   0  0  2  0  0  0  0  0  0  0  0  0
   20.5215   69.8260    1.5361 H   0  0  0  0  0  0  0  0  0  0  0  0
   19.8276   72.1493    2.3500 H   0  0  0  0  0  0  0  0  0  0  0  0
   22.5627   72.7795    5.1013 O   0  0  0  0  0  0  0  0  0  0  0  0
   25.3079   76.4558    4.6654 O   0  0  0  0  0  0  0  0  0  0  0  0
   23.6594   73.1032    3.0642 N   0  0  0  0  0  0  0  0  0  0  0  0
   23.9302   74.6092    4.8822 N   0  0  0  0  0  0  0  0  0  0  0  0
   23.3254   73.4431    4.3959 C   0  0  0  0  0  0  0  0  0  0  0  0
   24.5313   73.9054    2.3361 C   0  0  0  0  0  0  0  0  0  0  0  0
   25.0986   75.0149    2.8140 C   0  0  0  0  0  0  0  0  0  0  0  0
   24.8022   75.4405    4.1971 C   0  0  0  0  0  0  0  0  0  0  0  0
   23.7119   74.8659    5.8075 H   0  0  0  0  0  0  0  0  0  0  0  0
   21.6109   72.2867   -4.0992 O   0  0  0  0  0  0  0  0  0  0  0  0
   20.1218   71.9263   -3.5838 P   0  0  2  0  0  0  0  0  0  0  0  0
   19.5463   73.3535   -3.0846 O   0  0  0  0  0  0  0  0  0  0  0  0
   20.0754   70.8426   -2.5458 O   0  0  0  0  0  0  0  0  0  0  0  0
   19.2917   71.6000   -4.9290 O   0  0  0  0  0  0  0  0  0  0  0  0
   19.5924   72.2737   -7.1811 O   0  0  0  0  0  0  0  0  0  0  0  0
   15.4741   72.4895   -6.9722 O   0  0  0  0  0  0  0  0  0  0  0  0
   16.7090   70.3656   -8.4594 O   0  0  0  0  0  0  0  0  0  0  0  0
   17.0799   73.3130   -4.7088 O   0  0  0  0  0  0  0  0  0  0  0  0
   16.7677   71.9570   -6.6748 C   0  0  1  0  0  0  0  0  0  0  0  0
   17.4152   71.5094   -7.9867 C   0  0  1  0  0  0  0  0  0  0  0  0
   17.6100   73.0387   -6.0011 C   0  0  2  0  0  0  0  0  0  0  0  0
   18.8996   71.1757   -7.7862 C   0  0  1  0  0  0  0  0  0  0  0  0
   19.0792   72.6262   -5.8949 C   0  0  1  0  0  0  0  0  0  0  0  0
   14.9341   71.8075   -7.3996 H   0  0  0  0  0  0  0  0  0  0  0  0
   15.7730   70.5896   -8.5813 H   0  0  0  0  0  0  0  0  0  0  0  0
   16.1495   73.5733   -4.7896 H   0  0  0  0  0  0  0  0  0  0  0  0
   18.7668   71.3072  -10.1683 O   0  0  0  0  0  0  0  0  0  0  0  0
   19.6029   70.8791   -9.1090 C   0  0  0  0  0  0  0  0  0  0  0  0
   19.2017   71.1249  -11.0164 H   0  0  0  0  0  0  0  0  0  0  0  0
 25 28  1  0
 25 24  1  0
 25 26  1  1
 25 27  2  0
  1  4  1  0
  1 24  1  0
  1  2  1  6
  1  3  2  0
  6 11  1  0
  6 12  1  0
 29 36  1  0
 29 37  1  0
  9  7  1  1
  7 13  1  0
 10  8  1  1
  8 14  1  0
 37 28  1  1
  4  5  1  0
 33 30  1  6
 30 38  1  0
 34 31  1  1
 31 39  1  0
 35 32  1  1
 32 40  1  0
 41 42  1  0
 41 43  1  0
 15 19  2  0
 16 22  2  0
 12 17  1  6
 17 19  1  0
 17 20  1  0
 18 19  1  0
 18 22  1  0
 18 23  1  0
  9 10  1  0
  9 11  1  0
 10 12  1  0
 11  5  1  6
 33 34  1  0
 33 35  1  0
 34 36  1  0
 35 37  1  0
 36 42  1  6
 20 21  2  0
 21 22  1  0
M  CHG  2   2  -1  26  -1
M  END
>  <COMPND>  (159) 
    8629 

>  <AUTHOR>  (159) 
    GENERATED BY OPEN BABEL 3.1.1

>  <MASTER>  (159) 
        0    0    0    0    0    0    0    0   58    0   58    0

>  <minimizedAffinity>  (159) 
-6.83866

>  <CNNscore>  (159) 
0.4937600493

>  <CNNaffinity>  (159) 
4.0921072960

>  <CNN_VS>  (159) 
2.0205190182

>  <CNNaffinity_variance>  (159) 
0.2121758014

$$$$
160
     RDKit          3D

 43 45  0  0  0  0  0  0  0  0999 V2000
   21.9227   74.5491   -2.0078 P   0  0  2  0  0  0  0  0  0  0  0  0
   23.3834   73.9365   -1.6784 O   0  0  0  0  0  0  0  0  0  0  0  0
   21.9351   75.8578   -2.7416 O   0  0  0  0  0  0  0  0  0  0  0  0
   21.1714   74.5540   -0.5748 O   0  0  0  0  0  0  0  0  0  0  0  0
   21.9359   74.2974    0.5903 C   0  0  0  0  0  0  0  0  0  0  0  0
   22.5121   72.0751    1.2996 O   0  0  0  0  0  0  0  0  0  0  0  0
   20.0584   72.1895    3.0193 O   0  0  0  0  0  0  0  0  0  0  0  0
   22.0586   72.6919    4.8034 O   0  0  0  0  0  0  0  0  0  0  0  0
   20.9797   73.2283    2.6917 C   0  0  1  0  0  0  0  0  0  0  0  0
   22.2763   73.0401    3.4513 C   0  0  2  0  0  0  0  0  0  0  0  0
   21.4239   73.0237    1.2487 C   0  0  1  0  0  0  0  0  0  0  0  0
   22.9455   71.9280    2.6617 C   0  0  2  0  0  0  0  0  0  0  0  0
   19.7603   72.2993    3.9364 H   0  0  0  0  0  0  0  0  0  0  0  0
   21.6311   73.4313    5.2631 H   0  0  0  0  0  0  0  0  0  0  0  0
   24.6866   69.7930    2.0385 O   0  0  0  0  0  0  0  0  0  0  0  0
   28.4247   72.3574    2.8698 O   0  0  0  0  0  0  0  0  0  0  0  0
   24.3782   72.0101    2.7065 N   0  0  0  0  0  0  0  0  0  0  0  0
   26.5465   71.0717    2.4527 N   0  0  0  0  0  0  0  0  0  0  0  0
   25.1611   70.8796    2.3757 C   0  0  0  0  0  0  0  0  0  0  0  0
   24.9928   73.2019    3.0751 C   0  0  0  0  0  0  0  0  0  0  0  0
   26.3152   73.3683    3.1449 C   0  0  0  0  0  0  0  0  0  0  0  0
   27.2048   72.2362    2.8150 C   0  0  0  0  0  0  0  0  0  0  0  0
   27.1120   70.2977    2.2270 H   0  0  0  0  0  0  0  0  0  0  0  0
   21.1920   73.3423   -2.7969 O   0  0  0  0  0  0  0  0  0  0  0  0
   21.7308   71.8842   -3.2406 P   0  0  2  0  0  0  0  0  0  0  0  0
   21.9390   71.1205   -1.8296 O   0  0  0  0  0  0  0  0  0  0  0  0
   22.9526   71.9187   -4.1123 O   0  0  0  0  0  0  0  0  0  0  0  0
   20.4518   71.1624   -3.9099 O   0  0  0  0  0  0  0  0  0  0  0  0
   18.6567   72.4311   -4.7957 O   0  0  0  0  0  0  0  0  0  0  0  0
   16.6743   68.8750   -4.1064 O   0  0  0  0  0  0  0  0  0  0  0  0
   17.2831   69.6597   -6.8012 O   0  0  0  0  0  0  0  0  0  0  0  0
   18.6652   69.8069   -2.2229 O   0  0  0  0  0  0  0  0  0  0  0  0
   17.7883   69.6977   -4.4636 C   0  0  1  0  0  0  0  0  0  0  0  0
   17.3950   70.5349   -5.6823 C   0  0  1  0  0  0  0  0  0  0  0  0
   18.1414   70.6000   -3.2827 C   0  0  2  0  0  0  0  0  0  0  0  0
   18.4341   71.6291   -5.9615 C   0  0  1  0  0  0  0  0  0  0  0  0
   19.1453   71.6836   -3.6802 C   0  0  1  0  0  0  0  0  0  0  0  0
   16.4453   68.2992   -4.8518 H   0  0  0  0  0  0  0  0  0  0  0  0
   16.6242   68.9733   -6.6117 H   0  0  0  0  0  0  0  0  0  0  0  0
   18.0202   69.1250   -1.9803 H   0  0  0  0  0  0  0  0  0  0  0  0
   18.3988   72.0349   -8.3158 O   0  0  0  0  0  0  0  0  0  0  0  0
   17.9849   72.5740   -7.0739 C   0  0  0  0  0  0  0  0  0  0  0  0
   18.1194   72.6257   -9.0332 H   0  0  0  0  0  0  0  0  0  0  0  0
 25 28  1  0
 25 24  1  0
 25 26  1  1
 25 27  2  0
  1  4  1  0
  1 24  1  0
  1  2  1  1
  1  3  2  0
  6 11  1  0
  6 12  1  0
 29 36  1  0
 29 37  1  0
  9  7  1  1
  7 13  1  0
 10  8  1  1
  8 14  1  0
 37 28  1  6
  4  5  1  0
 33 30  1  1
 30 38  1  0
 34 31  1  6
 31 39  1  0
 35 32  1  1
 32 40  1  0
 41 42  1  0
 41 43  1  0
 15 19  2  0
 16 22  2  0
 12 17  1  6
 17 19  1  0
 17 20  1  0
 18 19  1  0
 18 22  1  0
 18 23  1  0
  9 10  1  0
  9 11  1  0
 10 12  1  0
 11  5  1  1
 33 34  1  0
 33 35  1  0
 34 36  1  0
 35 37  1  0
 36 42  1  6
 20 21  2  0
 21 22  1  0
M  CHG  2   2  -1  26  -1
M  END
>  <COMPND>  (160) 
    8629 

>  <AUTHOR>  (160) 
    GENERATED BY OPEN BABEL 3.1.1

>  <MASTER>  (160) 
        0    0    0    0    0    0    0    0   58    0   58    0

>  <minimizedAffinity>  (160) 
-6.59237

>  <CNNscore>  (160) 
0.4846367240

>  <CNNaffinity>  (160) 
4.1960000992

>  <CNN_VS>  (160) 
2.0335357189

>  <CNNaffinity_variance>  (160) 
0.0946680307

$$$$
161
     RDKit          3D

 43 45  0  0  0  0  0  0  0  0999 V2000
   22.9513   71.7249   -2.7616 P   0  0  2  0  0  0  0  0  0  0  0  0
   23.1094   73.3108   -2.4836 O   0  0  0  0  0  0  0  0  0  0  0  0
   24.2060   71.0307   -3.2033 O   0  0  0  0  0  0  0  0  0  0  0  0
   21.7002   71.6325   -3.7835 O   0  0  0  0  0  0  0  0  0  0  0  0
   20.8691   70.4860   -3.7328 C   0  0  0  0  0  0  0  0  0  0  0  0
   18.9429   71.5771   -4.6673 O   0  0  0  0  0  0  0  0  0  0  0  0
   17.3689   70.2603   -2.4811 O   0  0  0  0  0  0  0  0  0  0  0  0
   16.8388   68.6729   -4.6342 O   0  0  0  0  0  0  0  0  0  0  0  0
   18.4859   69.7611   -3.2150 C   0  0  1  0  0  0  0  0  0  0  0  0
   18.0640   69.3767   -4.6178 C   0  0  2  0  0  0  0  0  0  0  0  0
   19.4340   70.9249   -3.4757 C   0  0  1  0  0  0  0  0  0  0  0  0
   17.9697   70.7306   -5.3006 C   0  0  2  0  0  0  0  0  0  0  0  0
   16.7494   69.5349   -2.3024 H   0  0  0  0  0  0  0  0  0  0  0  0
   16.9503   67.8188   -4.1882 H   0  0  0  0  0  0  0  0  0  0  0  0
   16.0870   70.0206   -7.2828 O   0  0  0  0  0  0  0  0  0  0  0  0
   19.1926   70.4799  -10.6570 O   0  0  0  0  0  0  0  0  0  0  0  0
   18.2591   70.6570   -6.7050 N   0  0  0  0  0  0  0  0  0  0  0  0
   17.6348   70.2501   -8.9613 N   0  0  0  0  0  0  0  0  0  0  0  0
   17.2426   70.2896   -7.6172 C   0  0  0  0  0  0  0  0  0  0  0  0
   19.5389   70.9477   -7.1650 C   0  0  0  0  0  0  0  0  0  0  0  0
   19.8971   70.9042   -8.4499 C   0  0  0  0  0  0  0  0  0  0  0  0
   18.8944   70.5291   -9.4677 C   0  0  0  0  0  0  0  0  0  0  0  0
   16.9434   69.9962   -9.6149 H   0  0  0  0  0  0  0  0  0  0  0  0
   22.3295   71.1730   -1.3753 O   0  0  0  0  0  0  0  0  0  0  0  0
   21.3334   71.8670   -0.3080 P   0  0  2  0  0  0  0  0  0  0  0  0
   20.6103   70.6046    0.3998 O   0  0  0  0  0  0  0  0  0  0  0  0
   20.3872   72.8658   -0.9087 O   0  0  0  0  0  0  0  0  0  0  0  0
   22.3080   72.4687    0.8291 O   0  0  0  0  0  0  0  0  0  0  0  0
   24.1132   71.7077    2.1628 O   0  0  0  0  0  0  0  0  0  0  0  0
   21.7985   73.4395    5.1114 O   0  0  0  0  0  0  0  0  0  0  0  0
   24.2266   74.7260    4.2761 O   0  0  0  0  0  0  0  0  0  0  0  0
   20.5343   71.9873    2.9498 O   0  0  0  0  0  0  0  0  0  0  0  0
   22.3578   73.3106    3.8014 C   0  0  1  0  0  0  0  0  0  0  0  0
   23.8810   73.3902    3.9203 C   0  0  1  0  0  0  0  0  0  0  0  0
   21.9342   71.9685    3.2077 C   0  0  2  0  0  0  0  0  0  0  0  0
   24.5609   72.9953    2.6024 C   0  0  1  0  0  0  0  0  0  0  0  0
   22.7052   71.6494    1.9256 C   0  0  1  0  0  0  0  0  0  0  0  0
   22.0633   74.2899    5.4939 H   0  0  0  0  0  0  0  0  0  0  0  0
   23.7904   74.9630    5.1097 H   0  0  0  0  0  0  0  0  0  0  0  0
   20.0574   72.1900    3.7692 H   0  0  0  0  0  0  0  0  0  0  0  0
   26.6059   74.2281    2.6869 O   0  0  0  0  0  0  0  0  0  0  0  0
   26.0794   72.9152    2.7438 C   0  0  0  0  0  0  0  0  0  0  0  0
   27.5716   74.1927    2.7759 H   0  0  0  0  0  0  0  0  0  0  0  0
 25 28  1  0
 25 24  1  0
 25 26  1  1
 25 27  2  0
  1  4  1  0
  1 24  1  0
  1  2  1  1
  1  3  2  0
  6 11  1  0
  6 12  1  0
 29 36  1  0
 29 37  1  0
  9  7  1  1
  7 13  1  0
 10  8  1  1
  8 14  1  0
 37 28  1  6
  4  5  1  0
 33 30  1  1
 30 38  1  0
 34 31  1  6
 31 39  1  0
 35 32  1  6
 32 40  1  0
 41 42  1  0
 41 43  1  0
 15 19  2  0
 16 22  2  0
 12 17  1  6
 17 19  1  0
 17 20  1  0
 18 19  1  0
 18 22  1  0
 18 23  1  0
  9 10  1  0
  9 11  1  0
 10 12  1  0
 11  5  1  6
 33 34  1  0
 33 35  1  0
 34 36  1  0
 35 37  1  0
 36 42  1  1
 20 21  2  0
 21 22  1  0
M  CHG  2   2  -1  26  -1
M  END
>  <COMPND>  (161) 
    8629 

>  <AUTHOR>  (161) 
    GENERATED BY OPEN BABEL 3.1.1

>  <MASTER>  (161) 
        0    0    0    0    0    0    0    0   58    0   58    0

>  <minimizedAffinity>  (161) 
-7.85675

>  <CNNscore>  (161) 
0.9458703399

>  <CNNaffinity>  (161) 
4.7811064720

>  <CNN_VS>  (161) 
4.5223069191

>  <CNNaffinity_variance>  (161) 
0.0389783643

$$$$
162
     RDKit          3D

 43 45  0  0  0  0  0  0  0  0999 V2000
   21.6237   71.8543   -2.7904 P   0  0  2  0  0  0  0  0  0  0  0  0
   23.1426   71.5403   -2.3304 O   0  0  0  0  0  0  0  0  0  0  0  0
   21.0094   73.0701   -2.1611 O   0  0  0  0  0  0  0  0  0  0  0  0
   20.8439   70.4601   -2.5333 O   0  0  0  0  0  0  0  0  0  0  0  0
   20.0619   69.9191   -3.5838 C   0  0  0  0  0  0  0  0  0  0  0  0
   18.4039   71.2789   -4.6681 O   0  0  0  0  0  0  0  0  0  0  0  0
   16.4072   69.9492   -2.8692 O   0  0  0  0  0  0  0  0  0  0  0  0
   16.0676   68.6149   -5.2232 O   0  0  0  0  0  0  0  0  0  0  0  0
   17.5728   69.4022   -3.4836 C   0  0  1  0  0  0  0  0  0  0  0  0
   17.3343   69.1847   -4.9633 C   0  0  2  0  0  0  0  0  0  0  0  0
   18.6496   70.4801   -3.4900 C   0  0  1  0  0  0  0  0  0  0  0  0
   17.4654   70.5945   -5.5141 C   0  0  2  0  0  0  0  0  0  0  0  0
   15.7055   69.2789   -2.8533 H   0  0  0  0  0  0  0  0  0  0  0  0
   16.0339   67.7189   -4.8533 H   0  0  0  0  0  0  0  0  0  0  0  0
   15.8431   70.2806   -7.8049 O   0  0  0  0  0  0  0  0  0  0  0  0
   19.4540   70.6768  -10.6413 O   0  0  0  0  0  0  0  0  0  0  0  0
   17.9553   70.6119   -6.8636 N   0  0  0  0  0  0  0  0  0  0  0  0
   17.6423   70.4783   -9.2153 N   0  0  0  0  0  0  0  0  0  0  0  0
   17.0570   70.4442   -7.9432 C   0  0  0  0  0  0  0  0  0  0  0  0
   19.3125   70.7940   -7.1059 C   0  0  0  0  0  0  0  0  0  0  0  0
   19.8549   70.8227   -8.3250 C   0  0  0  0  0  0  0  0  0  0  0  0
   18.9855   70.6552   -9.5073 C   0  0  0  0  0  0  0  0  0  0  0  0
   17.0359   70.3633   -9.9827 H   0  0  0  0  0  0  0  0  0  0  0  0
   21.7371   71.9154   -4.4017 O   0  0  0  0  0  0  0  0  0  0  0  0
   22.3378   73.0523   -5.3813 P   0  0  2  0  0  0  0  0  0  0  0  0
   21.0502   73.9737   -5.7137 O   0  0  0  0  0  0  0  0  0  0  0  0
   23.0419   72.5119   -6.5921 O   0  0  0  0  0  0  0  0  0  0  0  0
   23.2596   73.9696   -4.4254 O   0  0  0  0  0  0  0  0  0  0  0  0
   22.4613   75.8258   -3.1869 O   0  0  0  0  0  0  0  0  0  0  0  0
   26.3893   77.0007   -3.6784 O   0  0  0  0  0  0  0  0  0  0  0  0
   25.4840   76.1232   -1.0979 O   0  0  0  0  0  0  0  0  0  0  0  0
   25.0035   75.6567   -5.8354 O   0  0  0  0  0  0  0  0  0  0  0  0
   25.3230   76.0676   -3.4837 C   0  0  1  0  0  0  0  0  0  0  0  0
   24.6065   76.4235   -2.1796 C   0  0  1  0  0  0  0  0  0  0  0  0
   24.3609   76.1551   -4.6670 C   0  0  2  0  0  0  0  0  0  0  0  0
   23.2946   75.6401   -2.0367 C   0  0  1  0  0  0  0  0  0  0  0  0
   23.0680   75.3817   -4.4020 C   0  0  1  0  0  0  0  0  0  0  0  0
   27.0040   76.9498   -2.9307 H   0  0  0  0  0  0  0  0  0  0  0  0
   26.3087   76.6239   -1.2004 H   0  0  0  0  0  0  0  0  0  0  0  0
   25.8203   76.1546   -5.9924 H   0  0  0  0  0  0  0  0  0  0  0  0
   22.9987   75.4439    0.3261 O   0  0  0  0  0  0  0  0  0  0  0  0
   22.4868   76.0939   -0.8227 C   0  0  0  0  0  0  0  0  0  0  0  0
   22.4943   75.7233    1.1067 H   0  0  0  0  0  0  0  0  0  0  0  0
 25 28  1  0
 25 24  1  0
 25 26  1  6
 25 27  2  0
  1  4  1  0
  1 24  1  0
  1  2  1  1
  1  3  2  0
  6 11  1  0
  6 12  1  0
 29 36  1  0
 29 37  1  0
  9  7  1  1
  7 13  1  0
 10  8  1  1
  8 14  1  0
 37 28  1  1
  4  5  1  0
 33 30  1  6
 30 38  1  0
 34 31  1  1
 31 39  1  0
 35 32  1  6
 32 40  1  0
 41 42  1  0
 41 43  1  0
 15 19  2  0
 16 22  2  0
 12 17  1  6
 17 19  1  0
 17 20  1  0
 18 19  1  0
 18 22  1  0
 18 23  1  0
  9 10  1  0
  9 11  1  0
 10 12  1  0
 11  5  1  6
 33 34  1  0
 33 35  1  0
 34 36  1  0
 35 37  1  0
 36 42  1  1
 20 21  2  0
 21 22  1  0
M  CHG  2   2  -1  26  -1
M  END
>  <COMPND>  (162) 
    8629 

>  <AUTHOR>  (162) 
    GENERATED BY OPEN BABEL 3.1.1

>  <MASTER>  (162) 
        0    0    0    0    0    0    0    0   58    0   58    0

>  <minimizedAffinity>  (162) 
-6.55458

>  <CNNscore>  (162) 
0.9365613461

>  <CNNaffinity>  (162) 
4.8091468811

>  <CNN_VS>  (162) 
4.5040612221

>  <CNNaffinity_variance>  (162) 
0.1328916103

$$$$
163
     RDKit          3D

 43 45  0  0  0  0  0  0  0  0999 V2000
   22.4999   71.6452   -2.8841 P   0  0  2  0  0  0  0  0  0  0  0  0
   22.3229   73.2289   -2.6051 O   0  0  0  0  0  0  0  0  0  0  0  0
   23.8896   71.2186   -3.2556 O   0  0  0  0  0  0  0  0  0  0  0  0
   21.3483   71.3111   -3.9704 O   0  0  0  0  0  0  0  0  0  0  0  0
   20.4377   70.2624   -3.6895 C   0  0  0  0  0  0  0  0  0  0  0  0
   18.7104   71.5496   -4.7541 O   0  0  0  0  0  0  0  0  0  0  0  0
   16.8485   70.3977   -2.7053 O   0  0  0  0  0  0  0  0  0  0  0  0
   16.3213   68.8792   -4.9082 O   0  0  0  0  0  0  0  0  0  0  0  0
   17.9602   69.7873   -3.3587 C   0  0  1  0  0  0  0  0  0  0  0  0
   17.6078   69.4521   -4.7930 C   0  0  2  0  0  0  0  0  0  0  0  0
   19.0403   70.8472   -3.5359 C   0  0  1  0  0  0  0  0  0  0  0  0
   17.7055   70.8102   -5.4671 C   0  0  2  0  0  0  0  0  0  0  0  0
   16.1458   69.7400   -2.5809 H   0  0  0  0  0  0  0  0  0  0  0  0
   16.3102   68.0170   -4.4639 H   0  0  0  0  0  0  0  0  0  0  0  0
   15.9428   70.1485   -7.5725 O   0  0  0  0  0  0  0  0  0  0  0  0
   19.2951   70.4554  -10.7203 O   0  0  0  0  0  0  0  0  0  0  0  0
   18.0909   70.7105   -6.8465 N   0  0  0  0  0  0  0  0  0  0  0  0
   17.6134   70.3020   -9.1382 N   0  0  0  0  0  0  0  0  0  0  0  0
   17.1285   70.3708   -7.8258 C   0  0  0  0  0  0  0  0  0  0  0  0
   19.4101   70.9486   -7.2165 C   0  0  0  0  0  0  0  0  0  0  0  0
   19.8566   70.8777   -8.4722 C   0  0  0  0  0  0  0  0  0  0  0  0
   18.9153   70.5287   -9.5558 C   0  0  0  0  0  0  0  0  0  0  0  0
   16.9610   70.0667   -9.8373 H   0  0  0  0  0  0  0  0  0  0  0  0
   21.9287   70.9715   -1.5302 O   0  0  0  0  0  0  0  0  0  0  0  0
   21.2792   71.6347   -0.2068 P   0  0  2  0  0  0  0  0  0  0  0  0
   21.0597   70.3668    0.7739 O   0  0  0  0  0  0  0  0  0  0  0  0
   20.0382   72.4384   -0.4671 O   0  0  0  0  0  0  0  0  0  0  0  0
   22.4863   72.4674    0.4673 O   0  0  0  0  0  0  0  0  0  0  0  0
   21.7271   73.9309    2.1698 O   0  0  0  0  0  0  0  0  0  0  0  0
   25.6124   75.2848    1.8199 O   0  0  0  0  0  0  0  0  0  0  0  0
   24.8439   73.7626    4.1309 O   0  0  0  0  0  0  0  0  0  0  0  0
   24.1395   74.4969   -0.5442 O   0  0  0  0  0  0  0  0  0  0  0  0
   24.5679   74.3078    1.8184 C   0  0  1  0  0  0  0  0  0  0  0  0
   23.9114   74.3055    3.2003 C   0  0  1  0  0  0  0  0  0  0  0  0
   23.5485   74.6686    0.7395 C   0  0  2  0  0  0  0  0  0  0  0  0
   22.6174   73.4805    3.1975 C   0  0  1  0  0  0  0  0  0  0  0  0
   22.2792   73.8228    0.8563 C   0  0  1  0  0  0  0  0  0  0  0  0
   26.2633   75.0614    2.5025 H   0  0  0  0  0  0  0  0  0  0  0  0
   25.6566   74.2924    4.1225 H   0  0  0  0  0  0  0  0  0  0  0  0
   24.9418   75.0376   -0.6056 H   0  0  0  0  0  0  0  0  0  0  0  0
   22.3698   72.6151    5.4108 O   0  0  0  0  0  0  0  0  0  0  0  0
   21.8642   73.5935    4.5212 C   0  0  0  0  0  0  0  0  0  0  0  0
   21.8999   72.6754    6.2577 H   0  0  0  0  0  0  0  0  0  0  0  0
 25 28  1  0
 25 24  1  0
 25 26  1  1
 25 27  2  0
  1  4  1  0
  1 24  1  0
  1  2  1  1
  1  3  2  0
  6 11  1  0
  6 12  1  0
 29 36  1  0
 29 37  1  0
  9  7  1  1
  7 13  1  0
 10  8  1  1
  8 14  1  0
 37 28  1  1
  4  5  1  0
 33 30  1  1
 30 38  1  0
 34 31  1  1
 31 39  1  0
 35 32  1  6
 32 40  1  0
 41 42  1  0
 41 43  1  0
 15 19  2  0
 16 22  2  0
 12 17  1  6
 17 19  1  0
 17 20  1  0
 18 19  1  0
 18 22  1  0
 18 23  1  0
  9 10  1  0
  9 11  1  0
 10 12  1  0
 11  5  1  6
 33 34  1  0
 33 35  1  0
 34 36  1  0
 35 37  1  0
 36 42  1  1
 20 21  2  0
 21 22  1  0
M  CHG  2   2  -1  26  -1
M  END
>  <COMPND>  (163) 
    8629 

>  <AUTHOR>  (163) 
    GENERATED BY OPEN BABEL 3.1.1

>  <MASTER>  (163) 
        0    0    0    0    0    0    0    0   58    0   58    0

>  <minimizedAffinity>  (163) 
-7.54892

>  <CNNscore>  (163) 
0.9320104718

>  <CNNaffinity>  (163) 
4.7552232742

>  <CNN_VS>  (163) 
4.4319176674

>  <CNNaffinity_variance>  (163) 
0.0402913652

$$$$
164
     RDKit          3D

 43 45  0  0  0  0  0  0  0  0999 V2000
   22.8624   71.7291   -2.8168 P   0  0  2  0  0  0  0  0  0  0  0  0
   24.1506   70.8040   -3.1365 O   0  0  0  0  0  0  0  0  0  0  0  0
   22.3594   71.6492   -1.4054 O   0  0  0  0  0  0  0  0  0  0  0  0
   21.7981   71.3236   -3.9660 O   0  0  0  0  0  0  0  0  0  0  0  0
   20.9002   70.2576   -3.7102 C   0  0  0  0  0  0  0  0  0  0  0  0
   19.0845   71.5364   -4.6278 O   0  0  0  0  0  0  0  0  0  0  0  0
   17.3984   70.3571   -2.4468 O   0  0  0  0  0  0  0  0  0  0  0  0
   16.7120   68.8468   -4.6111 O   0  0  0  0  0  0  0  0  0  0  0  0
   18.4602   69.7598   -3.1892 C   0  0  1  0  0  0  0  0  0  0  0  0
   17.9990   69.4299   -4.5936 C   0  0  2  0  0  0  0  0  0  0  0  0
   19.5146   70.8297   -3.4438 C   0  0  1  0  0  0  0  0  0  0  0  0
   18.0327   70.7925   -5.2645 C   0  0  2  0  0  0  0  0  0  0  0  0
   16.7128   69.6928   -2.2718 H   0  0  0  0  0  0  0  0  0  0  0  0
   16.7426   67.9821   -4.1729 H   0  0  0  0  0  0  0  0  0  0  0  0
   16.1194   70.1120   -7.2276 O   0  0  0  0  0  0  0  0  0  0  0  0
   19.2077   70.4822  -10.6285 O   0  0  0  0  0  0  0  0  0  0  0  0
   18.3094   70.7040   -6.6706 N   0  0  0  0  0  0  0  0  0  0  0  0
   17.6586   70.2971   -8.9194 N   0  0  0  0  0  0  0  0  0  0  0  0
   17.2780   70.3534   -7.5726 C   0  0  0  0  0  0  0  0  0  0  0  0
   19.5916   70.9637   -7.1423 C   0  0  0  0  0  0  0  0  0  0  0  0
   19.9386   70.9044   -8.4296 C   0  0  0  0  0  0  0  0  0  0  0  0
   18.9200   70.5452   -9.4373 C   0  0  0  0  0  0  0  0  0  0  0  0
   16.9567   70.0544   -9.5660 H   0  0  0  0  0  0  0  0  0  0  0  0
   23.3490   73.2008   -3.2752 O   0  0  0  0  0  0  0  0  0  0  0  0
   22.5235   74.5749   -3.4834 P   0  0  2  0  0  0  0  0  0  0  0  0
   23.3817   75.6550   -2.6383 O   0  0  0  0  0  0  0  0  0  0  0  0
   21.0770   74.4892   -3.0906 O   0  0  0  0  0  0  0  0  0  0  0  0
   22.7749   74.9725   -5.0273 O   0  0  0  0  0  0  0  0  0  0  0  0
   21.2418   75.7472   -6.6602 O   0  0  0  0  0  0  0  0  0  0  0  0
   23.6759   73.4495   -9.0781 O   0  0  0  0  0  0  0  0  0  0  0  0
   23.8079   76.3135   -9.2454 O   0  0  0  0  0  0  0  0  0  0  0  0
   23.0219   72.5420   -6.4082 O   0  0  0  0  0  0  0  0  0  0  0  0
   23.3749   74.3253   -7.9883 C   0  0  1  0  0  0  0  0  0  0  0  0
   22.7751   75.6120   -8.5587 C   0  0  1  0  0  0  0  0  0  0  0  0
   22.3813   73.6368   -7.0544 C   0  0  2  0  0  0  0  0  0  0  0  0
   22.1828   76.4877   -7.4463 C   0  0  1  0  0  0  0  0  0  0  0  0
   21.8157   74.6079   -6.0164 C   0  0  1  0  0  0  0  0  0  0  0  0
   24.3067   73.8805   -9.6746 H   0  0  0  0  0  0  0  0  0  0  0  0
   24.1737   75.7494   -9.9448 H   0  0  0  0  0  0  0  0  0  0  0  0
   23.3754   71.9345   -7.0759 H   0  0  0  0  0  0  0  0  0  0  0  0
   22.3887   78.7057   -8.3108 O   0  0  0  0  0  0  0  0  0  0  0  0
   21.4407   77.6993   -8.0062 C   0  0  0  0  0  0  0  0  0  0  0  0
   21.9307   79.4828   -8.6684 H   0  0  0  0  0  0  0  0  0  0  0  0
 25 28  1  0
 25 24  1  0
 25 26  1  1
 25 27  2  0
  1  4  1  0
  1 24  1  0
  1  2  1  1
  1  3  2  0
  6 11  1  0
  6 12  1  0
 29 36  1  0
 29 37  1  0
  9  7  1  1
  7 13  1  0
 10  8  1  1
  8 14  1  0
 37 28  1  1
  4  5  1  0
 33 30  1  6
 30 38  1  0
 34 31  1  1
 31 39  1  0
 35 32  1  1
 32 40  1  0
 41 42  1  0
 41 43  1  0
 15 19  2  0
 16 22  2  0
 12 17  1  6
 17 19  1  0
 17 20  1  0
 18 19  1  0
 18 22  1  0
 18 23  1  0
  9 10  1  0
  9 11  1  0
 10 12  1  0
 11  5  1  6
 33 34  1  0
 33 35  1  0
 34 36  1  0
 35 37  1  0
 36 42  1  6
 20 21  2  0
 21 22  1  0
M  CHG  2   2  -1  26  -1
M  END
>  <COMPND>  (164) 
    8629 

>  <AUTHOR>  (164) 
    GENERATED BY OPEN BABEL 3.1.1

>  <MASTER>  (164) 
        0    0    0    0    0    0    0    0   58    0   58    0

>  <minimizedAffinity>  (164) 
-7.01204

>  <CNNscore>  (164) 
0.9064939618

>  <CNNaffinity>  (164) 
4.6949319839

>  <CNN_VS>  (164) 
4.2559275627

>  <CNNaffinity_variance>  (164) 
0.2087720931

$$$$
165
     RDKit          3D

 43 45  0  0  0  0  0  0  0  0999 V2000
   22.7457   72.1098   -3.8392 P   0  0  2  0  0  0  0  0  0  0  0  0
   23.3807   72.9941   -5.0358 O   0  0  0  0  0  0  0  0  0  0  0  0
   23.7110   71.1919   -3.1485 O   0  0  0  0  0  0  0  0  0  0  0  0
   21.4635   71.3967   -4.5214 O   0  0  0  0  0  0  0  0  0  0  0  0
   20.7234   70.4614   -3.7564 C   0  0  0  0  0  0  0  0  0  0  0  0
   18.8905   71.6528   -4.7537 O   0  0  0  0  0  0  0  0  0  0  0  0
   17.1966   70.5061   -2.5613 O   0  0  0  0  0  0  0  0  0  0  0  0
   16.5946   68.8985   -4.6802 O   0  0  0  0  0  0  0  0  0  0  0  0
   18.2888   69.9128   -3.2617 C   0  0  1  0  0  0  0  0  0  0  0  0
   17.8642   69.5187   -4.6609 C   0  0  2  0  0  0  0  0  0  0  0  0
   19.3174   71.0027   -3.5365 C   0  0  1  0  0  0  0  0  0  0  0  0
   17.8725   70.8562   -5.3813 C   0  0  2  0  0  0  0  0  0  0  0  0
   16.5267   69.8292   -2.3742 H   0  0  0  0  0  0  0  0  0  0  0  0
   16.6411   68.0516   -4.2097 H   0  0  0  0  0  0  0  0  0  0  0  0
   15.9907   70.1564   -7.3680 O   0  0  0  0  0  0  0  0  0  0  0  0
   19.1599   70.3782  -10.7070 O   0  0  0  0  0  0  0  0  0  0  0  0
   18.1785   70.7243   -6.7778 N   0  0  0  0  0  0  0  0  0  0  0  0
   17.5702   70.2676   -9.0290 N   0  0  0  0  0  0  0  0  0  0  0  0
   17.1609   70.3676   -7.6931 C   0  0  0  0  0  0  0  0  0  0  0  0
   19.4753   70.9481   -7.2272 C   0  0  0  0  0  0  0  0  0  0  0  0
   19.8496   70.8474   -8.5043 C   0  0  0  0  0  0  0  0  0  0  0  0
   18.8470   70.4790   -9.5247 C   0  0  0  0  0  0  0  0  0  0  0  0
   16.8784   70.0199   -9.6846 H   0  0  0  0  0  0  0  0  0  0  0  0
   22.0740   73.2245   -2.8804 O   0  0  0  0  0  0  0  0  0  0  0  0
   22.7389   74.2825   -1.8550 P   0  0  2  0  0  0  0  0  0  0  0  0
   21.8285   75.6063   -2.0458 O   0  0  0  0  0  0  0  0  0  0  0  0
   24.2082   74.5055   -2.0677 O   0  0  0  0  0  0  0  0  0  0  0  0
   22.3516   73.7293   -0.3891 O   0  0  0  0  0  0  0  0  0  0  0  0
   22.7838   71.4367    0.0276 O   0  0  0  0  0  0  0  0  0  0  0  0
   20.1903   72.1972    3.1495 O   0  0  0  0  0  0  0  0  0  0  0  0
   22.9865   71.8235    3.6880 O   0  0  0  0  0  0  0  0  0  0  0  0
   19.7307   73.4111    0.5621 O   0  0  0  0  0  0  0  0  0  0  0  0
   21.2288   72.5020    2.2146 C   0  0  1  0  0  0  0  0  0  0  0  0
   22.3782   71.5169    2.4365 C   0  0  1  0  0  0  0  0  0  0  0  0
   20.6768   72.3735    0.7960 C   0  0  2  0  0  0  0  0  0  0  0  0
   23.4105   71.6060    1.3045 C   0  0  1  0  0  0  0  0  0  0  0  0
   21.7912   72.4262   -0.2506 C   0  0  1  0  0  0  0  0  0  0  0  0
   20.5341   72.2775    4.0522 H   0  0  0  0  0  0  0  0  0  0  0  0
   22.3238   71.7640    4.3941 H   0  0  0  0  0  0  0  0  0  0  0  0
   19.0304   73.3668    1.2309 H   0  0  0  0  0  0  0  0  0  0  0  0
   25.4427   70.9459    2.3738 O   0  0  0  0  0  0  0  0  0  0  0  0
   24.4828   70.5251    1.4220 C   0  0  0  0  0  0  0  0  0  0  0  0
   26.1313   70.2675    2.4593 H   0  0  0  0  0  0  0  0  0  0  0  0
 25 28  1  0
 25 24  1  0
 25 26  1  6
 25 27  2  0
  1  4  1  0
  1 24  1  0
  1  2  1  6
  1  3  2  0
  6 11  1  0
  6 12  1  0
 29 36  1  0
 29 37  1  0
  9  7  1  1
  7 13  1  0
 10  8  1  1
  8 14  1  0
 37 28  1  1
  4  5  1  0
 33 30  1  1
 30 38  1  0
 34 31  1  1
 31 39  1  0
 35 32  1  6
 32 40  1  0
 41 42  1  0
 41 43  1  0
 15 19  2  0
 16 22  2  0
 12 17  1  6
 17 19  1  0
 17 20  1  0
 18 19  1  0
 18 22  1  0
 18 23  1  0
  9 10  1  0
  9 11  1  0
 10 12  1  0
 11  5  1  6
 33 34  1  0
 33 35  1  0
 34 36  1  0
 35 37  1  0
 36 42  1  1
 20 21  2  0
 21 22  1  0
M  CHG  2   2  -1  26  -1
M  END
>  <COMPND>  (165) 
    8629 

>  <AUTHOR>  (165) 
    GENERATED BY OPEN BABEL 3.1.1

>  <MASTER>  (165) 
        0    0    0    0    0    0    0    0   58    0   58    0

>  <minimizedAffinity>  (165) 
-7.45871

>  <CNNscore>  (165) 
0.8781701922

>  <CNNaffinity>  (165) 
4.7016782761

>  <CNN_VS>  (165) 
4.1288738251

>  <CNNaffinity_variance>  (165) 
0.0575942397

$$$$
166
     RDKit          3D

 43 45  0  0  0  0  0  0  0  0999 V2000
   21.7206   71.8390   -2.7476 P   0  0  2  0  0  0  0  0  0  0  0  0
   23.2183   71.4903   -2.2450 O   0  0  0  0  0  0  0  0  0  0  0  0
   21.1100   73.0585   -2.1219 O   0  0  0  0  0  0  0  0  0  0  0  0
   20.9072   70.4570   -2.5327 O   0  0  0  0  0  0  0  0  0  0  0  0
   20.1174   69.9642   -3.6010 C   0  0  0  0  0  0  0  0  0  0  0  0
   18.4586   71.3299   -4.6767 O   0  0  0  0  0  0  0  0  0  0  0  0
   16.4773   70.0578   -2.8200 O   0  0  0  0  0  0  0  0  0  0  0  0
   16.0754   68.6909   -5.1452 O   0  0  0  0  0  0  0  0  0  0  0  0
   17.6235   69.4845   -3.4467 C   0  0  1  0  0  0  0  0  0  0  0  0
   17.3546   69.2467   -4.9180 C   0  0  2  0  0  0  0  0  0  0  0  0
   18.7150   70.5466   -3.4905 C   0  0  1  0  0  0  0  0  0  0  0  0
   17.4951   70.6454   -5.4941 C   0  0  2  0  0  0  0  0  0  0  0  0
   15.7668   69.3979   -2.7802 H   0  0  0  0  0  0  0  0  0  0  0  0
   16.0361   67.8015   -4.7603 H   0  0  0  0  0  0  0  0  0  0  0  0
   15.8423   70.2099   -7.7428 O   0  0  0  0  0  0  0  0  0  0  0  0
   19.3881   70.6228  -10.6579 O   0  0  0  0  0  0  0  0  0  0  0  0
   17.9600   70.6342   -6.8524 N   0  0  0  0  0  0  0  0  0  0  0  0
   17.6092   70.4160   -9.1925 N   0  0  0  0  0  0  0  0  0  0  0  0
   17.0481   70.4052   -7.9091 C   0  0  0  0  0  0  0  0  0  0  0  0
   19.3064   70.8489   -7.1258 C   0  0  0  0  0  0  0  0  0  0  0  0
   19.8259   70.8548   -8.3552 C   0  0  0  0  0  0  0  0  0  0  0  0
   18.9409   70.6235   -9.5152 C   0  0  0  0  0  0  0  0  0  0  0  0
   16.9929   70.2584   -9.9442 H   0  0  0  0  0  0  0  0  0  0  0  0
   21.8852   71.9178   -4.3537 O   0  0  0  0  0  0  0  0  0  0  0  0
   22.5066   73.0701   -5.3019 P   0  0  2  0  0  0  0  0  0  0  0  0
   23.0010   72.2507   -6.6063 O   0  0  0  0  0  0  0  0  0  0  0  0
   23.5760   73.8955   -4.6470 O   0  0  0  0  0  0  0  0  0  0  0  0
   21.2281   73.9137   -5.8108 O   0  0  0  0  0  0  0  0  0  0  0  0
   21.2711   76.2725   -6.0364 O   0  0  0  0  0  0  0  0  0  0  0  0
   17.2109   75.7337   -5.5121 O   0  0  0  0  0  0  0  0  0  0  0  0
   18.2245   76.4379   -8.1052 O   0  0  0  0  0  0  0  0  0  0  0  0
   19.0874   74.1222   -4.0083 O   0  0  0  0  0  0  0  0  0  0  0  0
   18.5214   75.3945   -5.9735 C   0  0  1  0  0  0  0  0  0  0  0  0
   19.0011   76.5033   -6.9123 C   0  0  1  0  0  0  0  0  0  0  0  0
   19.4558   75.2656   -4.7721 C   0  0  2  0  0  0  0  0  0  0  0  0
   20.4929   76.3476   -7.2367 C   0  0  1  0  0  0  0  0  0  0  0  0
   20.9201   75.1657   -5.2035 C   0  0  1  0  0  0  0  0  0  0  0  0
   16.6124   75.8166   -6.2700 H   0  0  0  0  0  0  0  0  0  0  0  0
   17.2846   76.5371   -7.8864 H   0  0  0  0  0  0  0  0  0  0  0  0
   18.1586   74.1976   -3.7410 H   0  0  0  0  0  0  0  0  0  0  0  0
   20.8266   77.2627   -9.4185 O   0  0  0  0  0  0  0  0  0  0  0  0
   21.0292   77.5286   -8.0428 C   0  0  0  0  0  0  0  0  0  0  0  0
   21.1629   78.0061   -9.9438 H   0  0  0  0  0  0  0  0  0  0  0  0
 25 28  1  0
 25 24  1  0
 25 26  1  6
 25 27  2  0
  1  4  1  0
  1 24  1  0
  1  2  1  1
  1  3  2  0
  6 11  1  0
  6 12  1  0
 29 36  1  0
 29 37  1  0
  9  7  1  1
  7 13  1  0
 10  8  1  1
  8 14  1  0
 37 28  1  6
  4  5  1  0
 33 30  1  1
 30 38  1  0
 34 31  1  6
 31 39  1  0
 35 32  1  6
 32 40  1  0
 41 42  1  0
 41 43  1  0
 15 19  2  0
 16 22  2  0
 12 17  1  6
 17 19  1  0
 17 20  1  0
 18 19  1  0
 18 22  1  0
 18 23  1  0
  9 10  1  0
  9 11  1  0
 10 12  1  0
 11  5  1  6
 33 34  1  0
 33 35  1  0
 34 36  1  0
 35 37  1  0
 36 42  1  6
 20 21  2  0
 21 22  1  0
M  CHG  2   2  -1  26  -1
M  END
>  <COMPND>  (166) 
    8629 

>  <AUTHOR>  (166) 
    GENERATED BY OPEN BABEL 3.1.1

>  <MASTER>  (166) 
        0    0    0    0    0    0    0    0   58    0   58    0

>  <minimizedAffinity>  (166) 
-6.54083

>  <CNNscore>  (166) 
0.8618453145

>  <CNNaffinity>  (166) 
4.5574851036

>  <CNN_VS>  (166) 
3.9278471470

>  <CNNaffinity_variance>  (166) 
0.1768548787

$$$$
167
     RDKit          3D

 43 45  0  0  0  0  0  0  0  0999 V2000
   20.9180   72.5595   -2.7840 P   0  0  2  0  0  0  0  0  0  0  0  0
   22.0293   72.8310   -1.6400 O   0  0  0  0  0  0  0  0  0  0  0  0
   19.9757   73.6997   -3.0355 O   0  0  0  0  0  0  0  0  0  0  0  0
   20.2303   71.1656   -2.3344 O   0  0  0  0  0  0  0  0  0  0  0  0
   19.5900   70.3778   -3.3229 C   0  0  0  0  0  0  0  0  0  0  0  0
   17.8483   71.4683   -4.5683 O   0  0  0  0  0  0  0  0  0  0  0  0
   15.9227   69.8884   -2.8990 O   0  0  0  0  0  0  0  0  0  0  0  0
   15.9705   68.4869   -5.2378 O   0  0  0  0  0  0  0  0  0  0  0  0
   17.2007   69.5075   -3.4058 C   0  0  1  0  0  0  0  0  0  0  0  0
   17.1172   69.2375   -4.8936 C   0  0  2  0  0  0  0  0  0  0  0  0
   18.1090   70.7297   -3.3547 C   0  0  1  0  0  0  0  0  0  0  0  0
   17.0896   70.6437   -5.4679 C   0  0  2  0  0  0  0  0  0  0  0  0
   15.3252   69.1239   -2.9213 H   0  0  0  0  0  0  0  0  0  0  0  0
   16.0354   67.6006   -4.8492 H   0  0  0  0  0  0  0  0  0  0  0  0
   15.7139   70.0922   -7.8724 O   0  0  0  0  0  0  0  0  0  0  0  0
   19.4573   70.9415  -10.4232 O   0  0  0  0  0  0  0  0  0  0  0  0
   17.6802   70.7133   -6.7747 N   0  0  0  0  0  0  0  0  0  0  0  0
   17.5789   70.5157   -9.1405 N   0  0  0  0  0  0  0  0  0  0  0  0
   16.9025   70.4160   -7.9180 C   0  0  0  0  0  0  0  0  0  0  0  0
   19.0162   71.0736   -6.9130 C   0  0  0  0  0  0  0  0  0  0  0  0
   19.6468   71.1628   -8.0860 C   0  0  0  0  0  0  0  0  0  0  0  0
   18.9057   70.8684   -9.3294 C   0  0  0  0  0  0  0  0  0  0  0  0
   17.0572   70.3127   -9.9507 H   0  0  0  0  0  0  0  0  0  0  0  0
   21.8096   72.1291   -4.0618 O   0  0  0  0  0  0  0  0  0  0  0  0
   23.0194   72.8901   -4.8169 P   0  0  2  0  0  0  0  0  0  0  0  0
   22.9571   72.2886   -6.3175 O   0  0  0  0  0  0  0  0  0  0  0  0
   24.3539   72.7420   -4.1453 O   0  0  0  0  0  0  0  0  0  0  0  0
   22.5120   74.4149   -4.9676 O   0  0  0  0  0  0  0  0  0  0  0  0
   20.8544   74.7089   -6.6356 O   0  0  0  0  0  0  0  0  0  0  0  0
   21.8113   78.6671   -5.9514 O   0  0  0  0  0  0  0  0  0  0  0  0
   19.3020   77.6323   -5.0130 O   0  0  0  0  0  0  0  0  0  0  0  0
   23.8930   76.6556   -5.9408 O   0  0  0  0  0  0  0  0  0  0  0  0
   21.5974   77.2982   -5.5967 C   0  0  1  0  0  0  0  0  0  0  0  0
   20.1473   76.9384   -5.9264 C   0  0  1  0  0  0  0  0  0  0  0  0
   22.5630   76.4201   -6.3903 C   0  0  2  0  0  0  0  0  0  0  0  0
   19.9153   75.4248   -5.8248 C   0  0  1  0  0  0  0  0  0  0  0  0
   22.2142   74.9363   -6.2601 C   0  0  1  0  0  0  0  0  0  0  0  0
   21.2016   79.2300   -5.4506 H   0  0  0  0  0  0  0  0  0  0  0  0
   19.4587   78.5868   -5.0869 H   0  0  0  0  0  0  0  0  0  0  0  0
   24.1017   77.5982   -6.0286 H   0  0  0  0  0  0  0  0  0  0  0  0
   17.9109   74.2360   -5.2974 O   0  0  0  0  0  0  0  0  0  0  0  0
   18.5201   75.0268   -6.3014 C   0  0  0  0  0  0  0  0  0  0  0  0
   17.0220   73.9756   -5.5868 H   0  0  0  0  0  0  0  0  0  0  0  0
 25 28  1  0
 25 24  1  0
 25 26  1  6
 25 27  2  0
  1  4  1  0
  1 24  1  0
  1  2  1  1
  1  3  2  0
  6 11  1  0
  6 12  1  0
 29 36  1  0
 29 37  1  0
  9  7  1  6
  7 13  1  0
 10  8  1  1
  8 14  1  0
 37 28  1  1
  4  5  1  0
 33 30  1  6
 30 38  1  0
 34 31  1  1
 31 39  1  0
 35 32  1  1
 32 40  1  0
 41 42  1  0
 41 43  1  0
 15 19  2  0
 16 22  2  0
 12 17  1  6
 17 19  1  0
 17 20  1  0
 18 19  1  0
 18 22  1  0
 18 23  1  0
  9 10  1  0
  9 11  1  0
 10 12  1  0
 11  5  1  6
 33 34  1  0
 33 35  1  0
 34 36  1  0
 35 37  1  0
 36 42  1  6
 20 21  2  0
 21 22  1  0
M  CHG  2   2  -1  26  -1
M  END
>  <COMPND>  (167) 
    8629 

>  <AUTHOR>  (167) 
    GENERATED BY OPEN BABEL 3.1.1

>  <MASTER>  (167) 
        0    0    0    0    0    0    0    0   58    0   58    0

>  <minimizedAffinity>  (167) 
-6.40010

>  <CNNscore>  (167) 
0.8162404895

>  <CNNaffinity>  (167) 
4.4236311913

>  <CNN_VS>  (167) 
3.6107468605

>  <CNNaffinity_variance>  (167) 
0.2473543435

$$$$
168
     RDKit          3D

 43 45  0  0  0  0  0  0  0  0999 V2000
   20.3012   72.5751   -1.0664 P   0  0  2  0  0  0  0  0  0  0  0  0
   19.3851   71.4254   -1.7419 O   0  0  0  0  0  0  0  0  0  0  0  0
   19.6988   73.2406    0.1359 O   0  0  0  0  0  0  0  0  0  0  0  0
   20.6688   73.5541   -2.3010 O   0  0  0  0  0  0  0  0  0  0  0  0
   20.1980   73.2174   -3.5943 C   0  0  0  0  0  0  0  0  0  0  0  0
   20.6244   71.2910   -4.9659 O   0  0  0  0  0  0  0  0  0  0  0  0
   23.2407   72.5879   -5.6472 O   0  0  0  0  0  0  0  0  0  0  0  0
   21.7163   73.1367   -7.8407 O   0  0  0  0  0  0  0  0  0  0  0  0
   21.9668   73.1897   -5.4229 C   0  0  1  0  0  0  0  0  0  0  0  0
   21.0544   72.9461   -6.6068 C   0  0  2  0  0  0  0  0  0  0  0  0
   21.2675   72.4096   -4.3166 C   0  0  1  0  0  0  0  0  0  0  0  0
   20.6314   71.5035   -6.3870 C   0  0  2  0  0  0  0  0  0  0  0  0
   23.7064   73.0693   -6.3496 H   0  0  0  0  0  0  0  0  0  0  0  0
   21.9651   74.0696   -7.9336 H   0  0  0  0  0  0  0  0  0  0  0  0
   20.0551   71.0596   -9.1163 O   0  0  0  0  0  0  0  0  0  0  0  0
   15.5644   70.4732   -8.2614 O   0  0  0  0  0  0  0  0  0  0  0  0
   19.3203   71.2322   -6.9055 N   0  0  0  0  0  0  0  0  0  0  0  0
   17.8196   70.7678   -8.6884 N   0  0  0  0  0  0  0  0  0  0  0  0
   19.1384   71.0249   -8.2927 C   0  0  0  0  0  0  0  0  0  0  0  0
   18.2320   71.1736   -6.0418 C   0  0  0  0  0  0  0  0  0  0  0  0
   16.9804   70.9287   -6.4351 C   0  0  0  0  0  0  0  0  0  0  0  0
   16.7044   70.7007   -7.8683 C   0  0  0  0  0  0  0  0  0  0  0  0
   17.6687   70.6206   -9.6503 H   0  0  0  0  0  0  0  0  0  0  0  0
   21.6959   71.8086   -0.7829 O   0  0  0  0  0  0  0  0  0  0  0  0
   22.3791   71.3245    0.5998 P   0  0  2  0  0  0  0  0  0  0  0  0
   23.9098   71.0225    0.1715 O   0  0  0  0  0  0  0  0  0  0  0  0
   21.6816   70.1706    1.2599 O   0  0  0  0  0  0  0  0  0  0  0  0
   22.4643   72.6597    1.5027 O   0  0  0  0  0  0  0  0  0  0  0  0
   23.6597   73.2793    3.4530 O   0  0  0  0  0  0  0  0  0  0  0  0
   19.9552   74.8178    4.4330 O   0  0  0  0  0  0  0  0  0  0  0  0
   22.0916   76.6038    3.7303 O   0  0  0  0  0  0  0  0  0  0  0  0
   20.1452   72.2882    3.0385 O   0  0  0  0  0  0  0  0  0  0  0  0
   21.0304   74.4673    3.5575 C   0  0  1  0  0  0  0  0  0  0  0  0
   22.2828   75.2200    4.0109 C   0  0  1  0  0  0  0  0  0  0  0  0
   21.2565   72.9581    3.6240 C   0  0  2  0  0  0  0  0  0  0  0  0
   23.5339   74.6970    3.2923 C   0  0  1  0  0  0  0  0  0  0  0  0
   22.5523   72.5496    2.9209 C   0  0  1  0  0  0  0  0  0  0  0  0
   19.8061   75.7748    4.3952 H   0  0  0  0  0  0  0  0  0  0  0  0
   21.2982   76.9215    4.1896 H   0  0  0  0  0  0  0  0  0  0  0  0
   19.3312   72.5549    3.4925 H   0  0  0  0  0  0  0  0  0  0  0  0
   25.0193   76.5661    3.1960 O   0  0  0  0  0  0  0  0  0  0  0  0
   24.8133   75.3235    3.8425 C   0  0  0  0  0  0  0  0  0  0  0  0
   25.8301   76.9765    3.5365 H   0  0  0  0  0  0  0  0  0  0  0  0
 25 28  1  0
 25 24  1  0
 25 26  1  6
 25 27  2  0
  1  4  1  0
  1 24  1  0
  1  2  1  6
  1  3  2  0
  6 11  1  0
  6 12  1  0
 29 36  1  0
 29 37  1  0
  9  7  1  6
  7 13  1  0
 10  8  1  6
  8 14  1  0
 37 28  1  6
  4  5  1  0
 33 30  1  1
 30 38  1  0
 34 31  1  6
 31 39  1  0
 35 32  1  6
 32 40  1  0
 41 42  1  0
 41 43  1  0
 15 19  2  0
 16 22  2  0
 12 17  1  1
 17 19  1  0
 17 20  1  0
 18 19  1  0
 18 22  1  0
 18 23  1  0
  9 10  1  0
  9 11  1  0
 10 12  1  0
 11  5  1  6
 33 34  1  0
 33 35  1  0
 34 36  1  0
 35 37  1  0
 36 42  1  1
 20 21  2  0
 21 22  1  0
M  CHG  2   2  -1  26  -1
M  END
>  <COMPND>  (168) 
    8629 

>  <AUTHOR>  (168) 
    GENERATED BY OPEN BABEL 3.1.1

>  <MASTER>  (168) 
        0    0    0    0    0    0    0    0   58    0   58    0

>  <minimizedAffinity>  (168) 
-6.43030

>  <CNNscore>  (168) 
0.7779232264

>  <CNNaffinity>  (168) 
4.4575643539

>  <CNN_VS>  (168) 
3.4676427841

>  <CNNaffinity_variance>  (168) 
0.1434289366

$$$$
169
     RDKit          3D

 43 45  0  0  0  0  0  0  0  0999 V2000
   20.4771   71.2508   -1.2337 P   0  0  2  0  0  0  0  0  0  0  0  0
   20.8674   70.6741    0.2266 O   0  0  0  0  0  0  0  0  0  0  0  0
   19.9619   72.6600   -1.2417 O   0  0  0  0  0  0  0  0  0  0  0  0
   19.4754   70.1329   -1.8377 O   0  0  0  0  0  0  0  0  0  0  0  0
   19.1601   70.1828   -3.2182 C   0  0  0  0  0  0  0  0  0  0  0  0
   17.4959   71.2458   -4.5872 O   0  0  0  0  0  0  0  0  0  0  0  0
   15.4931   69.5366   -3.1526 O   0  0  0  0  0  0  0  0  0  0  0  0
   15.8144   68.2177   -5.5178 O   0  0  0  0  0  0  0  0  0  0  0  0
   16.8272   69.2231   -3.5493 C   0  0  1  0  0  0  0  0  0  0  0  0
   16.8921   69.0005   -5.0459 C   0  0  2  0  0  0  0  0  0  0  0  0
   17.6749   70.4774   -3.3773 C   0  0  1  0  0  0  0  0  0  0  0  0
   16.8583   70.4231   -5.5779 C   0  0  2  0  0  0  0  0  0  0  0  0
   14.9329   68.7505   -3.2534 H   0  0  0  0  0  0  0  0  0  0  0  0
   15.8805   67.3220   -5.1516 H   0  0  0  0  0  0  0  0  0  0  0  0
   15.6265   70.4147   -8.1196 O   0  0  0  0  0  0  0  0  0  0  0  0
   19.6619   70.9533  -10.2799 O   0  0  0  0  0  0  0  0  0  0  0  0
   17.5631   70.5598   -6.8213 N   0  0  0  0  0  0  0  0  0  0  0  0
   17.6368   70.6830   -9.1932 N   0  0  0  0  0  0  0  0  0  0  0  0
   16.8502   70.5417   -8.0428 C   0  0  0  0  0  0  0  0  0  0  0  0
   18.9456   70.7100   -6.8214 C   0  0  0  0  0  0  0  0  0  0  0  0
   19.6810   70.8423   -7.9272 C   0  0  0  0  0  0  0  0  0  0  0  0
   19.0134   70.8338   -9.2449 C   0  0  0  0  0  0  0  0  0  0  0  0
   17.1618   70.6730  -10.0558 H   0  0  0  0  0  0  0  0  0  0  0  0
   21.8310   71.0247   -2.0875 O   0  0  0  0  0  0  0  0  0  0  0  0
   22.9466   72.0732   -2.6059 P   0  0  2  0  0  0  0  0  0  0  0  0
   24.1233   71.1155   -3.1677 O   0  0  0  0  0  0  0  0  0  0  0  0
   23.3943   73.0595   -1.5663 O   0  0  0  0  0  0  0  0  0  0  0  0
   22.2988   72.7399   -3.9253 O   0  0  0  0  0  0  0  0  0  0  0  0
   22.7046   75.0469   -4.2855 O   0  0  0  0  0  0  0  0  0  0  0  0
   19.4811   74.5411   -6.8161 O   0  0  0  0  0  0  0  0  0  0  0  0
   22.1080   74.8992   -7.9202 O   0  0  0  0  0  0  0  0  0  0  0  0
   19.5467   73.1674   -4.2689 O   0  0  0  0  0  0  0  0  0  0  0  0
   20.6851   74.1565   -6.1469 C   0  0  1  0  0  0  0  0  0  0  0  0
   21.7913   75.1333   -6.5508 C   0  0  1  0  0  0  0  0  0  0  0  0
   20.4534   74.2010   -4.6376 C   0  0  2  0  0  0  0  0  0  0  0  0
   23.0383   74.9510   -5.6751 C   0  0  1  0  0  0  0  0  0  0  0  0
   21.7635   74.0592   -3.8606 C   0  0  1  0  0  0  0  0  0  0  0  0
   19.6213   74.5145   -7.7748 H   0  0  0  0  0  0  0  0  0  0  0  0
   21.3121   75.0171   -8.4622 H   0  0  0  0  0  0  0  0  0  0  0  0
   18.7213   73.2684   -4.7673 H   0  0  0  0  0  0  0  0  0  0  0  0
   23.4412   77.1888   -6.4092 O   0  0  0  0  0  0  0  0  0  0  0  0
   24.0945   76.0179   -5.9549 C   0  0  0  0  0  0  0  0  0  0  0  0
   24.1012   77.8767   -6.5909 H   0  0  0  0  0  0  0  0  0  0  0  0
 25 28  1  0
 25 24  1  0
 25 26  1  6
 25 27  2  0
  1  4  1  0
  1 24  1  0
  1  2  1  1
  1  3  2  0
  6 11  1  0
  6 12  1  0
 29 36  1  0
 29 37  1  0
  9  7  1  6
  7 13  1  0
 10  8  1  6
  8 14  1  0
 37 28  1  6
  4  5  1  0
 33 30  1  6
 30 38  1  0
 34 31  1  6
 31 39  1  0
 35 32  1  1
 32 40  1  0
 41 42  1  0
 41 43  1  0
 15 19  2  0
 16 22  2  0
 12 17  1  6
 17 19  1  0
 17 20  1  0
 18 19  1  0
 18 22  1  0
 18 23  1  0
  9 10  1  0
  9 11  1  0
 10 12  1  0
 11  5  1  6
 33 34  1  0
 33 35  1  0
 34 36  1  0
 35 37  1  0
 36 42  1  6
 20 21  2  0
 21 22  1  0
M  CHG  2   2  -1  26  -1
M  END
>  <COMPND>  (169) 
    8629 

>  <AUTHOR>  (169) 
    GENERATED BY OPEN BABEL 3.1.1

>  <MASTER>  (169) 
        0    0    0    0    0    0    0    0   58    0   58    0

>  <minimizedAffinity>  (169) 
-7.37825

>  <CNNscore>  (169) 
0.7740163207

>  <CNNaffinity>  (169) 
4.4737200737

>  <CNN_VS>  (169) 
3.4627323151

>  <CNNaffinity_variance>  (169) 
0.6421667933

$$$$
170
     RDKit          3D

 43 45  0  0  0  0  0  0  0  0999 V2000
   19.6753   73.2131   -1.1563 P   0  0  2  0  0  0  0  0  0  0  0  0
   19.1294   71.7652   -1.6288 O   0  0  0  0  0  0  0  0  0  0  0  0
   18.6132   74.1800   -0.7221 O   0  0  0  0  0  0  0  0  0  0  0  0
   20.6060   73.6980   -2.3877 O   0  0  0  0  0  0  0  0  0  0  0  0
   20.1933   73.3924   -3.7084 C   0  0  0  0  0  0  0  0  0  0  0  0
   20.5988   71.3868   -4.9682 O   0  0  0  0  0  0  0  0  0  0  0  0
   23.2476   72.5957   -5.6845 O   0  0  0  0  0  0  0  0  0  0  0  0
   21.7604   73.0530   -7.9241 O   0  0  0  0  0  0  0  0  0  0  0  0
   21.9830   73.2325   -5.5096 C   0  0  1  0  0  0  0  0  0  0  0  0
   21.0803   72.9421   -6.6904 C   0  0  2  0  0  0  0  0  0  0  0  0
   21.2556   72.5268   -4.3720 C   0  0  1  0  0  0  0  0  0  0  0  0
   20.6268   71.5218   -6.3985 C   0  0  2  0  0  0  0  0  0  0  0  0
   23.7309   73.0294   -6.4058 H   0  0  0  0  0  0  0  0  0  0  0  0
   22.0283   73.9747   -8.0640 H   0  0  0  0  0  0  0  0  0  0  0  0
   20.0628   71.0247   -9.1211 O   0  0  0  0  0  0  0  0  0  0  0  0
   15.5642   70.4818   -8.2793 O   0  0  0  0  0  0  0  0  0  0  0  0
   19.3170   71.2472   -6.9185 N   0  0  0  0  0  0  0  0  0  0  0  0
   17.8233   70.7546   -8.6997 N   0  0  0  0  0  0  0  0  0  0  0  0
   19.1415   71.0122   -8.3022 C   0  0  0  0  0  0  0  0  0  0  0  0
   18.2237   71.2127   -6.0599 C   0  0  0  0  0  0  0  0  0  0  0  0
   16.9728   70.9668   -6.4550 C   0  0  0  0  0  0  0  0  0  0  0  0
   16.7033   70.7108   -7.8846 C   0  0  0  0  0  0  0  0  0  0  0  0
   17.6768   70.5883   -9.6592 H   0  0  0  0  0  0  0  0  0  0  0  0
   20.7533   72.8391   -0.0113 O   0  0  0  0  0  0  0  0  0  0  0  0
   21.6344   71.5041    0.2217 P   0  0  2  0  0  0  0  0  0  0  0  0
   22.2587   71.2113   -1.2419 O   0  0  0  0  0  0  0  0  0  0  0  0
   20.8670   70.3550    0.8088 O   0  0  0  0  0  0  0  0  0  0  0  0
   22.8901   71.9932    1.1100 O   0  0  0  0  0  0  0  0  0  0  0  0
   24.4748   73.4394    0.1032 O   0  0  0  0  0  0  0  0  0  0  0  0
   26.7507   72.0635    3.2620 O   0  0  0  0  0  0  0  0  0  0  0  0
   25.7586   74.7584    3.2971 O   0  0  0  0  0  0  0  0  0  0  0  0
   24.9576   70.2592    1.8804 O   0  0  0  0  0  0  0  0  0  0  0  0
   25.5504   72.4786    2.6043 C   0  0  1  0  0  0  0  0  0  0  0  0
   25.7330   73.9254    2.1414 C   0  0  1  0  0  0  0  0  0  0  0  0
   25.2922   71.5608    1.4109 C   0  0  2  0  0  0  0  0  0  0  0  0
   24.5994   74.3529    1.1995 C   0  0  1  0  0  0  0  0  0  0  0  0
   24.1792   72.1026    0.5121 C   0  0  1  0  0  0  0  0  0  0  0  0
   26.9201   72.6420    4.0211 H   0  0  0  0  0  0  0  0  0  0  0  0
   26.4784   74.4776    3.8837 H   0  0  0  0  0  0  0  0  0  0  0  0
   25.6701   69.9272    2.4478 H   0  0  0  0  0  0  0  0  0  0  0  0
   25.1810   75.5826   -0.7648 O   0  0  0  0  0  0  0  0  0  0  0  0
   24.8438   75.7367    0.6015 C   0  0  0  0  0  0  0  0  0  0  0  0
   25.3390   76.4554   -1.1586 H   0  0  0  0  0  0  0  0  0  0  0  0
 25 28  1  0
 25 24  1  0
 25 26  1  6
 25 27  2  0
  1  4  1  0
  1 24  1  0
  1  2  1  6
  1  3  2  0
  6 11  1  0
  6 12  1  0
 29 36  1  0
 29 37  1  0
  9  7  1  6
  7 13  1  0
 10  8  1  6
  8 14  1  0
 37 28  1  1
  4  5  1  0
 33 30  1  6
 30 38  1  0
 34 31  1  1
 31 39  1  0
 35 32  1  1
 32 40  1  0
 41 42  1  0
 41 43  1  0
 15 19  2  0
 16 22  2  0
 12 17  1  1
 17 19  1  0
 17 20  1  0
 18 19  1  0
 18 22  1  0
 18 23  1  0
  9 10  1  0
  9 11  1  0
 10 12  1  0
 11  5  1  6
 33 34  1  0
 33 35  1  0
 34 36  1  0
 35 37  1  0
 36 42  1  6
 20 21  2  0
 21 22  1  0
M  CHG  2   2  -1  26  -1
M  END
>  <COMPND>  (170) 
    8629 

>  <AUTHOR>  (170) 
    GENERATED BY OPEN BABEL 3.1.1

>  <MASTER>  (170) 
        0    0    0    0    0    0    0    0   58    0   58    0

>  <minimizedAffinity>  (170) 
-6.53132

>  <CNNscore>  (170) 
0.6715618372

>  <CNNaffinity>  (170) 
4.3535742760

>  <CNN_VS>  (170) 
2.9236943722

>  <CNNaffinity_variance>  (170) 
0.1757560670

$$$$
171
     RDKit          3D

 43 45  0  0  0  0  0  0  0  0999 V2000
   23.6185   72.7427   -3.5734 P   0  0  2  0  0  0  0  0  0  0  0  0
   23.9770   71.2269   -3.1360 O   0  0  0  0  0  0  0  0  0  0  0  0
   24.7003   73.4569   -4.3292 O   0  0  0  0  0  0  0  0  0  0  0  0
   23.1451   73.4433   -2.1940 O   0  0  0  0  0  0  0  0  0  0  0  0
   22.1729   74.4723   -2.2572 C   0  0  0  0  0  0  0  0  0  0  0  0
   21.2385   72.7839   -0.8255 O   0  0  0  0  0  0  0  0  0  0  0  0
   19.1733   74.8254   -0.0787 O   0  0  0  0  0  0  0  0  0  0  0  0
   20.8843   74.9071    2.0432 O   0  0  0  0  0  0  0  0  0  0  0  0
   20.5592   75.0068   -0.3643 C   0  0  1  0  0  0  0  0  0  0  0  0
   21.4035   74.5096    0.7905 C   0  0  2  0  0  0  0  0  0  0  0  0
   20.9398   74.0380   -1.4769 C   0  0  1  0  0  0  0  0  0  0  0  0
   21.3571   73.0044    0.5895 C   0  0  2  0  0  0  0  0  0  0  0  0
   18.9068   75.4339    0.6289 H   0  0  0  0  0  0  0  0  0  0  0  0
   20.9358   75.8724    2.1231 H   0  0  0  0  0  0  0  0  0  0  0  0
   21.5271   70.2530    1.2050 O   0  0  0  0  0  0  0  0  0  0  0  0
   25.9617   70.6090    2.4087 O   0  0  0  0  0  0  0  0  0  0  0  0
   22.5440   72.3514    1.0653 N   0  0  0  0  0  0  0  0  0  0  0  0
   23.7351   70.4325    1.8037 N   0  0  0  0  0  0  0  0  0  0  0  0
   22.5233   70.9653    1.3459 C   0  0  0  0  0  0  0  0  0  0  0  0
   23.7117   73.0840    1.2488 C   0  0  0  0  0  0  0  0  0  0  0  0
   24.8587   72.5611    1.6874 C   0  0  0  0  0  0  0  0  0  0  0  0
   24.9220   71.1196    2.0035 C   0  0  0  0  0  0  0  0  0  0  0  0
   23.7443   69.4687    2.0060 H   0  0  0  0  0  0  0  0  0  0  0  0
   22.2325   72.5681   -4.3867 O   0  0  0  0  0  0  0  0  0  0  0  0
   21.7876   73.0902   -5.8504 P   0  0  2  0  0  0  0  0  0  0  0  0
   22.8267   72.3452   -6.8417 O   0  0  0  0  0  0  0  0  0  0  0  0
   21.7625   74.5848   -5.9893 O   0  0  0  0  0  0  0  0  0  0  0  0
   20.3707   72.3687   -6.1281 O   0  0  0  0  0  0  0  0  0  0  0  0
   19.6430   70.2199   -5.4428 O   0  0  0  0  0  0  0  0  0  0  0  0
   17.7149   70.4381   -9.0878 O   0  0  0  0  0  0  0  0  0  0  0  0
   16.1926   70.6614   -6.6628 O   0  0  0  0  0  0  0  0  0  0  0  0
   20.3870   71.5140   -8.8010 O   0  0  0  0  0  0  0  0  0  0  0  0
   18.2430   70.9483   -7.8605 C   0  0  1  0  0  0  0  0  0  0  0  0
   17.5490   70.2271   -6.7032 C   0  0  1  0  0  0  0  0  0  0  0  0
   19.7495   70.6990   -7.8233 C   0  0  2  0  0  0  0  0  0  0  0  0
   18.2453   70.5241   -5.3683 C   0  0  1  0  0  0  0  0  0  0  0  0
   20.3342   70.9780   -6.4375 C   0  0  1  0  0  0  0  0  0  0  0  0
   16.7587   70.5937   -9.1179 H   0  0  0  0  0  0  0  0  0  0  0  0
   15.7646   70.4686   -7.5118 H   0  0  0  0  0  0  0  0  0  0  0  0
   20.0083   71.3277   -9.6738 H   0  0  0  0  0  0  0  0  0  0  0  0
   16.8460   68.6802   -4.7759 O   0  0  0  0  0  0  0  0  0  0  0  0
   17.6682   69.6925   -4.2248 C   0  0  0  0  0  0  0  0  0  0  0  0
   16.4720   68.1427   -4.0596 H   0  0  0  0  0  0  0  0  0  0  0  0
 25 28  1  0
 25 24  1  0
 25 26  1  6
 25 27  2  0
  1  4  1  0
  1 24  1  0
  1  2  1  1
  1  3  2  0
  6 11  1  0
  6 12  1  0
 29 36  1  0
 29 37  1  0
  9  7  1  1
  7 13  1  0
 10  8  1  1
  8 14  1  0
 37 28  1  1
  4  5  1  0
 33 30  1  6
 30 38  1  0
 34 31  1  1
 31 39  1  0
 35 32  1  6
 32 40  1  0
 41 42  1  0
 41 43  1  0
 15 19  2  0
 16 22  2  0
 12 17  1  6
 17 19  1  0
 17 20  1  0
 18 19  1  0
 18 22  1  0
 18 23  1  0
  9 10  1  0
  9 11  1  0
 10 12  1  0
 11  5  1  1
 33 34  1  0
 33 35  1  0
 34 36  1  0
 35 37  1  0
 36 42  1  1
 20 21  2  0
 21 22  1  0
M  CHG  2   2  -1  26  -1
M  END
>  <COMPND>  (171) 
    8629 

>  <AUTHOR>  (171) 
    GENERATED BY OPEN BABEL 3.1.1

>  <MASTER>  (171) 
        0    0    0    0    0    0    0    0   58    0   58    0

>  <minimizedAffinity>  (171) 
-7.78281

>  <CNNscore>  (171) 
0.6549286246

>  <CNNaffinity>  (171) 
4.4214029312

>  <CNN_VS>  (171) 
2.8957033157

>  <CNNaffinity_variance>  (171) 
0.0795006603

$$$$
172
     RDKit          3D

 43 45  0  0  0  0  0  0  0  0999 V2000
   14.4213   70.7114   -1.7754 P   0  0  2  0  0  0  0  0  0  0  0  0
   15.5038   71.2648   -0.7080 O   0  0  0  0  0  0  0  0  0  0  0  0
   13.3718   71.7022   -2.1855 O   0  0  0  0  0  0  0  0  0  0  0  0
   13.8736   69.3464   -1.1010 O   0  0  0  0  0  0  0  0  0  0  0  0
   14.6986   68.6774   -0.1630 C   0  0  0  0  0  0  0  0  0  0  0  0
   12.7189   68.9745    1.1661 O   0  0  0  0  0  0  0  0  0  0  0  0
   14.4463   68.3610    3.5390 O   0  0  0  0  0  0  0  0  0  0  0  0
   13.1523   65.9976    3.1189 O   0  0  0  0  0  0  0  0  0  0  0  0
   14.4956   67.8149    2.2219 C   0  0  1  0  0  0  0  0  0  0  0  0
   13.3473   66.8506    2.0093 C   0  0  2  0  0  0  0  0  0  0  0  0
   14.1608   68.9298    1.2389 C   0  0  1  0  0  0  0  0  0  0  0  0
   12.1791   67.7959    1.7862 C   0  0  2  0  0  0  0  0  0  0  0  0
   14.6571   67.6675    4.1845 H   0  0  0  0  0  0  0  0  0  0  0  0
   13.9221   65.4160    3.2190 H   0  0  0  0  0  0  0  0  0  0  0  0
    9.5298   67.2266    2.5830 O   0  0  0  0  0  0  0  0  0  0  0  0
    8.4188   65.6397   -1.5990 O   0  0  0  0  0  0  0  0  0  0  0  0
   11.1764   67.2340    0.9259 N   0  0  0  0  0  0  0  0  0  0  0  0
    8.9787   66.4371    0.5000 N   0  0  0  0  0  0  0  0  0  0  0  0
    9.8764   66.9857    1.4247 C   0  0  0  0  0  0  0  0  0  0  0  0
   11.4860   66.9355   -0.3965 C   0  0  0  0  0  0  0  0  0  0  0  0
   10.6189   66.4114   -1.2652 C   0  0  0  0  0  0  0  0  0  0  0  0
    9.2393   66.1216   -0.8241 C   0  0  0  0  0  0  0  0  0  0  0  0
    8.0671   66.2552    0.8252 H   0  0  0  0  0  0  0  0  0  0  0  0
   15.3473   70.1724   -2.9858 O   0  0  0  0  0  0  0  0  0  0  0  0
   16.9535   70.0518   -3.1210 P   0  0  2  0  0  0  0  0  0  0  0  0
   17.2646   68.5733   -2.5425 O   0  0  0  0  0  0  0  0  0  0  0  0
   17.7127   71.1549   -2.4421 O   0  0  0  0  0  0  0  0  0  0  0  0
   17.2222   69.9334   -4.7081 O   0  0  0  0  0  0  0  0  0  0  0  0
   18.0646   71.9962   -5.5154 O   0  0  0  0  0  0  0  0  0  0  0  0
   17.6303   70.0090   -9.1090 O   0  0  0  0  0  0  0  0  0  0  0  0
   20.2603   70.4606   -8.0472 O   0  0  0  0  0  0  0  0  0  0  0  0
   15.6554   69.6647   -7.0207 O   0  0  0  0  0  0  0  0  0  0  0  0
   17.9153   70.1291   -7.7126 C   0  0  1  0  0  0  0  0  0  0  0  0
   19.0886   71.0965   -7.5441 C   0  0  1  0  0  0  0  0  0  0  0  0
   16.6753   70.6575   -6.9938 C   0  0  2  0  0  0  0  0  0  0  0  0
   19.2808   71.4829   -6.0714 C   0  0  1  0  0  0  0  0  0  0  0  0
   16.9869   71.0585   -5.5508 C   0  0  1  0  0  0  0  0  0  0  0  0
   18.4134   69.6735   -9.5712 H   0  0  0  0  0  0  0  0  0  0  0  0
   20.1255   70.2213   -8.9777 H   0  0  0  0  0  0  0  0  0  0  0  0
   15.4671   69.4196   -7.9396 H   0  0  0  0  0  0  0  0  0  0  0  0
   21.6198   71.9601   -5.9698 O   0  0  0  0  0  0  0  0  0  0  0  0
   20.3426   72.5668   -5.8985 C   0  0  0  0  0  0  0  0  0  0  0  0
   22.3056   72.6381   -5.8616 H   0  0  0  0  0  0  0  0  0  0  0  0
 25 28  1  0
 25 24  1  0
 25 26  1  1
 25 27  2  0
  1  4  1  0
  1 24  1  0
  1  2  1  1
  1  3  2  0
  6 11  1  0
  6 12  1  0
 29 36  1  0
 29 37  1  0
  9  7  1  1
  7 13  1  0
 10  8  1  1
  8 14  1  0
 37 28  1  1
  4  5  1  0
 33 30  1  6
 30 38  1  0
 34 31  1  1
 31 39  1  0
 35 32  1  1
 32 40  1  0
 41 42  1  0
 41 43  1  0
 15 19  2  0
 16 22  2  0
 12 17  1  6
 17 19  1  0
 17 20  1  0
 18 19  1  0
 18 22  1  0
 18 23  1  0
  9 10  1  0
  9 11  1  0
 10 12  1  0
 11  5  1  6
 33 34  1  0
 33 35  1  0
 34 36  1  0
 35 37  1  0
 36 42  1  6
 20 21  2  0
 21 22  1  0
M  CHG  2   2  -1  26  -1
M  END
>  <COMPND>  (172) 
    8629 

>  <AUTHOR>  (172) 
    GENERATED BY OPEN BABEL 3.1.1

>  <MASTER>  (172) 
        0    0    0    0    0    0    0    0   58    0   58    0

>  <minimizedAffinity>  (172) 
-6.65683

>  <CNNscore>  (172) 
0.6511408687

>  <CNNaffinity>  (172) 
4.2292375565

>  <CNN_VS>  (172) 
2.7538294792

>  <CNNaffinity_variance>  (172) 
0.0820966214

$$$$
173
     RDKit          3D

 43 45  0  0  0  0  0  0  0  0999 V2000
   21.7480   72.4646   -5.5243 P   0  0  2  0  0  0  0  0  0  0  0  0
   20.9439   73.8625   -5.3950 O   0  0  0  0  0  0  0  0  0  0  0  0
   23.0770   72.5595   -6.2143 O   0  0  0  0  0  0  0  0  0  0  0  0
   20.6750   71.4605   -6.2013 O   0  0  0  0  0  0  0  0  0  0  0  0
   20.1018   71.8224   -7.4456 C   0  0  0  0  0  0  0  0  0  0  0  0
   18.7031   69.9432   -6.9109 O   0  0  0  0  0  0  0  0  0  0  0  0
   17.9648   69.9042   -9.8168 O   0  0  0  0  0  0  0  0  0  0  0  0
   15.8167   71.1358   -8.6742 O   0  0  0  0  0  0  0  0  0  0  0  0
   18.2275   71.0201   -8.9676 C   0  0  1  0  0  0  0  0  0  0  0  0
   17.0658   71.2468   -8.0228 C   0  0  2  0  0  0  0  0  0  0  0  0
   19.3449   70.6275   -8.0091 C   0  0  1  0  0  0  0  0  0  0  0  0
   17.2842   70.1566   -6.9875 C   0  0  2  0  0  0  0  0  0  0  0  0
   17.2546   70.1311  -10.4381 H   0  0  0  0  0  0  0  0  0  0  0  0
   15.7254   71.8512   -9.3227 H   0  0  0  0  0  0  0  0  0  0  0  0
   16.7494   68.3308   -4.8998 O   0  0  0  0  0  0  0  0  0  0  0  0
   15.4199   71.6988   -2.0484 O   0  0  0  0  0  0  0  0  0  0  0  0
   16.7978   70.5290   -5.6890 N   0  0  0  0  0  0  0  0  0  0  0  0
   16.0880   70.0093   -3.4816 N   0  0  0  0  0  0  0  0  0  0  0  0
   16.5607   69.5345   -4.7117 C   0  0  0  0  0  0  0  0  0  0  0  0
   16.5614   71.8675   -5.3953 C   0  0  0  0  0  0  0  0  0  0  0  0
   16.1094   72.3038   -4.2177 C   0  0  0  0  0  0  0  0  0  0  0  0
   15.8362   71.3291   -3.1419 C   0  0  0  0  0  0  0  0  0  0  0  0
   15.9153   69.3345   -2.7856 H   0  0  0  0  0  0  0  0  0  0  0  0
   21.8191   71.9435   -3.9958 O   0  0  0  0  0  0  0  0  0  0  0  0
   20.7215   71.1903   -3.0789 P   0  0  2  0  0  0  0  0  0  0  0  0
   20.8577   69.6433   -3.5323 O   0  0  0  0  0  0  0  0  0  0  0  0
   19.3333   71.7500   -3.1961 O   0  0  0  0  0  0  0  0  0  0  0  0
   21.3363   71.2336   -1.5872 O   0  0  0  0  0  0  0  0  0  0  0  0
   21.5234   73.0237   -0.0455 O   0  0  0  0  0  0  0  0  0  0  0  0
   25.0920   71.1006    0.7403 O   0  0  0  0  0  0  0  0  0  0  0  0
   22.9531   70.9572    2.6516 O   0  0  0  0  0  0  0  0  0  0  0  0
   24.1148   71.2766   -1.9788 O   0  0  0  0  0  0  0  0  0  0  0  0
   23.7072   71.1868    0.3934 C   0  0  1  0  0  0  0  0  0  0  0  0
   22.9643   71.8599    1.5492 C   0  0  1  0  0  0  0  0  0  0  0  0
   23.5637   72.0063   -0.8878 C   0  0  2  0  0  0  0  0  0  0  0  0
   21.5302   72.2286    1.1459 C   0  0  1  0  0  0  0  0  0  0  0  0
   22.1028   72.3607   -1.1709 C   0  0  1  0  0  0  0  0  0  0  0  0
   25.1901   70.5811    1.5528 H   0  0  0  0  0  0  0  0  0  0  0  0
   23.8646   70.7320    2.8959 H   0  0  0  0  0  0  0  0  0  0  0  0
   25.0399   71.0585   -1.7875 H   0  0  0  0  0  0  0  0  0  0  0  0
   20.2967   72.1454    3.1905 O   0  0  0  0  0  0  0  0  0  0  0  0
   20.8227   73.0409    2.2284 C   0  0  0  0  0  0  0  0  0  0  0  0
   19.8437   72.6484    3.8859 H   0  0  0  0  0  0  0  0  0  0  0  0
 25 28  1  0
 25 24  1  0
 25 26  1  6
 25 27  2  0
  1  4  1  0
  1 24  1  0
  1  2  1  1
  1  3  2  0
  6 11  1  0
  6 12  1  0
 29 36  1  0
 29 37  1  0
  9  7  1  6
  7 13  1  0
 10  8  1  6
  8 14  1  0
 37 28  1  1
  4  5  1  0
 33 30  1  1
 30 38  1  0
 34 31  1  1
 31 39  1  0
 35 32  1  6
 32 40  1  0
 41 42  1  0
 41 43  1  0
 15 19  2  0
 16 22  2  0
 12 17  1  1
 17 19  1  0
 17 20  1  0
 18 19  1  0
 18 22  1  0
 18 23  1  0
  9 10  1  0
  9 11  1  0
 10 12  1  0
 11  5  1  1
 33 34  1  0
 33 35  1  0
 34 36  1  0
 35 37  1  0
 36 42  1  1
 20 21  2  0
 21 22  1  0
M  CHG  2   2  -1  26  -1
M  END
>  <COMPND>  (173) 
    8629 

>  <AUTHOR>  (173) 
    GENERATED BY OPEN BABEL 3.1.1

>  <MASTER>  (173) 
        0    0    0    0    0    0    0    0   58    0   58    0

>  <minimizedAffinity>  (173) 
-7.34565

>  <CNNscore>  (173) 
0.6318925023

>  <CNNaffinity>  (173) 
4.4144492149

>  <CNN_VS>  (173) 
2.7894573212

>  <CNNaffinity_variance>  (173) 
0.4207556844

$$$$
174
     RDKit          3D

 43 45  0  0  0  0  0  0  0  0999 V2000
   22.8576   71.7116   -2.4189 P   0  0  2  0  0  0  0  0  0  0  0  0
   24.2473   71.1297   -3.0084 O   0  0  0  0  0  0  0  0  0  0  0  0
   22.4687   71.1794   -1.0710 O   0  0  0  0  0  0  0  0  0  0  0  0
   21.7927   71.4547   -3.6097 O   0  0  0  0  0  0  0  0  0  0  0  0
   21.6816   72.4232   -4.6380 C   0  0  0  0  0  0  0  0  0  0  0  0
   20.7243   70.5386   -5.7805 O   0  0  0  0  0  0  0  0  0  0  0  0
   21.2227   72.0600   -8.3158 O   0  0  0  0  0  0  0  0  0  0  0  0
   18.5595   72.4660   -7.8927 O   0  0  0  0  0  0  0  0  0  0  0  0
   20.8323   72.5474   -7.0330 C   0  0  1  0  0  0  0  0  0  0  0  0
   19.3776   72.2208   -6.7669 C   0  0  2  0  0  0  0  0  0  0  0  0
   21.5443   71.7114   -5.9768 C   0  0  1  0  0  0  0  0  0  0  0  0
   19.4467   70.7471   -6.4043 C   0  0  2  0  0  0  0  0  0  0  0  0
   20.7808   72.5788   -9.0068 H   0  0  0  0  0  0  0  0  0  0  0  0
   18.5478   73.4170   -8.0832 H   0  0  0  0  0  0  0  0  0  0  0  0
   16.8795   69.8600   -7.1793 O   0  0  0  0  0  0  0  0  0  0  0  0
   15.5553   69.2876   -2.8021 O   0  0  0  0  0  0  0  0  0  0  0  0
   18.4116   70.3595   -5.4880 N   0  0  0  0  0  0  0  0  0  0  0  0
   16.2223   69.5755   -4.9991 N   0  0  0  0  0  0  0  0  0  0  0  0
   17.1571   69.9298   -5.9802 C   0  0  0  0  0  0  0  0  0  0  0  0
   18.6453   70.4072   -4.1179 C   0  0  0  0  0  0  0  0  0  0  0  0
   17.7428   70.0671   -3.1954 C   0  0  0  0  0  0  0  0  0  0  0  0
   16.4067   69.6071   -3.6259 C   0  0  0  0  0  0  0  0  0  0  0  0
   15.3411   69.2734   -5.3186 H   0  0  0  0  0  0  0  0  0  0  0  0
   23.0822   73.3115   -2.4713 O   0  0  0  0  0  0  0  0  0  0  0  0
   23.3279   74.3882   -1.2908 P   0  0  2  0  0  0  0  0  0  0  0  0
   23.3379   75.8031   -2.0753 O   0  0  0  0  0  0  0  0  0  0  0  0
   24.5555   74.1283   -0.4667 O   0  0  0  0  0  0  0  0  0  0  0  0
   21.9488   74.3968   -0.4523 O   0  0  0  0  0  0  0  0  0  0  0  0
   20.9753   75.8306    1.1642 O   0  0  0  0  0  0  0  0  0  0  0  0
   20.1911   72.1920    2.9520 O   0  0  0  0  0  0  0  0  0  0  0  0
   18.0428   73.6772    1.7575 O   0  0  0  0  0  0  0  0  0  0  0  0
   22.7044   72.6145    1.5794 O   0  0  0  0  0  0  0  0  0  0  0  0
   20.3608   73.0959    1.8568 C   0  0  1  0  0  0  0  0  0  0  0  0
   19.3362   74.2228    2.0019 C   0  0  1  0  0  0  0  0  0  0  0  0
   21.7822   73.6545    1.8863 C   0  0  2  0  0  0  0  0  0  0  0  0
   19.6278   75.3664    1.0210 C   0  0  1  0  0  0  0  0  0  0  0  0
   21.9518   74.8191    0.9090 C   0  0  1  0  0  0  0  0  0  0  0  0
   19.2907   71.8333    2.9388 H   0  0  0  0  0  0  0  0  0  0  0  0
   17.8713   72.9559    2.3831 H   0  0  0  0  0  0  0  0  0  0  0  0
   22.5872   71.8834    2.2052 H   0  0  0  0  0  0  0  0  0  0  0  0
   18.7052   77.3607    0.0826 O   0  0  0  0  0  0  0  0  0  0  0  0
   18.7149   76.5679    1.2555 C   0  0  0  0  0  0  0  0  0  0  0  0
   18.1279   78.1290    0.2172 H   0  0  0  0  0  0  0  0  0  0  0  0
 25 28  1  0
 25 24  1  0
 25 26  1  6
 25 27  2  0
  1  4  1  0
  1 24  1  0
  1  2  1  6
  1  3  2  0
  6 11  1  0
  6 12  1  0
 29 36  1  0
 29 37  1  0
  9  7  1  6
  7 13  1  0
 10  8  1  6
  8 14  1  0
 37 28  1  6
  4  5  1  0
 33 30  1  1
 30 38  1  0
 34 31  1  6
 31 39  1  0
 35 32  1  6
 32 40  1  0
 41 42  1  0
 41 43  1  0
 15 19  2  0
 16 22  2  0
 12 17  1  1
 17 19  1  0
 17 20  1  0
 18 19  1  0
 18 22  1  0
 18 23  1  0
  9 10  1  0
  9 11  1  0
 10 12  1  0
 11  5  1  1
 33 34  1  0
 33 35  1  0
 34 36  1  0
 35 37  1  0
 36 42  1  1
 20 21  2  0
 21 22  1  0
M  CHG  2   2  -1  26  -1
M  END
>  <COMPND>  (174) 
    8629 

>  <AUTHOR>  (174) 
    GENERATED BY OPEN BABEL 3.1.1

>  <MASTER>  (174) 
        0    0    0    0    0    0    0    0   58    0   58    0

>  <minimizedAffinity>  (174) 
-6.13849

>  <CNNscore>  (174) 
0.6281816363

>  <CNNaffinity>  (174) 
4.1542077065

>  <CNN_VS>  (174) 
2.6095969677

>  <CNNaffinity_variance>  (174) 
0.2514864802

$$$$
175
     RDKit          3D

 43 45  0  0  0  0  0  0  0  0999 V2000
   20.4908   72.0904   -0.0781 P   0  0  2  0  0  0  0  0  0  0  0  0
   21.0541   71.1296    1.0954 O   0  0  0  0  0  0  0  0  0  0  0  0
   19.2858   72.9039    0.2927 O   0  0  0  0  0  0  0  0  0  0  0  0
   20.3051   71.0945   -1.3398 O   0  0  0  0  0  0  0  0  0  0  0  0
   20.0451   71.6583   -2.6135 C   0  0  0  0  0  0  0  0  0  0  0  0
   20.7043   70.4717   -4.5963 O   0  0  0  0  0  0  0  0  0  0  0  0
   23.1176   72.2509   -4.6328 O   0  0  0  0  0  0  0  0  0  0  0  0
   21.5060   73.3968   -6.5105 O   0  0  0  0  0  0  0  0  0  0  0  0
   21.7785   72.5548   -4.2460 C   0  0  1  0  0  0  0  0  0  0  0  0
   20.8910   72.6677   -5.4680 C   0  0  2  0  0  0  0  0  0  0  0  0
   21.2025   71.3298   -3.5467 C   0  0  1  0  0  0  0  0  0  0  0  0
   20.6648   71.2093   -5.8289 C   0  0  2  0  0  0  0  0  0  0  0  0
   23.5066   73.0186   -5.0813 H   0  0  0  0  0  0  0  0  0  0  0  0
   21.6283   74.3180   -6.2325 H   0  0  0  0  0  0  0  0  0  0  0  0
   20.3172   69.8768   -8.2950 O   0  0  0  0  0  0  0  0  0  0  0  0
   15.7444   70.4364   -8.1617 O   0  0  0  0  0  0  0  0  0  0  0  0
   19.3944   70.9924   -6.4617 N   0  0  0  0  0  0  0  0  0  0  0  0
   18.0406   70.1563   -8.2265 N   0  0  0  0  0  0  0  0  0  0  0  0
   19.3293   70.3127   -7.7003 C   0  0  0  0  0  0  0  0  0  0  0  0
   18.2305   71.4512   -5.8545 C   0  0  0  0  0  0  0  0  0  0  0  0
   17.0093   71.2952   -6.3700 C   0  0  0  0  0  0  0  0  0  0  0  0
   16.8537   70.5956   -7.6616 C   0  0  0  0  0  0  0  0  0  0  0  0
   17.9707   69.6861   -9.0889 H   0  0  0  0  0  0  0  0  0  0  0  0
   21.7892   72.9606   -0.4901 O   0  0  0  0  0  0  0  0  0  0  0  0
   23.3607   72.7301   -0.1893 P   0  0  2  0  0  0  0  0  0  0  0  0
   24.0634   74.0099   -0.8862 O   0  0  0  0  0  0  0  0  0  0  0  0
   23.8883   71.4040   -0.6550 O   0  0  0  0  0  0  0  0  0  0  0  0
   23.5160   72.9926    1.3956 O   0  0  0  0  0  0  0  0  0  0  0  0
   21.8518   74.3880    2.3441 O   0  0  0  0  0  0  0  0  0  0  0  0
   24.5916   74.4352    5.4332 O   0  0  0  0  0  0  0  0  0  0  0  0
   22.1462   72.9586    5.7292 O   0  0  0  0  0  0  0  0  0  0  0  0
   25.5093   74.4862    2.6882 O   0  0  0  0  0  0  0  0  0  0  0  0
   23.8710   73.8610    4.3394 C   0  0  1  0  0  0  0  0  0  0  0  0
   22.3794   73.8924    4.6785 C   0  0  1  0  0  0  0  0  0  0  0  0
   24.1522   74.6719    3.0757 C   0  0  2  0  0  0  0  0  0  0  0  0
   21.5251   73.5419    3.4528 C   0  0  1  0  0  0  0  0  0  0  0  0
   23.2156   74.2784    1.9320 C   0  0  1  0  0  0  0  0  0  0  0  0
   24.4178   73.9247    6.2386 H   0  0  0  0  0  0  0  0  0  0  0  0
   22.6920   73.1908    6.4969 H   0  0  0  0  0  0  0  0  0  0  0  0
   26.0921   74.7390    3.4206 H   0  0  0  0  0  0  0  0  0  0  0  0
   19.3652   72.5236    3.3706 O   0  0  0  0  0  0  0  0  0  0  0  0
   20.0332   73.7203    3.7256 C   0  0  0  0  0  0  0  0  0  0  0  0
   18.4146   72.6224    3.5392 H   0  0  0  0  0  0  0  0  0  0  0  0
 25 28  1  0
 25 24  1  0
 25 26  1  6
 25 27  2  0
  1  4  1  0
  1 24  1  0
  1  2  1  1
  1  3  2  0
  6 11  1  0
  6 12  1  0
 29 36  1  0
 29 37  1  0
  9  7  1  6
  7 13  1  0
 10  8  1  6
  8 14  1  0
 37 28  1  1
  4  5  1  0
 33 30  1  1
 30 38  1  0
 34 31  1  1
 31 39  1  0
 35 32  1  6
 32 40  1  0
 41 42  1  0
 41 43  1  0
 15 19  2  0
 16 22  2  0
 12 17  1  1
 17 19  1  0
 17 20  1  0
 18 19  1  0
 18 22  1  0
 18 23  1  0
  9 10  1  0
  9 11  1  0
 10 12  1  0
 11  5  1  1
 33 34  1  0
 33 35  1  0
 34 36  1  0
 35 37  1  0
 36 42  1  1
 20 21  2  0
 21 22  1  0
M  CHG  2   2  -1  26  -1
M  END
>  <COMPND>  (175) 
    8629 

>  <AUTHOR>  (175) 
    GENERATED BY OPEN BABEL 3.1.1

>  <MASTER>  (175) 
        0    0    0    0    0    0    0    0   58    0   58    0

>  <minimizedAffinity>  (175) 
-6.14251

>  <CNNscore>  (175) 
0.6180976033

>  <CNNaffinity>  (175) 
4.1887993813

>  <CNN_VS>  (175) 
2.5890867710

>  <CNNaffinity_variance>  (175) 
0.0864024460

$$$$
176
     RDKit          3D

 43 45  0  0  0  0  0  0  0  0999 V2000
   21.2249   72.4411   -2.8081 P   0  0  2  0  0  0  0  0  0  0  0  0
   20.1354   73.6352   -2.8752 O   0  0  0  0  0  0  0  0  0  0  0  0
   20.7900   71.2288   -2.0384 O   0  0  0  0  0  0  0  0  0  0  0  0
   22.5669   73.1694   -2.2727 O   0  0  0  0  0  0  0  0  0  0  0  0
   22.4967   73.9174   -1.0712 C   0  0  0  0  0  0  0  0  0  0  0  0
   23.1796   73.8468    1.2315 O   0  0  0  0  0  0  0  0  0  0  0  0
   24.8136   71.4480    0.4789 O   0  0  0  0  0  0  0  0  0  0  0  0
   22.6243   70.3294    1.6589 O   0  0  0  0  0  0  0  0  0  0  0  0
   23.5335   71.8546   -0.0020 C   0  0  1  0  0  0  0  0  0  0  0  0
   22.4710   71.5929    1.0451 C   0  0  2  0  0  0  0  0  0  0  0  0
   23.5264   73.3757   -0.0891 C   0  0  1  0  0  0  0  0  0  0  0  0
   22.6918   72.7435    2.0123 C   0  0  2  0  0  0  0  0  0  0  0  0
   24.8423   70.4800    0.5427 H   0  0  0  0  0  0  0  0  0  0  0  0
   22.4741   69.6308    1.0031 H   0  0  0  0  0  0  0  0  0  0  0  0
   22.4777   73.2207    4.7880 O   0  0  0  0  0  0  0  0  0  0  0  0
   18.0007   74.2614    4.4493 O   0  0  0  0  0  0  0  0  0  0  0  0
   21.4823   73.1407    2.6761 N   0  0  0  0  0  0  0  0  0  0  0  0
   20.2487   73.7387    4.6171 N   0  0  0  0  0  0  0  0  0  0  0  0
   21.4814   73.3539    4.0744 C   0  0  0  0  0  0  0  0  0  0  0  0
   20.3141   73.3152    1.9421 C   0  0  0  0  0  0  0  0  0  0  0  0
   19.1465   73.6812    2.4749 C   0  0  0  0  0  0  0  0  0  0  0  0
   19.0598   73.9240    3.9294 C   0  0  0  0  0  0  0  0  0  0  0  0
   20.2240   73.8925    5.5894 H   0  0  0  0  0  0  0  0  0  0  0  0
   21.5581   72.1653   -4.3657 O   0  0  0  0  0  0  0  0  0  0  0  0
   21.3279   73.0797   -5.6786 P   0  0  2  0  0  0  0  0  0  0  0  0
   22.6066   72.7273   -6.6050 O   0  0  0  0  0  0  0  0  0  0  0  0
   21.1585   74.5427   -5.3875 O   0  0  0  0  0  0  0  0  0  0  0  0
   20.0757   72.3991   -6.4361 O   0  0  0  0  0  0  0  0  0  0  0  0
   19.1196   70.2488   -6.1550 O   0  0  0  0  0  0  0  0  0  0  0  0
   18.6352   70.6581  -10.2353 O   0  0  0  0  0  0  0  0  0  0  0  0
   16.3457   70.8366   -8.5106 O   0  0  0  0  0  0  0  0  0  0  0  0
   21.0402   71.6435   -8.9607 O   0  0  0  0  0  0  0  0  0  0  0  0
   18.6936   71.1069   -8.8786 C   0  0  1  0  0  0  0  0  0  0  0  0
   17.6196   70.3643   -8.0812 C   0  0  1  0  0  0  0  0  0  0  0  0
   20.0822   70.8120   -8.3146 C   0  0  2  0  0  0  0  0  0  0  0  0
   17.7932   70.5911   -6.5734 C   0  0  1  0  0  0  0  0  0  0  0  0
   20.1331   71.0224   -6.8003 C   0  0  1  0  0  0  0  0  0  0  0  0
   17.7561   70.8429  -10.5995 H   0  0  0  0  0  0  0  0  0  0  0  0
   16.2491   70.6879   -9.4644 H   0  0  0  0  0  0  0  0  0  0  0  0
   20.9982   71.5008   -9.9187 H   0  0  0  0  0  0  0  0  0  0  0  0
   15.9901   70.5951   -5.0055 O   0  0  0  0  0  0  0  0  0  0  0  0
   16.8315   69.7352   -5.7518 C   0  0  0  0  0  0  0  0  0  0  0  0
   15.3725   70.0642   -4.4780 H   0  0  0  0  0  0  0  0  0  0  0  0
 25 28  1  0
 25 24  1  0
 25 26  1  6
 25 27  2  0
  1  4  1  0
  1 24  1  0
  1  2  1  6
  1  3  2  0
  6 11  1  0
  6 12  1  0
 29 36  1  0
 29 37  1  0
  9  7  1  1
  7 13  1  0
 10  8  1  1
  8 14  1  0
 37 28  1  6
  4  5  1  0
 33 30  1  6
 30 38  1  0
 34 31  1  6
 31 39  1  0
 35 32  1  6
 32 40  1  0
 41 42  1  0
 41 43  1  0
 15 19  2  0
 16 22  2  0
 12 17  1  6
 17 19  1  0
 17 20  1  0
 18 19  1  0
 18 22  1  0
 18 23  1  0
  9 10  1  0
  9 11  1  0
 10 12  1  0
 11  5  1  6
 33 34  1  0
 33 35  1  0
 34 36  1  0
 35 37  1  0
 36 42  1  1
 20 21  2  0
 21 22  1  0
M  CHG  2   2  -1  26  -1
M  END
>  <COMPND>  (176) 
    8629 

>  <AUTHOR>  (176) 
    GENERATED BY OPEN BABEL 3.1.1

>  <MASTER>  (176) 
        0    0    0    0    0    0    0    0   58    0   58    0

>  <minimizedAffinity>  (176) 
-6.59523

>  <CNNscore>  (176) 
0.6098041534

>  <CNNaffinity>  (176) 
4.2038083076

>  <CNN_VS>  (176) 
2.5634996891

>  <CNNaffinity_variance>  (176) 
0.0327657163

$$$$
177
     RDKit          3D

 43 45  0  0  0  0  0  0  0  0999 V2000
   21.9204   72.6557   -5.7034 P   0  0  2  0  0  0  0  0  0  0  0  0
   21.3467   73.8974   -4.8394 O   0  0  0  0  0  0  0  0  0  0  0  0
   22.8990   73.0295   -6.7777 O   0  0  0  0  0  0  0  0  0  0  0  0
   20.5898   71.8826   -6.2030 O   0  0  0  0  0  0  0  0  0  0  0  0
   20.1493   72.0861   -7.5343 C   0  0  0  0  0  0  0  0  0  0  0  0
   18.9442   70.1049   -6.9050 O   0  0  0  0  0  0  0  0  0  0  0  0
   18.1448   69.9016   -9.7878 O   0  0  0  0  0  0  0  0  0  0  0  0
   15.9189   70.9673   -8.6275 O   0  0  0  0  0  0  0  0  0  0  0  0
   18.3225   71.0645   -8.9807 C   0  0  1  0  0  0  0  0  0  0  0  0
   17.1672   71.2145   -8.0130 C   0  0  2  0  0  0  0  0  0  0  0  0
   19.4937   70.8085   -8.0405 C   0  0  1  0  0  0  0  0  0  0  0  0
   17.5101   70.1840   -6.9507 C   0  0  2  0  0  0  0  0  0  0  0  0
   17.4022   70.0414  -10.3969 H   0  0  0  0  0  0  0  0  0  0  0  0
   15.7463   71.6494   -9.2951 H   0  0  0  0  0  0  0  0  0  0  0  0
   16.6454   68.3447   -4.9892 O   0  0  0  0  0  0  0  0  0  0  0  0
   15.6555   71.7137   -2.0040 O   0  0  0  0  0  0  0  0  0  0  0  0
   17.0219   70.5530   -5.6519 N   0  0  0  0  0  0  0  0  0  0  0  0
   16.1534   70.0237   -3.5044 N   0  0  0  0  0  0  0  0  0  0  0  0
   16.6114   69.5518   -4.7411 C   0  0  0  0  0  0  0  0  0  0  0  0
   16.9541   71.8946   -5.2925 C   0  0  0  0  0  0  0  0  0  0  0  0
   16.5136   72.3283   -4.1096 C   0  0  0  0  0  0  0  0  0  0  0  0
   16.0659   71.3466   -3.1007 C   0  0  0  0  0  0  0  0  0  0  0  0
   15.8618   69.3443   -2.8539 H   0  0  0  0  0  0  0  0  0  0  0  0
   22.5113   71.6664   -4.5697 O   0  0  0  0  0  0  0  0  0  0  0  0
   23.4656   71.9589   -3.2982 P   0  0  2  0  0  0  0  0  0  0  0  0
   24.2202   73.3300   -3.7083 O   0  0  0  0  0  0  0  0  0  0  0  0
   24.3864   70.8265   -2.9466 O   0  0  0  0  0  0  0  0  0  0  0  0
   22.4526   72.3886   -2.1175 O   0  0  0  0  0  0  0  0  0  0  0  0
   21.8914   71.2308   -0.1272 O   0  0  0  0  0  0  0  0  0  0  0  0
   18.2328   72.9667   -0.9347 O   0  0  0  0  0  0  0  0  0  0  0  0
   19.8234   73.9584    1.2412 O   0  0  0  0  0  0  0  0  0  0  0  0
   19.8613   71.9553   -3.1037 O   0  0  0  0  0  0  0  0  0  0  0  0
   19.6606   72.8951   -0.8951 C   0  0  1  0  0  0  0  0  0  0  0  0
   20.0924   72.7340    0.5638 C   0  0  1  0  0  0  0  0  0  0  0  0
   20.1238   71.7012   -1.7278 C   0  0  2  0  0  0  0  0  0  0  0  0
   21.5831   72.3838    0.6649 C   0  0  1  0  0  0  0  0  0  0  0  0
   21.6103   71.4082   -1.5169 C   0  0  1  0  0  0  0  0  0  0  0  0
   17.9322   73.7230   -0.4082 H   0  0  0  0  0  0  0  0  0  0  0  0
   18.8789   74.1683    1.1694 H   0  0  0  0  0  0  0  0  0  0  0  0
   18.9170   72.1391   -3.2240 H   0  0  0  0  0  0  0  0  0  0  0  0
   20.8306   71.9109    2.8828 O   0  0  0  0  0  0  0  0  0  0  0  0
   21.9995   72.0641    2.0990 C   0  0  0  0  0  0  0  0  0  0  0  0
   21.0802   71.7068    3.7981 H   0  0  0  0  0  0  0  0  0  0  0  0
 25 28  1  0
 25 24  1  0
 25 26  1  6
 25 27  2  0
  1  4  1  0
  1 24  1  0
  1  2  1  1
  1  3  2  0
  6 11  1  0
  6 12  1  0
 29 36  1  0
 29 37  1  0
  9  7  1  6
  7 13  1  0
 10  8  1  6
  8 14  1  0
 37 28  1  1
  4  5  1  0
 33 30  1  1
 30 38  1  0
 34 31  1  1
 31 39  1  0
 35 32  1  6
 32 40  1  0
 41 42  1  0
 41 43  1  0
 15 19  2  0
 16 22  2  0
 12 17  1  1
 17 19  1  0
 17 20  1  0
 18 19  1  0
 18 22  1  0
 18 23  1  0
  9 10  1  0
  9 11  1  0
 10 12  1  0
 11  5  1  1
 33 34  1  0
 33 35  1  0
 34 36  1  0
 35 37  1  0
 36 42  1  1
 20 21  2  0
 21 22  1  0
M  CHG  2   2  -1  26  -1
M  END
>  <COMPND>  (177) 
    8629 

>  <AUTHOR>  (177) 
    GENERATED BY OPEN BABEL 3.1.1

>  <MASTER>  (177) 
        0    0    0    0    0    0    0    0   58    0   58    0

>  <minimizedAffinity>  (177) 
-7.19194

>  <CNNscore>  (177) 
0.5776497722

>  <CNNaffinity>  (177) 
4.2343130112

>  <CNN_VS>  (177) 
2.4459500313

>  <CNNaffinity_variance>  (177) 
0.4650284350

$$$$
178
     RDKit          3D

 43 45  0  0  0  0  0  0  0  0999 V2000
   23.2510   71.8209   -2.6992 P   0  0  2  0  0  0  0  0  0  0  0  0
   23.5798   73.4006   -2.8168 O   0  0  0  0  0  0  0  0  0  0  0  0
   24.3847   70.9086   -3.0650 O   0  0  0  0  0  0  0  0  0  0  0  0
   21.8965   71.6406   -3.5657 O   0  0  0  0  0  0  0  0  0  0  0  0
   21.6323   72.5640   -4.6075 C   0  0  0  0  0  0  0  0  0  0  0  0
   20.7592   70.6180   -5.7139 O   0  0  0  0  0  0  0  0  0  0  0  0
   21.2618   72.0825   -8.2816 O   0  0  0  0  0  0  0  0  0  0  0  0
   18.5789   72.4141   -7.9236 O   0  0  0  0  0  0  0  0  0  0  0  0
   20.8295   72.5930   -7.0215 C   0  0  1  0  0  0  0  0  0  0  0  0
   19.3807   72.2274   -6.7752 C   0  0  2  0  0  0  0  0  0  0  0  0
   21.5455   71.8106   -5.9277 C   0  0  1  0  0  0  0  0  0  0  0  0
   19.4889   70.7675   -6.3687 C   0  0  2  0  0  0  0  0  0  0  0  0
   20.8182   72.5670   -8.9960 H   0  0  0  0  0  0  0  0  0  0  0  0
   18.5411   73.3585   -8.1417 H   0  0  0  0  0  0  0  0  0  0  0  0
   16.9505   69.8219   -7.1689 O   0  0  0  0  0  0  0  0  0  0  0  0
   15.5724   69.2831   -2.8040 O   0  0  0  0  0  0  0  0  0  0  0  0
   18.4477   70.3727   -5.4624 N   0  0  0  0  0  0  0  0  0  0  0  0
   16.2664   69.5542   -4.9949 N   0  0  0  0  0  0  0  0  0  0  0  0
   17.2089   69.9129   -5.9670 C   0  0  0  0  0  0  0  0  0  0  0  0
   18.6601   70.4431   -4.0899 C   0  0  0  0  0  0  0  0  0  0  0  0
   17.7506   70.0985   -3.1760 C   0  0  0  0  0  0  0  0  0  0  0  0
   16.4298   69.6077   -3.6197 C   0  0  0  0  0  0  0  0  0  0  0  0
   15.3959   69.2314   -5.3230 H   0  0  0  0  0  0  0  0  0  0  0  0
   22.7307   71.6703   -1.1762 O   0  0  0  0  0  0  0  0  0  0  0  0
   21.3291   72.0868   -0.4871 P   0  0  2  0  0  0  0  0  0  0  0  0
   20.5183   70.6883   -0.4207 O   0  0  0  0  0  0  0  0  0  0  0  0
   20.6001   73.1922   -1.1945 O   0  0  0  0  0  0  0  0  0  0  0  0
   21.7089   72.4110    1.0477 O   0  0  0  0  0  0  0  0  0  0  0  0
   20.8621   74.2882    2.2206 O   0  0  0  0  0  0  0  0  0  0  0  0
   24.3668   73.7191    4.3286 O   0  0  0  0  0  0  0  0  0  0  0  0
   21.8545   73.0450    5.5460 O   0  0  0  0  0  0  0  0  0  0  0  0
   24.3278   73.3309    1.4603 O   0  0  0  0  0  0  0  0  0  0  0  0
   23.2086   73.3156    3.5930 C   0  0  1  0  0  0  0  0  0  0  0  0
   21.9688   73.8034    4.3451 C   0  0  1  0  0  0  0  0  0  0  0  0
   23.2659   73.9296    2.1955 C   0  0  2  0  0  0  0  0  0  0  0  0
   20.7041   73.6445    3.4904 C   0  0  1  0  0  0  0  0  0  0  0  0
   21.9418   73.7587    1.4488 C   0  0  1  0  0  0  0  0  0  0  0  0
   24.3368   73.3322    5.2169 H   0  0  0  0  0  0  0  0  0  0  0  0
   22.6596   73.1536    6.0763 H   0  0  0  0  0  0  0  0  0  0  0  0
   25.1604   73.4462    1.9433 H   0  0  0  0  0  0  0  0  0  0  0  0
   19.2003   73.5496    5.3446 O   0  0  0  0  0  0  0  0  0  0  0  0
   19.4806   74.2687    4.1578 C   0  0  0  0  0  0  0  0  0  0  0  0
   18.4240   73.9359    5.7803 H   0  0  0  0  0  0  0  0  0  0  0  0
 25 28  1  0
 25 24  1  0
 25 26  1  1
 25 27  2  0
  1  4  1  0
  1 24  1  0
  1  2  1  1
  1  3  2  0
  6 11  1  0
  6 12  1  0
 29 36  1  0
 29 37  1  0
  9  7  1  6
  7 13  1  0
 10  8  1  6
  8 14  1  0
 37 28  1  1
  4  5  1  0
 33 30  1  1
 30 38  1  0
 34 31  1  1
 31 39  1  0
 35 32  1  6
 32 40  1  0
 41 42  1  0
 41 43  1  0
 15 19  2  0
 16 22  2  0
 12 17  1  1
 17 19  1  0
 17 20  1  0
 18 19  1  0
 18 22  1  0
 18 23  1  0
  9 10  1  0
  9 11  1  0
 10 12  1  0
 11  5  1  1
 33 34  1  0
 33 35  1  0
 34 36  1  0
 35 37  1  0
 36 42  1  1
 20 21  2  0
 21 22  1  0
M  CHG  2   2  -1  26  -1
M  END
>  <COMPND>  (178) 
    8629 

>  <AUTHOR>  (178) 
    GENERATED BY OPEN BABEL 3.1.1

>  <MASTER>  (178) 
        0    0    0    0    0    0    0    0   58    0   58    0

>  <minimizedAffinity>  (178) 
-7.04111

>  <CNNscore>  (178) 
0.5375802517

>  <CNNaffinity>  (178) 
4.0747933388

>  <CNN_VS>  (178) 
2.1905283928

>  <CNNaffinity_variance>  (178) 
0.3319689333

$$$$
179
     RDKit          3D

 43 45  0  0  0  0  0  0  0  0999 V2000
   23.5903   72.4772   -3.6419 P   0  0  2  0  0  0  0  0  0  0  0  0
   24.2291   71.0400   -3.2623 O   0  0  0  0  0  0  0  0  0  0  0  0
   24.5890   73.5704   -3.8846 O   0  0  0  0  0  0  0  0  0  0  0  0
   22.5215   72.7519   -2.4587 O   0  0  0  0  0  0  0  0  0  0  0  0
   23.0064   72.9494   -1.1420 C   0  0  0  0  0  0  0  0  0  0  0  0
   24.0622   71.3969    0.3576 O   0  0  0  0  0  0  0  0  0  0  0  0
   21.2987   70.4270    1.0005 O   0  0  0  0  0  0  0  0  0  0  0  0
   21.8742   72.0343    3.1270 O   0  0  0  0  0  0  0  0  0  0  0  0
   21.7466   71.7512    0.7156 C   0  0  1  0  0  0  0  0  0  0  0  0
   22.5102   72.3135    1.8964 C   0  0  2  0  0  0  0  0  0  0  0  0
   22.8312   71.6605   -0.3506 C   0  0  1  0  0  0  0  0  0  0  0  0
   23.8544   71.6185    1.7621 C   0  0  2  0  0  0  0  0  0  0  0  0
   20.6052   70.4593    1.6787 H   0  0  0  0  0  0  0  0  0  0  0  0
   21.0236   72.4989    3.1642 H   0  0  0  0  0  0  0  0  0  0  0  0
   26.4431   70.6291    2.3080 O   0  0  0  0  0  0  0  0  0  0  0  0
   27.9216   74.7583    3.7239 O   0  0  0  0  0  0  0  0  0  0  0  0
   24.9353   72.4131    2.2737 N   0  0  0  0  0  0  0  0  0  0  0  0
   27.1772   72.6860    3.0124 N   0  0  0  0  0  0  0  0  0  0  0  0
   26.1962   71.8191    2.5143 C   0  0  0  0  0  0  0  0  0  0  0  0
   24.7397   73.7656    2.5311 C   0  0  0  0  0  0  0  0  0  0  0  0
   25.6852   74.5783    3.0072 C   0  0  0  0  0  0  0  0  0  0  0  0
   27.0310   74.0368    3.2857 C   0  0  0  0  0  0  0  0  0  0  0  0
   28.0635   72.2943    3.1880 H   0  0  0  0  0  0  0  0  0  0  0  0
   22.6484   72.1329   -4.9097 O   0  0  0  0  0  0  0  0  0  0  0  0
   21.8852   73.0978   -5.9582 P   0  0  2  0  0  0  0  0  0  0  0  0
   22.7010   72.8672   -7.3362 O   0  0  0  0  0  0  0  0  0  0  0  0
   21.7975   74.5320   -5.5231 O   0  0  0  0  0  0  0  0  0  0  0  0
   20.4583   72.3853   -6.2051 O   0  0  0  0  0  0  0  0  0  0  0  0
   19.7563   70.2440   -5.4708 O   0  0  0  0  0  0  0  0  0  0  0  0
   17.6733   70.4364   -9.0310 O   0  0  0  0  0  0  0  0  0  0  0  0
   16.2574   70.6837   -6.5446 O   0  0  0  0  0  0  0  0  0  0  0  0
   20.3574   71.5081   -8.8688 O   0  0  0  0  0  0  0  0  0  0  0  0
   18.2548   70.9556   -7.8320 C   0  0  1  0  0  0  0  0  0  0  0  0
   17.6100   70.2458   -6.6399 C   0  0  1  0  0  0  0  0  0  0  0  0
   19.7611   70.7029   -7.8577 C   0  0  2  0  0  0  0  0  0  0  0  0
   18.3637   70.5522   -5.3387 C   0  0  1  0  0  0  0  0  0  0  0  0
   20.4056   70.9920   -6.5008 C   0  0  1  0  0  0  0  0  0  0  0  0
   16.7170   70.5941   -9.0212 H   0  0  0  0  0  0  0  0  0  0  0  0
   15.7928   70.4848   -7.3728 H   0  0  0  0  0  0  0  0  0  0  0  0
   19.9411   71.3155   -9.7229 H   0  0  0  0  0  0  0  0  0  0  0  0
   16.9653   68.7344   -4.6686 O   0  0  0  0  0  0  0  0  0  0  0  0
   17.8347   69.7316   -4.1645 C   0  0  0  0  0  0  0  0  0  0  0  0
   16.6212   68.2041   -3.9323 H   0  0  0  0  0  0  0  0  0  0  0  0
 25 28  1  0
 25 24  1  0
 25 26  1  6
 25 27  2  0
  1  4  1  0
  1 24  1  0
  1  2  1  1
  1  3  2  0
  6 11  1  0
  6 12  1  0
 29 36  1  0
 29 37  1  0
  9  7  1  1
  7 13  1  0
 10  8  1  1
  8 14  1  0
 37 28  1  1
  4  5  1  0
 33 30  1  6
 30 38  1  0
 34 31  1  1
 31 39  1  0
 35 32  1  6
 32 40  1  0
 41 42  1  0
 41 43  1  0
 15 19  2  0
 16 22  2  0
 12 17  1  6
 17 19  1  0
 17 20  1  0
 18 19  1  0
 18 22  1  0
 18 23  1  0
  9 10  1  0
  9 11  1  0
 10 12  1  0
 11  5  1  1
 33 34  1  0
 33 35  1  0
 34 36  1  0
 35 37  1  0
 36 42  1  1
 20 21  2  0
 21 22  1  0
M  CHG  2   2  -1  26  -1
M  END
>  <COMPND>  (179) 
    8629 

>  <AUTHOR>  (179) 
    GENERATED BY OPEN BABEL 3.1.1

>  <MASTER>  (179) 
        0    0    0    0    0    0    0    0   58    0   58    0

>  <minimizedAffinity>  (179) 
-7.97288

>  <CNNscore>  (179) 
0.5243908763

>  <CNNaffinity>  (179) 
4.2313432693

>  <CNN_VS>  (179) 
2.2188777924

>  <CNNaffinity_variance>  (179) 
0.1861801445

$$$$
180
     RDKit          3D

 43 45  0  0  0  0  0  0  0  0999 V2000
   22.9508   72.6932   -3.7792 P   0  0  2  0  0  0  0  0  0  0  0  0
   23.9246   71.4111   -3.6204 O   0  0  0  0  0  0  0  0  0  0  0  0
   23.5728   73.8821   -4.4507 O   0  0  0  0  0  0  0  0  0  0  0  0
   22.3922   72.9445   -2.2816 O   0  0  0  0  0  0  0  0  0  0  0  0
   23.2837   72.7853   -1.1919 C   0  0  0  0  0  0  0  0  0  0  0  0
   23.6541   71.5506    0.8359 O   0  0  0  0  0  0  0  0  0  0  0  0
   20.9109   70.4125    0.4230 O   0  0  0  0  0  0  0  0  0  0  0  0
   20.4800   72.3316    2.3119 O   0  0  0  0  0  0  0  0  0  0  0  0
   21.3948   71.7249    0.1424 C   0  0  1  0  0  0  0  0  0  0  0  0
   21.5681   72.5073    1.4275 C   0  0  2  0  0  0  0  0  0  0  0  0
   22.8311   71.6001   -0.3501 C   0  0  1  0  0  0  0  0  0  0  0  0
   22.8641   71.9329    1.9738 C   0  0  2  0  0  0  0  0  0  0  0  0
   19.9948   70.4665    0.7389 H   0  0  0  0  0  0  0  0  0  0  0  0
   19.6794   72.7133    1.9196 H   0  0  0  0  0  0  0  0  0  0  0  0
   22.3396   72.5232    4.6857 O   0  0  0  0  0  0  0  0  0  0  0  0
   25.7536   75.6143    4.8630 O   0  0  0  0  0  0  0  0  0  0  0  0
   23.6007   72.8875    2.7533 N   0  0  0  0  0  0  0  0  0  0  0  0
   24.0400   74.0617    4.7718 N   0  0  0  0  0  0  0  0  0  0  0  0
   23.2561   73.1103    4.1068 C   0  0  0  0  0  0  0  0  0  0  0  0
   24.6519   73.5907    2.1751 C   0  0  0  0  0  0  0  0  0  0  0  0
   25.3889   74.4957    2.8226 C   0  0  0  0  0  0  0  0  0  0  0  0
   25.0942   74.7876    4.2403 C   0  0  0  0  0  0  0  0  0  0  0  0
   23.8180   74.2338    5.7157 H   0  0  0  0  0  0  0  0  0  0  0  0
   21.6671   72.0816   -4.5479 O   0  0  0  0  0  0  0  0  0  0  0  0
   20.5299   71.0437   -4.0554 P   0  0  2  0  0  0  0  0  0  0  0  0
   19.7374   71.8749   -2.9158 O   0  0  0  0  0  0  0  0  0  0  0  0
   21.0641   69.7180   -3.5960 O   0  0  0  0  0  0  0  0  0  0  0  0
   19.4943   70.9560   -5.2902 O   0  0  0  0  0  0  0  0  0  0  0  0
   19.3742   72.0185   -7.4053 O   0  0  0  0  0  0  0  0  0  0  0  0
   15.3906   72.2223   -6.3373 O   0  0  0  0  0  0  0  0  0  0  0  0
   16.2169   70.3891   -8.3878 O   0  0  0  0  0  0  0  0  0  0  0  0
   17.4442   72.6177   -4.3358 O   0  0  0  0  0  0  0  0  0  0  0  0
   16.6936   71.6362   -6.4033 C   0  0  1  0  0  0  0  0  0  0  0  0
   17.0504   71.4252   -7.8761 C   0  0  1  0  0  0  0  0  0  0  0  0
   17.6973   72.5746   -5.7360 C   0  0  2  0  0  0  0  0  0  0  0  0
   18.5297   71.0509   -8.0395 C   0  0  1  0  0  0  0  0  0  0  0  0
   19.1397   72.1395   -6.0009 C   0  0  1  0  0  0  0  0  0  0  0  0
   14.7484   71.6312   -6.7589 H   0  0  0  0  0  0  0  0  0  0  0  0
   15.2856   70.6377   -8.2781 H   0  0  0  0  0  0  0  0  0  0  0  0
   16.5281   72.8947   -4.1813 H   0  0  0  0  0  0  0  0  0  0  0  0
   18.2045   69.9641  -10.1423 O   0  0  0  0  0  0  0  0  0  0  0  0
   18.9454   70.9900   -9.5076 C   0  0  0  0  0  0  0  0  0  0  0  0
   18.4584   69.9139  -11.0776 H   0  0  0  0  0  0  0  0  0  0  0  0
 25 28  1  0
 25 24  1  0
 25 26  1  1
 25 27  2  0
  1  4  1  0
  1 24  1  0
  1  2  1  1
  1  3  2  0
  6 11  1  0
  6 12  1  0
 29 36  1  0
 29 37  1  0
  9  7  1  1
  7 13  1  0
 10  8  1  1
  8 14  1  0
 37 28  1  1
  4  5  1  0
 33 30  1  6
 30 38  1  0
 34 31  1  1
 31 39  1  0
 35 32  1  1
 32 40  1  0
 41 42  1  0
 41 43  1  0
 15 19  2  0
 16 22  2  0
 12 17  1  6
 17 19  1  0
 17 20  1  0
 18 19  1  0
 18 22  1  0
 18 23  1  0
  9 10  1  0
  9 11  1  0
 10 12  1  0
 11  5  1  6
 33 34  1  0
 33 35  1  0
 34 36  1  0
 35 37  1  0
 36 42  1  6
 20 21  2  0
 21 22  1  0
M  CHG  2   2  -1  26  -1
M  END
>  <COMPND>  (180) 
    8629 

>  <AUTHOR>  (180) 
    GENERATED BY OPEN BABEL 3.1.1

>  <MASTER>  (180) 
        0    0    0    0    0    0    0    0   58    0   58    0

>  <minimizedAffinity>  (180) 
-6.91154

>  <CNNscore>  (180) 
0.5103121996

>  <CNNaffinity>  (180) 
4.1322197914

>  <CNN_VS>  (180) 
2.1087222099

>  <CNNaffinity_variance>  (180) 
0.1393747777

$$$$
181
     RDKit          3D

 43 45  0  0  0  0  0  0  0  0999 V2000
   22.7976   71.6205   -2.6725 P   0  0  2  0  0  0  0  0  0  0  0  0
   24.2027   70.9635   -3.1324 O   0  0  0  0  0  0  0  0  0  0  0  0
   22.3265   71.2173   -1.3061 O   0  0  0  0  0  0  0  0  0  0  0  0
   21.7911   71.2781   -3.8922 O   0  0  0  0  0  0  0  0  0  0  0  0
   20.8458   70.2372   -3.7168 C   0  0  0  0  0  0  0  0  0  0  0  0
   19.0681   71.5577   -4.6495 O   0  0  0  0  0  0  0  0  0  0  0  0
   17.3457   70.4447   -2.4618 O   0  0  0  0  0  0  0  0  0  0  0  0
   16.6219   68.9351   -4.6145 O   0  0  0  0  0  0  0  0  0  0  0  0
   18.3919   69.8117   -3.1968 C   0  0  1  0  0  0  0  0  0  0  0  0
   17.9245   69.4825   -4.5992 C   0  0  2  0  0  0  0  0  0  0  0  0
   19.4761   70.8498   -3.4583 C   0  0  1  0  0  0  0  0  0  0  0  0
   17.9973   70.8377   -5.2819 C   0  0  2  0  0  0  0  0  0  0  0  0
   16.6417   69.8012   -2.2826 H   0  0  0  0  0  0  0  0  0  0  0  0
   16.6277   68.0738   -4.1686 H   0  0  0  0  0  0  0  0  0  0  0  0
   16.0584   70.2491   -7.2497 O   0  0  0  0  0  0  0  0  0  0  0  0
   19.1741   70.4450  -10.6401 O   0  0  0  0  0  0  0  0  0  0  0  0
   18.2741   70.7292   -6.6865 N   0  0  0  0  0  0  0  0  0  0  0  0
   17.6113   70.3473   -8.9363 N   0  0  0  0  0  0  0  0  0  0  0  0
   17.2292   70.4288   -7.5911 C   0  0  0  0  0  0  0  0  0  0  0  0
   19.5697   70.9203   -7.1543 C   0  0  0  0  0  0  0  0  0  0  0  0
   19.9179   70.8378   -8.4401 C   0  0  0  0  0  0  0  0  0  0  0  0
   18.8857   70.5277   -9.4502 C   0  0  0  0  0  0  0  0  0  0  0  0
   16.9001   70.1387   -9.5846 H   0  0  0  0  0  0  0  0  0  0  0  0
   23.0611   73.2051   -2.8528 O   0  0  0  0  0  0  0  0  0  0  0  0
   22.0323   74.4483   -2.9478 P   0  0  2  0  0  0  0  0  0  0  0  0
   22.7395   75.5855   -2.0401 O   0  0  0  0  0  0  0  0  0  0  0  0
   20.6262   74.1160   -2.5397 O   0  0  0  0  0  0  0  0  0  0  0  0
   22.1797   74.9857   -4.4625 O   0  0  0  0  0  0  0  0  0  0  0  0
   20.4962   75.3959   -6.0793 O   0  0  0  0  0  0  0  0  0  0  0  0
   23.4939   74.0438   -8.5767 O   0  0  0  0  0  0  0  0  0  0  0  0
   22.8052   76.8319   -8.5684 O   0  0  0  0  0  0  0  0  0  0  0  0
   23.1146   72.8191   -5.9813 O   0  0  0  0  0  0  0  0  0  0  0  0
   22.9514   74.7265   -7.4430 C   0  0  1  0  0  0  0  0  0  0  0  0
   22.0122   75.8236   -7.9481 C   0  0  1  0  0  0  0  0  0  0  0  0
   22.1913   73.7259   -6.5745 C   0  0  2  0  0  0  0  0  0  0  0  0
   21.1905   76.4219   -6.7984 C   0  0  1  0  0  0  0  0  0  0  0  0
   21.3683   74.4277   -5.4928 C   0  0  1  0  0  0  0  0  0  0  0  0
   23.9782   74.6735   -9.1320 H   0  0  0  0  0  0  0  0  0  0  0  0
   23.3194   76.4409   -9.2922 H   0  0  0  0  0  0  0  0  0  0  0  0
   23.6292   72.3810   -6.6764 H   0  0  0  0  0  0  0  0  0  0  0  0
   20.7908   78.5861   -7.7288 O   0  0  0  0  0  0  0  0  0  0  0  0
   20.1363   77.4060   -7.3007 C   0  0  0  0  0  0  0  0  0  0  0  0
   20.1322   79.2215   -8.0515 H   0  0  0  0  0  0  0  0  0  0  0  0
 25 28  1  0
 25 24  1  0
 25 26  1  1
 25 27  2  0
  1  4  1  0
  1 24  1  0
  1  2  1  6
  1  3  2  0
  6 11  1  0
  6 12  1  0
 29 36  1  0
 29 37  1  0
  9  7  1  1
  7 13  1  0
 10  8  1  1
  8 14  1  0
 37 28  1  1
  4  5  1  0
 33 30  1  6
 30 38  1  0
 34 31  1  1
 31 39  1  0
 35 32  1  1
 32 40  1  0
 41 42  1  0
 41 43  1  0
 15 19  2  0
 16 22  2  0
 12 17  1  6
 17 19  1  0
 17 20  1  0
 18 19  1  0
 18 22  1  0
 18 23  1  0
  9 10  1  0
  9 11  1  0
 10 12  1  0
 11  5  1  6
 33 34  1  0
 33 35  1  0
 34 36  1  0
 35 37  1  0
 36 42  1  6
 20 21  2  0
 21 22  1  0
M  CHG  2   2  -1  26  -1
M  END
>  <COMPND>  (181) 
    8629 

>  <AUTHOR>  (181) 
    GENERATED BY OPEN BABEL 3.1.1

>  <MASTER>  (181) 
        0    0    0    0    0    0    0    0   58    0   58    0

>  <minimizedAffinity>  (181) 
-7.03324

>  <CNNscore>  (181) 
0.9041105509

>  <CNNaffinity>  (181) 
4.6675515175

>  <CNN_VS>  (181) 
4.2199826241

>  <CNNaffinity_variance>  (181) 
0.2509561181

$$$$
182
     RDKit          3D

 43 45  0  0  0  0  0  0  0  0999 V2000
   22.9505   72.1878   -3.8512 P   0  0  2  0  0  0  0  0  0  0  0  0
   23.4611   73.1754   -5.0265 O   0  0  0  0  0  0  0  0  0  0  0  0
   23.9984   71.2687   -3.2958 O   0  0  0  0  0  0  0  0  0  0  0  0
   21.6494   71.4668   -4.4877 O   0  0  0  0  0  0  0  0  0  0  0  0
   20.9513   70.5160   -3.7025 C   0  0  0  0  0  0  0  0  0  0  0  0
   19.0622   71.6712   -4.6355 O   0  0  0  0  0  0  0  0  0  0  0  0
   17.4698   70.5004   -2.3806 O   0  0  0  0  0  0  0  0  0  0  0  0
   16.8209   68.8760   -4.4727 O   0  0  0  0  0  0  0  0  0  0  0  0
   18.5466   69.9250   -3.1187 C   0  0  1  0  0  0  0  0  0  0  0  0
   18.0789   69.5191   -4.5008 C   0  0  2  0  0  0  0  0  0  0  0  0
   19.5446   71.0324   -3.4331 C   0  0  1  0  0  0  0  0  0  0  0  0
   18.0368   70.8545   -5.2240 C   0  0  2  0  0  0  0  0  0  0  0  0
   16.8196   69.8120   -2.1679 H   0  0  0  0  0  0  0  0  0  0  0  0
   16.8998   68.0314   -4.0022 H   0  0  0  0  0  0  0  0  0  0  0  0
   16.1099   70.0664   -7.1330 O   0  0  0  0  0  0  0  0  0  0  0  0
   19.1386   70.3868  -10.5921 O   0  0  0  0  0  0  0  0  0  0  0  0
   18.2944   70.7240   -6.6304 N   0  0  0  0  0  0  0  0  0  0  0  0
   17.6195   70.2267   -8.8538 N   0  0  0  0  0  0  0  0  0  0  0  0
   17.2577   70.3207   -7.5039 C   0  0  0  0  0  0  0  0  0  0  0  0
   19.5634   70.9950   -7.1305 C   0  0  0  0  0  0  0  0  0  0  0  0
   19.8925   70.8994   -8.4204 C   0  0  0  0  0  0  0  0  0  0  0  0
   18.8672   70.4842   -9.3993 C   0  0  0  0  0  0  0  0  0  0  0  0
   16.9135   69.9471   -9.4809 H   0  0  0  0  0  0  0  0  0  0  0  0
   22.3097   73.2073   -2.7727 O   0  0  0  0  0  0  0  0  0  0  0  0
   22.9939   74.3453   -1.8508 P   0  0  2  0  0  0  0  0  0  0  0  0
   21.8040   75.4223   -1.6467 O   0  0  0  0  0  0  0  0  0  0  0  0
   24.2586   74.9201   -2.4201 O   0  0  0  0  0  0  0  0  0  0  0  0
   23.1669   73.6500   -0.4046 O   0  0  0  0  0  0  0  0  0  0  0  0
   23.9167   71.5423    0.3777 O   0  0  0  0  0  0  0  0  0  0  0  0
   20.5218   71.9364    2.6950 O   0  0  0  0  0  0  0  0  0  0  0  0
   23.1085   72.2211    3.9097 O   0  0  0  0  0  0  0  0  0  0  0  0
   20.5042   72.8351   -0.0567 O   0  0  0  0  0  0  0  0  0  0  0  0
   21.6831   72.3939    1.9968 C   0  0  1  0  0  0  0  0  0  0  0  0
   22.9078   71.7017    2.5981 C   0  0  1  0  0  0  0  0  0  0  0  0
   21.5434   72.0483    0.5154 C   0  0  2  0  0  0  0  0  0  0  0  0
   24.1551   71.9340    1.7347 C   0  0  1  0  0  0  0  0  0  0  0  0
   22.8539   72.2691   -0.2421 C   0  0  1  0  0  0  0  0  0  0  0  0
   20.6039   72.1532    3.6361 H   0  0  0  0  0  0  0  0  0  0  0  0
   22.3136   72.0684    4.4444 H   0  0  0  0  0  0  0  0  0  0  0  0
   19.6799   72.6862    0.4315 H   0  0  0  0  0  0  0  0  0  0  0  0
   24.8782   69.8992    2.7572 O   0  0  0  0  0  0  0  0  0  0  0  0
   25.3518   71.1243    2.2290 C   0  0  0  0  0  0  0  0  0  0  0  0
   25.6290   69.3732    3.0754 H   0  0  0  0  0  0  0  0  0  0  0  0
 25 28  1  0
 25 24  1  0
 25 26  1  1
 25 27  2  0
  1  4  1  0
  1 24  1  0
  1  2  1  6
  1  3  2  0
  6 11  1  0
  6 12  1  0
 29 36  1  0
 29 37  1  0
  9  7  1  1
  7 13  1  0
 10  8  1  1
  8 14  1  0
 37 28  1  1
  4  5  1  0
 33 30  1  1
 30 38  1  0
 34 31  1  1
 31 39  1  0
 35 32  1  6
 32 40  1  0
 41 42  1  0
 41 43  1  0
 15 19  2  0
 16 22  2  0
 12 17  1  6
 17 19  1  0
 17 20  1  0
 18 19  1  0
 18 22  1  0
 18 23  1  0
  9 10  1  0
  9 11  1  0
 10 12  1  0
 11  5  1  6
 33 34  1  0
 33 35  1  0
 34 36  1  0
 35 37  1  0
 36 42  1  1
 20 21  2  0
 21 22  1  0
M  CHG  2   2  -1  26  -1
M  END
>  <COMPND>  (182) 
    8629 

>  <AUTHOR>  (182) 
    GENERATED BY OPEN BABEL 3.1.1

>  <MASTER>  (182) 
        0    0    0    0    0    0    0    0   58    0   58    0

>  <minimizedAffinity>  (182) 
-7.73862

>  <CNNscore>  (182) 
0.8986784816

>  <CNNaffinity>  (182) 
4.7895460129

>  <CNN_VS>  (182) 
4.3042621613

>  <CNNaffinity_variance>  (182) 
0.0521030799

$$$$
183
     RDKit          3D

 43 45  0  0  0  0  0  0  0  0999 V2000
   22.8275   71.6885   -2.4316 P   0  0  2  0  0  0  0  0  0  0  0  0
   24.1588   71.0286   -3.0715 O   0  0  0  0  0  0  0  0  0  0  0  0
   22.3540   71.0520   -1.1580 O   0  0  0  0  0  0  0  0  0  0  0  0
   21.7674   71.6875   -3.6540 O   0  0  0  0  0  0  0  0  0  0  0  0
   20.8667   70.5995   -3.7670 C   0  0  0  0  0  0  0  0  0  0  0  0
   18.9664   71.7067   -4.7348 O   0  0  0  0  0  0  0  0  0  0  0  0
   17.3775   70.5584   -2.4660 O   0  0  0  0  0  0  0  0  0  0  0  0
   16.7663   68.8819   -4.5281 O   0  0  0  0  0  0  0  0  0  0  0  0
   18.4674   69.9843   -3.1856 C   0  0  1  0  0  0  0  0  0  0  0  0
   18.0146   69.5432   -4.5619 C   0  0  2  0  0  0  0  0  0  0  0  0
   19.4507   71.1000   -3.5168 C   0  0  1  0  0  0  0  0  0  0  0  0
   17.9571   70.8627   -5.3126 C   0  0  2  0  0  0  0  0  0  0  0  0
   16.7363   69.8648   -2.2431 H   0  0  0  0  0  0  0  0  0  0  0  0
   16.8548   68.0485   -4.0399 H   0  0  0  0  0  0  0  0  0  0  0  0
   15.9992   70.2503   -7.2541 O   0  0  0  0  0  0  0  0  0  0  0  0
   19.1024   70.2892  -10.6613 O   0  0  0  0  0  0  0  0  0  0  0  0
   18.2256   70.7074   -6.7145 N   0  0  0  0  0  0  0  0  0  0  0  0
   17.5459   70.2704   -8.9491 N   0  0  0  0  0  0  0  0  0  0  0  0
   17.1714   70.3988   -7.6055 C   0  0  0  0  0  0  0  0  0  0  0  0
   19.5222   70.8613   -7.1929 C   0  0  0  0  0  0  0  0  0  0  0  0
   19.8630   70.7343   -8.4771 C   0  0  0  0  0  0  0  0  0  0  0  0
   18.8209   70.4126   -9.4733 C   0  0  0  0  0  0  0  0  0  0  0  0
   16.8281   70.0552   -9.5881 H   0  0  0  0  0  0  0  0  0  0  0  0
   23.2246   73.2496   -2.2964 O   0  0  0  0  0  0  0  0  0  0  0  0
   22.3118   74.5834   -2.3239 P   0  0  2  0  0  0  0  0  0  0  0  0
   23.2339   75.6796   -1.5718 O   0  0  0  0  0  0  0  0  0  0  0  0
   20.9465   74.4071   -1.7250 O   0  0  0  0  0  0  0  0  0  0  0  0
   22.3094   75.0450   -3.8705 O   0  0  0  0  0  0  0  0  0  0  0  0
   23.4423   73.9531   -5.6427 O   0  0  0  0  0  0  0  0  0  0  0  0
   23.5318   77.8208   -7.0861 O   0  0  0  0  0  0  0  0  0  0  0  0
   21.7874   75.8924   -8.3053 O   0  0  0  0  0  0  0  0  0  0  0  0
   23.8968   77.3265   -4.2574 O   0  0  0  0  0  0  0  0  0  0  0  0
   22.9737   76.7015   -6.3925 C   0  0  1  0  0  0  0  0  0  0  0  0
   22.8210   75.5487   -7.3867 C   0  0  1  0  0  0  0  0  0  0  0  0
   23.9075   76.3062   -5.2500 C   0  0  2  0  0  0  0  0  0  0  0  0
   22.4812   74.2371   -6.6661 C   0  0  1  0  0  0  0  0  0  0  0  0
   23.5098   74.9634   -4.6345 C   0  0  1  0  0  0  0  0  0  0  0  0
   22.9435   78.0772   -7.8125 H   0  0  0  0  0  0  0  0  0  0  0  0
   22.0140   76.7225   -8.7531 H   0  0  0  0  0  0  0  0  0  0  0  0
   24.1506   78.1713   -4.6595 H   0  0  0  0  0  0  0  0  0  0  0  0
   23.3960   73.3050   -8.6670 O   0  0  0  0  0  0  0  0  0  0  0  0
   22.4795   73.0444   -7.6198 C   0  0  0  0  0  0  0  0  0  0  0  0
   23.4057   72.5542   -9.2816 H   0  0  0  0  0  0  0  0  0  0  0  0
 25 28  1  0
 25 24  1  0
 25 26  1  1
 25 27  2  0
  1  4  1  0
  1 24  1  0
  1  2  1  6
  1  3  2  0
  6 11  1  0
  6 12  1  0
 29 36  1  0
 29 37  1  0
  9  7  1  1
  7 13  1  0
 10  8  1  1
  8 14  1  0
 37 28  1  6
  4  5  1  0
 33 30  1  6
 30 38  1  0
 34 31  1  6
 31 39  1  0
 35 32  1  1
 32 40  1  0
 41 42  1  0
 41 43  1  0
 15 19  2  0
 16 22  2  0
 12 17  1  6
 17 19  1  0
 17 20  1  0
 18 19  1  0
 18 22  1  0
 18 23  1  0
  9 10  1  0
  9 11  1  0
 10 12  1  0
 11  5  1  6
 33 34  1  0
 33 35  1  0
 34 36  1  0
 35 37  1  0
 36 42  1  6
 20 21  2  0
 21 22  1  0
M  CHG  2   2  -1  26  -1
M  END
>  <COMPND>  (183) 
    8629 

>  <AUTHOR>  (183) 
    GENERATED BY OPEN BABEL 3.1.1

>  <MASTER>  (183) 
        0    0    0    0    0    0    0    0   58    0   58    0

>  <minimizedAffinity>  (183) 
-7.29307

>  <CNNscore>  (183) 
0.8878052831

>  <CNNaffinity>  (183) 
4.6581530571

>  <CNN_VS>  (183) 
4.1355328560

>  <CNNaffinity_variance>  (183) 
0.3840611577

$$$$
184
     RDKit          3D

 43 45  0  0  0  0  0  0  0  0999 V2000
   20.5570   71.2854   -1.2676 P   0  0  2  0  0  0  0  0  0  0  0  0
   21.1064   70.5839    0.0827 O   0  0  0  0  0  0  0  0  0  0  0  0
   20.0679   72.6936   -1.0964 O   0  0  0  0  0  0  0  0  0  0  0  0
   19.4728   70.2298   -1.8404 O   0  0  0  0  0  0  0  0  0  0  0  0
   19.1515   70.2719   -3.2198 C   0  0  0  0  0  0  0  0  0  0  0  0
   17.5266   71.3767   -4.6029 O   0  0  0  0  0  0  0  0  0  0  0  0
   15.4592   69.7985   -3.1109 O   0  0  0  0  0  0  0  0  0  0  0  0
   15.6991   68.4078   -5.4444 O   0  0  0  0  0  0  0  0  0  0  0  0
   16.7739   69.4137   -3.5094 C   0  0  1  0  0  0  0  0  0  0  0  0
   16.8158   69.1511   -5.0004 C   0  0  2  0  0  0  0  0  0  0  0  0
   17.6801   70.6312   -3.3753 C   0  0  1  0  0  0  0  0  0  0  0  0
   16.8433   70.5602   -5.5678 C   0  0  2  0  0  0  0  0  0  0  0  0
   14.8624   69.0370   -3.1878 H   0  0  0  0  0  0  0  0  0  0  0  0
   15.7268   67.5193   -5.0562 H   0  0  0  0  0  0  0  0  0  0  0  0
   15.6067   70.3743   -8.1004 O   0  0  0  0  0  0  0  0  0  0  0  0
   19.6275   70.8515  -10.3020 O   0  0  0  0  0  0  0  0  0  0  0  0
   17.5429   70.6330   -6.8194 N   0  0  0  0  0  0  0  0  0  0  0  0
   17.6097   70.6122   -9.1946 N   0  0  0  0  0  0  0  0  0  0  0  0
   16.8281   70.5275   -8.0353 C   0  0  0  0  0  0  0  0  0  0  0  0
   18.9225   70.8075   -6.8329 C   0  0  0  0  0  0  0  0  0  0  0  0
   19.6533   70.8850   -7.9470 C   0  0  0  0  0  0  0  0  0  0  0  0
   18.9834   70.7841   -9.2597 C   0  0  0  0  0  0  0  0  0  0  0  0
   17.1333   70.5410  -10.0535 H   0  0  0  0  0  0  0  0  0  0  0  0
   21.7973   71.1240   -2.2916 O   0  0  0  0  0  0  0  0  0  0  0  0
   23.0808   72.0688   -2.5617 P   0  0  2  0  0  0  0  0  0  0  0  0
   24.1771   71.0424   -3.1635 O   0  0  0  0  0  0  0  0  0  0  0  0
   23.5454   72.8349   -1.3571 O   0  0  0  0  0  0  0  0  0  0  0  0
   22.6531   72.9900   -3.8161 O   0  0  0  0  0  0  0  0  0  0  0  0
   20.3601   73.0618   -4.4106 O   0  0  0  0  0  0  0  0  0  0  0  0
   21.9984   74.4696   -7.9298 O   0  0  0  0  0  0  0  0  0  0  0  0
   20.6055   76.2809   -6.1900 O   0  0  0  0  0  0  0  0  0  0  0  0
   23.3231   72.3527   -6.4657 O   0  0  0  0  0  0  0  0  0  0  0  0
   21.9047   74.2988   -6.5130 C   0  0  1  0  0  0  0  0  0  0  0  0
   20.5604   74.8636   -6.0498 C   0  0  1  0  0  0  0  0  0  0  0  0
   22.0056   72.8110   -6.1818 C   0  0  2  0  0  0  0  0  0  0  0  0
   20.2708   74.4798   -4.5924 C   0  0  1  0  0  0  0  0  0  0  0  0
   21.6508   72.5324   -4.7201 C   0  0  1  0  0  0  0  0  0  0  0  0
   21.9356   75.4122   -8.1468 H   0  0  0  0  0  0  0  0  0  0  0  0
   20.7895   76.5098   -7.1146 H   0  0  0  0  0  0  0  0  0  0  0  0
   23.5356   72.5345   -7.3939 H   0  0  0  0  0  0  0  0  0  0  0  0
   18.4566   74.0576   -3.0960 O   0  0  0  0  0  0  0  0  0  0  0  0
   18.8673   74.8976   -4.1590 C   0  0  0  0  0  0  0  0  0  0  0  0
   17.5650   74.3121   -2.8096 H   0  0  0  0  0  0  0  0  0  0  0  0
 25 28  1  0
 25 24  1  0
 25 26  1  6
 25 27  2  0
  1  4  1  0
  1 24  1  0
  1  2  1  1
  1  3  2  0
  6 11  1  0
  6 12  1  0
 29 36  1  0
 29 37  1  0
  9  7  1  6
  7 13  1  0
 10  8  1  6
  8 14  1  0
 37 28  1  1
  4  5  1  0
 33 30  1  6
 30 38  1  0
 34 31  1  1
 31 39  1  0
 35 32  1  1
 32 40  1  0
 41 42  1  0
 41 43  1  0
 15 19  2  0
 16 22  2  0
 12 17  1  6
 17 19  1  0
 17 20  1  0
 18 19  1  0
 18 22  1  0
 18 23  1  0
  9 10  1  0
  9 11  1  0
 10 12  1  0
 11  5  1  6
 33 34  1  0
 33 35  1  0
 34 36  1  0
 35 37  1  0
 36 42  1  6
 20 21  2  0
 21 22  1  0
M  CHG  2   2  -1  26  -1
M  END
>  <COMPND>  (184) 
    8629 

>  <AUTHOR>  (184) 
    GENERATED BY OPEN BABEL 3.1.1

>  <MASTER>  (184) 
        0    0    0    0    0    0    0    0   58    0   58    0

>  <minimizedAffinity>  (184) 
-7.68011

>  <CNNscore>  (184) 
0.8820745349

>  <CNNaffinity>  (184) 
4.5767774582

>  <CNN_VS>  (184) 
4.0370588303

>  <CNNaffinity_variance>  (184) 
0.6717272997

$$$$
185
     RDKit          3D

 43 45  0  0  0  0  0  0  0  0999 V2000
   21.7515   74.0815   -3.8745 P   0  0  2  0  0  0  0  0  0  0  0  0
   21.9627   74.8962   -2.4928 O   0  0  0  0  0  0  0  0  0  0  0  0
   21.9178   74.8970   -5.1229 O   0  0  0  0  0  0  0  0  0  0  0  0
   20.3116   73.3675   -3.6882 O   0  0  0  0  0  0  0  0  0  0  0  0
   19.2375   73.7865   -4.5120 C   0  0  0  0  0  0  0  0  0  0  0  0
   17.3694   72.5758   -5.4164 O   0  0  0  0  0  0  0  0  0  0  0  0
   17.1662   71.2544   -2.7324 O   0  0  0  0  0  0  0  0  0  0  0  0
   18.4256   69.3585   -4.2345 O   0  0  0  0  0  0  0  0  0  0  0  0
   18.3291   71.6589   -3.4532 C   0  0  1  0  0  0  0  0  0  0  0  0
   18.5888   70.7120   -4.6063 C   0  0  2  0  0  0  0  0  0  0  0  0
   18.0038   72.9596   -4.1768 C   0  0  1  0  0  0  0  0  0  0  0  0
   17.5581   71.1667   -5.6256 C   0  0  2  0  0  0  0  0  0  0  0  0
   17.3497   70.4258   -2.2617 H   0  0  0  0  0  0  0  0  0  0  0  0
   19.1043   69.1174   -3.5850 H   0  0  0  0  0  0  0  0  0  0  0  0
   15.8985   70.2056   -7.6992 O   0  0  0  0  0  0  0  0  0  0  0  0
   19.3300   70.3722  -10.7713 O   0  0  0  0  0  0  0  0  0  0  0  0
   17.9917   70.9499   -6.9770 N   0  0  0  0  0  0  0  0  0  0  0  0
   17.6084   70.2895   -9.2272 N   0  0  0  0  0  0  0  0  0  0  0  0
   17.0792   70.4636   -7.9421 C   0  0  0  0  0  0  0  0  0  0  0  0
   19.3085   71.2190   -7.3339 C   0  0  0  0  0  0  0  0  0  0  0  0
   19.7979   71.0464   -8.5636 C   0  0  0  0  0  0  0  0  0  0  0  0
   18.9101   70.5416   -9.6308 C   0  0  0  0  0  0  0  0  0  0  0  0
   16.9912   69.9513   -9.9160 H   0  0  0  0  0  0  0  0  0  0  0  0
   22.7888   72.8499   -3.7324 O   0  0  0  0  0  0  0  0  0  0  0  0
   22.7670   71.5489   -2.7733 P   0  0  2  0  0  0  0  0  0  0  0  0
   24.2575   70.9415   -2.9378 O   0  0  0  0  0  0  0  0  0  0  0  0
   21.6648   70.5767   -3.0800 O   0  0  0  0  0  0  0  0  0  0  0  0
   22.7336   72.1468   -1.2745 O   0  0  0  0  0  0  0  0  0  0  0  0
   24.2203   71.8633    0.5493 O   0  0  0  0  0  0  0  0  0  0  0  0
   20.6421   71.8727    2.6102 O   0  0  0  0  0  0  0  0  0  0  0  0
   22.3902   74.1439    2.7938 O   0  0  0  0  0  0  0  0  0  0  0  0
   20.8214   70.5639    0.0344 O   0  0  0  0  0  0  0  0  0  0  0  0
   21.5523   72.2622    1.5781 C   0  0  1  0  0  0  0  0  0  0  0  0
   22.7815   72.8927    2.2356 C   0  0  1  0  0  0  0  0  0  0  0  0
   21.9485   71.0280    0.7699 C   0  0  2  0  0  0  0  0  0  0  0  0
   23.9130   73.0920    1.2182 C   0  0  1  0  0  0  0  0  0  0  0  0
   23.1142   71.3224   -0.1759 C   0  0  1  0  0  0  0  0  0  0  0  0
   20.3863   72.6519    3.1268 H   0  0  0  0  0  0  0  0  0  0  0  0
   21.6749   74.0041    3.4342 H   0  0  0  0  0  0  0  0  0  0  0  0
   20.0905   70.3808    0.6444 H   0  0  0  0  0  0  0  0  0  0  0  0
   25.1472   73.2438    3.2584 O   0  0  0  0  0  0  0  0  0  0  0  0
   25.2014   73.5726    1.8824 C   0  0  0  0  0  0  0  0  0  0  0  0
   25.9609   73.5435    3.6940 H   0  0  0  0  0  0  0  0  0  0  0  0
 25 28  1  0
 25 24  1  0
 25 26  1  1
 25 27  2  0
  1  4  1  0
  1 24  1  0
  1  2  1  1
  1  3  2  0
  6 11  1  0
  6 12  1  0
 29 36  1  0
 29 37  1  0
  9  7  1  6
  7 13  1  0
 10  8  1  1
  8 14  1  0
 37 28  1  6
  4  5  1  0
 33 30  1  1
 30 38  1  0
 34 31  1  6
 31 39  1  0
 35 32  1  6
 32 40  1  0
 41 42  1  0
 41 43  1  0
 15 19  2  0
 16 22  2  0
 12 17  1  6
 17 19  1  0
 17 20  1  0
 18 19  1  0
 18 22  1  0
 18 23  1  0
  9 10  1  0
  9 11  1  0
 10 12  1  0
 11  5  1  6
 33 34  1  0
 33 35  1  0
 34 36  1  0
 35 37  1  0
 36 42  1  1
 20 21  2  0
 21 22  1  0
M  CHG  2   2  -1  26  -1
M  END
>  <COMPND>  (185) 
    8629 

>  <AUTHOR>  (185) 
    GENERATED BY OPEN BABEL 3.1.1

>  <MASTER>  (185) 
        0    0    0    0    0    0    0    0   58    0   58    0

>  <minimizedAffinity>  (185) 
-7.32935

>  <CNNscore>  (185) 
0.8664182425

>  <CNNaffinity>  (185) 
4.5439987183

>  <CNN_VS>  (185) 
3.9370033741

>  <CNNaffinity_variance>  (185) 
0.0188798867

$$$$
186
     RDKit          3D

 43 45  0  0  0  0  0  0  0  0999 V2000
   22.9687   72.7349   -4.5234 P   0  0  2  0  0  0  0  0  0  0  0  0
   22.9695   72.3986   -6.1059 O   0  0  0  0  0  0  0  0  0  0  0  0
   23.9192   71.9156   -3.7008 O   0  0  0  0  0  0  0  0  0  0  0  0
   21.4090   72.6320   -4.1053 O   0  0  0  0  0  0  0  0  0  0  0  0
   20.9025   71.3764   -3.6875 C   0  0  0  0  0  0  0  0  0  0  0  0
   18.7689   71.9504   -4.6322 O   0  0  0  0  0  0  0  0  0  0  0  0
   17.5579   70.4845   -2.3137 O   0  0  0  0  0  0  0  0  0  0  0  0
   17.3551   68.6676   -4.3371 O   0  0  0  0  0  0  0  0  0  0  0  0
   18.7454   70.1889   -3.0472 C   0  0  1  0  0  0  0  0  0  0  0  0
   18.3958   69.6209   -4.4069 C   0  0  2  0  0  0  0  0  0  0  0  0
   19.4103   71.5094   -3.4154 C   0  0  1  0  0  0  0  0  0  0  0  0
   17.9955   70.8684   -5.1760 C   0  0  2  0  0  0  0  0  0  0  0  0
   17.1159   69.6564   -2.0670 H   0  0  0  0  0  0  0  0  0  0  0  0
   17.6587   67.8931   -3.8384 H   0  0  0  0  0  0  0  0  0  0  0  0
   16.1975   69.8040   -7.0766 O   0  0  0  0  0  0  0  0  0  0  0  0
   19.1619   70.4926  -10.5377 O   0  0  0  0  0  0  0  0  0  0  0  0
   18.2714   70.7579   -6.5807 N   0  0  0  0  0  0  0  0  0  0  0  0
   17.6749   70.1479   -8.7984 N   0  0  0  0  0  0  0  0  0  0  0  0
   17.3009   70.2075   -7.4499 C   0  0  0  0  0  0  0  0  0  0  0  0
   19.4929   71.1928   -7.0832 C   0  0  0  0  0  0  0  0  0  0  0  0
   19.8347   71.1278   -8.3717 C   0  0  0  0  0  0  0  0  0  0  0  0
   18.8773   70.5660   -9.3463 C   0  0  0  0  0  0  0  0  0  0  0  0
   17.0148   69.7678   -9.4225 H   0  0  0  0  0  0  0  0  0  0  0  0
   23.2495   74.3265   -4.4899 O   0  0  0  0  0  0  0  0  0  0  0  0
   24.5085   75.1706   -3.9283 P   0  0  2  0  0  0  0  0  0  0  0  0
   24.3801   76.5864   -4.7007 O   0  0  0  0  0  0  0  0  0  0  0  0
   25.8342   74.4880   -4.1028 O   0  0  0  0  0  0  0  0  0  0  0  0
   24.1251   75.5056   -2.3967 O   0  0  0  0  0  0  0  0  0  0  0  0
   24.4420   74.2342   -0.4219 O   0  0  0  0  0  0  0  0  0  0  0  0
   20.7830   75.9299    0.4652 O   0  0  0  0  0  0  0  0  0  0  0  0
   23.1374   76.8416    1.8338 O   0  0  0  0  0  0  0  0  0  0  0  0
   21.3577   75.0680   -2.2378 O   0  0  0  0  0  0  0  0  0  0  0  0
   22.0973   75.8873   -0.0970 C   0  0  1  0  0  0  0  0  0  0  0  0
   23.0974   75.6602    1.0383 C   0  0  1  0  0  0  0  0  0  0  0  0
   22.1691   74.7486   -1.1127 C   0  0  2  0  0  0  0  0  0  0  0  0
   24.4940   75.3376    0.4900 C   0  0  1  0  0  0  0  0  0  0  0  0
   23.6077   74.4773   -1.5563 C   0  0  1  0  0  0  0  0  0  0  0  0
   20.7305   76.6512    1.1106 H   0  0  0  0  0  0  0  0  0  0  0  0
   22.2494   77.0344    2.1735 H   0  0  0  0  0  0  0  0  0  0  0  0
   20.4495   75.2372   -1.9438 H   0  0  0  0  0  0  0  0  0  0  0  0
   25.8706   76.1317    2.2742 O   0  0  0  0  0  0  0  0  0  0  0  0
   25.4694   74.9530    1.6003 C   0  0  0  0  0  0  0  0  0  0  0  0
   26.4915   75.9022    2.9839 H   0  0  0  0  0  0  0  0  0  0  0  0
 25 28  1  0
 25 24  1  0
 25 26  1  6
 25 27  2  0
  1  4  1  0
  1 24  1  0
  1  2  1  6
  1  3  2  0
  6 11  1  0
  6 12  1  0
 29 36  1  0
 29 37  1  0
  9  7  1  1
  7 13  1  0
 10  8  1  1
  8 14  1  0
 37 28  1  1
  4  5  1  0
 33 30  1  1
 30 38  1  0
 34 31  1  6
 31 39  1  0
 35 32  1  6
 32 40  1  0
 41 42  1  0
 41 43  1  0
 15 19  2  0
 16 22  2  0
 12 17  1  6
 17 19  1  0
 17 20  1  0
 18 19  1  0
 18 22  1  0
 18 23  1  0
  9 10  1  0
  9 11  1  0
 10 12  1  0
 11  5  1  6
 33 34  1  0
 33 35  1  0
 34 36  1  0
 35 37  1  0
 36 42  1  1
 20 21  2  0
 21 22  1  0
M  CHG  2   2  -1  26  -1
M  END
>  <COMPND>  (186) 
    8629 

>  <AUTHOR>  (186) 
    GENERATED BY OPEN BABEL 3.1.1

>  <MASTER>  (186) 
        0    0    0    0    0    0    0    0   58    0   58    0

>  <minimizedAffinity>  (186) 
-6.31441

>  <CNNscore>  (186) 
0.8484909534

>  <CNNaffinity>  (186) 
4.5860266685

>  <CNN_VS>  (186) 
3.8912022114

>  <CNNaffinity_variance>  (186) 
0.1753349900

$$$$
187
     RDKit          3D

 43 45  0  0  0  0  0  0  0  0999 V2000
   23.0647   72.6198   -4.0371 P   0  0  2  0  0  0  0  0  0  0  0  0
   23.1489   72.6482   -5.6525 O   0  0  0  0  0  0  0  0  0  0  0  0
   23.8880   71.5523   -3.3782 O   0  0  0  0  0  0  0  0  0  0  0  0
   21.4765   72.5709   -3.7317 O   0  0  0  0  0  0  0  0  0  0  0  0
   20.7928   71.3415   -3.9020 C   0  0  0  0  0  0  0  0  0  0  0  0
   18.7306   72.0147   -4.9354 O   0  0  0  0  0  0  0  0  0  0  0  0
   17.3563   70.6836   -2.6266 O   0  0  0  0  0  0  0  0  0  0  0  0
   17.1147   68.8293   -4.6115 O   0  0  0  0  0  0  0  0  0  0  0  0
   18.5483   70.2998   -3.3101 C   0  0  1  0  0  0  0  0  0  0  0  0
   18.2121   69.7178   -4.6672 C   0  0  2  0  0  0  0  0  0  0  0  0
   19.3028   71.5689   -3.6864 C   0  0  1  0  0  0  0  0  0  0  0  0
   17.9131   70.9659   -5.4801 C   0  0  2  0  0  0  0  0  0  0  0  0
   16.8576   69.8896   -2.3759 H   0  0  0  0  0  0  0  0  0  0  0  0
   17.3545   68.0517   -4.0837 H   0  0  0  0  0  0  0  0  0  0  0  0
   16.1310   69.9303   -7.4113 O   0  0  0  0  0  0  0  0  0  0  0  0
   19.2363   70.3833  -10.7866 O   0  0  0  0  0  0  0  0  0  0  0  0
   18.2296   70.8026   -6.8709 N   0  0  0  0  0  0  0  0  0  0  0  0
   17.6786   70.1569   -9.0904 N   0  0  0  0  0  0  0  0  0  0  0  0
   17.2636   70.2722   -7.7575 C   0  0  0  0  0  0  0  0  0  0  0  0
   19.4858   71.1669   -7.3432 C   0  0  0  0  0  0  0  0  0  0  0  0
   19.8664   71.0493   -8.6170 C   0  0  0  0  0  0  0  0  0  0  0  0
   18.9165   70.5039   -9.6080 C   0  0  0  0  0  0  0  0  0  0  0  0
   17.0224   69.7894   -9.7261 H   0  0  0  0  0  0  0  0  0  0  0  0
   23.4675   74.1302   -3.6255 O   0  0  0  0  0  0  0  0  0  0  0  0
   23.5766   74.8429   -2.1788 P   0  0  2  0  0  0  0  0  0  0  0  0
   22.4976   76.0446   -2.2748 O   0  0  0  0  0  0  0  0  0  0  0  0
   24.9643   75.2844   -1.8134 O   0  0  0  0  0  0  0  0  0  0  0  0
   22.9190   73.7856   -1.1518 O   0  0  0  0  0  0  0  0  0  0  0  0
   23.1477   74.3066    1.1488 O   0  0  0  0  0  0  0  0  0  0  0  0
   22.0601   70.3367    1.4763 O   0  0  0  0  0  0  0  0  0  0  0  0
   20.1803   72.3857    2.1945 O   0  0  0  0  0  0  0  0  0  0  0  0
   23.8292   71.1780   -0.6548 O   0  0  0  0  0  0  0  0  0  0  0  0
   22.0525   71.6466    0.9024 C   0  0  1  0  0  0  0  0  0  0  0  0
   21.5647   72.6330    1.9654 C   0  0  1  0  0  0  0  0  0  0  0  0
   23.4674   72.0011    0.4489 C   0  0  2  0  0  0  0  0  0  0  0  0
   21.7810   74.0842    1.5153 C   0  0  1  0  0  0  0  0  0  0  0  0
   23.5856   73.4784    0.0698 C   0  0  1  0  0  0  0  0  0  0  0  0
   21.1645   70.1053    1.7659 H   0  0  0  0  0  0  0  0  0  0  0  0
   20.0574   71.4660    2.4776 H   0  0  0  0  0  0  0  0  0  0  0  0
   23.7506   70.2454   -0.4020 H   0  0  0  0  0  0  0  0  0  0  0  0
   21.1582   74.3604    3.8054 O   0  0  0  0  0  0  0  0  0  0  0  0
   21.4480   75.0820    2.6223 C   0  0  0  0  0  0  0  0  0  0  0  0
   20.9447   74.9827    4.5188 H   0  0  0  0  0  0  0  0  0  0  0  0
 25 28  1  0
 25 24  1  0
 25 26  1  6
 25 27  2  0
  1  4  1  0
  1 24  1  0
  1  2  1  6
  1  3  2  0
  6 11  1  0
  6 12  1  0
 29 36  1  0
 29 37  1  0
  9  7  1  6
  7 13  1  0
 10  8  1  1
  8 14  1  0
 37 28  1  6
  4  5  1  0
 33 30  1  1
 30 38  1  0
 34 31  1  6
 31 39  1  0
 35 32  1  6
 32 40  1  0
 41 42  1  0
 41 43  1  0
 15 19  2  0
 16 22  2  0
 12 17  1  6
 17 19  1  0
 17 20  1  0
 18 19  1  0
 18 22  1  0
 18 23  1  0
  9 10  1  0
  9 11  1  0
 10 12  1  0
 11  5  1  6
 33 34  1  0
 33 35  1  0
 34 36  1  0
 35 37  1  0
 36 42  1  1
 20 21  2  0
 21 22  1  0
M  CHG  2   2  -1  26  -1
M  END
>  <COMPND>  (187) 
    8629 

>  <AUTHOR>  (187) 
    GENERATED BY OPEN BABEL 3.1.1

>  <MASTER>  (187) 
        0    0    0    0    0    0    0    0   58    0   58    0

>  <minimizedAffinity>  (187) 
-7.26026

>  <CNNscore>  (187) 
0.8367295265

>  <CNNaffinity>  (187) 
4.6365890503

>  <CNN_VS>  (187) 
3.8795709610

>  <CNNaffinity_variance>  (187) 
0.0244266409

$$$$
188
     RDKit          3D

 43 45  0  0  0  0  0  0  0  0999 V2000
   20.6485   71.2504   -0.9947 P   0  0  2  0  0  0  0  0  0  0  0  0
   20.8720   70.4479    0.3921 O   0  0  0  0  0  0  0  0  0  0  0  0
   20.3081   72.7034   -0.8385 O   0  0  0  0  0  0  0  0  0  0  0  0
   19.5605   70.3554   -1.7904 O   0  0  0  0  0  0  0  0  0  0  0  0
   19.2699   70.6842   -3.1377 C   0  0  0  0  0  0  0  0  0  0  0  0
   17.5293   71.5477   -4.5514 O   0  0  0  0  0  0  0  0  0  0  0  0
   15.6380   69.8906   -2.9179 O   0  0  0  0  0  0  0  0  0  0  0  0
   15.9648   68.3791   -5.1640 O   0  0  0  0  0  0  0  0  0  0  0  0
   16.9755   69.5999   -3.3203 C   0  0  1  0  0  0  0  0  0  0  0  0
   17.0166   69.2464   -4.7924 C   0  0  2  0  0  0  0  0  0  0  0  0
   17.7697   70.8997   -3.2831 C   0  0  1  0  0  0  0  0  0  0  0  0
   16.9071   70.6126   -5.4477 C   0  0  2  0  0  0  0  0  0  0  0  0
   15.1115   69.0755   -2.9335 H   0  0  0  0  0  0  0  0  0  0  0  0
   16.0792   67.5236   -4.7215 H   0  0  0  0  0  0  0  0  0  0  0  0
   15.6151   70.3559   -7.9463 O   0  0  0  0  0  0  0  0  0  0  0  0
   19.5776   70.8347  -10.2507 O   0  0  0  0  0  0  0  0  0  0  0  0
   17.5768   70.6667   -6.7166 N   0  0  0  0  0  0  0  0  0  0  0  0
   17.5891   70.5947   -9.0917 N   0  0  0  0  0  0  0  0  0  0  0  0
   16.8356   70.5258   -7.9129 C   0  0  0  0  0  0  0  0  0  0  0  0
   18.9533   70.8581   -6.7660 C   0  0  0  0  0  0  0  0  0  0  0  0
   19.6572   70.9202   -7.8982 C   0  0  0  0  0  0  0  0  0  0  0  0
   18.9586   70.7822   -9.1924 C   0  0  0  0  0  0  0  0  0  0  0  0
   17.0940   70.4987   -9.9375 H   0  0  0  0  0  0  0  0  0  0  0  0
   22.0174   70.9636   -1.8052 O   0  0  0  0  0  0  0  0  0  0  0  0
   23.1516   71.9711   -2.3633 P   0  0  2  0  0  0  0  0  0  0  0  0
   24.2909   70.9709   -2.9282 O   0  0  0  0  0  0  0  0  0  0  0  0
   23.6454   72.9634   -1.3506 O   0  0  0  0  0  0  0  0  0  0  0  0
   22.4980   72.6313   -3.6831 O   0  0  0  0  0  0  0  0  0  0  0  0
   23.2469   74.0694   -5.4116 O   0  0  0  0  0  0  0  0  0  0  0  0
   19.6367   75.8844   -4.5611 O   0  0  0  0  0  0  0  0  0  0  0  0
   19.9349   74.3932   -6.9973 O   0  0  0  0  0  0  0  0  0  0  0  0
   21.2492   74.8010   -2.4150 O   0  0  0  0  0  0  0  0  0  0  0  0
   20.5375   74.7844   -4.7160 C   0  0  1  0  0  0  0  0  0  0  0  0
   21.0290   74.7674   -6.1647 C   0  0  1  0  0  0  0  0  0  0  0  0
   21.7098   74.9598   -3.7525 C   0  0  2  0  0  0  0  0  0  0  0  0
   22.1956   73.7864   -6.3424 C   0  0  1  0  0  0  0  0  0  0  0  0
   22.8361   73.9673   -4.0468 C   0  0  1  0  0  0  0  0  0  0  0  0
   18.8897   75.7789   -5.1697 H   0  0  0  0  0  0  0  0  0  0  0  0
   19.2048   75.0203   -6.8753 H   0  0  0  0  0  0  0  0  0  0  0  0
   20.5367   75.4351   -2.2411 H   0  0  0  0  0  0  0  0  0  0  0  0
   22.3209   72.7794   -8.5056 O   0  0  0  0  0  0  0  0  0  0  0  0
   22.8040   73.8684   -7.7408 C   0  0  0  0  0  0  0  0  0  0  0  0
   22.6995   72.8188   -9.3982 H   0  0  0  0  0  0  0  0  0  0  0  0
 25 28  1  0
 25 24  1  0
 25 26  1  6
 25 27  2  0
  1  4  1  0
  1 24  1  0
  1  2  1  1
  1  3  2  0
  6 11  1  0
  6 12  1  0
 29 36  1  0
 29 37  1  0
  9  7  1  6
  7 13  1  0
 10  8  1  6
  8 14  1  0
 37 28  1  6
  4  5  1  0
 33 30  1  6
 30 38  1  0
 34 31  1  6
 31 39  1  0
 35 32  1  1
 32 40  1  0
 41 42  1  0
 41 43  1  0
 15 19  2  0
 16 22  2  0
 12 17  1  6
 17 19  1  0
 17 20  1  0
 18 19  1  0
 18 22  1  0
 18 23  1  0
  9 10  1  0
  9 11  1  0
 10 12  1  0
 11  5  1  6
 33 34  1  0
 33 35  1  0
 34 36  1  0
 35 37  1  0
 36 42  1  6
 20 21  2  0
 21 22  1  0
M  CHG  2   2  -1  26  -1
M  END
>  <COMPND>  (188) 
    8629 

>  <AUTHOR>  (188) 
    GENERATED BY OPEN BABEL 3.1.1

>  <MASTER>  (188) 
        0    0    0    0    0    0    0    0   58    0   58    0

>  <minimizedAffinity>  (188) 
-7.79017

>  <CNNscore>  (188) 
0.8315648437

>  <CNNaffinity>  (188) 
4.5869903564

>  <CNN_VS>  (188) 
3.8143799305

>  <CNNaffinity_variance>  (188) 
0.3807113767

$$$$
189
     RDKit          3D

 43 45  0  0  0  0  0  0  0  0999 V2000
   21.8765   72.5480   -5.5635 P   0  0  2  0  0  0  0  0  0  0  0  0
   21.2139   73.9989   -5.2929 O   0  0  0  0  0  0  0  0  0  0  0  0
   23.1441   72.5699   -6.3661 O   0  0  0  0  0  0  0  0  0  0  0  0
   20.6640   71.6779   -6.1887 O   0  0  0  0  0  0  0  0  0  0  0  0
   20.2183   71.9829   -7.4987 C   0  0  0  0  0  0  0  0  0  0  0  0
   19.0031   69.9673   -7.0145 O   0  0  0  0  0  0  0  0  0  0  0  0
   18.1971   69.9818   -9.9026 O   0  0  0  0  0  0  0  0  0  0  0  0
   15.9795   70.9713   -8.6616 O   0  0  0  0  0  0  0  0  0  0  0  0
   18.3829   71.0809   -9.0123 C   0  0  1  0  0  0  0  0  0  0  0  0
   17.2303   71.1655   -8.0335 C   0  0  2  0  0  0  0  0  0  0  0  0
   19.5545   70.7498   -8.0962 C   0  0  1  0  0  0  0  0  0  0  0  0
   17.5694   70.0575   -7.0509 C   0  0  2  0  0  0  0  0  0  0  0  0
   17.4541   70.1702  -10.4980 H   0  0  0  0  0  0  0  0  0  0  0  0
   15.8095   71.7017   -9.2766 H   0  0  0  0  0  0  0  0  0  0  0  0
   16.2952   68.1599   -5.3916 O   0  0  0  0  0  0  0  0  0  0  0  0
   15.7540   71.2244   -1.9921 O   0  0  0  0  0  0  0  0  0  0  0  0
   17.0858   70.3323   -5.7273 N   0  0  0  0  0  0  0  0  0  0  0  0
   16.0269   69.6873   -3.7002 N   0  0  0  0  0  0  0  0  0  0  0  0
   16.4596   69.3093   -4.9776 C   0  0  0  0  0  0  0  0  0  0  0  0
   17.2346   71.6043   -5.1853 C   0  0  0  0  0  0  0  0  0  0  0  0
   16.8153   71.9489   -3.9660 C   0  0  0  0  0  0  0  0  0  0  0  0
   16.1508   70.9386   -3.1176 C   0  0  0  0  0  0  0  0  0  0  0  0
   15.5874   68.9911   -3.1598 H   0  0  0  0  0  0  0  0  0  0  0  0
   22.0329   71.9365   -4.0754 O   0  0  0  0  0  0  0  0  0  0  0  0
   23.2378   72.0471   -3.0035 P   0  0  2  0  0  0  0  0  0  0  0  0
   23.8635   73.5097   -3.2982 O   0  0  0  0  0  0  0  0  0  0  0  0
   24.2303   70.9230   -3.0753 O   0  0  0  0  0  0  0  0  0  0  0  0
   22.5014   72.1990   -1.5753 O   0  0  0  0  0  0  0  0  0  0  0  0
   24.0421   71.9835    0.2125 O   0  0  0  0  0  0  0  0  0  0  0  0
   20.5210   71.9595    2.3694 O   0  0  0  0  0  0  0  0  0  0  0  0
   22.2242   74.2701    2.4610 O   0  0  0  0  0  0  0  0  0  0  0  0
   20.6594   70.6031   -0.1842 O   0  0  0  0  0  0  0  0  0  0  0  0
   21.3947   72.3471    1.3055 C   0  0  1  0  0  0  0  0  0  0  0  0
   22.6272   73.0163    1.9168 C   0  0  1  0  0  0  0  0  0  0  0  0
   21.7954   71.1054    0.5112 C   0  0  2  0  0  0  0  0  0  0  0  0
   23.7265   73.2188    0.8653 C   0  0  1  0  0  0  0  0  0  0  0  0
   22.9288   71.4051   -0.4716 C   0  0  1  0  0  0  0  0  0  0  0  0
   20.2624   72.7434    2.8774 H   0  0  0  0  0  0  0  0  0  0  0  0
   21.5295   74.1282    3.1231 H   0  0  0  0  0  0  0  0  0  0  0  0
   19.9491   70.4171    0.4489 H   0  0  0  0  0  0  0  0  0  0  0  0
   25.0353   73.3911    2.8569 O   0  0  0  0  0  0  0  0  0  0  0  0
   25.0216   73.7395    1.4847 C   0  0  0  0  0  0  0  0  0  0  0  0
   25.8540   73.7159    3.2641 H   0  0  0  0  0  0  0  0  0  0  0  0
 25 28  1  0
 25 24  1  0
 25 26  1  6
 25 27  2  0
  1  4  1  0
  1 24  1  0
  1  2  1  1
  1  3  2  0
  6 11  1  0
  6 12  1  0
 29 36  1  0
 29 37  1  0
  9  7  1  6
  7 13  1  0
 10  8  1  6
  8 14  1  0
 37 28  1  6
  4  5  1  0
 33 30  1  1
 30 38  1  0
 34 31  1  6
 31 39  1  0
 35 32  1  6
 32 40  1  0
 41 42  1  0
 41 43  1  0
 15 19  2  0
 16 22  2  0
 12 17  1  1
 17 19  1  0
 17 20  1  0
 18 19  1  0
 18 22  1  0
 18 23  1  0
  9 10  1  0
  9 11  1  0
 10 12  1  0
 11  5  1  1
 33 34  1  0
 33 35  1  0
 34 36  1  0
 35 37  1  0
 36 42  1  1
 20 21  2  0
 21 22  1  0
M  CHG  2   2  -1  26  -1
M  END
>  <COMPND>  (189) 
    8629 

>  <AUTHOR>  (189) 
    GENERATED BY OPEN BABEL 3.1.1

>  <MASTER>  (189) 
        0    0    0    0    0    0    0    0   58    0   58    0

>  <minimizedAffinity>  (189) 
-7.91293

>  <CNNscore>  (189) 
0.8147467375

>  <CNNaffinity>  (189) 
4.5814223289

>  <CNN_VS>  (189) 
3.7326989174

>  <CNNaffinity_variance>  (189) 
0.1853236854

$$$$
190
     RDKit          3D

 43 45  0  0  0  0  0  0  0  0999 V2000
   23.0251   72.7025   -4.3569 P   0  0  2  0  0  0  0  0  0  0  0  0
   23.0826   72.4613   -5.9556 O   0  0  0  0  0  0  0  0  0  0  0  0
   23.8856   71.7794   -3.5453 O   0  0  0  0  0  0  0  0  0  0  0  0
   21.4438   72.6704   -4.0159 O   0  0  0  0  0  0  0  0  0  0  0  0
   20.7957   71.4131   -3.9318 C   0  0  0  0  0  0  0  0  0  0  0  0
   18.7298   72.0663   -4.9705 O   0  0  0  0  0  0  0  0  0  0  0  0
   17.3633   70.7563   -2.6450 O   0  0  0  0  0  0  0  0  0  0  0  0
   17.1268   68.8785   -4.6082 O   0  0  0  0  0  0  0  0  0  0  0  0
   18.5560   70.3694   -3.3254 C   0  0  1  0  0  0  0  0  0  0  0  0
   18.2206   69.7705   -4.6754 C   0  0  2  0  0  0  0  0  0  0  0  0
   19.3051   71.6370   -3.7171 C   0  0  1  0  0  0  0  0  0  0  0  0
   17.9158   71.0081   -5.5022 C   0  0  2  0  0  0  0  0  0  0  0  0
   16.8680   69.9633   -2.3847 H   0  0  0  0  0  0  0  0  0  0  0  0
   17.3703   68.1079   -4.0719 H   0  0  0  0  0  0  0  0  0  0  0  0
   16.1370   69.9398   -7.4186 O   0  0  0  0  0  0  0  0  0  0  0  0
   19.2355   70.3701  -10.8032 O   0  0  0  0  0  0  0  0  0  0  0  0
   18.2314   70.8301   -6.8914 N   0  0  0  0  0  0  0  0  0  0  0  0
   17.6812   70.1551   -9.1023 N   0  0  0  0  0  0  0  0  0  0  0  0
   17.2673   70.2840   -7.7704 C   0  0  0  0  0  0  0  0  0  0  0  0
   19.4850   71.1958   -7.3696 C   0  0  0  0  0  0  0  0  0  0  0  0
   19.8646   71.0653   -8.6425 C   0  0  0  0  0  0  0  0  0  0  0  0
   18.9164   70.5029   -9.6257 C   0  0  0  0  0  0  0  0  0  0  0  0
   17.0262   69.7766   -9.7327 H   0  0  0  0  0  0  0  0  0  0  0  0
   23.3962   74.2691   -4.2122 O   0  0  0  0  0  0  0  0  0  0  0  0
   24.7340   74.9976   -3.6711 P   0  0  2  0  0  0  0  0  0  0  0  0
   24.3379   76.5661   -3.6951 O   0  0  0  0  0  0  0  0  0  0  0  0
   25.9747   74.6603   -4.4462 O   0  0  0  0  0  0  0  0  0  0  0  0
   24.8005   74.6179   -2.1039 O   0  0  0  0  0  0  0  0  0  0  0  0
   22.9812   73.8364   -0.8015 O   0  0  0  0  0  0  0  0  0  0  0  0
   25.1439   75.7362    2.1590 O   0  0  0  0  0  0  0  0  0  0  0  0
   25.0627   72.8664    2.0820 O   0  0  0  0  0  0  0  0  0  0  0  0
   24.9815   76.9031   -0.4852 O   0  0  0  0  0  0  0  0  0  0  0  0
   24.9637   74.9767    0.9606 C   0  0  1  0  0  0  0  0  0  0  0  0
   24.1994   73.6991    1.3128 C   0  0  1  0  0  0  0  0  0  0  0  0
   24.1773   75.8132   -0.0470 C   0  0  2  0  0  0  0  0  0  0  0  0
   23.7358   72.9642    0.0478 C   0  0  1  0  0  0  0  0  0  0  0  0
   23.7221   74.9756   -1.2434 C   0  0  1  0  0  0  0  0  0  0  0  0
   25.6430   75.2109    2.8028 H   0  0  0  0  0  0  0  0  0  0  0  0
   25.3486   73.3424    2.8776 H   0  0  0  0  0  0  0  0  0  0  0  0
   25.2630   77.4257    0.2813 H   0  0  0  0  0  0  0  0  0  0  0  0
   22.5013   71.1186   -0.8344 O   0  0  0  0  0  0  0  0  0  0  0  0
   22.8378   71.7732    0.3749 C   0  0  0  0  0  0  0  0  0  0  0  0
   21.9301   70.3581   -0.6416 H   0  0  0  0  0  0  0  0  0  0  0  0
 25 28  1  0
 25 24  1  0
 25 26  1  1
 25 27  2  0
  1  4  1  0
  1 24  1  0
  1  2  1  6
  1  3  2  0
  6 11  1  0
  6 12  1  0
 29 36  1  0
 29 37  1  0
  9  7  1  6
  7 13  1  0
 10  8  1  1
  8 14  1  0
 37 28  1  1
  4  5  1  0
 33 30  1  1
 30 38  1  0
 34 31  1  6
 31 39  1  0
 35 32  1  6
 32 40  1  0
 41 42  1  0
 41 43  1  0
 15 19  2  0
 16 22  2  0
 12 17  1  6
 17 19  1  0
 17 20  1  0
 18 19  1  0
 18 22  1  0
 18 23  1  0
  9 10  1  0
  9 11  1  0
 10 12  1  0
 11  5  1  6
 33 34  1  0
 33 35  1  0
 34 36  1  0
 35 37  1  0
 36 42  1  1
 20 21  2  0
 21 22  1  0
M  CHG  2   2  -1  26  -1
M  END
>  <COMPND>  (190) 
    8629 

>  <AUTHOR>  (190) 
    GENERATED BY OPEN BABEL 3.1.1

>  <MASTER>  (190) 
        0    0    0    0    0    0    0    0   58    0   58    0

>  <minimizedAffinity>  (190) 
-6.89347

>  <CNNscore>  (190) 
0.7770641446

>  <CNNaffinity>  (190) 
4.4138689041

>  <CNN_VS>  (190) 
3.4298591614

>  <CNNaffinity_variance>  (190) 
0.1484974623

$$$$
191
     RDKit          3D

 43 45  0  0  0  0  0  0  0  0999 V2000
   22.3310   72.9380   -6.4484 P   0  0  2  0  0  0  0  0  0  0  0  0
   23.0508   73.4623   -7.7991 O   0  0  0  0  0  0  0  0  0  0  0  0
   23.2645   72.5942   -5.3252 O   0  0  0  0  0  0  0  0  0  0  0  0
   21.3742   71.7373   -6.9592 O   0  0  0  0  0  0  0  0  0  0  0  0
   20.1662   72.0703   -7.6209 C   0  0  0  0  0  0  0  0  0  0  0  0
   19.0440   70.0170   -7.0745 O   0  0  0  0  0  0  0  0  0  0  0  0
   18.1814   69.9427   -9.9452 O   0  0  0  0  0  0  0  0  0  0  0  0
   15.9502   70.8657   -8.6779 O   0  0  0  0  0  0  0  0  0  0  0  0
   18.3398   71.0656   -9.0795 C   0  0  1  0  0  0  0  0  0  0  0  0
   17.2041   71.1225   -8.0792 C   0  0  2  0  0  0  0  0  0  0  0  0
   19.5416   70.8000   -8.1816 C   0  0  1  0  0  0  0  0  0  0  0  0
   17.6074   70.0485   -7.0832 C   0  0  2  0  0  0  0  0  0  0  0  0
   17.4198   70.0893  -10.5287 H   0  0  0  0  0  0  0  0  0  0  0  0
   15.7385   71.5766   -9.3029 H   0  0  0  0  0  0  0  0  0  0  0  0
   16.2439   68.1937   -5.4466 O   0  0  0  0  0  0  0  0  0  0  0  0
   15.8560   71.2364   -2.0067 O   0  0  0  0  0  0  0  0  0  0  0  0
   17.1390   70.3292   -5.7554 N   0  0  0  0  0  0  0  0  0  0  0  0
   16.0520   69.7102   -3.7351 N   0  0  0  0  0  0  0  0  0  0  0  0
   16.4645   69.3283   -5.0181 C   0  0  0  0  0  0  0  0  0  0  0  0
   17.3502   71.5853   -5.1972 C   0  0  0  0  0  0  0  0  0  0  0  0
   16.9494   71.9340   -3.9728 C   0  0  0  0  0  0  0  0  0  0  0  0
   16.2373   70.9463   -3.1365 C   0  0  0  0  0  0  0  0  0  0  0  0
   15.5797   69.0293   -3.2031 H   0  0  0  0  0  0  0  0  0  0  0  0
   21.2817   74.1210   -6.1130 O   0  0  0  0  0  0  0  0  0  0  0  0
   21.4794   75.7231   -6.0295 P   0  0  2  0  0  0  0  0  0  0  0  0
   22.9896   75.8820   -5.4713 O   0  0  0  0  0  0  0  0  0  0  0  0
   20.4388   76.4297   -5.2099 O   0  0  0  0  0  0  0  0  0  0  0  0
   21.5605   76.2055   -7.5676 O   0  0  0  0  0  0  0  0  0  0  0  0
   23.6474   76.9769   -8.3838 O   0  0  0  0  0  0  0  0  0  0  0  0
   21.1704   78.6150  -11.2530 O   0  0  0  0  0  0  0  0  0  0  0  0
   22.8327   76.3723  -11.9278 O   0  0  0  0  0  0  0  0  0  0  0  0
   20.3303   78.5555   -8.4835 O   0  0  0  0  0  0  0  0  0  0  0  0
   21.5976   77.6283  -10.3098 C   0  0  1  0  0  0  0  0  0  0  0  0
   22.9817   77.1303  -10.7305 C   0  0  1  0  0  0  0  0  0  0  0  0
   21.6524   78.2579   -8.9192 C   0  0  2  0  0  0  0  0  0  0  0  0
   23.6194   76.2715   -9.6301 C   0  0  1  0  0  0  0  0  0  0  0  0
   22.3491   77.3418   -7.9115 C   0  0  1  0  0  0  0  0  0  0  0  0
   21.1330   78.2215  -12.1380 H   0  0  0  0  0  0  0  0  0  0  0  0
   22.4286   76.9260  -12.6143 H   0  0  0  0  0  0  0  0  0  0  0  0
   19.9001   79.1363   -9.1296 H   0  0  0  0  0  0  0  0  0  0  0  0
   25.2968   74.5741   -9.5104 O   0  0  0  0  0  0  0  0  0  0  0  0
   25.0617   75.8951   -9.9622 C   0  0  0  0  0  0  0  0  0  0  0  0
   26.2109   74.3208   -9.7153 H   0  0  0  0  0  0  0  0  0  0  0  0
 25 28  1  0
 25 24  1  0
 25 26  1  1
 25 27  2  0
  1  4  1  0
  1 24  1  0
  1  2  1  6
  1  3  2  0
  6 11  1  0
  6 12  1  0
 29 36  1  0
 29 37  1  0
  9  7  1  6
  7 13  1  0
 10  8  1  6
  8 14  1  0
 37 28  1  6
  4  5  1  0
 33 30  1  6
 30 38  1  0
 34 31  1  6
 31 39  1  0
 35 32  1  1
 32 40  1  0
 41 42  1  0
 41 43  1  0
 15 19  2  0
 16 22  2  0
 12 17  1  1
 17 19  1  0
 17 20  1  0
 18 19  1  0
 18 22  1  0
 18 23  1  0
  9 10  1  0
  9 11  1  0
 10 12  1  0
 11  5  1  1
 33 34  1  0
 33 35  1  0
 34 36  1  0
 35 37  1  0
 36 42  1  6
 20 21  2  0
 21 22  1  0
M  CHG  2   2  -1  26  -1
M  END
>  <COMPND>  (191) 
    8629 

>  <AUTHOR>  (191) 
    GENERATED BY OPEN BABEL 3.1.1

>  <MASTER>  (191) 
        0    0    0    0    0    0    0    0   58    0   58    0

>  <minimizedAffinity>  (191) 
-6.32008

>  <CNNscore>  (191) 
0.7577663064

>  <CNNaffinity>  (191) 
4.3701481819

>  <CNN_VS>  (191) 
3.3115510941

>  <CNNaffinity_variance>  (191) 
0.0974916518

$$$$
192
     RDKit          3D

 43 45  0  0  0  0  0  0  0  0999 V2000
   20.5828   71.9907   -1.8121 P   0  0  2  0  0  0  0  0  0  0  0  0
   21.1906   70.6604   -2.5036 O   0  0  0  0  0  0  0  0  0  0  0  0
   19.1339   71.9019   -1.4321 O   0  0  0  0  0  0  0  0  0  0  0  0
   20.9670   73.1755   -2.8449 O   0  0  0  0  0  0  0  0  0  0  0  0
   19.9294   73.7784   -3.5984 C   0  0  0  0  0  0  0  0  0  0  0  0
   20.2374   72.5541   -5.6428 O   0  0  0  0  0  0  0  0  0  0  0  0
   20.2367   75.2180   -7.0192 O   0  0  0  0  0  0  0  0  0  0  0  0
   17.7104   74.3052   -7.4896 O   0  0  0  0  0  0  0  0  0  0  0  0
   19.4783   74.7852   -5.8910 C   0  0  1  0  0  0  0  0  0  0  0  0
   18.3733   73.8467   -6.3289 C   0  0  2  0  0  0  0  0  0  0  0  0
   20.3622   73.8677   -5.0554 C   0  0  1  0  0  0  0  0  0  0  0  0
   19.1335   72.5522   -6.5627 C   0  0  2  0  0  0  0  0  0  0  0  0
   19.6930   75.8057   -7.5678 H   0  0  0  0  0  0  0  0  0  0  0  0
   17.2418   75.1305   -7.2897 H   0  0  0  0  0  0  0  0  0  0  0  0
   17.4859   71.3198   -8.4978 O   0  0  0  0  0  0  0  0  0  0  0  0
   16.0762   68.1021   -5.5144 O   0  0  0  0  0  0  0  0  0  0  0  0
   18.3253   71.3908   -6.3189 N   0  0  0  0  0  0  0  0  0  0  0  0
   16.7855   69.7186   -7.0108 N   0  0  0  0  0  0  0  0  0  0  0  0
   17.5330   70.8509   -7.3587 C   0  0  0  0  0  0  0  0  0  0  0  0
   18.3240   70.7993   -5.0604 C   0  0  0  0  0  0  0  0  0  0  0  0
   17.6045   69.7205   -4.7444 C   0  0  0  0  0  0  0  0  0  0  0  0
   16.7496   69.0946   -5.7738 C   0  0  0  0  0  0  0  0  0  0  0  0
   16.2256   69.3253   -7.7191 H   0  0  0  0  0  0  0  0  0  0  0  0
   21.5886   72.2484   -0.5732 O   0  0  0  0  0  0  0  0  0  0  0  0
   21.4340   71.9292    1.0038 P   0  0  2  0  0  0  0  0  0  0  0  0
   21.3392   70.3147    1.0480 O   0  0  0  0  0  0  0  0  0  0  0  0
   20.2858   72.6352    1.6649 O   0  0  0  0  0  0  0  0  0  0  0  0
   22.8805   72.2699    1.6334 O   0  0  0  0  0  0  0  0  0  0  0  0
   24.6012   73.6022    0.6948 O   0  0  0  0  0  0  0  0  0  0  0  0
   26.9248   70.8525    2.7174 O   0  0  0  0  0  0  0  0  0  0  0  0
   26.7181   73.5388    3.7120 O   0  0  0  0  0  0  0  0  0  0  0  0
   24.5030   69.9938    1.3843 O   0  0  0  0  0  0  0  0  0  0  0  0
   25.7874   71.6937    2.5077 C   0  0  1  0  0  0  0  0  0  0  0  0
   26.2721   73.1421    2.4182 C   0  0  1  0  0  0  0  0  0  0  0  0
   25.0915   71.2786    1.2128 C   0  0  2  0  0  0  0  0  0  0  0  0
   25.1527   74.0718    1.9306 C   0  0  1  0  0  0  0  0  0  0  0  0
   24.0298   72.2960    0.7909 C   0  0  1  0  0  0  0  0  0  0  0  0
   27.3709   71.1105    3.5383 H   0  0  0  0  0  0  0  0  0  0  0  0
   27.4245   72.9435    4.0084 H   0  0  0  0  0  0  0  0  0  0  0  0
   25.1853   69.3588    1.6510 H   0  0  0  0  0  0  0  0  0  0  0  0
   25.9782   76.0784    2.9310 O   0  0  0  0  0  0  0  0  0  0  0  0
   25.6560   75.4922    1.6832 C   0  0  0  0  0  0  0  0  0  0  0  0
   26.3003   76.9827    2.7891 H   0  0  0  0  0  0  0  0  0  0  0  0
 25 28  1  0
 25 24  1  0
 25 26  1  6
 25 27  2  0
  1  4  1  0
  1 24  1  0
  1  2  1  6
  1  3  2  0
  6 11  1  0
  6 12  1  0
 29 36  1  0
 29 37  1  0
  9  7  1  6
  7 13  1  0
 10  8  1  6
  8 14  1  0
 37 28  1  1
  4  5  1  0
 33 30  1  6
 30 38  1  0
 34 31  1  1
 31 39  1  0
 35 32  1  1
 32 40  1  0
 41 42  1  0
 41 43  1  0
 15 19  2  0
 16 22  2  0
 12 17  1  1
 17 19  1  0
 17 20  1  0
 18 19  1  0
 18 22  1  0
 18 23  1  0
  9 10  1  0
  9 11  1  0
 10 12  1  0
 11  5  1  1
 33 34  1  0
 33 35  1  0
 34 36  1  0
 35 37  1  0
 36 42  1  6
 20 21  2  0
 21 22  1  0
M  CHG  2   2  -1  26  -1
M  END
>  <COMPND>  (192) 
    8629 

>  <AUTHOR>  (192) 
    GENERATED BY OPEN BABEL 3.1.1

>  <MASTER>  (192) 
        0    0    0    0    0    0    0    0   58    0   58    0

>  <minimizedAffinity>  (192) 
-6.32900

>  <CNNscore>  (192) 
0.6675854921

>  <CNNaffinity>  (192) 
4.3017873764

>  <CNN_VS>  (192) 
2.8718109131

>  <CNNaffinity_variance>  (192) 
0.1065767556

$$$$
193
     RDKit          3D

 43 45  0  0  0  0  0  0  0  0999 V2000
   23.6355   72.6618   -3.5781 P   0  0  2  0  0  0  0  0  0  0  0  0
   24.0173   71.1510   -3.1433 O   0  0  0  0  0  0  0  0  0  0  0  0
   24.7186   73.4055   -4.3029 O   0  0  0  0  0  0  0  0  0  0  0  0
   23.1143   73.3411   -2.2053 O   0  0  0  0  0  0  0  0  0  0  0  0
   22.1446   74.3711   -2.2862 C   0  0  0  0  0  0  0  0  0  0  0  0
   21.2202   72.7252   -0.7995 O   0  0  0  0  0  0  0  0  0  0  0  0
   19.1658   74.7912   -0.0910 O   0  0  0  0  0  0  0  0  0  0  0  0
   20.8965   74.9282    2.0120 O   0  0  0  0  0  0  0  0  0  0  0  0
   20.5494   74.9616   -0.3942 C   0  0  1  0  0  0  0  0  0  0  0  0
   21.4034   74.4948    0.7662 C   0  0  2  0  0  0  0  0  0  0  0  0
   20.9179   73.9614   -1.4828 C   0  0  1  0  0  0  0  0  0  0  0  0
   21.3523   72.9847    0.6076 C   0  0  2  0  0  0  0  0  0  0  0  0
   18.9070   75.4197    0.6018 H   0  0  0  0  0  0  0  0  0  0  0  0
   20.9506   75.8952    2.0645 H   0  0  0  0  0  0  0  0  0  0  0  0
   21.5408   70.2371    1.2345 O   0  0  0  0  0  0  0  0  0  0  0  0
   25.9678   70.6317    2.4539 O   0  0  0  0  0  0  0  0  0  0  0  0
   22.5422   72.3427    1.0906 N   0  0  0  0  0  0  0  0  0  0  0  0
   23.7450   70.4358    1.8410 N   0  0  0  0  0  0  0  0  0  0  0  0
   22.5310   70.9576    1.3764 C   0  0  0  0  0  0  0  0  0  0  0  0
   23.7036   73.0849    1.2758 C   0  0  0  0  0  0  0  0  0  0  0  0
   24.8528   72.5725    1.7208 C   0  0  0  0  0  0  0  0  0  0  0  0
   24.9258   71.1327    2.0427 C   0  0  0  0  0  0  0  0  0  0  0  0
   23.7608   69.4729    2.0470 H   0  0  0  0  0  0  0  0  0  0  0  0
   22.2732   72.4630   -4.4251 O   0  0  0  0  0  0  0  0  0  0  0  0
   21.8141   73.0641   -5.8537 P   0  0  2  0  0  0  0  0  0  0  0  0
   22.8368   72.3670   -6.8956 O   0  0  0  0  0  0  0  0  0  0  0  0
   21.7964   74.5641   -5.9131 O   0  0  0  0  0  0  0  0  0  0  0  0
   20.3897   72.3661   -6.1519 O   0  0  0  0  0  0  0  0  0  0  0  0
   19.6653   70.2251   -5.4393 O   0  0  0  0  0  0  0  0  0  0  0  0
   17.6377   70.4464   -9.0296 O   0  0  0  0  0  0  0  0  0  0  0  0
   16.1855   70.6890   -6.5638 O   0  0  0  0  0  0  0  0  0  0  0  0
   20.3247   71.5028   -8.8213 O   0  0  0  0  0  0  0  0  0  0  0  0
   18.2036   70.9565   -7.8193 C   0  0  1  0  0  0  0  0  0  0  0  0
   17.5370   70.2442   -6.6407 C   0  0  1  0  0  0  0  0  0  0  0  0
   19.7088   70.6958   -7.8234 C   0  0  2  0  0  0  0  0  0  0  0  0
   18.2725   70.5401   -5.3267 C   0  0  1  0  0  0  0  0  0  0  0  0
   20.3341   70.9747   -6.4555 C   0  0  1  0  0  0  0  0  0  0  0  0
   16.6822   70.6092   -9.0335 H   0  0  0  0  0  0  0  0  0  0  0  0
   15.7324   70.4967   -7.3998 H   0  0  0  0  0  0  0  0  0  0  0  0
   19.9203   71.3167   -9.6825 H   0  0  0  0  0  0  0  0  0  0  0  0
   16.9321   68.6665   -4.6928 O   0  0  0  0  0  0  0  0  0  0  0  0
   17.7214   69.7165   -4.1648 C   0  0  0  0  0  0  0  0  0  0  0  0
   16.5749   68.1337   -3.9646 H   0  0  0  0  0  0  0  0  0  0  0  0
 25 28  1  0
 25 24  1  0
 25 26  1  6
 25 27  2  0
  1  4  1  0
  1 24  1  0
  1  2  1  1
  1  3  2  0
  6 11  1  0
  6 12  1  0
 29 36  1  0
 29 37  1  0
  9  7  1  1
  7 13  1  0
 10  8  1  1
  8 14  1  0
 37 28  1  1
  4  5  1  0
 33 30  1  6
 30 38  1  0
 34 31  1  1
 31 39  1  0
 35 32  1  6
 32 40  1  0
 41 42  1  0
 41 43  1  0
 15 19  2  0
 16 22  2  0
 12 17  1  6
 17 19  1  0
 17 20  1  0
 18 19  1  0
 18 22  1  0
 18 23  1  0
  9 10  1  0
  9 11  1  0
 10 12  1  0
 11  5  1  1
 33 34  1  0
 33 35  1  0
 34 36  1  0
 35 37  1  0
 36 42  1  1
 20 21  2  0
 21 22  1  0
M  CHG  2   2  -1  26  -1
M  END
>  <COMPND>  (193) 
    8629 

>  <AUTHOR>  (193) 
    GENERATED BY OPEN BABEL 3.1.1

>  <MASTER>  (193) 
        0    0    0    0    0    0    0    0   58    0   58    0

>  <minimizedAffinity>  (193) 
-7.83682

>  <CNNscore>  (193) 
0.6610040665

>  <CNNaffinity>  (193) 
4.4321813583

>  <CNN_VS>  (193) 
2.9296898842

>  <CNNaffinity_variance>  (193) 
0.0786833540

$$$$
194
     RDKit          3D

 43 45  0  0  0  0  0  0  0  0999 V2000
   19.8392   75.4249   -2.8587 P   0  0  2  0  0  0  0  0  0  0  0  0
   19.3185   75.5671   -1.3336 O   0  0  0  0  0  0  0  0  0  0  0  0
   19.2197   76.3842   -3.8320 O   0  0  0  0  0  0  0  0  0  0  0  0
   19.6361   73.8550   -3.1936 O   0  0  0  0  0  0  0  0  0  0  0  0
   18.6037   73.4830   -4.0901 C   0  0  0  0  0  0  0  0  0  0  0  0
   17.4436   71.5086   -4.8180 O   0  0  0  0  0  0  0  0  0  0  0  0
   18.4527   70.2169   -2.3072 O   0  0  0  0  0  0  0  0  0  0  0  0
   20.1617   69.2517   -4.2005 O   0  0  0  0  0  0  0  0  0  0  0  0
   19.0954   71.1693   -3.1530 C   0  0  1  0  0  0  0  0  0  0  0  0
   19.5572   70.5073   -4.4344 C   0  0  2  0  0  0  0  0  0  0  0  0
   18.0343   72.1381   -3.6599 C   0  0  1  0  0  0  0  0  0  0  0  0
   18.2594   70.3947   -5.2163 C   0  0  2  0  0  0  0  0  0  0  0  0
   19.1105   69.5875   -1.9710 H   0  0  0  0  0  0  0  0  0  0  0  0
   20.9832   69.3765   -3.7002 H   0  0  0  0  0  0  0  0  0  0  0  0
   16.3119   69.7138   -7.1454 O   0  0  0  0  0  0  0  0  0  0  0  0
   19.1726   70.6574  -10.6336 O   0  0  0  0  0  0  0  0  0  0  0  0
   18.4682   70.4536   -6.6356 N   0  0  0  0  0  0  0  0  0  0  0  0
   17.7378   70.1843   -8.8807 N   0  0  0  0  0  0  0  0  0  0  0  0
   17.4252   70.0891   -7.5186 C   0  0  0  0  0  0  0  0  0  0  0  0
   19.6962   70.8694   -7.1387 C   0  0  0  0  0  0  0  0  0  0  0  0
   19.9787   70.9535   -8.4404 C   0  0  0  0  0  0  0  0  0  0  0  0
   18.9436   70.5908   -9.4298 C   0  0  0  0  0  0  0  0  0  0  0  0
   17.0266   69.9351   -9.5146 H   0  0  0  0  0  0  0  0  0  0  0  0
   21.4431   75.5599   -2.7093 O   0  0  0  0  0  0  0  0  0  0  0  0
   22.5715   74.4614   -2.3448 P   0  0  2  0  0  0  0  0  0  0  0  0
   23.8826   75.3611   -2.0467 O   0  0  0  0  0  0  0  0  0  0  0  0
   22.7687   73.4092   -3.3974 O   0  0  0  0  0  0  0  0  0  0  0  0
   22.1330   73.8890   -0.9008 O   0  0  0  0  0  0  0  0  0  0  0  0
   23.2130   73.8288    1.2079 O   0  0  0  0  0  0  0  0  0  0  0  0
   21.5291   70.0585    1.2212 O   0  0  0  0  0  0  0  0  0  0  0  0
   20.4432   72.1024    2.9216 O   0  0  0  0  0  0  0  0  0  0  0  0
   22.6183   71.1448   -1.2310 O   0  0  0  0  0  0  0  0  0  0  0  0
   21.5919   71.4564    0.9256 C   0  0  1  0  0  0  0  0  0  0  0  0
   21.6923   72.2218    2.2465 C   0  0  1  0  0  0  0  0  0  0  0  0
   22.8159   71.7275    0.0528 C   0  0  2  0  0  0  0  0  0  0  0  0
   22.0308   73.6992    2.0063 C   0  0  1  0  0  0  0  0  0  0  0  0
   23.0928   73.2259   -0.0820 C   0  0  1  0  0  0  0  0  0  0  0  0
   20.7538   69.8795    1.7748 H   0  0  0  0  0  0  0  0  0  0  0  0
   20.2410   71.1647    3.0667 H   0  0  0  0  0  0  0  0  0  0  0  0
   22.4443   70.1962   -1.1320 H   0  0  0  0  0  0  0  0  0  0  0  0
   23.5080   75.1584    3.1886 O   0  0  0  0  0  0  0  0  0  0  0  0
   22.2907   74.4462    3.3127 C   0  0  0  0  0  0  0  0  0  0  0  0
   23.6862   75.6389    4.0127 H   0  0  0  0  0  0  0  0  0  0  0  0
 25 28  1  0
 25 24  1  0
 25 26  1  1
 25 27  2  0
  1  4  1  0
  1 24  1  0
  1  2  1  1
  1  3  2  0
  6 11  1  0
  6 12  1  0
 29 36  1  0
 29 37  1  0
  9  7  1  1
  7 13  1  0
 10  8  1  1
  8 14  1  0
 37 28  1  1
  4  5  1  0
 33 30  1  1
 30 38  1  0
 34 31  1  6
 31 39  1  0
 35 32  1  6
 32 40  1  0
 41 42  1  0
 41 43  1  0
 15 19  2  0
 16 22  2  0
 12 17  1  6
 17 19  1  0
 17 20  1  0
 18 19  1  0
 18 22  1  0
 18 23  1  0
  9 10  1  0
  9 11  1  0
 10 12  1  0
 11  5  1  6
 33 34  1  0
 33 35  1  0
 34 36  1  0
 35 37  1  0
 36 42  1  1
 20 21  2  0
 21 22  1  0
M  CHG  2   2  -1  26  -1
M  END
>  <COMPND>  (194) 
    8629 

>  <AUTHOR>  (194) 
    GENERATED BY OPEN BABEL 3.1.1

>  <MASTER>  (194) 
        0    0    0    0    0    0    0    0   58    0   58    0

>  <minimizedAffinity>  (194) 
-6.37741

>  <CNNscore>  (194) 
0.6118234992

>  <CNNaffinity>  (194) 
4.3079099655

>  <CNN_VS>  (194) 
2.6356804371

>  <CNNaffinity_variance>  (194) 
0.1640000343

$$$$
195
     RDKit          3D

 43 45  0  0  0  0  0  0  0  0999 V2000
   21.9506   72.6299   -5.7495 P   0  0  2  0  0  0  0  0  0  0  0  0
   21.4113   74.0852   -5.2929 O   0  0  0  0  0  0  0  0  0  0  0  0
   23.0839   72.6538   -6.7327 O   0  0  0  0  0  0  0  0  0  0  0  0
   20.6154   71.8556   -6.2351 O   0  0  0  0  0  0  0  0  0  0  0  0
   20.1108   72.1258   -7.5313 C   0  0  0  0  0  0  0  0  0  0  0  0
   19.0049   70.0572   -7.0100 O   0  0  0  0  0  0  0  0  0  0  0  0
   18.1937   69.9803   -9.8957 O   0  0  0  0  0  0  0  0  0  0  0  0
   15.9293   70.8720   -8.6652 O   0  0  0  0  0  0  0  0  0  0  0  0
   18.3228   71.1026   -9.0244 C   0  0  1  0  0  0  0  0  0  0  0  0
   17.1693   71.1426   -8.0440 C   0  0  2  0  0  0  0  0  0  0  0  0
   19.5120   70.8494   -8.1062 C   0  0  1  0  0  0  0  0  0  0  0  0
   17.5684   70.0708   -7.0439 C   0  0  2  0  0  0  0  0  0  0  0  0
   17.4407   70.1192  -10.4920 H   0  0  0  0  0  0  0  0  0  0  0  0
   15.7197   71.5819   -9.2920 H   0  0  0  0  0  0  0  0  0  0  0  0
   16.3008   68.1625   -5.3918 O   0  0  0  0  0  0  0  0  0  0  0  0
   15.7085   71.2241   -1.9981 O   0  0  0  0  0  0  0  0  0  0  0  0
   17.0734   70.3420   -5.7238 N   0  0  0  0  0  0  0  0  0  0  0  0
   16.0070   69.6885   -3.7033 N   0  0  0  0  0  0  0  0  0  0  0  0
   16.4518   69.3138   -4.9776 C   0  0  0  0  0  0  0  0  0  0  0  0
   17.2068   71.6156   -5.1817 C   0  0  0  0  0  0  0  0  0  0  0  0
   16.7762   71.9571   -3.9654 C   0  0  0  0  0  0  0  0  0  0  0  0
   16.1154   70.9413   -3.1208 C   0  0  0  0  0  0  0  0  0  0  0  0
   15.5704   68.9886   -3.1654 H   0  0  0  0  0  0  0  0  0  0  0  0
   22.2955   71.9122   -4.3428 O   0  0  0  0  0  0  0  0  0  0  0  0
   23.5439   72.1001   -3.3332 P   0  0  2  0  0  0  0  0  0  0  0  0
   24.4700   73.1914   -4.0874 O   0  0  0  0  0  0  0  0  0  0  0  0
   24.2512   70.8225   -2.9848 O   0  0  0  0  0  0  0  0  0  0  0  0
   22.9301   72.8914   -2.0675 O   0  0  0  0  0  0  0  0  0  0  0  0
   21.5310   71.8258   -0.4789 O   0  0  0  0  0  0  0  0  0  0  0  0
   20.2791   75.7251    0.0498 O   0  0  0  0  0  0  0  0  0  0  0  0
   21.8907   74.4674    2.0670 O   0  0  0  0  0  0  0  0  0  0  0  0
   20.9035   74.7565   -2.6057 O   0  0  0  0  0  0  0  0  0  0  0  0
   21.2229   74.6848   -0.2194 C   0  0  1  0  0  0  0  0  0  0  0  0
   21.2742   73.7575    0.9964 C   0  0  1  0  0  0  0  0  0  0  0  0
   20.7783   73.9170   -1.4629 C   0  0  2  0  0  0  0  0  0  0  0  0
   22.0587   72.4762    0.6831 C   0  0  1  0  0  0  0  0  0  0  0  0
   21.5902   72.6348   -1.6553 C   0  0  1  0  0  0  0  0  0  0  0  0
   20.5559   76.2168    0.8379 H   0  0  0  0  0  0  0  0  0  0  0  0
   21.3859   75.2745    2.2544 H   0  0  0  0  0  0  0  0  0  0  0  0
   20.3849   75.5645   -2.4716 H   0  0  0  0  0  0  0  0  0  0  0  0
   20.9126   71.8252    2.6760 O   0  0  0  0  0  0  0  0  0  0  0  0
   21.9892   71.4686    1.8285 C   0  0  0  0  0  0  0  0  0  0  0  0
   20.8560   71.1923    3.4095 H   0  0  0  0  0  0  0  0  0  0  0  0
 25 28  1  0
 25 24  1  0
 25 26  1  6
 25 27  2  0
  1  4  1  0
  1 24  1  0
  1  2  1  1
  1  3  2  0
  6 11  1  0
  6 12  1  0
 29 36  1  0
 29 37  1  0
  9  7  1  6
  7 13  1  0
 10  8  1  6
  8 14  1  0
 37 28  1  1
  4  5  1  0
 33 30  1  1
 30 38  1  0
 34 31  1  1
 31 39  1  0
 35 32  1  6
 32 40  1  0
 41 42  1  0
 41 43  1  0
 15 19  2  0
 16 22  2  0
 12 17  1  1
 17 19  1  0
 17 20  1  0
 18 19  1  0
 18 22  1  0
 18 23  1  0
  9 10  1  0
  9 11  1  0
 10 12  1  0
 11  5  1  1
 33 34  1  0
 33 35  1  0
 34 36  1  0
 35 37  1  0
 36 42  1  1
 20 21  2  0
 21 22  1  0
M  CHG  2   2  -1  26  -1
M  END
>  <COMPND>  (195) 
    8629 

>  <AUTHOR>  (195) 
    GENERATED BY OPEN BABEL 3.1.1

>  <MASTER>  (195) 
        0    0    0    0    0    0    0    0   58    0   58    0

>  <minimizedAffinity>  (195) 
-7.49771

>  <CNNscore>  (195) 
0.6083018184

>  <CNNaffinity>  (195) 
4.3003416061

>  <CNN_VS>  (195) 
2.6159055233

>  <CNNaffinity_variance>  (195) 
0.3881229758

$$$$
196
     RDKit          3D

 43 45  0  0  0  0  0  0  0  0999 V2000
   21.9754   72.8679   -3.9434 P   0  0  2  0  0  0  0  0  0  0  0  0
   22.6838   72.1999   -5.2354 O   0  0  0  0  0  0  0  0  0  0  0  0
   21.4753   74.2677   -4.1477 O   0  0  0  0  0  0  0  0  0  0  0  0
   23.0635   72.6760   -2.7613 O   0  0  0  0  0  0  0  0  0  0  0  0
   22.6719   72.9599   -1.4294 C   0  0  0  0  0  0  0  0  0  0  0  0
   23.7567   71.4171    0.0595 O   0  0  0  0  0  0  0  0  0  0  0  0
   21.0188   70.3394    0.6366 O   0  0  0  0  0  0  0  0  0  0  0  0
   21.5019   71.9252    2.8019 O   0  0  0  0  0  0  0  0  0  0  0  0
   21.4244   71.6836    0.3838 C   0  0  1  0  0  0  0  0  0  0  0  0
   22.1480   72.2497    1.5878 C   0  0  2  0  0  0  0  0  0  0  0  0
   22.5291   71.6510   -0.6649 C   0  0  1  0  0  0  0  0  0  0  0  0
   23.5180   71.6047    1.4640 C   0  0  2  0  0  0  0  0  0  0  0  0
   20.3134   70.3346    1.3033 H   0  0  0  0  0  0  0  0  0  0  0  0
   20.6350   72.3591    2.8330 H   0  0  0  0  0  0  0  0  0  0  0  0
   26.0169   70.6317    2.3511 O   0  0  0  0  0  0  0  0  0  0  0  0
   27.4448   74.8504    3.5365 O   0  0  0  0  0  0  0  0  0  0  0  0
   24.5616   72.4267    2.0086 N   0  0  0  0  0  0  0  0  0  0  0  0
   26.7259   72.7331    2.9404 N   0  0  0  0  0  0  0  0  0  0  0  0
   25.7786   71.8389    2.4256 C   0  0  0  0  0  0  0  0  0  0  0  0
   24.3731   73.7997    2.1244 C   0  0  0  0  0  0  0  0  0  0  0  0
   25.2860   74.6384    2.6188 C   0  0  0  0  0  0  0  0  0  0  0  0
   26.5850   74.1050    3.0771 C   0  0  0  0  0  0  0  0  0  0  0  0
   27.5813   72.3462    3.2376 H   0  0  0  0  0  0  0  0  0  0  0  0
   20.8300   71.7934   -3.5608 O   0  0  0  0  0  0  0  0  0  0  0  0
   19.9462   70.8081   -4.4887 P   0  0  2  0  0  0  0  0  0  0  0  0
   19.1291   69.9185   -3.4124 O   0  0  0  0  0  0  0  0  0  0  0  0
   20.7478   70.0068   -5.4733 O   0  0  0  0  0  0  0  0  0  0  0  0
   18.8316   71.7660   -5.1559 O   0  0  0  0  0  0  0  0  0  0  0  0
   19.3427   71.4887   -7.4533 O   0  0  0  0  0  0  0  0  0  0  0  0
   15.8510   73.6636   -7.8120 O   0  0  0  0  0  0  0  0  0  0  0  0
   15.8542   70.8682   -8.4705 O   0  0  0  0  0  0  0  0  0  0  0  0
   17.7316   74.2892   -5.7022 O   0  0  0  0  0  0  0  0  0  0  0  0
   16.7357   72.7077   -7.2215 C   0  0  1  0  0  0  0  0  0  0  0  0
   17.0409   71.6292   -8.2629 C   0  0  1  0  0  0  0  0  0  0  0  0
   18.0184   73.4154   -6.7887 C   0  0  2  0  0  0  0  0  0  0  0  0
   18.1853   70.7185   -7.7983 C   0  0  1  0  0  0  0  0  0  0  0  0
   19.1082   72.4174   -6.3930 C   0  0  1  0  0  0  0  0  0  0  0  0
   15.0344   73.2208   -8.0886 H   0  0  0  0  0  0  0  0  0  0  0  0
   15.1393   71.4551   -8.7631 H   0  0  0  0  0  0  0  0  0  0  0  0
   17.0406   74.9162   -5.9654 H   0  0  0  0  0  0  0  0  0  0  0  0
   18.1631   70.2263  -10.1363 O   0  0  0  0  0  0  0  0  0  0  0  0
   18.6117   69.7355   -8.8865 C   0  0  0  0  0  0  0  0  0  0  0  0
   18.4277   69.6110  -10.8385 H   0  0  0  0  0  0  0  0  0  0  0  0
 25 28  1  0
 25 24  1  0
 25 26  1  1
 25 27  2  0
  1  4  1  0
  1 24  1  0
  1  2  1  6
  1  3  2  0
  6 11  1  0
  6 12  1  0
 29 36  1  0
 29 37  1  0
  9  7  1  1
  7 13  1  0
 10  8  1  1
  8 14  1  0
 37 28  1  1
  4  5  1  0
 33 30  1  6
 30 38  1  0
 34 31  1  1
 31 39  1  0
 35 32  1  1
 32 40  1  0
 41 42  1  0
 41 43  1  0
 15 19  2  0
 16 22  2  0
 12 17  1  6
 17 19  1  0
 17 20  1  0
 18 19  1  0
 18 22  1  0
 18 23  1  0
  9 10  1  0
  9 11  1  0
 10 12  1  0
 11  5  1  1
 33 34  1  0
 33 35  1  0
 34 36  1  0
 35 37  1  0
 36 42  1  6
 20 21  2  0
 21 22  1  0
M  CHG  2   2  -1  26  -1
M  END
>  <COMPND>  (196) 
    8629 

>  <AUTHOR>  (196) 
    GENERATED BY OPEN BABEL 3.1.1

>  <MASTER>  (196) 
        0    0    0    0    0    0    0    0   58    0   58    0

>  <minimizedAffinity>  (196) 
-6.74538

>  <CNNscore>  (196) 
0.6061564088

>  <CNNaffinity>  (196) 
4.2286210060

>  <CNN_VS>  (196) 
2.5632057190

>  <CNNaffinity_variance>  (196) 
0.1246017814

$$$$
197
     RDKit          3D

 43 45  0  0  0  0  0  0  0  0999 V2000
   16.2942   69.8607   -2.3271 P   0  0  2  0  0  0  0  0  0  0  0  0
   17.2395   68.5479   -2.3450 O   0  0  0  0  0  0  0  0  0  0  0  0
   16.8478   71.0300   -1.5669 O   0  0  0  0  0  0  0  0  0  0  0  0
   14.8644   69.3029   -1.8147 O   0  0  0  0  0  0  0  0  0  0  0  0
   14.7470   68.8805   -0.4672 C   0  0  0  0  0  0  0  0  0  0  0  0
   12.4333   69.5247   -0.5424 O   0  0  0  0  0  0  0  0  0  0  0  0
   12.7498   70.3021    2.3362 O   0  0  0  0  0  0  0  0  0  0  0  0
   11.5077   67.8805    2.5077 O   0  0  0  0  0  0  0  0  0  0  0  0
   13.3390   69.2144    1.6254 C   0  0  1  0  0  0  0  0  0  0  0  0
   12.3096   68.1329    1.3719 C   0  0  2  0  0  0  0  0  0  0  0  0
   13.6530   69.6920    0.2131 C   0  0  1  0  0  0  0  0  0  0  0  0
   11.5171   68.7172    0.2149 C   0  0  2  0  0  0  0  0  0  0  0  0
   12.5408   70.0212    3.2414 H   0  0  0  0  0  0  0  0  0  0  0  0
   12.0573   67.5098    3.2158 H   0  0  0  0  0  0  0  0  0  0  0  0
    9.7059   69.2161   -1.8943 O   0  0  0  0  0  0  0  0  0  0  0  0
    9.4869   64.7490   -3.0071 O   0  0  0  0  0  0  0  0  0  0  0  0
   10.9710   67.7031   -0.6423 N   0  0  0  0  0  0  0  0  0  0  0  0
    9.5985   66.9914   -2.4468 N   0  0  0  0  0  0  0  0  0  0  0  0
   10.0684   68.0591   -1.6714 C   0  0  0  0  0  0  0  0  0  0  0  0
   11.3315   66.3726   -0.4586 C   0  0  0  0  0  0  0  0  0  0  0  0
   10.8734   65.3661   -1.2059 C   0  0  0  0  0  0  0  0  0  0  0  0
    9.9261   65.6526   -2.3025 C   0  0  0  0  0  0  0  0  0  0  0  0
    8.9682   67.2155   -3.1695 H   0  0  0  0  0  0  0  0  0  0  0  0
   16.0329   70.1419   -3.8973 O   0  0  0  0  0  0  0  0  0  0  0  0
   17.0460   70.5700   -5.0820 P   0  0  2  0  0  0  0  0  0  0  0  0
   16.3737   71.9160   -5.6767 O   0  0  0  0  0  0  0  0  0  0  0  0
   17.2884   69.4958   -6.1025 O   0  0  0  0  0  0  0  0  0  0  0  0
   18.3739   71.0801   -4.3195 O   0  0  0  0  0  0  0  0  0  0  0  0
   20.3261   70.6391   -5.5889 O   0  0  0  0  0  0  0  0  0  0  0  0
   22.0937   71.8304   -2.0524 O   0  0  0  0  0  0  0  0  0  0  0  0
   22.1756   73.5711   -4.3352 O   0  0  0  0  0  0  0  0  0  0  0  0
   19.6884   70.2209   -1.9938 O   0  0  0  0  0  0  0  0  0  0  0  0
   21.1000   71.8418   -3.0808 C   0  0  1  0  0  0  0  0  0  0  0  0
   21.7813   72.2034   -4.4021 C   0  0  1  0  0  0  0  0  0  0  0  0
   20.4565   70.4592   -3.1685 C   0  0  2  0  0  0  0  0  0  0  0  0
   20.8388   71.9766   -5.5917 C   0  0  1  0  0  0  0  0  0  0  0  0
   19.5778   70.3230   -4.4132 C   0  0  1  0  0  0  0  0  0  0  0  0
   22.5058   72.7056   -1.9912 H   0  0  0  0  0  0  0  0  0  0  0  0
   22.7700   73.7009   -3.5796 H   0  0  0  0  0  0  0  0  0  0  0  0
   20.2560   70.3097   -1.2130 H   0  0  0  0  0  0  0  0  0  0  0  0
   22.9405   72.2586   -6.6927 O   0  0  0  0  0  0  0  0  0  0  0  0
   21.5469   72.1800   -6.9293 C   0  0  0  0  0  0  0  0  0  0  0  0
   23.4042   72.3877   -7.5353 H   0  0  0  0  0  0  0  0  0  0  0  0
 25 28  1  0
 25 24  1  0
 25 26  1  6
 25 27  2  0
  1  4  1  0
  1 24  1  0
  1  2  1  6
  1  3  2  0
  6 11  1  0
  6 12  1  0
 29 36  1  0
 29 37  1  0
  9  7  1  1
  7 13  1  0
 10  8  1  1
  8 14  1  0
 37 28  1  1
  4  5  1  0
 33 30  1  1
 30 38  1  0
 34 31  1  1
 31 39  1  0
 35 32  1  1
 32 40  1  0
 41 42  1  0
 41 43  1  0
 15 19  2  0
 16 22  2  0
 12 17  1  6
 17 19  1  0
 17 20  1  0
 18 19  1  0
 18 22  1  0
 18 23  1  0
  9 10  1  0
  9 11  1  0
 10 12  1  0
 11  5  1  6
 33 34  1  0
 33 35  1  0
 34 36  1  0
 35 37  1  0
 36 42  1  6
 20 21  2  0
 21 22  1  0
M  CHG  2   2  -1  26  -1
M  END
>  <COMPND>  (197) 
    8629 

>  <AUTHOR>  (197) 
    GENERATED BY OPEN BABEL 3.1.1

>  <MASTER>  (197) 
        0    0    0    0    0    0    0    0   58    0   58    0

>  <minimizedAffinity>  (197) 
-6.53697

>  <CNNscore>  (197) 
0.6044929028

>  <CNNaffinity>  (197) 
4.3323798180

>  <CNN_VS>  (197) 
2.6188929081

>  <CNNaffinity_variance>  (197) 
0.0485898778

$$$$
198
     RDKit          3D

 43 45  0  0  0  0  0  0  0  0999 V2000
   22.4883   73.8105   -5.6722 P   0  0  2  0  0  0  0  0  0  0  0  0
   23.0621   72.5696   -6.5373 O   0  0  0  0  0  0  0  0  0  0  0  0
   21.7956   74.8742   -6.4723 O   0  0  0  0  0  0  0  0  0  0  0  0
   23.7629   74.3017   -4.8050 O   0  0  0  0  0  0  0  0  0  0  0  0
   24.2044   75.6402   -4.9505 C   0  0  0  0  0  0  0  0  0  0  0  0
   26.4459   75.2462   -4.1796 O   0  0  0  0  0  0  0  0  0  0  0  0
   26.0866   77.6834   -2.4703 O   0  0  0  0  0  0  0  0  0  0  0  0
   27.5539   78.6357   -4.5624 O   0  0  0  0  0  0  0  0  0  0  0  0
   25.5958   77.4227   -3.7843 C   0  0  1  0  0  0  0  0  0  0  0  0
   26.7202   77.5186   -4.7942 C   0  0  2  0  0  0  0  0  0  0  0  0
   25.2236   75.9472   -3.8619 C   0  0  1  0  0  0  0  0  0  0  0  0
   27.4420   76.1977   -4.5886 C   0  0  2  0  0  0  0  0  0  0  0  0
   26.3305   78.6199   -2.3964 H   0  0  0  0  0  0  0  0  0  0  0  0
   27.0491   79.4514   -4.7059 H   0  0  0  0  0  0  0  0  0  0  0  0
   29.7943   74.6352   -4.6467 O   0  0  0  0  0  0  0  0  0  0  0  0
   29.7731   74.4448   -9.2515 O   0  0  0  0  0  0  0  0  0  0  0  0
   28.0728   75.7256   -5.7889 N   0  0  0  0  0  0  0  0  0  0  0  0
   29.7817   74.5415   -6.9395 N   0  0  0  0  0  0  0  0  0  0  0  0
   29.2518   74.9485   -5.7084 C   0  0  0  0  0  0  0  0  0  0  0  0
   27.5223   76.0336   -7.0282 C   0  0  0  0  0  0  0  0  0  0  0  0
   28.0406   75.6388   -8.1930 C   0  0  0  0  0  0  0  0  0  0  0  0
   29.2721   74.8231   -8.1971 C   0  0  0  0  0  0  0  0  0  0  0  0
   30.6032   73.9994   -6.9081 H   0  0  0  0  0  0  0  0  0  0  0  0
   21.5563   73.0844   -4.5691 O   0  0  0  0  0  0  0  0  0  0  0  0
   19.9546   72.8764   -4.5037 P   0  0  2  0  0  0  0  0  0  0  0  0
   19.3906   74.3849   -4.3492 O   0  0  0  0  0  0  0  0  0  0  0  0
   19.5000   71.9322   -3.4287 O   0  0  0  0  0  0  0  0  0  0  0  0
   19.5383   72.4369   -5.9999 O   0  0  0  0  0  0  0  0  0  0  0  0
   18.8771   70.1610   -6.0037 O   0  0  0  0  0  0  0  0  0  0  0  0
   18.7978   70.8780  -10.0695 O   0  0  0  0  0  0  0  0  0  0  0  0
   16.3283   70.5869   -8.6326 O   0  0  0  0  0  0  0  0  0  0  0  0
   20.8778   72.0549   -8.4360 O   0  0  0  0  0  0  0  0  0  0  0  0
   18.6388   71.2029   -8.6858 C   0  0  1  0  0  0  0  0  0  0  0  0
   17.6009   70.2521   -8.0861 C   0  0  1  0  0  0  0  0  0  0  0  0
   19.9836   71.0461   -7.9785 C   0  0  2  0  0  0  0  0  0  0  0  0
   17.5703   70.3594   -6.5556 C   0  0  1  0  0  0  0  0  0  0  0  0
   19.8341   71.1201   -6.4579 C   0  0  1  0  0  0  0  0  0  0  0  0
   17.9475   70.9760  -10.5245 H   0  0  0  0  0  0  0  0  0  0  0  0
   16.3613   70.5156   -9.5995 H   0  0  0  0  0  0  0  0  0  0  0  0
   20.9642   71.9973   -9.3999 H   0  0  0  0  0  0  0  0  0  0  0  0
   16.0900   69.8545   -4.7493 O   0  0  0  0  0  0  0  0  0  0  0  0
   16.6565   69.3098   -5.9268 C   0  0  0  0  0  0  0  0  0  0  0  0
   15.5057   69.1976   -4.3384 H   0  0  0  0  0  0  0  0  0  0  0  0
 25 28  1  0
 25 24  1  0
 25 26  1  1
 25 27  2  0
  1  4  1  0
  1 24  1  0
  1  2  1  6
  1  3  2  0
  6 11  1  0
  6 12  1  0
 29 36  1  0
 29 37  1  0
  9  7  1  1
  7 13  1  0
 10  8  1  1
  8 14  1  0
 37 28  1  6
  4  5  1  0
 33 30  1  6
 30 38  1  0
 34 31  1  6
 31 39  1  0
 35 32  1  6
 32 40  1  0
 41 42  1  0
 41 43  1  0
 15 19  2  0
 16 22  2  0
 12 17  1  6
 17 19  1  0
 17 20  1  0
 18 19  1  0
 18 22  1  0
 18 23  1  0
  9 10  1  0
  9 11  1  0
 10 12  1  0
 11  5  1  6
 33 34  1  0
 33 35  1  0
 34 36  1  0
 35 37  1  0
 36 42  1  1
 20 21  2  0
 21 22  1  0
M  CHG  2   2  -1  26  -1
M  END
>  <COMPND>  (198) 
    8629 

>  <AUTHOR>  (198) 
    GENERATED BY OPEN BABEL 3.1.1

>  <MASTER>  (198) 
        0    0    0    0    0    0    0    0   58    0   58    0

>  <minimizedAffinity>  (198) 
-6.46103

>  <CNNscore>  (198) 
0.5789113641

>  <CNNaffinity>  (198) 
4.2435870171

>  <CNN_VS>  (198) 
2.4566607475

>  <CNNaffinity_variance>  (198) 
0.0566626899

$$$$
199
     RDKit          3D

 43 45  0  0  0  0  0  0  0  0999 V2000
   20.4872   73.8684   -3.0829 P   0  0  2  0  0  0  0  0  0  0  0  0
   21.2901   75.2293   -2.7357 O   0  0  0  0  0  0  0  0  0  0  0  0
   19.0549   74.0627   -3.4856 O   0  0  0  0  0  0  0  0  0  0  0  0
   20.7317   72.9316   -1.7865 O   0  0  0  0  0  0  0  0  0  0  0  0
   21.3421   73.5050   -0.6435 C   0  0  0  0  0  0  0  0  0  0  0  0
   23.3759   73.5808    0.6339 O   0  0  0  0  0  0  0  0  0  0  0  0
   24.2649   71.2236   -0.9922 O   0  0  0  0  0  0  0  0  0  0  0  0
   23.4774   70.0678    1.3489 O   0  0  0  0  0  0  0  0  0  0  0  0
   22.9617   71.5474   -0.5103 C   0  0  1  0  0  0  0  0  0  0  0  0
   22.8733   71.2908    0.9797 C   0  0  2  0  0  0  0  0  0  0  0  0
   22.7970   73.0603   -0.5828 C   0  0  1  0  0  0  0  0  0  0  0  0
   23.5991   72.4971    1.5507 C   0  0  2  0  0  0  0  0  0  0  0  0
   24.3933   70.2623   -0.9558 H   0  0  0  0  0  0  0  0  0  0  0  0
   22.9795   69.3311    0.9614 H   0  0  0  0  0  0  0  0  0  0  0  0
   21.0171   71.8759    2.5128 O   0  0  0  0  0  0  0  0  0  0  0  0
   21.8071   73.9880    6.5323 O   0  0  0  0  0  0  0  0  0  0  0  0
   23.1038   72.8720    2.8452 N   0  0  0  0  0  0  0  0  0  0  0  0
   21.4126   72.9279    4.5135 N   0  0  0  0  0  0  0  0  0  0  0  0
   21.7917   72.5116    3.2309 C   0  0  0  0  0  0  0  0  0  0  0  0
   23.9162   73.5888    3.7170 C   0  0  0  0  0  0  0  0  0  0  0  0
   23.5393   73.9794    4.9363 C   0  0  0  0  0  0  0  0  0  0  0  0
   22.1834   73.6431    5.4163 C   0  0  0  0  0  0  0  0  0  0  0  0
   20.5026   72.6884    4.8036 H   0  0  0  0  0  0  0  0  0  0  0  0
   21.4153   73.1767   -4.2112 O   0  0  0  0  0  0  0  0  0  0  0  0
   21.3951   73.2979   -5.8230 P   0  0  2  0  0  0  0  0  0  0  0  0
   22.6398   72.3711   -6.2805 O   0  0  0  0  0  0  0  0  0  0  0  0
   21.4520   74.7081   -6.3348 O   0  0  0  0  0  0  0  0  0  0  0  0
   20.0842   72.4735   -6.2782 O   0  0  0  0  0  0  0  0  0  0  0  0
   19.4576   70.3030   -5.5621 O   0  0  0  0  0  0  0  0  0  0  0  0
   17.8663   70.2260   -9.3717 O   0  0  0  0  0  0  0  0  0  0  0  0
   16.1125   70.4248   -7.1062 O   0  0  0  0  0  0  0  0  0  0  0  0
   20.4127   71.5181   -8.8963 O   0  0  0  0  0  0  0  0  0  0  0  0
   18.2384   70.8239   -8.1269 C   0  0  1  0  0  0  0  0  0  0  0  0
   17.4953   70.0967   -7.0045 C   0  0  1  0  0  0  0  0  0  0  0  0
   19.7494   70.6948   -7.9431 C   0  0  2  0  0  0  0  0  0  0  0  0
   18.0403   70.4995   -5.6276 C   0  0  1  0  0  0  0  0  0  0  0  0
   20.1801   71.0731   -6.5248 C   0  0  1  0  0  0  0  0  0  0  0  0
   16.9081   70.3050   -9.4948 H   0  0  0  0  0  0  0  0  0  0  0  0
   15.7809   70.1657   -7.9804 H   0  0  0  0  0  0  0  0  0  0  0  0
   20.1318   71.2686   -9.7900 H   0  0  0  0  0  0  0  0  0  0  0  0
   16.0883   70.1021   -4.3082 O   0  0  0  0  0  0  0  0  0  0  0  0
   17.4226   69.6710   -4.5033 C   0  0  0  0  0  0  0  0  0  0  0  0
   15.6824   69.5833   -3.5956 H   0  0  0  0  0  0  0  0  0  0  0  0
 25 28  1  0
 25 24  1  0
 25 26  1  6
 25 27  2  0
  1  4  1  0
  1 24  1  0
  1  2  1  1
  1  3  2  0
  6 11  1  0
  6 12  1  0
 29 36  1  0
 29 37  1  0
  9  7  1  1
  7 13  1  0
 10  8  1  6
  8 14  1  0
 37 28  1  1
  4  5  1  0
 33 30  1  6
 30 38  1  0
 34 31  1  1
 31 39  1  0
 35 32  1  6
 32 40  1  0
 41 42  1  0
 41 43  1  0
 15 19  2  0
 16 22  2  0
 12 17  1  1
 17 19  1  0
 17 20  1  0
 18 19  1  0
 18 22  1  0
 18 23  1  0
  9 10  1  0
  9 11  1  0
 10 12  1  0
 11  5  1  1
 33 34  1  0
 33 35  1  0
 34 36  1  0
 35 37  1  0
 36 42  1  1
 20 21  2  0
 21 22  1  0
M  CHG  2   2  -1  26  -1
M  END
>  <COMPND>  (199) 
    8629 

>  <AUTHOR>  (199) 
    GENERATED BY OPEN BABEL 3.1.1

>  <MASTER>  (199) 
        0    0    0    0    0    0    0    0   58    0   58    0

>  <minimizedAffinity>  (199) 
-6.83828

>  <CNNscore>  (199) 
0.5675372481

>  <CNNaffinity>  (199) 
4.1620173454

>  <CNN_VS>  (199) 
2.3620998859

>  <CNNaffinity_variance>  (199) 
0.1136874557

$$$$
200
     RDKit          3D

 43 45  0  0  0  0  0  0  0  0999 V2000
   22.2703   72.8331   -6.1443 P   0  0  2  0  0  0  0  0  0  0  0  0
   22.7997   73.3276   -7.5909 O   0  0  0  0  0  0  0  0  0  0  0  0
   23.3410   72.3614   -5.2049 O   0  0  0  0  0  0  0  0  0  0  0  0
   21.1214   71.7508   -6.5004 O   0  0  0  0  0  0  0  0  0  0  0  0
   20.0951   72.1263   -7.4024 C   0  0  0  0  0  0  0  0  0  0  0  0
   18.8913   70.1073   -6.9042 O   0  0  0  0  0  0  0  0  0  0  0  0
   18.1743   70.0385   -9.8148 O   0  0  0  0  0  0  0  0  0  0  0  0
   15.9072   71.0288   -8.6675 O   0  0  0  0  0  0  0  0  0  0  0  0
   18.3187   71.1620   -8.9476 C   0  0  1  0  0  0  0  0  0  0  0  0
   17.1356   71.2556   -8.0068 C   0  0  2  0  0  0  0  0  0  0  0  0
   19.4656   70.8698   -7.9881 C   0  0  1  0  0  0  0  0  0  0  0  0
   17.4584   70.1772   -6.9864 C   0  0  2  0  0  0  0  0  0  0  0  0
   17.4476   70.2019  -10.4371 H   0  0  0  0  0  0  0  0  0  0  0  0
   15.7469   71.7412   -9.3058 H   0  0  0  0  0  0  0  0  0  0  0  0
   16.5441   68.2387   -5.1468 O   0  0  0  0  0  0  0  0  0  0  0  0
   15.4535   71.4494   -2.0254 O   0  0  0  0  0  0  0  0  0  0  0  0
   16.9308   70.4786   -5.6855 N   0  0  0  0  0  0  0  0  0  0  0  0
   16.0020   69.8389   -3.5940 N   0  0  0  0  0  0  0  0  0  0  0  0
   16.4979   69.4315   -4.8390 C   0  0  0  0  0  0  0  0  0  0  0  0
   16.8471   71.8002   -5.2608 C   0  0  0  0  0  0  0  0  0  0  0  0
   16.3704   72.1721   -4.0710 C   0  0  0  0  0  0  0  0  0  0  0  0
   15.8973   71.1395   -3.1267 C   0  0  0  0  0  0  0  0  0  0  0  0
   15.6942   69.1266   -2.9877 H   0  0  0  0  0  0  0  0  0  0  0  0
   21.4217   74.1027   -5.6143 O   0  0  0  0  0  0  0  0  0  0  0  0
   21.6640   75.0923   -4.3593 P   0  0  2  0  0  0  0  0  0  0  0  0
   20.4437   76.1479   -4.4782 O   0  0  0  0  0  0  0  0  0  0  0  0
   23.0265   75.7219   -4.3263 O   0  0  0  0  0  0  0  0  0  0  0  0
   21.3073   74.2013   -3.0617 O   0  0  0  0  0  0  0  0  0  0  0  0
   19.5373   72.6290   -3.1685 O   0  0  0  0  0  0  0  0  0  0  0  0
   19.7432   73.1133    0.9271 O   0  0  0  0  0  0  0  0  0  0  0  0
   20.6870   70.6752   -0.2617 O   0  0  0  0  0  0  0  0  0  0  0  0
   20.1171   75.3931   -0.8172 O   0  0  0  0  0  0  0  0  0  0  0  0
   20.2632   73.0250   -0.4023 C   0  0  1  0  0  0  0  0  0  0  0  0
   19.9140   71.6451   -0.9632 C   0  0  1  0  0  0  0  0  0  0  0  0
   19.6387   74.1265   -1.2568 C   0  0  2  0  0  0  0  0  0  0  0  0
   20.2013   71.5701   -2.4688 C   0  0  1  0  0  0  0  0  0  0  0  0
   19.9449   73.9307   -2.7427 C   0  0  1  0  0  0  0  0  0  0  0  0
   20.1362   72.4170    1.4749 H   0  0  0  0  0  0  0  0  0  0  0  0
   20.4966   70.7335    0.6878 H   0  0  0  0  0  0  0  0  0  0  0  0
   19.9169   75.5051    0.1248 H   0  0  0  0  0  0  0  0  0  0  0  0
   20.1831   70.1814   -4.4130 O   0  0  0  0  0  0  0  0  0  0  0  0
   19.7143   70.2578   -3.0793 C   0  0  0  0  0  0  0  0  0  0  0  0
   19.8810   69.3510   -4.8142 H   0  0  0  0  0  0  0  0  0  0  0  0
 25 28  1  0
 25 24  1  0
 25 26  1  6
 25 27  2  0
  1  4  1  0
  1 24  1  0
  1  2  1  6
  1  3  2  0
  6 11  1  0
  6 12  1  0
 29 36  1  0
 29 37  1  0
  9  7  1  6
  7 13  1  0
 10  8  1  6
  8 14  1  0
 37 28  1  1
  4  5  1  0
 33 30  1  1
 30 38  1  0
 34 31  1  1
 31 39  1  0
 35 32  1  1
 32 40  1  0
 41 42  1  0
 41 43  1  0
 15 19  2  0
 16 22  2  0
 12 17  1  1
 17 19  1  0
 17 20  1  0
 18 19  1  0
 18 22  1  0
 18 23  1  0
  9 10  1  0
  9 11  1  0
 10 12  1  0
 11  5  1  1
 33 34  1  0
 33 35  1  0
 34 36  1  0
 35 37  1  0
 36 42  1  6
 20 21  2  0
 21 22  1  0
M  CHG  2   2  -1  26  -1
M  END
