1
     RDKit          3D

 43 45  0  0  0  0  0  0  0  0999 V2000
   21.2185   72.3660   -2.5552 P   0  0  2  0  0  0  0  0  0  0  0  0
   22.3598   71.4729   -1.8348 O   0  0  0  0  0  0  0  0  0  0  0  0
   20.1311   72.8581   -1.6457 O   0  0  0  0  0  0  0  0  0  0  0  0
   20.7343   71.4492   -3.7973 O   0  0  0  0  0  0  0  0  0  0  0  0
   19.9291   70.3162   -3.5279 C   0  0  0  0  0  0  0  0  0  0  0  0
   18.1787   71.4706   -4.7032 O   0  0  0  0  0  0  0  0  0  0  0  0
   16.2689   70.0281   -2.8967 O   0  0  0  0  0  0  0  0  0  0  0  0
   16.1175   68.5798   -5.2022 O   0  0  0  0  0  0  0  0  0  0  0  0
   17.4974   69.5711   -3.4628 C   0  0  1  0  0  0  0  0  0  0  0  0
   17.3174   69.2758   -4.9368 C   0  0  2  0  0  0  0  0  0  0  0  0
   18.4677   70.7442   -3.4890 C   0  0  1  0  0  0  0  0  0  0  0  0
   17.3311   70.6694   -5.5416 C   0  0  2  0  0  0  0  0  0  0  0  0
   15.6329   69.2958   -2.8694 H   0  0  0  0  0  0  0  0  0  0  0  0
   16.1583   67.6990   -4.7967 H   0  0  0  0  0  0  0  0  0  0  0  0
   15.7764   70.2514   -7.8621 O   0  0  0  0  0  0  0  0  0  0  0  0
   19.4356   70.7363  -10.6223 O   0  0  0  0  0  0  0  0  0  0  0  0
   17.8520   70.6811   -6.8793 N   0  0  0  0  0  0  0  0  0  0  0  0
   17.6006   70.4923   -9.2346 N   0  0  0  0  0  0  0  0  0  0  0  0
   16.9857   70.4599   -7.9760 C   0  0  0  0  0  0  0  0  0  0  0  0
   19.2053   70.9113   -7.0946 C   0  0  0  0  0  0  0  0  0  0  0  0
   19.7768   70.9392   -8.3002 C   0  0  0  0  0  0  0  0  0  0  0  0
   18.9420   70.7166   -9.4989 C   0  0  0  0  0  0  0  0  0  0  0  0
   17.0181   70.3389  -10.0133 H   0  0  0  0  0  0  0  0  0  0  0  0
   22.0728   73.5333   -3.2765 O   0  0  0  0  0  0  0  0  0  0  0  0
   23.6236   73.5879   -3.7302 P   0  0  2  0  0  0  0  0  0  0  0  0
   24.0253   72.0254   -3.8629 O   0  0  0  0  0  0  0  0  0  0  0  0
   24.5074   74.3776   -2.8087 O   0  0  0  0  0  0  0  0  0  0  0  0
   23.5867   74.1292   -5.2494 O   0  0  0  0  0  0  0  0  0  0  0  0
   21.7891   75.6343   -5.5851 O   0  0  0  0  0  0  0  0  0  0  0  0
   23.3013   75.2640   -9.4119 O   0  0  0  0  0  0  0  0  0  0  0  0
   23.0346   72.9180   -7.6916 O   0  0  0  0  0  0  0  0  0  0  0  0
   23.8331   77.6631   -7.8586 O   0  0  0  0  0  0  0  0  0  0  0  0
   23.3592   75.3042   -7.9860 C   0  0  2  0  0  0  0  0  0  0  0  0
   22.4788   74.1965   -7.4067 C   0  0  2  0  0  0  0  0  0  0  0  0
   22.8568   76.6762   -7.5309 C   0  0  1  0  0  0  0  0  0  0  0  0
   22.3325   74.3498   -5.8922 C   0  0  1  0  0  0  0  0  0  0  0  0
   22.6161   76.7096   -6.0244 C   0  0  1  0  0  0  0  0  0  0  0  0
   23.6159   74.4011   -9.7242 H   0  0  0  0  0  0  0  0  0  0  0  0
   23.1305   72.8141   -8.6510 H   0  0  0  0  0  0  0  0  0  0  0  0
   23.9956   77.6521   -8.8147 H   0  0  0  0  0  0  0  0  0  0  0  0
   22.6504   78.9573   -5.3548 O   0  0  0  0  0  0  0  0  0  0  0  0
   20.6070   77.9730   -5.5895 O   0  0  0  0  0  0  0  0  0  0  0  0
   21.8266   77.9185   -5.6400 C   0  0  0  0  0  0  0  0  0  0  0  0
  1  4  1  0
  1 24  1  0
  1  2  1  1
  1  3  2  0
 25 28  1  0
 25 24  1  0
 25 26  1  6
 25 27  2  0
  6 11  1  0
  6 12  1  0
 29 36  1  0
 29 37  1  0
  9  7  1  6
  7 13  1  0
 10  8  1  1
  8 14  1  0
  4  5  1  0
 36 28  1  1
 33 30  1  6
 30 38  1  0
 34 31  1  1
 31 39  1  0
 35 32  1  1
 32 40  1  0
 41 43  1  0
 15 19  2  0
 42 43  2  0
 16 22  2  0
 12 17  1  6
 17 19  1  0
 17 20  1  0
 18 19  1  0
 18 22  1  0
 18 23  1  0
  9 10  1  0
  9 11  1  0
 10 12  1  0
 11  5  1  6
 33 34  1  0
 33 35  1  0
 34 36  1  0
 35 37  1  0
 37 43  1  6
 20 21  2  0
 21 22  1  0
M  CHG  3   2  -1  26  -1  41  -1
M  END
>  <COMPND>  (1) 
    udp_gluA.pdb 

>  <AUTHOR>  (1) 
    GENERATED BY OPEN BABEL 3.1.1

>  <MASTER>  (1) 
        0    0    0    0    0    0    0    0   56    0   56    0

>  <minimizedAffinity>  (1) 
-7.23962

>  <CNNscore>  (1) 
0.9166221619

>  <CNNaffinity>  (1) 
4.7642211914

>  <CNN_VS>  (1) 
4.3669905663

>  <CNNaffinity_variance>  (1) 
0.1654826552

$$$$
2
     RDKit          3D

 43 45  0  0  0  0  0  0  0  0999 V2000
   21.8397   72.6364   -4.7499 P   0  0  2  0  0  0  0  0  0  0  0  0
   20.9933   73.9993   -4.9617 O   0  0  0  0  0  0  0  0  0  0  0  0
   23.0696   72.5156   -5.6011 O   0  0  0  0  0  0  0  0  0  0  0  0
   20.7402   71.4637   -4.9336 O   0  0  0  0  0  0  0  0  0  0  0  0
   20.1429   70.9095   -3.7757 C   0  0  0  0  0  0  0  0  0  0  0  0
   18.3230   71.8852   -5.0059 O   0  0  0  0  0  0  0  0  0  0  0  0
   16.5228   70.6976   -2.9225 O   0  0  0  0  0  0  0  0  0  0  0  0
   16.2701   68.9458   -4.9969 O   0  0  0  0  0  0  0  0  0  0  0  0
   17.7258   70.1716   -3.4834 C   0  0  1  0  0  0  0  0  0  0  0  0
   17.4744   69.6760   -4.8918 C   0  0  2  0  0  0  0  0  0  0  0  0
   18.6809   71.3335   -3.7203 C   0  0  1  0  0  0  0  0  0  0  0  0
   17.4425   70.9733   -5.6817 C   0  0  2  0  0  0  0  0  0  0  0  0
   15.8968   69.9736   -2.7623 H   0  0  0  0  0  0  0  0  0  0  0  0
   16.3407   68.1292   -4.4773 H   0  0  0  0  0  0  0  0  0  0  0  0
   15.7955   70.1475   -7.8222 O   0  0  0  0  0  0  0  0  0  0  0  0
   19.2848   70.3538  -10.8266 O   0  0  0  0  0  0  0  0  0  0  0  0
   17.8947   70.8031   -7.0335 N   0  0  0  0  0  0  0  0  0  0  0  0
   17.5352   70.2501   -9.3163 N   0  0  0  0  0  0  0  0  0  0  0  0
   16.9863   70.3842   -8.0342 C   0  0  0  0  0  0  0  0  0  0  0  0
   19.2231   71.0515   -7.3570 C   0  0  0  0  0  0  0  0  0  0  0  0
   19.7316   70.9194   -8.5837 C   0  0  0  0  0  0  0  0  0  0  0  0
   18.8494   70.4849   -9.6866 C   0  0  0  0  0  0  0  0  0  0  0  0
   16.9224   69.9576  -10.0293 H   0  0  0  0  0  0  0  0  0  0  0  0
   22.1191   72.6264   -3.1578 O   0  0  0  0  0  0  0  0  0  0  0  0
   23.4794   72.3772   -2.3204 P   0  0  2  0  0  0  0  0  0  0  0  0
   24.2727   73.7795   -2.4777 O   0  0  0  0  0  0  0  0  0  0  0  0
   24.2604   71.1723   -2.7588 O   0  0  0  0  0  0  0  0  0  0  0  0
   23.0101   72.3457   -0.7773 O   0  0  0  0  0  0  0  0  0  0  0  0
   23.9871   70.7858    0.7131 O   0  0  0  0  0  0  0  0  0  0  0  0
   20.5936   71.9136    2.7821 O   0  0  0  0  0  0  0  0  0  0  0  0
   20.4781   71.4189   -0.0948 O   0  0  0  0  0  0  0  0  0  0  0  0
   23.1956   72.9366    3.5785 O   0  0  0  0  0  0  0  0  0  0  0  0
   21.6966   72.0897    1.8930 C   0  0  2  0  0  0  0  0  0  0  0  0
   21.5860   71.0950    0.7372 C   0  0  2  0  0  0  0  0  0  0  0  0
   22.9844   71.8465    2.6832 C   0  0  1  0  0  0  0  0  0  0  0  0
   22.8604   71.0949   -0.1082 C   0  0  1  0  0  0  0  0  0  0  0  0
   24.1927   71.7339    1.7581 C   0  0  1  0  0  0  0  0  0  0  0  0
   19.7639   72.0632    2.3019 H   0  0  0  0  0  0  0  0  0  0  0  0
   19.6660   71.4211    0.4352 H   0  0  0  0  0  0  0  0  0  0  0  0
   22.4334   73.0192    4.1728 H   0  0  0  0  0  0  0  0  0  0  0  0
   25.1381   69.8950    2.8655 O   0  0  0  0  0  0  0  0  0  0  0  0
   26.4053   71.7849    2.7190 O   0  0  0  0  0  0  0  0  0  0  0  0
   25.3706   71.1770    2.4894 C   0  0  0  0  0  0  0  0  0  0  0  0
  1  4  1  0
  1 24  1  0
  1  2  1  6
  1  3  2  0
 25 28  1  0
 25 24  1  0
 25 26  1  1
 25 27  2  0
  6 11  1  0
  6 12  1  0
 29 36  1  0
 29 37  1  0
  9  7  1  6
  7 13  1  0
 10  8  1  1
  8 14  1  0
  4  5  1  0
 36 28  1  1
 33 30  1  1
 30 38  1  0
 34 31  1  6
 31 39  1  0
 35 32  1  1
 32 40  1  0
 41 43  1  0
 15 19  2  0
 42 43  2  0
 16 22  2  0
 12 17  1  6
 17 19  1  0
 17 20  1  0
 18 19  1  0
 18 22  1  0
 18 23  1  0
  9 10  1  0
  9 11  1  0
 10 12  1  0
 11  5  1  6
 33 34  1  0
 33 35  1  0
 34 36  1  0
 35 37  1  0
 37 43  1  1
 20 21  2  0
 21 22  1  0
M  CHG  3   2  -1  26  -1  41  -1
M  END
>  <COMPND>  (2) 
    udp_gluA.pdb 

>  <AUTHOR>  (2) 
    GENERATED BY OPEN BABEL 3.1.1

>  <MASTER>  (2) 
        0    0    0    0    0    0    0    0   56    0   56    0

>  <minimizedAffinity>  (2) 
-8.36316

>  <CNNscore>  (2) 
0.8820124865

>  <CNNaffinity>  (2) 
4.7796144485

>  <CNN_VS>  (2) 
4.2156796455

>  <CNNaffinity_variance>  (2) 
0.0320688449

$$$$
3
     RDKit          3D

 43 45  0  0  0  0  0  0  0  0999 V2000
   22.3241   72.7667   -3.2558 P   0  0  2  0  0  0  0  0  0  0  0  0
   22.6568   74.3473   -3.3557 O   0  0  0  0  0  0  0  0  0  0  0  0
   23.1480   71.8881   -4.1507 O   0  0  0  0  0  0  0  0  0  0  0  0
   20.7232   72.6918   -3.4779 O   0  0  0  0  0  0  0  0  0  0  0  0
   20.1221   71.4204   -3.6413 C   0  0  0  0  0  0  0  0  0  0  0  0
   18.1516   72.0321   -4.8745 O   0  0  0  0  0  0  0  0  0  0  0  0
   16.6021   70.5783   -2.7586 O   0  0  0  0  0  0  0  0  0  0  0  0
   16.6593   68.7730   -4.8016 O   0  0  0  0  0  0  0  0  0  0  0  0
   17.8777   70.2665   -3.3194 C   0  0  1  0  0  0  0  0  0  0  0  0
   17.7135   69.7090   -4.7174 C   0  0  2  0  0  0  0  0  0  0  0  0
   18.6079   71.5764   -3.5825 C   0  0  1  0  0  0  0  0  0  0  0  0
   17.4463   70.9653   -5.5286 C   0  0  2  0  0  0  0  0  0  0  0  0
   16.1168   69.7568   -2.5819 H   0  0  0  0  0  0  0  0  0  0  0  0
   16.8774   67.9916   -4.2688 H   0  0  0  0  0  0  0  0  0  0  0  0
   15.8771   70.0544   -7.6929 O   0  0  0  0  0  0  0  0  0  0  0  0
   19.3533   70.5827  -10.6730 O   0  0  0  0  0  0  0  0  0  0  0  0
   17.9161   70.8549   -6.8806 N   0  0  0  0  0  0  0  0  0  0  0  0
   17.6102   70.3174   -9.1749 N   0  0  0  0  0  0  0  0  0  0  0  0
   17.0470   70.3857   -7.8938 C   0  0  0  0  0  0  0  0  0  0  0  0
   19.2229   71.2105   -7.1920 C   0  0  0  0  0  0  0  0  0  0  0  0
   19.7454   71.1401   -8.4178 C   0  0  0  0  0  0  0  0  0  0  0  0
   18.9042   70.6592   -9.5334 C   0  0  0  0  0  0  0  0  0  0  0  0
   17.0250   69.9917   -9.8965 H   0  0  0  0  0  0  0  0  0  0  0  0
   22.4866   72.4608   -1.6769 O   0  0  0  0  0  0  0  0  0  0  0  0
   21.5755   72.8920   -0.4129 P   0  0  2  0  0  0  0  0  0  0  0  0
   20.6644   71.5803   -0.1491 O   0  0  0  0  0  0  0  0  0  0  0  0
   20.7934   74.1566   -0.6205 O   0  0  0  0  0  0  0  0  0  0  0  0
   22.5987   72.9346    0.8336 O   0  0  0  0  0  0  0  0  0  0  0  0
   24.9035   73.4663    0.9531 O   0  0  0  0  0  0  0  0  0  0  0  0
   24.5669   70.5314    3.8412 O   0  0  0  0  0  0  0  0  0  0  0  0
   23.1894   70.2536    1.2801 O   0  0  0  0  0  0  0  0  0  0  0  0
   24.8083   73.3223    4.6182 O   0  0  0  0  0  0  0  0  0  0  0  0
   24.1282   71.6307    3.0431 C   0  0  2  0  0  0  0  0  0  0  0  0
   24.1737   71.2407    1.5655 C   0  0  2  0  0  0  0  0  0  0  0  0
   25.0631   72.8123    3.3107 C   0  0  1  0  0  0  0  0  0  0  0  0
   23.9330   72.4574    0.6708 C   0  0  1  0  0  0  0  0  0  0  0  0
   24.8470   73.9340    2.2989 C   0  0  1  0  0  0  0  0  0  0  0  0
   23.9875   69.7686    3.6877 H   0  0  0  0  0  0  0  0  0  0  0  0
   23.3359   69.4788    1.8444 H   0  0  0  0  0  0  0  0  0  0  0  0
   24.9422   72.6182    5.2717 H   0  0  0  0  0  0  0  0  0  0  0  0
   25.9954   75.6782    1.2309 O   0  0  0  0  0  0  0  0  0  0  0  0
   26.7464   75.0450    3.2887 O   0  0  0  0  0  0  0  0  0  0  0  0
   25.9647   74.9237    2.3573 C   0  0  0  0  0  0  0  0  0  0  0  0
  1  4  1  0
  1 24  1  0
  1  2  1  1
  1  3  2  0
 25 28  1  0
 25 24  1  0
 25 26  1  1
 25 27  2  0
  6 11  1  0
  6 12  1  0
 29 36  1  0
 29 37  1  0
  9  7  1  6
  7 13  1  0
 10  8  1  1
  8 14  1  0
  4  5  1  0
 36 28  1  1
 33 30  1  1
 30 38  1  0
 34 31  1  1
 31 39  1  0
 35 32  1  1
 32 40  1  0
 41 43  1  0
 15 19  2  0
 42 43  2  0
 16 22  2  0
 12 17  1  6
 17 19  1  0
 17 20  1  0
 18 19  1  0
 18 22  1  0
 18 23  1  0
  9 10  1  0
  9 11  1  0
 10 12  1  0
 11  5  1  6
 33 34  1  0
 33 35  1  0
 34 36  1  0
 35 37  1  0
 37 43  1  6
 20 21  2  0
 21 22  1  0
M  CHG  3   2  -1  26  -1  41  -1
M  END
>  <COMPND>  (3) 
    udp_gluA.pdb 

>  <AUTHOR>  (3) 
    GENERATED BY OPEN BABEL 3.1.1

>  <MASTER>  (3) 
        0    0    0    0    0    0    0    0   56    0   56    0

>  <minimizedAffinity>  (3) 
-6.94565

>  <CNNscore>  (3) 
0.8768317103

>  <CNNaffinity>  (3) 
4.7536706924

>  <CNN_VS>  (3) 
4.1681690216

>  <CNNaffinity_variance>  (3) 
0.0690750331

$$$$
4
     RDKit          3D

 43 45  0  0  0  0  0  0  0  0999 V2000
   22.9712   71.5113   -2.2890 P   0  0  2  0  0  0  0  0  0  0  0  0
   22.6784   73.0762   -2.5790 O   0  0  0  0  0  0  0  0  0  0  0  0
   24.1945   70.9605   -2.9612 O   0  0  0  0  0  0  0  0  0  0  0  0
   21.5764   70.7799   -2.6597 O   0  0  0  0  0  0  0  0  0  0  0  0
   20.9438   71.1102   -3.8825 C   0  0  0  0  0  0  0  0  0  0  0  0
   18.8888   71.9135   -4.8360 O   0  0  0  0  0  0  0  0  0  0  0  0
   17.5163   70.6056   -2.5128 O   0  0  0  0  0  0  0  0  0  0  0  0
   17.1164   68.8122   -4.5277 O   0  0  0  0  0  0  0  0  0  0  0  0
   18.6659   70.1754   -3.2421 C   0  0  1  0  0  0  0  0  0  0  0  0
   18.2567   69.6424   -4.5988 C   0  0  2  0  0  0  0  0  0  0  0  0
   19.4744   71.4104   -3.6156 C   0  0  1  0  0  0  0  0  0  0  0  0
   18.0007   70.9222   -5.3764 C   0  0  2  0  0  0  0  0  0  0  0  0
   16.9839   69.8336   -2.2631 H   0  0  0  0  0  0  0  0  0  0  0  0
   17.3306   68.0112   -4.0234 H   0  0  0  0  0  0  0  0  0  0  0  0
   16.1325   69.9485   -7.2574 O   0  0  0  0  0  0  0  0  0  0  0  0
   19.1260   70.3930  -10.7337 O   0  0  0  0  0  0  0  0  0  0  0  0
   18.2655   70.7732   -6.7794 N   0  0  0  0  0  0  0  0  0  0  0  0
   17.6256   70.1698   -8.9868 N   0  0  0  0  0  0  0  0  0  0  0  0
   17.2581   70.2746   -7.6388 C   0  0  0  0  0  0  0  0  0  0  0  0
   19.5099   71.1205   -7.2911 C   0  0  0  0  0  0  0  0  0  0  0  0
   19.8454   71.0152   -8.5784 C   0  0  0  0  0  0  0  0  0  0  0  0
   18.8504   70.5020   -9.5427 C   0  0  0  0  0  0  0  0  0  0  0  0
   16.9414   69.8232   -9.6041 H   0  0  0  0  0  0  0  0  0  0  0  0
   23.0006   71.4407   -0.6744 O   0  0  0  0  0  0  0  0  0  0  0  0
   21.8486   71.7314    0.4220 P   0  0  2  0  0  0  0  0  0  0  0  0
   20.8580   70.4610    0.2633 O   0  0  0  0  0  0  0  0  0  0  0  0
   21.1746   73.0641    0.2684 O   0  0  0  0  0  0  0  0  0  0  0  0
   22.5729   71.5076    1.8459 O   0  0  0  0  0  0  0  0  0  0  0  0
   23.1870   73.2152    3.3678 O   0  0  0  0  0  0  0  0  0  0  0  0
   25.8730   70.2268    4.3287 O   0  0  0  0  0  0  0  0  0  0  0  0
   25.2488   70.8151    1.5361 O   0  0  0  0  0  0  0  0  0  0  0  0
   23.5964   70.7538    6.0579 O   0  0  0  0  0  0  0  0  0  0  0  0
   24.6296   70.7670    3.8814 C   0  0  2  0  0  0  0  0  0  0  0  0
   24.8626   71.6270    2.6390 C   0  0  2  0  0  0  0  0  0  0  0  0
   24.0475   71.6152    5.0143 C   0  0  1  0  0  0  0  0  0  0  0  0
   23.5992   72.4043    2.2669 C   0  0  1  0  0  0  0  0  0  0  0  0
   22.8688   72.4557    4.5319 C   0  0  1  0  0  0  0  0  0  0  0  0
   26.2618   69.6839    3.6249 H   0  0  0  0  0  0  0  0  0  0  0  0
   26.0498   70.3188    1.7653 H   0  0  0  0  0  0  0  0  0  0  0  0
   24.3371   70.2131    6.3737 H   0  0  0  0  0  0  0  0  0  0  0  0
   23.3197   73.4096    6.6268 O   0  0  0  0  0  0  0  0  0  0  0  0
   21.6443   74.3465    5.3961 O   0  0  0  0  0  0  0  0  0  0  0  0
   22.5221   73.5079    5.5344 C   0  0  0  0  0  0  0  0  0  0  0  0
  1  4  1  0
  1 24  1  0
  1  2  1  1
  1  3  2  0
 25 28  1  0
 25 24  1  0
 25 26  1  6
 25 27  2  0
  6 11  1  0
  6 12  1  0
 29 36  1  0
 29 37  1  0
  9  7  1  1
  7 13  1  0
 10  8  1  1
  8 14  1  0
  4  5  1  0
 36 28  1  1
 33 30  1  1
 30 38  1  0
 34 31  1  6
 31 39  1  0
 35 32  1  1
 32 40  1  0
 41 43  1  0
 15 19  2  0
 42 43  2  0
 16 22  2  0
 12 17  1  6
 17 19  1  0
 17 20  1  0
 18 19  1  0
 18 22  1  0
 18 23  1  0
  9 10  1  0
  9 11  1  0
 10 12  1  0
 11  5  1  6
 33 34  1  0
 33 35  1  0
 34 36  1  0
 35 37  1  0
 37 43  1  1
 20 21  2  0
 21 22  1  0
M  CHG  3   2  -1  26  -1  41  -1
M  END
>  <COMPND>  (4) 
    udp_gluA.pdb 

>  <AUTHOR>  (4) 
    GENERATED BY OPEN BABEL 3.1.1

>  <MASTER>  (4) 
        0    0    0    0    0    0    0    0   56    0   56    0

>  <minimizedAffinity>  (4) 
-8.68361

>  <CNNscore>  (4) 
0.8174514174

>  <CNNaffinity>  (4) 
4.6107201576

>  <CNN_VS>  (4) 
3.7690396309

>  <CNNaffinity_variance>  (4) 
0.0984356999

$$$$
5
     RDKit          3D

 43 45  0  0  0  0  0  0  0  0999 V2000
   23.0049   71.6337   -2.3635 P   0  0  2  0  0  0  0  0  0  0  0  0
   22.5680   73.0873   -2.9247 O   0  0  0  0  0  0  0  0  0  0  0  0
   24.1932   71.0221   -3.0458 O   0  0  0  0  0  0  0  0  0  0  0  0
   21.6390   70.7683   -2.4215 O   0  0  0  0  0  0  0  0  0  0  0  0
   20.9223   70.7170   -3.6414 C   0  0  0  0  0  0  0  0  0  0  0  0
   18.9627   71.7314   -4.5946 O   0  0  0  0  0  0  0  0  0  0  0  0
   17.4377   70.4555   -2.3501 O   0  0  0  0  0  0  0  0  0  0  0  0
   16.9263   68.7845   -4.4435 O   0  0  0  0  0  0  0  0  0  0  0  0
   18.5607   69.9572   -3.0776 C   0  0  1  0  0  0  0  0  0  0  0  0
   18.1345   69.5156   -4.4616 C   0  0  2  0  0  0  0  0  0  0  0  0
   19.4789   71.1318   -3.3866 C   0  0  1  0  0  0  0  0  0  0  0  0
   18.0042   70.8424   -5.1899 C   0  0  2  0  0  0  0  0  0  0  0  0
   16.8365   69.7230   -2.1412 H   0  0  0  0  0  0  0  0  0  0  0  0
   17.0613   67.9486   -3.9691 H   0  0  0  0  0  0  0  0  0  0  0  0
   16.1074   70.0702   -7.1347 O   0  0  0  0  0  0  0  0  0  0  0  0
   19.1861   70.4330  -10.5456 O   0  0  0  0  0  0  0  0  0  0  0  0
   18.2832   70.7269   -6.5934 N   0  0  0  0  0  0  0  0  0  0  0  0
   17.6429   70.2506   -8.8315 N   0  0  0  0  0  0  0  0  0  0  0  0
   17.2594   70.3312   -7.4863 C   0  0  0  0  0  0  0  0  0  0  0  0
   19.5575   71.0055   -7.0724 C   0  0  0  0  0  0  0  0  0  0  0  0
   19.9079   70.9244   -8.3575 C   0  0  0  0  0  0  0  0  0  0  0  0
   18.8974   70.5171   -9.3557 C   0  0  0  0  0  0  0  0  0  0  0  0
   16.9476   69.9751   -9.4719 H   0  0  0  0  0  0  0  0  0  0  0  0
   23.1999   71.8992   -0.7810 O   0  0  0  0  0  0  0  0  0  0  0  0
   23.3727   73.2745    0.0511 P   0  0  2  0  0  0  0  0  0  0  0  0
   21.8511   73.8021    0.2136 O   0  0  0  0  0  0  0  0  0  0  0  0
   24.3062   74.2647   -0.5830 O   0  0  0  0  0  0  0  0  0  0  0  0
   23.8013   72.8047    1.5337 O   0  0  0  0  0  0  0  0  0  0  0  0
   24.2815   70.7144    2.5383 O   0  0  0  0  0  0  0  0  0  0  0  0
   22.1684   72.6209    5.5331 O   0  0  0  0  0  0  0  0  0  0  0  0
   21.3004   72.8204    2.7508 O   0  0  0  0  0  0  0  0  0  0  0  0
   25.0570   72.3567    5.7264 O   0  0  0  0  0  0  0  0  0  0  0  0
   23.0463   72.5329    4.4107 C   0  0  2  0  0  0  0  0  0  0  0  0
   22.2996   71.9243    3.2235 C   0  0  2  0  0  0  0  0  0  0  0  0
   24.2307   71.6477    4.8050 C   0  0  1  0  0  0  0  0  0  0  0  0
   23.2615   71.6023    2.0790 C   0  0  1  0  0  0  0  0  0  0  0  0
   25.0708   71.2672    3.5893 C   0  0  1  0  0  0  0  0  0  0  0  0
   21.4079   73.1788    5.3059 H   0  0  0  0  0  0  0  0  0  0  0  0
   20.6867   73.0292    3.4719 H   0  0  0  0  0  0  0  0  0  0  0  0
   24.5342   72.6049    6.5048 H   0  0  0  0  0  0  0  0  0  0  0  0
   25.4983   68.9615    3.5362 O   0  0  0  0  0  0  0  0  0  0  0  0
   27.0983   70.2950    4.4642 O   0  0  0  0  0  0  0  0  0  0  0  0
   26.0122   70.1557    3.9219 C   0  0  0  0  0  0  0  0  0  0  0  0
  1  4  1  0
  1 24  1  0
  1  2  1  6
  1  3  2  0
 25 28  1  0
 25 24  1  0
 25 26  1  1
 25 27  2  0
  6 11  1  0
  6 12  1  0
 29 36  1  0
 29 37  1  0
  9  7  1  1
  7 13  1  0
 10  8  1  1
  8 14  1  0
  4  5  1  0
 36 28  1  1
 33 30  1  1
 30 38  1  0
 34 31  1  6
 31 39  1  0
 35 32  1  1
 32 40  1  0
 41 43  1  0
 15 19  2  0
 42 43  2  0
 16 22  2  0
 12 17  1  6
 17 19  1  0
 17 20  1  0
 18 19  1  0
 18 22  1  0
 18 23  1  0
  9 10  1  0
  9 11  1  0
 10 12  1  0
 11  5  1  6
 33 34  1  0
 33 35  1  0
 34 36  1  0
 35 37  1  0
 37 43  1  1
 20 21  2  0
 21 22  1  0
M  CHG  3   2  -1  26  -1  41  -1
M  END
>  <COMPND>  (5) 
    udp_gluA.pdb 

>  <AUTHOR>  (5) 
    GENERATED BY OPEN BABEL 3.1.1

>  <MASTER>  (5) 
        0    0    0    0    0    0    0    0   56    0   56    0

>  <minimizedAffinity>  (5) 
-8.45173

>  <CNNscore>  (5) 
0.7191045880

>  <CNNaffinity>  (5) 
4.5167479515

>  <CNN_VS>  (5) 
3.2480142117

>  <CNNaffinity_variance>  (5) 
0.0435395315

$$$$
6
     RDKit          3D

 43 45  0  0  0  0  0  0  0  0999 V2000
   23.6402   72.6199   -3.5768 P   0  0  2  0  0  0  0  0  0  0  0  0
   24.0399   71.1131   -3.1425 O   0  0  0  0  0  0  0  0  0  0  0  0
   24.7129   73.3748   -4.3056 O   0  0  0  0  0  0  0  0  0  0  0  0
   23.1164   73.2943   -2.2024 O   0  0  0  0  0  0  0  0  0  0  0  0
   22.1712   74.3454   -2.2824 C   0  0  0  0  0  0  0  0  0  0  0  0
   21.2376   72.7470   -0.7490 O   0  0  0  0  0  0  0  0  0  0  0  0
   19.2794   74.8902    0.0021 O   0  0  0  0  0  0  0  0  0  0  0  0
   21.0805   74.9853    2.0474 O   0  0  0  0  0  0  0  0  0  0  0  0
   20.6588   75.0085   -0.3472 C   0  0  1  0  0  0  0  0  0  0  0  0
   21.5311   74.5234    0.7912 C   0  0  2  0  0  0  0  0  0  0  0  0
   20.9572   73.9862   -1.4353 C   0  0  1  0  0  0  0  0  0  0  0  0
   21.4236   73.0146    0.6500 C   0  0  2  0  0  0  0  0  0  0  0  0
   19.0649   75.5337    0.6960 H   0  0  0  0  0  0  0  0  0  0  0  0
   21.1695   75.9509    2.0877 H   0  0  0  0  0  0  0  0  0  0  0  0
   21.5596   70.2499    1.2107 O   0  0  0  0  0  0  0  0  0  0  0  0
   26.0102   70.5198    2.3783 O   0  0  0  0  0  0  0  0  0  0  0  0
   22.6053   72.3363    1.1020 N   0  0  0  0  0  0  0  0  0  0  0  0
   23.7758   70.3871    1.7927 N   0  0  0  0  0  0  0  0  0  0  0  0
   22.5672   70.9447    1.3552 C   0  0  0  0  0  0  0  0  0  0  0  0
   23.7846   73.0472    1.2884 C   0  0  0  0  0  0  0  0  0  0  0  0
   24.9288   72.5019    1.7057 C   0  0  0  0  0  0  0  0  0  0  0  0
   24.9740   71.0532    1.9934 C   0  0  0  0  0  0  0  0  0  0  0  0
   23.7734   69.4201    1.9774 H   0  0  0  0  0  0  0  0  0  0  0  0
   22.2771   72.4054   -4.4188 O   0  0  0  0  0  0  0  0  0  0  0  0
   21.7711   73.0650   -5.8054 P   0  0  2  0  0  0  0  0  0  0  0  0
   22.8152   72.4805   -6.8956 O   0  0  0  0  0  0  0  0  0  0  0  0
   21.6802   74.5633   -5.7775 O   0  0  0  0  0  0  0  0  0  0  0  0
   20.3801   72.3158   -6.1313 O   0  0  0  0  0  0  0  0  0  0  0  0
   19.7183   70.1494   -5.4399 O   0  0  0  0  0  0  0  0  0  0  0  0
   17.6152   70.5846   -8.9691 O   0  0  0  0  0  0  0  0  0  0  0  0
   20.3924   71.4711   -8.7813 O   0  0  0  0  0  0  0  0  0  0  0  0
   16.2479   70.8326   -6.4157 O   0  0  0  0  0  0  0  0  0  0  0  0
   18.2378   71.0210   -7.7609 C   0  0  2  0  0  0  0  0  0  0  0  0
   19.7280   70.6815   -7.8016 C   0  0  2  0  0  0  0  0  0  0  0  0
   17.5598   70.3015   -6.5928 C   0  0  1  0  0  0  0  0  0  0  0  0
   20.3816   70.9232   -6.4403 C   0  0  1  0  0  0  0  0  0  0  0  0
   18.3407   70.4876   -5.2951 C   0  0  1  0  0  0  0  0  0  0  0  0
   18.0298   71.0287   -9.7255 H   0  0  0  0  0  0  0  0  0  0  0  0
   19.9827   71.3230   -9.6476 H   0  0  0  0  0  0  0  0  0  0  0  0
   15.7404   70.7206   -7.2347 H   0  0  0  0  0  0  0  0  0  0  0  0
   18.7301   69.5006   -3.2033 O   0  0  0  0  0  0  0  0  0  0  0  0
   16.8465   68.8637   -4.3193 O   0  0  0  0  0  0  0  0  0  0  0  0
   17.8683   69.5302   -4.2498 C   0  0  0  0  0  0  0  0  0  0  0  0
  1  4  1  0
  1 24  1  0
  1  2  1  1
  1  3  2  0
 25 28  1  0
 25 24  1  0
 25 26  1  6
 25 27  2  0
  6 11  1  0
  6 12  1  0
 29 36  1  0
 29 37  1  0
  9  7  1  1
  7 13  1  0
 10  8  1  1
  8 14  1  0
  4  5  1  0
 36 28  1  1
 33 30  1  6
 30 38  1  0
 34 31  1  6
 31 39  1  0
 35 32  1  1
 32 40  1  0
 41 43  1  0
 15 19  2  0
 42 43  2  0
 16 22  2  0
 12 17  1  6
 17 19  1  0
 17 20  1  0
 18 19  1  0
 18 22  1  0
 18 23  1  0
  9 10  1  0
  9 11  1  0
 10 12  1  0
 11  5  1  1
 33 34  1  0
 33 35  1  0
 34 36  1  0
 35 37  1  0
 37 43  1  1
 20 21  2  0
 21 22  1  0
M  CHG  3   2  -1  26  -1  41  -1
M  END
>  <COMPND>  (6) 
    udp_gluA.pdb 

>  <AUTHOR>  (6) 
    GENERATED BY OPEN BABEL 3.1.1

>  <MASTER>  (6) 
        0    0    0    0    0    0    0    0   56    0   56    0

>  <minimizedAffinity>  (6) 
-7.95362

>  <CNNscore>  (6) 
0.7137876153

>  <CNNaffinity>  (6) 
4.5790886879

>  <CNN_VS>  (6) 
3.2684967518

>  <CNNaffinity_variance>  (6) 
0.0394447818

$$$$
7
     RDKit          3D

 43 45  0  0  0  0  0  0  0  0999 V2000
   21.9436   72.5759   -5.8294 P   0  0  2  0  0  0  0  0  0  0  0  0
   21.2355   73.9574   -5.3722 O   0  0  0  0  0  0  0  0  0  0  0  0
   23.1002   72.7384   -6.7715 O   0  0  0  0  0  0  0  0  0  0  0  0
   20.7167   71.6716   -6.3725 O   0  0  0  0  0  0  0  0  0  0  0  0
   20.1502   71.9865   -7.6313 C   0  0  0  0  0  0  0  0  0  0  0  0
   18.9631   69.9651   -7.0998 O   0  0  0  0  0  0  0  0  0  0  0  0
   18.0950   69.9407   -9.9699 O   0  0  0  0  0  0  0  0  0  0  0  0
   15.8965   70.9238   -8.6908 O   0  0  0  0  0  0  0  0  0  0  0  0
   18.2908   71.0515   -9.0945 C   0  0  1  0  0  0  0  0  0  0  0  0
   17.1584   71.1356   -8.0931 C   0  0  2  0  0  0  0  0  0  0  0  0
   19.4839   70.7408   -8.2010 C   0  0  1  0  0  0  0  0  0  0  0  0
   17.5287   70.0422   -7.1056 C   0  0  2  0  0  0  0  0  0  0  0  0
   17.3377   70.1160  -10.5508 H   0  0  0  0  0  0  0  0  0  0  0  0
   15.7069   71.6463   -9.3104 H   0  0  0  0  0  0  0  0  0  0  0  0
   16.3059   68.1519   -5.4003 O   0  0  0  0  0  0  0  0  0  0  0  0
   15.8125   71.2478   -2.0215 O   0  0  0  0  0  0  0  0  0  0  0  0
   17.0711   70.3274   -5.7752 N   0  0  0  0  0  0  0  0  0  0  0  0
   16.0604   69.6959   -3.7195 N   0  0  0  0  0  0  0  0  0  0  0  0
   16.4700   69.3065   -5.0015 C   0  0  0  0  0  0  0  0  0  0  0  0
   17.2208   71.6048   -5.2491 C   0  0  0  0  0  0  0  0  0  0  0  0
   16.8254   71.9609   -4.0253 C   0  0  0  0  0  0  0  0  0  0  0  0
   16.1872   70.9537   -3.1526 C   0  0  0  0  0  0  0  0  0  0  0  0
   15.6373   69.0028   -3.1628 H   0  0  0  0  0  0  0  0  0  0  0  0
   22.3156   71.8754   -4.4210 O   0  0  0  0  0  0  0  0  0  0  0  0
   23.5426   72.1310   -3.3998 P   0  0  2  0  0  0  0  0  0  0  0  0
   24.4635   73.2030   -4.1891 O   0  0  0  0  0  0  0  0  0  0  0  0
   24.2660   70.8836   -2.9818 O   0  0  0  0  0  0  0  0  0  0  0  0
   22.8946   72.9687   -2.1829 O   0  0  0  0  0  0  0  0  0  0  0  0
   21.6308   71.7975   -0.5581 O   0  0  0  0  0  0  0  0  0  0  0  0
   20.5405   75.7116    0.1898 O   0  0  0  0  0  0  0  0  0  0  0  0
   20.7832   74.7406   -2.5548 O   0  0  0  0  0  0  0  0  0  0  0  0
   22.3966   74.3493    1.9646 O   0  0  0  0  0  0  0  0  0  0  0  0
   21.4132   74.6562   -0.2134 C   0  0  2  0  0  0  0  0  0  0  0  0
   20.8007   73.9105   -1.3992 C   0  0  2  0  0  0  0  0  0  0  0  0
   21.5917   73.7098    0.9758 C   0  0  1  0  0  0  0  0  0  0  0  0
   21.5894   72.6381   -1.7119 C   0  0  1  0  0  0  0  0  0  0  0  0
   22.2743   72.4110    0.5566 C   0  0  1  0  0  0  0  0  0  0  0  0
   20.4122   76.3258   -0.5502 H   0  0  0  0  0  0  0  0  0  0  0  0
   20.2845   75.5499   -2.3634 H   0  0  0  0  0  0  0  0  0  0  0  0
   21.9734   75.1775    2.2399 H   0  0  0  0  0  0  0  0  0  0  0  0
   21.5030   70.2796    1.1599 O   0  0  0  0  0  0  0  0  0  0  0  0
   22.5703   71.4933    2.7683 O   0  0  0  0  0  0  0  0  0  0  0  0
   22.1492   71.3764    1.6273 C   0  0  0  0  0  0  0  0  0  0  0  0
  1  4  1  0
  1 24  1  0
  1  2  1  1
  1  3  2  0
 25 28  1  0
 25 24  1  0
 25 26  1  6
 25 27  2  0
  6 11  1  0
  6 12  1  0
 29 36  1  0
 29 37  1  0
  9  7  1  6
  7 13  1  0
 10  8  1  6
  8 14  1  0
  4  5  1  0
 36 28  1  1
 33 30  1  1
 30 38  1  0
 34 31  1  6
 31 39  1  0
 35 32  1  1
 32 40  1  0
 41 43  1  0
 15 19  2  0
 42 43  2  0
 16 22  2  0
 12 17  1  1
 17 19  1  0
 17 20  1  0
 18 19  1  0
 18 22  1  0
 18 23  1  0
  9 10  1  0
  9 11  1  0
 10 12  1  0
 11  5  1  1
 33 34  1  0
 33 35  1  0
 34 36  1  0
 35 37  1  0
 37 43  1  1
 20 21  2  0
 21 22  1  0
M  CHG  3   2  -1  26  -1  41  -1
M  END
>  <COMPND>  (7) 
    udp_gluA.pdb 

>  <AUTHOR>  (7) 
    GENERATED BY OPEN BABEL 3.1.1

>  <MASTER>  (7) 
        0    0    0    0    0    0    0    0   56    0   56    0

>  <minimizedAffinity>  (7) 
-8.10176

>  <CNNscore>  (7) 
0.6978183389

>  <CNNaffinity>  (7) 
4.4986429214

>  <CNN_VS>  (7) 
3.1392354965

>  <CNNaffinity_variance>  (7) 
0.4223312736

$$$$
8
     RDKit          3D

 43 45  0  0  0  0  0  0  0  0999 V2000
   20.9719   72.7309   -4.2316 P   0  0  2  0  0  0  0  0  0  0  0  0
   21.4009   71.4241   -3.3790 O   0  0  0  0  0  0  0  0  0  0  0  0
   19.5497   73.1712   -4.0437 O   0  0  0  0  0  0  0  0  0  0  0  0
   21.3988   72.3627   -5.7482 O   0  0  0  0  0  0  0  0  0  0  0  0
   20.4117   72.4209   -6.7615 C   0  0  0  0  0  0  0  0  0  0  0  0
   19.2770   70.3909   -6.1540 O   0  0  0  0  0  0  0  0  0  0  0  0
   19.3903   69.6761   -9.0640 O   0  0  0  0  0  0  0  0  0  0  0  0
   16.8267   70.5565   -8.7661 O   0  0  0  0  0  0  0  0  0  0  0  0
   19.2052   70.9536   -8.4538 C   0  0  1  0  0  0  0  0  0  0  0  0
   17.8064   71.0650   -7.8851 C   0  0  2  0  0  0  0  0  0  0  0  0
   20.0646   71.0033   -7.1980 C   0  0  1  0  0  0  0  0  0  0  0  0
   17.9205   70.2533   -6.6060 C   0  0  2  0  0  0  0  0  0  0  0  0
   18.8510   69.6206   -9.8688 H   0  0  0  0  0  0  0  0  0  0  0  0
   16.7926   71.1075   -9.5644 H   0  0  0  0  0  0  0  0  0  0  0  0
   17.0137   68.6824   -4.4411 O   0  0  0  0  0  0  0  0  0  0  0  0
   14.5279   72.1617   -2.7207 O   0  0  0  0  0  0  0  0  0  0  0  0
   17.0358   70.7235   -5.5779 N   0  0  0  0  0  0  0  0  0  0  0  0
   15.7757   70.4165   -3.5869 N   0  0  0  0  0  0  0  0  0  0  0  0
   16.6406   69.8534   -4.5344 C   0  0  0  0  0  0  0  0  0  0  0  0
   16.5705   72.0325   -5.6085 C   0  0  0  0  0  0  0  0  0  0  0  0
   15.7466   72.5550   -4.6981 C   0  0  0  0  0  0  0  0  0  0  0  0
   15.2854   71.7123   -3.5753 C   0  0  0  0  0  0  0  0  0  0  0  0
   15.4851   69.8293   -2.8519 H   0  0  0  0  0  0  0  0  0  0  0  0
   22.0787   73.8264   -3.7983 O   0  0  0  0  0  0  0  0  0  0  0  0
   23.6650   73.6806   -3.5223 P   0  0  2  0  0  0  0  0  0  0  0  0
   24.1891   75.2117   -3.5592 O   0  0  0  0  0  0  0  0  0  0  0  0
   24.3738   72.7612   -4.4743 O   0  0  0  0  0  0  0  0  0  0  0  0
   23.7727   73.2507   -1.9712 O   0  0  0  0  0  0  0  0  0  0  0  0
   21.9828   73.0718   -0.4306 O   0  0  0  0  0  0  0  0  0  0  0  0
   25.1658   73.8958    2.0709 O   0  0  0  0  0  0  0  0  0  0  0  0
   24.8688   75.3159   -0.4648 O   0  0  0  0  0  0  0  0  0  0  0  0
   24.1011   71.1959    1.9052 O   0  0  0  0  0  0  0  0  0  0  0  0
   24.5201   73.3538    0.9188 C   0  0  2  0  0  0  0  0  0  0  0  0
   23.8726   74.4827    0.1164 C   0  0  2  0  0  0  0  0  0  0  0  0
   23.4567   72.3619    1.3956 C   0  0  1  0  0  0  0  0  0  0  0  0
   22.9814   73.9235   -0.9935 C   0  0  1  0  0  0  0  0  0  0  0  0
   22.5299   71.9483    0.2560 C   0  0  1  0  0  0  0  0  0  0  0  0
   25.8459   74.5293    1.7925 H   0  0  0  0  0  0  0  0  0  0  0  0
   25.4381   75.6740    0.2339 H   0  0  0  0  0  0  0  0  0  0  0  0
   24.6941   71.4453    2.6311 H   0  0  0  0  0  0  0  0  0  0  0  0
   21.1439   71.5284    2.1010 O   0  0  0  0  0  0  0  0  0  0  0  0
   20.5756   70.5393    0.1268 O   0  0  0  0  0  0  0  0  0  0  0  0
   21.3167   71.2545    0.7842 C   0  0  0  0  0  0  0  0  0  0  0  0
  1  4  1  0
  1 24  1  0
  1  2  1  1
  1  3  2  0
 25 28  1  0
 25 24  1  0
 25 26  1  1
 25 27  2  0
  6 11  1  0
  6 12  1  0
 29 36  1  0
 29 37  1  0
  9  7  1  1
  7 13  1  0
 10  8  1  6
  8 14  1  0
  4  5  1  0
 36 28  1  6
 33 30  1  1
 30 38  1  0
 34 31  1  6
 31 39  1  0
 35 32  1  6
 32 40  1  0
 41 43  1  0
 15 19  2  0
 42 43  2  0
 16 22  2  0
 12 17  1  1
 17 19  1  0
 17 20  1  0
 18 19  1  0
 18 22  1  0
 18 23  1  0
  9 10  1  0
  9 11  1  0
 10 12  1  0
 11  5  1  1
 33 34  1  0
 33 35  1  0
 34 36  1  0
 35 37  1  0
 37 43  1  1
 20 21  2  0
 21 22  1  0
M  CHG  3   2  -1  26  -1  41  -1
M  END
>  <COMPND>  (8) 
    udp_gluA.pdb 

>  <AUTHOR>  (8) 
    GENERATED BY OPEN BABEL 3.1.1

>  <MASTER>  (8) 
        0    0    0    0    0    0    0    0   56    0   56    0

>  <minimizedAffinity>  (8) 
-6.95731

>  <CNNscore>  (8) 
0.6782928705

>  <CNNaffinity>  (8) 
4.4397430420

>  <CNN_VS>  (8) 
3.0114459991

>  <CNNaffinity_variance>  (8) 
0.2453359663

$$$$
9
     RDKit          3D

 43 45  0  0  0  0  0  0  0  0999 V2000
   23.5311   73.6820   -4.1443 P   0  0  2  0  0  0  0  0  0  0  0  0
   22.6788   75.0204   -4.4621 O   0  0  0  0  0  0  0  0  0  0  0  0
   25.0140   73.8858   -4.0371 O   0  0  0  0  0  0  0  0  0  0  0  0
   23.0460   72.6341   -5.2776 O   0  0  0  0  0  0  0  0  0  0  0  0
   21.6657   72.3347   -5.3752 C   0  0  0  0  0  0  0  0  0  0  0  0
   20.6410   70.3533   -6.2705 O   0  0  0  0  0  0  0  0  0  0  0  0
   20.9015   71.6577   -8.9579 O   0  0  0  0  0  0  0  0  0  0  0  0
   18.2785   72.0789   -8.3429 O   0  0  0  0  0  0  0  0  0  0  0  0
   20.6146   72.2490   -7.6904 C   0  0  1  0  0  0  0  0  0  0  0  0
   19.1925   71.9359   -7.2759 C   0  0  2  0  0  0  0  0  0  0  0  0
   21.4245   71.5107   -6.6334 C   0  0  1  0  0  0  0  0  0  0  0  0
   19.3126   70.4991   -6.7973 C   0  0  2  0  0  0  0  0  0  0  0  0
   20.3953   72.1129   -9.6495 H   0  0  0  0  0  0  0  0  0  0  0  0
   18.2377   73.0108   -8.6110 H   0  0  0  0  0  0  0  0  0  0  0  0
   16.6190   69.7937   -7.2701 O   0  0  0  0  0  0  0  0  0  0  0  0
   15.7647   69.3094   -2.7668 O   0  0  0  0  0  0  0  0  0  0  0  0
   18.3643   70.1837   -5.7667 N   0  0  0  0  0  0  0  0  0  0  0  0
   16.1958   69.5541   -5.0267 N   0  0  0  0  0  0  0  0  0  0  0  0
   17.0351   69.8420   -6.1111 C   0  0  0  0  0  0  0  0  0  0  0  0
   18.7539   70.2129   -4.4332 C   0  0  0  0  0  0  0  0  0  0  0  0
   17.9426   69.9359   -3.4106 C   0  0  0  0  0  0  0  0  0  0  0  0
   16.5372   69.5705   -3.6841 C   0  0  0  0  0  0  0  0  0  0  0  0
   15.2651   69.3155   -5.2414 H   0  0  0  0  0  0  0  0  0  0  0  0
   22.8305   73.1158   -2.8021 O   0  0  0  0  0  0  0  0  0  0  0  0
   22.9043   71.6621   -2.0985 P   0  0  2  0  0  0  0  0  0  0  0  0
   24.2564   71.0207   -2.7157 O   0  0  0  0  0  0  0  0  0  0  0  0
   21.6761   70.8208   -2.2929 O   0  0  0  0  0  0  0  0  0  0  0  0
   23.2670   71.9713   -0.5573 O   0  0  0  0  0  0  0  0  0  0  0  0
   24.6263   70.9734    1.1057 O   0  0  0  0  0  0  0  0  0  0  0  0
   21.2328   71.9326    3.2579 O   0  0  0  0  0  0  0  0  0  0  0  0
   21.0133   70.7984    0.5747 O   0  0  0  0  0  0  0  0  0  0  0  0
   23.6400   73.5385    3.5367 O   0  0  0  0  0  0  0  0  0  0  0  0
   22.2168   72.0934    2.2362 C   0  0  2  0  0  0  0  0  0  0  0  0
   22.2182   70.8629    1.3288 C   0  0  2  0  0  0  0  0  0  0  0  0
   23.5794   72.2570    2.9134 C   0  0  1  0  0  0  0  0  0  0  0  0
   23.4067   70.8938    0.3669 C   0  0  1  0  0  0  0  0  0  0  0  0
   24.7192   72.1509    1.9044 C   0  0  1  0  0  0  0  0  0  0  0  0
   20.3584   71.8268    2.8512 H   0  0  0  0  0  0  0  0  0  0  0  0
   20.2549   70.7788    1.1787 H   0  0  0  0  0  0  0  0  0  0  0  0
   22.9196   73.6189    4.1812 H   0  0  0  0  0  0  0  0  0  0  0  0
   26.4652   70.7012    2.4970 O   0  0  0  0  0  0  0  0  0  0  0  0
   26.6347   72.8688    3.1838 O   0  0  0  0  0  0  0  0  0  0  0  0
   26.0301   71.9814    2.6008 C   0  0  0  0  0  0  0  0  0  0  0  0
  1  4  1  0
  1 24  1  0
  1  2  1  6
  1  3  2  0
 25 28  1  0
 25 24  1  0
 25 26  1  6
 25 27  2  0
  6 11  1  0
  6 12  1  0
 29 36  1  0
 29 37  1  0
  9  7  1  6
  7 13  1  0
 10  8  1  6
  8 14  1  0
  4  5  1  0
 36 28  1  6
 33 30  1  1
 30 38  1  0
 34 31  1  6
 31 39  1  0
 35 32  1  6
 32 40  1  0
 41 43  1  0
 15 19  2  0
 42 43  2  0
 16 22  2  0
 12 17  1  1
 17 19  1  0
 17 20  1  0
 18 19  1  0
 18 22  1  0
 18 23  1  0
  9 10  1  0
  9 11  1  0
 10 12  1  0
 11  5  1  1
 33 34  1  0
 33 35  1  0
 34 36  1  0
 35 37  1  0
 37 43  1  1
 20 21  2  0
 21 22  1  0
M  CHG  3   2  -1  26  -1  41  -1
M  END
>  <COMPND>  (9) 
    udp_gluA.pdb 

>  <AUTHOR>  (9) 
    GENERATED BY OPEN BABEL 3.1.1

>  <MASTER>  (9) 
        0    0    0    0    0    0    0    0   56    0   56    0

>  <minimizedAffinity>  (9) 
-8.09201

>  <CNNscore>  (9) 
0.6050467491

>  <CNNaffinity>  (9) 
4.3413052559

>  <CNN_VS>  (9) 
2.6266925335

>  <CNNaffinity_variance>  (9) 
0.1302184016

$$$$
10
     RDKit          3D

 43 45  0  0  0  0  0  0  0  0999 V2000
   22.2138   73.2118   -7.0211 P   0  0  2  0  0  0  0  0  0  0  0  0
   21.1612   74.1769   -6.2598 O   0  0  0  0  0  0  0  0  0  0  0  0
   23.1922   73.9194   -7.9122 O   0  0  0  0  0  0  0  0  0  0  0  0
   21.2768   72.1079   -7.7431 O   0  0  0  0  0  0  0  0  0  0  0  0
   19.8906   72.1053   -7.4553 C   0  0  0  0  0  0  0  0  0  0  0  0
   18.7081   70.1269   -6.7732 O   0  0  0  0  0  0  0  0  0  0  0  0
   18.0446   69.7489   -9.6729 O   0  0  0  0  0  0  0  0  0  0  0  0
   15.7431   70.8123   -8.6688 O   0  0  0  0  0  0  0  0  0  0  0  0
   18.1570   70.9579   -8.9218 C   0  0  1  0  0  0  0  0  0  0  0  0
   16.9555   71.1258   -8.0159 C   0  0  2  0  0  0  0  0  0  0  0  0
   19.2900   70.7847   -7.9196 C   0  0  1  0  0  0  0  0  0  0  0  0
   17.2765   70.1637   -6.8849 C   0  0  2  0  0  0  0  0  0  0  0  0
   17.3268   69.8355  -10.3202 H   0  0  0  0  0  0  0  0  0  0  0  0
   15.5836   71.4533   -9.3798 H   0  0  0  0  0  0  0  0  0  0  0  0
   17.0470   68.5144   -4.6037 O   0  0  0  0  0  0  0  0  0  0  0  0
   15.1290   71.8955   -2.1271 O   0  0  0  0  0  0  0  0  0  0  0  0
   16.7210   70.5874   -5.6308 N   0  0  0  0  0  0  0  0  0  0  0  0
   16.0910   70.1996   -3.3727 N   0  0  0  0  0  0  0  0  0  0  0  0
   16.6516   69.6803   -4.5471 C   0  0  0  0  0  0  0  0  0  0  0  0
   16.2542   71.8879   -5.4830 C   0  0  0  0  0  0  0  0  0  0  0  0
   15.7225   72.3684   -4.3574 C   0  0  0  0  0  0  0  0  0  0  0  0
   15.6125   71.4852   -3.1779 C   0  0  0  0  0  0  0  0  0  0  0  0
   16.0302   69.5862   -2.6051 H   0  0  0  0  0  0  0  0  0  0  0  0
   22.8864   72.3806   -5.8088 O   0  0  0  0  0  0  0  0  0  0  0  0
   23.3182   72.8379   -4.3195 P   0  0  2  0  0  0  0  0  0  0  0  0
   23.8066   74.3669   -4.5291 O   0  0  0  0  0  0  0  0  0  0  0  0
   24.3382   71.9460   -3.6729 O   0  0  0  0  0  0  0  0  0  0  0  0
   21.9282   72.9617   -3.5102 O   0  0  0  0  0  0  0  0  0  0  0  0
   21.6715   71.1434   -2.0146 O   0  0  0  0  0  0  0  0  0  0  0  0
   18.0774   73.1271   -1.5509 O   0  0  0  0  0  0  0  0  0  0  0  0
   19.2419   72.7739   -4.2067 O   0  0  0  0  0  0  0  0  0  0  0  0
   20.1365   73.3419    0.4899 O   0  0  0  0  0  0  0  0  0  0  0  0
   19.4774   73.0089   -1.8035 C   0  0  2  0  0  0  0  0  0  0  0  0
   19.7033   72.1227   -3.0287 C   0  0  2  0  0  0  0  0  0  0  0  0
   20.1299   72.3850   -0.5677 C   0  0  1  0  0  0  0  0  0  0  0  0
   21.1858   71.7854   -3.1941 C   0  0  1  0  0  0  0  0  0  0  0  0
   21.5682   71.9613   -0.8512 C   0  0  1  0  0  0  0  0  0  0  0  0
   17.6415   73.5213   -2.3228 H   0  0  0  0  0  0  0  0  0  0  0  0
   18.3020   72.9910   -4.1085 H   0  0  0  0  0  0  0  0  0  0  0  0
   19.2269   73.6200    0.6801 H   0  0  0  0  0  0  0  0  0  0  0  0
   21.0559   70.4706    0.8858 O   0  0  0  0  0  0  0  0  0  0  0  0
   23.2619   70.8971    0.4979 O   0  0  0  0  0  0  0  0  0  0  0  0
   22.0819   71.0699    0.2323 C   0  0  0  0  0  0  0  0  0  0  0  0
  1  4  1  0
  1 24  1  0
  1  2  1  1
  1  3  2  0
 25 28  1  0
 25 24  1  0
 25 26  1  6
 25 27  2  0
  6 11  1  0
  6 12  1  0
 29 36  1  0
 29 37  1  0
  9  7  1  6
  7 13  1  0
 10  8  1  6
  8 14  1  0
  4  5  1  0
 36 28  1  1
 33 30  1  1
 30 38  1  0
 34 31  1  6
 31 39  1  0
 35 32  1  1
 32 40  1  0
 41 43  1  0
 15 19  2  0
 42 43  2  0
 16 22  2  0
 12 17  1  1
 17 19  1  0
 17 20  1  0
 18 19  1  0
 18 22  1  0
 18 23  1  0
  9 10  1  0
  9 11  1  0
 10 12  1  0
 11  5  1  1
 33 34  1  0
 33 35  1  0
 34 36  1  0
 35 37  1  0
 37 43  1  1
 20 21  2  0
 21 22  1  0
M  CHG  3   2  -1  26  -1  41  -1
M  END
>  <COMPND>  (10) 
    udp_gluA.pdb 

>  <AUTHOR>  (10) 
    GENERATED BY OPEN BABEL 3.1.1

>  <MASTER>  (10) 
        0    0    0    0    0    0    0    0   56    0   56    0

>  <minimizedAffinity>  (10) 
-7.83524

>  <CNNscore>  (10) 
0.6032845974

>  <CNNaffinity>  (10) 
4.4577651024

>  <CNN_VS>  (10) 
2.6893010139

>  <CNNaffinity_variance>  (10) 
0.5101751089

$$$$
11
     RDKit          3D

 43 45  0  0  0  0  0  0  0  0999 V2000
   20.0684   73.8675   -1.1277 P   0  0  2  0  0  0  0  0  0  0  0  0
   18.8462   72.8113   -1.0300 O   0  0  0  0  0  0  0  0  0  0  0  0
   19.6700   75.3098   -1.0139 O   0  0  0  0  0  0  0  0  0  0  0  0
   20.8303   73.4548   -2.4941 O   0  0  0  0  0  0  0  0  0  0  0  0
   20.2584   72.4486   -3.3096 C   0  0  0  0  0  0  0  0  0  0  0  0
   20.7225   70.8903   -5.0799 O   0  0  0  0  0  0  0  0  0  0  0  0
   23.2014   72.4975   -5.5933 O   0  0  0  0  0  0  0  0  0  0  0  0
   21.5088   73.3732   -7.5438 O   0  0  0  0  0  0  0  0  0  0  0  0
   21.9065   72.9391   -5.1846 C   0  0  1  0  0  0  0  0  0  0  0  0
   20.9406   72.8791   -6.3489 C   0  0  2  0  0  0  0  0  0  0  0  0
   21.3307   71.8942   -4.2387 C   0  0  1  0  0  0  0  0  0  0  0  0
   20.6259   71.3946   -6.4214 C   0  0  2  0  0  0  0  0  0  0  0  0
   23.5895   73.1492   -6.1985 H   0  0  0  0  0  0  0  0  0  0  0  0
   21.6905   74.3217   -7.4472 H   0  0  0  0  0  0  0  0  0  0  0  0
   19.9813   71.1371   -9.1590 O   0  0  0  0  0  0  0  0  0  0  0  0
   15.5256   70.4115   -8.2292 O   0  0  0  0  0  0  0  0  0  0  0  0
   19.3053   71.1383   -6.9226 N   0  0  0  0  0  0  0  0  0  0  0  0
   17.7626   70.7770   -8.6934 N   0  0  0  0  0  0  0  0  0  0  0  0
   19.0887   71.0268   -8.3164 C   0  0  0  0  0  0  0  0  0  0  0  0
   18.2428   70.9985   -6.0381 C   0  0  0  0  0  0  0  0  0  0  0  0
   16.9842   70.7604   -6.4124 C   0  0  0  0  0  0  0  0  0  0  0  0
   16.6724   70.6309   -7.8509 C   0  0  0  0  0  0  0  0  0  0  0  0
   17.5867   70.6974   -9.6588 H   0  0  0  0  0  0  0  0  0  0  0  0
   21.0825   73.3564    0.0226 O   0  0  0  0  0  0  0  0  0  0  0  0
   21.3790   73.9264    1.5061 P   0  0  2  0  0  0  0  0  0  0  0  0
   20.0705   73.4735    2.3446 O   0  0  0  0  0  0  0  0  0  0  0  0
   21.6649   75.3994    1.5541 O   0  0  0  0  0  0  0  0  0  0  0  0
   22.5680   72.9948    2.0725 O   0  0  0  0  0  0  0  0  0  0  0  0
   24.7936   73.5134    1.4504 O   0  0  0  0  0  0  0  0  0  0  0  0
   25.2071   69.6801    2.9345 O   0  0  0  0  0  0  0  0  0  0  0  0
   22.9387   70.3707    1.2281 O   0  0  0  0  0  0  0  0  0  0  0  0
   26.0767   71.9589    4.5162 O   0  0  0  0  0  0  0  0  0  0  0  0
   24.6419   70.9877    2.8419 C   0  0  2  0  0  0  0  0  0  0  0  0
   24.0744   71.2018    1.4385 C   0  0  2  0  0  0  0  0  0  0  0  0
   25.7502   72.0033    3.1284 C   0  0  1  0  0  0  0  0  0  0  0  0
   23.6690   72.6615    1.2290 C   0  0  1  0  0  0  0  0  0  0  0  0
   25.3110   73.4216    2.7759 C   0  0  1  0  0  0  0  0  0  0  0  0
   24.5210   69.0177    2.7561 H   0  0  0  0  0  0  0  0  0  0  0  0
   23.1886   69.4430    1.3597 H   0  0  0  0  0  0  0  0  0  0  0  0
   26.3578   71.0614    4.7537 H   0  0  0  0  0  0  0  0  0  0  0  0
   26.2354   75.4052    1.9320 O   0  0  0  0  0  0  0  0  0  0  0  0
   27.5245   74.1826    3.3611 O   0  0  0  0  0  0  0  0  0  0  0  0
   26.4833   74.3473    2.7433 C   0  0  0  0  0  0  0  0  0  0  0  0
  1  4  1  0
  1 24  1  0
  1  2  1  1
  1  3  2  0
 25 28  1  0
 25 24  1  0
 25 26  1  1
 25 27  2  0
  6 11  1  0
  6 12  1  0
 29 36  1  0
 29 37  1  0
  9  7  1  6
  7 13  1  0
 10  8  1  6
  8 14  1  0
  4  5  1  0
 36 28  1  1
 33 30  1  6
 30 38  1  0
 34 31  1  1
 31 39  1  0
 35 32  1  1
 32 40  1  0
 41 43  1  0
 15 19  2  0
 42 43  2  0
 16 22  2  0
 12 17  1  1
 17 19  1  0
 17 20  1  0
 18 19  1  0
 18 22  1  0
 18 23  1  0
  9 10  1  0
  9 11  1  0
 10 12  1  0
 11  5  1  1
 33 34  1  0
 33 35  1  0
 34 36  1  0
 35 37  1  0
 37 43  1  6
 20 21  2  0
 21 22  1  0
M  CHG  3   2  -1  26  -1  41  -1
M  END
>  <COMPND>  (11) 
    udp_gluA.pdb 

>  <AUTHOR>  (11) 
    GENERATED BY OPEN BABEL 3.1.1

>  <MASTER>  (11) 
        0    0    0    0    0    0    0    0   56    0   56    0

>  <minimizedAffinity>  (11) 
-6.55169

>  <CNNscore>  (11) 
0.5584776402

>  <CNNaffinity>  (11) 
4.2881712914

>  <CNN_VS>  (11) 
2.3948478699

>  <CNNaffinity_variance>  (11) 
0.1396904886

$$$$
12
     RDKit          3D

 43 45  0  0  0  0  0  0  0  0999 V2000
   23.2088   71.8377   -2.3565 P   0  0  2  0  0  0  0  0  0  0  0  0
   23.6386   73.3762   -2.0971 O   0  0  0  0  0  0  0  0  0  0  0  0
   24.1975   71.0276   -3.1426 O   0  0  0  0  0  0  0  0  0  0  0  0
   21.7268   71.9509   -2.9961 O   0  0  0  0  0  0  0  0  0  0  0  0
   21.4913   72.9346   -3.9868 C   0  0  0  0  0  0  0  0  0  0  0  0
   20.7687   71.0229   -5.2521 O   0  0  0  0  0  0  0  0  0  0  0  0
   21.2719   72.6840   -7.6972 O   0  0  0  0  0  0  0  0  0  0  0  0
   18.5639   72.8410   -7.4172 O   0  0  0  0  0  0  0  0  0  0  0  0
   20.7691   73.0826   -6.4217 C   0  0  1  0  0  0  0  0  0  0  0  0
   19.3366   72.6215   -6.2556 C   0  0  2  0  0  0  0  0  0  0  0  0
   21.4914   72.2687   -5.3568 C   0  0  1  0  0  0  0  0  0  0  0  0
   19.5147   71.1458   -5.9418 C   0  0  2  0  0  0  0  0  0  0  0  0
   20.8251   73.1907   -8.3940 H   0  0  0  0  0  0  0  0  0  0  0  0
   18.4794   73.7951   -7.5738 H   0  0  0  0  0  0  0  0  0  0  0  0
   17.0685   70.1076   -6.8982 O   0  0  0  0  0  0  0  0  0  0  0  0
   15.5724   69.2086   -2.6323 O   0  0  0  0  0  0  0  0  0  0  0  0
   18.4682   70.6337   -5.1031 N   0  0  0  0  0  0  0  0  0  0  0  0
   16.3253   69.6618   -4.7725 N   0  0  0  0  0  0  0  0  0  0  0  0
   17.2783   70.1352   -5.6840 C   0  0  0  0  0  0  0  0  0  0  0  0
   18.6266   70.6271   -3.7226 C   0  0  0  0  0  0  0  0  0  0  0  0
   17.7093   70.1724   -2.8666 C   0  0  0  0  0  0  0  0  0  0  0  0
   16.4370   69.6351   -3.3918 C   0  0  0  0  0  0  0  0  0  0  0  0
   15.4876   69.3115   -5.1533 H   0  0  0  0  0  0  0  0  0  0  0  0
   22.9197   71.2852   -0.8652 O   0  0  0  0  0  0  0  0  0  0  0  0
   21.8196   71.7247    0.2348 P   0  0  2  0  0  0  0  0  0  0  0  0
   20.7216   70.5380    0.1545 O   0  0  0  0  0  0  0  0  0  0  0  0
   21.2582   73.1017    0.0282 O   0  0  0  0  0  0  0  0  0  0  0  0
   22.5517   71.5065    1.6557 O   0  0  0  0  0  0  0  0  0  0  0  0
   23.2156   73.2356    3.1317 O   0  0  0  0  0  0  0  0  0  0  0  0
   25.8170   70.1988    4.1702 O   0  0  0  0  0  0  0  0  0  0  0  0
   25.2066   70.7306    1.3632 O   0  0  0  0  0  0  0  0  0  0  0  0
   23.5582   70.8355    5.8857 O   0  0  0  0  0  0  0  0  0  0  0  0
   24.5889   70.7619    3.7092 C   0  0  2  0  0  0  0  0  0  0  0  0
   24.8448   71.5819    2.4444 C   0  0  2  0  0  0  0  0  0  0  0  0
   24.0323   71.6559    4.8196 C   0  0  1  0  0  0  0  0  0  0  0  0
   23.6035   72.3846    2.0524 C   0  0  1  0  0  0  0  0  0  0  0  0
   22.8774   72.5165    4.3156 C   0  0  1  0  0  0  0  0  0  0  0  0
   26.1895   69.6266    3.4808 H   0  0  0  0  0  0  0  0  0  0  0  0
   25.9934   70.2180    1.6052 H   0  0  0  0  0  0  0  0  0  0  0  0
   24.2836   70.2825    6.2154 H   0  0  0  0  0  0  0  0  0  0  0  0
   22.1936   74.7364    4.6410 O   0  0  0  0  0  0  0  0  0  0  0  0
   22.6219   73.4961    6.5057 O   0  0  0  0  0  0  0  0  0  0  0  0
   22.5617   73.6041    5.2901 C   0  0  0  0  0  0  0  0  0  0  0  0
  1  4  1  0
  1 24  1  0
  1  2  1  1
  1  3  2  0
 25 28  1  0
 25 24  1  0
 25 26  1  1
 25 27  2  0
  6 11  1  0
  6 12  1  0
 29 36  1  0
 29 37  1  0
  9  7  1  6
  7 13  1  0
 10  8  1  6
  8 14  1  0
  4  5  1  0
 36 28  1  1
 33 30  1  1
 30 38  1  0
 34 31  1  6
 31 39  1  0
 35 32  1  1
 32 40  1  0
 41 43  1  0
 15 19  2  0
 42 43  2  0
 16 22  2  0
 12 17  1  1
 17 19  1  0
 17 20  1  0
 18 19  1  0
 18 22  1  0
 18 23  1  0
  9 10  1  0
  9 11  1  0
 10 12  1  0
 11  5  1  1
 33 34  1  0
 33 35  1  0
 34 36  1  0
 35 37  1  0
 37 43  1  1
 20 21  2  0
 21 22  1  0
M  CHG  3   2  -1  26  -1  41  -1
M  END
>  <COMPND>  (12) 
    udp_gluA.pdb 

>  <AUTHOR>  (12) 
    GENERATED BY OPEN BABEL 3.1.1

>  <MASTER>  (12) 
        0    0    0    0    0    0    0    0   56    0   56    0

>  <minimizedAffinity>  (12) 
-7.96472

>  <CNNscore>  (12) 
0.5515393615

>  <CNNaffinity>  (12) 
4.1773476601

>  <CNN_VS>  (12) 
2.3039717674

>  <CNNaffinity_variance>  (12) 
0.2191543579

$$$$
13
     RDKit          3D

 43 45  0  0  0  0  0  0  0  0999 V2000
   19.2934   71.7833   -2.1197 P   0  0  2  0  0  0  0  0  0  0  0  0
   18.4565   73.0936   -1.6708 O   0  0  0  0  0  0  0  0  0  0  0  0
   18.5673   70.4805   -1.9547 O   0  0  0  0  0  0  0  0  0  0  0  0
   20.6884   71.9174   -1.3110 O   0  0  0  0  0  0  0  0  0  0  0  0
   20.8064   71.2746   -0.0551 C   0  0  0  0  0  0  0  0  0  0  0  0
   21.0971   71.7893    2.2748 O   0  0  0  0  0  0  0  0  0  0  0  0
   20.4226   74.6179    1.5428 O   0  0  0  0  0  0  0  0  0  0  0  0
   23.1409   74.6874    1.7475 O   0  0  0  0  0  0  0  0  0  0  0  0
   21.1585   73.6438    0.8024 C   0  0  1  0  0  0  0  0  0  0  0  0
   22.5354   73.4586    1.4040 C   0  0  2  0  0  0  0  0  0  0  0  0
   20.5179   72.2846    1.0481 C   0  0  1  0  0  0  0  0  0  0  0  0
   22.2359   72.5950    2.6174 C   0  0  2  0  0  0  0  0  0  0  0  0
   20.8133   75.4949    1.4016 H   0  0  0  0  0  0  0  0  0  0  0  0
   23.3116   75.2002    0.9413 H   0  0  0  0  0  0  0  0  0  0  0  0
   23.7068   71.0664    0.7529 O   0  0  0  0  0  0  0  0  0  0  0  0
   26.4189   69.3226    4.0465 O   0  0  0  0  0  0  0  0  0  0  0  0
   23.3314   71.7330    2.9604 N   0  0  0  0  0  0  0  0  0  0  0  0
   25.0555   70.1986    2.3952 N   0  0  0  0  0  0  0  0  0  0  0  0
   24.0035   71.0086    1.9477 C   0  0  0  0  0  0  0  0  0  0  0  0
   23.7308   71.6129    4.2860 C   0  0  0  0  0  0  0  0  0  0  0  0
   24.7354   70.8368    4.6972 C   0  0  0  0  0  0  0  0  0  0  0  0
   25.4891   70.0460    3.7022 C   0  0  0  0  0  0  0  0  0  0  0  0
   25.5372   69.6830    1.7085 H   0  0  0  0  0  0  0  0  0  0  0  0
   19.7201   72.1285   -3.6401 O   0  0  0  0  0  0  0  0  0  0  0  0
   20.8720   71.5039   -4.5871 P   0  0  2  0  0  0  0  0  0  0  0  0
   20.9248   69.9518   -4.1305 O   0  0  0  0  0  0  0  0  0  0  0  0
   22.1902   72.2177   -4.5056 O   0  0  0  0  0  0  0  0  0  0  0  0
   20.2175   71.4727   -6.0612 O   0  0  0  0  0  0  0  0  0  0  0  0
   17.9330   70.8521   -6.1329 O   0  0  0  0  0  0  0  0  0  0  0  0
   18.9558   70.7574  -10.1345 O   0  0  0  0  0  0  0  0  0  0  0  0
   20.7731   69.6820   -8.1157 O   0  0  0  0  0  0  0  0  0  0  0  0
   17.3886   72.9675   -9.0809 O   0  0  0  0  0  0  0  0  0  0  0  0
   19.0172   71.2169   -8.7843 C   0  0  2  0  0  0  0  0  0  0  0  0
   19.4243   70.0621   -7.8687 C   0  0  2  0  0  0  0  0  0  0  0  0
   17.6311   71.7385   -8.3988 C   0  0  1  0  0  0  0  0  0  0  0  0
   19.2784   70.4529   -6.3974 C   0  0  1  0  0  0  0  0  0  0  0  0
   17.5268   71.9856   -6.8966 C   0  0  1  0  0  0  0  0  0  0  0  0
   19.8258   70.4211  -10.4016 H   0  0  0  0  0  0  0  0  0  0  0  0
   20.8729   69.4330   -9.0476 H   0  0  0  0  0  0  0  0  0  0  0  0
   17.4522   72.8241  -10.0381 H   0  0  0  0  0  0  0  0  0  0  0  0
   15.9315   71.8438   -5.1830 O   0  0  0  0  0  0  0  0  0  0  0  0
   15.2081   72.5690   -7.2201 O   0  0  0  0  0  0  0  0  0  0  0  0
   16.1020   72.1726   -6.4875 C   0  0  0  0  0  0  0  0  0  0  0  0
  1  4  1  0
  1 24  1  0
  1  2  1  1
  1  3  2  0
 25 28  1  0
 25 24  1  0
 25 26  1  1
 25 27  2  0
  6 11  1  0
  6 12  1  0
 29 36  1  0
 29 37  1  0
  9  7  1  1
  7 13  1  0
 10  8  1  1
  8 14  1  0
  4  5  1  0
 36 28  1  6
 33 30  1  6
 30 38  1  0
 34 31  1  1
 31 39  1  0
 35 32  1  6
 32 40  1  0
 41 43  1  0
 15 19  2  0
 42 43  2  0
 16 22  2  0
 12 17  1  6
 17 19  1  0
 17 20  1  0
 18 19  1  0
 18 22  1  0
 18 23  1  0
  9 10  1  0
  9 11  1  0
 10 12  1  0
 11  5  1  6
 33 34  1  0
 33 35  1  0
 34 36  1  0
 35 37  1  0
 37 43  1  6
 20 21  2  0
 21 22  1  0
M  CHG  3   2  -1  26  -1  41  -1
M  END
>  <COMPND>  (13) 
    udp_gluA.pdb 

>  <AUTHOR>  (13) 
    GENERATED BY OPEN BABEL 3.1.1

>  <MASTER>  (13) 
        0    0    0    0    0    0    0    0   56    0   56    0

>  <minimizedAffinity>  (13) 
-7.11602

>  <CNNscore>  (13) 
0.5442045927

>  <CNNaffinity>  (13) 
4.2022237778

>  <CNN_VS>  (13) 
2.2868695259

>  <CNNaffinity_variance>  (13) 
0.0082145231

$$$$
14
     RDKit          3D

 43 45  0  0  0  0  0  0  0  0999 V2000
   23.0346   71.9934   -2.4796 P   0  0  2  0  0  0  0  0  0  0  0  0
   24.2058   71.0890   -3.1345 O   0  0  0  0  0  0  0  0  0  0  0  0
   23.4707   73.3489   -2.0060 O   0  0  0  0  0  0  0  0  0  0  0  0
   22.3846   71.0311   -1.3530 O   0  0  0  0  0  0  0  0  0  0  0  0
   22.5420   71.3830    0.0094 C   0  0  0  0  0  0  0  0  0  0  0  0
   21.2122   71.3733    2.0117 O   0  0  0  0  0  0  0  0  0  0  0  0
   19.3742   73.2592    0.5777 O   0  0  0  0  0  0  0  0  0  0  0  0
   20.8060   74.9311    2.1872 O   0  0  0  0  0  0  0  0  0  0  0  0
   20.7975   73.1637    0.5174 C   0  0  1  0  0  0  0  0  0  0  0  0
   21.4143   73.7227    1.7820 C   0  0  2  0  0  0  0  0  0  0  0  0
   21.1736   71.6908    0.6035 C   0  0  1  0  0  0  0  0  0  0  0  0
   21.1854   72.5924    2.7709 C   0  0  2  0  0  0  0  0  0  0  0  0
   19.1097   74.1913    0.5244 H   0  0  0  0  0  0  0  0  0  0  0  0
   20.9807   75.6189    1.5252 H   0  0  0  0  0  0  0  0  0  0  0  0
   21.1292   74.0741    5.1746 O   0  0  0  0  0  0  0  0  0  0  0  0
   25.1413   72.2932    6.5799 O   0  0  0  0  0  0  0  0  0  0  0  0
   22.2023   72.5350    3.7825 N   0  0  0  0  0  0  0  0  0  0  0  0
   23.1280   73.1865    5.8717 N   0  0  0  0  0  0  0  0  0  0  0  0
   22.0785   73.3200    4.9532 C   0  0  0  0  0  0  0  0  0  0  0  0
   23.3053   71.7074    3.6109 C   0  0  0  0  0  0  0  0  0  0  0  0
   24.2977   71.5906    4.4955 C   0  0  0  0  0  0  0  0  0  0  0  0
   24.2456   72.3774    5.7451 C   0  0  0  0  0  0  0  0  0  0  0  0
   23.0650   73.7248    6.6937 H   0  0  0  0  0  0  0  0  0  0  0  0
   21.9042   72.0154   -3.6349 O   0  0  0  0  0  0  0  0  0  0  0  0
   21.7610   72.9266   -4.9626 P   0  0  2  0  0  0  0  0  0  0  0  0
   23.0213   72.4634   -5.8667 O   0  0  0  0  0  0  0  0  0  0  0  0
   21.7022   74.4023   -4.6933 O   0  0  0  0  0  0  0  0  0  0  0  0
   20.4708   72.3339   -5.7285 O   0  0  0  0  0  0  0  0  0  0  0  0
   19.5873   70.1484   -5.5000 O   0  0  0  0  0  0  0  0  0  0  0  0
   18.3636   71.1551   -9.3154 O   0  0  0  0  0  0  0  0  0  0  0  0
   21.0561   71.8229   -8.3992 O   0  0  0  0  0  0  0  0  0  0  0  0
   16.4598   71.1784   -7.1187 O   0  0  0  0  0  0  0  0  0  0  0  0
   18.7100   71.3966   -7.9517 C   0  0  2  0  0  0  0  0  0  0  0  0
   20.1562   70.9653   -7.7069 C   0  0  2  0  0  0  0  0  0  0  0  0
   17.7564   70.5861   -7.0709 C   0  0  1  0  0  0  0  0  0  0  0  0
   20.4902   70.9930   -6.2147 C   0  0  1  0  0  0  0  0  0  0  0  0
   18.2268   70.5581   -5.6195 C   0  0  1  0  0  0  0  0  0  0  0  0
   18.9566   71.6600   -9.8941 H   0  0  0  0  0  0  0  0  0  0  0  0
   20.8497   71.8104   -9.3466 H   0  0  0  0  0  0  0  0  0  0  0  0
   16.1489   71.2024   -8.0372 H   0  0  0  0  0  0  0  0  0  0  0  0
   18.0214   69.3784   -3.6027 O   0  0  0  0  0  0  0  0  0  0  0  0
   16.5436   68.8667   -5.2621 O   0  0  0  0  0  0  0  0  0  0  0  0
   17.4924   69.5133   -4.8440 C   0  0  0  0  0  0  0  0  0  0  0  0
  1  4  1  0
  1 24  1  0
  1  2  1  6
  1  3  2  0
 25 28  1  0
 25 24  1  0
 25 26  1  6
 25 27  2  0
  6 11  1  0
  6 12  1  0
 29 36  1  0
 29 37  1  0
  9  7  1  1
  7 13  1  0
 10  8  1  1
  8 14  1  0
  4  5  1  0
 36 28  1  1
 33 30  1  6
 30 38  1  0
 34 31  1  6
 31 39  1  0
 35 32  1  1
 32 40  1  0
 41 43  1  0
 15 19  2  0
 42 43  2  0
 16 22  2  0
 12 17  1  1
 17 19  1  0
 17 20  1  0
 18 19  1  0
 18 22  1  0
 18 23  1  0
  9 10  1  0
  9 11  1  0
 10 12  1  0
 11  5  1  1
 33 34  1  0
 33 35  1  0
 34 36  1  0
 35 37  1  0
 37 43  1  1
 20 21  2  0
 21 22  1  0
M  CHG  3   2  -1  26  -1  41  -1
M  END
>  <COMPND>  (14) 
    udp_gluA.pdb 

>  <AUTHOR>  (14) 
    GENERATED BY OPEN BABEL 3.1.1

>  <MASTER>  (14) 
        0    0    0    0    0    0    0    0   56    0   56    0

>  <minimizedAffinity>  (14) 
-7.53943

>  <CNNscore>  (14) 
0.5075234771

>  <CNNaffinity>  (14) 
4.0256676674

>  <CNN_VS>  (14) 
2.0431208611

>  <CNNaffinity_variance>  (14) 
0.2132556885

$$$$
15
     RDKit          3D

 43 45  0  0  0  0  0  0  0  0999 V2000
   23.1649   71.8245   -1.9174 P   0  0  2  0  0  0  0  0  0  0  0  0
   24.0917   70.9845   -2.9442 O   0  0  0  0  0  0  0  0  0  0  0  0
   22.9556   73.2641   -2.2855 O   0  0  0  0  0  0  0  0  0  0  0  0
   23.8464   71.5603   -0.4739 O   0  0  0  0  0  0  0  0  0  0  0  0
   23.5152   72.4236    0.5983 C   0  0  0  0  0  0  0  0  0  0  0  0
   23.4559   71.0160    2.5458 O   0  0  0  0  0  0  0  0  0  0  0  0
   20.5825   71.8292    2.8173 O   0  0  0  0  0  0  0  0  0  0  0  0
   21.8248   73.4056    4.6633 O   0  0  0  0  0  0  0  0  0  0  0  0
   21.7010   72.5976    2.3733 C   0  0  1  0  0  0  0  0  0  0  0  0
   22.5776   72.9746    3.5488 C   0  0  2  0  0  0  0  0  0  0  0  0
   22.6157   71.6781    1.5758 C   0  0  1  0  0  0  0  0  0  0  0  0
   23.3248   71.6787    3.8135 C   0  0  2  0  0  0  0  0  0  0  0  0
   19.9836   72.3955    3.3295 H   0  0  0  0  0  0  0  0  0  0  0  0
   21.3684   74.2337    4.4445 H   0  0  0  0  0  0  0  0  0  0  0  0
   23.8494   72.1534    6.5477 O   0  0  0  0  0  0  0  0  0  0  0  0
   28.3826   72.5238    5.8015 O   0  0  0  0  0  0  0  0  0  0  0  0
   24.6328   71.9023    4.3610 N   0  0  0  0  0  0  0  0  0  0  0  0
   26.1065   72.3384    6.1733 N   0  0  0  0  0  0  0  0  0  0  0  0
   24.7875   72.1315    5.7487 C   0  0  0  0  0  0  0  0  0  0  0  0
   25.7447   71.8916    3.5276 C   0  0  0  0  0  0  0  0  0  0  0  0
   26.9958   72.0904    3.9470 C   0  0  0  0  0  0  0  0  0  0  0  0
   27.2441   72.3377    5.3824 C   0  0  0  0  0  0  0  0  0  0  0  0
   26.2391   72.5021    7.1350 H   0  0  0  0  0  0  0  0  0  0  0  0
   21.8113   70.9438   -1.8468 O   0  0  0  0  0  0  0  0  0  0  0  0
   20.2802   71.3204   -2.2041 P   0  0  2  0  0  0  0  0  0  0  0  0
   20.0130   72.6543   -1.3270 O   0  0  0  0  0  0  0  0  0  0  0  0
   19.2995   70.2109   -1.9569 O   0  0  0  0  0  0  0  0  0  0  0  0
   20.3321   71.8403   -3.7304 O   0  0  0  0  0  0  0  0  0  0  0  0
   19.5789   70.2885   -5.3533 O   0  0  0  0  0  0  0  0  0  0  0  0
   21.2954   73.2101   -7.7167 O   0  0  0  0  0  0  0  0  0  0  0  0
   22.6046   72.3385   -5.2549 O   0  0  0  0  0  0  0  0  0  0  0  0
   18.4025   73.0178   -7.5048 O   0  0  0  0  0  0  0  0  0  0  0  0
   20.6035   72.6935   -6.5799 C   0  0  2  0  0  0  0  0  0  0  0  0
   21.4931   71.6833   -5.8549 C   0  0  2  0  0  0  0  0  0  0  0  0
   19.3225   72.0169   -7.0732 C   0  0  1  0  0  0  0  0  0  0  0  0
   20.7083   70.9413   -4.7721 C   0  0  1  0  0  0  0  0  0  0  0  0
   18.6658   71.1947   -5.9681 C   0  0  1  0  0  0  0  0  0  0  0  0
   22.1132   73.6447   -7.4277 H   0  0  0  0  0  0  0  0  0  0  0  0
   23.1069   72.8116   -5.9362 H   0  0  0  0  0  0  0  0  0  0  0  0
   18.8083   73.5484   -8.2080 H   0  0  0  0  0  0  0  0  0  0  0  0
   17.7028   70.2452   -7.8846 O   0  0  0  0  0  0  0  0  0  0  0  0
   16.8034   69.6637   -5.8716 O   0  0  0  0  0  0  0  0  0  0  0  0
   17.6210   70.2874   -6.5316 C   0  0  0  0  0  0  0  0  0  0  0  0
  1  4  1  0
  1 24  1  0
  1  2  1  6
  1  3  2  0
 25 28  1  0
 25 24  1  0
 25 26  1  1
 25 27  2  0
  6 11  1  0
  6 12  1  0
 29 36  1  0
 29 37  1  0
  9  7  1  1
  7 13  1  0
 10  8  1  1
  8 14  1  0
  4  5  1  0
 36 28  1  1
 33 30  1  6
 30 38  1  0
 34 31  1  1
 31 39  1  0
 35 32  1  1
 32 40  1  0
 41 43  1  0
 15 19  2  0
 42 43  2  0
 16 22  2  0
 12 17  1  6
 17 19  1  0
 17 20  1  0
 18 19  1  0
 18 22  1  0
 18 23  1  0
  9 10  1  0
  9 11  1  0
 10 12  1  0
 11  5  1  6
 33 34  1  0
 33 35  1  0
 34 36  1  0
 35 37  1  0
 37 43  1  6
 20 21  2  0
 21 22  1  0
M  CHG  3   2  -1  26  -1  41  -1
M  END
>  <COMPND>  (15) 
    udp_gluA.pdb 

>  <AUTHOR>  (15) 
    GENERATED BY OPEN BABEL 3.1.1

>  <MASTER>  (15) 
        0    0    0    0    0    0    0    0   56    0   56    0

>  <minimizedAffinity>  (15) 
-7.53588

>  <CNNscore>  (15) 
0.5025034547

>  <CNNaffinity>  (15) 
4.1436281204

>  <CNN_VS>  (15) 
2.0821874142

>  <CNNaffinity_variance>  (15) 
0.1113943085

$$$$
16
     RDKit          3D

 43 45  0  0  0  0  0  0  0  0999 V2000
   23.0931   71.8206   -2.5496 P   0  0  2  0  0  0  0  0  0  0  0  0
   23.3887   73.3459   -2.0968 O   0  0  0  0  0  0  0  0  0  0  0  0
   24.2190   71.1463   -3.2773 O   0  0  0  0  0  0  0  0  0  0  0  0
   21.6942   71.9190   -3.3565 O   0  0  0  0  0  0  0  0  0  0  0  0
   21.5981   72.8321   -4.4343 C   0  0  0  0  0  0  0  0  0  0  0  0
   20.8775   70.8282   -5.5491 O   0  0  0  0  0  0  0  0  0  0  0  0
   21.4304   72.2789   -8.1145 O   0  0  0  0  0  0  0  0  0  0  0  0
   18.7202   72.4783   -7.8895 O   0  0  0  0  0  0  0  0  0  0  0  0
   20.9126   72.7847   -6.8839 C   0  0  1  0  0  0  0  0  0  0  0  0
   19.4740   72.3494   -6.7022 C   0  0  2  0  0  0  0  0  0  0  0  0
   21.6123   72.0558   -5.7449 C   0  0  1  0  0  0  0  0  0  0  0  0
   19.6348   70.9032   -6.2657 C   0  0  2  0  0  0  0  0  0  0  0  0
   20.9983   72.7298   -8.8572 H   0  0  0  0  0  0  0  0  0  0  0  0
   18.6461   73.4168   -8.1253 H   0  0  0  0  0  0  0  0  0  0  0  0
   17.1505   69.9114   -7.1720 O   0  0  0  0  0  0  0  0  0  0  0  0
   15.6305   69.2686   -2.8685 O   0  0  0  0  0  0  0  0  0  0  0  0
   18.5719   70.4696   -5.4037 N   0  0  0  0  0  0  0  0  0  0  0  0
   16.3954   69.5931   -5.0277 N   0  0  0  0  0  0  0  0  0  0  0  0
   17.3634   69.9882   -5.9605 C   0  0  0  0  0  0  0  0  0  0  0  0
   18.7324   70.5218   -4.0244 C   0  0  0  0  0  0  0  0  0  0  0  0
   17.8007   70.1416   -3.1479 C   0  0  0  0  0  0  0  0  0  0  0  0
   16.5086   69.6271   -3.6473 C   0  0  0  0  0  0  0  0  0  0  0  0
   15.5449   69.2563   -5.3915 H   0  0  0  0  0  0  0  0  0  0  0  0
   22.6640   71.1074   -1.1640 O   0  0  0  0  0  0  0  0  0  0  0  0
   22.0072   71.7139    0.1830 P   0  0  2  0  0  0  0  0  0  0  0  0
   21.2173   70.4484    0.8115 O   0  0  0  0  0  0  0  0  0  0  0  0
   21.1520   72.9273   -0.0413 O   0  0  0  0  0  0  0  0  0  0  0  0
   23.2556   71.9493    1.1771 O   0  0  0  0  0  0  0  0  0  0  0  0
   24.0915   70.7603    3.0471 O   0  0  0  0  0  0  0  0  0  0  0  0
   24.6951   74.6799    4.2047 O   0  0  0  0  0  0  0  0  0  0  0  0
   22.2168   73.8942    2.8724 O   0  0  0  0  0  0  0  0  0  0  0  0
   26.9382   73.0599    3.3129 O   0  0  0  0  0  0  0  0  0  0  0  0
   24.5891   73.5949    3.2830 C   0  0  2  0  0  0  0  0  0  0  0  0
   23.1904   72.9839    3.3705 C   0  0  2  0  0  0  0  0  0  0  0  0
   25.6485   72.5545    3.6535 C   0  0  1  0  0  0  0  0  0  0  0  0
   23.1108   71.6827    2.5709 C   0  0  1  0  0  0  0  0  0  0  0  0
   25.4260   71.2426    2.9067 C   0  0  1  0  0  0  0  0  0  0  0  0
   24.0313   75.3537    3.9890 H   0  0  0  0  0  0  0  0  0  0  0  0
   22.2619   74.7223    3.3751 H   0  0  0  0  0  0  0  0  0  0  0  0
   27.0923   73.8950    3.7816 H   0  0  0  0  0  0  0  0  0  0  0  0
   27.5646   70.3543    3.2795 O   0  0  0  0  0  0  0  0  0  0  0  0
   25.7936   69.1898    4.1200 O   0  0  0  0  0  0  0  0  0  0  0  0
   26.2440   70.1455    3.5063 C   0  0  0  0  0  0  0  0  0  0  0  0
  1  4  1  0
  1 24  1  0
  1  2  1  1
  1  3  2  0
 25 28  1  0
 25 24  1  0
 25 26  1  1
 25 27  2  0
  6 11  1  0
  6 12  1  0
 29 36  1  0
 29 37  1  0
  9  7  1  6
  7 13  1  0
 10  8  1  6
  8 14  1  0
  4  5  1  0
 36 28  1  6
 33 30  1  1
 30 38  1  0
 34 31  1  6
 31 39  1  0
 35 32  1  6
 32 40  1  0
 41 43  1  0
 15 19  2  0
 42 43  2  0
 16 22  2  0
 12 17  1  1
 17 19  1  0
 17 20  1  0
 18 19  1  0
 18 22  1  0
 18 23  1  0
  9 10  1  0
  9 11  1  0
 10 12  1  0
 11  5  1  1
 33 34  1  0
 33 35  1  0
 34 36  1  0
 35 37  1  0
 37 43  1  1
 20 21  2  0
 21 22  1  0
M  CHG  3   2  -1  26  -1  41  -1
M  END
>  <COMPND>  (16) 
    udp_gluA.pdb 

>  <AUTHOR>  (16) 
    GENERATED BY OPEN BABEL 3.1.1

>  <MASTER>  (16) 
        0    0    0    0    0    0    0    0   56    0   56    0

>  <minimizedAffinity>  (16) 
-7.84660

>  <CNNscore>  (16) 
0.4979201257

>  <CNNaffinity>  (16) 
4.1497163773

>  <CNN_VS>  (16) 
2.0662271976

>  <CNNaffinity_variance>  (16) 
0.1408525407

$$$$
17
     RDKit          3D

 43 45  0  0  0  0  0  0  0  0999 V2000
   23.0761   72.7794   -1.2855 P   0  0  2  0  0  0  0  0  0  0  0  0
   23.1112   71.1805   -1.5331 O   0  0  0  0  0  0  0  0  0  0  0  0
   23.5797   73.6089   -2.4301 O   0  0  0  0  0  0  0  0  0  0  0  0
   23.8563   72.9723    0.1188 O   0  0  0  0  0  0  0  0  0  0  0  0
   24.3455   71.8223    0.7840 C   0  0  0  0  0  0  0  0  0  0  0  0
   24.5020   73.3425    2.6393 O   0  0  0  0  0  0  0  0  0  0  0  0
   26.5412   71.4579    3.7714 O   0  0  0  0  0  0  0  0  0  0  0  0
   24.2956   70.8238    5.1825 O   0  0  0  0  0  0  0  0  0  0  0  0
   25.3599   71.1683    3.0236 C   0  0  1  0  0  0  0  0  0  0  0  0
   24.1318   71.3629    3.8875 C   0  0  2  0  0  0  0  0  0  0  0  0
   25.1882   72.2591    1.9754 C   0  0  1  0  0  0  0  0  0  0  0  0
   23.9897   72.8754    3.8974 C   0  0  2  0  0  0  0  0  0  0  0  0
   26.6719   70.7744    4.4476 H   0  0  0  0  0  0  0  0  0  0  0  0
   24.3813   69.8589    5.1225 H   0  0  0  0  0  0  0  0  0  0  0  0
   22.7111   73.3838    6.3638 O   0  0  0  0  0  0  0  0  0  0  0  0
   18.7458   74.4865    4.2890 O   0  0  0  0  0  0  0  0  0  0  0  0
   22.6238   73.2966    4.0307 N   0  0  0  0  0  0  0  0  0  0  0  0
   20.7371   73.9315    5.3281 N   0  0  0  0  0  0  0  0  0  0  0  0
   22.0778   73.5248    5.3159 C   0  0  0  0  0  0  0  0  0  0  0  0
   21.8411   73.4810    2.8974 C   0  0  0  0  0  0  0  0  0  0  0  0
   20.5646   73.8691    2.9249 C   0  0  0  0  0  0  0  0  0  0  0  0
   19.9179   74.1279    4.2281 C   0  0  0  0  0  0  0  0  0  0  0  0
   20.3343   74.0945    6.2116 H   0  0  0  0  0  0  0  0  0  0  0  0
   21.5338   73.0507   -0.8846 O   0  0  0  0  0  0  0  0  0  0  0  0
   20.2695   72.0476   -0.7902 P   0  0  2  0  0  0  0  0  0  0  0  0
   19.1175   72.9666   -0.1202 O   0  0  0  0  0  0  0  0  0  0  0  0
   20.5499   70.7712   -0.0512 O   0  0  0  0  0  0  0  0  0  0  0  0
   19.7921   71.8458   -2.3179 O   0  0  0  0  0  0  0  0  0  0  0  0
   18.8198   69.8189   -3.0632 O   0  0  0  0  0  0  0  0  0  0  0  0
   20.0668   71.5109   -6.6199 O   0  0  0  0  0  0  0  0  0  0  0  0
   21.7761   71.6109   -4.2530 O   0  0  0  0  0  0  0  0  0  0  0  0
   17.2513   71.5430   -5.8968 O   0  0  0  0  0  0  0  0  0  0  0  0
   19.5796   71.5088   -5.2781 C   0  0  2  0  0  0  0  0  0  0  0  0
   20.5967   70.8230   -4.3654 C   0  0  2  0  0  0  0  0  0  0  0  0
   18.2506   70.7502   -5.2587 C   0  0  1  0  0  0  0  0  0  0  0  0
   20.0140   70.5965   -2.9697 C   0  0  1  0  0  0  0  0  0  0  0  0
   17.7996   70.4529   -3.8315 C   0  0  1  0  0  0  0  0  0  0  0  0
   20.9110   71.9876   -6.6568 H   0  0  0  0  0  0  0  0  0  0  0  0
   22.1510   71.7588   -5.1350 H   0  0  0  0  0  0  0  0  0  0  0  0
   17.5262   71.7394   -6.8060 H   0  0  0  0  0  0  0  0  0  0  0  0
   16.6561   68.7702   -4.9986 O   0  0  0  0  0  0  0  0  0  0  0  0
   15.9354   69.2461   -2.8884 O   0  0  0  0  0  0  0  0  0  0  0  0
   16.6974   69.4443   -3.8227 C   0  0  0  0  0  0  0  0  0  0  0  0
  1  4  1  0
  1 24  1  0
  1  2  1  6
  1  3  2  0
 25 28  1  0
 25 24  1  0
 25 26  1  1
 25 27  2  0
  6 11  1  0
  6 12  1  0
 29 36  1  0
 29 37  1  0
  9  7  1  1
  7 13  1  0
 10  8  1  1
  8 14  1  0
  4  5  1  0
 36 28  1  6
 33 30  1  6
 30 38  1  0
 34 31  1  1
 31 39  1  0
 35 32  1  1
 32 40  1  0
 41 43  1  0
 15 19  2  0
 42 43  2  0
 16 22  2  0
 12 17  1  6
 17 19  1  0
 17 20  1  0
 18 19  1  0
 18 22  1  0
 18 23  1  0
  9 10  1  0
  9 11  1  0
 10 12  1  0
 11  5  1  6
 33 34  1  0
 33 35  1  0
 34 36  1  0
 35 37  1  0
 37 43  1  6
 20 21  2  0
 21 22  1  0
M  CHG  3   2  -1  26  -1  41  -1
M  END
>  <COMPND>  (17) 
    udp_gluA.pdb 

>  <AUTHOR>  (17) 
    GENERATED BY OPEN BABEL 3.1.1

>  <MASTER>  (17) 
        0    0    0    0    0    0    0    0   56    0   56    0

>  <minimizedAffinity>  (17) 
-6.18140

>  <CNNscore>  (17) 
0.4679715335

>  <CNNaffinity>  (17) 
4.1196813583

>  <CNN_VS>  (17) 
1.9278936386

>  <CNNaffinity_variance>  (17) 
0.1365299225

$$$$
18
     RDKit          3D

 43 45  0  0  0  0  0  0  0  0999 V2000
   19.0081   70.0035   -2.9489 P   0  0  2  0  0  0  0  0  0  0  0  0
   17.8786   68.9873   -2.3917 O   0  0  0  0  0  0  0  0  0  0  0  0
   19.8866   69.4436   -4.0290 O   0  0  0  0  0  0  0  0  0  0  0  0
   19.7706   70.5068   -1.6135 O   0  0  0  0  0  0  0  0  0  0  0  0
   19.6833   71.8750   -1.2602 C   0  0  0  0  0  0  0  0  0  0  0  0
   21.3117   73.5487   -0.6905 O   0  0  0  0  0  0  0  0  0  0  0  0
   23.0852   72.2515   -2.7309 O   0  0  0  0  0  0  0  0  0  0  0  0
   24.0667   71.2752   -0.3815 O   0  0  0  0  0  0  0  0  0  0  0  0
   22.1521   71.6512   -1.8324 C   0  0  1  0  0  0  0  0  0  0  0  0
   22.7062   71.6520   -0.4234 C   0  0  2  0  0  0  0  0  0  0  0  0
   20.9558   72.5845   -1.7048 C   0  0  1  0  0  0  0  0  0  0  0  0
   22.4854   73.0938    0.0015 C   0  0  2  0  0  0  0  0  0  0  0  0
   23.8585   71.6734   -2.8284 H   0  0  0  0  0  0  0  0  0  0  0  0
   24.1546   70.3498   -0.6603 H   0  0  0  0  0  0  0  0  0  0  0  0
   21.4698   71.0409    1.6541 O   0  0  0  0  0  0  0  0  0  0  0  0
   21.7113   73.6972    5.4130 O   0  0  0  0  0  0  0  0  0  0  0  0
   22.2729   73.2219    1.4155 N   0  0  0  0  0  0  0  0  0  0  0  0
   21.5901   72.3662    3.5245 N   0  0  0  0  0  0  0  0  0  0  0  0
   21.7581   72.1300    2.1537 C   0  0  0  0  0  0  0  0  0  0  0  0
   22.5746   74.4172    2.0567 C   0  0  0  0  0  0  0  0  0  0  0  0
   22.4092   74.6272    3.3641 C   0  0  0  0  0  0  0  0  0  0  0  0
   21.8752   73.5376    4.2072 C   0  0  0  0  0  0  0  0  0  0  0  0
   21.2311   71.6214    4.0589 H   0  0  0  0  0  0  0  0  0  0  0  0
   18.1466   71.2995   -3.3858 O   0  0  0  0  0  0  0  0  0  0  0  0
   16.8091   71.4313   -4.2844 P   0  0  2  0  0  0  0  0  0  0  0  0
   16.6234   73.0320   -4.4385 O   0  0  0  0  0  0  0  0  0  0  0  0
   15.6138   70.7219   -3.7172 O   0  0  0  0  0  0  0  0  0  0  0  0
   17.2513   70.9295   -5.7524 O   0  0  0  0  0  0  0  0  0  0  0  0
   18.9504   72.3337   -6.6187 O   0  0  0  0  0  0  0  0  0  0  0  0
   18.2830   69.7684   -9.7876 O   0  0  0  0  0  0  0  0  0  0  0  0
   16.0403   70.8433   -8.2549 O   0  0  0  0  0  0  0  0  0  0  0  0
   20.6476   69.4513   -8.1264 O   0  0  0  0  0  0  0  0  0  0  0  0
   18.3600   70.1506   -8.4143 C   0  0  2  0  0  0  0  0  0  0  0  0
   17.3846   71.2972   -8.1468 C   0  0  2  0  0  0  0  0  0  0  0  0
   19.7958   70.5954   -8.1269 C   0  0  1  0  0  0  0  0  0  0  0  0
   17.6010   71.8854   -6.7518 C   0  0  1  0  0  0  0  0  0  0  0  0
   19.9044   71.2849   -6.7700 C   0  0  1  0  0  0  0  0  0  0  0  0
   17.3793   69.4819   -9.9935 H   0  0  0  0  0  0  0  0  0  0  0  0
   15.8960   70.4686   -9.1375 H   0  0  0  0  0  0  0  0  0  0  0  0
   20.5876   69.0031   -8.9846 H   0  0  0  0  0  0  0  0  0  0  0  0
   21.6561   72.4055   -7.8551 O   0  0  0  0  0  0  0  0  0  0  0  0
   21.8018   72.1947   -5.5894 O   0  0  0  0  0  0  0  0  0  0  0  0
   21.2107   71.9985   -6.6406 C   0  0  0  0  0  0  0  0  0  0  0  0
  1  4  1  0
  1 24  1  0
  1  2  1  1
  1  3  2  0
 25 28  1  0
 25 24  1  0
 25 26  1  6
 25 27  2  0
  6 11  1  0
  6 12  1  0
 29 36  1  0
 29 37  1  0
  9  7  1  6
  7 13  1  0
 10  8  1  6
  8 14  1  0
  4  5  1  0
 36 28  1  1
 33 30  1  6
 30 38  1  0
 34 31  1  1
 31 39  1  0
 35 32  1  1
 32 40  1  0
 41 43  1  0
 15 19  2  0
 42 43  2  0
 16 22  2  0
 12 17  1  1
 17 19  1  0
 17 20  1  0
 18 19  1  0
 18 22  1  0
 18 23  1  0
  9 10  1  0
  9 11  1  0
 10 12  1  0
 11  5  1  1
 33 34  1  0
 33 35  1  0
 34 36  1  0
 35 37  1  0
 37 43  1  6
 20 21  2  0
 21 22  1  0
M  CHG  3   2  -1  26  -1  41  -1
M  END
>  <COMPND>  (18) 
    udp_gluA.pdb 

>  <AUTHOR>  (18) 
    GENERATED BY OPEN BABEL 3.1.1

>  <MASTER>  (18) 
        0    0    0    0    0    0    0    0   56    0   56    0

>  <minimizedAffinity>  (18) 
-7.12216

>  <CNNscore>  (18) 
0.4668088257

>  <CNNaffinity>  (18) 
4.1717767715

>  <CNN_VS>  (18) 
1.9474222660

>  <CNNaffinity_variance>  (18) 
0.2081928253

$$$$
19
     RDKit          3D

 43 45  0  0  0  0  0  0  0  0999 V2000
   23.0350   75.4631   -5.2539 P   0  0  2  0  0  0  0  0  0  0  0  0
   23.9068   75.5788   -6.6124 O   0  0  0  0  0  0  0  0  0  0  0  0
   22.4948   76.7634   -4.7351 O   0  0  0  0  0  0  0  0  0  0  0  0
   23.9995   74.6491   -4.2415 O   0  0  0  0  0  0  0  0  0  0  0  0
   23.6893   74.6557   -2.8601 C   0  0  0  0  0  0  0  0  0  0  0  0
   23.1401   73.1168   -1.0972 O   0  0  0  0  0  0  0  0  0  0  0  0
   24.2569   70.9738   -2.8726 O   0  0  0  0  0  0  0  0  0  0  0  0
   21.5666   70.6918   -3.2180 O   0  0  0  0  0  0  0  0  0  0  0  0
   23.5172   72.1435   -3.2236 C   0  0  1  0  0  0  0  0  0  0  0  0
   22.0571   71.9679   -2.8637 C   0  0  2  0  0  0  0  0  0  0  0  0
   23.9430   73.2669   -2.2881 C   0  0  1  0  0  0  0  0  0  0  0  0
   22.0734   72.1917   -1.3612 C   0  0  2  0  0  0  0  0  0  0  0  0
   24.0018   70.2422   -3.4569 H   0  0  0  0  0  0  0  0  0  0  0  0
   21.5760   70.5985   -4.1840 H   0  0  0  0  0  0  0  0  0  0  0  0
   21.3717   72.3763    1.3683 O   0  0  0  0  0  0  0  0  0  0  0  0
   17.3229   74.3458    0.3823 O   0  0  0  0  0  0  0  0  0  0  0  0
   20.8420   72.7483   -0.8766 N   0  0  0  0  0  0  0  0  0  0  0  0
   19.3554   73.3561    0.8745 N   0  0  0  0  0  0  0  0  0  0  0  0
   20.5870   72.7936    0.5144 C   0  0  0  0  0  0  0  0  0  0  0  0
   19.9038   73.2430   -1.7744 C   0  0  0  0  0  0  0  0  0  0  0  0
   18.7342   73.7764   -1.4160 C   0  0  0  0  0  0  0  0  0  0  0  0
   18.3899   73.8606    0.0185 C   0  0  0  0  0  0  0  0  0  0  0  0
   19.1545   73.3967    1.8375 H   0  0  0  0  0  0  0  0  0  0  0  0
   21.9072   74.3708   -5.6384 O   0  0  0  0  0  0  0  0  0  0  0  0
   21.9184   73.1691   -6.7198 P   0  0  2  0  0  0  0  0  0  0  0  0
   23.0547   72.1679   -6.1483 O   0  0  0  0  0  0  0  0  0  0  0  0
   22.1434   73.6165   -8.1352 O   0  0  0  0  0  0  0  0  0  0  0  0
   20.5281   72.3877   -6.4777 O   0  0  0  0  0  0  0  0  0  0  0  0
   19.9410   70.2807   -5.5694 O   0  0  0  0  0  0  0  0  0  0  0  0
   17.3359   70.5750   -8.7623 O   0  0  0  0  0  0  0  0  0  0  0  0
   20.1245   71.3982   -9.0456 O   0  0  0  0  0  0  0  0  0  0  0  0
   16.3753   70.9988   -6.0515 O   0  0  0  0  0  0  0  0  0  0  0  0
   18.1417   71.0611   -7.6888 C   0  0  2  0  0  0  0  0  0  0  0  0
   19.6024   70.6813   -7.9328 C   0  0  2  0  0  0  0  0  0  0  0  0
   17.6358   70.4249   -6.3921 C   0  0  1  0  0  0  0  0  0  0  0  0
   20.4586   70.9806   -6.7015 C   0  0  1  0  0  0  0  0  0  0  0  0
   18.6072   70.6619   -5.2394 C   0  0  1  0  0  0  0  0  0  0  0  0
   17.6389   70.9658   -9.5970 H   0  0  0  0  0  0  0  0  0  0  0  0
   19.5859   71.2131   -9.8304 H   0  0  0  0  0  0  0  0  0  0  0  0
   15.7478   70.8551   -6.7770 H   0  0  0  0  0  0  0  0  0  0  0  0
   17.3119   68.8891   -4.4143 O   0  0  0  0  0  0  0  0  0  0  0  0
   18.8135   69.8347   -2.9823 O   0  0  0  0  0  0  0  0  0  0  0  0
   18.2819   69.7762   -4.0810 C   0  0  0  0  0  0  0  0  0  0  0  0
  1  4  1  0
  1 24  1  0
  1  2  1  6
  1  3  2  0
 25 28  1  0
 25 24  1  0
 25 26  1  1
 25 27  2  0
  6 11  1  0
  6 12  1  0
 29 36  1  0
 29 37  1  0
  9  7  1  1
  7 13  1  0
 10  8  1  1
  8 14  1  0
  4  5  1  0
 36 28  1  1
 33 30  1  6
 30 38  1  0
 34 31  1  6
 31 39  1  0
 35 32  1  1
 32 40  1  0
 41 43  1  0
 15 19  2  0
 42 43  2  0
 16 22  2  0
 12 17  1  6
 17 19  1  0
 17 20  1  0
 18 19  1  0
 18 22  1  0
 18 23  1  0
  9 10  1  0
  9 11  1  0
 10 12  1  0
 11  5  1  6
 33 34  1  0
 33 35  1  0
 34 36  1  0
 35 37  1  0
 37 43  1  1
 20 21  2  0
 21 22  1  0
M  CHG  3   2  -1  26  -1  41  -1
M  END
>  <COMPND>  (19) 
    udp_gluA.pdb 

>  <AUTHOR>  (19) 
    GENERATED BY OPEN BABEL 3.1.1

>  <MASTER>  (19) 
        0    0    0    0    0    0    0    0   56    0   56    0

>  <minimizedAffinity>  (19) 
-6.18357

>  <CNNscore>  (19) 
0.4654177725

>  <CNNaffinity>  (19) 
4.1378254890

>  <CNN_VS>  (19) 
1.9258174896

>  <CNNaffinity_variance>  (19) 
0.1564879566

$$$$
20
     RDKit          3D

 43 45  0  0  0  0  0  0  0  0999 V2000
   23.0108   72.0921   -2.8595 P   0  0  2  0  0  0  0  0  0  0  0  0
   24.2756   71.0829   -2.8820 O   0  0  0  0  0  0  0  0  0  0  0  0
   23.0209   73.1445   -3.9292 O   0  0  0  0  0  0  0  0  0  0  0  0
   22.9767   72.6383   -1.3368 O   0  0  0  0  0  0  0  0  0  0  0  0
   23.9520   72.1644   -0.4265 C   0  0  0  0  0  0  0  0  0  0  0  0
   24.1454   70.8694    1.5892 O   0  0  0  0  0  0  0  0  0  0  0  0
   21.3033   70.0425    1.1096 O   0  0  0  0  0  0  0  0  0  0  0  0
   21.0482   71.9718    3.0198 O   0  0  0  0  0  0  0  0  0  0  0  0
   21.9337   71.2985    0.8577 C   0  0  1  0  0  0  0  0  0  0  0  0
   22.1649   72.0390    2.1578 C   0  0  2  0  0  0  0  0  0  0  0  0
   23.3564   71.0245    0.3897 C   0  0  1  0  0  0  0  0  0  0  0  0
   23.3804   71.3203    2.7183 C   0  0  2  0  0  0  0  0  0  0  0  0
   20.3927   70.1918    1.4100 H   0  0  0  0  0  0  0  0  0  0  0  0
   20.3012   72.4438    2.6185 H   0  0  0  0  0  0  0  0  0  0  0  0
   23.3249   71.3864    5.5412 O   0  0  0  0  0  0  0  0  0  0  0  0
   26.5718   74.6533    5.7105 O   0  0  0  0  0  0  0  0  0  0  0  0
   24.2007   72.1786    3.5253 N   0  0  0  0  0  0  0  0  0  0  0  0
   24.9414   73.0142    5.6228 N   0  0  0  0  0  0  0  0  0  0  0  0
   24.0953   72.1339    4.9356 C   0  0  0  0  0  0  0  0  0  0  0  0
   25.0977   73.0504    2.9201 C   0  0  0  0  0  0  0  0  0  0  0  0
   25.8978   73.8834    3.5884 C   0  0  0  0  0  0  0  0  0  0  0  0
   25.8492   73.8999    5.0652 C   0  0  0  0  0  0  0  0  0  0  0  0
   24.8845   73.0026    6.6056 H   0  0  0  0  0  0  0  0  0  0  0  0
   21.7448   71.0886   -2.9141 O   0  0  0  0  0  0  0  0  0  0  0  0
   20.1898   71.3202   -2.5371 P   0  0  2  0  0  0  0  0  0  0  0  0
   20.1052   72.9161   -2.2801 O   0  0  0  0  0  0  0  0  0  0  0  0
   19.7028   70.4824   -1.3904 O   0  0  0  0  0  0  0  0  0  0  0  0
   19.3942   71.0880   -3.9212 O   0  0  0  0  0  0  0  0  0  0  0  0
   19.8479   71.8648   -6.1120 O   0  0  0  0  0  0  0  0  0  0  0  0
   15.7171   71.8104   -6.0780 O   0  0  0  0  0  0  0  0  0  0  0  0
   17.2042   72.7954   -3.7644 O   0  0  0  0  0  0  0  0  0  0  0  0
   17.1922   69.7358   -7.4819 O   0  0  0  0  0  0  0  0  0  0  0  0
   17.0291   71.3740   -5.7227 C   0  0  2  0  0  0  0  0  0  0  0  0
   17.7793   72.5151   -5.0353 C   0  0  2  0  0  0  0  0  0  0  0  0
   17.7525   70.9578   -7.0054 C   0  0  1  0  0  0  0  0  0  0  0  0
   19.2559   72.1640   -4.8473 C   0  0  1  0  0  0  0  0  0  0  0  0
   19.2440   70.7478   -6.7607 C   0  0  1  0  0  0  0  0  0  0  0  0
   15.2382   72.0800   -5.2784 H   0  0  0  0  0  0  0  0  0  0  0  0
   16.2671   73.0187   -3.8762 H   0  0  0  0  0  0  0  0  0  0  0  0
   16.2430   69.8558   -7.6415 H   0  0  0  0  0  0  0  0  0  0  0  0
   19.6918   69.5173   -8.7067 O   0  0  0  0  0  0  0  0  0  0  0  0
   20.7566   71.5201   -8.4745 O   0  0  0  0  0  0  0  0  0  0  0  0
   19.9878   70.6686   -8.0541 C   0  0  0  0  0  0  0  0  0  0  0  0
  1  4  1  0
  1 24  1  0
  1  2  1  1
  1  3  2  0
 25 28  1  0
 25 24  1  0
 25 26  1  1
 25 27  2  0
  6 11  1  0
  6 12  1  0
 29 36  1  0
 29 37  1  0
  9  7  1  1
  7 13  1  0
 10  8  1  1
  8 14  1  0
  4  5  1  0
 36 28  1  1
 33 30  1  6
 30 38  1  0
 34 31  1  1
 31 39  1  0
 35 32  1  1
 32 40  1  0
 41 43  1  0
 15 19  2  0
 42 43  2  0
 16 22  2  0
 12 17  1  1
 17 19  1  0
 17 20  1  0
 18 19  1  0
 18 22  1  0
 18 23  1  0
  9 10  1  0
  9 11  1  0
 10 12  1  0
 11  5  1  1
 33 34  1  0
 33 35  1  0
 34 36  1  0
 35 37  1  0
 37 43  1  6
 20 21  2  0
 21 22  1  0
M  CHG  3   2  -1  26  -1  41  -1
M  END
>  <COMPND>  (20) 
    udp_gluA.pdb 

>  <AUTHOR>  (20) 
    GENERATED BY OPEN BABEL 3.1.1

>  <MASTER>  (20) 
        0    0    0    0    0    0    0    0   56    0   56    0

>  <minimizedAffinity>  (20) 
-7.44679

>  <CNNscore>  (20) 
0.4627128243

>  <CNNaffinity>  (20) 
4.1077079773

>  <CNN_VS>  (20) 
1.9006891251

>  <CNNaffinity_variance>  (20) 
0.0629362464

$$$$
21
     RDKit          3D

 43 45  0  0  0  0  0  0  0  0999 V2000
   22.0420   72.3324   -1.8152 P   0  0  2  0  0  0  0  0  0  0  0  0
   23.5752   72.0642   -1.3721 O   0  0  0  0  0  0  0  0  0  0  0  0
   21.1404   72.8155   -0.7172 O   0  0  0  0  0  0  0  0  0  0  0  0
   21.5978   70.9520   -2.5329 O   0  0  0  0  0  0  0  0  0  0  0  0
   20.9083   71.0232   -3.7673 C   0  0  0  0  0  0  0  0  0  0  0  0
   18.8419   71.8153   -4.7056 O   0  0  0  0  0  0  0  0  0  0  0  0
   17.4869   70.4247   -2.4205 O   0  0  0  0  0  0  0  0  0  0  0  0
   17.1225   68.6772   -4.4819 O   0  0  0  0  0  0  0  0  0  0  0  0
   18.6454   70.0333   -3.1575 C   0  0  1  0  0  0  0  0  0  0  0  0
   18.2485   69.5284   -4.5286 C   0  0  2  0  0  0  0  0  0  0  0  0
   19.4333   71.2911   -3.4970 C   0  0  1  0  0  0  0  0  0  0  0  0
   17.9723   70.8231   -5.2737 C   0  0  2  0  0  0  0  0  0  0  0  0
   16.9673   69.6376   -2.1922 H   0  0  0  0  0  0  0  0  0  0  0  0
   17.3494   67.8672   -3.9977 H   0  0  0  0  0  0  0  0  0  0  0  0
   16.1172   69.8894   -7.1876 O   0  0  0  0  0  0  0  0  0  0  0  0
   19.1194   70.4501  -10.6396 O   0  0  0  0  0  0  0  0  0  0  0  0
   18.2429   70.7149   -6.6794 N   0  0  0  0  0  0  0  0  0  0  0  0
   17.6146   70.1686   -8.9049 N   0  0  0  0  0  0  0  0  0  0  0  0
   17.2418   70.2335   -7.5559 C   0  0  0  0  0  0  0  0  0  0  0  0
   19.4867   71.0845   -7.1767 C   0  0  0  0  0  0  0  0  0  0  0  0
   19.8272   71.0172   -8.4652 C   0  0  0  0  0  0  0  0  0  0  0  0
   18.8390   70.5242   -9.4470 C   0  0  0  0  0  0  0  0  0  0  0  0
   16.9349   69.8346   -9.5340 H   0  0  0  0  0  0  0  0  0  0  0  0
   22.1970   73.3545   -3.0579 O   0  0  0  0  0  0  0  0  0  0  0  0
   23.5103   73.8945   -3.8306 P   0  0  2  0  0  0  0  0  0  0  0  0
   24.0927   72.5636   -4.5447 O   0  0  0  0  0  0  0  0  0  0  0  0
   24.4958   74.6044   -2.9481 O   0  0  0  0  0  0  0  0  0  0  0  0
   22.9332   74.7879   -5.0436 O   0  0  0  0  0  0  0  0  0  0  0  0
   20.8632   74.0657   -5.9397 O   0  0  0  0  0  0  0  0  0  0  0  0
   22.0467   76.8820   -8.7211 O   0  0  0  0  0  0  0  0  0  0  0  0
   23.9792   74.9923   -7.6126 O   0  0  0  0  0  0  0  0  0  0  0  0
   19.9616   77.5173   -6.7976 O   0  0  0  0  0  0  0  0  0  0  0  0
   21.9418   76.2957   -7.4237 C   0  0  2  0  0  0  0  0  0  0  0  0
   22.5698   74.9019   -7.4396 C   0  0  2  0  0  0  0  0  0  0  0  0
   20.4570   76.2065   -7.0637 C   0  0  1  0  0  0  0  0  0  0  0  0
   22.2747   74.1540   -6.1387 C   0  0  1  0  0  0  0  0  0  0  0  0
   20.2347   75.3406   -5.8271 C   0  0  1  0  0  0  0  0  0  0  0  0
   22.9817   76.9488   -8.9712 H   0  0  0  0  0  0  0  0  0  0  0  0
   24.1738   75.4660   -8.4361 H   0  0  0  0  0  0  0  0  0  0  0  0
   20.0973   78.0786   -7.5769 H   0  0  0  0  0  0  0  0  0  0  0  0
   18.3530   75.2844   -4.4280 O   0  0  0  0  0  0  0  0  0  0  0  0
   18.0907   74.5074   -6.5556 O   0  0  0  0  0  0  0  0  0  0  0  0
   18.7900   74.9903   -5.6776 C   0  0  0  0  0  0  0  0  0  0  0  0
  1  4  1  0
  1 24  1  0
  1  2  1  1
  1  3  2  0
 25 28  1  0
 25 24  1  0
 25 26  1  6
 25 27  2  0
  6 11  1  0
  6 12  1  0
 29 36  1  0
 29 37  1  0
  9  7  1  1
  7 13  1  0
 10  8  1  1
  8 14  1  0
  4  5  1  0
 36 28  1  1
 33 30  1  6
 30 38  1  0
 34 31  1  1
 31 39  1  0
 35 32  1  1
 32 40  1  0
 41 43  1  0
 15 19  2  0
 42 43  2  0
 16 22  2  0
 12 17  1  6
 17 19  1  0
 17 20  1  0
 18 19  1  0
 18 22  1  0
 18 23  1  0
  9 10  1  0
  9 11  1  0
 10 12  1  0
 11  5  1  6
 33 34  1  0
 33 35  1  0
 34 36  1  0
 35 37  1  0
 37 43  1  6
 20 21  2  0
 21 22  1  0
M  CHG  3   2  -1  26  -1  41  -1
M  END
>  <COMPND>  (21) 
    udp_gluA.pdb 

>  <AUTHOR>  (21) 
    GENERATED BY OPEN BABEL 3.1.1

>  <MASTER>  (21) 
        0    0    0    0    0    0    0    0   56    0   56    0

>  <minimizedAffinity>  (21) 
-6.53781

>  <CNNscore>  (21) 
0.8569728136

>  <CNNaffinity>  (21) 
4.4904112816

>  <CNN_VS>  (21) 
3.8481605053

>  <CNNaffinity_variance>  (21) 
0.3986772597

$$$$
22
     RDKit          3D

 43 45  0  0  0  0  0  0  0  0999 V2000
   20.8447   73.7060   -3.1752 P   0  0  2  0  0  0  0  0  0  0  0  0
   20.4838   74.0600   -1.6379 O   0  0  0  0  0  0  0  0  0  0  0  0
   21.4081   74.8457   -3.9723 O   0  0  0  0  0  0  0  0  0  0  0  0
   19.4830   73.0501   -3.7527 O   0  0  0  0  0  0  0  0  0  0  0  0
   19.1410   71.7369   -3.3491 C   0  0  0  0  0  0  0  0  0  0  0  0
   17.2726   71.9065   -4.8518 O   0  0  0  0  0  0  0  0  0  0  0  0
   15.8139   70.1106   -2.9443 O   0  0  0  0  0  0  0  0  0  0  0  0
   16.5569   68.3942   -4.9287 O   0  0  0  0  0  0  0  0  0  0  0  0
   17.1916   70.1024   -3.3189 C   0  0  1  0  0  0  0  0  0  0  0  0
   17.3514   69.5424   -4.7165 C   0  0  2  0  0  0  0  0  0  0  0  0
   17.6373   71.5468   -3.5016 C   0  0  1  0  0  0  0  0  0  0  0  0
   16.9225   70.7177   -5.5782 C   0  0  2  0  0  0  0  0  0  0  0  0
   15.5063   69.1984   -2.8218 H   0  0  0  0  0  0  0  0  0  0  0  0
   16.8697   67.6745   -4.3577 H   0  0  0  0  0  0  0  0  0  0  0  0
   15.6195   70.3892   -8.0623 O   0  0  0  0  0  0  0  0  0  0  0  0
   19.5718   70.8034  -10.3970 O   0  0  0  0  0  0  0  0  0  0  0  0
   17.5869   70.7354   -6.8507 N   0  0  0  0  0  0  0  0  0  0  0  0
   17.5893   70.5948   -9.2227 N   0  0  0  0  0  0  0  0  0  0  0  0
   16.8397   70.5608   -8.0395 C   0  0  0  0  0  0  0  0  0  0  0  0
   18.9620   70.9258   -6.9126 C   0  0  0  0  0  0  0  0  0  0  0  0
   19.6626   70.9559   -8.0479 C   0  0  0  0  0  0  0  0  0  0  0  0
   18.9578   70.7805   -9.3347 C   0  0  0  0  0  0  0  0  0  0  0  0
   17.0913   70.4734  -10.0632 H   0  0  0  0  0  0  0  0  0  0  0  0
   21.8295   72.4322   -3.0327 O   0  0  0  0  0  0  0  0  0  0  0  0
   23.3046   72.2982   -2.3845 P   0  0  2  0  0  0  0  0  0  0  0  0
   23.9662   73.7481   -2.6682 O   0  0  0  0  0  0  0  0  0  0  0  0
   24.1043   71.1404   -2.9079 O   0  0  0  0  0  0  0  0  0  0  0  0
   23.0508   72.2711   -0.7917 O   0  0  0  0  0  0  0  0  0  0  0  0
   23.8702   70.6181    0.6933 O   0  0  0  0  0  0  0  0  0  0  0  0
   20.5602   72.0144    2.7334 O   0  0  0  0  0  0  0  0  0  0  0  0
   20.4396   71.5598   -0.1498 O   0  0  0  0  0  0  0  0  0  0  0  0
   23.2302   72.8009    3.5722 O   0  0  0  0  0  0  0  0  0  0  0  0
   21.6857   72.1033    1.8597 C   0  0  2  0  0  0  0  0  0  0  0  0
   21.5047   71.1333    0.6918 C   0  0  2  0  0  0  0  0  0  0  0  0
   22.9374   71.7420    2.6626 C   0  0  1  0  0  0  0  0  0  0  0  0
   22.7851   71.0313   -0.1381 C   0  0  1  0  0  0  0  0  0  0  0  0
   24.1434   71.5345    1.7510 C   0  0  1  0  0  0  0  0  0  0  0  0
   19.7528   72.2398    2.2450 H   0  0  0  0  0  0  0  0  0  0  0  0
   19.6240   71.6269    0.3704 H   0  0  0  0  0  0  0  0  0  0  0  0
   22.4704   72.9432    4.1582 H   0  0  0  0  0  0  0  0  0  0  0  0
   24.8090   70.3249    3.6471 O   0  0  0  0  0  0  0  0  0  0  0  0
   26.4196   70.8199    2.1108 O   0  0  0  0  0  0  0  0  0  0  0  0
   25.2592   70.8707    2.4902 C   0  0  0  0  0  0  0  0  0  0  0  0
  1  4  1  0
  1 24  1  0
  1  2  1  1
  1  3  2  0
 25 28  1  0
 25 24  1  0
 25 26  1  1
 25 27  2  0
  6 11  1  0
  6 12  1  0
 29 36  1  0
 29 37  1  0
  9  7  1  6
  7 13  1  0
 10  8  1  1
  8 14  1  0
  4  5  1  0
 36 28  1  1
 33 30  1  1
 30 38  1  0
 34 31  1  6
 31 39  1  0
 35 32  1  1
 32 40  1  0
 41 43  1  0
 15 19  2  0
 42 43  2  0
 16 22  2  0
 12 17  1  6
 17 19  1  0
 17 20  1  0
 18 19  1  0
 18 22  1  0
 18 23  1  0
  9 10  1  0
  9 11  1  0
 10 12  1  0
 11  5  1  6
 33 34  1  0
 33 35  1  0
 34 36  1  0
 35 37  1  0
 37 43  1  1
 20 21  2  0
 21 22  1  0
M  CHG  3   2  -1  26  -1  41  -1
M  END
>  <COMPND>  (22) 
    udp_gluA.pdb 

>  <AUTHOR>  (22) 
    GENERATED BY OPEN BABEL 3.1.1

>  <MASTER>  (22) 
        0    0    0    0    0    0    0    0   56    0   56    0

>  <minimizedAffinity>  (22) 
-7.68473

>  <CNNscore>  (22) 
0.8232166767

>  <CNNaffinity>  (22) 
4.6610031128

>  <CNN_VS>  (22) 
3.8370153904

>  <CNNaffinity_variance>  (22) 
0.0546002164

$$$$
23
     RDKit          3D

 43 45  0  0  0  0  0  0  0  0999 V2000
   23.0034   71.5130   -2.3085 P   0  0  2  0  0  0  0  0  0  0  0  0
   22.7389   73.0947   -2.5259 O   0  0  0  0  0  0  0  0  0  0  0  0
   24.2252   70.9749   -2.9937 O   0  0  0  0  0  0  0  0  0  0  0  0
   21.6013   70.8233   -2.7285 O   0  0  0  0  0  0  0  0  0  0  0  0
   20.9805   71.2327   -3.9333 C   0  0  0  0  0  0  0  0  0  0  0  0
   18.9074   71.9879   -4.8869 O   0  0  0  0  0  0  0  0  0  0  0  0
   17.5704   70.7044   -2.5296 O   0  0  0  0  0  0  0  0  0  0  0  0
   17.1827   68.8677   -4.5075 O   0  0  0  0  0  0  0  0  0  0  0  0
   18.7211   70.2773   -3.2590 C   0  0  1  0  0  0  0  0  0  0  0  0
   18.3103   69.7128   -4.6025 C   0  0  2  0  0  0  0  0  0  0  0  0
   19.5088   71.5165   -3.6616 C   0  0  1  0  0  0  0  0  0  0  0  0
   18.0302   70.9738   -5.4021 C   0  0  2  0  0  0  0  0  0  0  0  0
   17.0511   69.9297   -2.2616 H   0  0  0  0  0  0  0  0  0  0  0  0
   17.4122   68.0795   -3.9898 H   0  0  0  0  0  0  0  0  0  0  0  0
   16.1494   69.9770   -7.2583 O   0  0  0  0  0  0  0  0  0  0  0  0
   19.1266   70.3578  -10.7561 O   0  0  0  0  0  0  0  0  0  0  0  0
   18.2874   70.8022   -6.8040 N   0  0  0  0  0  0  0  0  0  0  0  0
   17.6344   70.1666   -8.9985 N   0  0  0  0  0  0  0  0  0  0  0  0
   17.2741   70.2935   -7.6504 C   0  0  0  0  0  0  0  0  0  0  0  0
   19.5303   71.1375   -7.3272 C   0  0  0  0  0  0  0  0  0  0  0  0
   19.8588   71.0111   -8.6144 C   0  0  0  0  0  0  0  0  0  0  0  0
   18.8574   70.4861   -9.5656 C   0  0  0  0  0  0  0  0  0  0  0  0
   16.9460   69.8126   -9.6068 H   0  0  0  0  0  0  0  0  0  0  0  0
   23.0137   71.3646   -0.6990 O   0  0  0  0  0  0  0  0  0  0  0  0
   21.8826   71.7032    0.4054 P   0  0  2  0  0  0  0  0  0  0  0  0
   20.8526   70.4614    0.2726 O   0  0  0  0  0  0  0  0  0  0  0  0
   21.2474   73.0536    0.2423 O   0  0  0  0  0  0  0  0  0  0  0  0
   22.6149   71.4748    1.8246 O   0  0  0  0  0  0  0  0  0  0  0  0
   23.1811   73.1928    3.3532 O   0  0  0  0  0  0  0  0  0  0  0  0
   25.9064   70.2513    4.3472 O   0  0  0  0  0  0  0  0  0  0  0  0
   25.3058   70.8284    1.5471 O   0  0  0  0  0  0  0  0  0  0  0  0
   23.6004   70.7391    6.0487 O   0  0  0  0  0  0  0  0  0  0  0  0
   24.6594   70.7699    3.8848 C   0  0  2  0  0  0  0  0  0  0  0  0
   24.8925   71.6337    2.6450 C   0  0  2  0  0  0  0  0  0  0  0  0
   24.0492   71.6080    5.0104 C   0  0  1  0  0  0  0  0  0  0  0  0
   23.6205   72.3891    2.2576 C   0  0  1  0  0  0  0  0  0  0  0  0
   22.8621   72.4281    4.5136 C   0  0  1  0  0  0  0  0  0  0  0  0
   26.3129   69.7150    3.6483 H   0  0  0  0  0  0  0  0  0  0  0  0
   26.1124   70.3460    1.7861 H   0  0  0  0  0  0  0  0  0  0  0  0
   24.3465   70.2113    6.3737 H   0  0  0  0  0  0  0  0  0  0  0  0
   23.3163   73.4356    6.5825 O   0  0  0  0  0  0  0  0  0  0  0  0
   21.5592   74.2616    5.3868 O   0  0  0  0  0  0  0  0  0  0  0  0
   22.4853   73.4742    5.5116 C   0  0  0  0  0  0  0  0  0  0  0  0
  1  4  1  0
  1 24  1  0
  1  2  1  1
  1  3  2  0
 25 28  1  0
 25 24  1  0
 25 26  1  6
 25 27  2  0
  6 11  1  0
  6 12  1  0
 29 36  1  0
 29 37  1  0
  9  7  1  1
  7 13  1  0
 10  8  1  1
  8 14  1  0
  4  5  1  0
 36 28  1  1
 33 30  1  1
 30 38  1  0
 34 31  1  6
 31 39  1  0
 35 32  1  1
 32 40  1  0
 41 43  1  0
 15 19  2  0
 42 43  2  0
 16 22  2  0
 12 17  1  6
 17 19  1  0
 17 20  1  0
 18 19  1  0
 18 22  1  0
 18 23  1  0
  9 10  1  0
  9 11  1  0
 10 12  1  0
 11  5  1  6
 33 34  1  0
 33 35  1  0
 34 36  1  0
 35 37  1  0
 37 43  1  1
 20 21  2  0
 21 22  1  0
M  CHG  3   2  -1  26  -1  41  -1
M  END
>  <COMPND>  (23) 
    udp_gluA.pdb 

>  <AUTHOR>  (23) 
    GENERATED BY OPEN BABEL 3.1.1

>  <MASTER>  (23) 
        0    0    0    0    0    0    0    0   56    0   56    0

>  <minimizedAffinity>  (23) 
-8.70412

>  <CNNscore>  (23) 
0.8211184144

>  <CNNaffinity>  (23) 
4.5966777802

>  <CNN_VS>  (23) 
3.7744166851

>  <CNNaffinity_variance>  (23) 
0.0980678424

$$$$
24
     RDKit          3D

 43 45  0  0  0  0  0  0  0  0999 V2000
   23.2045   73.7977   -3.6517 P   0  0  2  0  0  0  0  0  0  0  0  0
   22.7180   75.3368   -3.5361 O   0  0  0  0  0  0  0  0  0  0  0  0
   24.5873   73.6101   -4.2035 O   0  0  0  0  0  0  0  0  0  0  0  0
   22.0148   73.0751   -4.4766 O   0  0  0  0  0  0  0  0  0  0  0  0
   21.0974   73.8847   -5.1889 C   0  0  0  0  0  0  0  0  0  0  0  0
   18.8030   73.4232   -5.7371 O   0  0  0  0  0  0  0  0  0  0  0  0
   18.4774   72.6032   -2.8712 O   0  0  0  0  0  0  0  0  0  0  0  0
   18.6983   70.2076   -4.1551 O   0  0  0  0  0  0  0  0  0  0  0  0
   19.5972   72.4282   -3.7396 C   0  0  1  0  0  0  0  0  0  0  0  0
   19.3142   71.3329   -4.7457 C   0  0  2  0  0  0  0  0  0  0  0  0
   19.6986   73.6597   -4.6293 C   0  0  1  0  0  0  0  0  0  0  0  0
   18.4080   72.0422   -5.7375 C   0  0  2  0  0  0  0  0  0  0  0  0
   18.3922   71.8286   -2.2929 H   0  0  0  0  0  0  0  0  0  0  0  0
   19.3152   69.7910   -3.5324 H   0  0  0  0  0  0  0  0  0  0  0  0
   16.2456   71.1357   -7.3121 O   0  0  0  0  0  0  0  0  0  0  0  0
   19.0216   70.0588  -10.8304 O   0  0  0  0  0  0  0  0  0  0  0  0
   18.5373   71.5200   -7.0685 N   0  0  0  0  0  0  0  0  0  0  0  0
   17.6304   70.5993   -9.0625 N   0  0  0  0  0  0  0  0  0  0  0  0
   17.3877   71.0914   -7.7733 C   0  0  0  0  0  0  0  0  0  0  0  0
   19.7907   71.4380   -7.6627 C   0  0  0  0  0  0  0  0  0  0  0  0
   20.0063   70.9668   -8.8924 C   0  0  0  0  0  0  0  0  0  0  0  0
   18.8584   70.4975   -9.6958 C   0  0  0  0  0  0  0  0  0  0  0  0
   16.8456   70.2930   -9.5720 H   0  0  0  0  0  0  0  0  0  0  0  0
   22.9972   73.2379   -2.1496 O   0  0  0  0  0  0  0  0  0  0  0  0
   23.0483   71.7329   -1.5613 P   0  0  2  0  0  0  0  0  0  0  0  0
   24.2817   71.0624   -2.3672 O   0  0  0  0  0  0  0  0  0  0  0  0
   21.7532   70.9823   -1.6768 O   0  0  0  0  0  0  0  0  0  0  0  0
   23.5920   71.9017   -0.0519 O   0  0  0  0  0  0  0  0  0  0  0  0
   24.7581   70.5366    1.4927 O   0  0  0  0  0  0  0  0  0  0  0  0
   21.9346   72.3282    3.9188 O   0  0  0  0  0  0  0  0  0  0  0  0
   21.2025   71.3560    1.2630 O   0  0  0  0  0  0  0  0  0  0  0  0
   24.7012   73.2174    3.9971 O   0  0  0  0  0  0  0  0  0  0  0  0
   22.8405   72.2402    2.8190 C   0  0  2  0  0  0  0  0  0  0  0  0
   22.4360   71.0757    1.9147 C   0  0  2  0  0  0  0  0  0  0  0  0
   24.2459   72.0143    3.3810 C   0  0  1  0  0  0  0  0  0  0  0  0
   23.5077   70.8060    0.8576 C   0  0  1  0  0  0  0  0  0  0  0  0
   25.2301   71.6270    2.2810 C   0  0  1  0  0  0  0  0  0  0  0  0
   21.0347   72.4717    3.5860 H   0  0  0  0  0  0  0  0  0  0  0  0
   20.5179   71.5284    1.9278 H   0  0  0  0  0  0  0  0  0  0  0  0
   24.0834   73.4750    4.6992 H   0  0  0  0  0  0  0  0  0  0  0  0
   26.3895   70.9753    4.2130 O   0  0  0  0  0  0  0  0  0  0  0  0
   27.4963   70.8006    2.2271 O   0  0  0  0  0  0  0  0  0  0  0  0
   26.4972   71.0940    2.8664 C   0  0  0  0  0  0  0  0  0  0  0  0
  1  4  1  0
  1 24  1  0
  1  2  1  1
  1  3  2  0
 25 28  1  0
 25 24  1  0
 25 26  1  6
 25 27  2  0
  6 11  1  0
  6 12  1  0
 29 36  1  0
 29 37  1  0
  9  7  1  1
  7 13  1  0
 10  8  1  1
  8 14  1  0
  4  5  1  0
 36 28  1  6
 33 30  1  1
 30 38  1  0
 34 31  1  6
 31 39  1  0
 35 32  1  6
 32 40  1  0
 41 43  1  0
 15 19  2  0
 42 43  2  0
 16 22  2  0
 12 17  1  6
 17 19  1  0
 17 20  1  0
 18 19  1  0
 18 22  1  0
 18 23  1  0
  9 10  1  0
  9 11  1  0
 10 12  1  0
 11  5  1  6
 33 34  1  0
 33 35  1  0
 34 36  1  0
 35 37  1  0
 37 43  1  1
 20 21  2  0
 21 22  1  0
M  CHG  3   2  -1  26  -1  41  -1
M  END
>  <COMPND>  (24) 
    udp_gluA.pdb 

>  <AUTHOR>  (24) 
    GENERATED BY OPEN BABEL 3.1.1

>  <MASTER>  (24) 
        0    0    0    0    0    0    0    0   56    0   56    0

>  <minimizedAffinity>  (24) 
-7.31795

>  <CNNscore>  (24) 
0.7707551122

>  <CNNaffinity>  (24) 
4.4343481064

>  <CNN_VS>  (24) 
3.4177963734

>  <CNNaffinity_variance>  (24) 
0.0250156615

$$$$
25
     RDKit          3D

 43 45  0  0  0  0  0  0  0  0999 V2000
   21.8995   72.6217   -5.4961 P   0  0  2  0  0  0  0  0  0  0  0  0
   21.2180   74.0668   -5.2388 O   0  0  0  0  0  0  0  0  0  0  0  0
   23.1580   72.6511   -6.3127 O   0  0  0  0  0  0  0  0  0  0  0  0
   20.6937   71.7247   -6.0956 O   0  0  0  0  0  0  0  0  0  0  0  0
   20.1781   72.0520   -7.3729 C   0  0  0  0  0  0  0  0  0  0  0  0
   18.9366   70.0469   -6.9081 O   0  0  0  0  0  0  0  0  0  0  0  0
   18.2352   70.0275   -9.8235 O   0  0  0  0  0  0  0  0  0  0  0  0
   15.9793   71.0409   -8.6746 O   0  0  0  0  0  0  0  0  0  0  0  0
   18.3944   71.1375   -8.9397 C   0  0  1  0  0  0  0  0  0  0  0  0
   17.2073   71.2381   -8.0054 C   0  0  2  0  0  0  0  0  0  0  0  0
   19.5299   70.8136   -7.9784 C   0  0  1  0  0  0  0  0  0  0  0  0
   17.5061   70.1421   -6.9967 C   0  0  2  0  0  0  0  0  0  0  0  0
   17.5150   70.2112  -10.4473 H   0  0  0  0  0  0  0  0  0  0  0  0
   15.8349   71.7645   -9.3051 H   0  0  0  0  0  0  0  0  0  0  0  0
   16.4441   68.2081   -5.2336 O   0  0  0  0  0  0  0  0  0  0  0  0
   15.5006   71.3830   -2.0283 O   0  0  0  0  0  0  0  0  0  0  0  0
   16.9762   70.4358   -5.6953 N   0  0  0  0  0  0  0  0  0  0  0  0
   15.9743   69.7914   -3.6393 N   0  0  0  0  0  0  0  0  0  0  0  0
   16.4665   69.3911   -4.8885 C   0  0  0  0  0  0  0  0  0  0  0  0
   16.9663   71.7450   -5.2297 C   0  0  0  0  0  0  0  0  0  0  0  0
   16.4940   72.1111   -4.0365 C   0  0  0  0  0  0  0  0  0  0  0  0
   15.9426   71.0805   -3.1325 C   0  0  0  0  0  0  0  0  0  0  0  0
   15.6123   69.0819   -3.0606 H   0  0  0  0  0  0  0  0  0  0  0  0
   22.0804   72.0345   -4.0010 O   0  0  0  0  0  0  0  0  0  0  0  0
   23.3546   72.0389   -3.0059 P   0  0  2  0  0  0  0  0  0  0  0  0
   24.0209   73.4913   -3.2646 O   0  0  0  0  0  0  0  0  0  0  0  0
   24.2935   70.8840   -3.2025 O   0  0  0  0  0  0  0  0  0  0  0  0
   22.7186   72.1404   -1.5269 O   0  0  0  0  0  0  0  0  0  0  0  0
   22.3596   74.0107   -0.1189 O   0  0  0  0  0  0  0  0  0  0  0  0
   23.2039   71.0413    2.6267 O   0  0  0  0  0  0  0  0  0  0  0  0
   24.7488   71.2570    0.1566 O   0  0  0  0  0  0  0  0  0  0  0  0
   20.4662   71.9422    2.2472 O   0  0  0  0  0  0  0  0  0  0  0  0
   22.6956   71.5825    1.4073 C   0  0  2  0  0  0  0  0  0  0  0  0
   23.8332   72.2400    0.6257 C   0  0  2  0  0  0  0  0  0  0  0  0
   21.6243   72.6170    1.7595 C   0  0  1  0  0  0  0  0  0  0  0  0
   23.2927   73.0275   -0.5687 C   0  0  1  0  0  0  0  0  0  0  0  0
   21.2287   73.4462    0.5411 C   0  0  1  0  0  0  0  0  0  0  0  0
   23.8866   70.3812    2.4278 H   0  0  0  0  0  0  0  0  0  0  0  0
   25.0955   70.7534    0.9092 H   0  0  0  0  0  0  0  0  0  0  0  0
   20.7043   71.4106    3.0228 H   0  0  0  0  0  0  0  0  0  0  0  0
   21.0706   75.7863    0.5574 O   0  0  0  0  0  0  0  0  0  0  0  0
   19.3821   74.6228    1.5544 O   0  0  0  0  0  0  0  0  0  0  0  0
   20.4440   74.6498    0.9506 C   0  0  0  0  0  0  0  0  0  0  0  0
  1  4  1  0
  1 24  1  0
  1  2  1  1
  1  3  2  0
 25 28  1  0
 25 24  1  0
 25 26  1  6
 25 27  2  0
  6 11  1  0
  6 12  1  0
 29 36  1  0
 29 37  1  0
  9  7  1  6
  7 13  1  0
 10  8  1  6
  8 14  1  0
  4  5  1  0
 36 28  1  6
 33 30  1  1
 30 38  1  0
 34 31  1  6
 31 39  1  0
 35 32  1  6
 32 40  1  0
 41 43  1  0
 15 19  2  0
 42 43  2  0
 16 22  2  0
 12 17  1  1
 17 19  1  0
 17 20  1  0
 18 19  1  0
 18 22  1  0
 18 23  1  0
  9 10  1  0
  9 11  1  0
 10 12  1  0
 11  5  1  1
 33 34  1  0
 33 35  1  0
 34 36  1  0
 35 37  1  0
 37 43  1  1
 20 21  2  0
 21 22  1  0
M  CHG  3   2  -1  26  -1  41  -1
M  END
>  <COMPND>  (25) 
    udp_gluA.pdb 

>  <AUTHOR>  (25) 
    GENERATED BY OPEN BABEL 3.1.1

>  <MASTER>  (25) 
        0    0    0    0    0    0    0    0   56    0   56    0

>  <minimizedAffinity>  (25) 
-7.52899

>  <CNNscore>  (25) 
0.7696289420

>  <CNNaffinity>  (25) 
4.6523580551

>  <CNN_VS>  (25) 
3.5805892944

>  <CNNaffinity_variance>  (25) 
0.2524686456

$$$$
26
     RDKit          3D

 43 45  0  0  0  0  0  0  0  0999 V2000
   21.8656   72.6241   -5.5494 P   0  0  2  0  0  0  0  0  0  0  0  0
   21.2769   74.1129   -5.3136 O   0  0  0  0  0  0  0  0  0  0  0  0
   23.1216   72.5619   -6.3682 O   0  0  0  0  0  0  0  0  0  0  0  0
   20.6045   71.7956   -6.1333 O   0  0  0  0  0  0  0  0  0  0  0  0
   20.1409   72.0991   -7.4362 C   0  0  0  0  0  0  0  0  0  0  0  0
   18.9893   70.0412   -6.9706 O   0  0  0  0  0  0  0  0  0  0  0  0
   18.1894   70.0515   -9.8605 O   0  0  0  0  0  0  0  0  0  0  0  0
   15.9391   70.9593   -8.6162 O   0  0  0  0  0  0  0  0  0  0  0  0
   18.3386   71.1496   -8.9603 C   0  0  1  0  0  0  0  0  0  0  0  0
   17.1814   71.1887   -7.9848 C   0  0  2  0  0  0  0  0  0  0  0  0
   19.5174   70.8494   -8.0445 C   0  0  1  0  0  0  0  0  0  0  0  0
   17.5541   70.0854   -7.0091 C   0  0  2  0  0  0  0  0  0  0  0  0
   17.4420   70.2204  -10.4560 H   0  0  0  0  0  0  0  0  0  0  0  0
   15.7471   71.6889   -9.2267 H   0  0  0  0  0  0  0  0  0  0  0  0
   16.3180   68.1404   -5.3764 O   0  0  0  0  0  0  0  0  0  0  0  0
   15.6926   71.1540   -1.9455 O   0  0  0  0  0  0  0  0  0  0  0  0
   17.0589   70.3346   -5.6849 N   0  0  0  0  0  0  0  0  0  0  0  0
   16.0068   69.6435   -3.6696 N   0  0  0  0  0  0  0  0  0  0  0  0
   16.4544   69.2883   -4.9488 C   0  0  0  0  0  0  0  0  0  0  0  0
   17.1757   71.6023   -5.1279 C   0  0  0  0  0  0  0  0  0  0  0  0
   16.7444   71.9257   -3.9072 C   0  0  0  0  0  0  0  0  0  0  0  0
   16.1000   70.8904   -3.0728 C   0  0  0  0  0  0  0  0  0  0  0  0
   15.5806   68.9322   -3.1388 H   0  0  0  0  0  0  0  0  0  0  0  0
   22.0130   72.0497   -4.0457 O   0  0  0  0  0  0  0  0  0  0  0  0
   23.2535   72.0927   -3.0099 P   0  0  2  0  0  0  0  0  0  0  0  0
   23.8830   73.5650   -3.2476 O   0  0  0  0  0  0  0  0  0  0  0  0
   24.2332   70.9672   -3.1754 O   0  0  0  0  0  0  0  0  0  0  0  0
   22.5670   72.1739   -1.5523 O   0  0  0  0  0  0  0  0  0  0  0  0
   23.8504   71.0669    0.1020 O   0  0  0  0  0  0  0  0  0  0  0  0
   20.4367   72.0554    2.2084 O   0  0  0  0  0  0  0  0  0  0  0  0
   20.2482   71.0344   -0.5222 O   0  0  0  0  0  0  0  0  0  0  0  0
   22.8872   73.5673    2.6085 O   0  0  0  0  0  0  0  0  0  0  0  0
   21.4509   72.2226    1.2178 C   0  0  2  0  0  0  0  0  0  0  0  0
   21.4351   71.0289    0.2626 C   0  0  2  0  0  0  0  0  0  0  0  0
   22.8006   72.3138    1.9335 C   0  0  1  0  0  0  0  0  0  0  0  0
   22.6480   71.0572   -0.6684 C   0  0  1  0  0  0  0  0  0  0  0  0
   23.9615   72.2087    0.9487 C   0  0  1  0  0  0  0  0  0  0  0  0
   19.5698   71.9950    1.7769 H   0  0  0  0  0  0  0  0  0  0  0  0
   19.4746   71.0168    0.0622 H   0  0  0  0  0  0  0  0  0  0  0  0
   22.1538   73.6469    3.2382 H   0  0  0  0  0  0  0  0  0  0  0  0
   25.5518   73.0193    2.4704 O   0  0  0  0  0  0  0  0  0  0  0  0
   25.9366   70.9648    1.5594 O   0  0  0  0  0  0  0  0  0  0  0  0
   25.2481   71.9682    1.6692 C   0  0  0  0  0  0  0  0  0  0  0  0
  1  4  1  0
  1 24  1  0
  1  2  1  1
  1  3  2  0
 25 28  1  0
 25 24  1  0
 25 26  1  6
 25 27  2  0
  6 11  1  0
  6 12  1  0
 29 36  1  0
 29 37  1  0
  9  7  1  6
  7 13  1  0
 10  8  1  6
  8 14  1  0
  4  5  1  0
 36 28  1  1
 33 30  1  1
 30 38  1  0
 34 31  1  6
 31 39  1  0
 35 32  1  6
 32 40  1  0
 41 43  1  0
 15 19  2  0
 42 43  2  0
 16 22  2  0
 12 17  1  1
 17 19  1  0
 17 20  1  0
 18 19  1  0
 18 22  1  0
 18 23  1  0
  9 10  1  0
  9 11  1  0
 10 12  1  0
 11  5  1  1
 33 34  1  0
 33 35  1  0
 34 36  1  0
 35 37  1  0
 37 43  1  1
 20 21  2  0
 21 22  1  0
M  CHG  3   2  -1  26  -1  41  -1
M  END
>  <COMPND>  (26) 
    udp_gluA.pdb 

>  <AUTHOR>  (26) 
    GENERATED BY OPEN BABEL 3.1.1

>  <MASTER>  (26) 
        0    0    0    0    0    0    0    0   56    0   56    0

>  <minimizedAffinity>  (26) 
-8.11155

>  <CNNscore>  (26) 
0.7680584192

>  <CNNaffinity>  (26) 
4.6885099411

>  <CNN_VS>  (26) 
3.6010494232

>  <CNNaffinity_variance>  (26) 
0.1052722782

$$$$
27
     RDKit          3D

 43 45  0  0  0  0  0  0  0  0999 V2000
   23.0535   71.6089   -2.4585 P   0  0  2  0  0  0  0  0  0  0  0  0
   22.6382   73.0679   -3.0221 O   0  0  0  0  0  0  0  0  0  0  0  0
   24.2444   70.9869   -3.1268 O   0  0  0  0  0  0  0  0  0  0  0  0
   21.6799   70.7572   -2.5358 O   0  0  0  0  0  0  0  0  0  0  0  0
   20.9594   70.7453   -3.7545 C   0  0  0  0  0  0  0  0  0  0  0  0
   18.9807   71.7451   -4.6832 O   0  0  0  0  0  0  0  0  0  0  0  0
   17.4934   70.4588   -2.4194 O   0  0  0  0  0  0  0  0  0  0  0  0
   16.9678   68.7835   -4.5059 O   0  0  0  0  0  0  0  0  0  0  0  0
   18.6107   69.9685   -3.1609 C   0  0  1  0  0  0  0  0  0  0  0  0
   18.1703   69.5234   -4.5393 C   0  0  2  0  0  0  0  0  0  0  0  0
   19.5164   71.1496   -3.4816 C   0  0  1  0  0  0  0  0  0  0  0  0
   18.0213   70.8491   -5.2662 C   0  0  2  0  0  0  0  0  0  0  0  0
   16.9002   69.7220   -2.2028 H   0  0  0  0  0  0  0  0  0  0  0  0
   17.1148   67.9488   -4.0331 H   0  0  0  0  0  0  0  0  0  0  0  0
   16.1077   70.0556   -7.1859 O   0  0  0  0  0  0  0  0  0  0  0  0
   19.1385   70.4470  -10.6362 O   0  0  0  0  0  0  0  0  0  0  0  0
   18.2834   70.7352   -6.6730 N   0  0  0  0  0  0  0  0  0  0  0  0
   17.6193   70.2503   -8.9024 N   0  0  0  0  0  0  0  0  0  0  0  0
   17.2524   70.3281   -7.5524 C   0  0  0  0  0  0  0  0  0  0  0  0
   19.5485   71.0265   -7.1686 C   0  0  0  0  0  0  0  0  0  0  0  0
   19.8832   70.9478   -8.4580 C   0  0  0  0  0  0  0  0  0  0  0  0
   18.8642   70.5292   -9.4428 C   0  0  0  0  0  0  0  0  0  0  0  0
   16.9188   69.9671   -9.5336 H   0  0  0  0  0  0  0  0  0  0  0  0
   23.2308   71.8694   -0.8730 O   0  0  0  0  0  0  0  0  0  0  0  0
   23.3128   73.2438   -0.0259 P   0  0  2  0  0  0  0  0  0  0  0  0
   21.7651   73.7061    0.0798 O   0  0  0  0  0  0  0  0  0  0  0  0
   24.2280   74.2773   -0.6161 O   0  0  0  0  0  0  0  0  0  0  0  0
   23.7023   72.7803    1.4694 O   0  0  0  0  0  0  0  0  0  0  0  0
   24.1430   70.6293    2.3571 O   0  0  0  0  0  0  0  0  0  0  0  0
   22.3591   72.5157    5.5708 O   0  0  0  0  0  0  0  0  0  0  0  0
   21.3016   72.8718    2.8709 O   0  0  0  0  0  0  0  0  0  0  0  0
   25.2359   72.0991    5.5364 O   0  0  0  0  0  0  0  0  0  0  0  0
   23.1465   72.4296    4.3831 C   0  0  2  0  0  0  0  0  0  0  0  0
   22.2836   71.9082    3.2337 C   0  0  2  0  0  0  0  0  0  0  0  0
   24.3079   71.4706    4.6542 C   0  0  1  0  0  0  0  0  0  0  0  0
   23.1408   71.5852    2.0090 C   0  0  1  0  0  0  0  0  0  0  0  0
   25.0354   71.0984    3.3655 C   0  0  1  0  0  0  0  0  0  0  0  0
   21.6146   73.1199    5.4223 H   0  0  0  0  0  0  0  0  0  0  0  0
   20.7542   73.0816    3.6434 H   0  0  0  0  0  0  0  0  0  0  0  0
   24.7854   72.3412    6.3606 H   0  0  0  0  0  0  0  0  0  0  0  0
   27.2063   70.2247    3.2066 O   0  0  0  0  0  0  0  0  0  0  0  0
   25.5909   68.8506    4.0441 O   0  0  0  0  0  0  0  0  0  0  0  0
   25.9383   69.9284    3.5850 C   0  0  0  0  0  0  0  0  0  0  0  0
  1  4  1  0
  1 24  1  0
  1  2  1  6
  1  3  2  0
 25 28  1  0
 25 24  1  0
 25 26  1  1
 25 27  2  0
  6 11  1  0
  6 12  1  0
 29 36  1  0
 29 37  1  0
  9  7  1  1
  7 13  1  0
 10  8  1  1
  8 14  1  0
  4  5  1  0
 36 28  1  1
 33 30  1  1
 30 38  1  0
 34 31  1  6
 31 39  1  0
 35 32  1  1
 32 40  1  0
 41 43  1  0
 15 19  2  0
 42 43  2  0
 16 22  2  0
 12 17  1  6
 17 19  1  0
 17 20  1  0
 18 19  1  0
 18 22  1  0
 18 23  1  0
  9 10  1  0
  9 11  1  0
 10 12  1  0
 11  5  1  6
 33 34  1  0
 33 35  1  0
 34 36  1  0
 35 37  1  0
 37 43  1  1
 20 21  2  0
 21 22  1  0
M  CHG  3   2  -1  26  -1  41  -1
M  END
>  <COMPND>  (27) 
    udp_gluA.pdb 

>  <AUTHOR>  (27) 
    GENERATED BY OPEN BABEL 3.1.1

>  <MASTER>  (27) 
        0    0    0    0    0    0    0    0   56    0   56    0

>  <minimizedAffinity>  (27) 
-8.59831

>  <CNNscore>  (27) 
0.7236743569

>  <CNNaffinity>  (27) 
4.5192499161

>  <CNN_VS>  (27) 
3.2704653740

>  <CNNaffinity_variance>  (27) 
0.0355703309

$$$$
28
     RDKit          3D

 43 45  0  0  0  0  0  0  0  0999 V2000
   21.9549   72.6308   -5.8417 P   0  0  2  0  0  0  0  0  0  0  0  0
   21.3764   74.0438   -5.3053 O   0  0  0  0  0  0  0  0  0  0  0  0
   23.0593   72.7408   -6.8516 O   0  0  0  0  0  0  0  0  0  0  0  0
   20.6355   71.8301   -6.3277 O   0  0  0  0  0  0  0  0  0  0  0  0
   20.1235   72.0927   -7.6213 C   0  0  0  0  0  0  0  0  0  0  0  0
   19.0224   70.0274   -7.0737 O   0  0  0  0  0  0  0  0  0  0  0  0
   18.1584   69.9428   -9.9439 O   0  0  0  0  0  0  0  0  0  0  0  0
   15.9193   70.8425   -8.6739 O   0  0  0  0  0  0  0  0  0  0  0  0
   18.3065   71.0680   -9.0776 C   0  0  1  0  0  0  0  0  0  0  0  0
   17.1707   71.1124   -8.0774 C   0  0  2  0  0  0  0  0  0  0  0  0
   19.5108   70.8153   -8.1810 C   0  0  1  0  0  0  0  0  0  0  0  0
   17.5861   70.0437   -7.0808 C   0  0  2  0  0  0  0  0  0  0  0  0
   17.3949   70.0811  -10.5266 H   0  0  0  0  0  0  0  0  0  0  0  0
   15.6998   71.5513   -9.2996 H   0  0  0  0  0  0  0  0  0  0  0  0
   16.2564   68.1707   -5.4376 O   0  0  0  0  0  0  0  0  0  0  0  0
   15.8258   71.2147   -2.0036 O   0  0  0  0  0  0  0  0  0  0  0  0
   17.1157   70.3202   -5.7530 N   0  0  0  0  0  0  0  0  0  0  0  0
   16.0423   69.6889   -3.7292 N   0  0  0  0  0  0  0  0  0  0  0  0
   16.4596   69.3092   -5.0117 C   0  0  0  0  0  0  0  0  0  0  0  0
   17.3071   71.5796   -5.1976 C   0  0  0  0  0  0  0  0  0  0  0  0
   16.9038   71.9265   -3.9738 C   0  0  0  0  0  0  0  0  0  0  0  0
   16.2093   70.9287   -3.1338 C   0  0  0  0  0  0  0  0  0  0  0  0
   15.5813   69.0024   -3.1949 H   0  0  0  0  0  0  0  0  0  0  0  0
   22.3632   71.8647   -4.4782 O   0  0  0  0  0  0  0  0  0  0  0  0
   23.5709   72.1248   -3.4354 P   0  0  2  0  0  0  0  0  0  0  0  0
   24.5152   73.1806   -4.2190 O   0  0  0  0  0  0  0  0  0  0  0  0
   24.2768   70.8779   -2.9872 O   0  0  0  0  0  0  0  0  0  0  0  0
   22.9042   72.9822   -2.2425 O   0  0  0  0  0  0  0  0  0  0  0  0
   21.7175   71.7018   -0.6421 O   0  0  0  0  0  0  0  0  0  0  0  0
   20.6469   75.5532    0.4012 O   0  0  0  0  0  0  0  0  0  0  0  0
   20.7719   74.7604   -2.4077 O   0  0  0  0  0  0  0  0  0  0  0  0
   22.5844   74.0928    2.0025 O   0  0  0  0  0  0  0  0  0  0  0  0
   21.5049   74.5313   -0.1063 C   0  0  2  0  0  0  0  0  0  0  0  0
   20.8434   73.8586   -1.3094 C   0  0  2  0  0  0  0  0  0  0  0  0
   21.7391   73.5123    1.0111 C   0  0  1  0  0  0  0  0  0  0  0  0
   21.6223   72.6138   -1.7369 C   0  0  1  0  0  0  0  0  0  0  0  0
   22.4072   72.2472    0.4803 C   0  0  1  0  0  0  0  0  0  0  0  0
   20.4839   76.2124   -0.2917 H   0  0  0  0  0  0  0  0  0  0  0  0
   20.2792   75.5527   -2.1435 H   0  0  0  0  0  0  0  0  0  0  0  0
   22.1707   74.8990    2.3484 H   0  0  0  0  0  0  0  0  0  0  0  0
   21.4741   70.1799    1.0777 O   0  0  0  0  0  0  0  0  0  0  0  0
   22.9589   71.1112    2.5362 O   0  0  0  0  0  0  0  0  0  0  0  0
   22.3332   71.1459    1.4872 C   0  0  0  0  0  0  0  0  0  0  0  0
  1  4  1  0
  1 24  1  0
  1  2  1  1
  1  3  2  0
 25 28  1  0
 25 24  1  0
 25 26  1  6
 25 27  2  0
  6 11  1  0
  6 12  1  0
 29 36  1  0
 29 37  1  0
  9  7  1  6
  7 13  1  0
 10  8  1  6
  8 14  1  0
  4  5  1  0
 36 28  1  1
 33 30  1  1
 30 38  1  0
 34 31  1  6
 31 39  1  0
 35 32  1  1
 32 40  1  0
 41 43  1  0
 15 19  2  0
 42 43  2  0
 16 22  2  0
 12 17  1  1
 17 19  1  0
 17 20  1  0
 18 19  1  0
 18 22  1  0
 18 23  1  0
  9 10  1  0
  9 11  1  0
 10 12  1  0
 11  5  1  1
 33 34  1  0
 33 35  1  0
 34 36  1  0
 35 37  1  0
 37 43  1  1
 20 21  2  0
 21 22  1  0
M  CHG  3   2  -1  26  -1  41  -1
M  END
>  <COMPND>  (28) 
    udp_gluA.pdb 

>  <AUTHOR>  (28) 
    GENERATED BY OPEN BABEL 3.1.1

>  <MASTER>  (28) 
        0    0    0    0    0    0    0    0   56    0   56    0

>  <minimizedAffinity>  (28) 
-8.15846

>  <CNNscore>  (28) 
0.7137442231

>  <CNNaffinity>  (28) 
4.5243949890

>  <CNN_VS>  (28) 
3.2292606831

>  <CNNaffinity_variance>  (28) 
0.4038345218

$$$$
29
     RDKit          3D

 43 45  0  0  0  0  0  0  0  0999 V2000
   20.5029   71.9919   -0.8596 P   0  0  2  0  0  0  0  0  0  0  0  0
   20.6938   70.8485    0.2696 O   0  0  0  0  0  0  0  0  0  0  0  0
   19.1551   72.6515   -0.8718 O   0  0  0  0  0  0  0  0  0  0  0  0
   20.9381   71.2572   -2.2339 O   0  0  0  0  0  0  0  0  0  0  0  0
   20.4542   71.7746   -3.4597 C   0  0  0  0  0  0  0  0  0  0  0  0
   20.8177   70.5576   -5.5004 O   0  0  0  0  0  0  0  0  0  0  0  0
   23.1411   72.3957   -5.9643 O   0  0  0  0  0  0  0  0  0  0  0  0
   21.2133   73.4535   -7.5769 O   0  0  0  0  0  0  0  0  0  0  0  0
   21.8731   72.6743   -5.3701 C   0  0  1  0  0  0  0  0  0  0  0  0
   20.7977   72.7351   -6.4342 C   0  0  2  0  0  0  0  0  0  0  0  0
   21.4540   71.4531   -4.5631 C   0  0  1  0  0  0  0  0  0  0  0  0
   20.5574   71.2633   -6.7242 C   0  0  2  0  0  0  0  0  0  0  0  0
   23.4298   73.1617   -6.4853 H   0  0  0  0  0  0  0  0  0  0  0  0
   21.3528   74.3844   -7.3404 H   0  0  0  0  0  0  0  0  0  0  0  0
   19.7116   71.1265   -9.4153 O   0  0  0  0  0  0  0  0  0  0  0  0
   15.3561   70.2446   -8.1924 O   0  0  0  0  0  0  0  0  0  0  0  0
   19.2082   70.9994   -7.1374 N   0  0  0  0  0  0  0  0  0  0  0  0
   17.5429   70.6884   -8.8037 N   0  0  0  0  0  0  0  0  0  0  0  0
   18.8883   70.9521   -8.5149 C   0  0  0  0  0  0  0  0  0  0  0  0
   18.2193   70.7893   -6.1840 C   0  0  0  0  0  0  0  0  0  0  0  0
   16.9412   70.5389   -6.4746 C   0  0  0  0  0  0  0  0  0  0  0  0
   16.5234   70.4734   -7.8904 C   0  0  0  0  0  0  0  0  0  0  0  0
   17.2957   70.6526   -9.7560 H   0  0  0  0  0  0  0  0  0  0  0  0
   21.7398   72.9929   -0.5751 O   0  0  0  0  0  0  0  0  0  0  0  0
   23.2779   72.6933   -0.1773 P   0  0  2  0  0  0  0  0  0  0  0  0
   24.0510   74.0332   -0.6542 O   0  0  0  0  0  0  0  0  0  0  0  0
   23.8277   71.4225   -0.7574 O   0  0  0  0  0  0  0  0  0  0  0  0
   23.3041   72.7600    1.4344 O   0  0  0  0  0  0  0  0  0  0  0  0
   24.6646   71.1817    2.5602 O   0  0  0  0  0  0  0  0  0  0  0  0
   22.3623   72.6650    5.6532 O   0  0  0  0  0  0  0  0  0  0  0  0
   21.1543   72.0732    3.0600 O   0  0  0  0  0  0  0  0  0  0  0  0
   25.1329   73.4975    5.3673 O   0  0  0  0  0  0  0  0  0  0  0  0
   23.0644   72.7150    4.4112 C   0  0  2  0  0  0  0  0  0  0  0  0
   22.4694   71.6900    3.4454 C   0  0  2  0  0  0  0  0  0  0  0  0
   24.5355   72.3957    4.6864 C   0  0  1  0  0  0  0  0  0  0  0  0
   23.3353   71.5520    2.1924 C   0  0  1  0  0  0  0  0  0  0  0  0
   25.3035   72.1482    3.3912 C   0  0  1  0  0  0  0  0  0  0  0  0
   21.4248   72.8647    5.5032 H   0  0  0  0  0  0  0  0  0  0  0  0
   20.5995   72.1629    3.8502 H   0  0  0  0  0  0  0  0  0  0  0  0
   24.6532   73.6656    6.1934 H   0  0  0  0  0  0  0  0  0  0  0  0
   26.9462   70.6166    2.7151 O   0  0  0  0  0  0  0  0  0  0  0  0
   27.3423   71.7887    4.6304 O   0  0  0  0  0  0  0  0  0  0  0  0
   26.6311   71.5233    3.6729 C   0  0  0  0  0  0  0  0  0  0  0  0
  1  4  1  0
  1 24  1  0
  1  2  1  1
  1  3  2  0
 25 28  1  0
 25 24  1  0
 25 26  1  6
 25 27  2  0
  6 11  1  0
  6 12  1  0
 29 36  1  0
 29 37  1  0
  9  7  1  6
  7 13  1  0
 10  8  1  6
  8 14  1  0
  4  5  1  0
 36 28  1  1
 33 30  1  1
 30 38  1  0
 34 31  1  6
 31 39  1  0
 35 32  1  6
 32 40  1  0
 41 43  1  0
 15 19  2  0
 42 43  2  0
 16 22  2  0
 12 17  1  1
 17 19  1  0
 17 20  1  0
 18 19  1  0
 18 22  1  0
 18 23  1  0
  9 10  1  0
  9 11  1  0
 10 12  1  0
 11  5  1  1
 33 34  1  0
 33 35  1  0
 34 36  1  0
 35 37  1  0
 37 43  1  1
 20 21  2  0
 21 22  1  0
M  CHG  3   2  -1  26  -1  41  -1
M  END
>  <COMPND>  (29) 
    udp_gluA.pdb 

>  <AUTHOR>  (29) 
    GENERATED BY OPEN BABEL 3.1.1

>  <MASTER>  (29) 
        0    0    0    0    0    0    0    0   56    0   56    0

>  <minimizedAffinity>  (29) 
-7.38097

>  <CNNscore>  (29) 
0.6738909483

>  <CNNaffinity>  (29) 
4.3337450027

>  <CNN_VS>  (29) 
2.9204714298

>  <CNNaffinity_variance>  (29) 
0.0977510512

$$$$
30
     RDKit          3D

 43 45  0  0  0  0  0  0  0  0999 V2000
   20.0589   73.0567   -1.0192 P   0  0  2  0  0  0  0  0  0  0  0  0
   19.6076   71.5063   -1.1265 O   0  0  0  0  0  0  0  0  0  0  0  0
   18.9404   74.0265   -0.7734 O   0  0  0  0  0  0  0  0  0  0  0  0
   20.9204   73.3046   -2.3661 O   0  0  0  0  0  0  0  0  0  0  0  0
   20.3516   72.9379   -3.6097 C   0  0  0  0  0  0  0  0  0  0  0  0
   20.7422   71.1218   -5.1351 O   0  0  0  0  0  0  0  0  0  0  0  0
   23.3071   72.5078   -5.8365 O   0  0  0  0  0  0  0  0  0  0  0  0
   21.6762   73.1851   -7.9144 O   0  0  0  0  0  0  0  0  0  0  0  0
   22.0354   73.0702   -5.5123 C   0  0  1  0  0  0  0  0  0  0  0  0
   21.0749   72.8960   -6.6697 C   0  0  2  0  0  0  0  0  0  0  0  0
   21.3983   72.2017   -4.4361 C   0  0  1  0  0  0  0  0  0  0  0  0
   20.6812   71.4349   -6.5357 C   0  0  2  0  0  0  0  0  0  0  0  0
   23.7335   73.0458   -6.5224 H   0  0  0  0  0  0  0  0  0  0  0  0
   21.9081   74.1268   -7.9505 H   0  0  0  0  0  0  0  0  0  0  0  0
   20.0144   71.0194   -9.2485 O   0  0  0  0  0  0  0  0  0  0  0  0
   15.5481   70.4633   -8.2548 O   0  0  0  0  0  0  0  0  0  0  0  0
   19.3519   71.1794   -7.0137 N   0  0  0  0  0  0  0  0  0  0  0  0
   17.7904   70.7438   -8.7511 N   0  0  0  0  0  0  0  0  0  0  0  0
   19.1244   70.9847   -8.3966 C   0  0  0  0  0  0  0  0  0  0  0  0
   18.2915   71.1222   -6.1174 C   0  0  0  0  0  0  0  0  0  0  0  0
   17.0254   70.8915   -6.4703 C   0  0  0  0  0  0  0  0  0  0  0  0
   16.7021   70.6783   -7.8962 C   0  0  0  0  0  0  0  0  0  0  0  0
   17.6070   70.6072   -9.7087 H   0  0  0  0  0  0  0  0  0  0  0  0
   21.1899   73.0265    0.1352 O   0  0  0  0  0  0  0  0  0  0  0  0
   22.7457   72.5900    0.0856 P   0  0  2  0  0  0  0  0  0  0  0  0
   23.5053   73.9701   -0.2868 O   0  0  0  0  0  0  0  0  0  0  0  0
   23.0366   71.4522   -0.8496 O   0  0  0  0  0  0  0  0  0  0  0  0
   23.1415   72.3099    1.6243 O   0  0  0  0  0  0  0  0  0  0  0  0
   24.2999   73.5304    3.2909 O   0  0  0  0  0  0  0  0  0  0  0  0
   25.6861   69.6936    3.9426 O   0  0  0  0  0  0  0  0  0  0  0  0
   25.3866   70.7179    1.2231 O   0  0  0  0  0  0  0  0  0  0  0  0
   23.7183   70.8586    5.7373 O   0  0  0  0  0  0  0  0  0  0  0  0
   24.7367   70.6888    3.5604 C   0  0  2  0  0  0  0  0  0  0  0  0
   25.2971   71.5121    2.4004 C   0  0  2  0  0  0  0  0  0  0  0  0
   24.4774   71.5855    4.7731 C   0  0  1  0  0  0  0  0  0  0  0  0
   24.4139   72.7276    2.1153 C   0  0  1  0  0  0  0  0  0  0  0  0
   23.6988   72.8386    4.3831 C   0  0  1  0  0  0  0  0  0  0  0  0
   25.8666   69.1117    3.1875 H   0  0  0  0  0  0  0  0  0  0  0  0
   25.9454   69.9447    1.3969 H   0  0  0  0  0  0  0  0  0  0  0  0
   24.2028   70.0585    5.9939 H   0  0  0  0  0  0  0  0  0  0  0  0
   22.8674   73.5169    6.4688 O   0  0  0  0  0  0  0  0  0  0  0  0
   24.4498   74.8416    5.4991 O   0  0  0  0  0  0  0  0  0  0  0  0
   23.7361   73.8499    5.4822 C   0  0  0  0  0  0  0  0  0  0  0  0
  1  4  1  0
  1 24  1  0
  1  2  1  6
  1  3  2  0
 25 28  1  0
 25 24  1  0
 25 26  1  6
 25 27  2  0
  6 11  1  0
  6 12  1  0
 29 36  1  0
 29 37  1  0
  9  7  1  6
  7 13  1  0
 10  8  1  6
  8 14  1  0
  4  5  1  0
 36 28  1  1
 33 30  1  1
 30 38  1  0
 34 31  1  6
 31 39  1  0
 35 32  1  1
 32 40  1  0
 41 43  1  0
 15 19  2  0
 42 43  2  0
 16 22  2  0
 12 17  1  1
 17 19  1  0
 17 20  1  0
 18 19  1  0
 18 22  1  0
 18 23  1  0
  9 10  1  0
  9 11  1  0
 10 12  1  0
 11  5  1  6
 33 34  1  0
 33 35  1  0
 34 36  1  0
 35 37  1  0
 37 43  1  1
 20 21  2  0
 21 22  1  0
M  CHG  3   2  -1  26  -1  41  -1
M  END
>  <COMPND>  (30) 
    udp_gluA.pdb 

>  <AUTHOR>  (30) 
    GENERATED BY OPEN BABEL 3.1.1

>  <MASTER>  (30) 
        0    0    0    0    0    0    0    0   56    0   56    0

>  <minimizedAffinity>  (30) 
-7.17964

>  <CNNscore>  (30) 
0.5812001824

>  <CNNaffinity>  (30) 
4.3214979172

>  <CNN_VS>  (30) 
2.5116553307

>  <CNNaffinity_variance>  (30) 
0.0444466323

$$$$
31
     RDKit          3D

 43 45  0  0  0  0  0  0  0  0999 V2000
   23.2992   72.0441   -2.3179 P   0  0  2  0  0  0  0  0  0  0  0  0
   24.2654   70.9993   -3.0885 O   0  0  0  0  0  0  0  0  0  0  0  0
   23.8281   73.4452   -2.2241 O   0  0  0  0  0  0  0  0  0  0  0  0
   22.9855   71.3156   -0.9077 O   0  0  0  0  0  0  0  0  0  0  0  0
   23.2729   72.0114    0.2914 C   0  0  0  0  0  0  0  0  0  0  0  0
   23.2746   70.8060    2.3710 O   0  0  0  0  0  0  0  0  0  0  0  0
   20.5167   71.9038    2.7954 O   0  0  0  0  0  0  0  0  0  0  0  0
   22.0510   73.5259    4.3607 O   0  0  0  0  0  0  0  0  0  0  0  0
   21.6502   72.5198    2.1837 C   0  0  1  0  0  0  0  0  0  0  0  0
   22.6595   72.9236    3.2376 C   0  0  2  0  0  0  0  0  0  0  0  0
   22.4075   71.4482    1.4114 C   0  0  1  0  0  0  0  0  0  0  0  0
   23.3164   71.5949    3.5707 C   0  0  2  0  0  0  0  0  0  0  0  0
   20.0169   72.5690    3.2948 H   0  0  0  0  0  0  0  0  0  0  0  0
   21.6476   74.3683    4.0969 H   0  0  0  0  0  0  0  0  0  0  0  0
   24.1428   72.0003    6.2408 O   0  0  0  0  0  0  0  0  0  0  0  0
   28.5875   72.1664    5.0323 O   0  0  0  0  0  0  0  0  0  0  0  0
   24.6833   71.7473    3.9819 N   0  0  0  0  0  0  0  0  0  0  0  0
   26.3556   72.0836    5.6362 N   0  0  0  0  0  0  0  0  0  0  0  0
   24.9913   71.9466    5.3485 C   0  0  0  0  0  0  0  0  0  0  0  0
   25.7015   71.6970    3.0376 C   0  0  0  0  0  0  0  0  0  0  0  0
   26.9974   71.8293    3.3270 C   0  0  0  0  0  0  0  0  0  0  0  0
   27.4042   72.0415    4.7316 C   0  0  0  0  0  0  0  0  0  0  0  0
   26.5945   72.2254    6.5807 H   0  0  0  0  0  0  0  0  0  0  0  0
   21.9017   71.9040   -3.1180 O   0  0  0  0  0  0  0  0  0  0  0  0
   20.4553   72.5760   -2.8536 P   0  0  2  0  0  0  0  0  0  0  0  0
   20.7044   74.1378   -3.1989 O   0  0  0  0  0  0  0  0  0  0  0  0
   19.9023   72.3269   -1.4803 O   0  0  0  0  0  0  0  0  0  0  0  0
   19.5269   72.0360   -4.0573 O   0  0  0  0  0  0  0  0  0  0  0  0
   18.7493   69.8529   -4.5457 O   0  0  0  0  0  0  0  0  0  0  0  0
   19.2197   71.4438   -8.3293 O   0  0  0  0  0  0  0  0  0  0  0  0
   21.2229   71.9294   -6.2591 O   0  0  0  0  0  0  0  0  0  0  0  0
   16.5619   71.1576   -7.1867 O   0  0  0  0  0  0  0  0  0  0  0  0
   18.9370   71.4706   -6.9302 C   0  0  2  0  0  0  0  0  0  0  0  0
   20.1612   70.9882   -6.1515 C   0  0  2  0  0  0  0  0  0  0  0  0
   17.7439   70.5481   -6.6710 C   0  0  1  0  0  0  0  0  0  0  0  0
   19.8241   70.7844   -4.6738 C   0  0  1  0  0  0  0  0  0  0  0  0
   17.5502   70.2936   -5.1790 C   0  0  1  0  0  0  0  0  0  0  0  0
   19.9748   72.0230   -8.5180 H   0  0  0  0  0  0  0  0  0  0  0  0
   21.4418   72.0637   -7.1942 H   0  0  0  0  0  0  0  0  0  0  0  0
   16.6721   71.3251   -8.1358 H   0  0  0  0  0  0  0  0  0  0  0  0
   16.1683   69.1451   -3.6715 O   0  0  0  0  0  0  0  0  0  0  0  0
   16.2838   68.3362   -5.8002 O   0  0  0  0  0  0  0  0  0  0  0  0
   16.6124   69.1527   -4.9527 C   0  0  0  0  0  0  0  0  0  0  0  0
  1  4  1  0
  1 24  1  0
  1  2  1  6
  1  3  2  0
 25 28  1  0
 25 24  1  0
 25 26  1  6
 25 27  2  0
  6 11  1  0
  6 12  1  0
 29 36  1  0
 29 37  1  0
  9  7  1  1
  7 13  1  0
 10  8  1  1
  8 14  1  0
  4  5  1  0
 36 28  1  6
 33 30  1  6
 30 38  1  0
 34 31  1  1
 31 39  1  0
 35 32  1  1
 32 40  1  0
 41 43  1  0
 15 19  2  0
 42 43  2  0
 16 22  2  0
 12 17  1  6
 17 19  1  0
 17 20  1  0
 18 19  1  0
 18 22  1  0
 18 23  1  0
  9 10  1  0
  9 11  1  0
 10 12  1  0
 11  5  1  6
 33 34  1  0
 33 35  1  0
 34 36  1  0
 35 37  1  0
 37 43  1  6
 20 21  2  0
 21 22  1  0
M  CHG  3   2  -1  26  -1  41  -1
M  END
>  <COMPND>  (31) 
    udp_gluA.pdb 

>  <AUTHOR>  (31) 
    GENERATED BY OPEN BABEL 3.1.1

>  <MASTER>  (31) 
        0    0    0    0    0    0    0    0   56    0   56    0

>  <minimizedAffinity>  (31) 
-7.46425

>  <CNNscore>  (31) 
0.5524300337

>  <CNNaffinity>  (31) 
4.2905988693

>  <CNN_VS>  (31) 
2.3702557087

>  <CNNaffinity_variance>  (31) 
0.1462984383

$$$$
32
     RDKit          3D

 43 45  0  0  0  0  0  0  0  0999 V2000
   21.0013   73.9330   -0.3109 P   0  0  2  0  0  0  0  0  0  0  0  0
   19.8999   73.5915    0.8244 O   0  0  0  0  0  0  0  0  0  0  0  0
   21.5263   75.3385   -0.2819 O   0  0  0  0  0  0  0  0  0  0  0  0
   20.2909   73.4767   -1.6912 O   0  0  0  0  0  0  0  0  0  0  0  0
   20.9147   73.8144   -2.9165 C   0  0  0  0  0  0  0  0  0  0  0  0
   21.1616   71.5816   -3.7716 O   0  0  0  0  0  0  0  0  0  0  0  0
   24.0194   72.3065   -4.3183 O   0  0  0  0  0  0  0  0  0  0  0  0
   22.8651   72.5375   -6.7780 O   0  0  0  0  0  0  0  0  0  0  0  0
   22.8472   73.1158   -4.4163 C   0  0  1  0  0  0  0  0  0  0  0  0
   22.0472   72.7330   -5.6434 C   0  0  2  0  0  0  0  0  0  0  0  0
   21.9068   72.7194   -3.2864 C   0  0  1  0  0  0  0  0  0  0  0  0
   21.3636   71.4550   -5.1881 C   0  0  2  0  0  0  0  0  0  0  0  0
   24.6355   72.5416   -5.0302 H   0  0  0  0  0  0  0  0  0  0  0  0
   23.2773   73.3798   -7.0284 H   0  0  0  0  0  0  0  0  0  0  0  0
   20.9977   70.0642   -7.6188 O   0  0  0  0  0  0  0  0  0  0  0  0
   16.4414   70.7552   -7.5396 O   0  0  0  0  0  0  0  0  0  0  0  0
   20.0925   71.2566   -5.8251 N   0  0  0  0  0  0  0  0  0  0  0  0
   18.7289   70.4106   -7.5776 N   0  0  0  0  0  0  0  0  0  0  0  0
   20.0179   70.5435   -7.0450 C   0  0  0  0  0  0  0  0  0  0  0  0
   18.9377   71.7637   -5.2418 C   0  0  0  0  0  0  0  0  0  0  0  0
   17.7159   71.6289   -5.7614 C   0  0  0  0  0  0  0  0  0  0  0  0
   17.5509   70.8978   -7.0348 C   0  0  0  0  0  0  0  0  0  0  0  0
   18.6520   69.9197   -8.4275 H   0  0  0  0  0  0  0  0  0  0  0  0
   22.1223   72.7907   -0.0843 O   0  0  0  0  0  0  0  0  0  0  0  0
   22.1042   71.4502    0.8192 P   0  0  2  0  0  0  0  0  0  0  0  0
   23.5533   70.7894    0.5297 O   0  0  0  0  0  0  0  0  0  0  0  0
   20.9431   70.5387    0.5454 O   0  0  0  0  0  0  0  0  0  0  0  0
   22.1949   71.9804    2.3401 O   0  0  0  0  0  0  0  0  0  0  0  0
   22.7870   74.1710    3.0182 O   0  0  0  0  0  0  0  0  0  0  0  0
   23.8853   71.9432    6.3196 O   0  0  0  0  0  0  0  0  0  0  0  0
   24.4464   70.9698    3.6229 O   0  0  0  0  0  0  0  0  0  0  0  0
   21.4645   73.5515    6.3841 O   0  0  0  0  0  0  0  0  0  0  0  0
   23.1054   72.2716    5.1699 C   0  0  2  0  0  0  0  0  0  0  0  0
   24.0010   72.2857    3.9309 C   0  0  2  0  0  0  0  0  0  0  0  0
   22.4881   73.6536    5.3961 C   0  0  1  0  0  0  0  0  0  0  0  0
   23.2551   72.8545    2.7230 C   0  0  1  0  0  0  0  0  0  0  0  0
   21.8743   74.2063    4.1131 C   0  0  1  0  0  0  0  0  0  0  0  0
   24.2876   71.0687    6.1986 H   0  0  0  0  0  0  0  0  0  0  0  0
   24.9203   70.6026    4.3851 H   0  0  0  0  0  0  0  0  0  0  0  0
   21.8420   73.2007    7.2058 H   0  0  0  0  0  0  0  0  0  0  0  0
   21.5712   76.2701    3.0405 O   0  0  0  0  0  0  0  0  0  0  0  0
   21.3592   76.2367    5.3105 O   0  0  0  0  0  0  0  0  0  0  0  0
   21.5748   75.6634    4.2532 C   0  0  0  0  0  0  0  0  0  0  0  0
  1  4  1  0
  1 24  1  0
  1  2  1  1
  1  3  2  0
 25 28  1  0
 25 24  1  0
 25 26  1  6
 25 27  2  0
  6 11  1  0
  6 12  1  0
 29 36  1  0
 29 37  1  0
  9  7  1  1
  7 13  1  0
 10  8  1  6
  8 14  1  0
  4  5  1  0
 36 28  1  1
 33 30  1  1
 30 38  1  0
 34 31  1  6
 31 39  1  0
 35 32  1  1
 32 40  1  0
 41 43  1  0
 15 19  2  0
 42 43  2  0
 16 22  2  0
 12 17  1  6
 17 19  1  0
 17 20  1  0
 18 19  1  0
 18 22  1  0
 18 23  1  0
  9 10  1  0
  9 11  1  0
 10 12  1  0
 11  5  1  6
 33 34  1  0
 33 35  1  0
 34 36  1  0
 35 37  1  0
 37 43  1  1
 20 21  2  0
 21 22  1  0
M  CHG  3   2  -1  26  -1  41  -1
M  END
>  <COMPND>  (32) 
    udp_gluA.pdb 

>  <AUTHOR>  (32) 
    GENERATED BY OPEN BABEL 3.1.1

>  <MASTER>  (32) 
        0    0    0    0    0    0    0    0   56    0   56    0

>  <minimizedAffinity>  (32) 
-6.71375

>  <CNNscore>  (32) 
0.5477078557

>  <CNNaffinity>  (32) 
4.1197423935

>  <CNN_VS>  (32) 
2.2564153671

>  <CNNaffinity_variance>  (32) 
0.0999909788

$$$$
33
     RDKit          3D

 43 45  0  0  0  0  0  0  0  0999 V2000
   23.2177   71.8245   -2.2793 P   0  0  2  0  0  0  0  0  0  0  0  0
   23.6565   73.3727   -2.1085 O   0  0  0  0  0  0  0  0  0  0  0  0
   24.2005   70.9653   -3.0193 O   0  0  0  0  0  0  0  0  0  0  0  0
   21.7353   71.9095   -2.9221 O   0  0  0  0  0  0  0  0  0  0  0  0
   21.5270   72.7657   -4.0303 C   0  0  0  0  0  0  0  0  0  0  0  0
   20.8442   70.7337   -5.1177 O   0  0  0  0  0  0  0  0  0  0  0  0
   21.5573   72.0920   -7.6941 O   0  0  0  0  0  0  0  0  0  0  0  0
   18.8415   72.3280   -7.6279 O   0  0  0  0  0  0  0  0  0  0  0  0
   20.9783   72.6441   -6.5116 C   0  0  1  0  0  0  0  0  0  0  0  0
   19.5264   72.2307   -6.3966 C   0  0  2  0  0  0  0  0  0  0  0  0
   21.6043   71.9461   -5.3119 C   0  0  1  0  0  0  0  0  0  0  0  0
   19.6444   70.7982   -5.9047 C   0  0  2  0  0  0  0  0  0  0  0  0
   21.1728   72.5225   -8.4742 H   0  0  0  0  0  0  0  0  0  0  0  0
   18.7925   73.2589   -7.8979 H   0  0  0  0  0  0  0  0  0  0  0  0
   17.2095   69.7845   -6.9149 O   0  0  0  0  0  0  0  0  0  0  0  0
   15.4366   69.3220   -2.6856 O   0  0  0  0  0  0  0  0  0  0  0  0
   18.5297   70.4050   -5.0899 N   0  0  0  0  0  0  0  0  0  0  0  0
   16.3284   69.5561   -4.8075 N   0  0  0  0  0  0  0  0  0  0  0  0
   17.3521   69.9084   -5.6970 C   0  0  0  0  0  0  0  0  0  0  0  0
   18.6101   70.5113   -3.7067 C   0  0  0  0  0  0  0  0  0  0  0  0
   17.6261   70.1714   -2.8719 C   0  0  0  0  0  0  0  0  0  0  0  0
   16.3613   69.6445   -3.4252 C   0  0  0  0  0  0  0  0  0  0  0  0
   15.4979   69.2097   -5.2069 H   0  0  0  0  0  0  0  0  0  0  0  0
   22.9281   71.3595   -0.7585 O   0  0  0  0  0  0  0  0  0  0  0  0
   21.7661   71.7896    0.2799 P   0  0  2  0  0  0  0  0  0  0  0  0
   20.8167   70.4797    0.3359 O   0  0  0  0  0  0  0  0  0  0  0  0
   21.0500   73.0570   -0.0876 O   0  0  0  0  0  0  0  0  0  0  0  0
   22.4954   71.8257    1.7184 O   0  0  0  0  0  0  0  0  0  0  0  0
   23.9118   73.4987    2.6151 O   0  0  0  0  0  0  0  0  0  0  0  0
   25.3728   70.0929    4.4411 O   0  0  0  0  0  0  0  0  0  0  0  0
   24.6411   70.0591    1.6130 O   0  0  0  0  0  0  0  0  0  0  0  0
   23.7245   71.9598    5.9406 O   0  0  0  0  0  0  0  0  0  0  0  0
   24.3773   70.9351    3.8601 C   0  0  2  0  0  0  0  0  0  0  0  0
   24.7456   71.2354    2.4069 C   0  0  2  0  0  0  0  0  0  0  0  0
   24.3203   72.2303    4.6732 C   0  0  1  0  0  0  0  0  0  0  0  0
   23.8319   72.3134    1.8225 C   0  0  1  0  0  0  0  0  0  0  0  0
   23.4929   73.2979    3.9632 C   0  0  1  0  0  0  0  0  0  0  0  0
   25.4270   69.2634    3.9408 H   0  0  0  0  0  0  0  0  0  0  0  0
   25.2182   69.3707    1.9784 H   0  0  0  0  0  0  0  0  0  0  0  0
   24.2415   71.2817    6.4029 H   0  0  0  0  0  0  0  0  0  0  0  0
   23.4749   75.6271    3.6873 O   0  0  0  0  0  0  0  0  0  0  0  0
   24.0515   74.8276    5.7434 O   0  0  0  0  0  0  0  0  0  0  0  0
   23.7106   74.6387    4.5854 C   0  0  0  0  0  0  0  0  0  0  0  0
  1  4  1  0
  1 24  1  0
  1  2  1  1
  1  3  2  0
 25 28  1  0
 25 24  1  0
 25 26  1  1
 25 27  2  0
  6 11  1  0
  6 12  1  0
 29 36  1  0
 29 37  1  0
  9  7  1  6
  7 13  1  0
 10  8  1  6
  8 14  1  0
  4  5  1  0
 36 28  1  1
 33 30  1  1
 30 38  1  0
 34 31  1  6
 31 39  1  0
 35 32  1  1
 32 40  1  0
 41 43  1  0
 15 19  2  0
 42 43  2  0
 16 22  2  0
 12 17  1  1
 17 19  1  0
 17 20  1  0
 18 19  1  0
 18 22  1  0
 18 23  1  0
  9 10  1  0
  9 11  1  0
 10 12  1  0
 11  5  1  1
 33 34  1  0
 33 35  1  0
 34 36  1  0
 35 37  1  0
 37 43  1  1
 20 21  2  0
 21 22  1  0
M  CHG  3   2  -1  26  -1  41  -1
M  END
>  <COMPND>  (33) 
    udp_gluA.pdb 

>  <AUTHOR>  (33) 
    GENERATED BY OPEN BABEL 3.1.1

>  <MASTER>  (33) 
        0    0    0    0    0    0    0    0   56    0   56    0

>  <minimizedAffinity>  (33) 
-7.56058

>  <CNNscore>  (33) 
0.5428339839

>  <CNNaffinity>  (33) 
4.2157812119

>  <CNN_VS>  (33) 
2.2884693146

>  <CNNaffinity_variance>  (33) 
0.2148574293

$$$$
34
     RDKit          3D

 43 45  0  0  0  0  0  0  0  0999 V2000
   22.3443   71.4833    1.3492 P   0  0  2  0  0  0  0  0  0  0  0  0
   21.5728   70.0681    1.2049 O   0  0  0  0  0  0  0  0  0  0  0  0
   23.8287   71.4201    1.1386 O   0  0  0  0  0  0  0  0  0  0  0  0
   21.8621   72.0437    2.7884 O   0  0  0  0  0  0  0  0  0  0  0  0
   22.6155   73.0750    3.3994 C   0  0  0  0  0  0  0  0  0  0  0  0
   23.5216   71.8684    5.2705 O   0  0  0  0  0  0  0  0  0  0  0  0
   22.4144   74.0651    6.9852 O   0  0  0  0  0  0  0  0  0  0  0  0
   25.0578   74.7136    6.8194 O   0  0  0  0  0  0  0  0  0  0  0  0
   22.9880   74.1396    5.6798 C   0  0  1  0  0  0  0  0  0  0  0  0
   24.4910   73.9747    5.7577 C   0  0  2  0  0  0  0  0  0  0  0  0
   22.5701   72.8935    4.9112 C   0  0  1  0  0  0  0  0  0  0  0  0
   24.6342   72.4742    5.9476 C   0  0  2  0  0  0  0  0  0  0  0  0
   22.6675   74.8508    7.4953 H   0  0  0  0  0  0  0  0  0  0  0  0
   24.9412   75.6623    6.6515 H   0  0  0  0  0  0  0  0  0  0  0  0
   27.1669   72.6977    7.1772 O   0  0  0  0  0  0  0  0  0  0  0  0
   29.2477   70.4838    3.7112 O   0  0  0  0  0  0  0  0  0  0  0  0
   25.8545   71.9651    5.3885 N   0  0  0  0  0  0  0  0  0  0  0  0
   28.2010   71.5957    5.4493 N   0  0  0  0  0  0  0  0  0  0  0  0
   27.0738   72.1301    6.0872 C   0  0  0  0  0  0  0  0  0  0  0  0
   25.8357   71.3099    4.1632 C   0  0  0  0  0  0  0  0  0  0  0  0
   26.9184   70.8058    3.5678 C   0  0  0  0  0  0  0  0  0  0  0  0
   28.2323   70.9365    4.2311 C   0  0  0  0  0  0  0  0  0  0  0  0
   29.0618   71.7001    5.9156 H   0  0  0  0  0  0  0  0  0  0  0  0
   21.5561   72.4342    0.3064 O   0  0  0  0  0  0  0  0  0  0  0  0
   21.6727   72.5734   -1.3001 P   0  0  2  0  0  0  0  0  0  0  0  0
   22.6780   71.3706   -1.7035 O   0  0  0  0  0  0  0  0  0  0  0  0
   22.1112   73.9300   -1.7705 O   0  0  0  0  0  0  0  0  0  0  0  0
   20.2330   72.1048   -1.8570 O   0  0  0  0  0  0  0  0  0  0  0  0
   19.3848   70.1598   -2.9090 O   0  0  0  0  0  0  0  0  0  0  0  0
   17.5040   73.1571   -5.0414 O   0  0  0  0  0  0  0  0  0  0  0  0
   20.3234   73.4011   -4.3161 O   0  0  0  0  0  0  0  0  0  0  0  0
   16.0268   71.6308   -3.0567 O   0  0  0  0  0  0  0  0  0  0  0  0
   18.0923   72.5474   -3.8924 C   0  0  2  0  0  0  0  0  0  0  0  0
   19.5549   72.2109   -4.1839 C   0  0  2  0  0  0  0  0  0  0  0  0
   17.3054   71.2731   -3.5780 C   0  0  1  0  0  0  0  0  0  0  0  0
   20.1522   71.3538   -3.0670 C   0  0  1  0  0  0  0  0  0  0  0  0
   18.0289   70.4116   -2.5471 C   0  0  1  0  0  0  0  0  0  0  0  0
   17.9878   73.9691   -5.2602 H   0  0  0  0  0  0  0  0  0  0  0  0
   19.9498   73.9498   -5.0230 H   0  0  0  0  0  0  0  0  0  0  0  0
   15.5559   72.1795   -3.7033 H   0  0  0  0  0  0  0  0  0  0  0  0
   18.0426   68.2210   -3.3852 O   0  0  0  0  0  0  0  0  0  0  0  0
   16.5322   68.6976   -1.7449 O   0  0  0  0  0  0  0  0  0  0  0  0
   17.4364   69.0412   -2.4914 C   0  0  0  0  0  0  0  0  0  0  0  0
  1  4  1  0
  1 24  1  0
  1  2  1  6
  1  3  2  0
 25 28  1  0
 25 24  1  0
 25 26  1  6
 25 27  2  0
  6 11  1  0
  6 12  1  0
 29 36  1  0
 29 37  1  0
  9  7  1  1
  7 13  1  0
 10  8  1  1
  8 14  1  0
  4  5  1  0
 36 28  1  1
 33 30  1  6
 30 38  1  0
 34 31  1  1
 31 39  1  0
 35 32  1  1
 32 40  1  0
 41 43  1  0
 15 19  2  0
 42 43  2  0
 16 22  2  0
 12 17  1  6
 17 19  1  0
 17 20  1  0
 18 19  1  0
 18 22  1  0
 18 23  1  0
  9 10  1  0
  9 11  1  0
 10 12  1  0
 11  5  1  6
 33 34  1  0
 33 35  1  0
 34 36  1  0
 35 37  1  0
 37 43  1  6
 20 21  2  0
 21 22  1  0
M  CHG  3   2  -1  26  -1  41  -1
M  END
>  <COMPND>  (34) 
    udp_gluA.pdb 

>  <AUTHOR>  (34) 
    GENERATED BY OPEN BABEL 3.1.1

>  <MASTER>  (34) 
        0    0    0    0    0    0    0    0   56    0   56    0

>  <minimizedAffinity>  (34) 
-6.65365

>  <CNNscore>  (34) 
0.4974214435

>  <CNNaffinity>  (34) 
4.0962395668

>  <CNN_VS>  (34) 
2.0375573635

>  <CNNaffinity_variance>  (34) 
0.1123010144

$$$$
35
     RDKit          3D

 43 45  0  0  0  0  0  0  0  0999 V2000
   21.2820   75.7690   -2.6928 P   0  0  2  0  0  0  0  0  0  0  0  0
   20.2280   76.3883   -1.6323 O   0  0  0  0  0  0  0  0  0  0  0  0
   21.2654   76.4091   -4.0499 O   0  0  0  0  0  0  0  0  0  0  0  0
   20.9767   74.1804   -2.6613 O   0  0  0  0  0  0  0  0  0  0  0  0
   20.4305   73.5739   -3.8182 C   0  0  0  0  0  0  0  0  0  0  0  0
   20.7724   71.4510   -4.8925 O   0  0  0  0  0  0  0  0  0  0  0  0
   23.4327   72.5284   -5.7603 O   0  0  0  0  0  0  0  0  0  0  0  0
   21.9146   72.8079   -8.0083 O   0  0  0  0  0  0  0  0  0  0  0  0
   22.1837   73.2067   -5.6248 C   0  0  1  0  0  0  0  0  0  0  0  0
   21.2556   72.8275   -6.7593 C   0  0  2  0  0  0  0  0  0  0  0  0
   21.4627   72.6264   -4.4159 C   0  0  1  0  0  0  0  0  0  0  0  0
   20.7772   71.4514   -6.3289 C   0  0  2  0  0  0  0  0  0  0  0  0
   23.9117   72.8821   -6.5265 H   0  0  0  0  0  0  0  0  0  0  0  0
   22.1995   73.7069   -8.2377 H   0  0  0  0  0  0  0  0  0  0  0  0
   20.2027   69.8112   -8.5552 O   0  0  0  0  0  0  0  0  0  0  0  0
   15.6596   70.4003   -8.0474 O   0  0  0  0  0  0  0  0  0  0  0  0
   19.4531   71.1593   -6.8004 N   0  0  0  0  0  0  0  0  0  0  0  0
   17.9406   70.1070   -8.3008 N   0  0  0  0  0  0  0  0  0  0  0  0
   19.2737   70.3236   -7.9280 C   0  0  0  0  0  0  0  0  0  0  0  0
   18.3502   71.6963   -6.1475 C   0  0  0  0  0  0  0  0  0  0  0  0
   17.0855   71.4807   -6.5145 C   0  0  0  0  0  0  0  0  0  0  0  0
   16.8110   70.6195   -7.6835 C   0  0  0  0  0  0  0  0  0  0  0  0
   17.7905   69.5301   -9.0843 H   0  0  0  0  0  0  0  0  0  0  0  0
   22.6924   75.8835   -1.9115 O   0  0  0  0  0  0  0  0  0  0  0  0
   24.1012   75.1264   -2.1478 P   0  0  2  0  0  0  0  0  0  0  0  0
   25.1903   76.1931   -1.6034 O   0  0  0  0  0  0  0  0  0  0  0  0
   24.3291   74.6770   -3.5620 O   0  0  0  0  0  0  0  0  0  0  0  0
   24.1150   73.9378   -1.0571 O   0  0  0  0  0  0  0  0  0  0  0  0
   22.2895   73.0651    0.1737 O   0  0  0  0  0  0  0  0  0  0  0  0
   25.4407   72.4063    2.7628 O   0  0  0  0  0  0  0  0  0  0  0  0
   25.2340   74.9216    1.2915 O   0  0  0  0  0  0  0  0  0  0  0  0
   24.3086   70.1969    1.2503 O   0  0  0  0  0  0  0  0  0  0  0  0
   24.8049   72.5422    1.4919 C   0  0  2  0  0  0  0  0  0  0  0  0
   24.2043   73.9426    1.3673 C   0  0  2  0  0  0  0  0  0  0  0  0
   23.7060   71.4813    1.3971 C   0  0  1  0  0  0  0  0  0  0  0  0
   23.3217   74.0507    0.1230 C   0  0  1  0  0  0  0  0  0  0  0  0
   22.7924   71.7311    0.2007 C   0  0  1  0  0  0  0  0  0  0  0  0
   26.1430   73.0705    2.8459 H   0  0  0  0  0  0  0  0  0  0  0  0
   25.7980   74.8586    2.0778 H   0  0  0  0  0  0  0  0  0  0  0  0
   24.8929   70.0257    2.0054 H   0  0  0  0  0  0  0  0  0  0  0  0
   21.5491   70.1797    1.4452 O   0  0  0  0  0  0  0  0  0  0  0  0
   20.6538   70.8855   -0.5295 O   0  0  0  0  0  0  0  0  0  0  0  0
   21.5505   70.9064    0.3003 C   0  0  0  0  0  0  0  0  0  0  0  0
  1  4  1  0
  1 24  1  0
  1  2  1  1
  1  3  2  0
 25 28  1  0
 25 24  1  0
 25 26  1  1
 25 27  2  0
  6 11  1  0
  6 12  1  0
 29 36  1  0
 29 37  1  0
  9  7  1  6
  7 13  1  0
 10  8  1  6
  8 14  1  0
  4  5  1  0
 36 28  1  6
 33 30  1  1
 30 38  1  0
 34 31  1  6
 31 39  1  0
 35 32  1  6
 32 40  1  0
 41 43  1  0
 15 19  2  0
 42 43  2  0
 16 22  2  0
 12 17  1  6
 17 19  1  0
 17 20  1  0
 18 19  1  0
 18 22  1  0
 18 23  1  0
  9 10  1  0
  9 11  1  0
 10 12  1  0
 11  5  1  6
 33 34  1  0
 33 35  1  0
 34 36  1  0
 35 37  1  0
 37 43  1  1
 20 21  2  0
 21 22  1  0
M  CHG  3   2  -1  26  -1  41  -1
M  END
>  <COMPND>  (35) 
    udp_gluA.pdb 

>  <AUTHOR>  (35) 
    GENERATED BY OPEN BABEL 3.1.1

>  <MASTER>  (35) 
        0    0    0    0    0    0    0    0   56    0   56    0

>  <minimizedAffinity>  (35) 
-6.50949

>  <CNNscore>  (35) 
0.4876195490

>  <CNNaffinity>  (35) 
4.1747021675

>  <CNN_VS>  (35) 
2.0356664658

>  <CNNaffinity_variance>  (35) 
0.1544940770

$$$$
36
     RDKit          3D

 43 45  0  0  0  0  0  0  0  0999 V2000
   22.9367   72.5529   -3.6692 P   0  0  2  0  0  0  0  0  0  0  0  0
   23.9300   71.3174   -3.3436 O   0  0  0  0  0  0  0  0  0  0  0  0
   23.4723   73.9079   -3.3103 O   0  0  0  0  0  0  0  0  0  0  0  0
   21.5478   72.1340   -2.9526 O   0  0  0  0  0  0  0  0  0  0  0  0
   21.5704   71.0981   -1.9877 C   0  0  0  0  0  0  0  0  0  0  0  0
   20.9536   70.7905    0.3150 O   0  0  0  0  0  0  0  0  0  0  0  0
   19.0393   73.0632   -0.0876 O   0  0  0  0  0  0  0  0  0  0  0  0
   21.1250   74.2614    1.1969 O   0  0  0  0  0  0  0  0  0  0  0  0
   20.3426   72.8711   -0.6381 C   0  0  1  0  0  0  0  0  0  0  0  0
   21.3991   73.1152    0.4186 C   0  0  2  0  0  0  0  0  0  0  0  0
   20.5169   71.3862   -0.9259 C   0  0  1  0  0  0  0  0  0  0  0  0
   21.3386   71.8308    1.2276 C   0  0  2  0  0  0  0  0  0  0  0  0
   18.9046   74.0048    0.1045 H   0  0  0  0  0  0  0  0  0  0  0  0
   21.1761   75.0523    0.6367 H   0  0  0  0  0  0  0  0  0  0  0  0
   22.0866   72.4576    3.8779 O   0  0  0  0  0  0  0  0  0  0  0  0
   26.2208   70.4837    3.3716 O   0  0  0  0  0  0  0  0  0  0  0  0
   22.6044   71.4925    1.8142 N   0  0  0  0  0  0  0  0  0  0  0  0
   24.1453   71.4748    3.6229 N   0  0  0  0  0  0  0  0  0  0  0  0
   22.8806   71.8539    3.1540 C   0  0  0  0  0  0  0  0  0  0  0  0
   23.5553   70.8095    1.0656 C   0  0  0  0  0  0  0  0  0  0  0  0
   24.7565   70.4550    1.5263 C   0  0  0  0  0  0  0  0  0  0  0  0
   25.1245   70.7954    2.9163 C   0  0  0  0  0  0  0  0  0  0  0  0
   24.3613   71.7173    4.5523 H   0  0  0  0  0  0  0  0  0  0  0  0
   22.6104   72.3520   -5.2395 O   0  0  0  0  0  0  0  0  0  0  0  0
   21.6915   73.2152   -6.2515 P   0  0  2  0  0  0  0  0  0  0  0  0
   22.4062   72.9871   -7.6859 O   0  0  0  0  0  0  0  0  0  0  0  0
   21.5328   74.6564   -5.8619 O   0  0  0  0  0  0  0  0  0  0  0  0
   20.3075   72.3922   -6.3507 O   0  0  0  0  0  0  0  0  0  0  0  0
   19.7784   70.2309   -5.5397 O   0  0  0  0  0  0  0  0  0  0  0  0
   17.3958   70.4721   -8.9061 O   0  0  0  0  0  0  0  0  0  0  0  0
   20.1459   71.4558   -8.9647 O   0  0  0  0  0  0  0  0  0  0  0  0
   16.2211   70.7645   -6.2631 O   0  0  0  0  0  0  0  0  0  0  0  0
   18.0937   70.9710   -7.7650 C   0  0  2  0  0  0  0  0  0  0  0  0
   19.5874   70.6797   -7.9110 C   0  0  2  0  0  0  0  0  0  0  0  0
   17.5335   70.2711   -6.5248 C   0  0  1  0  0  0  0  0  0  0  0  0
   20.3348   70.9904   -6.6134 C   0  0  1  0  0  0  0  0  0  0  0  0
   18.4048   70.5283   -5.2987 C   0  0  1  0  0  0  0  0  0  0  0  0
   17.7349   70.9028   -9.7066 H   0  0  0  0  0  0  0  0  0  0  0  0
   19.6763   71.2638   -9.7911 H   0  0  0  0  0  0  0  0  0  0  0  0
   15.6564   70.6071   -7.0359 H   0  0  0  0  0  0  0  0  0  0  0  0
   17.1231   68.6919   -4.6014 O   0  0  0  0  0  0  0  0  0  0  0  0
   18.5230   69.6272   -3.0637 O   0  0  0  0  0  0  0  0  0  0  0  0
   18.0487   69.5932   -4.1892 C   0  0  0  0  0  0  0  0  0  0  0  0
  1  4  1  0
  1 24  1  0
  1  2  1  1
  1  3  2  0
 25 28  1  0
 25 24  1  0
 25 26  1  6
 25 27  2  0
  6 11  1  0
  6 12  1  0
 29 36  1  0
 29 37  1  0
  9  7  1  1
  7 13  1  0
 10  8  1  1
  8 14  1  0
  4  5  1  0
 36 28  1  1
 33 30  1  6
 30 38  1  0
 34 31  1  6
 31 39  1  0
 35 32  1  1
 32 40  1  0
 41 43  1  0
 15 19  2  0
 42 43  2  0
 16 22  2  0
 12 17  1  6
 17 19  1  0
 17 20  1  0
 18 19  1  0
 18 22  1  0
 18 23  1  0
  9 10  1  0
  9 11  1  0
 10 12  1  0
 11  5  1  6
 33 34  1  0
 33 35  1  0
 34 36  1  0
 35 37  1  0
 37 43  1  1
 20 21  2  0
 21 22  1  0
M  CHG  3   2  -1  26  -1  41  -1
M  END
>  <COMPND>  (36) 
    udp_gluA.pdb 

>  <AUTHOR>  (36) 
    GENERATED BY OPEN BABEL 3.1.1

>  <MASTER>  (36) 
        0    0    0    0    0    0    0    0   56    0   56    0

>  <minimizedAffinity>  (36) 
-7.59330

>  <CNNscore>  (36) 
0.4847688973

>  <CNNaffinity>  (36) 
4.2196693420

>  <CNN_VS>  (36) 
2.0455644131

>  <CNNaffinity_variance>  (36) 
0.1421603858

$$$$
37
     RDKit          3D

 43 45  0  0  0  0  0  0  0  0999 V2000
   22.9725   72.1008   -2.1266 P   0  0  2  0  0  0  0  0  0  0  0  0
   22.5295   70.8366   -3.0345 O   0  0  0  0  0  0  0  0  0  0  0  0
   23.7526   73.1585   -2.8508 O   0  0  0  0  0  0  0  0  0  0  0  0
   23.7146   71.4262   -0.8568 O   0  0  0  0  0  0  0  0  0  0  0  0
   23.8540   72.1884    0.3281 C   0  0  0  0  0  0  0  0  0  0  0  0
   23.9610   70.4983    2.0339 O   0  0  0  0  0  0  0  0  0  0  0  0
   21.6059   71.8723    3.2818 O   0  0  0  0  0  0  0  0  0  0  0  0
   23.6889   72.7645    4.7988 O   0  0  0  0  0  0  0  0  0  0  0  0
   22.7210   72.4377    2.5923 C   0  0  1  0  0  0  0  0  0  0  0  0
   23.9574   72.3868    3.4647 C   0  0  2  0  0  0  0  0  0  0  0  0
   23.0952   71.4981    1.4542 C   0  0  1  0  0  0  0  0  0  0  0  0
   24.3707   70.9301    3.3412 C   0  0  2  0  0  0  0  0  0  0  0  0
   21.3485   72.4551    4.0137 H   0  0  0  0  0  0  0  0  0  0  0  0
   23.4304   73.6996    4.8243 H   0  0  0  0  0  0  0  0  0  0  0  0
   25.5998   68.5733    4.2956 O   0  0  0  0  0  0  0  0  0  0  0  0
   29.8216   70.3521    3.7896 O   0  0  0  0  0  0  0  0  0  0  0  0
   25.7892   70.7503    3.4691 N   0  0  0  0  0  0  0  0  0  0  0  0
   27.7013   69.4618    4.0436 N   0  0  0  0  0  0  0  0  0  0  0  0
   26.3042   69.5271    3.9596 C   0  0  0  0  0  0  0  0  0  0  0  0
   26.6537   71.7771    3.1096 C   0  0  0  0  0  0  0  0  0  0  0  0
   27.9832   71.7001    3.1952 C   0  0  0  0  0  0  0  0  0  0  0  0
   28.6021   70.4564    3.6987 C   0  0  0  0  0  0  0  0  0  0  0  0
   28.0832   68.6207    4.3842 H   0  0  0  0  0  0  0  0  0  0  0  0
   21.5707   72.6075   -1.5012 O   0  0  0  0  0  0  0  0  0  0  0  0
   20.2483   71.7894   -1.0590 P   0  0  2  0  0  0  0  0  0  0  0  0
   19.3517   72.9113   -0.3123 O   0  0  0  0  0  0  0  0  0  0  0  0
   20.5277   70.5689   -0.2305 O   0  0  0  0  0  0  0  0  0  0  0  0
   19.4672   71.4967   -2.4399 O   0  0  0  0  0  0  0  0  0  0  0  0
   17.9540   69.6884   -2.2179 O   0  0  0  0  0  0  0  0  0  0  0  0
   17.6990   70.5069   -6.2594 O   0  0  0  0  0  0  0  0  0  0  0  0
   20.2890   70.5121   -4.9079 O   0  0  0  0  0  0  0  0  0  0  0  0
   15.5654   71.3327   -4.4659 O   0  0  0  0  0  0  0  0  0  0  0  0
   17.8817   70.8124   -4.8769 C   0  0  2  0  0  0  0  0  0  0  0  0
   19.0789   70.0315   -4.3341 C   0  0  2  0  0  0  0  0  0  0  0  0
   16.6052   70.4152   -4.1321 C   0  0  1  0  0  0  0  0  0  0  0  0
   19.1667   70.1529   -2.8121 C   0  0  1  0  0  0  0  0  0  0  0  0
   16.8115   70.4406   -2.6204 C   0  0  1  0  0  0  0  0  0  0  0  0
   18.4979   70.7508   -6.7529 H   0  0  0  0  0  0  0  0  0  0  0  0
   20.2401   70.4383   -5.8736 H   0  0  0  0  0  0  0  0  0  0  0  0
   15.4242   71.3263   -5.4255 H   0  0  0  0  0  0  0  0  0  0  0  0
   14.5589   70.4942   -1.9686 O   0  0  0  0  0  0  0  0  0  0  0  0
   15.7691   68.6542   -1.3780 O   0  0  0  0  0  0  0  0  0  0  0  0
   15.6891   69.7463   -1.9201 C   0  0  0  0  0  0  0  0  0  0  0  0
  1  4  1  0
  1 24  1  0
  1  2  1  6
  1  3  2  0
 25 28  1  0
 25 24  1  0
 25 26  1  1
 25 27  2  0
  6 11  1  0
  6 12  1  0
 29 36  1  0
 29 37  1  0
  9  7  1  1
  7 13  1  0
 10  8  1  1
  8 14  1  0
  4  5  1  0
 36 28  1  6
 33 30  1  6
 30 38  1  0
 34 31  1  6
 31 39  1  0
 35 32  1  1
 32 40  1  0
 41 43  1  0
 15 19  2  0
 42 43  2  0
 16 22  2  0
 12 17  1  6
 17 19  1  0
 17 20  1  0
 18 19  1  0
 18 22  1  0
 18 23  1  0
  9 10  1  0
  9 11  1  0
 10 12  1  0
 11  5  1  6
 33 34  1  0
 33 35  1  0
 34 36  1  0
 35 37  1  0
 37 43  1  1
 20 21  2  0
 21 22  1  0
M  CHG  3   2  -1  26  -1  41  -1
M  END
>  <COMPND>  (37) 
    udp_gluA.pdb 

>  <AUTHOR>  (37) 
    GENERATED BY OPEN BABEL 3.1.1

>  <MASTER>  (37) 
        0    0    0    0    0    0    0    0   56    0   56    0

>  <minimizedAffinity>  (37) 
-7.26047

>  <CNNscore>  (37) 
0.4759938121

>  <CNNaffinity>  (37) 
4.1218976974

>  <CNN_VS>  (37) 
1.9619977474

>  <CNNaffinity_variance>  (37) 
0.2819345593

$$$$
38
     RDKit          3D

 43 45  0  0  0  0  0  0  0  0999 V2000
   23.2152   72.1234   -2.7613 P   0  0  2  0  0  0  0  0  0  0  0  0
   23.7770   73.6104   -3.0644 O   0  0  0  0  0  0  0  0  0  0  0  0
   24.1031   71.0046   -3.2214 O   0  0  0  0  0  0  0  0  0  0  0  0
   21.7223   72.1375   -3.3850 O   0  0  0  0  0  0  0  0  0  0  0  0
   21.4660   72.9622   -4.5069 C   0  0  0  0  0  0  0  0  0  0  0  0
   20.8291   70.8766   -5.5181 O   0  0  0  0  0  0  0  0  0  0  0  0
   21.3854   72.1974   -8.1520 O   0  0  0  0  0  0  0  0  0  0  0  0
   18.6664   72.3223   -7.9853 O   0  0  0  0  0  0  0  0  0  0  0  0
   20.8289   72.7549   -6.9612 C   0  0  1  0  0  0  0  0  0  0  0  0
   19.4012   72.2847   -6.7798 C   0  0  2  0  0  0  0  0  0  0  0  0
   21.5291   72.1141   -5.7707 C   0  0  1  0  0  0  0  0  0  0  0  0
   19.5985   70.8713   -6.2589 C   0  0  2  0  0  0  0  0  0  0  0  0
   20.9536   72.5916   -8.9265 H   0  0  0  0  0  0  0  0  0  0  0  0
   18.5679   73.2432   -8.2753 H   0  0  0  0  0  0  0  0  0  0  0  0
   17.1466   69.7906   -7.1517 O   0  0  0  0  0  0  0  0  0  0  0  0
   15.5839   69.3015   -2.8433 O   0  0  0  0  0  0  0  0  0  0  0  0
   18.5333   70.4532   -5.3920 N   0  0  0  0  0  0  0  0  0  0  0  0
   16.3702   69.5490   -5.0051 N   0  0  0  0  0  0  0  0  0  0  0  0
   17.3421   69.9236   -5.9422 C   0  0  0  0  0  0  0  0  0  0  0  0
   18.6748   70.5677   -4.0144 C   0  0  0  0  0  0  0  0  0  0  0  0
   17.7396   70.2063   -3.1338 C   0  0  0  0  0  0  0  0  0  0  0  0
   16.4648   69.6444   -3.6261 C   0  0  0  0  0  0  0  0  0  0  0  0
   15.5314   69.1794   -5.3643 H   0  0  0  0  0  0  0  0  0  0  0  0
   22.9437   72.1558   -1.1681 O   0  0  0  0  0  0  0  0  0  0  0  0
   21.9336   73.0544   -0.2816 P   0  0  2  0  0  0  0  0  0  0  0  0
   20.6205   72.1166   -0.1528 O   0  0  0  0  0  0  0  0  0  0  0  0
   21.6659   74.4191   -0.8470 O   0  0  0  0  0  0  0  0  0  0  0  0
   22.5787   73.0571    1.1970 O   0  0  0  0  0  0  0  0  0  0  0  0
   24.2519   71.5722    1.9748 O   0  0  0  0  0  0  0  0  0  0  0  0
   22.3693   72.6358    5.4952 O   0  0  0  0  0  0  0  0  0  0  0  0
   20.8062   72.0611    3.0950 O   0  0  0  0  0  0  0  0  0  0  0  0
   24.9613   73.7694    4.8263 O   0  0  0  0  0  0  0  0  0  0  0  0
   22.8457   72.8265    4.1630 C   0  0  2  0  0  0  0  0  0  0  0  0
   22.1975   71.7982    3.2356 C   0  0  2  0  0  0  0  0  0  0  0  0
   24.3657   72.6493    4.1744 C   0  0  1  0  0  0  0  0  0  0  0  0
   22.8507   71.8199    1.8530 C   0  0  1  0  0  0  0  0  0  0  0  0
   24.9262   72.5543    2.7583 C   0  0  1  0  0  0  0  0  0  0  0  0
   21.4053   72.7436    5.5125 H   0  0  0  0  0  0  0  0  0  0  0  0
   20.3854   72.0491    3.9686 H   0  0  0  0  0  0  0  0  0  0  0  0
   24.6129   73.8413    5.7287 H   0  0  0  0  0  0  0  0  0  0  0  0
   26.4716   70.9723    1.9771 O   0  0  0  0  0  0  0  0  0  0  0  0
   27.2461   72.5577    3.4213 O   0  0  0  0  0  0  0  0  0  0  0  0
   26.3354   72.0583    2.7777 C   0  0  0  0  0  0  0  0  0  0  0  0
  1  4  1  0
  1 24  1  0
  1  2  1  6
  1  3  2  0
 25 28  1  0
 25 24  1  0
 25 26  1  1
 25 27  2  0
  6 11  1  0
  6 12  1  0
 29 36  1  0
 29 37  1  0
  9  7  1  6
  7 13  1  0
 10  8  1  6
  8 14  1  0
  4  5  1  0
 36 28  1  1
 33 30  1  1
 30 38  1  0
 34 31  1  6
 31 39  1  0
 35 32  1  6
 32 40  1  0
 41 43  1  0
 15 19  2  0
 42 43  2  0
 16 22  2  0
 12 17  1  1
 17 19  1  0
 17 20  1  0
 18 19  1  0
 18 22  1  0
 18 23  1  0
  9 10  1  0
  9 11  1  0
 10 12  1  0
 11  5  1  1
 33 34  1  0
 33 35  1  0
 34 36  1  0
 35 37  1  0
 37 43  1  1
 20 21  2  0
 21 22  1  0
M  CHG  3   2  -1  26  -1  41  -1
M  END
>  <COMPND>  (38) 
    udp_gluA.pdb 

>  <AUTHOR>  (38) 
    GENERATED BY OPEN BABEL 3.1.1

>  <MASTER>  (38) 
        0    0    0    0    0    0    0    0   56    0   56    0

>  <minimizedAffinity>  (38) 
-7.56691

>  <CNNscore>  (38) 
0.4549478889

>  <CNNaffinity>  (38) 
4.0689930916

>  <CNN_VS>  (38) 
1.8511798382

>  <CNNaffinity_variance>  (38) 
0.1996534616

$$$$
39
     RDKit          3D

 43 45  0  0  0  0  0  0  0  0999 V2000
   17.6790   69.9983   -2.8743 P   0  0  2  0  0  0  0  0  0  0  0  0
   17.4494   68.5192   -2.2591 O   0  0  0  0  0  0  0  0  0  0  0  0
   16.4466   70.8509   -2.9511 O   0  0  0  0  0  0  0  0  0  0  0  0
   18.4309   69.7219   -4.2801 O   0  0  0  0  0  0  0  0  0  0  0  0
   18.3898   70.7258   -5.2776 C   0  0  0  0  0  0  0  0  0  0  0  0
   16.3396   70.6552   -6.5305 O   0  0  0  0  0  0  0  0  0  0  0  0
   17.9983   69.6905   -8.8347 O   0  0  0  0  0  0  0  0  0  0  0  0
   17.6334   72.3274   -9.4260 O   0  0  0  0  0  0  0  0  0  0  0  0
   18.3269   70.6391   -7.8195 C   0  0  1  0  0  0  0  0  0  0  0  0
   17.6008   71.9444   -8.0670 C   0  0  2  0  0  0  0  0  0  0  0  0
   17.6988   70.1676   -6.5151 C   0  0  1  0  0  0  0  0  0  0  0  0
   16.1971   71.6210   -7.5841 C   0  0  2  0  0  0  0  0  0  0  0  0
   18.3889   69.9705   -9.6778 H   0  0  0  0  0  0  0  0  0  0  0  0
   18.5481   72.5229   -9.6849 H   0  0  0  0  0  0  0  0  0  0  0  0
   14.8415   73.5145   -9.1821 O   0  0  0  0  0  0  0  0  0  0  0  0
   13.6146   76.0096   -5.5060 O   0  0  0  0  0  0  0  0  0  0  0  0
   15.5148   72.7750   -7.0706 N   0  0  0  0  0  0  0  0  0  0  0  0
   14.2326   74.7559   -7.3498 N   0  0  0  0  0  0  0  0  0  0  0  0
   14.8651   73.6642   -7.9590 C   0  0  0  0  0  0  0  0  0  0  0  0
   15.4924   73.0156   -5.7022 C   0  0  0  0  0  0  0  0  0  0  0  0
   14.8852   74.0605   -5.1363 C   0  0  0  0  0  0  0  0  0  0  0  0
   14.1835   75.0378   -5.9941 C   0  0  0  0  0  0  0  0  0  0  0  0
   13.7751   75.3900   -7.9481 H   0  0  0  0  0  0  0  0  0  0  0  0
   18.8567   70.5993   -1.9444 O   0  0  0  0  0  0  0  0  0  0  0  0
   19.3679   72.1177   -1.7281 P   0  0  2  0  0  0  0  0  0  0  0  0
   18.0645   72.8644   -1.1249 O   0  0  0  0  0  0  0  0  0  0  0  0
   19.9322   72.7592   -2.9626 O   0  0  0  0  0  0  0  0  0  0  0  0
   20.3971   72.0304   -0.4888 O   0  0  0  0  0  0  0  0  0  0  0  0
   22.5742   72.5762   -1.2447 O   0  0  0  0  0  0  0  0  0  0  0  0
   23.2642   71.6782    2.7284 O   0  0  0  0  0  0  0  0  0  0  0  0
   21.4553   70.0321    1.1307 O   0  0  0  0  0  0  0  0  0  0  0  0
   23.2419   74.4463    1.8406 O   0  0  0  0  0  0  0  0  0  0  0  0
   22.5160   72.1603    1.6123 C   0  0  2  0  0  0  0  0  0  0  0  0
   22.3200   71.0303    0.6011 C   0  0  2  0  0  0  0  0  0  0  0  0
   23.3006   73.3113    0.9787 C   0  0  1  0  0  0  0  0  0  0  0  0
   21.7268   71.5614   -0.7046 C   0  0  1  0  0  0  0  0  0  0  0  0
   22.7216   73.6994   -0.3788 C   0  0  1  0  0  0  0  0  0  0  0  0
   22.7849   70.9459    3.1472 H   0  0  0  0  0  0  0  0  0  0  0  0
   21.8255   69.6909    1.9595 H   0  0  0  0  0  0  0  0  0  0  0  0
   23.6074   74.2126    2.7082 H   0  0  0  0  0  0  0  0  0  0  0  0
   23.1654   74.8973   -2.3459 O   0  0  0  0  0  0  0  0  0  0  0  0
   24.7502   74.9636   -0.7079 O   0  0  0  0  0  0  0  0  0  0  0  0
   23.6694   74.5784   -1.1280 C   0  0  0  0  0  0  0  0  0  0  0  0
  1  4  1  0
  1 24  1  0
  1  2  1  1
  1  3  2  0
 25 28  1  0
 25 24  1  0
 25 26  1  1
 25 27  2  0
  6 11  1  0
  6 12  1  0
 29 36  1  0
 29 37  1  0
  9  7  1  6
  7 13  1  0
 10  8  1  6
  8 14  1  0
  4  5  1  0
 36 28  1  1
 33 30  1  1
 30 38  1  0
 34 31  1  1
 31 39  1  0
 35 32  1  1
 32 40  1  0
 41 43  1  0
 15 19  2  0
 42 43  2  0
 16 22  2  0
 12 17  1  1
 17 19  1  0
 17 20  1  0
 18 19  1  0
 18 22  1  0
 18 23  1  0
  9 10  1  0
  9 11  1  0
 10 12  1  0
 11  5  1  1
 33 34  1  0
 33 35  1  0
 34 36  1  0
 35 37  1  0
 37 43  1  6
 20 21  2  0
 21 22  1  0
M  CHG  3   2  -1  26  -1  41  -1
M  END
>  <COMPND>  (39) 
    udp_gluA.pdb 

>  <AUTHOR>  (39) 
    GENERATED BY OPEN BABEL 3.1.1

>  <MASTER>  (39) 
        0    0    0    0    0    0    0    0   56    0   56    0

>  <minimizedAffinity>  (39) 
-6.50574

>  <CNNscore>  (39) 
0.4505451620

>  <CNNaffinity>  (39) 
4.0509581566

>  <CNN_VS>  (39) 
1.8251396418

>  <CNNaffinity_variance>  (39) 
0.2484934330

$$$$
40
     RDKit          3D

 43 45  0  0  0  0  0  0  0  0999 V2000
   20.5683   73.0689    1.4222 P   0  0  2  0  0  0  0  0  0  0  0  0
   19.5325   74.2626    1.0744 O   0  0  0  0  0  0  0  0  0  0  0  0
   20.2285   72.2721    2.6475 O   0  0  0  0  0  0  0  0  0  0  0  0
   22.0120   73.7994    1.4372 O   0  0  0  0  0  0  0  0  0  0  0  0
   22.9619   73.3997    2.4080 C   0  0  0  0  0  0  0  0  0  0  0  0
   25.3439   73.1092    2.2698 O   0  0  0  0  0  0  0  0  0  0  0  0
   24.7600   70.5089    0.8954 O   0  0  0  0  0  0  0  0  0  0  0  0
   25.3579   69.7189    3.4360 O   0  0  0  0  0  0  0  0  0  0  0  0
   24.0547   71.1463    1.9607 C   0  0  1  0  0  0  0  0  0  0  0  0
   24.8303   71.0163    3.2545 C   0  0  2  0  0  0  0  0  0  0  0  0
   24.0922   72.6486    1.7163 C   0  0  1  0  0  0  0  0  0  0  0  0
   25.9122   72.0685    3.0806 C   0  0  2  0  0  0  0  0  0  0  0  0
   24.7496   69.5479    1.0298 H   0  0  0  0  0  0  0  0  0  0  0  0
   24.6300   69.0858    3.5422 H   0  0  0  0  0  0  0  0  0  0  0  0
   27.8616   70.9152    4.7677 O   0  0  0  0  0  0  0  0  0  0  0  0
   27.4604   74.3117    7.8575 O   0  0  0  0  0  0  0  0  0  0  0  0
   26.3362   72.6304    4.3318 N   0  0  0  0  0  0  0  0  0  0  0  0
   27.6592   72.6074    6.3055 N   0  0  0  0  0  0  0  0  0  0  0  0
   27.3224   71.9714    5.1034 C   0  0  0  0  0  0  0  0  0  0  0  0
   25.7788   73.8210    4.7818 C   0  0  0  0  0  0  0  0  0  0  0  0
   26.1101   74.4152    5.9298 C   0  0  0  0  0  0  0  0  0  0  0  0
   27.1321   73.7913    6.7956 C   0  0  0  0  0  0  0  0  0  0  0  0
   28.3421   72.1664    6.8608 H   0  0  0  0  0  0  0  0  0  0  0  0
   20.6086   72.2127    0.0518 O   0  0  0  0  0  0  0  0  0  0  0  0
   21.4416   72.4365   -1.3156 P   0  0  2  0  0  0  0  0  0  0  0  0
   22.5140   71.2240   -1.2981 O   0  0  0  0  0  0  0  0  0  0  0  0
   22.0533   73.8012   -1.4476 O   0  0  0  0  0  0  0  0  0  0  0  0
   20.4083   72.0492   -2.4923 O   0  0  0  0  0  0  0  0  0  0  0  0
   19.6318   69.9035   -3.1265 O   0  0  0  0  0  0  0  0  0  0  0  0
   19.4910   71.9434   -6.7164 O   0  0  0  0  0  0  0  0  0  0  0  0
   21.7629   72.2788   -4.9107 O   0  0  0  0  0  0  0  0  0  0  0  0
   17.0408   71.4021   -5.2486 O   0  0  0  0  0  0  0  0  0  0  0  0
   19.4175   71.7943   -5.2985 C   0  0  2  0  0  0  0  0  0  0  0  0
   20.7569   71.2827   -4.7676 C   0  0  2  0  0  0  0  0  0  0  0  0
   18.3034   70.7929   -4.9855 C   0  0  1  0  0  0  0  0  0  0  0  0
   20.6480   70.8931   -3.2928 C   0  0  1  0  0  0  0  0  0  0  0  0
   18.3399   70.3581   -3.5232 C   0  0  1  0  0  0  0  0  0  0  0  0
   20.1926   72.5754   -6.9393 H   0  0  0  0  0  0  0  0  0  0  0  0
   21.8372   72.5309   -5.8441 H   0  0  0  0  0  0  0  0  0  0  0  0
   17.0047   71.6836   -6.1762 H   0  0  0  0  0  0  0  0  0  0  0  0
   17.0552   68.6505   -4.4903 O   0  0  0  0  0  0  0  0  0  0  0  0
   17.1953   68.6851   -2.2147 O   0  0  0  0  0  0  0  0  0  0  0  0
   17.4798   69.1559   -3.3057 C   0  0  0  0  0  0  0  0  0  0  0  0
  1  4  1  0
  1 24  1  0
  1  2  1  6
  1  3  2  0
 25 28  1  0
 25 24  1  0
 25 26  1  1
 25 27  2  0
  6 11  1  0
  6 12  1  0
 29 36  1  0
 29 37  1  0
  9  7  1  6
  7 13  1  0
 10  8  1  6
  8 14  1  0
  4  5  1  0
 36 28  1  1
 33 30  1  6
 30 38  1  0
 34 31  1  1
 31 39  1  0
 35 32  1  1
 32 40  1  0
 41 43  1  0
 15 19  2  0
 42 43  2  0
 16 22  2  0
 12 17  1  1
 17 19  1  0
 17 20  1  0
 18 19  1  0
 18 22  1  0
 18 23  1  0
  9 10  1  0
  9 11  1  0
 10 12  1  0
 11  5  1  1
 33 34  1  0
 33 35  1  0
 34 36  1  0
 35 37  1  0
 37 43  1  6
 20 21  2  0
 21 22  1  0
M  CHG  3   2  -1  26  -1  41  -1
M  END
>  <COMPND>  (40) 
    udp_gluA.pdb 

>  <AUTHOR>  (40) 
    GENERATED BY OPEN BABEL 3.1.1

>  <MASTER>  (40) 
        0    0    0    0    0    0    0    0   56    0   56    0

>  <minimizedAffinity>  (40) 
-6.38529

>  <CNNscore>  (40) 
0.4460938871

>  <CNNaffinity>  (40) 
4.0566239357

>  <CNN_VS>  (40) 
1.8096351624

>  <CNNaffinity_variance>  (40) 
0.0812042356

$$$$
41
     RDKit          3D

 43 45  0  0  0  0  0  0  0  0999 V2000
   22.9938   71.7356   -2.7014 P   0  0  2  0  0  0  0  0  0  0  0  0
   23.2002   73.3067   -2.3729 O   0  0  0  0  0  0  0  0  0  0  0  0
   24.2136   71.0308   -3.2183 O   0  0  0  0  0  0  0  0  0  0  0  0
   21.7015   71.7088   -3.6747 O   0  0  0  0  0  0  0  0  0  0  0  0
   20.8732   70.5606   -3.6672 C   0  0  0  0  0  0  0  0  0  0  0  0
   18.9309   71.6217   -4.6049 O   0  0  0  0  0  0  0  0  0  0  0  0
   17.3804   70.3164   -2.3950 O   0  0  0  0  0  0  0  0  0  0  0  0
   16.8554   68.6992   -4.5269 O   0  0  0  0  0  0  0  0  0  0  0  0
   18.4996   69.8197   -3.1292 C   0  0  1  0  0  0  0  0  0  0  0  0
   18.0732   69.4146   -4.5243 C   0  0  2  0  0  0  0  0  0  0  0  0
   19.4344   70.9886   -3.4086 C   0  0  1  0  0  0  0  0  0  0  0  0
   17.9632   70.7589   -5.2233 C   0  0  2  0  0  0  0  0  0  0  0  0
   16.7688   69.5874   -2.2046 H   0  0  0  0  0  0  0  0  0  0  0  0
   16.9776   67.8513   -4.0708 H   0  0  0  0  0  0  0  0  0  0  0  0
   16.0816   69.9903   -7.1843 O   0  0  0  0  0  0  0  0  0  0  0  0
   19.1601   70.4563  -10.5827 O   0  0  0  0  0  0  0  0  0  0  0  0
   18.2462   70.6709   -6.6280 N   0  0  0  0  0  0  0  0  0  0  0  0
   17.6169   70.2221   -8.8749 N   0  0  0  0  0  0  0  0  0  0  0  0
   17.2301   70.2745   -7.5293 C   0  0  0  0  0  0  0  0  0  0  0  0
   19.5169   70.9768   -7.0999 C   0  0  0  0  0  0  0  0  0  0  0  0
   19.8706   70.9223   -8.3855 C   0  0  0  0  0  0  0  0  0  0  0  0
   18.8681   70.5163   -9.3922 C   0  0  0  0  0  0  0  0  0  0  0  0
   16.9270   69.9467   -9.5211 H   0  0  0  0  0  0  0  0  0  0  0  0
   22.4144   71.1474   -1.3118 O   0  0  0  0  0  0  0  0  0  0  0  0
   21.4824   71.8261   -0.1784 P   0  0  2  0  0  0  0  0  0  0  0  0
   20.6697   70.5675    0.4346 O   0  0  0  0  0  0  0  0  0  0  0  0
   20.6101   72.9387   -0.6836 O   0  0  0  0  0  0  0  0  0  0  0  0
   22.5075   72.2570    0.9903 O   0  0  0  0  0  0  0  0  0  0  0  0
   23.6835   70.8143    2.4548 O   0  0  0  0  0  0  0  0  0  0  0  0
   23.3611   74.2451    4.7338 O   0  0  0  0  0  0  0  0  0  0  0  0
   21.0965   73.3034    3.1467 O   0  0  0  0  0  0  0  0  0  0  0  0
   25.8928   73.5581    3.4809 O   0  0  0  0  0  0  0  0  0  0  0  0
   23.4850   73.4867    3.5307 C   0  0  2  0  0  0  0  0  0  0  0  0
   22.2819   72.5541    3.3875 C   0  0  2  0  0  0  0  0  0  0  0  0
   24.7801   72.6757    3.6142 C   0  0  1  0  0  0  0  0  0  0  0  0
   22.4890   71.5665    2.2383 C   0  0  1  0  0  0  0  0  0  0  0  0
   24.8534   71.6277    2.5074 C   0  0  1  0  0  0  0  0  0  0  0  0
   22.5449   74.7687    4.7036 H   0  0  0  0  0  0  0  0  0  0  0  0
   20.9591   73.9323    3.8719 H   0  0  0  0  0  0  0  0  0  0  0  0
   25.8579   74.2302    4.1794 H   0  0  0  0  0  0  0  0  0  0  0  0
   25.4240   69.5019    3.3180 O   0  0  0  0  0  0  0  0  0  0  0  0
   27.1257   70.8185    2.5632 O   0  0  0  0  0  0  0  0  0  0  0  0
   25.9378   70.6380    2.7850 C   0  0  0  0  0  0  0  0  0  0  0  0
  1  4  1  0
  1 24  1  0
  1  2  1  1
  1  3  2  0
 25 28  1  0
 25 24  1  0
 25 26  1  1
 25 27  2  0
  6 11  1  0
  6 12  1  0
 29 36  1  0
 29 37  1  0
  9  7  1  1
  7 13  1  0
 10  8  1  1
  8 14  1  0
  4  5  1  0
 36 28  1  6
 33 30  1  1
 30 38  1  0
 34 31  1  6
 31 39  1  0
 35 32  1  6
 32 40  1  0
 41 43  1  0
 15 19  2  0
 42 43  2  0
 16 22  2  0
 12 17  1  6
 17 19  1  0
 17 20  1  0
 18 19  1  0
 18 22  1  0
 18 23  1  0
  9 10  1  0
  9 11  1  0
 10 12  1  0
 11  5  1  6
 33 34  1  0
 33 35  1  0
 34 36  1  0
 35 37  1  0
 37 43  1  1
 20 21  2  0
 21 22  1  0
M  CHG  3   2  -1  26  -1  41  -1
M  END
>  <COMPND>  (41) 
    udp_gluA.pdb 

>  <AUTHOR>  (41) 
    GENERATED BY OPEN BABEL 3.1.1

>  <MASTER>  (41) 
        0    0    0    0    0    0    0    0   56    0   56    0

>  <minimizedAffinity>  (41) 
-8.29447

>  <CNNscore>  (41) 
0.8885660768

>  <CNNaffinity>  (41) 
4.7878694534

>  <CNN_VS>  (41) 
4.2543382645

>  <CNNaffinity_variance>  (41) 
0.0281418655

$$$$
42
     RDKit          3D

 43 45  0  0  0  0  0  0  0  0999 V2000
   22.9378   71.7818   -3.3654 P   0  0  2  0  0  0  0  0  0  0  0  0
   22.6529   71.9708   -4.9472 O   0  0  0  0  0  0  0  0  0  0  0  0
   24.2062   71.0521   -3.0328 O   0  0  0  0  0  0  0  0  0  0  0  0
   21.5754   71.1152   -2.8021 O   0  0  0  0  0  0  0  0  0  0  0  0
   20.7137   70.4627   -3.7166 C   0  0  0  0  0  0  0  0  0  0  0  0
   18.8559   71.6210   -4.7089 O   0  0  0  0  0  0  0  0  0  0  0  0
   17.1762   70.3916   -2.5504 O   0  0  0  0  0  0  0  0  0  0  0  0
   16.6357   68.8059   -4.7020 O   0  0  0  0  0  0  0  0  0  0  0  0
   18.2909   69.8406   -3.2523 C   0  0  1  0  0  0  0  0  0  0  0  0
   17.8870   69.4594   -4.6607 C   0  0  2  0  0  0  0  0  0  0  0  0
   19.2908   70.9617   -3.5000 C   0  0  1  0  0  0  0  0  0  0  0  0
   17.8654   70.8086   -5.3587 C   0  0  2  0  0  0  0  0  0  0  0  0
   16.5236   69.6938   -2.3807 H   0  0  0  0  0  0  0  0  0  0  0  0
   16.7015   67.9522   -4.2450 H   0  0  0  0  0  0  0  0  0  0  0  0
   16.0003   70.1717   -7.3817 O   0  0  0  0  0  0  0  0  0  0  0  0
   19.2070   70.4527  -10.6805 O   0  0  0  0  0  0  0  0  0  0  0  0
   18.1859   70.7086   -6.7545 N   0  0  0  0  0  0  0  0  0  0  0  0
   17.5994   70.3113   -9.0226 N   0  0  0  0  0  0  0  0  0  0  0  0
   17.1749   70.3827   -7.6893 C   0  0  0  0  0  0  0  0  0  0  0  0
   19.4878   70.9338   -7.1850 C   0  0  0  0  0  0  0  0  0  0  0  0
   19.8771   70.8623   -8.4594 C   0  0  0  0  0  0  0  0  0  0  0  0
   18.8825   70.5262   -9.4991 C   0  0  0  0  0  0  0  0  0  0  0  0
   16.9137   70.0839   -9.6915 H   0  0  0  0  0  0  0  0  0  0  0  0
   22.8631   73.2943   -2.8000 O   0  0  0  0  0  0  0  0  0  0  0  0
   21.8848   74.5233   -3.1824 P   0  0  2  0  0  0  0  0  0  0  0  0
   22.4321   75.7334   -2.2569 O   0  0  0  0  0  0  0  0  0  0  0  0
   20.4238   74.2243   -3.0091 O   0  0  0  0  0  0  0  0  0  0  0  0
   22.3108   74.9338   -4.6832 O   0  0  0  0  0  0  0  0  0  0  0  0
   23.6502   76.8349   -5.1314 O   0  0  0  0  0  0  0  0  0  0  0  0
   21.8575   76.1866   -8.7966 O   0  0  0  0  0  0  0  0  0  0  0  0
   20.3116   75.9486   -6.3292 O   0  0  0  0  0  0  0  0  0  0  0  0
   24.6382   75.4476   -8.3812 O   0  0  0  0  0  0  0  0  0  0  0  0
   22.4132   75.8180   -7.5343 C   0  0  2  0  0  0  0  0  0  0  0  0
   21.6242   76.4919   -6.4114 C   0  0  2  0  0  0  0  0  0  0  0  0
   23.8730   76.2765   -7.5083 C   0  0  1  0  0  0  0  0  0  0  0  0
   22.3245   76.3083   -5.0643 C   0  0  1  0  0  0  0  0  0  0  0  0
   24.4621   76.1806   -6.1039 C   0  0  1  0  0  0  0  0  0  0  0  0
   20.9298   75.9054   -8.8362 H   0  0  0  0  0  0  0  0  0  0  0  0
   19.8615   76.0614   -7.1807 H   0  0  0  0  0  0  0  0  0  0  0  0
   24.2734   75.4995   -9.2785 H   0  0  0  0  0  0  0  0  0  0  0  0
   26.7923   76.1258   -6.3664 O   0  0  0  0  0  0  0  0  0  0  0  0
   25.8684   78.0959   -5.6850 O   0  0  0  0  0  0  0  0  0  0  0  0
   25.7542   76.9260   -6.0186 C   0  0  0  0  0  0  0  0  0  0  0  0
  1  4  1  0
  1 24  1  0
  1  2  1  6
  1  3  2  0
 25 28  1  0
 25 24  1  0
 25 26  1  1
 25 27  2  0
  6 11  1  0
  6 12  1  0
 29 36  1  0
 29 37  1  0
  9  7  1  1
  7 13  1  0
 10  8  1  1
  8 14  1  0
  4  5  1  0
 36 28  1  6
 33 30  1  6
 30 38  1  0
 34 31  1  1
 31 39  1  0
 35 32  1  6
 32 40  1  0
 41 43  1  0
 15 19  2  0
 42 43  2  0
 16 22  2  0
 12 17  1  6
 17 19  1  0
 17 20  1  0
 18 19  1  0
 18 22  1  0
 18 23  1  0
  9 10  1  0
  9 11  1  0
 10 12  1  0
 11  5  1  6
 33 34  1  0
 33 35  1  0
 34 36  1  0
 35 37  1  0
 37 43  1  6
 20 21  2  0
 21 22  1  0
M  CHG  3   2  -1  26  -1  41  -1
M  END
>  <COMPND>  (42) 
    udp_gluA.pdb 

>  <AUTHOR>  (42) 
    GENERATED BY OPEN BABEL 3.1.1

>  <MASTER>  (42) 
        0    0    0    0    0    0    0    0   56    0   56    0

>  <minimizedAffinity>  (42) 
-6.91916

>  <CNNscore>  (42) 
0.8817020059

>  <CNNaffinity>  (42) 
4.7561407089

>  <CNN_VS>  (42) 
4.1934986115

>  <CNNaffinity_variance>  (42) 
0.1136211902

$$$$
43
     RDKit          3D

 43 45  0  0  0  0  0  0  0  0999 V2000
   21.4807   73.0966   -4.9417 P   0  0  2  0  0  0  0  0  0  0  0  0
   21.6843   74.5148   -4.1892 O   0  0  0  0  0  0  0  0  0  0  0  0
   21.9734   73.0547   -6.3585 O   0  0  0  0  0  0  0  0  0  0  0  0
   19.9100   72.7685   -4.7340 O   0  0  0  0  0  0  0  0  0  0  0  0
   19.5279   71.9563   -3.6391 C   0  0  0  0  0  0  0  0  0  0  0  0
   17.5564   72.0126   -5.0130 O   0  0  0  0  0  0  0  0  0  0  0  0
   16.2370   70.3932   -2.8617 O   0  0  0  0  0  0  0  0  0  0  0  0
   16.8335   68.5113   -4.7429 O   0  0  0  0  0  0  0  0  0  0  0  0
   17.5841   70.3439   -3.3321 C   0  0  1  0  0  0  0  0  0  0  0  0
   17.6423   69.6676   -4.6854 C   0  0  2  0  0  0  0  0  0  0  0  0
   18.0170   71.7647   -3.6670 C   0  0  1  0  0  0  0  0  0  0  0  0
   17.1538   70.7696   -5.6100 C   0  0  2  0  0  0  0  0  0  0  0  0
   15.9381   69.4966   -2.6413 H   0  0  0  0  0  0  0  0  0  0  0  0
   17.1859   67.8398   -4.1373 H   0  0  0  0  0  0  0  0  0  0  0  0
   15.6596   70.3745   -7.9738 O   0  0  0  0  0  0  0  0  0  0  0  0
   19.4502   70.4259  -10.5955 O   0  0  0  0  0  0  0  0  0  0  0  0
   17.7248   70.6760   -6.9237 N   0  0  0  0  0  0  0  0  0  0  0  0
   17.5491   70.3994   -9.2772 N   0  0  0  0  0  0  0  0  0  0  0  0
   16.8858   70.4766   -8.0455 C   0  0  0  0  0  0  0  0  0  0  0  0
   19.1001   70.7831   -7.0915 C   0  0  0  0  0  0  0  0  0  0  0  0
   19.7178   70.7076   -8.2719 C   0  0  0  0  0  0  0  0  0  0  0  0
   18.9138   70.4994   -9.4941 C   0  0  0  0  0  0  0  0  0  0  0  0
   16.9860   70.2588  -10.0726 H   0  0  0  0  0  0  0  0  0  0  0  0
   22.2053   72.0499   -3.9456 O   0  0  0  0  0  0  0  0  0  0  0  0
   23.6436   72.1070   -3.2095 P   0  0  2  0  0  0  0  0  0  0  0  0
   24.4622   73.1980   -4.0811 O   0  0  0  0  0  0  0  0  0  0  0  0
   24.3259   70.7753   -3.0870 O   0  0  0  0  0  0  0  0  0  0  0  0
   23.3547   72.8430   -1.8033 O   0  0  0  0  0  0  0  0  0  0  0  0
   22.6947   71.5904    0.0952 O   0  0  0  0  0  0  0  0  0  0  0  0
   21.5469   75.4113    1.1684 O   0  0  0  0  0  0  0  0  0  0  0  0
   21.0885   74.4350   -1.5465 O   0  0  0  0  0  0  0  0  0  0  0  0
   23.9289   74.2213    2.3352 O   0  0  0  0  0  0  0  0  0  0  0  0
   22.3536   74.4257    0.5236 C   0  0  2  0  0  0  0  0  0  0  0  0
   21.4954   73.6208   -0.4528 C   0  0  2  0  0  0  0  0  0  0  0  0
   22.9333   73.5089    1.6031 C   0  0  1  0  0  0  0  0  0  0  0  0
   22.2646   72.4131   -0.9900 C   0  0  1  0  0  0  0  0  0  0  0  0
   23.5732   72.2651    0.9930 C   0  0  1  0  0  0  0  0  0  0  0  0
   21.1677   76.0055    0.5019 H   0  0  0  0  0  0  0  0  0  0  0  0
   20.6001   75.2034   -1.2129 H   0  0  0  0  0  0  0  0  0  0  0  0
   23.5346   75.0154    2.7285 H   0  0  0  0  0  0  0  0  0  0  0  0
   24.4272   70.1407    1.5017 O   0  0  0  0  0  0  0  0  0  0  0  0
   23.5624   71.3545    3.2273 O   0  0  0  0  0  0  0  0  0  0  0  0
   23.8363   71.2349    2.0426 C   0  0  0  0  0  0  0  0  0  0  0  0
  1  4  1  0
  1 24  1  0
  1  2  1  1
  1  3  2  0
 25 28  1  0
 25 24  1  0
 25 26  1  6
 25 27  2  0
  6 11  1  0
  6 12  1  0
 29 36  1  0
 29 37  1  0
  9  7  1  6
  7 13  1  0
 10  8  1  1
  8 14  1  0
  4  5  1  0
 36 28  1  1
 33 30  1  1
 30 38  1  0
 34 31  1  6
 31 39  1  0
 35 32  1  6
 32 40  1  0
 41 43  1  0
 15 19  2  0
 42 43  2  0
 16 22  2  0
 12 17  1  6
 17 19  1  0
 17 20  1  0
 18 19  1  0
 18 22  1  0
 18 23  1  0
  9 10  1  0
  9 11  1  0
 10 12  1  0
 11  5  1  6
 33 34  1  0
 33 35  1  0
 34 36  1  0
 35 37  1  0
 37 43  1  1
 20 21  2  0
 21 22  1  0
M  CHG  3   2  -1  26  -1  41  -1
M  END
>  <COMPND>  (43) 
    udp_gluA.pdb 

>  <AUTHOR>  (43) 
    GENERATED BY OPEN BABEL 3.1.1

>  <MASTER>  (43) 
        0    0    0    0    0    0    0    0   56    0   56    0

>  <minimizedAffinity>  (43) 
-7.51978

>  <CNNscore>  (43) 
0.8668851852

>  <CNNaffinity>  (43) 
4.7229862213

>  <CNN_VS>  (43) 
4.0942869186

>  <CNNaffinity_variance>  (43) 
0.0409799516

$$$$
44
     RDKit          3D

 43 45  0  0  0  0  0  0  0  0999 V2000
   20.9431   71.6811   -1.5157 P   0  0  2  0  0  0  0  0  0  0  0  0
   21.7288   71.0413   -2.7775 O   0  0  0  0  0  0  0  0  0  0  0  0
   20.5144   70.6942   -0.4697 O   0  0  0  0  0  0  0  0  0  0  0  0
   19.7557   72.5452   -2.1949 O   0  0  0  0  0  0  0  0  0  0  0  0
   19.3842   72.2519   -3.5292 C   0  0  0  0  0  0  0  0  0  0  0  0
   17.4298   72.1444   -4.9244 O   0  0  0  0  0  0  0  0  0  0  0  0
   16.2193   70.4360   -2.7779 O   0  0  0  0  0  0  0  0  0  0  0  0
   16.9843   68.5982   -4.6415 O   0  0  0  0  0  0  0  0  0  0  0  0
   17.5713   70.4916   -3.2335 C   0  0  1  0  0  0  0  0  0  0  0  0
   17.6981   69.8154   -4.5822 C   0  0  2  0  0  0  0  0  0  0  0  0
   17.8936   71.9407   -3.5721 C   0  0  1  0  0  0  0  0  0  0  0  0
   17.1338   70.8704   -5.5183 C   0  0  2  0  0  0  0  0  0  0  0  0
   15.9902   69.5197   -2.5554 H   0  0  0  0  0  0  0  0  0  0  0  0
   17.3822   67.9598   -4.0282 H   0  0  0  0  0  0  0  0  0  0  0  0
   15.7114   70.2950   -7.8894 O   0  0  0  0  0  0  0  0  0  0  0  0
   19.5051   70.6880  -10.4773 O   0  0  0  0  0  0  0  0  0  0  0  0
   17.7251   70.8159   -6.8253 N   0  0  0  0  0  0  0  0  0  0  0  0
   17.6024   70.4903   -9.1759 N   0  0  0  0  0  0  0  0  0  0  0  0
   16.9219   70.5181   -7.9515 C   0  0  0  0  0  0  0  0  0  0  0  0
   19.0845   71.0575   -6.9823 C   0  0  0  0  0  0  0  0  0  0  0  0
   19.7190   71.0275   -8.1558 C   0  0  0  0  0  0  0  0  0  0  0  0
   18.9526   70.7230   -9.3819 C   0  0  0  0  0  0  0  0  0  0  0  0
   17.0646   70.2830   -9.9741 H   0  0  0  0  0  0  0  0  0  0  0  0
   21.9651   72.8179   -0.9903 O   0  0  0  0  0  0  0  0  0  0  0  0
   23.3248   72.7040   -0.1232 P   0  0  2  0  0  0  0  0  0  0  0  0
   24.1598   74.0166   -0.5706 O   0  0  0  0  0  0  0  0  0  0  0  0
   24.0638   71.4097   -0.3040 O   0  0  0  0  0  0  0  0  0  0  0  0
   22.8694   73.0086    1.3941 O   0  0  0  0  0  0  0  0  0  0  0  0
   23.1484   71.5260    3.2198 O   0  0  0  0  0  0  0  0  0  0  0  0
   19.9653   73.8333    4.4894 O   0  0  0  0  0  0  0  0  0  0  0  0
   20.1097   72.9028    1.7240 O   0  0  0  0  0  0  0  0  0  0  0  0
   22.6157   74.2644    5.6030 O   0  0  0  0  0  0  0  0  0  0  0  0
   21.1839   73.5621    3.7970 C   0  0  2  0  0  0  0  0  0  0  0  0
   20.9548   72.4485    2.7748 C   0  0  2  0  0  0  0  0  0  0  0  0
   22.2282   73.1307    4.8290 C   0  0  1  0  0  0  0  0  0  0  0  0
   22.2799   71.9728    2.1778 C   0  0  1  0  0  0  0  0  0  0  0  0
   23.4697   72.5517    4.1567 C   0  0  1  0  0  0  0  0  0  0  0  0
   19.2864   74.1094    3.8536 H   0  0  0  0  0  0  0  0  0  0  0  0
   19.2670   73.2064    2.0957 H   0  0  0  0  0  0  0  0  0  0  0  0
   21.8345   74.6425    6.0361 H   0  0  0  0  0  0  0  0  0  0  0  0
   23.5844   71.0009    5.9126 O   0  0  0  0  0  0  0  0  0  0  0  0
   25.5361   71.9877    5.2673 O   0  0  0  0  0  0  0  0  0  0  0  0
   24.3286   71.8406    5.1511 C   0  0  0  0  0  0  0  0  0  0  0  0
  1  4  1  0
  1 24  1  0
  1  2  1  6
  1  3  2  0
 25 28  1  0
 25 24  1  0
 25 26  1  6
 25 27  2  0
  6 11  1  0
  6 12  1  0
 29 36  1  0
 29 37  1  0
  9  7  1  6
  7 13  1  0
 10  8  1  1
  8 14  1  0
  4  5  1  0
 36 28  1  1
 33 30  1  1
 30 38  1  0
 34 31  1  6
 31 39  1  0
 35 32  1  6
 32 40  1  0
 41 43  1  0
 15 19  2  0
 42 43  2  0
 16 22  2  0
 12 17  1  6
 17 19  1  0
 17 20  1  0
 18 19  1  0
 18 22  1  0
 18 23  1  0
  9 10  1  0
  9 11  1  0
 10 12  1  0
 11  5  1  6
 33 34  1  0
 33 35  1  0
 34 36  1  0
 35 37  1  0
 37 43  1  1
 20 21  2  0
 21 22  1  0
M  CHG  3   2  -1  26  -1  41  -1
M  END
>  <COMPND>  (44) 
    udp_gluA.pdb 

>  <AUTHOR>  (44) 
    GENERATED BY OPEN BABEL 3.1.1

>  <MASTER>  (44) 
        0    0    0    0    0    0    0    0   56    0   56    0

>  <minimizedAffinity>  (44) 
-7.47345

>  <CNNscore>  (44) 
0.8654095531

>  <CNNaffinity>  (44) 
4.5325803757

>  <CNN_VS>  (44) 
3.9225382805

>  <CNNaffinity_variance>  (44) 
0.0211778693

$$$$
45
     RDKit          3D

 43 45  0  0  0  0  0  0  0  0999 V2000
   22.0010   71.8149   -3.4473 P   0  0  2  0  0  0  0  0  0  0  0  0
   21.6187   71.8593   -5.0191 O   0  0  0  0  0  0  0  0  0  0  0  0
   23.3405   71.2137   -3.1378 O   0  0  0  0  0  0  0  0  0  0  0  0
   20.7292   71.0896   -2.7584 O   0  0  0  0  0  0  0  0  0  0  0  0
   19.9491   70.2051   -3.5418 C   0  0  0  0  0  0  0  0  0  0  0  0
   18.2035   71.3804   -4.7033 O   0  0  0  0  0  0  0  0  0  0  0  0
   16.2909   69.9605   -2.8820 O   0  0  0  0  0  0  0  0  0  0  0  0
   16.1043   68.5144   -5.1863 O   0  0  0  0  0  0  0  0  0  0  0  0
   17.5094   69.4890   -3.4577 C   0  0  1  0  0  0  0  0  0  0  0  0
   17.3144   69.1960   -4.9303 C   0  0  2  0  0  0  0  0  0  0  0  0
   18.4933   70.6504   -3.4915 C   0  0  1  0  0  0  0  0  0  0  0  0
   17.3399   70.5894   -5.5351 C   0  0  2  0  0  0  0  0  0  0  0  0
   15.6464   69.2357   -2.8498 H   0  0  0  0  0  0  0  0  0  0  0  0
   16.1377   67.6331   -4.7812 H   0  0  0  0  0  0  0  0  0  0  0  0
   15.7461   70.3041   -7.8491 O   0  0  0  0  0  0  0  0  0  0  0  0
   19.4062   70.6261  -10.6318 O   0  0  0  0  0  0  0  0  0  0  0  0
   17.8505   70.5951   -6.8768 N   0  0  0  0  0  0  0  0  0  0  0  0
   17.5707   70.4637   -9.2328 N   0  0  0  0  0  0  0  0  0  0  0  0
   16.9646   70.4443   -7.9698 C   0  0  0  0  0  0  0  0  0  0  0  0
   19.2132   70.7503   -7.0997 C   0  0  0  0  0  0  0  0  0  0  0  0
   19.7762   70.7670   -8.3095 C   0  0  0  0  0  0  0  0  0  0  0  0
   18.9208   70.6147   -9.5047 C   0  0  0  0  0  0  0  0  0  0  0  0
   16.9744   70.3585  -10.0091 H   0  0  0  0  0  0  0  0  0  0  0  0
   21.8325   73.3559   -2.9892 O   0  0  0  0  0  0  0  0  0  0  0  0
   20.9398   74.0237   -1.8185 P   0  0  2  0  0  0  0  0  0  0  0  0
   21.3081   75.5965   -1.9240 O   0  0  0  0  0  0  0  0  0  0  0  0
   21.1611   73.4267   -0.4589 O   0  0  0  0  0  0  0  0  0  0  0  0
   19.4214   73.9242   -2.3543 O   0  0  0  0  0  0  0  0  0  0  0  0
   17.7064   75.4207   -3.0087 O   0  0  0  0  0  0  0  0  0  0  0  0
   15.6282   72.7395   -0.6506 O   0  0  0  0  0  0  0  0  0  0  0  0
   18.2658   73.6944    0.1652 O   0  0  0  0  0  0  0  0  0  0  0  0
   15.3901   72.6263   -3.5457 O   0  0  0  0  0  0  0  0  0  0  0  0
   16.6457   73.1593   -1.5597 C   0  0  2  0  0  0  0  0  0  0  0  0
   17.5029   74.2421   -0.9038 C   0  0  2  0  0  0  0  0  0  0  0  0
   15.9621   73.7087   -2.8138 C   0  0  1  0  0  0  0  0  0  0  0  0
   18.4534   74.8774   -1.9195 C   0  0  1  0  0  0  0  0  0  0  0  0
   16.9546   74.4367   -3.7157 C   0  0  1  0  0  0  0  0  0  0  0  0
   16.0390   72.3866    0.1543 H   0  0  0  0  0  0  0  0  0  0  0  0
   17.6690   73.2893    0.8134 H   0  0  0  0  0  0  0  0  0  0  0  0
   14.7565   72.1544   -2.9828 H   0  0  0  0  0  0  0  0  0  0  0  0
   17.0824   76.1277   -5.3361 O   0  0  0  0  0  0  0  0  0  0  0  0
   15.0575   75.1221   -5.0395 O   0  0  0  0  0  0  0  0  0  0  0  0
   16.2389   75.2414   -4.7513 C   0  0  0  0  0  0  0  0  0  0  0  0
  1  4  1  0
  1 24  1  0
  1  2  1  6
  1  3  2  0
 25 28  1  0
 25 24  1  0
 25 26  1  1
 25 27  2  0
  6 11  1  0
  6 12  1  0
 29 36  1  0
 29 37  1  0
  9  7  1  6
  7 13  1  0
 10  8  1  1
  8 14  1  0
  4  5  1  0
 36 28  1  6
 33 30  1  1
 30 38  1  0
 34 31  1  1
 31 39  1  0
 35 32  1  6
 32 40  1  0
 41 43  1  0
 15 19  2  0
 42 43  2  0
 16 22  2  0
 12 17  1  6
 17 19  1  0
 17 20  1  0
 18 19  1  0
 18 22  1  0
 18 23  1  0
  9 10  1  0
  9 11  1  0
 10 12  1  0
 11  5  1  6
 33 34  1  0
 33 35  1  0
 34 36  1  0
 35 37  1  0
 37 43  1  6
 20 21  2  0
 21 22  1  0
M  CHG  3   2  -1  26  -1  41  -1
M  END
>  <COMPND>  (45) 
    udp_gluA.pdb 

>  <AUTHOR>  (45) 
    GENERATED BY OPEN BABEL 3.1.1

>  <MASTER>  (45) 
        0    0    0    0    0    0    0    0   56    0   56    0

>  <minimizedAffinity>  (45) 
-5.89359

>  <CNNscore>  (45) 
0.8627796769

>  <CNNaffinity>  (45) 
4.4839301109

>  <CNN_VS>  (45) 
3.8686437607

>  <CNNaffinity_variance>  (45) 
0.2233530581

$$$$
46
     RDKit          3D

 43 45  0  0  0  0  0  0  0  0999 V2000
   21.2315   71.6300   -3.3447 P   0  0  2  0  0  0  0  0  0  0  0  0
   21.0762   70.3002   -4.2537 O   0  0  0  0  0  0  0  0  0  0  0  0
   22.2877   71.5511   -2.2818 O   0  0  0  0  0  0  0  0  0  0  0  0
   19.7283   71.9205   -2.8213 O   0  0  0  0  0  0  0  0  0  0  0  0
   18.9040   72.7869   -3.5792 C   0  0  0  0  0  0  0  0  0  0  0  0
   17.0287   72.2523   -4.9845 O   0  0  0  0  0  0  0  0  0  0  0  0
   16.0831   70.5028   -2.7403 O   0  0  0  0  0  0  0  0  0  0  0  0
   17.1941   68.7084   -4.4671 O   0  0  0  0  0  0  0  0  0  0  0  0
   17.4151   70.7621   -3.1843 C   0  0  1  0  0  0  0  0  0  0  0  0
   17.6862   70.0321   -4.4827 C   0  0  2  0  0  0  0  0  0  0  0  0
   17.4906   72.2200   -3.6167 C   0  0  1  0  0  0  0  0  0  0  0  0
   16.9697   70.9105   -5.4940 C   0  0  2  0  0  0  0  0  0  0  0  0
   16.0102   69.5770   -2.4588 H   0  0  0  0  0  0  0  0  0  0  0  0
   17.6823   68.1897   -3.8079 H   0  0  0  0  0  0  0  0  0  0  0  0
   15.6466   70.1717   -7.8773 O   0  0  0  0  0  0  0  0  0  0  0  0
   19.4499   70.8090  -10.4017 O   0  0  0  0  0  0  0  0  0  0  0  0
   17.5902   70.8747   -6.7880 N   0  0  0  0  0  0  0  0  0  0  0  0
   17.5424   70.4888   -9.1322 N   0  0  0  0  0  0  0  0  0  0  0  0
   16.8366   70.4891   -7.9218 C   0  0  0  0  0  0  0  0  0  0  0  0
   18.9292   71.2202   -6.9249 C   0  0  0  0  0  0  0  0  0  0  0  0
   19.5882   71.2152   -8.0853 C   0  0  0  0  0  0  0  0  0  0  0  0
   18.8739   70.8238   -9.3181 C   0  0  0  0  0  0  0  0  0  0  0  0
   17.0393   70.2219   -9.9353 H   0  0  0  0  0  0  0  0  0  0  0  0
   21.4656   72.7940   -4.4416 O   0  0  0  0  0  0  0  0  0  0  0  0
   22.7810   73.2086   -5.2851 P   0  0  2  0  0  0  0  0  0  0  0  0
   22.7703   72.1658   -6.5232 O   0  0  0  0  0  0  0  0  0  0  0  0
   24.0515   73.2059   -4.4853 O   0  0  0  0  0  0  0  0  0  0  0  0
   22.4103   74.6318   -5.9481 O   0  0  0  0  0  0  0  0  0  0  0  0
   24.3111   75.5007   -7.0621 O   0  0  0  0  0  0  0  0  0  0  0  0
   21.5579   78.5322   -7.6079 O   0  0  0  0  0  0  0  0  0  0  0  0
   21.7791   77.1795   -5.0280 O   0  0  0  0  0  0  0  0  0  0  0  0
   22.2119   76.7423   -9.8033 O   0  0  0  0  0  0  0  0  0  0  0  0
   21.9957   77.1833   -7.4445 C   0  0  2  0  0  0  0  0  0  0  0  0
   22.7054   77.0351   -6.0985 C   0  0  2  0  0  0  0  0  0  0  0  0
   22.9548   76.8552   -8.5909 C   0  0  1  0  0  0  0  0  0  0  0  0
   23.3870   75.6707   -5.9866 C   0  0  1  0  0  0  0  0  0  0  0  0
   23.6886   75.5402   -8.3443 C   0  0  1  0  0  0  0  0  0  0  0  0
   20.9470   78.7633   -6.8904 H   0  0  0  0  0  0  0  0  0  0  0  0
   21.3427   78.0431   -5.0929 H   0  0  0  0  0  0  0  0  0  0  0  0
   21.7399   77.5728   -9.9718 H   0  0  0  0  0  0  0  0  0  0  0  0
   24.4112   75.3379  -10.5666 O   0  0  0  0  0  0  0  0  0  0  0  0
   26.0157   75.3314   -8.9465 O   0  0  0  0  0  0  0  0  0  0  0  0
   24.8424   75.3926   -9.2820 C   0  0  0  0  0  0  0  0  0  0  0  0
  1  4  1  0
  1 24  1  0
  1  2  1  6
  1  3  2  0
 25 28  1  0
 25 24  1  0
 25 26  1  6
 25 27  2  0
  6 11  1  0
  6 12  1  0
 29 36  1  0
 29 37  1  0
  9  7  1  6
  7 13  1  0
 10  8  1  1
  8 14  1  0
  4  5  1  0
 36 28  1  6
 33 30  1  6
 30 38  1  0
 34 31  1  1
 31 39  1  0
 35 32  1  6
 32 40  1  0
 41 43  1  0
 15 19  2  0
 42 43  2  0
 16 22  2  0
 12 17  1  6
 17 19  1  0
 17 20  1  0
 18 19  1  0
 18 22  1  0
 18 23  1  0
  9 10  1  0
  9 11  1  0
 10 12  1  0
 11  5  1  6
 33 34  1  0
 33 35  1  0
 34 36  1  0
 35 37  1  0
 37 43  1  6
 20 21  2  0
 21 22  1  0
M  CHG  3   2  -1  26  -1  41  -1
M  END
>  <COMPND>  (46) 
    udp_gluA.pdb 

>  <AUTHOR>  (46) 
    GENERATED BY OPEN BABEL 3.1.1

>  <MASTER>  (46) 
        0    0    0    0    0    0    0    0   56    0   56    0

>  <minimizedAffinity>  (46) 
-6.51942

>  <CNNscore>  (46) 
0.8451920152

>  <CNNaffinity>  (46) 
4.7197604179

>  <CNN_VS>  (46) 
3.9891037941

>  <CNNaffinity_variance>  (46) 
0.0941184387

$$$$
47
     RDKit          3D

 43 45  0  0  0  0  0  0  0  0999 V2000
   23.0333   71.5732   -2.3738 P   0  0  2  0  0  0  0  0  0  0  0  0
   22.9137   73.1761   -2.5615 O   0  0  0  0  0  0  0  0  0  0  0  0
   24.2386   70.9487   -3.0134 O   0  0  0  0  0  0  0  0  0  0  0  0
   21.6012   71.0149   -2.8790 O   0  0  0  0  0  0  0  0  0  0  0  0
   20.9711   71.6596   -3.9707 C   0  0  0  0  0  0  0  0  0  0  0  0
   18.8112   72.1542   -4.9023 O   0  0  0  0  0  0  0  0  0  0  0  0
   17.6646   70.8212   -2.4733 O   0  0  0  0  0  0  0  0  0  0  0  0
   17.4394   68.8834   -4.3786 O   0  0  0  0  0  0  0  0  0  0  0  0
   18.8405   70.4934   -3.2136 C   0  0  1  0  0  0  0  0  0  0  0  0
   18.4675   69.8401   -4.5276 C   0  0  2  0  0  0  0  0  0  0  0  0
   19.4828   71.7943   -3.6756 C   0  0  1  0  0  0  0  0  0  0  0  0
   18.0385   71.0343   -5.3629 C   0  0  2  0  0  0  0  0  0  0  0  0
   17.2367   70.0057   -2.1675 H   0  0  0  0  0  0  0  0  0  0  0  0
   17.7620   68.1434   -3.8397 H   0  0  0  0  0  0  0  0  0  0  0  0
   16.1830   69.9079   -7.1698 O   0  0  0  0  0  0  0  0  0  0  0  0
   19.0968   70.3392  -10.7149 O   0  0  0  0  0  0  0  0  0  0  0  0
   18.2863   70.8406   -6.7636 N   0  0  0  0  0  0  0  0  0  0  0  0
   17.6364   70.1229   -8.9336 N   0  0  0  0  0  0  0  0  0  0  0  0
   17.2871   70.2658   -7.5842 C   0  0  0  0  0  0  0  0  0  0  0  0
   19.5060   71.2195   -7.3111 C   0  0  0  0  0  0  0  0  0  0  0  0
   19.8243   71.0770   -8.5992 C   0  0  0  0  0  0  0  0  0  0  0  0
   18.8365   70.4840   -9.5243 C   0  0  0  0  0  0  0  0  0  0  0  0
   16.9576   69.7231   -9.5242 H   0  0  0  0  0  0  0  0  0  0  0  0
   22.9502   71.3884   -0.7701 O   0  0  0  0  0  0  0  0  0  0  0  0
   21.7747   71.7470    0.2801 P   0  0  2  0  0  0  0  0  0  0  0  0
   20.7890   70.4666    0.1833 O   0  0  0  0  0  0  0  0  0  0  0  0
   21.1028   73.0653    0.0259 O   0  0  0  0  0  0  0  0  0  0  0  0
   22.4685   71.6180    1.7308 O   0  0  0  0  0  0  0  0  0  0  0  0
   23.3470   73.3577    3.0763 O   0  0  0  0  0  0  0  0  0  0  0  0
   25.6795   70.1471    4.2250 O   0  0  0  0  0  0  0  0  0  0  0  0
   25.0246   70.5695    1.4095 O   0  0  0  0  0  0  0  0  0  0  0  0
   23.5541   71.1025    5.9630 O   0  0  0  0  0  0  0  0  0  0  0  0
   24.4957   70.7998    3.7661 C   0  0  2  0  0  0  0  0  0  0  0  0
   24.7845   71.5146    2.4458 C   0  0  2  0  0  0  0  0  0  0  0  0
   24.0670   71.8080    4.8345 C   0  0  1  0  0  0  0  0  0  0  0  0
   23.6131   72.4106    2.0411 C   0  0  1  0  0  0  0  0  0  0  0  0
   22.9831   72.7465    4.3120 C   0  0  1  0  0  0  0  0  0  0  0  0
   25.9707   69.5015    3.5620 H   0  0  0  0  0  0  0  0  0  0  0  0
   25.7665   69.9974    1.6597 H   0  0  0  0  0  0  0  0  0  0  0  0
   24.2342   70.5015    6.3052 H   0  0  0  0  0  0  0  0  0  0  0  0
   22.0789   73.5667    6.3148 O   0  0  0  0  0  0  0  0  0  0  0  0
   23.2581   75.0340    5.0281 O   0  0  0  0  0  0  0  0  0  0  0  0
   22.8079   73.9155    5.2258 C   0  0  0  0  0  0  0  0  0  0  0  0
  1  4  1  0
  1 24  1  0
  1  2  1  1
  1  3  2  0
 25 28  1  0
 25 24  1  0
 25 26  1  1
 25 27  2  0
  6 11  1  0
  6 12  1  0
 29 36  1  0
 29 37  1  0
  9  7  1  1
  7 13  1  0
 10  8  1  1
  8 14  1  0
  4  5  1  0
 36 28  1  1
 33 30  1  1
 30 38  1  0
 34 31  1  6
 31 39  1  0
 35 32  1  1
 32 40  1  0
 41 43  1  0
 15 19  2  0
 42 43  2  0
 16 22  2  0
 12 17  1  6
 17 19  1  0
 17 20  1  0
 18 19  1  0
 18 22  1  0
 18 23  1  0
  9 10  1  0
  9 11  1  0
 10 12  1  0
 11  5  1  6
 33 34  1  0
 33 35  1  0
 34 36  1  0
 35 37  1  0
 37 43  1  1
 20 21  2  0
 21 22  1  0
M  CHG  3   2  -1  26  -1  41  -1
M  END
>  <COMPND>  (47) 
    udp_gluA.pdb 

>  <AUTHOR>  (47) 
    GENERATED BY OPEN BABEL 3.1.1

>  <MASTER>  (47) 
        0    0    0    0    0    0    0    0   56    0   56    0

>  <minimizedAffinity>  (47) 
-8.42149

>  <CNNscore>  (47) 
0.8069874644

>  <CNNaffinity>  (47) 
4.6041879654

>  <CNN_VS>  (47) 
3.7155220509

>  <CNNaffinity_variance>  (47) 
0.1136630997

$$$$
48
     RDKit          3D

 43 45  0  0  0  0  0  0  0  0999 V2000
   20.7382   71.9456   -4.8325 P   0  0  2  0  0  0  0  0  0  0  0  0
   20.5949   71.0703   -3.4789 O   0  0  0  0  0  0  0  0  0  0  0  0
   19.8525   73.1550   -4.9017 O   0  0  0  0  0  0  0  0  0  0  0  0
   20.5421   70.8624   -6.0183 O   0  0  0  0  0  0  0  0  0  0  0  0
   20.4192   71.3310   -7.3486 C   0  0  0  0  0  0  0  0  0  0  0  0
   18.6920   69.6704   -7.1559 O   0  0  0  0  0  0  0  0  0  0  0  0
   18.0539   70.2697  -10.0239 O   0  0  0  0  0  0  0  0  0  0  0  0
   16.1222   71.6501   -8.6826 O   0  0  0  0  0  0  0  0  0  0  0  0
   18.4829   71.1554   -8.9895 C   0  0  1  0  0  0  0  0  0  0  0  0
   17.3489   71.4196   -8.0219 C   0  0  2  0  0  0  0  0  0  0  0  0
   19.4804   70.4081   -8.1149 C   0  0  1  0  0  0  0  0  0  0  0  0
   17.3370   70.1456   -7.1944 C   0  0  2  0  0  0  0  0  0  0  0  0
   17.4157   70.7250  -10.5958 H   0  0  0  0  0  0  0  0  0  0  0  0
   16.1805   72.4722   -9.1952 H   0  0  0  0  0  0  0  0  0  0  0  0
   16.3902   68.1162   -5.4735 O   0  0  0  0  0  0  0  0  0  0  0  0
   15.6173   71.1172   -2.0616 O   0  0  0  0  0  0  0  0  0  0  0  0
   16.8821   70.3687   -5.8513 N   0  0  0  0  0  0  0  0  0  0  0  0
   16.0052   69.6130   -3.7762 N   0  0  0  0  0  0  0  0  0  0  0  0
   16.4260   69.2804   -5.0705 C   0  0  0  0  0  0  0  0  0  0  0  0
   16.8922   71.6527   -5.3199 C   0  0  0  0  0  0  0  0  0  0  0  0
   16.4881   71.9541   -4.0843 C   0  0  0  0  0  0  0  0  0  0  0  0
   15.9959   70.8745   -3.2035 C   0  0  0  0  0  0  0  0  0  0  0  0
   15.6814   68.8721   -3.2144 H   0  0  0  0  0  0  0  0  0  0  0  0
   22.3214   72.2663   -4.8915 O   0  0  0  0  0  0  0  0  0  0  0  0
   23.1543   73.5839   -4.4626 P   0  0  2  0  0  0  0  0  0  0  0  0
   24.6393   73.0062   -4.1773 O   0  0  0  0  0  0  0  0  0  0  0  0
   22.5555   74.3444   -3.3150 O   0  0  0  0  0  0  0  0  0  0  0  0
   23.3034   74.4352   -5.8248 O   0  0  0  0  0  0  0  0  0  0  0  0
   24.3838   76.4412   -6.4711 O   0  0  0  0  0  0  0  0  0  0  0  0
   20.7458   76.7873   -8.3981 O   0  0  0  0  0  0  0  0  0  0  0  0
   20.8799   75.7896   -5.6556 O   0  0  0  0  0  0  0  0  0  0  0  0
   23.1319   76.0814   -9.9012 O   0  0  0  0  0  0  0  0  0  0  0  0
   21.8694   76.0987   -7.8491 C   0  0  2  0  0  0  0  0  0  0  0  0
   21.9663   76.3899   -6.3513 C   0  0  2  0  0  0  0  0  0  0  0  0
   23.1255   76.5934   -8.5699 C   0  0  1  0  0  0  0  0  0  0  0  0
   23.2803   75.8605   -5.7750 C   0  0  1  0  0  0  0  0  0  0  0  0
   24.3942   76.1269   -7.8618 C   0  0  1  0  0  0  0  0  0  0  0  0
   19.9357   76.4892   -7.9552 H   0  0  0  0  0  0  0  0  0  0  0  0
   20.0430   76.1208   -6.0164 H   0  0  0  0  0  0  0  0  0  0  0  0
   22.3295   76.3710  -10.3628 H   0  0  0  0  0  0  0  0  0  0  0  0
   26.0306   76.3358   -9.5292 O   0  0  0  0  0  0  0  0  0  0  0  0
   26.0979   77.8346   -7.8122 O   0  0  0  0  0  0  0  0  0  0  0  0
   25.5873   76.8721   -8.3653 C   0  0  0  0  0  0  0  0  0  0  0  0
  1  4  1  0
  1 24  1  0
  1  2  1  1
  1  3  2  0
 25 28  1  0
 25 24  1  0
 25 26  1  1
 25 27  2  0
  6 11  1  0
  6 12  1  0
 29 36  1  0
 29 37  1  0
  9  7  1  6
  7 13  1  0
 10  8  1  6
  8 14  1  0
  4  5  1  0
 36 28  1  6
 33 30  1  6
 30 38  1  0
 34 31  1  1
 31 39  1  0
 35 32  1  6
 32 40  1  0
 41 43  1  0
 15 19  2  0
 42 43  2  0
 16 22  2  0
 12 17  1  1
 17 19  1  0
 17 20  1  0
 18 19  1  0
 18 22  1  0
 18 23  1  0
  9 10  1  0
  9 11  1  0
 10 12  1  0
 11  5  1  1
 33 34  1  0
 33 35  1  0
 34 36  1  0
 35 37  1  0
 37 43  1  6
 20 21  2  0
 21 22  1  0
M  CHG  3   2  -1  26  -1  41  -1
M  END
>  <COMPND>  (48) 
    udp_gluA.pdb 

>  <AUTHOR>  (48) 
    GENERATED BY OPEN BABEL 3.1.1

>  <MASTER>  (48) 
        0    0    0    0    0    0    0    0   56    0   56    0

>  <minimizedAffinity>  (48) 
-6.50799

>  <CNNscore>  (48) 
0.7659816742

>  <CNNaffinity>  (48) 
4.4322967529

>  <CNN_VS>  (48) 
3.3950581551

>  <CNNaffinity_variance>  (48) 
0.2052815408

$$$$
49
     RDKit          3D

 43 45  0  0  0  0  0  0  0  0999 V2000
   20.3656   73.8889    0.0654 P   0  0  2  0  0  0  0  0  0  0  0  0
   19.6437   73.4783    1.4544 O   0  0  0  0  0  0  0  0  0  0  0  0
   20.6032   75.3596   -0.1145 O   0  0  0  0  0  0  0  0  0  0  0  0
   19.4560   73.1801   -1.0695 O   0  0  0  0  0  0  0  0  0  0  0  0
   19.7088   73.4879   -2.4282 C   0  0  0  0  0  0  0  0  0  0  0  0
   19.3005   71.1208   -2.5176 O   0  0  0  0  0  0  0  0  0  0  0  0
   20.2275   71.2567   -5.3660 O   0  0  0  0  0  0  0  0  0  0  0  0
   17.5139   71.1842   -5.6254 O   0  0  0  0  0  0  0  0  0  0  0  0
   19.4739   72.2085   -4.6146 C   0  0  1  0  0  0  0  0  0  0  0  0
   18.0497   71.7265   -4.4365 C   0  0  2  0  0  0  0  0  0  0  0  0
   19.9954   72.1969   -3.1842 C   0  0  1  0  0  0  0  0  0  0  0  0
   18.2031   70.6888   -3.3376 C   0  0  2  0  0  0  0  0  0  0  0  0
   19.9123   71.2460   -6.2837 H   0  0  0  0  0  0  0  0  0  0  0  0
   17.4357   71.8840   -6.2934 H   0  0  0  0  0  0  0  0  0  0  0  0
   17.1990   68.2555   -2.3143 O   0  0  0  0  0  0  0  0  0  0  0  0
   13.6827   70.3759   -0.2207 O   0  0  0  0  0  0  0  0  0  0  0  0
   17.0270   70.5762   -2.5222 N   0  0  0  0  0  0  0  0  0  0  0  0
   15.4480   69.3138   -1.2734 N   0  0  0  0  0  0  0  0  0  0  0  0
   16.6077   69.3064   -2.0597 C   0  0  0  0  0  0  0  0  0  0  0  0
   16.3035   71.7144   -2.1874 C   0  0  0  0  0  0  0  0  0  0  0  0
   15.2001   71.7056   -1.4370 C   0  0  0  0  0  0  0  0  0  0  0  0
   14.6942   70.4194   -0.9143 C   0  0  0  0  0  0  0  0  0  0  0  0
   15.1355   68.4412   -0.9415 H   0  0  0  0  0  0  0  0  0  0  0  0
   21.7065   72.9862    0.0726 O   0  0  0  0  0  0  0  0  0  0  0  0
   21.9235   71.4103    0.3612 P   0  0  2  0  0  0  0  0  0  0  0  0
   23.1389   71.0163   -0.6327 O   0  0  0  0  0  0  0  0  0  0  0  0
   20.6873   70.5764    0.1873 O   0  0  0  0  0  0  0  0  0  0  0  0
   22.5695   71.3499    1.8382 O   0  0  0  0  0  0  0  0  0  0  0  0
   23.0420   73.1520    3.3005 O   0  0  0  0  0  0  0  0  0  0  0  0
   25.9249   70.4028    4.3955 O   0  0  0  0  0  0  0  0  0  0  0  0
   25.2916   70.8418    1.5775 O   0  0  0  0  0  0  0  0  0  0  0  0
   23.5968   70.8268    6.0840 O   0  0  0  0  0  0  0  0  0  0  0  0
   24.6510   70.8349    3.9175 C   0  0  2  0  0  0  0  0  0  0  0  0
   24.8356   71.6635    2.6460 C   0  0  2  0  0  0  0  0  0  0  0  0
   23.9966   71.6797    5.0130 C   0  0  1  0  0  0  0  0  0  0  0  0
   23.5239   72.3333    2.2342 C   0  0  1  0  0  0  0  0  0  0  0  0
   22.7661   72.4147    4.4894 C   0  0  1  0  0  0  0  0  0  0  0  0
   26.3596   69.8639    3.7158 H   0  0  0  0  0  0  0  0  0  0  0  0
   26.1235   70.4133    1.8320 H   0  0  0  0  0  0  0  0  0  0  0  0
   24.3709   70.3529    6.4262 H   0  0  0  0  0  0  0  0  0  0  0  0
   21.3213   74.2102    4.9253 O   0  0  0  0  0  0  0  0  0  0  0  0
   22.8174   73.6596    6.5555 O   0  0  0  0  0  0  0  0  0  0  0  0
   22.3333   73.4750    5.4489 C   0  0  0  0  0  0  0  0  0  0  0  0
  1  4  1  0
  1 24  1  0
  1  2  1  1
  1  3  2  0
 25 28  1  0
 25 24  1  0
 25 26  1  6
 25 27  2  0
  6 11  1  0
  6 12  1  0
 29 36  1  0
 29 37  1  0
  9  7  1  6
  7 13  1  0
 10  8  1  6
  8 14  1  0
  4  5  1  0
 36 28  1  1
 33 30  1  1
 30 38  1  0
 34 31  1  6
 31 39  1  0
 35 32  1  1
 32 40  1  0
 41 43  1  0
 15 19  2  0
 42 43  2  0
 16 22  2  0
 12 17  1  1
 17 19  1  0
 17 20  1  0
 18 19  1  0
 18 22  1  0
 18 23  1  0
  9 10  1  0
  9 11  1  0
 10 12  1  0
 11  5  1  1
 33 34  1  0
 33 35  1  0
 34 36  1  0
 35 37  1  0
 37 43  1  1
 20 21  2  0
 21 22  1  0
M  CHG  3   2  -1  26  -1  41  -1
M  END
>  <COMPND>  (49) 
    udp_gluA.pdb 

>  <AUTHOR>  (49) 
    GENERATED BY OPEN BABEL 3.1.1

>  <MASTER>  (49) 
        0    0    0    0    0    0    0    0   56    0   56    0

>  <minimizedAffinity>  (49) 
-6.37124

>  <CNNscore>  (49) 
0.7585312128

>  <CNNaffinity>  (49) 
4.2020220757

>  <CNN_VS>  (49) 
3.1873648167

>  <CNNaffinity_variance>  (49) 
0.1950955540

$$$$
50
     RDKit          3D

 43 45  0  0  0  0  0  0  0  0999 V2000
   22.8772   72.7706   -3.7434 P   0  0  2  0  0  0  0  0  0  0  0  0
   23.1061   74.2347   -4.3938 O   0  0  0  0  0  0  0  0  0  0  0  0
   24.0498   71.8402   -3.8488 O   0  0  0  0  0  0  0  0  0  0  0  0
   21.5053   72.2521   -4.4267 O   0  0  0  0  0  0  0  0  0  0  0  0
   20.8808   71.0970   -3.8973 C   0  0  0  0  0  0  0  0  0  0  0  0
   18.8385   71.9026   -4.8759 O   0  0  0  0  0  0  0  0  0  0  0  0
   17.4363   70.5965   -2.5695 O   0  0  0  0  0  0  0  0  0  0  0  0
   17.0588   68.8035   -4.5891 O   0  0  0  0  0  0  0  0  0  0  0  0
   18.5942   70.1649   -3.2848 C   0  0  1  0  0  0  0  0  0  0  0  0
   18.2009   69.6323   -4.6464 C   0  0  2  0  0  0  0  0  0  0  0  0
   19.4086   71.3989   -3.6485 C   0  0  1  0  0  0  0  0  0  0  0  0
   17.9559   70.9123   -5.4270 C   0  0  2  0  0  0  0  0  0  0  0  0
   16.9000   69.8251   -2.3263 H   0  0  0  0  0  0  0  0  0  0  0  0
   17.2660   68.0022   -4.0822 H   0  0  0  0  0  0  0  0  0  0  0  0
   16.0648   70.0861   -7.3552 O   0  0  0  0  0  0  0  0  0  0  0  0
   19.1482   70.3740  -10.7690 O   0  0  0  0  0  0  0  0  0  0  0  0
   18.2377   70.7629   -6.8267 N   0  0  0  0  0  0  0  0  0  0  0  0
   17.6026   70.2293   -9.0534 N   0  0  0  0  0  0  0  0  0  0  0  0
   17.2167   70.3419   -7.7113 C   0  0  0  0  0  0  0  0  0  0  0  0
   19.5119   71.0336   -7.3105 C   0  0  0  0  0  0  0  0  0  0  0  0
   19.8647   70.9218   -8.5926 C   0  0  0  0  0  0  0  0  0  0  0  0
   18.8572   70.4866   -9.5820 C   0  0  0  0  0  0  0  0  0  0  0  0
   16.9093   69.9358   -9.6879 H   0  0  0  0  0  0  0  0  0  0  0  0
   22.4229   73.1126   -2.2303 O   0  0  0  0  0  0  0  0  0  0  0  0
   22.9317   74.2506   -1.2009 P   0  0  2  0  0  0  0  0  0  0  0  0
   21.8297   75.4238   -1.3724 O   0  0  0  0  0  0  0  0  0  0  0  0
   24.3481   74.6950   -1.4251 O   0  0  0  0  0  0  0  0  0  0  0  0
   22.6468   73.6353    0.2629 O   0  0  0  0  0  0  0  0  0  0  0  0
   23.2155   71.4723    1.0423 O   0  0  0  0  0  0  0  0  0  0  0  0
   19.8980   72.3496    3.3429 O   0  0  0  0  0  0  0  0  0  0  0  0
   19.9458   73.0150    0.4987 O   0  0  0  0  0  0  0  0  0  0  0  0
   22.5581   72.4825    4.5078 O   0  0  0  0  0  0  0  0  0  0  0  0
   21.0865   72.6381    2.6065 C   0  0  2  0  0  0  0  0  0  0  0  0
   20.9081   72.1967    1.1536 C   0  0  2  0  0  0  0  0  0  0  0  0
   22.2426   71.8748    3.2566 C   0  0  1  0  0  0  0  0  0  0  0  0
   22.2314   72.2767    0.3911 C   0  0  1  0  0  0  0  0  0  0  0  0
   23.4888   71.8957    2.3762 C   0  0  1  0  0  0  0  0  0  0  0  0
   19.1495   72.8239    2.9479 H   0  0  0  0  0  0  0  0  0  0  0  0
   19.1037   72.9692    0.9773 H   0  0  0  0  0  0  0  0  0  0  0  0
   21.7732   72.4757    5.0776 H   0  0  0  0  0  0  0  0  0  0  0  0
   24.7549   69.9859    1.8747 O   0  0  0  0  0  0  0  0  0  0  0  0
   25.0031   70.8812    3.9570 O   0  0  0  0  0  0  0  0  0  0  0  0
   24.4890   70.8913    2.8486 C   0  0  0  0  0  0  0  0  0  0  0  0
  1  4  1  0
  1 24  1  0
  1  2  1  6
  1  3  2  0
 25 28  1  0
 25 24  1  0
 25 26  1  6
 25 27  2  0
  6 11  1  0
  6 12  1  0
 29 36  1  0
 29 37  1  0
  9  7  1  1
  7 13  1  0
 10  8  1  1
  8 14  1  0
  4  5  1  0
 36 28  1  1
 33 30  1  1
 30 38  1  0
 34 31  1  6
 31 39  1  0
 35 32  1  1
 32 40  1  0
 41 43  1  0
 15 19  2  0
 42 43  2  0
 16 22  2  0
 12 17  1  6
 17 19  1  0
 17 20  1  0
 18 19  1  0
 18 22  1  0
 18 23  1  0
  9 10  1  0
  9 11  1  0
 10 12  1  0
 11  5  1  6
 33 34  1  0
 33 35  1  0
 34 36  1  0
 35 37  1  0
 37 43  1  1
 20 21  2  0
 21 22  1  0
M  CHG  3   2  -1  26  -1  41  -1
M  END
>  <COMPND>  (50) 
    udp_gluA.pdb 

>  <AUTHOR>  (50) 
    GENERATED BY OPEN BABEL 3.1.1

>  <MASTER>  (50) 
        0    0    0    0    0    0    0    0   56    0   56    0

>  <minimizedAffinity>  (50) 
-7.68123

>  <CNNscore>  (50) 
0.7531880140

>  <CNNaffinity>  (50) 
4.5561580658

>  <CNN_VS>  (50) 
3.4316437244

>  <CNNaffinity_variance>  (50) 
0.0135211078

$$$$
51
     RDKit          3D

 43 45  0  0  0  0  0  0  0  0999 V2000
   23.2833   73.4803   -4.1075 P   0  0  2  0  0  0  0  0  0  0  0  0
   23.1802   73.9306   -5.6584 O   0  0  0  0  0  0  0  0  0  0  0  0
   24.2351   72.3521   -3.8372 O   0  0  0  0  0  0  0  0  0  0  0  0
   21.7458   73.2212   -3.6751 O   0  0  0  0  0  0  0  0  0  0  0  0
   20.7373   73.3364   -4.6621 C   0  0  0  0  0  0  0  0  0  0  0  0
   18.5329   72.5568   -5.2194 O   0  0  0  0  0  0  0  0  0  0  0  0
   18.5332   71.2119   -2.5393 O   0  0  0  0  0  0  0  0  0  0  0  0
   19.0991   69.1552   -4.2381 O   0  0  0  0  0  0  0  0  0  0  0  0
   19.6115   71.3998   -3.4561 C   0  0  1  0  0  0  0  0  0  0  0  0
   19.4676   70.4597   -4.6342 C   0  0  2  0  0  0  0  0  0  0  0  0
   19.4376   72.7625   -4.1128 C   0  0  1  0  0  0  0  0  0  0  0  0
   18.3910   71.1472   -5.4566 C   0  0  2  0  0  0  0  0  0  0  0  0
   18.6226   70.3476   -2.1072 H   0  0  0  0  0  0  0  0  0  0  0  0
   19.8171   68.7604   -3.7179 H   0  0  0  0  0  0  0  0  0  0  0  0
   16.3175   70.1890   -7.1176 O   0  0  0  0  0  0  0  0  0  0  0  0
   19.0389   70.2122  -10.8375 O   0  0  0  0  0  0  0  0  0  0  0  0
   18.5303   70.8940   -6.8628 N   0  0  0  0  0  0  0  0  0  0  0  0
   17.6752   70.2005   -8.9685 N   0  0  0  0  0  0  0  0  0  0  0  0
   17.4265   70.4132   -7.6062 C   0  0  0  0  0  0  0  0  0  0  0  0
   19.7482   71.1232   -7.4915 C   0  0  0  0  0  0  0  0  0  0  0  0
   19.9699   70.9159   -8.7910 C   0  0  0  0  0  0  0  0  0  0  0  0
   18.8690   70.4132   -9.6387 C   0  0  0  0  0  0  0  0  0  0  0  0
   16.9223   69.8639   -9.5063 H   0  0  0  0  0  0  0  0  0  0  0  0
   23.6453   74.8625   -3.3516 O   0  0  0  0  0  0  0  0  0  0  0  0
   23.9585   75.1710   -1.7958 P   0  0  2  0  0  0  0  0  0  0  0  0
   22.8572   76.2937   -1.4125 O   0  0  0  0  0  0  0  0  0  0  0  0
   25.3775   75.5778   -1.5222 O   0  0  0  0  0  0  0  0  0  0  0  0
   23.4788   73.8456   -1.0112 O   0  0  0  0  0  0  0  0  0  0  0  0
   21.5732   74.1723    0.3567 O   0  0  0  0  0  0  0  0  0  0  0  0
   22.7609   70.3732    1.4631 O   0  0  0  0  0  0  0  0  0  0  0  0
   24.7391   72.4850    1.0617 O   0  0  0  0  0  0  0  0  0  0  0  0
   20.4572   70.7342   -0.2728 O   0  0  0  0  0  0  0  0  0  0  0  0
   22.5866   71.4771    0.5749 C   0  0  2  0  0  0  0  0  0  0  0  0
   23.3330   72.6951    1.1198 C   0  0  2  0  0  0  0  0  0  0  0  0
   21.0882   71.7719    0.4752 C   0  0  1  0  0  0  0  0  0  0  0  0
   22.9839   73.9525    0.3224 C   0  0  1  0  0  0  0  0  0  0  0  0
   20.8276   73.1038   -0.2225 C   0  0  1  0  0  0  0  0  0  0  0  0
   23.7057   70.1676    1.5422 H   0  0  0  0  0  0  0  0  0  0  0  0
   24.9677   71.6886    1.5654 H   0  0  0  0  0  0  0  0  0  0  0  0
   20.6155   69.8810    0.1605 H   0  0  0  0  0  0  0  0  0  0  0  0
   19.3565   74.6676    0.7218 O   0  0  0  0  0  0  0  0  0  0  0  0
   18.4324   72.9609   -0.4749 O   0  0  0  0  0  0  0  0  0  0  0  0
   19.4115   73.5375   -0.0257 C   0  0  0  0  0  0  0  0  0  0  0  0
  1  4  1  0
  1 24  1  0
  1  2  1  6
  1  3  2  0
 25 28  1  0
 25 24  1  0
 25 26  1  1
 25 27  2  0
  6 11  1  0
  6 12  1  0
 29 36  1  0
 29 37  1  0
  9  7  1  1
  7 13  1  0
 10  8  1  1
  8 14  1  0
  4  5  1  0
 36 28  1  6
 33 30  1  1
 30 38  1  0
 34 31  1  6
 31 39  1  0
 35 32  1  6
 32 40  1  0
 41 43  1  0
 15 19  2  0
 42 43  2  0
 16 22  2  0
 12 17  1  6
 17 19  1  0
 17 20  1  0
 18 19  1  0
 18 22  1  0
 18 23  1  0
  9 10  1  0
  9 11  1  0
 10 12  1  0
 11  5  1  6
 33 34  1  0
 33 35  1  0
 34 36  1  0
 35 37  1  0
 37 43  1  1
 20 21  2  0
 21 22  1  0
M  CHG  3   2  -1  26  -1  41  -1
M  END
>  <COMPND>  (51) 
    udp_gluA.pdb 

>  <AUTHOR>  (51) 
    GENERATED BY OPEN BABEL 3.1.1

>  <MASTER>  (51) 
        0    0    0    0    0    0    0    0   56    0   56    0

>  <minimizedAffinity>  (51) 
-6.67793

>  <CNNscore>  (51) 
0.7378718257

>  <CNNaffinity>  (51) 
4.4995870590

>  <CNN_VS>  (51) 
3.3201184273

>  <CNNaffinity_variance>  (51) 
0.0823617354

$$$$
52
     RDKit          3D

 43 45  0  0  0  0  0  0  0  0999 V2000
   21.9665   72.6307   -5.8558 P   0  0  2  0  0  0  0  0  0  0  0  0
   21.3290   74.0168   -5.3160 O   0  0  0  0  0  0  0  0  0  0  0  0
   23.0859   72.7900   -6.8424 O   0  0  0  0  0  0  0  0  0  0  0  0
   20.6853   71.7906   -6.3763 O   0  0  0  0  0  0  0  0  0  0  0  0
   20.1403   72.1054   -7.6445 C   0  0  0  0  0  0  0  0  0  0  0  0
   19.0288   70.0315   -7.1532 O   0  0  0  0  0  0  0  0  0  0  0  0
   18.1332   70.0484  -10.0148 O   0  0  0  0  0  0  0  0  0  0  0  0
   15.9152   70.9226   -8.6911 O   0  0  0  0  0  0  0  0  0  0  0  0
   18.2995   71.1432   -9.1135 C   0  0  1  0  0  0  0  0  0  0  0  0
   17.1750   71.1631   -8.0999 C   0  0  2  0  0  0  0  0  0  0  0  0
   19.5115   70.8519   -8.2392 C   0  0  1  0  0  0  0  0  0  0  0  0
   17.5927   70.0589   -7.1438 C   0  0  2  0  0  0  0  0  0  0  0  0
   17.3645   70.2118  -10.5841 H   0  0  0  0  0  0  0  0  0  0  0  0
   15.6945   71.6533   -9.2905 H   0  0  0  0  0  0  0  0  0  0  0  0
   16.2655   68.1429   -5.5489 O   0  0  0  0  0  0  0  0  0  0  0  0
   15.8971   71.0746   -2.0115 O   0  0  0  0  0  0  0  0  0  0  0  0
   17.1390   70.2949   -5.8024 N   0  0  0  0  0  0  0  0  0  0  0  0
   16.0824   69.6052   -3.7889 N   0  0  0  0  0  0  0  0  0  0  0  0
   16.4827   69.2650   -5.0878 C   0  0  0  0  0  0  0  0  0  0  0  0
   17.3467   71.5336   -5.2078 C   0  0  0  0  0  0  0  0  0  0  0  0
   16.9595   71.8429   -3.9687 C   0  0  0  0  0  0  0  0  0  0  0  0
   16.2659   70.8232   -3.1547 C   0  0  0  0  0  0  0  0  0  0  0  0
   15.6215   68.9050   -3.2725 H   0  0  0  0  0  0  0  0  0  0  0  0
   22.3744   71.8638   -4.4926 O   0  0  0  0  0  0  0  0  0  0  0  0
   23.5696   72.1360   -3.4385 P   0  0  2  0  0  0  0  0  0  0  0  0
   24.5146   73.1954   -4.2163 O   0  0  0  0  0  0  0  0  0  0  0  0
   24.2794   70.8957   -2.9784 O   0  0  0  0  0  0  0  0  0  0  0  0
   22.8848   72.9932   -2.2557 O   0  0  0  0  0  0  0  0  0  0  0  0
   21.7319   71.6805   -0.6567 O   0  0  0  0  0  0  0  0  0  0  0  0
   20.6132   75.5056    0.4318 O   0  0  0  0  0  0  0  0  0  0  0  0
   20.7247   74.7405   -2.3854 O   0  0  0  0  0  0  0  0  0  0  0  0
   22.5868   74.0599    2.0021 O   0  0  0  0  0  0  0  0  0  0  0  0
   21.4818   74.5014   -0.0929 C   0  0  2  0  0  0  0  0  0  0  0  0
   20.8196   73.8298   -1.2962 C   0  0  2  0  0  0  0  0  0  0  0  0
   21.7413   73.4759    1.0129 C   0  0  1  0  0  0  0  0  0  0  0  0
   21.6132   72.6009   -1.7421 C   0  0  1  0  0  0  0  0  0  0  0  0
   22.4236   72.2259    0.4645 C   0  0  1  0  0  0  0  0  0  0  0  0
   20.4340   76.1686   -0.2535 H   0  0  0  0  0  0  0  0  0  0  0  0
   20.2226   75.5228   -2.1094 H   0  0  0  0  0  0  0  0  0  0  0  0
   22.1642   74.8567    2.3592 H   0  0  0  0  0  0  0  0  0  0  0  0
   21.4052   70.2235    1.1388 O   0  0  0  0  0  0  0  0  0  0  0  0
   23.1066   71.0131    2.4352 O   0  0  0  0  0  0  0  0  0  0  0  0
   22.3752   71.1144    1.4617 C   0  0  0  0  0  0  0  0  0  0  0  0
  1  4  1  0
  1 24  1  0
  1  2  1  1
  1  3  2  0
 25 28  1  0
 25 24  1  0
 25 26  1  6
 25 27  2  0
  6 11  1  0
  6 12  1  0
 29 36  1  0
 29 37  1  0
  9  7  1  6
  7 13  1  0
 10  8  1  6
  8 14  1  0
  4  5  1  0
 36 28  1  1
 33 30  1  1
 30 38  1  0
 34 31  1  6
 31 39  1  0
 35 32  1  1
 32 40  1  0
 41 43  1  0
 15 19  2  0
 42 43  2  0
 16 22  2  0
 12 17  1  1
 17 19  1  0
 17 20  1  0
 18 19  1  0
 18 22  1  0
 18 23  1  0
  9 10  1  0
  9 11  1  0
 10 12  1  0
 11  5  1  1
 33 34  1  0
 33 35  1  0
 34 36  1  0
 35 37  1  0
 37 43  1  1
 20 21  2  0
 21 22  1  0
M  CHG  3   2  -1  26  -1  41  -1
M  END
>  <COMPND>  (52) 
    udp_gluA.pdb 

>  <AUTHOR>  (52) 
    GENERATED BY OPEN BABEL 3.1.1

>  <MASTER>  (52) 
        0    0    0    0    0    0    0    0   56    0   56    0

>  <minimizedAffinity>  (52) 
-8.21657

>  <CNNscore>  (52) 
0.7226339579

>  <CNNaffinity>  (52) 
4.5462479591

>  <CNN_VS>  (52) 
3.2852730751

>  <CNNaffinity_variance>  (52) 
0.3715550900

$$$$
53
     RDKit          3D

 43 45  0  0  0  0  0  0  0  0999 V2000
   23.5418   72.6032   -3.5972 P   0  0  2  0  0  0  0  0  0  0  0  0
   23.9866   71.1138   -3.1470 O   0  0  0  0  0  0  0  0  0  0  0  0
   24.5698   73.3602   -4.3859 O   0  0  0  0  0  0  0  0  0  0  0  0
   23.0623   73.2992   -2.2175 O   0  0  0  0  0  0  0  0  0  0  0  0
   22.1141   74.3485   -2.2834 C   0  0  0  0  0  0  0  0  0  0  0  0
   21.1961   72.7389   -0.7524 O   0  0  0  0  0  0  0  0  0  0  0  0
   19.2359   74.8714    0.0232 O   0  0  0  0  0  0  0  0  0  0  0  0
   21.0503   74.9617    2.0569 O   0  0  0  0  0  0  0  0  0  0  0  0
   20.6125   74.9963   -0.3346 C   0  0  1  0  0  0  0  0  0  0  0  0
   21.4941   74.5080    0.7953 C   0  0  2  0  0  0  0  0  0  0  0  0
   20.9070   73.9808   -1.4302 C   0  0  1  0  0  0  0  0  0  0  0  0
   21.3906   72.9996    0.6467 C   0  0  2  0  0  0  0  0  0  0  0  0
   19.0239   75.5104    0.7220 H   0  0  0  0  0  0  0  0  0  0  0  0
   21.1364   75.9274    2.1018 H   0  0  0  0  0  0  0  0  0  0  0  0
   21.5295   70.2398    1.2304 O   0  0  0  0  0  0  0  0  0  0  0  0
   25.9976   70.5109    2.3290 O   0  0  0  0  0  0  0  0  0  0  0  0
   22.5776   72.3229    1.0872 N   0  0  0  0  0  0  0  0  0  0  0  0
   23.7545   70.3777    1.7780 N   0  0  0  0  0  0  0  0  0  0  0  0
   22.5405   70.9338    1.3536 C   0  0  0  0  0  0  0  0  0  0  0  0
   23.7610   73.0330    1.2495 C   0  0  0  0  0  0  0  0  0  0  0  0
   24.9102   72.4890    1.6547 C   0  0  0  0  0  0  0  0  0  0  0  0
   24.9568   71.0430    1.9548 C   0  0  0  0  0  0  0  0  0  0  0  0
   23.7529   69.4123    1.9715 H   0  0  0  0  0  0  0  0  0  0  0  0
   22.1497   72.3460   -4.3774 O   0  0  0  0  0  0  0  0  0  0  0  0
   21.5427   73.0201   -5.7156 P   0  0  2  0  0  0  0  0  0  0  0  0
   22.5277   72.4802   -6.8812 O   0  0  0  0  0  0  0  0  0  0  0  0
   21.4216   74.5151   -5.6515 O   0  0  0  0  0  0  0  0  0  0  0  0
   20.1502   72.2459   -5.9684 O   0  0  0  0  0  0  0  0  0  0  0  0
   19.4624   70.0810   -5.2981 O   0  0  0  0  0  0  0  0  0  0  0  0
   17.4808   70.5159   -8.8970 O   0  0  0  0  0  0  0  0  0  0  0  0
   20.2512   71.3990   -8.6158 O   0  0  0  0  0  0  0  0  0  0  0  0
   16.0280   70.7677   -6.3916 O   0  0  0  0  0  0  0  0  0  0  0  0
   18.0627   70.9525   -7.6687 C   0  0  2  0  0  0  0  0  0  0  0  0
   19.5529   70.6111   -7.6585 C   0  0  2  0  0  0  0  0  0  0  0  0
   17.3445   70.2348   -6.5237 C   0  0  1  0  0  0  0  0  0  0  0  0
   20.1603   70.8531   -6.2760 C   0  0  1  0  0  0  0  0  0  0  0  0
   18.0811   70.4210   -5.2003 C   0  0  1  0  0  0  0  0  0  0  0  0
   17.9214   70.9588   -9.6392 H   0  0  0  0  0  0  0  0  0  0  0  0
   19.8709   71.2507   -9.4954 H   0  0  0  0  0  0  0  0  0  0  0  0
   15.5485   70.6557   -7.2272 H   0  0  0  0  0  0  0  0  0  0  0  0
   18.4897   69.2868   -3.1883 O   0  0  0  0  0  0  0  0  0  0  0  0
   16.4807   68.9170   -4.2013 O   0  0  0  0  0  0  0  0  0  0  0  0
   17.5723   69.4651   -4.1710 C   0  0  0  0  0  0  0  0  0  0  0  0
  1  4  1  0
  1 24  1  0
  1  2  1  1
  1  3  2  0
 25 28  1  0
 25 24  1  0
 25 26  1  6
 25 27  2  0
  6 11  1  0
  6 12  1  0
 29 36  1  0
 29 37  1  0
  9  7  1  1
  7 13  1  0
 10  8  1  1
  8 14  1  0
  4  5  1  0
 36 28  1  1
 33 30  1  6
 30 38  1  0
 34 31  1  6
 31 39  1  0
 35 32  1  1
 32 40  1  0
 41 43  1  0
 15 19  2  0
 42 43  2  0
 16 22  2  0
 12 17  1  6
 17 19  1  0
 17 20  1  0
 18 19  1  0
 18 22  1  0
 18 23  1  0
  9 10  1  0
  9 11  1  0
 10 12  1  0
 11  5  1  1
 33 34  1  0
 33 35  1  0
 34 36  1  0
 35 37  1  0
 37 43  1  1
 20 21  2  0
 21 22  1  0
M  CHG  3   2  -1  26  -1  41  -1
M  END
>  <COMPND>  (53) 
    udp_gluA.pdb 

>  <AUTHOR>  (53) 
    GENERATED BY OPEN BABEL 3.1.1

>  <MASTER>  (53) 
        0    0    0    0    0    0    0    0   56    0   56    0

>  <minimizedAffinity>  (53) 
-7.86383

>  <CNNscore>  (53) 
0.6887638569

>  <CNNaffinity>  (53) 
4.5339479446

>  <CNN_VS>  (53) 
3.1228194237

>  <CNNaffinity_variance>  (53) 
0.0576830506

$$$$
54
     RDKit          3D

 43 45  0  0  0  0  0  0  0  0999 V2000
   21.3231   73.8617   -1.3371 P   0  0  2  0  0  0  0  0  0  0  0  0
   20.0852   74.7622   -0.8120 O   0  0  0  0  0  0  0  0  0  0  0  0
   22.3898   74.6185   -2.0727 O   0  0  0  0  0  0  0  0  0  0  0  0
   20.6112   72.6674   -2.1647 O   0  0  0  0  0  0  0  0  0  0  0  0
   20.3120   72.8776   -3.5324 C   0  0  0  0  0  0  0  0  0  0  0  0
   20.7386   71.1246   -5.1207 O   0  0  0  0  0  0  0  0  0  0  0  0
   23.2756   72.5850   -5.7706 O   0  0  0  0  0  0  0  0  0  0  0  0
   21.6320   73.3029   -7.8246 O   0  0  0  0  0  0  0  0  0  0  0  0
   21.9930   73.1103   -5.4278 C   0  0  1  0  0  0  0  0  0  0  0  0
   21.0363   72.9582   -6.5914 C   0  0  2  0  0  0  0  0  0  0  0  0
   21.3731   72.1920   -4.3835 C   0  0  1  0  0  0  0  0  0  0  0  0
   20.6716   71.4858   -6.5094 C   0  0  2  0  0  0  0  0  0  0  0  0
   23.6914   73.1551   -6.4367 H   0  0  0  0  0  0  0  0  0  0  0  0
   21.8452   74.2498   -7.8272 H   0  0  0  0  0  0  0  0  0  0  0  0
   20.0409   70.9783   -9.2152 O   0  0  0  0  0  0  0  0  0  0  0  0
   15.5576   70.4835   -8.2672 O   0  0  0  0  0  0  0  0  0  0  0  0
   19.3477   71.2212   -6.9973 N   0  0  0  0  0  0  0  0  0  0  0  0
   17.8084   70.7333   -8.7406 N   0  0  0  0  0  0  0  0  0  0  0  0
   19.1387   70.9789   -8.3756 C   0  0  0  0  0  0  0  0  0  0  0  0
   18.2743   71.2019   -6.1150 C   0  0  0  0  0  0  0  0  0  0  0  0
   17.0119   70.9662   -6.4778 C   0  0  0  0  0  0  0  0  0  0  0  0
   16.7076   70.7044   -7.8998 C   0  0  0  0  0  0  0  0  0  0  0  0
   17.6378   70.5640   -9.6953 H   0  0  0  0  0  0  0  0  0  0  0  0
   21.8288   73.1207    0.0075 O   0  0  0  0  0  0  0  0  0  0  0  0
   22.2871   71.5926    0.2691 P   0  0  2  0  0  0  0  0  0  0  0  0
   22.9926   71.1740   -1.1264 O   0  0  0  0  0  0  0  0  0  0  0  0
   21.1740   70.6806    0.6971 O   0  0  0  0  0  0  0  0  0  0  0  0
   23.5035   71.7047    1.3228 O   0  0  0  0  0  0  0  0  0  0  0  0
   24.5417   70.6651    3.1803 O   0  0  0  0  0  0  0  0  0  0  0  0
   23.4860   74.3366    4.7532 O   0  0  0  0  0  0  0  0  0  0  0  0
   21.6395   72.8826    3.0180 O   0  0  0  0  0  0  0  0  0  0  0  0
   26.2535   73.7918    4.0499 O   0  0  0  0  0  0  0  0  0  0  0  0
   23.8935   73.4241    3.7337 C   0  0  2  0  0  0  0  0  0  0  0  0
   22.8328   72.3357    3.5673 C   0  0  2  0  0  0  0  0  0  0  0  0
   25.2279   72.8065    4.1577 C   0  0  1  0  0  0  0  0  0  0  0  0
   23.3350   71.2175    2.6528 C   0  0  1  0  0  0  0  0  0  0  0  0
   25.5977   71.6186    3.2741 C   0  0  1  0  0  0  0  0  0  0  0  0
   22.6398   74.7416    4.5055 H   0  0  0  0  0  0  0  0  0  0  0  0
   21.3153   73.5930    3.5931 H   0  0  0  0  0  0  0  0  0  0  0  0
   26.0302   74.5534    4.6075 H   0  0  0  0  0  0  0  0  0  0  0  0
   27.0455   71.3344    5.0975 O   0  0  0  0  0  0  0  0  0  0  0  0
   27.2457   69.8590    3.3705 O   0  0  0  0  0  0  0  0  0  0  0  0
   26.7094   70.8290    3.8848 C   0  0  0  0  0  0  0  0  0  0  0  0
  1  4  1  0
  1 24  1  0
  1  2  1  1
  1  3  2  0
 25 28  1  0
 25 24  1  0
 25 26  1  6
 25 27  2  0
  6 11  1  0
  6 12  1  0
 29 36  1  0
 29 37  1  0
  9  7  1  6
  7 13  1  0
 10  8  1  6
  8 14  1  0
  4  5  1  0
 36 28  1  6
 33 30  1  1
 30 38  1  0
 34 31  1  6
 31 39  1  0
 35 32  1  6
 32 40  1  0
 41 43  1  0
 15 19  2  0
 42 43  2  0
 16 22  2  0
 12 17  1  1
 17 19  1  0
 17 20  1  0
 18 19  1  0
 18 22  1  0
 18 23  1  0
  9 10  1  0
  9 11  1  0
 10 12  1  0
 11  5  1  6
 33 34  1  0
 33 35  1  0
 34 36  1  0
 35 37  1  0
 37 43  1  1
 20 21  2  0
 21 22  1  0
M  CHG  3   2  -1  26  -1  41  -1
M  END
>  <COMPND>  (54) 
    udp_gluA.pdb 

>  <AUTHOR>  (54) 
    GENERATED BY OPEN BABEL 3.1.1

>  <MASTER>  (54) 
        0    0    0    0    0    0    0    0   56    0   56    0

>  <minimizedAffinity>  (54) 
-7.06853

>  <CNNscore>  (54) 
0.6136432290

>  <CNNaffinity>  (54) 
4.2731056213

>  <CNN_VS>  (54) 
2.6221623421

>  <CNNaffinity_variance>  (54) 
0.0476991422

$$$$
55
     RDKit          3D

 43 45  0  0  0  0  0  0  0  0999 V2000
   21.0202   73.1820   -4.5872 P   0  0  2  0  0  0  0  0  0  0  0  0
   19.6209   72.6652   -3.9596 O   0  0  0  0  0  0  0  0  0  0  0  0
   21.0577   74.6410   -4.9359 O   0  0  0  0  0  0  0  0  0  0  0  0
   21.2984   72.1599   -5.8103 O   0  0  0  0  0  0  0  0  0  0  0  0
   20.4948   72.2605   -6.9716 C   0  0  0  0  0  0  0  0  0  0  0  0
   19.2425   70.3168   -6.3147 O   0  0  0  0  0  0  0  0  0  0  0  0
   19.2335   69.5703   -9.2189 O   0  0  0  0  0  0  0  0  0  0  0  0
   16.7431   70.6238   -8.8668 O   0  0  0  0  0  0  0  0  0  0  0  0
   19.1499   70.8627   -8.6178 C   0  0  1  0  0  0  0  0  0  0  0  0
   17.7768   71.0730   -8.0158 C   0  0  2  0  0  0  0  0  0  0  0  0
   20.0425   70.8657   -7.3843 C   0  0  1  0  0  0  0  0  0  0  0  0
   17.8687   70.2668   -6.7314 C   0  0  2  0  0  0  0  0  0  0  0  0
   18.6713   69.5441  -10.0094 H   0  0  0  0  0  0  0  0  0  0  0  0
   16.7256   71.1687   -9.6697 H   0  0  0  0  0  0  0  0  0  0  0  0
   16.8953   68.7743   -4.5402 O   0  0  0  0  0  0  0  0  0  0  0  0
   14.7128   72.4337   -2.7828 O   0  0  0  0  0  0  0  0  0  0  0  0
   17.0440   70.8046   -5.6867 N   0  0  0  0  0  0  0  0  0  0  0  0
   15.8084   70.5980   -3.6675 N   0  0  0  0  0  0  0  0  0  0  0  0
   16.6083   69.9694   -4.6309 C   0  0  0  0  0  0  0  0  0  0  0  0
   16.6766   72.1444   -5.7133 C   0  0  0  0  0  0  0  0  0  0  0  0
   15.9138   72.7295   -4.7878 C   0  0  0  0  0  0  0  0  0  0  0  0
   15.4160   71.9267   -3.6515 C   0  0  0  0  0  0  0  0  0  0  0  0
   15.4912   70.0363   -2.9238 H   0  0  0  0  0  0  0  0  0  0  0  0
   22.1052   72.7264   -3.4790 O   0  0  0  0  0  0  0  0  0  0  0  0
   22.3980   71.2838   -2.8106 P   0  0  2  0  0  0  0  0  0  0  0  0
   24.0014   71.1234   -2.9646 O   0  0  0  0  0  0  0  0  0  0  0  0
   21.6038   70.1570   -3.4052 O   0  0  0  0  0  0  0  0  0  0  0  0
   22.1612   71.5091   -1.2308 O   0  0  0  0  0  0  0  0  0  0  0  0
   21.7898   73.5970   -0.1764 O   0  0  0  0  0  0  0  0  0  0  0  0
   23.3921   71.3689    2.9117 O   0  0  0  0  0  0  0  0  0  0  0  0
   24.5127   71.1896    0.2198 O   0  0  0  0  0  0  0  0  0  0  0  0
   20.5388   71.9204    2.8379 O   0  0  0  0  0  0  0  0  0  0  0  0
   22.6449   71.5900    1.7155 C   0  0  2  0  0  0  0  0  0  0  0  0
   23.5639   72.1644    0.6370 C   0  0  2  0  0  0  0  0  0  0  0  0
   21.5195   72.5761    2.0363 C   0  0  1  0  0  0  0  0  0  0  0  0
   22.7587   72.6277   -0.5778 C   0  0  1  0  0  0  0  0  0  0  0  0
   20.8479   73.0878    0.7652 C   0  0  1  0  0  0  0  0  0  0  0  0
   24.1131   70.7451    2.7321 H   0  0  0  0  0  0  0  0  0  0  0  0
   25.0270   70.8910    0.9858 H   0  0  0  0  0  0  0  0  0  0  0  0
   20.9533   71.5898    3.6501 H   0  0  0  0  0  0  0  0  0  0  0  0
   20.3557   75.3310    0.2888 O   0  0  0  0  0  0  0  0  0  0  0  0
   19.0845   74.3020    1.8775 O   0  0  0  0  0  0  0  0  0  0  0  0
   19.9915   74.2762    1.0593 C   0  0  0  0  0  0  0  0  0  0  0  0
  1  4  1  0
  1 24  1  0
  1  2  1  1
  1  3  2  0
 25 28  1  0
 25 24  1  0
 25 26  1  1
 25 27  2  0
  6 11  1  0
  6 12  1  0
 29 36  1  0
 29 37  1  0
  9  7  1  1
  7 13  1  0
 10  8  1  6
  8 14  1  0
  4  5  1  0
 36 28  1  1
 33 30  1  1
 30 38  1  0
 34 31  1  6
 31 39  1  0
 35 32  1  1
 32 40  1  0
 41 43  1  0
 15 19  2  0
 42 43  2  0
 16 22  2  0
 12 17  1  1
 17 19  1  0
 17 20  1  0
 18 19  1  0
 18 22  1  0
 18 23  1  0
  9 10  1  0
  9 11  1  0
 10 12  1  0
 11  5  1  1
 33 34  1  0
 33 35  1  0
 34 36  1  0
 35 37  1  0
 37 43  1  1
 20 21  2  0
 21 22  1  0
M  CHG  3   2  -1  26  -1  41  -1
M  END
>  <COMPND>  (55) 
    udp_gluA.pdb 

>  <AUTHOR>  (55) 
    GENERATED BY OPEN BABEL 3.1.1

>  <MASTER>  (55) 
        0    0    0    0    0    0    0    0   56    0   56    0

>  <minimizedAffinity>  (55) 
-6.81035

>  <CNNscore>  (55) 
0.5800811052

>  <CNNaffinity>  (55) 
4.3820843697

>  <CNN_VS>  (55) 
2.5419642925

>  <CNNaffinity_variance>  (55) 
0.2867730260

$$$$
56
     RDKit          3D

 43 45  0  0  0  0  0  0  0  0999 V2000
   23.2973   71.8903   -2.1633 P   0  0  2  0  0  0  0  0  0  0  0  0
   24.2914   70.9720   -3.0507 O   0  0  0  0  0  0  0  0  0  0  0  0
   23.5663   73.3649   -2.2325 O   0  0  0  0  0  0  0  0  0  0  0  0
   23.3730   71.2308   -0.6877 O   0  0  0  0  0  0  0  0  0  0  0  0
   23.4124   72.0910    0.4361 C   0  0  0  0  0  0  0  0  0  0  0  0
   23.3698   70.8920    2.5190 O   0  0  0  0  0  0  0  0  0  0  0  0
   20.5834   71.9474    2.8556 O   0  0  0  0  0  0  0  0  0  0  0  0
   22.0438   73.5983    4.4612 O   0  0  0  0  0  0  0  0  0  0  0  0
   21.7252   72.5794    2.2766 C   0  0  1  0  0  0  0  0  0  0  0  0
   22.6955   73.0022    3.3591 C   0  0  2  0  0  0  0  0  0  0  0  0
   22.5223   71.5176    1.5312 C   0  0  1  0  0  0  0  0  0  0  0  0
   23.3627   71.6851    3.7166 C   0  0  2  0  0  0  0  0  0  0  0  0
   20.0583   72.6062    3.3374 H   0  0  0  0  0  0  0  0  0  0  0  0
   21.6355   74.4334    4.1824 H   0  0  0  0  0  0  0  0  0  0  0  0
   24.0965   72.1687    6.4007 O   0  0  0  0  0  0  0  0  0  0  0  0
   28.5776   72.3412    5.3359 O   0  0  0  0  0  0  0  0  0  0  0  0
   24.7140   71.8602    4.1686 N   0  0  0  0  0  0  0  0  0  0  0  0
   26.3276   72.2551    5.8677 N   0  0  0  0  0  0  0  0  0  0  0  0
   24.9747   72.0986    5.5388 C   0  0  0  0  0  0  0  0  0  0  0  0
   25.7634   71.7937    3.2602 C   0  0  0  0  0  0  0  0  0  0  0  0
   27.0479   71.9448    3.5887 C   0  0  0  0  0  0  0  0  0  0  0  0
   27.4060   72.1980    4.9997 C   0  0  0  0  0  0  0  0  0  0  0  0
   26.5337   72.4241    6.8154 H   0  0  0  0  0  0  0  0  0  0  0  0
   21.8326   71.4478   -2.6844 O   0  0  0  0  0  0  0  0  0  0  0  0
   20.3724   71.6093   -2.0097 P   0  0  2  0  0  0  0  0  0  0  0  0
   20.3882   73.1293   -1.4532 O   0  0  0  0  0  0  0  0  0  0  0  0
   20.0565   70.5733   -0.9700 O   0  0  0  0  0  0  0  0  0  0  0  0
   19.3474   71.6422   -3.2550 O   0  0  0  0  0  0  0  0  0  0  0  0
   18.7879   70.0992   -4.9623 O   0  0  0  0  0  0  0  0  0  0  0  0
   18.7270   73.6836   -7.0157 O   0  0  0  0  0  0  0  0  0  0  0  0
   20.8388   73.1236   -5.0764 O   0  0  0  0  0  0  0  0  0  0  0  0
   16.2344   72.3843   -6.2740 O   0  0  0  0  0  0  0  0  0  0  0  0
   18.5705   72.8270   -5.8845 C   0  0  2  0  0  0  0  0  0  0  0  0
   19.9076   72.1614   -5.5577 C   0  0  2  0  0  0  0  0  0  0  0  0
   17.5209   71.7695   -6.2336 C   0  0  1  0  0  0  0  0  0  0  0  0
   19.7312   71.0680   -4.5031 C   0  0  1  0  0  0  0  0  0  0  0  0
   17.4935   70.6487   -5.1984 C   0  0  1  0  0  0  0  0  0  0  0  0
   19.3895   74.3639   -6.8172 H   0  0  0  0  0  0  0  0  0  0  0  0
   20.9553   73.8206   -5.7405 H   0  0  0  0  0  0  0  0  0  0  0  0
   16.2384   73.0997   -6.9291 H   0  0  0  0  0  0  0  0  0  0  0  0
   16.4123   69.6369   -7.0174 O   0  0  0  0  0  0  0  0  0  0  0  0
   16.4031   68.5023   -5.0396 O   0  0  0  0  0  0  0  0  0  0  0  0
   16.7189   69.4764   -5.7062 C   0  0  0  0  0  0  0  0  0  0  0  0
  1  4  1  0
  1 24  1  0
  1  2  1  6
  1  3  2  0
 25 28  1  0
 25 24  1  0
 25 26  1  1
 25 27  2  0
  6 11  1  0
  6 12  1  0
 29 36  1  0
 29 37  1  0
  9  7  1  1
  7 13  1  0
 10  8  1  1
  8 14  1  0
  4  5  1  0
 36 28  1  1
 33 30  1  6
 30 38  1  0
 34 31  1  1
 31 39  1  0
 35 32  1  1
 32 40  1  0
 41 43  1  0
 15 19  2  0
 42 43  2  0
 16 22  2  0
 12 17  1  6
 17 19  1  0
 17 20  1  0
 18 19  1  0
 18 22  1  0
 18 23  1  0
  9 10  1  0
  9 11  1  0
 10 12  1  0
 11  5  1  6
 33 34  1  0
 33 35  1  0
 34 36  1  0
 35 37  1  0
 37 43  1  6
 20 21  2  0
 21 22  1  0
M  CHG  3   2  -1  26  -1  41  -1
M  END
>  <COMPND>  (56) 
    udp_gluA.pdb 

>  <AUTHOR>  (56) 
    GENERATED BY OPEN BABEL 3.1.1

>  <MASTER>  (56) 
        0    0    0    0    0    0    0    0   56    0   56    0

>  <minimizedAffinity>  (56) 
-7.39272

>  <CNNscore>  (56) 
0.5762299299

>  <CNNaffinity>  (56) 
4.3123655319

>  <CNN_VS>  (56) 
2.4849140644

>  <CNNaffinity_variance>  (56) 
0.1114658341

$$$$
57
     RDKit          3D

 43 45  0  0  0  0  0  0  0  0999 V2000
   22.2959   73.2567   -4.8890 P   0  0  2  0  0  0  0  0  0  0  0  0
   22.1654   74.8697   -4.9031 O   0  0  0  0  0  0  0  0  0  0  0  0
   23.3880   72.7019   -5.7557 O   0  0  0  0  0  0  0  0  0  0  0  0
   20.7997   72.7429   -5.2288 O   0  0  0  0  0  0  0  0  0  0  0  0
   20.4033   72.6655   -6.5857 C   0  0  0  0  0  0  0  0  0  0  0  0
   19.3780   70.6000   -5.9074 O   0  0  0  0  0  0  0  0  0  0  0  0
   19.6704   69.7328   -8.7629 O   0  0  0  0  0  0  0  0  0  0  0  0
   17.0436   70.4516   -8.6245 O   0  0  0  0  0  0  0  0  0  0  0  0
   19.3741   71.0268   -8.2374 C   0  0  1  0  0  0  0  0  0  0  0  0
   17.9467   71.0742   -7.7350 C   0  0  2  0  0  0  0  0  0  0  0  0
   20.1704   71.2053   -6.9519 C   0  0  1  0  0  0  0  0  0  0  0  0
   18.0554   70.3451   -6.4067 C   0  0  2  0  0  0  0  0  0  0  0  0
   19.1730   69.5956   -9.5848 H   0  0  0  0  0  0  0  0  0  0  0  0
   17.0097   70.9533   -9.4546 H   0  0  0  0  0  0  0  0  0  0  0  0
   16.9487   68.7494   -4.3560 O   0  0  0  0  0  0  0  0  0  0  0  0
   14.3822   72.2370   -2.7769 O   0  0  0  0  0  0  0  0  0  0  0  0
   17.0959   70.8107   -5.4458 N   0  0  0  0  0  0  0  0  0  0  0  0
   15.6707   70.4876   -3.5721 N   0  0  0  0  0  0  0  0  0  0  0  0
   16.6025   69.9279   -4.4562 C   0  0  0  0  0  0  0  0  0  0  0  0
   16.6547   72.1277   -5.4883 C   0  0  0  0  0  0  0  0  0  0  0  0
   15.7662   72.6468   -4.6387 C   0  0  0  0  0  0  0  0  0  0  0  0
   15.2009   71.7911   -3.5750 C   0  0  0  0  0  0  0  0  0  0  0  0
   15.3114   69.8917   -2.8756 H   0  0  0  0  0  0  0  0  0  0  0  0
   22.4476   72.9187   -3.3156 O   0  0  0  0  0  0  0  0  0  0  0  0
   22.6596   71.5118   -2.5478 P   0  0  2  0  0  0  0  0  0  0  0  0
   24.1275   71.0393   -3.0401 O   0  0  0  0  0  0  0  0  0  0  0  0
   21.5718   70.5065   -2.7930 O   0  0  0  0  0  0  0  0  0  0  0  0
   22.8602   71.9168   -0.9992 O   0  0  0  0  0  0  0  0  0  0  0  0
   24.2295   71.0431    0.7244 O   0  0  0  0  0  0  0  0  0  0  0  0
   20.8028   72.0491    2.8014 O   0  0  0  0  0  0  0  0  0  0  0  0
   20.6244   70.7616    0.1851 O   0  0  0  0  0  0  0  0  0  0  0  0
   23.1739   73.7190    3.0020 O   0  0  0  0  0  0  0  0  0  0  0  0
   21.7897   72.1732    1.7774 C   0  0  2  0  0  0  0  0  0  0  0  0
   21.8228   70.8940    0.9407 C   0  0  2  0  0  0  0  0  0  0  0  0
   23.1442   72.4035    2.4514 C   0  0  1  0  0  0  0  0  0  0  0  0
   23.0166   70.8962   -0.0151 C   0  0  1  0  0  0  0  0  0  0  0  0
   24.2925   72.2653    1.4560 C   0  0  1  0  0  0  0  0  0  0  0  0
   19.9334   71.9020    2.3966 H   0  0  0  0  0  0  0  0  0  0  0  0
   19.8628   70.7598    0.7853 H   0  0  0  0  0  0  0  0  0  0  0  0
   22.4478   73.8202    3.6372 H   0  0  0  0  0  0  0  0  0  0  0  0
   26.2637   71.0400    1.7940 O   0  0  0  0  0  0  0  0  0  0  0  0
   26.0271   72.9761    2.9750 O   0  0  0  0  0  0  0  0  0  0  0  0
   25.6021   72.1631    2.1679 C   0  0  0  0  0  0  0  0  0  0  0  0
  1  4  1  0
  1 24  1  0
  1  2  1  1
  1  3  2  0
 25 28  1  0
 25 24  1  0
 25 26  1  6
 25 27  2  0
  6 11  1  0
  6 12  1  0
 29 36  1  0
 29 37  1  0
  9  7  1  1
  7 13  1  0
 10  8  1  6
  8 14  1  0
  4  5  1  0
 36 28  1  6
 33 30  1  1
 30 38  1  0
 34 31  1  6
 31 39  1  0
 35 32  1  6
 32 40  1  0
 41 43  1  0
 15 19  2  0
 42 43  2  0
 16 22  2  0
 12 17  1  1
 17 19  1  0
 17 20  1  0
 18 19  1  0
 18 22  1  0
 18 23  1  0
  9 10  1  0
  9 11  1  0
 10 12  1  0
 11  5  1  1
 33 34  1  0
 33 35  1  0
 34 36  1  0
 35 37  1  0
 37 43  1  1
 20 21  2  0
 21 22  1  0
M  CHG  3   2  -1  26  -1  41  -1
M  END
>  <COMPND>  (57) 
    udp_gluA.pdb 

>  <AUTHOR>  (57) 
    GENERATED BY OPEN BABEL 3.1.1

>  <MASTER>  (57) 
        0    0    0    0    0    0    0    0   56    0   56    0

>  <minimizedAffinity>  (57) 
-7.82870

>  <CNNscore>  (57) 
0.5464010239

>  <CNNaffinity>  (57) 
4.3977432251

>  <CNN_VS>  (57) 
2.4029314518

>  <CNNaffinity_variance>  (57) 
0.1018075794

$$$$
58
     RDKit          3D

 43 45  0  0  0  0  0  0  0  0999 V2000
   23.1289   71.7604   -2.3922 P   0  0  2  0  0  0  0  0  0  0  0  0
   23.4835   73.2890   -1.9966 O   0  0  0  0  0  0  0  0  0  0  0  0
   24.2080   71.0326   -3.1389 O   0  0  0  0  0  0  0  0  0  0  0  0
   21.7046   71.8758   -3.1511 O   0  0  0  0  0  0  0  0  0  0  0  0
   21.5541   72.8566   -4.1610 C   0  0  0  0  0  0  0  0  0  0  0  0
   20.7955   70.9377   -5.3940 O   0  0  0  0  0  0  0  0  0  0  0  0
   21.3145   72.5533   -7.8662 O   0  0  0  0  0  0  0  0  0  0  0  0
   18.6107   72.7579   -7.5775 O   0  0  0  0  0  0  0  0  0  0  0  0
   20.8237   72.9792   -6.5949 C   0  0  1  0  0  0  0  0  0  0  0  0
   19.3848   72.5437   -6.4159 C   0  0  2  0  0  0  0  0  0  0  0  0
   21.5375   72.1701   -5.5207 C   0  0  1  0  0  0  0  0  0  0  0  0
   19.5407   71.0703   -6.0804 C   0  0  2  0  0  0  0  0  0  0  0  0
   20.8729   73.0564   -8.5687 H   0  0  0  0  0  0  0  0  0  0  0  0
   18.5408   73.7107   -7.7483 H   0  0  0  0  0  0  0  0  0  0  0  0
   17.0859   70.0293   -7.0117 O   0  0  0  0  0  0  0  0  0  0  0  0
   15.5817   69.2485   -2.7255 O   0  0  0  0  0  0  0  0  0  0  0  0
   18.4898   70.5878   -5.2296 N   0  0  0  0  0  0  0  0  0  0  0  0
   16.3387   69.6424   -4.8760 N   0  0  0  0  0  0  0  0  0  0  0  0
   17.2958   70.0851   -5.7985 C   0  0  0  0  0  0  0  0  0  0  0  0
   18.6478   70.6139   -3.8493 C   0  0  0  0  0  0  0  0  0  0  0  0
   17.7266   70.1883   -2.9827 C   0  0  0  0  0  0  0  0  0  0  0  0
   16.4499   69.6488   -3.4950 C   0  0  0  0  0  0  0  0  0  0  0  0
   15.4982   69.2899   -5.2483 H   0  0  0  0  0  0  0  0  0  0  0  0
   22.7311   71.1008   -0.9711 O   0  0  0  0  0  0  0  0  0  0  0  0
   21.9329   71.7104    0.2958 P   0  0  2  0  0  0  0  0  0  0  0  0
   21.1325   70.4302    0.8796 O   0  0  0  0  0  0  0  0  0  0  0  0
   21.0608   72.8871   -0.0341 O   0  0  0  0  0  0  0  0  0  0  0  0
   23.0760   72.0112    1.3936 O   0  0  0  0  0  0  0  0  0  0  0  0
   23.1410   72.7014    3.6582 O   0  0  0  0  0  0  0  0  0  0  0  0
   26.1528   74.9888    1.9954 O   0  0  0  0  0  0  0  0  0  0  0  0
   23.6249   74.6136    0.5799 O   0  0  0  0  0  0  0  0  0  0  0  0
   26.8099   72.6726    3.6245 O   0  0  0  0  0  0  0  0  0  0  0  0
   25.3160   73.8411    2.1387 C   0  0  2  0  0  0  0  0  0  0  0  0
   23.8554   74.2441    1.9346 C   0  0  2  0  0  0  0  0  0  0  0  0
   25.5212   73.2791    3.5472 C   0  0  1  0  0  0  0  0  0  0  0  0
   22.9144   73.0967    2.3048 C   0  0  1  0  0  0  0  0  0  0  0  0
   24.4670   72.2297    3.8873 C   0  0  1  0  0  0  0  0  0  0  0  0
   26.0392   75.3632    1.1076 H   0  0  0  0  0  0  0  0  0  0  0  0
   24.2189   75.3411    0.3382 H   0  0  0  0  0  0  0  0  0  0  0  0
   27.4901   73.3300    3.4101 H   0  0  0  0  0  0  0  0  0  0  0  0
   23.3807   71.1965    5.6912 O   0  0  0  0  0  0  0  0  0  0  0  0
   25.3287   72.2932    6.1400 O   0  0  0  0  0  0  0  0  0  0  0  0
   24.4686   71.9312    5.3513 C   0  0  0  0  0  0  0  0  0  0  0  0
  1  4  1  0
  1 24  1  0
  1  2  1  1
  1  3  2  0
 25 28  1  0
 25 24  1  0
 25 26  1  1
 25 27  2  0
  6 11  1  0
  6 12  1  0
 29 36  1  0
 29 37  1  0
  9  7  1  6
  7 13  1  0
 10  8  1  6
  8 14  1  0
  4  5  1  0
 36 28  1  6
 33 30  1  1
 30 38  1  0
 34 31  1  6
 31 39  1  0
 35 32  1  6
 32 40  1  0
 41 43  1  0
 15 19  2  0
 42 43  2  0
 16 22  2  0
 12 17  1  1
 17 19  1  0
 17 20  1  0
 18 19  1  0
 18 22  1  0
 18 23  1  0
  9 10  1  0
  9 11  1  0
 10 12  1  0
 11  5  1  1
 33 34  1  0
 33 35  1  0
 34 36  1  0
 35 37  1  0
 37 43  1  1
 20 21  2  0
 21 22  1  0
M  CHG  3   2  -1  26  -1  41  -1
M  END
>  <COMPND>  (58) 
    udp_gluA.pdb 

>  <AUTHOR>  (58) 
    GENERATED BY OPEN BABEL 3.1.1

>  <MASTER>  (58) 
        0    0    0    0    0    0    0    0   56    0   56    0

>  <minimizedAffinity>  (58) 
-7.51022

>  <CNNscore>  (58) 
0.5452529192

>  <CNNaffinity>  (58) 
4.1990900040

>  <CNN_VS>  (58) 
2.2895660400

>  <CNNaffinity_variance>  (58) 
0.1025336161

$$$$
59
     RDKit          3D

 43 45  0  0  0  0  0  0  0  0999 V2000
   14.9890   71.2365   -1.8968 P   0  0  2  0  0  0  0  0  0  0  0  0
   16.0646   72.1963   -1.1615 O   0  0  0  0  0  0  0  0  0  0  0  0
   14.1946   71.8938   -2.9871 O   0  0  0  0  0  0  0  0  0  0  0  0
   14.1270   70.6133   -0.6775 O   0  0  0  0  0  0  0  0  0  0  0  0
   13.8293   69.2293   -0.6982 C   0  0  0  0  0  0  0  0  0  0  0  0
   11.9247   67.7909   -0.4127 O   0  0  0  0  0  0  0  0  0  0  0  0
   10.2498   70.1833   -1.0928 O   0  0  0  0  0  0  0  0  0  0  0  0
   10.0562   70.0735    1.6251 O   0  0  0  0  0  0  0  0  0  0  0  0
   11.4692   70.1146   -0.3533 C   0  0  1  0  0  0  0  0  0  0  0  0
   11.2157   69.5371    1.0231 C   0  0  2  0  0  0  0  0  0  0  0  0
   12.3457   69.0454   -0.9910 C   0  0  1  0  0  0  0  0  0  0  0  0
   11.0862   68.0534    0.7236 C   0  0  2  0  0  0  0  0  0  0  0  0
    9.6732   70.8600   -0.7039 H   0  0  0  0  0  0  0  0  0  0  0  0
   10.1888   71.0196    1.7959 H   0  0  0  0  0  0  0  0  0  0  0  0
    9.3441   66.8398    2.5861 O   0  0  0  0  0  0  0  0  0  0  0  0
   12.8470   64.9279    4.8923 O   0  0  0  0  0  0  0  0  0  0  0  0
   11.5161   67.2333    1.8206 N   0  0  0  0  0  0  0  0  0  0  0  0
   11.0905   65.8896    3.7336 N   0  0  0  0  0  0  0  0  0  0  0  0
   10.5597   66.6711    2.6988 C   0  0  0  0  0  0  0  0  0  0  0  0
   12.8704   66.9919    2.0169 C   0  0  0  0  0  0  0  0  0  0  0  0
   13.3611   66.2447    3.0077 C   0  0  0  0  0  0  0  0  0  0  0  0
   12.4290   65.6213    3.9700 C   0  0  0  0  0  0  0  0  0  0  0  0
   10.4441   65.4892    4.3590 H   0  0  0  0  0  0  0  0  0  0  0  0
   15.8906   69.9854   -2.3812 O   0  0  0  0  0  0  0  0  0  0  0  0
   17.2353   69.9298   -3.2768 P   0  0  2  0  0  0  0  0  0  0  0  0
   17.4857   68.3423   -3.4702 O   0  0  0  0  0  0  0  0  0  0  0  0
   18.3993   70.6721   -2.6867 O   0  0  0  0  0  0  0  0  0  0  0  0
   16.7785   70.4504   -4.7338 O   0  0  0  0  0  0  0  0  0  0  0  0
   18.5991   71.5020   -5.8241 O   0  0  0  0  0  0  0  0  0  0  0  0
   15.5461   72.0686   -8.5493 O   0  0  0  0  0  0  0  0  0  0  0  0
   15.0626   72.4197   -5.6897 O   0  0  0  0  0  0  0  0  0  0  0  0
   17.5858   70.0564   -9.0406 O   0  0  0  0  0  0  0  0  0  0  0  0
   16.2677   71.3858   -7.5240 C   0  0  2  0  0  0  0  0  0  0  0  0
   16.3489   72.2703   -6.2796 C   0  0  2  0  0  0  0  0  0  0  0  0
   17.6709   71.0834   -8.0546 C   0  0  1  0  0  0  0  0  0  0  0  0
   17.3047   71.6735   -5.2456 C   0  0  1  0  0  0  0  0  0  0  0  0
   18.5989   70.6125   -6.9385 C   0  0  1  0  0  0  0  0  0  0  0  0
   14.6509   72.2712   -8.2348 H   0  0  0  0  0  0  0  0  0  0  0  0
   14.4509   72.7977   -6.3403 H   0  0  0  0  0  0  0  0  0  0  0  0
   16.9979   70.3435   -9.7567 H   0  0  0  0  0  0  0  0  0  0  0  0
   20.2150   69.7793   -8.4203 O   0  0  0  0  0  0  0  0  0  0  0  0
   20.9013   71.3328   -6.8989 O   0  0  0  0  0  0  0  0  0  0  0  0
   20.0237   70.6370   -7.3876 C   0  0  0  0  0  0  0  0  0  0  0  0
  1  4  1  0
  1 24  1  0
  1  2  1  1
  1  3  2  0
 25 28  1  0
 25 24  1  0
 25 26  1  6
 25 27  2  0
  6 11  1  0
  6 12  1  0
 29 36  1  0
 29 37  1  0
  9  7  1  6
  7 13  1  0
 10  8  1  6
  8 14  1  0
  4  5  1  0
 36 28  1  6
 33 30  1  6
 30 38  1  0
 34 31  1  1
 31 39  1  0
 35 32  1  6
 32 40  1  0
 41 43  1  0
 15 19  2  0
 42 43  2  0
 16 22  2  0
 12 17  1  1
 17 19  1  0
 17 20  1  0
 18 19  1  0
 18 22  1  0
 18 23  1  0
  9 10  1  0
  9 11  1  0
 10 12  1  0
 11  5  1  1
 33 34  1  0
 33 35  1  0
 34 36  1  0
 35 37  1  0
 37 43  1  6
 20 21  2  0
 21 22  1  0
M  CHG  3   2  -1  26  -1  41  -1
M  END
>  <COMPND>  (59) 
    udp_gluA.pdb 

>  <AUTHOR>  (59) 
    GENERATED BY OPEN BABEL 3.1.1

>  <MASTER>  (59) 
        0    0    0    0    0    0    0    0   56    0   56    0

>  <minimizedAffinity>  (59) 
-6.70768

>  <CNNscore>  (59) 
0.5373659730

>  <CNNaffinity>  (59) 
4.1684212685

>  <CNN_VS>  (59) 
2.2399678230

>  <CNNaffinity_variance>  (59) 
0.0597880483

$$$$
60
     RDKit          3D

 43 45  0  0  0  0  0  0  0  0999 V2000
   23.3979   71.9656   -2.1779 P   0  0  2  0  0  0  0  0  0  0  0  0
   24.3186   71.0046   -3.0986 O   0  0  0  0  0  0  0  0  0  0  0  0
   23.7469   73.4238   -2.2372 O   0  0  0  0  0  0  0  0  0  0  0  0
   23.4704   71.2848   -0.7119 O   0  0  0  0  0  0  0  0  0  0  0  0
   23.6452   72.1236    0.4152 C   0  0  0  0  0  0  0  0  0  0  0  0
   23.8173   70.5504    2.2244 O   0  0  0  0  0  0  0  0  0  0  0  0
   21.4966   71.9959    3.4558 O   0  0  0  0  0  0  0  0  0  0  0  0
   23.6229   72.9936    4.8411 O   0  0  0  0  0  0  0  0  0  0  0  0
   22.5853   72.5183    2.6941 C   0  0  1  0  0  0  0  0  0  0  0  0
   23.8498   72.5294    3.5267 C   0  0  2  0  0  0  0  0  0  0  0  0
   22.9274   71.5067    1.6088 C   0  0  1  0  0  0  0  0  0  0  0  0
   24.2670   71.0692    3.4861 C   0  0  2  0  0  0  0  0  0  0  0  0
   21.2599   72.6250    4.1557 H   0  0  0  0  0  0  0  0  0  0  0  0
   23.3602   73.9275    4.8133 H   0  0  0  0  0  0  0  0  0  0  0  0
   25.5478   68.6547    4.1975 O   0  0  0  0  0  0  0  0  0  0  0  0
   29.7324   70.5474    3.8099 O   0  0  0  0  0  0  0  0  0  0  0  0
   25.6899   70.9031    3.5788 N   0  0  0  0  0  0  0  0  0  0  0  0
   27.6307   69.5999    4.0048 N   0  0  0  0  0  0  0  0  0  0  0  0
   26.2317   69.6482    3.9447 C   0  0  0  0  0  0  0  0  0  0  0  0
   26.5324   71.9743    3.3074 C   0  0  0  0  0  0  0  0  0  0  0  0
   27.8640   71.9129    3.3688 C   0  0  0  0  0  0  0  0  0  0  0  0
   28.5102   70.6383    3.7445 C   0  0  0  0  0  0  0  0  0  0  0  0
   28.0310   68.7373    4.2594 H   0  0  0  0  0  0  0  0  0  0  0  0
   21.8992   71.6115   -2.6693 O   0  0  0  0  0  0  0  0  0  0  0  0
   20.4824   71.6874   -1.8944 P   0  0  2  0  0  0  0  0  0  0  0  0
   20.4734   73.1874   -1.2860 O   0  0  0  0  0  0  0  0  0  0  0  0
   20.2799   70.6050   -0.8739 O   0  0  0  0  0  0  0  0  0  0  0  0
   19.3754   71.7171   -3.0674 O   0  0  0  0  0  0  0  0  0  0  0  0
   18.0104   69.7829   -2.9971 O   0  0  0  0  0  0  0  0  0  0  0  0
   16.6427   71.6531   -6.4176 O   0  0  0  0  0  0  0  0  0  0  0  0
   19.5038   71.5312   -5.8396 O   0  0  0  0  0  0  0  0  0  0  0  0
   15.0704   71.7486   -3.9744 O   0  0  0  0  0  0  0  0  0  0  0  0
   17.1930   71.5826   -5.1023 C   0  0  2  0  0  0  0  0  0  0  0  0
   18.5055   70.7993   -5.1379 C   0  0  2  0  0  0  0  0  0  0  0  0
   16.1765   70.8772   -4.2016 C   0  0  1  0  0  0  0  0  0  0  0  0
   19.0058   70.5053   -3.7230 C   0  0  1  0  0  0  0  0  0  0  0  0
   16.7894   70.5053   -2.8545 C   0  0  1  0  0  0  0  0  0  0  0  0
   17.2714   72.0977   -7.0079 H   0  0  0  0  0  0  0  0  0  0  0  0
   19.1929   71.7215   -6.7383 H   0  0  0  0  0  0  0  0  0  0  0  0
   14.6714   71.9930   -4.8240 H   0  0  0  0  0  0  0  0  0  0  0  0
   16.5910   68.4039   -1.8318 O   0  0  0  0  0  0  0  0  0  0  0  0
   14.7476   69.7458   -1.8173 O   0  0  0  0  0  0  0  0  0  0  0  0
   15.9136   69.5424   -2.1210 C   0  0  0  0  0  0  0  0  0  0  0  0
  1  4  1  0
  1 24  1  0
  1  2  1  6
  1  3  2  0
 25 28  1  0
 25 24  1  0
 25 26  1  1
 25 27  2  0
  6 11  1  0
  6 12  1  0
 29 36  1  0
 29 37  1  0
  9  7  1  1
  7 13  1  0
 10  8  1  1
  8 14  1  0
  4  5  1  0
 36 28  1  1
 33 30  1  6
 30 38  1  0
 34 31  1  6
 31 39  1  0
 35 32  1  1
 32 40  1  0
 41 43  1  0
 15 19  2  0
 42 43  2  0
 16 22  2  0
 12 17  1  6
 17 19  1  0
 17 20  1  0
 18 19  1  0
 18 22  1  0
 18 23  1  0
  9 10  1  0
  9 11  1  0
 10 12  1  0
 11  5  1  6
 33 34  1  0
 33 35  1  0
 34 36  1  0
 35 37  1  0
 37 43  1  6
 20 21  2  0
 21 22  1  0
M  CHG  3   2  -1  26  -1  41  -1
M  END
>  <COMPND>  (60) 
    udp_gluA.pdb 

>  <AUTHOR>  (60) 
    GENERATED BY OPEN BABEL 3.1.1

>  <MASTER>  (60) 
        0    0    0    0    0    0    0    0   56    0   56    0

>  <minimizedAffinity>  (60) 
-7.49562

>  <CNNscore>  (60) 
0.5253472924

>  <CNNaffinity>  (60) 
4.2436380386

>  <CNN_VS>  (60) 
2.2293837070

>  <CNNaffinity_variance>  (60) 
0.1975957900

$$$$
61
     RDKit          3D

 43 45  0  0  0  0  0  0  0  0999 V2000
   22.7538   71.5924   -2.6498 P   0  0  2  0  0  0  0  0  0  0  0  0
   22.6763   73.1621   -2.2637 O   0  0  0  0  0  0  0  0  0  0  0  0
   24.1179   71.1019   -3.0375 O   0  0  0  0  0  0  0  0  0  0  0  0
   21.5977   71.4097   -3.7669 O   0  0  0  0  0  0  0  0  0  0  0  0
   20.6984   70.3238   -3.6379 C   0  0  0  0  0  0  0  0  0  0  0  0
   18.8760   71.5493   -4.6150 O   0  0  0  0  0  0  0  0  0  0  0  0
   17.1645   70.3594   -2.4594 O   0  0  0  0  0  0  0  0  0  0  0  0
   16.5652   68.8081   -4.6205 O   0  0  0  0  0  0  0  0  0  0  0  0
   18.2582   69.7776   -3.1693 C   0  0  1  0  0  0  0  0  0  0  0  0
   17.8373   69.4202   -4.5790 C   0  0  2  0  0  0  0  0  0  0  0  0
   19.2934   70.8673   -3.4125 C   0  0  1  0  0  0  0  0  0  0  0  0
   17.8573   70.7745   -5.2670 C   0  0  2  0  0  0  0  0  0  0  0  0
   16.4900   69.6820   -2.2924 H   0  0  0  0  0  0  0  0  0  0  0  0
   16.6047   67.9494   -4.1699 H   0  0  0  0  0  0  0  0  0  0  0  0
   15.9810   70.1346   -7.2786 O   0  0  0  0  0  0  0  0  0  0  0  0
   19.1676   70.4186  -10.5966 O   0  0  0  0  0  0  0  0  0  0  0  0
   18.1696   70.6745   -6.6647 N   0  0  0  0  0  0  0  0  0  0  0  0
   17.5701   70.2757   -8.9291 N   0  0  0  0  0  0  0  0  0  0  0  0
   17.1535   70.3469   -7.5933 C   0  0  0  0  0  0  0  0  0  0  0  0
   19.4686   70.9012   -7.1030 C   0  0  0  0  0  0  0  0  0  0  0  0
   19.8505   70.8297   -8.3797 C   0  0  0  0  0  0  0  0  0  0  0  0
   18.8501   70.4921   -9.4134 C   0  0  0  0  0  0  0  0  0  0  0  0
   16.8807   70.0472   -9.5938 H   0  0  0  0  0  0  0  0  0  0  0  0
   22.1216   70.8675   -1.3507 O   0  0  0  0  0  0  0  0  0  0  0  0
   21.5995   71.4737    0.0542 P   0  0  2  0  0  0  0  0  0  0  0  0
   21.4323   70.1596    0.9846 O   0  0  0  0  0  0  0  0  0  0  0  0
   20.3597   72.3125   -0.0599 O   0  0  0  0  0  0  0  0  0  0  0  0
   22.8766   72.2462    0.6664 O   0  0  0  0  0  0  0  0  0  0  0  0
   22.5516   72.9413    2.9070 O   0  0  0  0  0  0  0  0  0  0  0  0
   26.1465   74.7527    1.9779 O   0  0  0  0  0  0  0  0  0  0  0  0
   23.9549   74.7339    0.0463 O   0  0  0  0  0  0  0  0  0  0  0  0
   26.0989   72.3814    3.6588 O   0  0  0  0  0  0  0  0  0  0  0  0
   25.1427   73.7397    1.9136 C   0  0  2  0  0  0  0  0  0  0  0  0
   23.8334   74.3479    1.4104 C   0  0  2  0  0  0  0  0  0  0  0  0
   24.9576   73.1673    3.3207 C   0  0  1  0  0  0  0  0  0  0  0  0
   22.6803   73.3524    1.5454 C   0  0  1  0  0  0  0  0  0  0  0  0
   23.7155   72.2848    3.4042 C   0  0  1  0  0  0  0  0  0  0  0  0
   26.2813   75.1312    1.0948 H   0  0  0  0  0  0  0  0  0  0  0  0
   24.6850   75.3654   -0.0467 H   0  0  0  0  0  0  0  0  0  0  0  0
   26.8964   72.9313    3.6094 H   0  0  0  0  0  0  0  0  0  0  0  0
   24.0254   70.9122    5.2808 O   0  0  0  0  0  0  0  0  0  0  0  0
   22.5793   72.6615    5.4991 O   0  0  0  0  0  0  0  0  0  0  0  0
   23.3596   72.0033    4.8277 C   0  0  0  0  0  0  0  0  0  0  0  0
  1  4  1  0
  1 24  1  0
  1  2  1  1
  1  3  2  0
 25 28  1  0
 25 24  1  0
 25 26  1  1
 25 27  2  0
  6 11  1  0
  6 12  1  0
 29 36  1  0
 29 37  1  0
  9  7  1  1
  7 13  1  0
 10  8  1  1
  8 14  1  0
  4  5  1  0
 36 28  1  6
 33 30  1  1
 30 38  1  0
 34 31  1  6
 31 39  1  0
 35 32  1  6
 32 40  1  0
 41 43  1  0
 15 19  2  0
 42 43  2  0
 16 22  2  0
 12 17  1  6
 17 19  1  0
 17 20  1  0
 18 19  1  0
 18 22  1  0
 18 23  1  0
  9 10  1  0
  9 11  1  0
 10 12  1  0
 11  5  1  6
 33 34  1  0
 33 35  1  0
 34 36  1  0
 35 37  1  0
 37 43  1  1
 20 21  2  0
 21 22  1  0
M  CHG  3   2  -1  26  -1  41  -1
M  END
>  <COMPND>  (61) 
    udp_gluA.pdb 

>  <AUTHOR>  (61) 
    GENERATED BY OPEN BABEL 3.1.1

>  <MASTER>  (61) 
        0    0    0    0    0    0    0    0   56    0   56    0

>  <minimizedAffinity>  (61) 
-8.04741

>  <CNNscore>  (61) 
0.9032789469

>  <CNNaffinity>  (61) 
4.7632460594

>  <CNN_VS>  (61) 
4.3025398254

>  <CNNaffinity_variance>  (61) 
0.0312365331

$$$$
62
     RDKit          3D

 43 45  0  0  0  0  0  0  0  0999 V2000
   22.3952   71.7094   -2.0371 P   0  0  2  0  0  0  0  0  0  0  0  0
   23.7054   70.9369   -2.5897 O   0  0  0  0  0  0  0  0  0  0  0  0
   22.4790   72.1557   -0.6068 O   0  0  0  0  0  0  0  0  0  0  0  0
   21.1754   70.7066   -2.3898 O   0  0  0  0  0  0  0  0  0  0  0  0
   20.5754   70.7955   -3.6692 C   0  0  0  0  0  0  0  0  0  0  0  0
   18.6556   71.7648   -4.7426 O   0  0  0  0  0  0  0  0  0  0  0  0
   17.0247   70.4528   -2.5954 O   0  0  0  0  0  0  0  0  0  0  0  0
   16.6823   68.7716   -4.7149 O   0  0  0  0  0  0  0  0  0  0  0  0
   18.2017   69.9810   -3.2517 C   0  0  1  0  0  0  0  0  0  0  0  0
   17.8721   69.5304   -4.6590 C   0  0  2  0  0  0  0  0  0  0  0  0
   19.1099   71.1767   -3.5045 C   0  0  1  0  0  0  0  0  0  0  0  0
   17.7565   70.8543   -5.3952 C   0  0  2  0  0  0  0  0  0  0  0  0
   16.4288   69.7065   -2.4234 H   0  0  0  0  0  0  0  0  0  0  0  0
   16.8070   67.9388   -4.2323 H   0  0  0  0  0  0  0  0  0  0  0  0
   16.0254   69.9615   -7.4404 O   0  0  0  0  0  0  0  0  0  0  0  0
   19.2751   70.4790  -10.6678 O   0  0  0  0  0  0  0  0  0  0  0  0
   18.1243   70.7459   -6.7786 N   0  0  0  0  0  0  0  0  0  0  0  0
   17.6459   70.2191   -9.0457 N   0  0  0  0  0  0  0  0  0  0  0  0
   17.1795   70.2861   -7.7262 C   0  0  0  0  0  0  0  0  0  0  0  0
   19.4067   71.0944   -7.1846 C   0  0  0  0  0  0  0  0  0  0  0  0
   19.8367   71.0253   -8.4460 C   0  0  0  0  0  0  0  0  0  0  0  0
   18.9120   70.5540   -9.4978 C   0  0  0  0  0  0  0  0  0  0  0  0
   17.0067   69.8999   -9.7231 H   0  0  0  0  0  0  0  0  0  0  0  0
   22.2020   72.9066   -3.1058 O   0  0  0  0  0  0  0  0  0  0  0  0
   23.2847   73.7649   -3.9453 P   0  0  2  0  0  0  0  0  0  0  0  0
   23.8927   72.6806   -4.9821 O   0  0  0  0  0  0  0  0  0  0  0  0
   24.3140   74.4552   -3.0980 O   0  0  0  0  0  0  0  0  0  0  0  0
   22.4002   74.7540   -4.8629 O   0  0  0  0  0  0  0  0  0  0  0  0
   20.1249   74.7049   -5.5183 O   0  0  0  0  0  0  0  0  0  0  0  0
   21.9394   76.2459   -8.8949 O   0  0  0  0  0  0  0  0  0  0  0  0
   23.1623   74.0288   -7.4376 O   0  0  0  0  0  0  0  0  0  0  0  0
   20.4505   77.9938   -7.1120 O   0  0  0  0  0  0  0  0  0  0  0  0
   21.7709   76.0154   -7.4961 C   0  0  2  0  0  0  0  0  0  0  0  0
   21.8441   74.5149   -7.2122 C   0  0  2  0  0  0  0  0  0  0  0  0
   20.4038   76.5684   -7.0871 C   0  0  1  0  0  0  0  0  0  0  0  0
   21.4413   74.2110   -5.7686 C   0  0  1  0  0  0  0  0  0  0  0  0
   20.0185   76.1175   -5.6811 C   0  0  1  0  0  0  0  0  0  0  0  0
   22.8016   75.9025   -9.1778 H   0  0  0  0  0  0  0  0  0  0  0  0
   23.4245   74.2186   -8.3517 H   0  0  0  0  0  0  0  0  0  0  0  0
   20.6948   78.2938   -8.0014 H   0  0  0  0  0  0  0  0  0  0  0  0
   17.9048   76.5919   -6.5805 O   0  0  0  0  0  0  0  0  0  0  0  0
   18.0500   76.3936   -4.3136 O   0  0  0  0  0  0  0  0  0  0  0  0
   18.5708   76.3773   -5.4189 C   0  0  0  0  0  0  0  0  0  0  0  0
  1  4  1  0
  1 24  1  0
  1  2  1  6
  1  3  2  0
 25 28  1  0
 25 24  1  0
 25 26  1  6
 25 27  2  0
  6 11  1  0
  6 12  1  0
 29 36  1  0
 29 37  1  0
  9  7  1  6
  7 13  1  0
 10  8  1  1
  8 14  1  0
  4  5  1  0
 36 28  1  1
 33 30  1  6
 30 38  1  0
 34 31  1  1
 31 39  1  0
 35 32  1  1
 32 40  1  0
 41 43  1  0
 15 19  2  0
 42 43  2  0
 16 22  2  0
 12 17  1  6
 17 19  1  0
 17 20  1  0
 18 19  1  0
 18 22  1  0
 18 23  1  0
  9 10  1  0
  9 11  1  0
 10 12  1  0
 11  5  1  6
 33 34  1  0
 33 35  1  0
 34 36  1  0
 35 37  1  0
 37 43  1  6
 20 21  2  0
 21 22  1  0
M  CHG  3   2  -1  26  -1  41  -1
M  END
>  <COMPND>  (62) 
    udp_gluA.pdb 

>  <AUTHOR>  (62) 
    GENERATED BY OPEN BABEL 3.1.1

>  <MASTER>  (62) 
        0    0    0    0    0    0    0    0   56    0   56    0

>  <minimizedAffinity>  (62) 
-6.72355

>  <CNNscore>  (62) 
0.8897264004

>  <CNNaffinity>  (62) 
4.5694451332

>  <CNN_VS>  (62) 
4.0655560493

>  <CNNaffinity_variance>  (62) 
0.3739464879

$$$$
63
     RDKit          3D

 43 45  0  0  0  0  0  0  0  0999 V2000
   22.9402   72.0842   -3.7623 P   0  0  2  0  0  0  0  0  0  0  0  0
   23.5271   73.0668   -4.9064 O   0  0  0  0  0  0  0  0  0  0  0  0
   23.9422   71.1434   -3.1601 O   0  0  0  0  0  0  0  0  0  0  0  0
   21.6593   71.3900   -4.4661 O   0  0  0  0  0  0  0  0  0  0  0  0
   20.9267   70.4242   -3.7346 C   0  0  0  0  0  0  0  0  0  0  0  0
   19.0619   71.6228   -4.6639 O   0  0  0  0  0  0  0  0  0  0  0  0
   17.4368   70.4534   -2.4315 O   0  0  0  0  0  0  0  0  0  0  0  0
   16.7723   68.8662   -4.5470 O   0  0  0  0  0  0  0  0  0  0  0  0
   18.5088   69.8685   -3.1714 C   0  0  1  0  0  0  0  0  0  0  0  0
   18.0406   69.4874   -4.5599 C   0  0  2  0  0  0  0  0  0  0  0  0
   19.5267   70.9615   -3.4672 C   0  0  1  0  0  0  0  0  0  0  0  0
   18.0263   70.8315   -5.2678 C   0  0  2  0  0  0  0  0  0  0  0  0
   16.7736   69.7741   -2.2307 H   0  0  0  0  0  0  0  0  0  0  0  0
   16.8341   68.0146   -4.0857 H   0  0  0  0  0  0  0  0  0  0  0  0
   16.0683   70.2270   -7.2113 O   0  0  0  0  0  0  0  0  0  0  0  0
   19.1497   70.4014  -10.6345 O   0  0  0  0  0  0  0  0  0  0  0  0
   18.2895   70.7129   -6.6741 N   0  0  0  0  0  0  0  0  0  0  0  0
   17.6051   70.3135   -8.9142 N   0  0  0  0  0  0  0  0  0  0  0  0
   17.2349   70.4057   -7.5661 C   0  0  0  0  0  0  0  0  0  0  0  0
   19.5788   70.9016   -7.1568 C   0  0  0  0  0  0  0  0  0  0  0  0
   19.9162   70.8106   -8.4447 C   0  0  0  0  0  0  0  0  0  0  0  0
   18.8736   70.4921   -9.4421 C   0  0  0  0  0  0  0  0  0  0  0  0
   16.8883   70.0985   -9.5540 H   0  0  0  0  0  0  0  0  0  0  0  0
   22.2656   73.1117   -2.7126 O   0  0  0  0  0  0  0  0  0  0  0  0
   22.9299   74.1756   -1.6926 P   0  0  2  0  0  0  0  0  0  0  0  0
   21.9080   75.4297   -1.7489 O   0  0  0  0  0  0  0  0  0  0  0  0
   24.3554   74.5247   -2.0091 O   0  0  0  0  0  0  0  0  0  0  0  0
   22.7069   73.5340   -0.2294 O   0  0  0  0  0  0  0  0  0  0  0  0
   23.3936   71.3494    0.3748 O   0  0  0  0  0  0  0  0  0  0  0  0
   20.3963   72.0786    3.1229 O   0  0  0  0  0  0  0  0  0  0  0  0
   20.0659   72.8629    0.3283 O   0  0  0  0  0  0  0  0  0  0  0  0
   23.1842   72.2036    3.9369 O   0  0  0  0  0  0  0  0  0  0  0  0
   21.4756   72.4159    2.2516 C   0  0  2  0  0  0  0  0  0  0  0  0
   21.1135   72.0329    0.8164 C   0  0  2  0  0  0  0  0  0  0  0  0
   22.7141   71.6439    2.7121 C   0  0  1  0  0  0  0  0  0  0  0  0
   22.3251   72.1650   -0.1074 C   0  0  1  0  0  0  0  0  0  0  0  0
   23.8345   71.7208    1.6790 C   0  0  1  0  0  0  0  0  0  0  0  0
   19.5980   72.5575    2.8496 H   0  0  0  0  0  0  0  0  0  0  0  0
   19.2939   72.7842    0.9099 H   0  0  0  0  0  0  0  0  0  0  0  0
   22.4804   72.1610    4.6031 H   0  0  0  0  0  0  0  0  0  0  0  0
   25.8371   70.7089    0.9956 O   0  0  0  0  0  0  0  0  0  0  0  0
   24.9254   69.9901    2.9580 O   0  0  0  0  0  0  0  0  0  0  0  0
   24.8975   70.7130    1.9733 C   0  0  0  0  0  0  0  0  0  0  0  0
  1  4  1  0
  1 24  1  0
  1  2  1  6
  1  3  2  0
 25 28  1  0
 25 24  1  0
 25 26  1  1
 25 27  2  0
  6 11  1  0
  6 12  1  0
 29 36  1  0
 29 37  1  0
  9  7  1  1
  7 13  1  0
 10  8  1  1
  8 14  1  0
  4  5  1  0
 36 28  1  1
 33 30  1  1
 30 38  1  0
 34 31  1  6
 31 39  1  0
 35 32  1  1
 32 40  1  0
 41 43  1  0
 15 19  2  0
 42 43  2  0
 16 22  2  0
 12 17  1  6
 17 19  1  0
 17 20  1  0
 18 19  1  0
 18 22  1  0
 18 23  1  0
  9 10  1  0
  9 11  1  0
 10 12  1  0
 11  5  1  6
 33 34  1  0
 33 35  1  0
 34 36  1  0
 35 37  1  0
 37 43  1  1
 20 21  2  0
 21 22  1  0
M  CHG  3   2  -1  26  -1  41  -1
M  END
>  <COMPND>  (63) 
    udp_gluA.pdb 

>  <AUTHOR>  (63) 
    GENERATED BY OPEN BABEL 3.1.1

>  <MASTER>  (63) 
        0    0    0    0    0    0    0    0   56    0   56    0

>  <minimizedAffinity>  (63) 
-8.18832

>  <CNNscore>  (63) 
0.8242188692

>  <CNNaffinity>  (63) 
4.7155008316

>  <CNN_VS>  (63) 
3.8866047859

>  <CNNaffinity_variance>  (63) 
0.0312562026

$$$$
64
     RDKit          3D

 43 45  0  0  0  0  0  0  0  0999 V2000
   22.9646   71.5428   -2.3408 P   0  0  2  0  0  0  0  0  0  0  0  0
   22.6679   73.1330   -2.3859 O   0  0  0  0  0  0  0  0  0  0  0  0
   24.1684   71.1006   -3.1199 O   0  0  0  0  0  0  0  0  0  0  0  0
   21.5587   70.8727   -2.7796 O   0  0  0  0  0  0  0  0  0  0  0  0
   20.9517   71.3026   -3.9843 C   0  0  0  0  0  0  0  0  0  0  0  0
   18.8781   72.0264   -4.9611 O   0  0  0  0  0  0  0  0  0  0  0  0
   17.5382   70.7734   -2.5891 O   0  0  0  0  0  0  0  0  0  0  0  0
   17.1740   68.9005   -4.5374 O   0  0  0  0  0  0  0  0  0  0  0  0
   18.6957   70.3423   -3.3053 C   0  0  1  0  0  0  0  0  0  0  0  0
   18.2959   69.7521   -4.6410 C   0  0  2  0  0  0  0  0  0  0  0  0
   19.4765   71.5803   -3.7249 C   0  0  1  0  0  0  0  0  0  0  0  0
   18.0109   70.9973   -5.4634 C   0  0  2  0  0  0  0  0  0  0  0  0
   17.0231   69.9996   -2.3106 H   0  0  0  0  0  0  0  0  0  0  0  0
   17.4065   68.1229   -4.0052 H   0  0  0  0  0  0  0  0  0  0  0  0
   16.1136   70.0572   -7.3323 O   0  0  0  0  0  0  0  0  0  0  0  0
   19.1413   70.2931  -10.7995 O   0  0  0  0  0  0  0  0  0  0  0  0
   18.2767   70.8037   -6.8608 N   0  0  0  0  0  0  0  0  0  0  0  0
   17.6237   70.1746   -9.0572 N   0  0  0  0  0  0  0  0  0  0  0  0
   17.2538   70.3269   -7.7144 C   0  0  0  0  0  0  0  0  0  0  0  0
   19.5371   71.0866   -7.3728 C   0  0  0  0  0  0  0  0  0  0  0  0
   19.8746   70.9365   -8.6551 C   0  0  0  0  0  0  0  0  0  0  0  0
   18.8642   70.4420   -9.6132 C   0  0  0  0  0  0  0  0  0  0  0  0
   16.9289   69.8420   -9.6703 H   0  0  0  0  0  0  0  0  0  0  0  0
   23.0365   71.2318   -0.7562 O   0  0  0  0  0  0  0  0  0  0  0  0
   22.0643   71.6740    0.4574 P   0  0  2  0  0  0  0  0  0  0  0  0
   20.9086   70.5408    0.4372 O   0  0  0  0  0  0  0  0  0  0  0  0
   21.5521   73.0815    0.3546 O   0  0  0  0  0  0  0  0  0  0  0  0
   22.9129   71.3664    1.7945 O   0  0  0  0  0  0  0  0  0  0  0  0
   23.3003   73.1352    3.3209 O   0  0  0  0  0  0  0  0  0  0  0  0
   26.0630   70.3281    4.5682 O   0  0  0  0  0  0  0  0  0  0  0  0
   25.6403   70.8264    1.7208 O   0  0  0  0  0  0  0  0  0  0  0  0
   23.6244   70.7529    6.0925 O   0  0  0  0  0  0  0  0  0  0  0  0
   24.8323   70.7859    4.0081 C   0  0  2  0  0  0  0  0  0  0  0  0
   25.1183   71.6347    2.7691 C   0  0  2  0  0  0  0  0  0  0  0  0
   24.1108   71.6195    5.0694 C   0  0  1  0  0  0  0  0  0  0  0  0
   23.8480   72.3295    2.2767 C   0  0  1  0  0  0  0  0  0  0  0  0
   22.9303   72.3803    4.4726 C   0  0  1  0  0  0  0  0  0  0  0  0
   26.5391   69.7958    3.9115 H   0  0  0  0  0  0  0  0  0  0  0  0
   26.4464   70.3823    2.0264 H   0  0  0  0  0  0  0  0  0  0  0  0
   24.3659   70.2625    6.4805 H   0  0  0  0  0  0  0  0  0  0  0  0
   21.4779   74.1855    4.8382 O   0  0  0  0  0  0  0  0  0  0  0  0
   22.8486   73.5881    6.5597 O   0  0  0  0  0  0  0  0  0  0  0  0
   22.4423   73.4289    5.4185 C   0  0  0  0  0  0  0  0  0  0  0  0
  1  4  1  0
  1 24  1  0
  1  2  1  1
  1  3  2  0
 25 28  1  0
 25 24  1  0
 25 26  1  1
 25 27  2  0
  6 11  1  0
  6 12  1  0
 29 36  1  0
 29 37  1  0
  9  7  1  1
  7 13  1  0
 10  8  1  1
  8 14  1  0
  4  5  1  0
 36 28  1  1
 33 30  1  1
 30 38  1  0
 34 31  1  6
 31 39  1  0
 35 32  1  1
 32 40  1  0
 41 43  1  0
 15 19  2  0
 42 43  2  0
 16 22  2  0
 12 17  1  6
 17 19  1  0
 17 20  1  0
 18 19  1  0
 18 22  1  0
 18 23  1  0
  9 10  1  0
  9 11  1  0
 10 12  1  0
 11  5  1  6
 33 34  1  0
 33 35  1  0
 34 36  1  0
 35 37  1  0
 37 43  1  1
 20 21  2  0
 21 22  1  0
M  CHG  3   2  -1  26  -1  41  -1
M  END
>  <COMPND>  (64) 
    udp_gluA.pdb 

>  <AUTHOR>  (64) 
    GENERATED BY OPEN BABEL 3.1.1

>  <MASTER>  (64) 
        0    0    0    0    0    0    0    0   56    0   56    0

>  <minimizedAffinity>  (64) 
-8.72656

>  <CNNscore>  (64) 
0.8040134311

>  <CNNaffinity>  (64) 
4.5832481384

>  <CNN_VS>  (64) 
3.6849930286

>  <CNNaffinity_variance>  (64) 
0.1087615043

$$$$
65
     RDKit          3D

 43 45  0  0  0  0  0  0  0  0999 V2000
   21.9869   72.6293   -5.8981 P   0  0  2  0  0  0  0  0  0  0  0  0
   21.3712   73.9842   -5.2624 O   0  0  0  0  0  0  0  0  0  0  0  0
   23.0591   72.8423   -6.9262 O   0  0  0  0  0  0  0  0  0  0  0  0
   20.6856   71.8091   -6.3996 O   0  0  0  0  0  0  0  0  0  0  0  0
   20.1408   72.1162   -7.6698 C   0  0  0  0  0  0  0  0  0  0  0  0
   19.0526   70.0315   -7.1725 O   0  0  0  0  0  0  0  0  0  0  0  0
   18.1383   70.0412  -10.0283 O   0  0  0  0  0  0  0  0  0  0  0  0
   15.9206   70.8933   -8.6897 O   0  0  0  0  0  0  0  0  0  0  0  0
   18.2999   71.1371   -9.1274 C   0  0  1  0  0  0  0  0  0  0  0  0
   17.1819   71.1456   -8.1066 C   0  0  2  0  0  0  0  0  0  0  0  0
   19.5203   70.8570   -8.2611 C   0  0  1  0  0  0  0  0  0  0  0  0
   17.6164   70.0451   -7.1538 C   0  0  2  0  0  0  0  0  0  0  0  0
   17.3644   70.1974  -10.5925 H   0  0  0  0  0  0  0  0  0  0  0  0
   15.6890   71.6221   -9.2873 H   0  0  0  0  0  0  0  0  0  0  0  0
   16.2893   68.1257   -5.5627 O   0  0  0  0  0  0  0  0  0  0  0  0
   15.9457   71.0412   -2.0094 O   0  0  0  0  0  0  0  0  0  0  0  0
   17.1691   70.2760   -5.8093 N   0  0  0  0  0  0  0  0  0  0  0  0
   16.1185   69.5800   -3.7948 N   0  0  0  0  0  0  0  0  0  0  0  0
   16.5122   69.2448   -5.0971 C   0  0  0  0  0  0  0  0  0  0  0  0
   17.3835   71.5110   -5.2095 C   0  0  0  0  0  0  0  0  0  0  0  0
   17.0026   71.8155   -3.9674 C   0  0  0  0  0  0  0  0  0  0  0  0
   16.3089   70.7942   -3.1554 C   0  0  0  0  0  0  0  0  0  0  0  0
   15.6574   68.8788   -3.2800 H   0  0  0  0  0  0  0  0  0  0  0  0
   22.4597   71.7990   -4.5943 O   0  0  0  0  0  0  0  0  0  0  0  0
   23.5879   72.1213   -3.4822 P   0  0  2  0  0  0  0  0  0  0  0  0
   24.5455   73.1933   -4.2266 O   0  0  0  0  0  0  0  0  0  0  0  0
   24.3043   70.9086   -2.9624 O   0  0  0  0  0  0  0  0  0  0  0  0
   22.8172   72.9786   -2.3537 O   0  0  0  0  0  0  0  0  0  0  0  0
   21.7015   71.6157   -0.7704 O   0  0  0  0  0  0  0  0  0  0  0  0
   20.3864   75.3857    0.2906 O   0  0  0  0  0  0  0  0  0  0  0  0
   20.5796   74.6220   -2.5225 O   0  0  0  0  0  0  0  0  0  0  0  0
   22.4001   74.0372    1.8962 O   0  0  0  0  0  0  0  0  0  0  0  0
   21.3097   74.4227   -0.2175 C   0  0  2  0  0  0  0  0  0  0  0  0
   20.6995   73.7186   -1.4297 C   0  0  2  0  0  0  0  0  0  0  0  0
   21.5992   73.4123    0.8949 C   0  0  1  0  0  0  0  0  0  0  0  0
   21.5572   72.5277   -1.8598 C   0  0  1  0  0  0  0  0  0  0  0  0
   22.3484   72.1950    0.3606 C   0  0  1  0  0  0  0  0  0  0  0  0
   20.1874   76.0384   -0.3991 H   0  0  0  0  0  0  0  0  0  0  0  0
   20.0368   75.3803   -2.2566 H   0  0  0  0  0  0  0  0  0  0  0  0
   21.9347   74.8137    2.2444 H   0  0  0  0  0  0  0  0  0  0  0  0
   21.4192   70.1446    1.0196 O   0  0  0  0  0  0  0  0  0  0  0  0
   23.0519   71.0215    2.3479 O   0  0  0  0  0  0  0  0  0  0  0  0
   22.3361   71.0841    1.3596 C   0  0  0  0  0  0  0  0  0  0  0  0
  1  4  1  0
  1 24  1  0
  1  2  1  1
  1  3  2  0
 25 28  1  0
 25 24  1  0
 25 26  1  6
 25 27  2  0
  6 11  1  0
  6 12  1  0
 29 36  1  0
 29 37  1  0
  9  7  1  6
  7 13  1  0
 10  8  1  6
  8 14  1  0
  4  5  1  0
 36 28  1  1
 33 30  1  1
 30 38  1  0
 34 31  1  6
 31 39  1  0
 35 32  1  1
 32 40  1  0
 41 43  1  0
 15 19  2  0
 42 43  2  0
 16 22  2  0
 12 17  1  1
 17 19  1  0
 17 20  1  0
 18 19  1  0
 18 22  1  0
 18 23  1  0
  9 10  1  0
  9 11  1  0
 10 12  1  0
 11  5  1  1
 33 34  1  0
 33 35  1  0
 34 36  1  0
 35 37  1  0
 37 43  1  1
 20 21  2  0
 21 22  1  0
M  CHG  3   2  -1  26  -1  41  -1
M  END
>  <COMPND>  (65) 
    udp_gluA.pdb 

>  <AUTHOR>  (65) 
    GENERATED BY OPEN BABEL 3.1.1

>  <MASTER>  (65) 
        0    0    0    0    0    0    0    0   56    0   56    0

>  <minimizedAffinity>  (65) 
-8.14463

>  <CNNscore>  (65) 
0.7159920931

>  <CNNaffinity>  (65) 
4.5318121910

>  <CNN_VS>  (65) 
3.2447416782

>  <CNNaffinity_variance>  (65) 
0.3746876717

$$$$
66
     RDKit          3D

 43 45  0  0  0  0  0  0  0  0999 V2000
   23.0888   71.6387   -2.4193 P   0  0  2  0  0  0  0  0  0  0  0  0
   22.7080   73.1128   -2.9678 O   0  0  0  0  0  0  0  0  0  0  0  0
   24.2200   70.9668   -3.1411 O   0  0  0  0  0  0  0  0  0  0  0  0
   21.6792   70.8445   -2.4285 O   0  0  0  0  0  0  0  0  0  0  0  0
   20.9543   70.7676   -3.6423 C   0  0  0  0  0  0  0  0  0  0  0  0
   18.9706   71.7460   -4.5832 O   0  0  0  0  0  0  0  0  0  0  0  0
   17.4818   70.4335   -2.3354 O   0  0  0  0  0  0  0  0  0  0  0  0
   16.9935   68.7590   -4.4315 O   0  0  0  0  0  0  0  0  0  0  0  0
   18.6109   69.9597   -3.0697 C   0  0  1  0  0  0  0  0  0  0  0  0
   18.1869   69.5139   -4.4531 C   0  0  2  0  0  0  0  0  0  0  0  0
   19.5043   71.1531   -3.3794 C   0  0  1  0  0  0  0  0  0  0  0  0
   18.0270   70.8401   -5.1767 C   0  0  2  0  0  0  0  0  0  0  0  0
   16.8961   69.6887   -2.1260 H   0  0  0  0  0  0  0  0  0  0  0  0
   17.1472   67.9246   -3.9604 H   0  0  0  0  0  0  0  0  0  0  0  0
   16.1456   70.0060   -7.1109 O   0  0  0  0  0  0  0  0  0  0  0  0
   19.1908   70.4716  -10.5392 O   0  0  0  0  0  0  0  0  0  0  0  0
   18.3016   70.7343   -6.5818 N   0  0  0  0  0  0  0  0  0  0  0  0
   17.6644   70.2377   -8.8164 N   0  0  0  0  0  0  0  0  0  0  0  0
   17.2863   70.3051   -7.4690 C   0  0  0  0  0  0  0  0  0  0  0  0
   19.5631   71.0551   -7.0680 C   0  0  0  0  0  0  0  0  0  0  0  0
   19.9085   70.9860   -8.3552 C   0  0  0  0  0  0  0  0  0  0  0  0
   18.9063   70.5457   -9.3477 C   0  0  0  0  0  0  0  0  0  0  0  0
   16.9750   69.9395   -9.4529 H   0  0  0  0  0  0  0  0  0  0  0  0
   23.3518   71.8940   -0.8450 O   0  0  0  0  0  0  0  0  0  0  0  0
   23.3736   73.2599    0.0196 P   0  0  2  0  0  0  0  0  0  0  0  0
   21.8093   73.6664    0.1086 O   0  0  0  0  0  0  0  0  0  0  0  0
   24.2600   74.3320   -0.5450 O   0  0  0  0  0  0  0  0  0  0  0  0
   23.7583   72.7917    1.5148 O   0  0  0  0  0  0  0  0  0  0  0  0
   24.1374   70.6757    2.5086 O   0  0  0  0  0  0  0  0  0  0  0  0
   22.1718   72.6861    5.5356 O   0  0  0  0  0  0  0  0  0  0  0  0
   21.2785   72.9400    2.7657 O   0  0  0  0  0  0  0  0  0  0  0  0
   25.0440   72.2646    5.6891 O   0  0  0  0  0  0  0  0  0  0  0  0
   23.0283   72.5535    4.4012 C   0  0  2  0  0  0  0  0  0  0  0  0
   22.2337   71.9897    3.2230 C   0  0  2  0  0  0  0  0  0  0  0  0
   24.1680   71.6041    4.7776 C   0  0  1  0  0  0  0  0  0  0  0  0
   23.1612   71.6189    2.0650 C   0  0  1  0  0  0  0  0  0  0  0  0
   24.9697   71.1818    3.5498 C   0  0  1  0  0  0  0  0  0  0  0  0
   21.4397   73.2851    5.3199 H   0  0  0  0  0  0  0  0  0  0  0  0
   20.6868   73.1800    3.4956 H   0  0  0  0  0  0  0  0  0  0  0  0
   24.5460   72.5388    6.4750 H   0  0  0  0  0  0  0  0  0  0  0  0
   27.0332   70.4434    4.3855 O   0  0  0  0  0  0  0  0  0  0  0  0
   25.5612   68.8469    3.6903 O   0  0  0  0  0  0  0  0  0  0  0  0
   25.8537   70.0199    3.8674 C   0  0  0  0  0  0  0  0  0  0  0  0
  1  4  1  0
  1 24  1  0
  1  2  1  6
  1  3  2  0
 25 28  1  0
 25 24  1  0
 25 26  1  1
 25 27  2  0
  6 11  1  0
  6 12  1  0
 29 36  1  0
 29 37  1  0
  9  7  1  1
  7 13  1  0
 10  8  1  1
  8 14  1  0
  4  5  1  0
 36 28  1  1
 33 30  1  1
 30 38  1  0
 34 31  1  6
 31 39  1  0
 35 32  1  1
 32 40  1  0
 41 43  1  0
 15 19  2  0
 42 43  2  0
 16 22  2  0
 12 17  1  6
 17 19  1  0
 17 20  1  0
 18 19  1  0
 18 22  1  0
 18 23  1  0
  9 10  1  0
  9 11  1  0
 10 12  1  0
 11  5  1  6
 33 34  1  0
 33 35  1  0
 34 36  1  0
 35 37  1  0
 37 43  1  1
 20 21  2  0
 21 22  1  0
M  CHG  3   2  -1  26  -1  41  -1
M  END
>  <COMPND>  (66) 
    udp_gluA.pdb 

>  <AUTHOR>  (66) 
    GENERATED BY OPEN BABEL 3.1.1

>  <MASTER>  (66) 
        0    0    0    0    0    0    0    0   56    0   56    0

>  <minimizedAffinity>  (66) 
-8.53633

>  <CNNscore>  (66) 
0.7153936625

>  <CNNaffinity>  (66) 
4.4984588623

>  <CNN_VS>  (66) 
3.2181689739

>  <CNNaffinity_variance>  (66) 
0.0347470902

$$$$
67
     RDKit          3D

 43 45  0  0  0  0  0  0  0  0999 V2000
   20.0350   71.6453   -1.0399 P   0  0  2  0  0  0  0  0  0  0  0  0
   20.9000   70.7358   -0.0184 O   0  0  0  0  0  0  0  0  0  0  0  0
   19.1367   72.6534   -0.3852 O   0  0  0  0  0  0  0  0  0  0  0  0
   19.3006   70.5654   -1.9951 O   0  0  0  0  0  0  0  0  0  0  0  0
   19.0343   70.9223   -3.3391 C   0  0  0  0  0  0  0  0  0  0  0  0
   17.2959   71.7203   -4.7947 O   0  0  0  0  0  0  0  0  0  0  0  0
   15.4301   69.9888   -3.2096 O   0  0  0  0  0  0  0  0  0  0  0  0
   15.8706   68.4962   -5.4488 O   0  0  0  0  0  0  0  0  0  0  0  0
   16.7885   69.7513   -3.5795 C   0  0  1  0  0  0  0  0  0  0  0  0
   16.8779   69.4022   -5.0500 C   0  0  2  0  0  0  0  0  0  0  0  0
   17.5303   71.0798   -3.5218 C   0  0  1  0  0  0  0  0  0  0  0  0
   16.7328   70.7643   -5.7070 C   0  0  2  0  0  0  0  0  0  0  0  0
   14.9360   69.1542   -3.2391 H   0  0  0  0  0  0  0  0  0  0  0  0
   16.0071   67.6446   -5.0038 H   0  0  0  0  0  0  0  0  0  0  0  0
   15.8959   72.3351   -7.8999 O   0  0  0  0  0  0  0  0  0  0  0  0
   19.4890   71.0017  -10.4603 O   0  0  0  0  0  0  0  0  0  0  0  0
   17.4308   70.8461   -6.9587 N   0  0  0  0  0  0  0  0  0  0  0  0
   17.6858   71.6687   -9.1734 N   0  0  0  0  0  0  0  0  0  0  0  0
   16.9257   71.6648   -7.9964 C   0  0  0  0  0  0  0  0  0  0  0  0
   18.6019   70.1227   -7.1484 C   0  0  0  0  0  0  0  0  0  0  0  0
   19.3155   70.1366   -8.2759 C   0  0  0  0  0  0  0  0  0  0  0  0
   18.8561   70.9658   -9.4094 C   0  0  0  0  0  0  0  0  0  0  0  0
   17.3528   72.2297   -9.9108 H   0  0  0  0  0  0  0  0  0  0  0  0
   21.1644   72.2780   -2.0079 O   0  0  0  0  0  0  0  0  0  0  0  0
   22.6485   72.8325   -1.6863 P   0  0  2  0  0  0  0  0  0  0  0  0
   23.5986   71.5682   -2.0316 O   0  0  0  0  0  0  0  0  0  0  0  0
   22.8168   73.3707   -0.2949 O   0  0  0  0  0  0  0  0  0  0  0  0
   22.9494   73.8999   -2.8579 O   0  0  0  0  0  0  0  0  0  0  0  0
   23.5804   73.2205   -5.0372 O   0  0  0  0  0  0  0  0  0  0  0  0
   24.9056   77.1327   -4.9597 O   0  0  0  0  0  0  0  0  0  0  0  0
   25.2853   75.3944   -2.6426 O   0  0  0  0  0  0  0  0  0  0  0  0
   22.4906   76.4389   -6.4215 O   0  0  0  0  0  0  0  0  0  0  0  0
   24.0488   76.0403   -4.6276 C   0  0  2  0  0  0  0  0  0  0  0  0
   24.8584   74.9500   -3.9252 C   0  0  2  0  0  0  0  0  0  0  0  0
   23.4447   75.5014   -5.9262 C   0  0  1  0  0  0  0  0  0  0  0  0
   24.0309   73.6745   -3.7603 C   0  0  1  0  0  0  0  0  0  0  0  0
   22.7438   74.1645   -5.7019 C   0  0  1  0  0  0  0  0  0  0  0  0
   25.3011   77.4915   -4.1496 H   0  0  0  0  0  0  0  0  0  0  0  0
   25.8107   76.2037   -2.7397 H   0  0  0  0  0  0  0  0  0  0  0  0
   22.9239   77.2942   -6.5683 H   0  0  0  0  0  0  0  0  0  0  0  0
   23.2843   73.9464   -7.9739 O   0  0  0  0  0  0  0  0  0  0  0  0
   21.5832   72.6519   -7.1805 O   0  0  0  0  0  0  0  0  0  0  0  0
   22.4507   73.4941   -7.0046 C   0  0  0  0  0  0  0  0  0  0  0  0
  1  4  1  0
  1 24  1  0
  1  2  1  1
  1  3  2  0
 25 28  1  0
 25 24  1  0
 25 26  1  6
 25 27  2  0
  6 11  1  0
  6 12  1  0
 29 36  1  0
 29 37  1  0
  9  7  1  6
  7 13  1  0
 10  8  1  6
  8 14  1  0
  4  5  1  0
 36 28  1  1
 33 30  1  6
 30 38  1  0
 34 31  1  1
 31 39  1  0
 35 32  1  1
 32 40  1  0
 41 43  1  0
 15 19  2  0
 42 43  2  0
 16 22  2  0
 12 17  1  6
 17 19  1  0
 17 20  1  0
 18 19  1  0
 18 22  1  0
 18 23  1  0
  9 10  1  0
  9 11  1  0
 10 12  1  0
 11  5  1  6
 33 34  1  0
 33 35  1  0
 34 36  1  0
 35 37  1  0
 37 43  1  6
 20 21  2  0
 21 22  1  0
M  CHG  3   2  -1  26  -1  41  -1
M  END
>  <COMPND>  (67) 
    udp_gluA.pdb 

>  <AUTHOR>  (67) 
    GENERATED BY OPEN BABEL 3.1.1

>  <MASTER>  (67) 
        0    0    0    0    0    0    0    0   56    0   56    0

>  <minimizedAffinity>  (67) 
-6.87842

>  <CNNscore>  (67) 
0.6441179514

>  <CNNaffinity>  (67) 
4.3814878464

>  <CNN_VS>  (67) 
2.8221950531

>  <CNNaffinity_variance>  (67) 
0.2684666514

$$$$
68
     RDKit          3D

 43 45  0  0  0  0  0  0  0  0999 V2000
   23.0325   72.0001   -2.1775 P   0  0  2  0  0  0  0  0  0  0  0  0
   23.9672   71.4967   -3.3989 O   0  0  0  0  0  0  0  0  0  0  0  0
   23.0334   73.4832   -1.9487 O   0  0  0  0  0  0  0  0  0  0  0  0
   23.5106   71.0955   -0.9240 O   0  0  0  0  0  0  0  0  0  0  0  0
   23.9603   71.7489    0.2487 C   0  0  0  0  0  0  0  0  0  0  0  0
   24.0459   70.5906    2.3532 O   0  0  0  0  0  0  0  0  0  0  0  0
   21.3747   71.8251    2.9297 O   0  0  0  0  0  0  0  0  0  0  0  0
   23.0817   73.4077    4.3503 O   0  0  0  0  0  0  0  0  0  0  0  0
   22.4918   72.3739    2.2300 C   0  0  1  0  0  0  0  0  0  0  0  0
   23.5862   72.7531    3.2051 C   0  0  2  0  0  0  0  0  0  0  0  0
   23.1467   71.2515    1.4367 C   0  0  1  0  0  0  0  0  0  0  0  0
   24.2031   71.4027    3.5275 C   0  0  2  0  0  0  0  0  0  0  0  0
   20.9400   72.5238    3.4440 H   0  0  0  0  0  0  0  0  0  0  0  0
   22.7001   74.2620    4.0926 H   0  0  0  0  0  0  0  0  0  0  0  0
   25.2167   72.1048    6.0684 O   0  0  0  0  0  0  0  0  0  0  0  0
   29.5805   71.7449    4.6290 O   0  0  0  0  0  0  0  0  0  0  0  0
   25.5998   71.5000    3.8444 N   0  0  0  0  0  0  0  0  0  0  0  0
   27.3892   71.9258    5.3488 N   0  0  0  0  0  0  0  0  0  0  0  0
   26.0035   71.8605    5.1518 C   0  0  0  0  0  0  0  0  0  0  0  0
   26.5526   71.2383    2.8673 C   0  0  0  0  0  0  0  0  0  0  0  0
   27.8699   71.3046    3.0702 C   0  0  0  0  0  0  0  0  0  0  0  0
   28.3752   71.6752    4.4084 C   0  0  0  0  0  0  0  0  0  0  0  0
   27.6944   72.1769    6.2505 H   0  0  0  0  0  0  0  0  0  0  0  0
   21.5874   71.3765   -2.5454 O   0  0  0  0  0  0  0  0  0  0  0  0
   20.2148   71.3039   -1.6943 P   0  0  2  0  0  0  0  0  0  0  0  0
   19.7398   72.8498   -1.6259 O   0  0  0  0  0  0  0  0  0  0  0  0
   20.3550   70.6401   -0.3550 O   0  0  0  0  0  0  0  0  0  0  0  0
   19.1561   70.5961   -2.6847 O   0  0  0  0  0  0  0  0  0  0  0  0
   16.9845   71.1527   -1.9206 O   0  0  0  0  0  0  0  0  0  0  0  0
   16.1410   68.8157   -5.2214 O   0  0  0  0  0  0  0  0  0  0  0  0
   18.2676   68.0511   -3.3699 O   0  0  0  0  0  0  0  0  0  0  0  0
   15.8483   71.7044   -5.3655 O   0  0  0  0  0  0  0  0  0  0  0  0
   16.8943   69.7418   -4.4385 C   0  0  2  0  0  0  0  0  0  0  0  0
   17.3147   69.0794   -3.1263 C   0  0  2  0  0  0  0  0  0  0  0  0
   16.0072   70.9575   -4.1608 C   0  0  1  0  0  0  0  0  0  0  0  0
   17.9218   70.1036   -2.1664 C   0  0  1  0  0  0  0  0  0  0  0  0
   16.6234   71.8663   -3.1011 C   0  0  1  0  0  0  0  0  0  0  0  0
   16.6846   68.0346   -5.4103 H   0  0  0  0  0  0  0  0  0  0  0  0
   17.8891   67.3979   -3.9786 H   0  0  0  0  0  0  0  0  0  0  0  0
   15.4571   71.1373   -6.0483 H   0  0  0  0  0  0  0  0  0  0  0  0
   15.3779   72.6653   -1.2813 O   0  0  0  0  0  0  0  0  0  0  0  0
   15.0893   73.7197   -3.2823 O   0  0  0  0  0  0  0  0  0  0  0  0
   15.6205   72.8549   -2.6019 C   0  0  0  0  0  0  0  0  0  0  0  0
  1  4  1  0
  1 24  1  0
  1  2  1  6
  1  3  2  0
 25 28  1  0
 25 24  1  0
 25 26  1  1
 25 27  2  0
  6 11  1  0
  6 12  1  0
 29 36  1  0
 29 37  1  0
  9  7  1  1
  7 13  1  0
 10  8  1  1
  8 14  1  0
  4  5  1  0
 36 28  1  6
 33 30  1  6
 30 38  1  0
 34 31  1  6
 31 39  1  0
 35 32  1  6
 32 40  1  0
 41 43  1  0
 15 19  2  0
 42 43  2  0
 16 22  2  0
 12 17  1  6
 17 19  1  0
 17 20  1  0
 18 19  1  0
 18 22  1  0
 18 23  1  0
  9 10  1  0
  9 11  1  0
 10 12  1  0
 11  5  1  6
 33 34  1  0
 33 35  1  0
 34 36  1  0
 35 37  1  0
 37 43  1  1
 20 21  2  0
 21 22  1  0
M  CHG  3   2  -1  26  -1  41  -1
M  END
>  <COMPND>  (68) 
    udp_gluA.pdb 

>  <AUTHOR>  (68) 
    GENERATED BY OPEN BABEL 3.1.1

>  <MASTER>  (68) 
        0    0    0    0    0    0    0    0   56    0   56    0

>  <minimizedAffinity>  (68) 
-6.98071

>  <CNNscore>  (68) 
0.6424227357

>  <CNNaffinity>  (68) 
4.2787504196

>  <CNN_VS>  (68) 
2.7487666607

>  <CNNaffinity_variance>  (68) 
0.0435778052

$$$$
69
     RDKit          3D

 43 45  0  0  0  0  0  0  0  0999 V2000
   21.8643   72.7177   -5.8702 P   0  0  2  0  0  0  0  0  0  0  0  0
   21.0555   73.7732   -4.9479 O   0  0  0  0  0  0  0  0  0  0  0  0
   22.8116   73.3345   -6.8571 O   0  0  0  0  0  0  0  0  0  0  0  0
   20.7034   71.7832   -6.5003 O   0  0  0  0  0  0  0  0  0  0  0  0
   20.4531   71.8616   -7.8916 C   0  0  0  0  0  0  0  0  0  0  0  0
   19.1524   69.9860   -7.1377 O   0  0  0  0  0  0  0  0  0  0  0  0
   18.1157   69.8137   -9.9461 O   0  0  0  0  0  0  0  0  0  0  0  0
   16.0765   71.0608   -8.6337 O   0  0  0  0  0  0  0  0  0  0  0  0
   18.4455   70.9684   -9.1739 C   0  0  1  0  0  0  0  0  0  0  0  0
   17.3840   71.2169   -8.1232 C   0  0  2  0  0  0  0  0  0  0  0  0
   19.6631   70.6329   -8.3235 C   0  0  1  0  0  0  0  0  0  0  0  0
   17.7300   70.1753   -7.0728 C   0  0  2  0  0  0  0  0  0  0  0  0
   17.3404   70.0038  -10.4978 H   0  0  0  0  0  0  0  0  0  0  0  0
   15.9047   71.7472   -9.2980 H   0  0  0  0  0  0  0  0  0  0  0  0
   16.5418   68.5003   -5.1340 O   0  0  0  0  0  0  0  0  0  0  0  0
   16.4103   71.8939   -2.0179 O   0  0  0  0  0  0  0  0  0  0  0  0
   17.3748   70.5953   -5.7468 N   0  0  0  0  0  0  0  0  0  0  0  0
   16.4765   70.1924   -3.5842 N   0  0  0  0  0  0  0  0  0  0  0  0
   16.7825   69.6751   -4.8499 C   0  0  0  0  0  0  0  0  0  0  0  0
   17.6149   71.9041   -5.3461 C   0  0  0  0  0  0  0  0  0  0  0  0
   17.3178   72.3824   -4.1363 C   0  0  0  0  0  0  0  0  0  0  0  0
   16.6957   71.4862   -3.1398 C   0  0  0  0  0  0  0  0  0  0  0  0
   16.0615   69.5710   -2.9431 H   0  0  0  0  0  0  0  0  0  0  0  0
   22.5626   71.7465   -4.7831 O   0  0  0  0  0  0  0  0  0  0  0  0
   23.3695   72.0824   -3.4230 P   0  0  2  0  0  0  0  0  0  0  0  0
   24.0204   73.5328   -3.7279 O   0  0  0  0  0  0  0  0  0  0  0  0
   24.3627   71.0311   -3.0206 O   0  0  0  0  0  0  0  0  0  0  0  0
   22.2217   72.3734   -2.3274 O   0  0  0  0  0  0  0  0  0  0  0  0
   21.6378   74.5129   -1.4963 O   0  0  0  0  0  0  0  0  0  0  0  0
   20.4420   72.0532    1.6001 O   0  0  0  0  0  0  0  0  0  0  0  0
   22.9783   71.5817    0.2293 O   0  0  0  0  0  0  0  0  0  0  0  0
   18.4662   73.2076   -0.1928 O   0  0  0  0  0  0  0  0  0  0  0  0
   20.6968   72.4068    0.2407 C   0  0  2  0  0  0  0  0  0  0  0  0
   22.1775   72.7470    0.0693 C   0  0  2  0  0  0  0  0  0  0  0  0
   19.8289   73.6193   -0.1033 C   0  0  1  0  0  0  0  0  0  0  0  0
   22.4444   73.3491   -1.3109 C   0  0  1  0  0  0  0  0  0  0  0  0
   20.2399   74.2386   -1.4360 C   0  0  1  0  0  0  0  0  0  0  0  0
   20.9828   71.2847    1.8413 H   0  0  0  0  0  0  0  0  0  0  0  0
   22.8138   71.1943    1.1029 H   0  0  0  0  0  0  0  0  0  0  0  0
   18.1921   72.8115    0.6491 H   0  0  0  0  0  0  0  0  0  0  0  0
   20.5811   76.5516   -1.6231 O   0  0  0  0  0  0  0  0  0  0  0  0
   18.4279   75.8071   -1.7150 O   0  0  0  0  0  0  0  0  0  0  0  0
   19.6252   75.5899   -1.6050 C   0  0  0  0  0  0  0  0  0  0  0  0
  1  4  1  0
  1 24  1  0
  1  2  1  1
  1  3  2  0
 25 28  1  0
 25 24  1  0
 25 26  1  6
 25 27  2  0
  6 11  1  0
  6 12  1  0
 29 36  1  0
 29 37  1  0
  9  7  1  6
  7 13  1  0
 10  8  1  6
  8 14  1  0
  4  5  1  0
 36 28  1  6
 33 30  1  1
 30 38  1  0
 34 31  1  6
 31 39  1  0
 35 32  1  6
 32 40  1  0
 41 43  1  0
 15 19  2  0
 42 43  2  0
 16 22  2  0
 12 17  1  1
 17 19  1  0
 17 20  1  0
 18 19  1  0
 18 22  1  0
 18 23  1  0
  9 10  1  0
  9 11  1  0
 10 12  1  0
 11  5  1  1
 33 34  1  0
 33 35  1  0
 34 36  1  0
 35 37  1  0
 37 43  1  1
 20 21  2  0
 21 22  1  0
M  CHG  3   2  -1  26  -1  41  -1
M  END
>  <COMPND>  (69) 
    udp_gluA.pdb 

>  <AUTHOR>  (69) 
    GENERATED BY OPEN BABEL 3.1.1

>  <MASTER>  (69) 
        0    0    0    0    0    0    0    0   56    0   56    0

>  <minimizedAffinity>  (69) 
-6.67130

>  <CNNscore>  (69) 
0.5973266959

>  <CNNaffinity>  (69) 
4.5446233749

>  <CNN_VS>  (69) 
2.7146248817

>  <CNNaffinity_variance>  (69) 
0.2732332051

$$$$
70
     RDKit          3D

 43 45  0  0  0  0  0  0  0  0999 V2000
   23.2225   71.8352   -2.3815 P   0  0  2  0  0  0  0  0  0  0  0  0
   23.6599   73.3623   -2.0726 O   0  0  0  0  0  0  0  0  0  0  0  0
   24.1958   71.0534   -3.2141 O   0  0  0  0  0  0  0  0  0  0  0  0
   21.7299   71.9742   -2.9905 O   0  0  0  0  0  0  0  0  0  0  0  0
   21.4933   72.9558   -3.9829 C   0  0  0  0  0  0  0  0  0  0  0  0
   20.7833   71.0416   -5.2514 O   0  0  0  0  0  0  0  0  0  0  0  0
   21.2973   72.7026   -7.6945 O   0  0  0  0  0  0  0  0  0  0  0  0
   18.5873   72.8528   -7.4312 O   0  0  0  0  0  0  0  0  0  0  0  0
   20.7857   73.1007   -6.4223 C   0  0  1  0  0  0  0  0  0  0  0  0
   19.3534   72.6360   -6.2647 C   0  0  2  0  0  0  0  0  0  0  0  0
   21.5035   72.2891   -5.3525 C   0  0  1  0  0  0  0  0  0  0  0  0
   19.5333   71.1609   -5.9490 C   0  0  2  0  0  0  0  0  0  0  0  0
   20.8536   73.2076   -8.3942 H   0  0  0  0  0  0  0  0  0  0  0  0
   18.5014   73.8066   -7.5889 H   0  0  0  0  0  0  0  0  0  0  0  0
   17.0862   70.1371   -6.9185 O   0  0  0  0  0  0  0  0  0  0  0  0
   15.5761   69.2147   -2.6626 O   0  0  0  0  0  0  0  0  0  0  0  0
   18.4830   70.6467   -5.1163 N   0  0  0  0  0  0  0  0  0  0  0  0
   16.3360   69.6796   -4.7978 N   0  0  0  0  0  0  0  0  0  0  0  0
   17.2929   70.1560   -5.7036 C   0  0  0  0  0  0  0  0  0  0  0  0
   18.6377   70.6303   -3.7355 C   0  0  0  0  0  0  0  0  0  0  0  0
   17.7167   70.1730   -2.8849 C   0  0  0  0  0  0  0  0  0  0  0  0
   16.4440   69.6434   -3.4170 C   0  0  0  0  0  0  0  0  0  0  0  0
   15.4982   69.3347   -5.1831 H   0  0  0  0  0  0  0  0  0  0  0  0
   22.9581   71.2281   -0.9069 O   0  0  0  0  0  0  0  0  0  0  0  0
   21.9303   71.6774    0.2574 P   0  0  2  0  0  0  0  0  0  0  0  0
   20.7940   70.5255    0.2123 O   0  0  0  0  0  0  0  0  0  0  0  0
   21.4012   73.0743    0.1063 O   0  0  0  0  0  0  0  0  0  0  0  0
   22.7280   71.4089    1.6336 O   0  0  0  0  0  0  0  0  0  0  0  0
   23.2979   73.1884    3.0888 O   0  0  0  0  0  0  0  0  0  0  0  0
   25.9054   70.2292    4.3183 O   0  0  0  0  0  0  0  0  0  0  0  0
   25.4062   70.6752    1.4747 O   0  0  0  0  0  0  0  0  0  0  0  0
   23.5645   70.8687    5.9190 O   0  0  0  0  0  0  0  0  0  0  0  0
   24.6884   70.7569    3.7907 C   0  0  2  0  0  0  0  0  0  0  0  0
   24.9836   71.5479    2.5161 C   0  0  2  0  0  0  0  0  0  0  0  0
   24.0693   71.6694    4.8519 C   0  0  1  0  0  0  0  0  0  0  0  0
   23.7464   72.3167    2.0503 C   0  0  1  0  0  0  0  0  0  0  0  0
   22.9221   72.4947    4.2764 C   0  0  1  0  0  0  0  0  0  0  0  0
   26.3169   69.6461    3.6611 H   0  0  0  0  0  0  0  0  0  0  0  0
   26.1908   70.1839    1.7635 H   0  0  0  0  0  0  0  0  0  0  0  0
   24.2849   70.3383    6.2940 H   0  0  0  0  0  0  0  0  0  0  0  0
   22.5806   74.7969    4.5673 O   0  0  0  0  0  0  0  0  0  0  0  0
   22.2451   73.4581    6.3823 O   0  0  0  0  0  0  0  0  0  0  0  0
   22.5460   73.6016    5.2068 C   0  0  0  0  0  0  0  0  0  0  0  0
  1  4  1  0
  1 24  1  0
  1  2  1  1
  1  3  2  0
 25 28  1  0
 25 24  1  0
 25 26  1  1
 25 27  2  0
  6 11  1  0
  6 12  1  0
 29 36  1  0
 29 37  1  0
  9  7  1  6
  7 13  1  0
 10  8  1  6
  8 14  1  0
  4  5  1  0
 36 28  1  1
 33 30  1  1
 30 38  1  0
 34 31  1  6
 31 39  1  0
 35 32  1  1
 32 40  1  0
 41 43  1  0
 15 19  2  0
 42 43  2  0
 16 22  2  0
 12 17  1  1
 17 19  1  0
 17 20  1  0
 18 19  1  0
 18 22  1  0
 18 23  1  0
  9 10  1  0
  9 11  1  0
 10 12  1  0
 11  5  1  1
 33 34  1  0
 33 35  1  0
 34 36  1  0
 35 37  1  0
 37 43  1  1
 20 21  2  0
 21 22  1  0
M  CHG  3   2  -1  26  -1  41  -1
M  END
>  <COMPND>  (70) 
    udp_gluA.pdb 

>  <AUTHOR>  (70) 
    GENERATED BY OPEN BABEL 3.1.1

>  <MASTER>  (70) 
        0    0    0    0    0    0    0    0   56    0   56    0

>  <minimizedAffinity>  (70) 
-7.98571

>  <CNNscore>  (70) 
0.5409118533

>  <CNNaffinity>  (70) 
4.1760377884

>  <CNN_VS>  (70) 
2.2588684559

>  <CNNaffinity_variance>  (70) 
0.2135210484

$$$$
71
     RDKit          3D

 43 45  0  0  0  0  0  0  0  0999 V2000
   23.4804   71.9886   -3.2008 P   0  0  2  0  0  0  0  0  0  0  0  0
   24.1633   73.1107   -4.1458 O   0  0  0  0  0  0  0  0  0  0  0  0
   24.2975   70.7460   -3.0008 O   0  0  0  0  0  0  0  0  0  0  0  0
   22.0164   71.7692   -3.8539 O   0  0  0  0  0  0  0  0  0  0  0  0
   21.6092   72.6267   -4.9042 C   0  0  0  0  0  0  0  0  0  0  0  0
   20.7457   70.6189   -5.9045 O   0  0  0  0  0  0  0  0  0  0  0  0
   21.1371   71.9872   -8.5438 O   0  0  0  0  0  0  0  0  0  0  0  0
   18.4598   72.2758   -8.1142 O   0  0  0  0  0  0  0  0  0  0  0  0
   20.7324   72.5394   -7.2909 C   0  0  1  0  0  0  0  0  0  0  0  0
   19.3005   72.1534   -6.9861 C   0  0  2  0  0  0  0  0  0  0  0  0
   21.4980   71.8179   -6.1902 C   0  0  1  0  0  0  0  0  0  0  0  0
   19.4533   70.7143   -6.5240 C   0  0  2  0  0  0  0  0  0  0  0  0
   20.6611   72.4325   -9.2627 H   0  0  0  0  0  0  0  0  0  0  0  0
   18.3946   73.2100   -8.3691 H   0  0  0  0  0  0  0  0  0  0  0  0
   16.8654   69.8122   -7.2063 O   0  0  0  0  0  0  0  0  0  0  0  0
   15.6834   69.2878   -2.7823 O   0  0  0  0  0  0  0  0  0  0  0  0
   18.4493   70.3354   -5.5704 N   0  0  0  0  0  0  0  0  0  0  0  0
   16.2788   69.5529   -5.0022 N   0  0  0  0  0  0  0  0  0  0  0  0
   17.1808   69.8961   -6.0179 C   0  0  0  0  0  0  0  0  0  0  0  0
   18.7255   70.3992   -4.2101 C   0  0  0  0  0  0  0  0  0  0  0  0
   17.8555   70.0685   -3.2538 C   0  0  0  0  0  0  0  0  0  0  0  0
   16.5073   69.6003   -3.6365 C   0  0  0  0  0  0  0  0  0  0  0  0
   15.3884   69.2461   -5.2892 H   0  0  0  0  0  0  0  0  0  0  0  0
   23.1545   72.8056   -1.8446 O   0  0  0  0  0  0  0  0  0  0  0  0
   22.0784   72.5277   -0.6706 P   0  0  2  0  0  0  0  0  0  0  0  0
   21.5134   71.0535   -1.0281 O   0  0  0  0  0  0  0  0  0  0  0  0
   21.0177   73.5828   -0.5451 O   0  0  0  0  0  0  0  0  0  0  0  0
   22.9683   72.3117    0.6575 O   0  0  0  0  0  0  0  0  0  0  0  0
   23.9382   70.5427    1.8980 O   0  0  0  0  0  0  0  0  0  0  0  0
   22.0628   72.7208    4.8656 O   0  0  0  0  0  0  0  0  0  0  0  0
   20.7309   72.2489    2.3087 O   0  0  0  0  0  0  0  0  0  0  0  0
   24.9482   72.8729    4.5461 O   0  0  0  0  0  0  0  0  0  0  0  0
   22.7478   72.5242    3.6287 C   0  0  2  0  0  0  0  0  0  0  0  0
   21.9256   71.6006    2.7295 C   0  0  2  0  0  0  0  0  0  0  0  0
   24.1083   71.8945    3.9364 C   0  0  1  0  0  0  0  0  0  0  0  0
   22.7268   71.1830    1.4956 C   0  0  1  0  0  0  0  0  0  0  0  0
   24.7887   71.3903    2.6670 C   0  0  1  0  0  0  0  0  0  0  0  0
   21.1952   73.1201    4.6950 H   0  0  0  0  0  0  0  0  0  0  0  0
   20.2177   72.5169    3.0866 H   0  0  0  0  0  0  0  0  0  0  0  0
   24.5265   73.2021    5.3552 H   0  0  0  0  0  0  0  0  0  0  0  0
   25.5087   69.3787    3.6349 O   0  0  0  0  0  0  0  0  0  0  0  0
   27.1093   70.7337    2.7397 O   0  0  0  0  0  0  0  0  0  0  0  0
   25.9392   70.4974    3.0008 C   0  0  0  0  0  0  0  0  0  0  0  0
  1  4  1  0
  1 24  1  0
  1  2  1  6
  1  3  2  0
 25 28  1  0
 25 24  1  0
 25 26  1  6
 25 27  2  0
  6 11  1  0
  6 12  1  0
 29 36  1  0
 29 37  1  0
  9  7  1  6
  7 13  1  0
 10  8  1  6
  8 14  1  0
  4  5  1  0
 36 28  1  1
 33 30  1  1
 30 38  1  0
 34 31  1  6
 31 39  1  0
 35 32  1  6
 32 40  1  0
 41 43  1  0
 15 19  2  0
 42 43  2  0
 16 22  2  0
 12 17  1  1
 17 19  1  0
 17 20  1  0
 18 19  1  0
 18 22  1  0
 18 23  1  0
  9 10  1  0
  9 11  1  0
 10 12  1  0
 11  5  1  1
 33 34  1  0
 33 35  1  0
 34 36  1  0
 35 37  1  0
 37 43  1  1
 20 21  2  0
 21 22  1  0
M  CHG  3   2  -1  26  -1  41  -1
M  END
>  <COMPND>  (71) 
    udp_gluA.pdb 

>  <AUTHOR>  (71) 
    GENERATED BY OPEN BABEL 3.1.1

>  <MASTER>  (71) 
        0    0    0    0    0    0    0    0   56    0   56    0

>  <minimizedAffinity>  (71) 
-8.24817

>  <CNNscore>  (71) 
0.5338186622

>  <CNNaffinity>  (71) 
4.2181243896

>  <CNN_VS>  (71) 
2.2517135143

>  <CNNaffinity_variance>  (71) 
0.1783166826

$$$$
72
     RDKit          3D

 43 45  0  0  0  0  0  0  0  0999 V2000
   21.3421   71.7477    0.3683 P   0  0  2  0  0  0  0  0  0  0  0  0
   20.7757   71.5174    1.8666 O   0  0  0  0  0  0  0  0  0  0  0  0
   21.2933   73.1670   -0.1163 O   0  0  0  0  0  0  0  0  0  0  0  0
   20.5275   70.6720   -0.5246 O   0  0  0  0  0  0  0  0  0  0  0  0
   20.1646   71.0268   -1.8463 C   0  0  0  0  0  0  0  0  0  0  0  0
   20.8774   69.9602   -3.8790 O   0  0  0  0  0  0  0  0  0  0  0  0
   23.2729   71.7602   -3.7644 O   0  0  0  0  0  0  0  0  0  0  0  0
   21.6879   72.9942   -5.6086 O   0  0  0  0  0  0  0  0  0  0  0  0
   21.9218   72.0290   -3.3892 C   0  0  1  0  0  0  0  0  0  0  0  0
   21.0600   72.2025   -4.6219 C   0  0  2  0  0  0  0  0  0  0  0  0
   21.3445   70.7622   -2.7727 C   0  0  1  0  0  0  0  0  0  0  0  0
   20.8554   70.7650   -5.0686 C   0  0  2  0  0  0  0  0  0  0  0  0
   23.6630   72.5554   -4.1610 H   0  0  0  0  0  0  0  0  0  0  0  0
   21.7953   73.8998   -5.2764 H   0  0  0  0  0  0  0  0  0  0  0  0
   20.5090   70.8860   -7.8689 O   0  0  0  0  0  0  0  0  0  0  0  0
   15.9961   70.0119   -7.5318 O   0  0  0  0  0  0  0  0  0  0  0  0
   19.6008   70.5728   -5.7392 N   0  0  0  0  0  0  0  0  0  0  0  0
   18.2615   70.4515   -7.6983 N   0  0  0  0  0  0  0  0  0  0  0  0
   19.5349   70.6545   -7.1503 C   0  0  0  0  0  0  0  0  0  0  0  0
   18.4539   70.3053   -5.0016 C   0  0  0  0  0  0  0  0  0  0  0  0
   17.2471   70.1141   -5.5381 C   0  0  0  0  0  0  0  0  0  0  0  0
   17.0917   70.1835   -7.0059 C   0  0  0  0  0  0  0  0  0  0  0  0
   18.1902   70.5056   -8.6787 H   0  0  0  0  0  0  0  0  0  0  0  0
   22.8262   71.1112    0.4396 O   0  0  0  0  0  0  0  0  0  0  0  0
   24.2301   71.7442    0.9315 P   0  0  2  0  0  0  0  0  0  0  0  0
   24.3187   73.1338    0.1059 O   0  0  0  0  0  0  0  0  0  0  0  0
   25.4128   70.8382    0.7459 O   0  0  0  0  0  0  0  0  0  0  0  0
   23.9640   72.1937    2.4578 O   0  0  0  0  0  0  0  0  0  0  0  0
   25.1051   70.6041    3.7921 O   0  0  0  0  0  0  0  0  0  0  0  0
   23.6729   73.2248    6.6467 O   0  0  0  0  0  0  0  0  0  0  0  0
   21.9876   72.4140    4.4024 O   0  0  0  0  0  0  0  0  0  0  0  0
   26.4820   73.2728    5.9003 O   0  0  0  0  0  0  0  0  0  0  0  0
   24.1731   72.8380    5.3668 C   0  0  2  0  0  0  0  0  0  0  0  0
   23.2315   71.8102    4.7386 C   0  0  2  0  0  0  0  0  0  0  0  0
   25.5646   72.2331    5.5660 C   0  0  1  0  0  0  0  0  0  0  0  0
   23.8474   71.2030    3.4774 C   0  0  1  0  0  0  0  0  0  0  0  0
   26.0561   71.5373    4.3000 C   0  0  1  0  0  0  0  0  0  0  0  0
   22.7891   73.6120    6.5451 H   0  0  0  0  0  0  0  0  0  0  0  0
   21.5913   72.8016    5.1980 H   0  0  0  0  0  0  0  0  0  0  0  0
   26.1807   73.7238    6.7045 H   0  0  0  0  0  0  0  0  0  0  0  0
   27.0570   69.4240    4.1168 O   0  0  0  0  0  0  0  0  0  0  0  0
   28.2503   71.0516    5.1779 O   0  0  0  0  0  0  0  0  0  0  0  0
   27.2440   70.6799    4.5929 C   0  0  0  0  0  0  0  0  0  0  0  0
  1  4  1  0
  1 24  1  0
  1  2  1  1
  1  3  2  0
 25 28  1  0
 25 24  1  0
 25 26  1  6
 25 27  2  0
  6 11  1  0
  6 12  1  0
 29 36  1  0
 29 37  1  0
  9  7  1  6
  7 13  1  0
 10  8  1  6
  8 14  1  0
  4  5  1  0
 36 28  1  6
 33 30  1  1
 30 38  1  0
 34 31  1  6
 31 39  1  0
 35 32  1  6
 32 40  1  0
 41 43  1  0
 15 19  2  0
 42 43  2  0
 16 22  2  0
 12 17  1  1
 17 19  1  0
 17 20  1  0
 18 19  1  0
 18 22  1  0
 18 23  1  0
  9 10  1  0
  9 11  1  0
 10 12  1  0
 11  5  1  1
 33 34  1  0
 33 35  1  0
 34 36  1  0
 35 37  1  0
 37 43  1  1
 20 21  2  0
 21 22  1  0
M  CHG  3   2  -1  26  -1  41  -1
M  END
>  <COMPND>  (72) 
    udp_gluA.pdb 

>  <AUTHOR>  (72) 
    GENERATED BY OPEN BABEL 3.1.1

>  <MASTER>  (72) 
        0    0    0    0    0    0    0    0   56    0   56    0

>  <minimizedAffinity>  (72) 
-7.59945

>  <CNNscore>  (72) 
0.4722250700

>  <CNNaffinity>  (72) 
4.1611342430

>  <CNN_VS>  (72) 
1.9649919271

>  <CNNaffinity_variance>  (72) 
0.0720517188

$$$$
73
     RDKit          3D

 43 45  0  0  0  0  0  0  0  0999 V2000
   16.8529   75.3275   -3.8453 P   0  0  2  0  0  0  0  0  0  0  0  0
   16.2379   74.9491   -2.3970 O   0  0  0  0  0  0  0  0  0  0  0  0
   16.4999   76.6977   -4.3451 O   0  0  0  0  0  0  0  0  0  0  0  0
   16.4014   74.0961   -4.7928 O   0  0  0  0  0  0  0  0  0  0  0  0
   15.9296   74.3837   -6.0963 C   0  0  0  0  0  0  0  0  0  0  0  0
   17.9042   73.0527   -6.4230 O   0  0  0  0  0  0  0  0  0  0  0  0
   17.1964   73.0523   -9.3368 O   0  0  0  0  0  0  0  0  0  0  0  0
   16.3378   70.5981   -8.5147 O   0  0  0  0  0  0  0  0  0  0  0  0
   16.3363   73.0089   -8.1980 C   0  0  1  0  0  0  0  0  0  0  0  0
   16.3815   71.6370   -7.5591 C   0  0  2  0  0  0  0  0  0  0  0  0
   16.9480   73.8856   -7.1137 C   0  0  1  0  0  0  0  0  0  0  0  0
   17.6998   71.6833   -6.8055 C   0  0  2  0  0  0  0  0  0  0  0  0
   16.8263   72.4993  -10.0432 H   0  0  0  0  0  0  0  0  0  0  0  0
   15.4791   70.6107   -8.9669 H   0  0  0  0  0  0  0  0  0  0  0  0
   20.0014   70.5579   -5.6169 O   0  0  0  0  0  0  0  0  0  0  0  0
   17.5258   68.5640   -2.2792 O   0  0  0  0  0  0  0  0  0  0  0  0
   17.6854   70.8660   -5.6254 N   0  0  0  0  0  0  0  0  0  0  0  0
   18.7661   69.5651   -3.9562 N   0  0  0  0  0  0  0  0  0  0  0  0
   18.8976   70.3496   -5.1096 C   0  0  0  0  0  0  0  0  0  0  0  0
   16.4815   70.5850   -4.9910 C   0  0  0  0  0  0  0  0  0  0  0  0
   16.3720   69.8357   -3.8922 C   0  0  0  0  0  0  0  0  0  0  0  0
   17.5910   69.2573   -3.2899 C   0  0  0  0  0  0  0  0  0  0  0  0
   19.5961   69.1928   -3.5798 H   0  0  0  0  0  0  0  0  0  0  0  0
   18.4362   75.0708   -3.6456 O   0  0  0  0  0  0  0  0  0  0  0  0
   19.4923   75.7120   -2.6028 P   0  0  2  0  0  0  0  0  0  0  0  0
   18.6374   75.8247   -1.2329 O   0  0  0  0  0  0  0  0  0  0  0  0
   20.1008   77.0061   -3.0602 O   0  0  0  0  0  0  0  0  0  0  0  0
   20.5575   74.5335   -2.3223 O   0  0  0  0  0  0  0  0  0  0  0  0
   21.6770   72.8760   -3.5907 O   0  0  0  0  0  0  0  0  0  0  0  0
   20.5169   70.7382   -0.2512 O   0  0  0  0  0  0  0  0  0  0  0  0
   18.6887   72.6461   -1.4970 O   0  0  0  0  0  0  0  0  0  0  0  0
   23.2866   71.5629   -0.5663 O   0  0  0  0  0  0  0  0  0  0  0  0
   20.9359   71.8929   -0.9787 C   0  0  2  0  0  0  0  0  0  0  0  0
   19.9143   72.2077   -2.0717 C   0  0  2  0  0  0  0  0  0  0  0  0
   22.3023   71.5914   -1.5982 C   0  0  1  0  0  0  0  0  0  0  0  0
   20.4383   73.2919   -3.0144 C   0  0  1  0  0  0  0  0  0  0  0  0
   22.6974   72.6537   -2.6199 C   0  0  1  0  0  0  0  0  0  0  0  0
   19.6504   70.9064    0.1515 H   0  0  0  0  0  0  0  0  0  0  0  0
   18.3506   71.9631   -0.8974 H   0  0  0  0  0  0  0  0  0  0  0  0
   23.0469   70.8908    0.0907 H   0  0  0  0  0  0  0  0  0  0  0  0
   24.2411   70.9468   -3.0724 O   0  0  0  0  0  0  0  0  0  0  0  0
   24.3781   72.8363   -4.3413 O   0  0  0  0  0  0  0  0  0  0  0  0
   23.8522   72.1907   -3.4471 C   0  0  0  0  0  0  0  0  0  0  0  0
  1  4  1  0
  1 24  1  0
  1  2  1  1
  1  3  2  0
 25 28  1  0
 25 24  1  0
 25 26  1  1
 25 27  2  0
  6 11  1  0
  6 12  1  0
 29 36  1  0
 29 37  1  0
  9  7  1  6
  7 13  1  0
 10  8  1  6
  8 14  1  0
  4  5  1  0
 36 28  1  1
 33 30  1  6
 30 38  1  0
 34 31  1  1
 31 39  1  0
 35 32  1  1
 32 40  1  0
 41 43  1  0
 15 19  2  0
 42 43  2  0
 16 22  2  0
 12 17  1  1
 17 19  1  0
 17 20  1  0
 18 19  1  0
 18 22  1  0
 18 23  1  0
  9 10  1  0
  9 11  1  0
 10 12  1  0
 11  5  1  1
 33 34  1  0
 33 35  1  0
 34 36  1  0
 35 37  1  0
 37 43  1  6
 20 21  2  0
 21 22  1  0
M  CHG  3   2  -1  26  -1  41  -1
M  END
>  <COMPND>  (73) 
    udp_gluA.pdb 

>  <AUTHOR>  (73) 
    GENERATED BY OPEN BABEL 3.1.1

>  <MASTER>  (73) 
        0    0    0    0    0    0    0    0   56    0   56    0

>  <minimizedAffinity>  (73) 
-6.59330

>  <CNNscore>  (73) 
0.4650917649

>  <CNNaffinity>  (73) 
4.0917987823

>  <CNN_VS>  (73) 
1.9030618668

>  <CNNaffinity_variance>  (73) 
0.4884316325

$$$$
74
     RDKit          3D

 43 45  0  0  0  0  0  0  0  0999 V2000
   19.3773   72.7550   -2.3111 P   0  0  2  0  0  0  0  0  0  0  0  0
   19.5511   74.2884   -1.8240 O   0  0  0  0  0  0  0  0  0  0  0  0
   17.9774   72.3635   -2.6840 O   0  0  0  0  0  0  0  0  0  0  0  0
   20.0558   71.8907   -1.1234 O   0  0  0  0  0  0  0  0  0  0  0  0
   20.9239   72.5490   -0.2192 C   0  0  0  0  0  0  0  0  0  0  0  0
   20.8080   71.7707    2.0520 O   0  0  0  0  0  0  0  0  0  0  0  0
   19.3206   74.3051    2.6484 O   0  0  0  0  0  0  0  0  0  0  0  0
   21.8351   74.8656    3.5423 O   0  0  0  0  0  0  0  0  0  0  0  0
   20.4007   74.0834    1.7415 C   0  0  1  0  0  0  0  0  0  0  0  0
   21.6991   73.9193    2.5028 C   0  0  2  0  0  0  0  0  0  0  0  0
   20.2183   72.7047    1.1218 C   0  0  1  0  0  0  0  0  0  0  0  0
   21.5837   72.4954    3.0197 C   0  0  2  0  0  0  0  0  0  0  0  0
   19.4154   75.1802    3.0570 H   0  0  0  0  0  0  0  0  0  0  0  0
   21.9050   75.7558    3.1621 H   0  0  0  0  0  0  0  0  0  0  0  0
   22.9278   72.1556    5.4803 O   0  0  0  0  0  0  0  0  0  0  0  0
   26.4863   70.0408    3.4533 O   0  0  0  0  0  0  0  0  0  0  0  0
   22.8627   71.8594    3.1637 N   0  0  0  0  0  0  0  0  0  0  0  0
   24.6993   71.1036    4.4683 N   0  0  0  0  0  0  0  0  0  0  0  0
   23.4512   71.7399    4.4449 C   0  0  0  0  0  0  0  0  0  0  0  0
   23.5194   71.3611    2.0451 C   0  0  0  0  0  0  0  0  0  0  0  0
   24.7086   70.7569    2.0832 C   0  0  0  0  0  0  0  0  0  0  0  0
   25.3921   70.5922    3.3829 C   0  0  0  0  0  0  0  0  0  0  0  0
   25.1297   71.0105    5.3489 H   0  0  0  0  0  0  0  0  0  0  0  0
   20.4533   72.6311   -3.5109 O   0  0  0  0  0  0  0  0  0  0  0  0
   20.4101   73.1684   -5.0351 P   0  0  2  0  0  0  0  0  0  0  0  0
   21.8046   72.6303   -5.6566 O   0  0  0  0  0  0  0  0  0  0  0  0
   20.2087   74.6509   -5.1599 O   0  0  0  0  0  0  0  0  0  0  0  0
   19.2735   72.2757   -5.7518 O   0  0  0  0  0  0  0  0  0  0  0  0
   18.6898   70.0147   -5.3562 O   0  0  0  0  0  0  0  0  0  0  0  0
   17.7961   70.4241   -9.3689 O   0  0  0  0  0  0  0  0  0  0  0  0
   20.2380   71.5910   -8.2691 O   0  0  0  0  0  0  0  0  0  0  0  0
   15.6615   70.3767   -7.3960 O   0  0  0  0  0  0  0  0  0  0  0  0
   17.9403   70.8545   -8.0154 C   0  0  2  0  0  0  0  0  0  0  0  0
   19.3940   70.6797   -7.5750 C   0  0  2  0  0  0  0  0  0  0  0  0
   17.0145   70.0005   -7.1463 C   0  0  1  0  0  0  0  0  0  0  0  0
   19.5414   70.9114   -6.0706 C   0  0  1  0  0  0  0  0  0  0  0  0
   17.3087   70.1943   -5.6616 C   0  0  1  0  0  0  0  0  0  0  0  0
   18.3753   70.9529   -9.9400 H   0  0  0  0  0  0  0  0  0  0  0  0
   20.1493   71.4498   -9.2244 H   0  0  0  0  0  0  0  0  0  0  0  0
   15.4614   70.2582   -8.3377 H   0  0  0  0  0  0  0  0  0  0  0  0
   16.1906   68.1325   -5.6411 O   0  0  0  0  0  0  0  0  0  0  0  0
   16.5238   69.1550   -3.6305 O   0  0  0  0  0  0  0  0  0  0  0  0
   16.6441   69.1332   -4.8462 C   0  0  0  0  0  0  0  0  0  0  0  0
  1  4  1  0
  1 24  1  0
  1  2  1  1
  1  3  2  0
 25 28  1  0
 25 24  1  0
 25 26  1  6
 25 27  2  0
  6 11  1  0
  6 12  1  0
 29 36  1  0
 29 37  1  0
  9  7  1  1
  7 13  1  0
 10  8  1  1
  8 14  1  0
  4  5  1  0
 36 28  1  6
 33 30  1  6
 30 38  1  0
 34 31  1  6
 31 39  1  0
 35 32  1  1
 32 40  1  0
 41 43  1  0
 15 19  2  0
 42 43  2  0
 16 22  2  0
 12 17  1  6
 17 19  1  0
 17 20  1  0
 18 19  1  0
 18 22  1  0
 18 23  1  0
  9 10  1  0
  9 11  1  0
 10 12  1  0
 11  5  1  6
 33 34  1  0
 33 35  1  0
 34 36  1  0
 35 37  1  0
 37 43  1  1
 20 21  2  0
 21 22  1  0
M  CHG  3   2  -1  26  -1  41  -1
M  END
>  <COMPND>  (74) 
    udp_gluA.pdb 

>  <AUTHOR>  (74) 
    GENERATED BY OPEN BABEL 3.1.1

>  <MASTER>  (74) 
        0    0    0    0    0    0    0    0   56    0   56    0

>  <minimizedAffinity>  (74) 
-7.26951

>  <CNNscore>  (74) 
0.4567629099

>  <CNNaffinity>  (74) 
4.0126004219

>  <CNN_VS>  (74) 
1.8328070641

>  <CNNaffinity_variance>  (74) 
0.1954914778

$$$$
75
     RDKit          3D

 43 45  0  0  0  0  0  0  0  0999 V2000
   21.4796   71.8618   -1.3413 P   0  0  2  0  0  0  0  0  0  0  0  0
   22.6074   71.2453   -2.3247 O   0  0  0  0  0  0  0  0  0  0  0  0
   21.0790   73.2757   -1.6445 O   0  0  0  0  0  0  0  0  0  0  0  0
   22.0732   71.6023    0.1414 O   0  0  0  0  0  0  0  0  0  0  0  0
   22.7554   72.6592    0.7911 C   0  0  0  0  0  0  0  0  0  0  0  0
   24.8358   73.0828    1.9180 O   0  0  0  0  0  0  0  0  0  0  0  0
   25.8375   70.5741    0.6163 O   0  0  0  0  0  0  0  0  0  0  0  0
   25.2615   69.7423    3.1485 O   0  0  0  0  0  0  0  0  0  0  0  0
   24.5359   70.8722    1.1215 C   0  0  1  0  0  0  0  0  0  0  0  0
   24.5420   70.8438    2.6352 C   0  0  2  0  0  0  0  0  0  0  0  0
   24.2439   72.3382    0.8315 C   0  0  1  0  0  0  0  0  0  0  0  0
   25.1913   72.1751    2.9730 C   0  0  2  0  0  0  0  0  0  0  0  0
   26.0466   69.6425    0.7899 H   0  0  0  0  0  0  0  0  0  0  0  0
   24.8078   68.9189    2.9070 H   0  0  0  0  0  0  0  0  0  0  0  0
   26.8851   73.0388    5.0614 O   0  0  0  0  0  0  0  0  0  0  0  0
   23.3091   74.2040    7.7258 O   0  0  0  0  0  0  0  0  0  0  0  0
   24.7295   72.7084    4.2232 N   0  0  0  0  0  0  0  0  0  0  0  0
   25.1024   73.6173    6.3868 N   0  0  0  0  0  0  0  0  0  0  0  0
   25.6635   73.1132    5.2061 C   0  0  0  0  0  0  0  0  0  0  0  0
   23.3663   72.8277    4.4652 C   0  0  0  0  0  0  0  0  0  0  0  0
   22.8466   73.3103    5.5956 C   0  0  0  0  0  0  0  0  0  0  0  0
   23.7540   73.7548    6.6738 C   0  0  0  0  0  0  0  0  0  0  0  0
   25.7329   73.9037    7.0867 H   0  0  0  0  0  0  0  0  0  0  0  0
   20.2790   70.7846   -1.4457 O   0  0  0  0  0  0  0  0  0  0  0  0
   18.8764   70.8329   -2.2482 P   0  0  2  0  0  0  0  0  0  0  0  0
   18.0735   72.0337   -1.5176 O   0  0  0  0  0  0  0  0  0  0  0  0
   18.1393   69.5254   -2.2793 O   0  0  0  0  0  0  0  0  0  0  0  0
   19.2563   71.4221   -3.7011 O   0  0  0  0  0  0  0  0  0  0  0  0
   18.6120   69.9668   -5.4550 O   0  0  0  0  0  0  0  0  0  0  0  0
   20.7241   72.8675   -7.5026 O   0  0  0  0  0  0  0  0  0  0  0  0
   21.7062   71.8470   -4.9476 O   0  0  0  0  0  0  0  0  0  0  0  0
   17.8196   72.8241   -7.6160 O   0  0  0  0  0  0  0  0  0  0  0  0
   19.8851   72.3520   -6.4690 C   0  0  2  0  0  0  0  0  0  0  0  0
   20.6371   71.2724   -5.6903 C   0  0  2  0  0  0  0  0  0  0  0  0
   18.6349   71.7617   -7.1250 C   0  0  1  0  0  0  0  0  0  0  0  0
   19.7008   70.5387   -4.7291 C   0  0  1  0  0  0  0  0  0  0  0  0
   17.8191   70.9403   -6.1309 C   0  0  1  0  0  0  0  0  0  0  0  0
   21.5253   73.2479   -7.1094 H   0  0  0  0  0  0  0  0  0  0  0  0
   22.3041   72.3144   -5.5512 H   0  0  0  0  0  0  0  0  0  0  0  0
   18.3270   73.3548   -8.2498 H   0  0  0  0  0  0  0  0  0  0  0  0
   16.5459   68.9705   -6.1486 O   0  0  0  0  0  0  0  0  0  0  0  0
   16.2621   70.4082   -7.8955 O   0  0  0  0  0  0  0  0  0  0  0  0
   16.7997   70.1093   -6.8397 C   0  0  0  0  0  0  0  0  0  0  0  0
  1  4  1  0
  1 24  1  0
  1  2  1  6
  1  3  2  0
 25 28  1  0
 25 24  1  0
 25 26  1  1
 25 27  2  0
  6 11  1  0
  6 12  1  0
 29 36  1  0
 29 37  1  0
  9  7  1  6
  7 13  1  0
 10  8  1  6
  8 14  1  0
  4  5  1  0
 36 28  1  1
 33 30  1  6
 30 38  1  0
 34 31  1  1
 31 39  1  0
 35 32  1  1
 32 40  1  0
 41 43  1  0
 15 19  2  0
 42 43  2  0
 16 22  2  0
 12 17  1  1
 17 19  1  0
 17 20  1  0
 18 19  1  0
 18 22  1  0
 18 23  1  0
  9 10  1  0
  9 11  1  0
 10 12  1  0
 11  5  1  1
 33 34  1  0
 33 35  1  0
 34 36  1  0
 35 37  1  0
 37 43  1  6
 20 21  2  0
 21 22  1  0
M  CHG  3   2  -1  26  -1  41  -1
M  END
>  <COMPND>  (75) 
    udp_gluA.pdb 

>  <AUTHOR>  (75) 
    GENERATED BY OPEN BABEL 3.1.1

>  <MASTER>  (75) 
        0    0    0    0    0    0    0    0   56    0   56    0

>  <minimizedAffinity>  (75) 
-6.88850

>  <CNNscore>  (75) 
0.4549147189

>  <CNNaffinity>  (75) 
4.0974121094

>  <CNN_VS>  (75) 
1.8639730215

>  <CNNaffinity_variance>  (75) 
0.0553959496

$$$$
76
     RDKit          3D

 43 45  0  0  0  0  0  0  0  0999 V2000
   23.2450   71.8126   -2.1943 P   0  0  2  0  0  0  0  0  0  0  0  0
   24.4146   71.0089   -2.9720 O   0  0  0  0  0  0  0  0  0  0  0  0
   23.3641   73.3077   -2.2420 O   0  0  0  0  0  0  0  0  0  0  0  0
   23.2386   71.1551   -0.7159 O   0  0  0  0  0  0  0  0  0  0  0  0
   23.3612   72.0109    0.4052 C   0  0  0  0  0  0  0  0  0  0  0  0
   23.3588   70.8748    2.5234 O   0  0  0  0  0  0  0  0  0  0  0  0
   20.5847   71.9532    2.8884 O   0  0  0  0  0  0  0  0  0  0  0  0
   22.0865   73.6441    4.4120 O   0  0  0  0  0  0  0  0  0  0  0  0
   21.7163   72.5621    2.2662 C   0  0  1  0  0  0  0  0  0  0  0  0
   22.7117   73.0123    3.3145 C   0  0  2  0  0  0  0  0  0  0  0  0
   22.4926   71.4748    1.5359 C   0  0  1  0  0  0  0  0  0  0  0  0
   23.3810   71.7032    3.6967 C   0  0  2  0  0  0  0  0  0  0  0  0
   20.0730   72.6285    3.3614 H   0  0  0  0  0  0  0  0  0  0  0  0
   21.6757   74.4725    4.1172 H   0  0  0  0  0  0  0  0  0  0  0  0
   24.1833   72.1607    6.3657 O   0  0  0  0  0  0  0  0  0  0  0  0
   28.6320   72.3873    5.1820 O   0  0  0  0  0  0  0  0  0  0  0  0
   24.7425   71.8852    4.1140 N   0  0  0  0  0  0  0  0  0  0  0  0
   26.3982   72.2742    5.7734 N   0  0  0  0  0  0  0  0  0  0  0  0
   25.0382   72.1092    5.4795 C   0  0  0  0  0  0  0  0  0  0  0  0
   25.7672   71.8394    3.1767 C   0  0  0  0  0  0  0  0  0  0  0  0
   27.0589   71.9983    3.4721 C   0  0  0  0  0  0  0  0  0  0  0  0
   27.4530   72.2375    4.8759 C   0  0  0  0  0  0  0  0  0  0  0  0
   26.6286   72.4334    6.7173 H   0  0  0  0  0  0  0  0  0  0  0  0
   21.8951   71.2232   -2.8600 O   0  0  0  0  0  0  0  0  0  0  0  0
   20.3453   71.3679   -2.4230 P   0  0  2  0  0  0  0  0  0  0  0  0
   20.1681   72.9630   -2.2117 O   0  0  0  0  0  0  0  0  0  0  0  0
   19.9617   70.5398   -1.2309 O   0  0  0  0  0  0  0  0  0  0  0  0
   19.5097   71.0394   -3.7632 O   0  0  0  0  0  0  0  0  0  0  0  0
   20.3482   72.6307   -5.3041 O   0  0  0  0  0  0  0  0  0  0  0  0
   17.9950   70.2627   -7.7378 O   0  0  0  0  0  0  0  0  0  0  0  0
   17.0612   71.0453   -5.0826 O   0  0  0  0  0  0  0  0  0  0  0  0
   20.8898   70.0070   -7.8112 O   0  0  0  0  0  0  0  0  0  0  0  0
   18.8570   70.5472   -6.6361 C   0  0  2  0  0  0  0  0  0  0  0  0
   18.2034   71.5922   -5.7314 C   0  0  2  0  0  0  0  0  0  0  0  0
   20.1788   71.0789   -7.1948 C   0  0  1  0  0  0  0  0  0  0  0  0
   19.1871   72.0907   -4.6718 C   0  0  1  0  0  0  0  0  0  0  0  0
   21.0510   71.6726   -6.0924 C   0  0  1  0  0  0  0  0  0  0  0  0
   17.1484   69.9234   -7.4070 H   0  0  0  0  0  0  0  0  0  0  0  0
   16.4329   70.7268   -5.7490 H   0  0  0  0  0  0  0  0  0  0  0  0
   20.3455   69.6203   -8.5147 H   0  0  0  0  0  0  0  0  0  0  0  0
   23.2092   72.5455   -5.8064 O   0  0  0  0  0  0  0  0  0  0  0  0
   22.1595   72.9927   -7.7806 O   0  0  0  0  0  0  0  0  0  0  0  0
   22.1700   72.4733   -6.6746 C   0  0  0  0  0  0  0  0  0  0  0  0
  1  4  1  0
  1 24  1  0
  1  2  1  6
  1  3  2  0
 25 28  1  0
 25 24  1  0
 25 26  1  1
 25 27  2  0
  6 11  1  0
  6 12  1  0
 29 36  1  0
 29 37  1  0
  9  7  1  1
  7 13  1  0
 10  8  1  1
  8 14  1  0
  4  5  1  0
 36 28  1  1
 33 30  1  6
 30 38  1  0
 34 31  1  1
 31 39  1  0
 35 32  1  1
 32 40  1  0
 41 43  1  0
 15 19  2  0
 42 43  2  0
 16 22  2  0
 12 17  1  6
 17 19  1  0
 17 20  1  0
 18 19  1  0
 18 22  1  0
 18 23  1  0
  9 10  1  0
  9 11  1  0
 10 12  1  0
 11  5  1  6
 33 34  1  0
 33 35  1  0
 34 36  1  0
 35 37  1  0
 37 43  1  6
 20 21  2  0
 21 22  1  0
M  CHG  3   2  -1  26  -1  41  -1
M  END
>  <COMPND>  (76) 
    udp_gluA.pdb 

>  <AUTHOR>  (76) 
    GENERATED BY OPEN BABEL 3.1.1

>  <MASTER>  (76) 
        0    0    0    0    0    0    0    0   56    0   56    0

>  <minimizedAffinity>  (76) 
-7.79649

>  <CNNscore>  (76) 
0.4415151477

>  <CNNaffinity>  (76) 
4.0975027084

>  <CNN_VS>  (76) 
1.8091095686

>  <CNNaffinity_variance>  (76) 
0.2546061873

$$$$
77
     RDKit          3D

 43 45  0  0  0  0  0  0  0  0999 V2000
   21.9154   72.6298   -5.7156 P   0  0  2  0  0  0  0  0  0  0  0  0
   21.4154   74.1304   -5.3733 O   0  0  0  0  0  0  0  0  0  0  0  0
   23.0639   72.5488   -6.6780 O   0  0  0  0  0  0  0  0  0  0  0  0
   20.5640   71.8638   -6.1683 O   0  0  0  0  0  0  0  0  0  0  0  0
   20.0709   72.0796   -7.4778 C   0  0  0  0  0  0  0  0  0  0  0  0
   18.9008   70.0723   -6.8616 O   0  0  0  0  0  0  0  0  0  0  0  0
   18.1290   69.8571   -9.7511 O   0  0  0  0  0  0  0  0  0  0  0  0
   15.8731   70.8747   -8.6060 O   0  0  0  0  0  0  0  0  0  0  0  0
   18.2770   71.0226   -8.9397 C   0  0  1  0  0  0  0  0  0  0  0  0
   17.1107   71.1462   -7.9822 C   0  0  2  0  0  0  0  0  0  0  0  0
   19.4448   70.7892   -7.9910 C   0  0  1  0  0  0  0  0  0  0  0  0
   17.4664   70.1220   -6.9181 C   0  0  2  0  0  0  0  0  0  0  0  0
   17.3886   69.9825  -10.3657 H   0  0  0  0  0  0  0  0  0  0  0  0
   15.6920   71.5545   -9.2746 H   0  0  0  0  0  0  0  0  0  0  0  0
   16.9198   72.7672   -6.0930 O   0  0  0  0  0  0  0  0  0  0  0  0
   15.5266   71.3737   -1.9263 O   0  0  0  0  0  0  0  0  0  0  0  0
   16.9601   70.4789   -5.6230 N   0  0  0  0  0  0  0  0  0  0  0  0
   16.2274   72.0707   -4.0182 N   0  0  0  0  0  0  0  0  0  0  0  0
   16.7197   71.8375   -5.3090 C   0  0  0  0  0  0  0  0  0  0  0  0
   16.7056   69.4896   -4.6810 C   0  0  0  0  0  0  0  0  0  0  0  0
   16.2363   69.7273   -3.4547 C   0  0  0  0  0  0  0  0  0  0  0  0
   15.9592   71.1202   -3.0465 C   0  0  0  0  0  0  0  0  0  0  0  0
   16.0542   73.0091   -3.7758 H   0  0  0  0  0  0  0  0  0  0  0  0
   22.2153   72.0053   -4.2552 O   0  0  0  0  0  0  0  0  0  0  0  0
   23.5017   72.1429   -3.2857 P   0  0  2  0  0  0  0  0  0  0  0  0
   24.3456   73.3486   -3.9599 O   0  0  0  0  0  0  0  0  0  0  0  0
   24.2771   70.8699   -3.1070 O   0  0  0  0  0  0  0  0  0  0  0  0
   22.9184   72.7692   -1.9182 O   0  0  0  0  0  0  0  0  0  0  0  0
   20.8651   73.9076   -1.6069 O   0  0  0  0  0  0  0  0  0  0  0  0
   23.2245   75.6125    1.3248 O   0  0  0  0  0  0  0  0  0  0  0  0
   24.3081   75.1083   -1.3410 O   0  0  0  0  0  0  0  0  0  0  0  0
   21.2041   73.6475    2.0372 O   0  0  0  0  0  0  0  0  0  0  0  0
   22.7709   74.5728    0.4580 C   0  0  2  0  0  0  0  0  0  0  0  0
   22.9306   75.0136   -0.9972 C   0  0  2  0  0  0  0  0  0  0  0  0
   21.2981   74.3028    0.7738 C   0  0  1  0  0  0  0  0  0  0  0  0
   22.2472   74.0275   -1.9457 C   0  0  1  0  0  0  0  0  0  0  0  0
   20.6551   73.4131   -0.2861 C   0  0  1  0  0  0  0  0  0  0  0  0
   24.1585   75.8014    1.1422 H   0  0  0  0  0  0  0  0  0  0  0  0
   24.7480   75.7322   -0.7429 H   0  0  0  0  0  0  0  0  0  0  0  0
   21.6099   74.2033    2.7208 H   0  0  0  0  0  0  0  0  0  0  0  0
   18.6008   72.5897   -1.0630 O   0  0  0  0  0  0  0  0  0  0  0  0
   18.5382   74.0891    0.6536 O   0  0  0  0  0  0  0  0  0  0  0  0
   19.1667   73.4244   -0.1564 C   0  0  0  0  0  0  0  0  0  0  0  0
  1  4  1  0
  1 24  1  0
  1  2  1  1
  1  3  2  0
 25 28  1  0
 25 24  1  0
 25 26  1  6
 25 27  2  0
  6 11  1  0
  6 12  1  0
 29 36  1  0
 29 37  1  0
  9  7  1  6
  7 13  1  0
 10  8  1  6
  8 14  1  0
  4  5  1  0
 36 28  1  1
 33 30  1  1
 30 38  1  0
 34 31  1  6
 31 39  1  0
 35 32  1  1
 32 40  1  0
 41 43  1  0
 15 19  2  0
 42 43  2  0
 16 22  2  0
 12 17  1  1
 17 19  1  0
 17 20  1  0
 18 19  1  0
 18 22  1  0
 18 23  1  0
  9 10  1  0
  9 11  1  0
 10 12  1  0
 11  5  1  1
 33 34  1  0
 33 35  1  0
 34 36  1  0
 35 37  1  0
 37 43  1  1
 20 21  2  0
 21 22  1  0
M  CHG  3   2  -1  26  -1  41  -1
M  END
>  <COMPND>  (77) 
    udp_gluA.pdb 

>  <AUTHOR>  (77) 
    GENERATED BY OPEN BABEL 3.1.1

>  <MASTER>  (77) 
        0    0    0    0    0    0    0    0   56    0   56    0

>  <minimizedAffinity>  (77) 
-6.84744

>  <CNNscore>  (77) 
0.4342731833

>  <CNNaffinity>  (77) 
4.1776328087

>  <CNN_VS>  (77) 
1.8142338991

>  <CNNaffinity_variance>  (77) 
0.1708394438

$$$$
78
     RDKit          3D

 43 45  0  0  0  0  0  0  0  0999 V2000
   22.4158   73.5143   -4.6679 P   0  0  2  0  0  0  0  0  0  0  0  0
   23.4571   72.5810   -5.4825 O   0  0  0  0  0  0  0  0  0  0  0  0
   22.8676   74.9290   -4.4526 O   0  0  0  0  0  0  0  0  0  0  0  0
   22.1004   72.6656   -3.3269 O   0  0  0  0  0  0  0  0  0  0  0  0
   23.1842   72.0909   -2.6199 C   0  0  0  0  0  0  0  0  0  0  0  0
   21.8546   73.2077   -0.9578 O   0  0  0  0  0  0  0  0  0  0  0  0
   23.5744   71.8299    1.0757 O   0  0  0  0  0  0  0  0  0  0  0  0
   21.3138   70.3049    1.0757 O   0  0  0  0  0  0  0  0  0  0  0  0
   23.1088   71.3521   -0.1866 C   0  0  1  0  0  0  0  0  0  0  0  0
   21.6367   71.0076   -0.1060 C   0  0  2  0  0  0  0  0  0  0  0  0
   23.1092   72.5222   -1.1609 C   0  0  1  0  0  0  0  0  0  0  0  0
   20.9878   72.3799   -0.1661 C   0  0  2  0  0  0  0  0  0  0  0  0
   23.5829   71.0998    1.7149 H   0  0  0  0  0  0  0  0  0  0  0  0
   21.7504   69.4381    1.0660 H   0  0  0  0  0  0  0  0  0  0  0  0
   20.2117   70.5382   -2.1617 O   0  0  0  0  0  0  0  0  0  0  0  0
   15.9789   72.3415   -2.4370 O   0  0  0  0  0  0  0  0  0  0  0  0
   19.6890   72.3457   -0.7766 N   0  0  0  0  0  0  0  0  0  0  0  0
   18.1046   71.4388   -2.2976 N   0  0  0  0  0  0  0  0  0  0  0  0
   19.4012   71.3801   -1.7700 C   0  0  0  0  0  0  0  0  0  0  0  0
   18.7165   73.2598   -0.3898 C   0  0  0  0  0  0  0  0  0  0  0  0
   17.4849   73.3033   -0.9017 C   0  0  0  0  0  0  0  0  0  0  0  0
   17.1034   72.3294   -1.9455 C   0  0  0  0  0  0  0  0  0  0  0  0
   17.8814   70.7777   -2.9923 H   0  0  0  0  0  0  0  0  0  0  0  0
   21.0511   73.3658   -5.5213 O   0  0  0  0  0  0  0  0  0  0  0  0
   19.5394   73.8382   -5.1965 P   0  0  2  0  0  0  0  0  0  0  0  0
   19.3000   75.0538   -6.2382 O   0  0  0  0  0  0  0  0  0  0  0  0
   19.3028   74.2001   -3.7588 O   0  0  0  0  0  0  0  0  0  0  0  0
   18.6092   72.6408   -5.7473 O   0  0  0  0  0  0  0  0  0  0  0  0
   18.4214   70.3197   -5.3154 O   0  0  0  0  0  0  0  0  0  0  0  0
   18.0035   70.4468   -9.4236 O   0  0  0  0  0  0  0  0  0  0  0  0
   20.0105   72.0965   -8.0875 O   0  0  0  0  0  0  0  0  0  0  0  0
   15.6760   70.0308   -7.7324 O   0  0  0  0  0  0  0  0  0  0  0  0
   17.8829   70.9305   -8.0859 C   0  0  2  0  0  0  0  0  0  0  0  0
   19.2720   71.0549   -7.4595 C   0  0  2  0  0  0  0  0  0  0  0  0
   17.0309   69.9333   -7.2975 C   0  0  1  0  0  0  0  0  0  0  0  0
   19.1726   71.3480   -5.9618 C   0  0  1  0  0  0  0  0  0  0  0  0
   17.0840   70.2175   -5.7992 C   0  0  1  0  0  0  0  0  0  0  0  0
   18.5412   71.0646   -9.9437 H   0  0  0  0  0  0  0  0  0  0  0  0
   20.0772   71.9171   -9.0381 H   0  0  0  0  0  0  0  0  0  0  0  0
   15.6283   69.8522   -8.6845 H   0  0  0  0  0  0  0  0  0  0  0  0
   16.5978   69.3151   -3.6895 O   0  0  0  0  0  0  0  0  0  0  0  0
   16.0814   68.0421   -5.5094 O   0  0  0  0  0  0  0  0  0  0  0  0
   16.5328   69.0673   -5.0212 C   0  0  0  0  0  0  0  0  0  0  0  0
  1  4  1  0
  1 24  1  0
  1  2  1  6
  1  3  2  0
 25 28  1  0
 25 24  1  0
 25 26  1  6
 25 27  2  0
  6 11  1  0
  6 12  1  0
 29 36  1  0
 29 37  1  0
  9  7  1  1
  7 13  1  0
 10  8  1  1
  8 14  1  0
  4  5  1  0
 36 28  1  6
 33 30  1  6
 30 38  1  0
 34 31  1  6
 31 39  1  0
 35 32  1  6
 32 40  1  0
 41 43  1  0
 15 19  2  0
 42 43  2  0
 16 22  2  0
 12 17  1  6
 17 19  1  0
 17 20  1  0
 18 19  1  0
 18 22  1  0
 18 23  1  0
  9 10  1  0
  9 11  1  0
 10 12  1  0
 11  5  1  6
 33 34  1  0
 33 35  1  0
 34 36  1  0
 35 37  1  0
 37 43  1  1
 20 21  2  0
 21 22  1  0
M  CHG  3   2  -1  26  -1  41  -1
M  END
>  <COMPND>  (78) 
    udp_gluA.pdb 

>  <AUTHOR>  (78) 
    GENERATED BY OPEN BABEL 3.1.1

>  <MASTER>  (78) 
        0    0    0    0    0    0    0    0   56    0   56    0

>  <minimizedAffinity>  (78) 
-7.07772

>  <CNNscore>  (78) 
0.4262534678

>  <CNNaffinity>  (78) 
3.9896354675

>  <CNN_VS>  (78) 
1.7005959749

>  <CNNaffinity_variance>  (78) 
0.7233785391

$$$$
79
     RDKit          3D

 43 45  0  0  0  0  0  0  0  0999 V2000
   21.8258   71.7342   -2.0363 P   0  0  2  0  0  0  0  0  0  0  0  0
   21.6081   73.2612   -1.5466 O   0  0  0  0  0  0  0  0  0  0  0  0
   20.6044   70.8655   -1.9643 O   0  0  0  0  0  0  0  0  0  0  0  0
   23.0996   71.2283   -1.1763 O   0  0  0  0  0  0  0  0  0  0  0  0
   23.4634   71.9539   -0.0163 C   0  0  0  0  0  0  0  0  0  0  0  0
   23.6729   70.5097    1.8937 O   0  0  0  0  0  0  0  0  0  0  0  0
   21.2073   71.8529    2.9465 O   0  0  0  0  0  0  0  0  0  0  0  0
   23.1995   73.0856    4.3421 O   0  0  0  0  0  0  0  0  0  0  0  0
   22.2864   72.4068    2.1933 C   0  0  1  0  0  0  0  0  0  0  0  0
   23.5120   72.5608    3.0688 C   0  0  2  0  0  0  0  0  0  0  0  0
   22.7433   71.3593    1.1871 C   0  0  1  0  0  0  0  0  0  0  0  0
   24.0330   71.1353    3.1356 C   0  0  2  0  0  0  0  0  0  0  0  0
   20.8984   72.5041    3.5962 H   0  0  0  0  0  0  0  0  0  0  0  0
   22.8725   73.9944    4.2459 H   0  0  0  0  0  0  0  0  0  0  0  0
   25.4511   68.8708    4.0508 O   0  0  0  0  0  0  0  0  0  0  0  0
   29.5039   71.0359    3.6892 O   0  0  0  0  0  0  0  0  0  0  0  0
   25.4592   71.0798    3.2901 N   0  0  0  0  0  0  0  0  0  0  0  0
   27.4682   69.9516    3.8708 N   0  0  0  0  0  0  0  0  0  0  0  0
   26.0729   69.8936    3.7574 C   0  0  0  0  0  0  0  0  0  0  0  0
   26.2342   72.1904    2.9788 C   0  0  0  0  0  0  0  0  0  0  0  0
   27.5633   72.2305    3.0919 C   0  0  0  0  0  0  0  0  0  0  0  0
   28.2821   71.0329    3.5741 C   0  0  0  0  0  0  0  0  0  0  0  0
   27.9178   69.1384    4.1961 H   0  0  0  0  0  0  0  0  0  0  0  0
   22.4382   71.9133   -3.5215 O   0  0  0  0  0  0  0  0  0  0  0  0
   21.9610   72.8329   -4.7626 P   0  0  2  0  0  0  0  0  0  0  0  0
   23.0439   72.4891   -5.9155 O   0  0  0  0  0  0  0  0  0  0  0  0
   21.8463   74.2942   -4.4378 O   0  0  0  0  0  0  0  0  0  0  0  0
   20.5913   72.1513   -5.2742 O   0  0  0  0  0  0  0  0  0  0  0  0
   19.6939   69.9820   -4.9610 O   0  0  0  0  0  0  0  0  0  0  0  0
   18.4448   70.8623   -8.7993 O   0  0  0  0  0  0  0  0  0  0  0  0
   21.1498   71.5417   -7.9298 O   0  0  0  0  0  0  0  0  0  0  0  0
   16.5602   70.9776   -6.5889 O   0  0  0  0  0  0  0  0  0  0  0  0
   18.8046   71.1492   -7.4479 C   0  0  2  0  0  0  0  0  0  0  0  0
   20.2497   70.7159   -7.2001 C   0  0  2  0  0  0  0  0  0  0  0  0
   17.8529   70.3776   -6.5311 C   0  0  1  0  0  0  0  0  0  0  0  0
   20.5968   70.7939   -5.7127 C   0  0  1  0  0  0  0  0  0  0  0  0
   18.3355   70.3974   -5.0836 C   0  0  1  0  0  0  0  0  0  0  0  0
   19.0364   71.3419   -9.4004 H   0  0  0  0  0  0  0  0  0  0  0  0
   20.9352   71.4972   -8.8745 H   0  0  0  0  0  0  0  0  0  0  0  0
   16.2415   70.9715   -7.5051 H   0  0  0  0  0  0  0  0  0  0  0  0
   18.4557   68.7076   -3.4613 O   0  0  0  0  0  0  0  0  0  0  0  0
   16.3945   69.1927   -4.3070 O   0  0  0  0  0  0  0  0  0  0  0  0
   17.6003   69.3863   -4.2654 C   0  0  0  0  0  0  0  0  0  0  0  0
  1  4  1  0
  1 24  1  0
  1  2  1  1
  1  3  2  0
 25 28  1  0
 25 24  1  0
 25 26  1  6
 25 27  2  0
  6 11  1  0
  6 12  1  0
 29 36  1  0
 29 37  1  0
  9  7  1  1
  7 13  1  0
 10  8  1  1
  8 14  1  0
  4  5  1  0
 36 28  1  1
 33 30  1  6
 30 38  1  0
 34 31  1  6
 31 39  1  0
 35 32  1  1
 32 40  1  0
 41 43  1  0
 15 19  2  0
 42 43  2  0
 16 22  2  0
 12 17  1  6
 17 19  1  0
 17 20  1  0
 18 19  1  0
 18 22  1  0
 18 23  1  0
  9 10  1  0
  9 11  1  0
 10 12  1  0
 11  5  1  6
 33 34  1  0
 33 35  1  0
 34 36  1  0
 35 37  1  0
 37 43  1  1
 20 21  2  0
 21 22  1  0
M  CHG  3   2  -1  26  -1  41  -1
M  END
>  <COMPND>  (79) 
    udp_gluA.pdb 

>  <AUTHOR>  (79) 
    GENERATED BY OPEN BABEL 3.1.1

>  <MASTER>  (79) 
        0    0    0    0    0    0    0    0   56    0   56    0

>  <minimizedAffinity>  (79) 
-7.58223

>  <CNNscore>  (79) 
0.4227643013

>  <CNNaffinity>  (79) 
4.0968389511

>  <CNN_VS>  (79) 
1.7319972515

>  <CNNaffinity_variance>  (79) 
0.1819676012

$$$$
80
     RDKit          3D

 43 45  0  0  0  0  0  0  0  0999 V2000
   23.5512   72.5045   -3.4815 P   0  0  2  0  0  0  0  0  0  0  0  0
   24.1451   71.0324   -3.1669 O   0  0  0  0  0  0  0  0  0  0  0  0
   24.5526   73.4940   -4.0012 O   0  0  0  0  0  0  0  0  0  0  0  0
   22.7982   72.9207   -2.1112 O   0  0  0  0  0  0  0  0  0  0  0  0
   23.4540   72.6805   -0.8796 C   0  0  0  0  0  0  0  0  0  0  0  0
   23.8264   70.9161    0.7097 O   0  0  0  0  0  0  0  0  0  0  0  0
   20.8621   70.4714    0.6304 O   0  0  0  0  0  0  0  0  0  0  0  0
   21.1913   71.8831    2.9402 O   0  0  0  0  0  0  0  0  0  0  0  0
   21.5949   71.6942    0.5498 C   0  0  1  0  0  0  0  0  0  0  0  0
   22.1409   72.0687    1.9114 C   0  0  2  0  0  0  0  0  0  0  0  0
   22.8679   71.4275   -0.2416 C   0  0  1  0  0  0  0  0  0  0  0  0
   23.3329   71.1357    2.0407 C   0  0  2  0  0  0  0  0  0  0  0  0
   20.0441   70.6168    1.1319 H   0  0  0  0  0  0  0  0  0  0  0  0
   20.4526   72.4998    2.8134 H   0  0  0  0  0  0  0  0  0  0  0  0
   25.3229   69.6193    3.3510 O   0  0  0  0  0  0  0  0  0  0  0  0
   27.3155   73.3955    5.0869 O   0  0  0  0  0  0  0  0  0  0  0  0
   24.3838   71.6971    2.8416 N   0  0  0  0  0  0  0  0  0  0  0  0
   26.3128   71.5014    4.2152 N   0  0  0  0  0  0  0  0  0  0  0  0
   25.3331   70.8471    3.4568 C   0  0  0  0  0  0  0  0  0  0  0  0
   24.4676   73.0739    3.0098 C   0  0  0  0  0  0  0  0  0  0  0  0
   25.4073   73.6830    3.7356 C   0  0  0  0  0  0  0  0  0  0  0  0
   26.4369   72.8672    4.4123 C   0  0  0  0  0  0  0  0  0  0  0  0
   26.9836   70.9304    4.6548 H   0  0  0  0  0  0  0  0  0  0  0  0
   22.3262   72.1938   -4.4893 O   0  0  0  0  0  0  0  0  0  0  0  0
   21.6814   73.0768   -5.6802 P   0  0  2  0  0  0  0  0  0  0  0  0
   22.6641   72.7825   -6.9325 O   0  0  0  0  0  0  0  0  0  0  0  0
   21.5199   74.5323   -5.3496 O   0  0  0  0  0  0  0  0  0  0  0  0
   20.3074   72.3187   -6.0540 O   0  0  0  0  0  0  0  0  0  0  0  0
   19.6533   70.1290   -5.4323 O   0  0  0  0  0  0  0  0  0  0  0  0
   17.6375   70.6263   -9.0040 O   0  0  0  0  0  0  0  0  0  0  0  0
   20.3983   71.5389   -8.7223 O   0  0  0  0  0  0  0  0  0  0  0  0
   16.2017   70.7969   -6.4820 O   0  0  0  0  0  0  0  0  0  0  0  0
   18.2234   71.0401   -7.7697 C   0  0  2  0  0  0  0  0  0  0  0  0
   19.7181   70.7184   -7.7795 C   0  0  2  0  0  0  0  0  0  0  0  0
   17.5238   70.2849   -6.6374 C   0  0  1  0  0  0  0  0  0  0  0  0
   20.3332   70.9341   -6.3961 C   0  0  1  0  0  0  0  0  0  0  0  0
   18.2686   70.4481   -5.3156 C   0  0  1  0  0  0  0  0  0  0  0  0
   18.0664   71.0932   -9.7384 H   0  0  0  0  0  0  0  0  0  0  0  0
   20.0129   71.4072   -9.6023 H   0  0  0  0  0  0  0  0  0  0  0  0
   15.7169   70.6992   -7.3165 H   0  0  0  0  0  0  0  0  0  0  0  0
   18.7327   69.2220   -3.3706 O   0  0  0  0  0  0  0  0  0  0  0  0
   16.6766   68.9368   -4.3141 O   0  0  0  0  0  0  0  0  0  0  0  0
   17.7806   69.4604   -4.3063 C   0  0  0  0  0  0  0  0  0  0  0  0
  1  4  1  0
  1 24  1  0
  1  2  1  1
  1  3  2  0
 25 28  1  0
 25 24  1  0
 25 26  1  6
 25 27  2  0
  6 11  1  0
  6 12  1  0
 29 36  1  0
 29 37  1  0
  9  7  1  1
  7 13  1  0
 10  8  1  1
  8 14  1  0
  4  5  1  0
 36 28  1  1
 33 30  1  6
 30 38  1  0
 34 31  1  6
 31 39  1  0
 35 32  1  1
 32 40  1  0
 41 43  1  0
 15 19  2  0
 42 43  2  0
 16 22  2  0
 12 17  1  1
 17 19  1  0
 17 20  1  0
 18 19  1  0
 18 22  1  0
 18 23  1  0
  9 10  1  0
  9 11  1  0
 10 12  1  0
 11  5  1  1
 33 34  1  0
 33 35  1  0
 34 36  1  0
 35 37  1  0
 37 43  1  1
 20 21  2  0
 21 22  1  0
M  CHG  3   2  -1  26  -1  41  -1
M  END
>  <COMPND>  (80) 
    udp_gluA.pdb 

>  <AUTHOR>  (80) 
    GENERATED BY OPEN BABEL 3.1.1

>  <MASTER>  (80) 
        0    0    0    0    0    0    0    0   56    0   56    0

>  <minimizedAffinity>  (80) 
-8.54977

>  <CNNscore>  (80) 
0.4144110680

>  <CNNaffinity>  (80) 
4.1057825089

>  <CNN_VS>  (80) 
1.7014816999

>  <CNNaffinity_variance>  (80) 
0.2348442525

$$$$
81
     RDKit          3D

 43 45  0  0  0  0  0  0  0  0999 V2000
   23.3368   72.1945   -3.3243 P   0  0  2  0  0  0  0  0  0  0  0  0
   24.0326   73.3911   -4.1627 O   0  0  0  0  0  0  0  0  0  0  0  0
   24.1592   70.9454   -3.2017 O   0  0  0  0  0  0  0  0  0  0  0  0
   21.8904   72.0173   -4.0276 O   0  0  0  0  0  0  0  0  0  0  0  0
   21.1481   70.8417   -3.7603 C   0  0  0  0  0  0  0  0  0  0  0  0
   19.1264   71.7971   -4.6422 O   0  0  0  0  0  0  0  0  0  0  0  0
   17.7276   70.5128   -2.3216 O   0  0  0  0  0  0  0  0  0  0  0  0
   17.1706   68.8044   -4.3727 O   0  0  0  0  0  0  0  0  0  0  0  0
   18.8312   70.0326   -3.0897 C   0  0  1  0  0  0  0  0  0  0  0  0
   18.3588   69.5639   -4.4496 C   0  0  2  0  0  0  0  0  0  0  0  0
   19.7068   71.2249   -3.4501 C   0  0  1  0  0  0  0  0  0  0  0  0
   18.1661   70.8782   -5.1868 C   0  0  2  0  0  0  0  0  0  0  0  0
   17.1536   69.7687   -2.0794 H   0  0  0  0  0  0  0  0  0  0  0  0
   17.3456   67.9779   -3.8950 H   0  0  0  0  0  0  0  0  0  0  0  0
   16.2407   69.9408   -7.0282 O   0  0  0  0  0  0  0  0  0  0  0  0
   19.1327   70.4361  -10.5829 O   0  0  0  0  0  0  0  0  0  0  0  0
   18.3893   70.7521   -6.5993 N   0  0  0  0  0  0  0  0  0  0  0  0
   17.6833   70.1874   -8.7967 N   0  0  0  0  0  0  0  0  0  0  0  0
   17.3557   70.2705   -7.4370 C   0  0  0  0  0  0  0  0  0  0  0  0
   19.6192   71.1048   -7.1413 C   0  0  0  0  0  0  0  0  0  0  0  0
   19.9166   71.0203   -8.4394 C   0  0  0  0  0  0  0  0  0  0  0  0
   18.8923   70.5258   -9.3827 C   0  0  0  0  0  0  0  0  0  0  0  0
   16.9803   69.8529   -9.3994 H   0  0  0  0  0  0  0  0  0  0  0  0
   22.9723   72.9016   -1.9171 O   0  0  0  0  0  0  0  0  0  0  0  0
   22.2114   74.2907   -1.5929 P   0  0  2  0  0  0  0  0  0  0  0  0
   20.6547   73.8524   -1.5244 O   0  0  0  0  0  0  0  0  0  0  0  0
   22.5009   75.3938   -2.5692 O   0  0  0  0  0  0  0  0  0  0  0  0
   22.6072   74.6273   -0.0657 O   0  0  0  0  0  0  0  0  0  0  0  0
   22.0619   72.6715    1.1536 O   0  0  0  0  0  0  0  0  0  0  0  0
   23.8034   75.0223    4.0706 O   0  0  0  0  0  0  0  0  0  0  0  0
   21.9492   76.1905    2.1388 O   0  0  0  0  0  0  0  0  0  0  0  0
   25.2782   72.7997    2.9146 O   0  0  0  0  0  0  0  0  0  0  0  0
   23.6012   74.5218    2.7490 C   0  0  2  0  0  0  0  0  0  0  0  0
   22.1613   74.7943    2.3132 C   0  0  2  0  0  0  0  0  0  0  0  0
   23.8762   73.0164    2.7662 C   0  0  1  0  0  0  0  0  0  0  0  0
   21.8407   74.0743    1.0027 C   0  0  1  0  0  0  0  0  0  0  0  0
   23.4140   72.3509    1.4732 C   0  0  1  0  0  0  0  0  0  0  0  0
   23.6343   75.9775    4.0841 H   0  0  0  0  0  0  0  0  0  0  0  0
   22.1510   76.6537    2.9665 H   0  0  0  0  0  0  0  0  0  0  0  0
   25.5852   73.2186    3.7339 H   0  0  0  0  0  0  0  0  0  0  0  0
   22.1101   70.4015    1.5122 O   0  0  0  0  0  0  0  0  0  0  0  0
   24.3561   70.1569    1.8197 O   0  0  0  0  0  0  0  0  0  0  0  0
   23.3796   70.8649    1.6243 C   0  0  0  0  0  0  0  0  0  0  0  0
  1  4  1  0
  1 24  1  0
  1  2  1  6
  1  3  2  0
 25 28  1  0
 25 24  1  0
 25 26  1  1
 25 27  2  0
  6 11  1  0
  6 12  1  0
 29 36  1  0
 29 37  1  0
  9  7  1  1
  7 13  1  0
 10  8  1  1
  8 14  1  0
  4  5  1  0
 36 28  1  6
 33 30  1  1
 30 38  1  0
 34 31  1  6
 31 39  1  0
 35 32  1  6
 32 40  1  0
 41 43  1  0
 15 19  2  0
 42 43  2  0
 16 22  2  0
 12 17  1  6
 17 19  1  0
 17 20  1  0
 18 19  1  0
 18 22  1  0
 18 23  1  0
  9 10  1  0
  9 11  1  0
 10 12  1  0
 11  5  1  6
 33 34  1  0
 33 35  1  0
 34 36  1  0
 35 37  1  0
 37 43  1  1
 20 21  2  0
 21 22  1  0
M  CHG  3   2  -1  26  -1  41  -1
M  END
>  <COMPND>  (81) 
    udp_gluA.pdb 

>  <AUTHOR>  (81) 
    GENERATED BY OPEN BABEL 3.1.1

>  <MASTER>  (81) 
        0    0    0    0    0    0    0    0   56    0   56    0

>  <minimizedAffinity>  (81) 
-7.44028

>  <CNNscore>  (81) 
0.8985933661

>  <CNNaffinity>  (81) 
4.7638292313

>  <CNN_VS>  (81) 
4.2807455063

>  <CNNaffinity_variance>  (81) 
0.0274900291

$$$$
82
     RDKit          3D

 43 45  0  0  0  0  0  0  0  0999 V2000
   23.1393   72.0954   -3.5021 P   0  0  2  0  0  0  0  0  0  0  0  0
   23.7256   73.2556   -4.4660 O   0  0  0  0  0  0  0  0  0  0  0  0
   24.1218   71.0235   -3.1311 O   0  0  0  0  0  0  0  0  0  0  0  0
   21.8057   71.5917   -4.2674 O   0  0  0  0  0  0  0  0  0  0  0  0
   21.0625   70.5277   -3.7015 C   0  0  0  0  0  0  0  0  0  0  0  0
   19.1356   71.6575   -4.5895 O   0  0  0  0  0  0  0  0  0  0  0  0
   17.6021   70.4270   -2.3254 O   0  0  0  0  0  0  0  0  0  0  0  0
   16.9523   68.8182   -4.4291 O   0  0  0  0  0  0  0  0  0  0  0  0
   18.6791   69.8827   -3.0886 C   0  0  1  0  0  0  0  0  0  0  0  0
   18.1962   69.4858   -4.4675 C   0  0  2  0  0  0  0  0  0  0  0  0
   19.6496   71.0128   -3.4039 C   0  0  1  0  0  0  0  0  0  0  0  0
   18.1175   70.8290   -5.1729 C   0  0  2  0  0  0  0  0  0  0  0  0
   16.9688   69.7235   -2.1119 H   0  0  0  0  0  0  0  0  0  0  0  0
   17.0551   67.9690   -3.9706 H   0  0  0  0  0  0  0  0  0  0  0  0
   16.1615   70.0784   -7.0668 O   0  0  0  0  0  0  0  0  0  0  0  0
   19.1419   70.4493  -10.5630 O   0  0  0  0  0  0  0  0  0  0  0  0
   18.3552   70.7214   -6.5845 N   0  0  0  0  0  0  0  0  0  0  0  0
   17.6480   70.2628   -8.8062 N   0  0  0  0  0  0  0  0  0  0  0  0
   17.3041   70.3363   -7.4500 C   0  0  0  0  0  0  0  0  0  0  0  0
   19.6164   70.9973   -7.0985 C   0  0  0  0  0  0  0  0  0  0  0  0
   19.9290   70.9230   -8.3937 C   0  0  0  0  0  0  0  0  0  0  0  0
   18.8881   70.5269   -9.3648 C   0  0  0  0  0  0  0  0  0  0  0  0
   16.9332   69.9947   -9.4279 H   0  0  0  0  0  0  0  0  0  0  0  0
   22.5471   72.9287   -2.2501 O   0  0  0  0  0  0  0  0  0  0  0  0
   22.4605   72.5633   -0.6776 P   0  0  2  0  0  0  0  0  0  0  0  0
   23.6684   73.4250   -0.0306 O   0  0  0  0  0  0  0  0  0  0  0  0
   22.5231   71.0926   -0.3828 O   0  0  0  0  0  0  0  0  0  0  0  0
   21.1176   73.2931   -0.1612 O   0  0  0  0  0  0  0  0  0  0  0  0
   19.1740   73.9555   -1.3413 O   0  0  0  0  0  0  0  0  0  0  0  0
   19.4455   76.8952    1.5488 O   0  0  0  0  0  0  0  0  0  0  0  0
   21.8384   75.9604    0.1579 O   0  0  0  0  0  0  0  0  0  0  0  0
   17.4712   74.7765    1.8033 O   0  0  0  0  0  0  0  0  0  0  0  0
   19.5967   75.5836    1.0058 C   0  0  2  0  0  0  0  0  0  0  0  0
   20.5053   75.6398   -0.2225 C   0  0  2  0  0  0  0  0  0  0  0  0
   18.2086   75.0693    0.6179 C   0  0  1  0  0  0  0  0  0  0  0  0
   20.5069   74.3020   -0.9636 C   0  0  1  0  0  0  0  0  0  0  0  0
   18.3000   73.8009   -0.2254 C   0  0  1  0  0  0  0  0  0  0  0  0
   20.3151   77.2425    1.8025 H   0  0  0  0  0  0  0  0  0  0  0  0
   21.8448   76.8080    0.6289 H   0  0  0  0  0  0  0  0  0  0  0  0
   17.4059   75.5757    2.3491 H   0  0  0  0  0  0  0  0  0  0  0  0
   17.1415   73.2864   -2.1989 O   0  0  0  0  0  0  0  0  0  0  0  0
   15.9155   73.4372   -0.2824 O   0  0  0  0  0  0  0  0  0  0  0  0
   16.9862   73.4953   -0.8681 C   0  0  0  0  0  0  0  0  0  0  0  0
  1  4  1  0
  1 24  1  0
  1  2  1  6
  1  3  2  0
 25 28  1  0
 25 24  1  0
 25 26  1  1
 25 27  2  0
  6 11  1  0
  6 12  1  0
 29 36  1  0
 29 37  1  0
  9  7  1  1
  7 13  1  0
 10  8  1  1
  8 14  1  0
  4  5  1  0
 36 28  1  1
 33 30  1  6
 30 38  1  0
 34 31  1  1
 31 39  1  0
 35 32  1  1
 32 40  1  0
 41 43  1  0
 15 19  2  0
 42 43  2  0
 16 22  2  0
 12 17  1  6
 17 19  1  0
 17 20  1  0
 18 19  1  0
 18 22  1  0
 18 23  1  0
  9 10  1  0
  9 11  1  0
 10 12  1  0
 11  5  1  6
 33 34  1  0
 33 35  1  0
 34 36  1  0
 35 37  1  0
 37 43  1  6
 20 21  2  0
 21 22  1  0
M  CHG  3   2  -1  26  -1  41  -1
M  END
>  <COMPND>  (82) 
    udp_gluA.pdb 

>  <AUTHOR>  (82) 
    GENERATED BY OPEN BABEL 3.1.1

>  <MASTER>  (82) 
        0    0    0    0    0    0    0    0   56    0   56    0

>  <minimizedAffinity>  (82) 
-6.50728

>  <CNNscore>  (82) 
0.8918934464

>  <CNNaffinity>  (82) 
4.6560487747

>  <CNN_VS>  (82) 
4.1526994705

>  <CNNaffinity_variance>  (82) 
0.0514770672

$$$$
83
     RDKit          3D

 43 45  0  0  0  0  0  0  0  0999 V2000
   22.9540   72.1111   -3.2161 P   0  0  2  0  0  0  0  0  0  0  0  0
   24.1875   72.4686   -4.2007 O   0  0  0  0  0  0  0  0  0  0  0  0
   23.3069   71.2331   -2.0515 O   0  0  0  0  0  0  0  0  0  0  0  0
   21.8167   71.5340   -4.2119 O   0  0  0  0  0  0  0  0  0  0  0  0
   21.0055   70.4637   -3.7637 C   0  0  0  0  0  0  0  0  0  0  0  0
   19.1188   71.6449   -4.6707 O   0  0  0  0  0  0  0  0  0  0  0  0
   17.5317   70.4624   -2.4181 O   0  0  0  0  0  0  0  0  0  0  0  0
   16.8557   68.8680   -4.5245 O   0  0  0  0  0  0  0  0  0  0  0  0
   18.5997   69.8867   -3.1707 C   0  0  1  0  0  0  0  0  0  0  0  0
   18.1181   69.5006   -4.5531 C   0  0  2  0  0  0  0  0  0  0  0  0
   19.6041   70.9886   -3.4794 C   0  0  1  0  0  0  0  0  0  0  0  0
   18.0831   70.8440   -5.2616 C   0  0  2  0  0  0  0  0  0  0  0  0
   16.8772   69.7772   -2.2088 H   0  0  0  0  0  0  0  0  0  0  0  0
   16.9307   68.0173   -4.0635 H   0  0  0  0  0  0  0  0  0  0  0  0
   16.1185   70.1661   -7.1740 O   0  0  0  0  0  0  0  0  0  0  0  0
   19.1440   70.4236  -10.6416 O   0  0  0  0  0  0  0  0  0  0  0  0
   18.3301   70.7269   -6.6709 N   0  0  0  0  0  0  0  0  0  0  0  0
   17.6275   70.2940   -8.8992 N   0  0  0  0  0  0  0  0  0  0  0  0
   17.2736   70.3810   -7.5463 C   0  0  0  0  0  0  0  0  0  0  0  0
   19.6056   70.9552   -7.1728 C   0  0  0  0  0  0  0  0  0  0  0  0
   19.9276   70.8686   -8.4649 C   0  0  0  0  0  0  0  0  0  0  0  0
   18.8819   70.5113   -9.4459 C   0  0  0  0  0  0  0  0  0  0  0  0
   16.9091   70.0525   -9.5276 H   0  0  0  0  0  0  0  0  0  0  0  0
   22.3786   73.5666   -2.8121 O   0  0  0  0  0  0  0  0  0  0  0  0
   21.6137   74.6871   -3.6914 P   0  0  2  0  0  0  0  0  0  0  0  0
   22.1831   76.0792   -3.0928 O   0  0  0  0  0  0  0  0  0  0  0  0
   20.1170   74.5708   -3.6697 O   0  0  0  0  0  0  0  0  0  0  0  0
   22.2727   74.5753   -5.1596 O   0  0  0  0  0  0  0  0  0  0  0  0
   20.7819   75.4307   -6.7890 O   0  0  0  0  0  0  0  0  0  0  0  0
   23.8983   74.0680   -9.1339 O   0  0  0  0  0  0  0  0  0  0  0  0
   22.9490   72.4872   -6.8679 O   0  0  0  0  0  0  0  0  0  0  0  0
   23.5731   76.9160   -8.6505 O   0  0  0  0  0  0  0  0  0  0  0  0
   23.2915   74.6229   -7.9669 C   0  0  2  0  0  0  0  0  0  0  0  0
   22.2814   73.6287   -7.3934 C   0  0  2  0  0  0  0  0  0  0  0  0
   22.5897   75.9214   -8.3708 C   0  0  1  0  0  0  0  0  0  0  0  0
   21.4488   74.2732   -6.2842 C   0  0  1  0  0  0  0  0  0  0  0  0
   21.6811   76.4334   -7.2569 C   0  0  1  0  0  0  0  0  0  0  0  0
   24.3505   73.2416   -8.9015 H   0  0  0  0  0  0  0  0  0  0  0  0
   23.4794   72.0735   -7.5664 H   0  0  0  0  0  0  0  0  0  0  0  0
   24.1580   76.6025   -9.3578 H   0  0  0  0  0  0  0  0  0  0  0  0
   19.4875   77.0386   -7.8254 O   0  0  0  0  0  0  0  0  0  0  0  0
   21.1051   78.6240   -8.0882 O   0  0  0  0  0  0  0  0  0  0  0  0
   20.7629   77.4957   -7.7674 C   0  0  0  0  0  0  0  0  0  0  0  0
  1  4  1  0
  1 24  1  0
  1  2  1  6
  1  3  2  0
 25 28  1  0
 25 24  1  0
 25 26  1  1
 25 27  2  0
  6 11  1  0
  6 12  1  0
 29 36  1  0
 29 37  1  0
  9  7  1  1
  7 13  1  0
 10  8  1  1
  8 14  1  0
  4  5  1  0
 36 28  1  1
 33 30  1  6
 30 38  1  0
 34 31  1  1
 31 39  1  0
 35 32  1  1
 32 40  1  0
 41 43  1  0
 15 19  2  0
 42 43  2  0
 16 22  2  0
 12 17  1  6
 17 19  1  0
 17 20  1  0
 18 19  1  0
 18 22  1  0
 18 23  1  0
  9 10  1  0
  9 11  1  0
 10 12  1  0
 11  5  1  6
 33 34  1  0
 33 35  1  0
 34 36  1  0
 35 37  1  0
 37 43  1  6
 20 21  2  0
 21 22  1  0
M  CHG  3   2  -1  26  -1  41  -1
M  END
>  <COMPND>  (83) 
    udp_gluA.pdb 

>  <AUTHOR>  (83) 
    GENERATED BY OPEN BABEL 3.1.1

>  <MASTER>  (83) 
        0    0    0    0    0    0    0    0   56    0   56    0

>  <minimizedAffinity>  (83) 
-7.21588

>  <CNNscore>  (83) 
0.8916545510

>  <CNNaffinity>  (83) 
4.6596875191

>  <CNN_VS>  (83) 
4.1548314095

>  <CNNaffinity_variance>  (83) 
0.2600557208

$$$$
84
     RDKit          3D

 43 45  0  0  0  0  0  0  0  0999 V2000
   23.3351   72.2053   -3.5269 P   0  0  2  0  0  0  0  0  0  0  0  0
   23.3499   72.5089   -5.1164 O   0  0  0  0  0  0  0  0  0  0  0  0
   24.1815   71.0435   -3.0959 O   0  0  0  0  0  0  0  0  0  0  0  0
   21.7614   72.1003   -3.1660 O   0  0  0  0  0  0  0  0  0  0  0  0
   20.9597   71.1897   -3.8957 C   0  0  0  0  0  0  0  0  0  0  0  0
   18.9096   71.9885   -4.8636 O   0  0  0  0  0  0  0  0  0  0  0  0
   17.5286   70.7250   -2.5209 O   0  0  0  0  0  0  0  0  0  0  0  0
   17.1207   68.9019   -4.5073 O   0  0  0  0  0  0  0  0  0  0  0  0
   18.6765   70.2773   -3.2424 C   0  0  1  0  0  0  0  0  0  0  0  0
   18.2654   69.7249   -4.5908 C   0  0  2  0  0  0  0  0  0  0  0  0
   19.4917   71.5019   -3.6349 C   0  0  1  0  0  0  0  0  0  0  0  0
   18.0167   70.9934   -5.3888 C   0  0  2  0  0  0  0  0  0  0  0  0
   16.9920   69.9600   -2.2594 H   0  0  0  0  0  0  0  0  0  0  0  0
   17.3303   68.1079   -3.9901 H   0  0  0  0  0  0  0  0  0  0  0  0
   16.1321   70.0374   -7.2626 O   0  0  0  0  0  0  0  0  0  0  0  0
   19.1437   70.3711  -10.7358 O   0  0  0  0  0  0  0  0  0  0  0  0
   18.2817   70.8207   -6.7891 N   0  0  0  0  0  0  0  0  0  0  0  0
   17.6342   70.2035   -8.9904 N   0  0  0  0  0  0  0  0  0  0  0  0
   17.2657   70.3336   -7.6449 C   0  0  0  0  0  0  0  0  0  0  0  0
   19.5348   71.1338   -7.3016 C   0  0  0  0  0  0  0  0  0  0  0  0
   19.8711   71.0047   -8.5865 C   0  0  0  0  0  0  0  0  0  0  0  0
   18.8675   70.5013   -9.5471 C   0  0  0  0  0  0  0  0  0  0  0  0
   16.9441   69.8643   -9.6052 H   0  0  0  0  0  0  0  0  0  0  0  0
   23.7618   73.6250   -2.8823 O   0  0  0  0  0  0  0  0  0  0  0  0
   22.8804   74.9257   -2.5019 P   0  0  2  0  0  0  0  0  0  0  0  0
   23.9988   76.0648   -2.2337 O   0  0  0  0  0  0  0  0  0  0  0  0
   21.9288   74.7125   -1.3604 O   0  0  0  0  0  0  0  0  0  0  0  0
   22.1776   75.3632   -3.8866 O   0  0  0  0  0  0  0  0  0  0  0  0
   20.1705   76.5520   -3.4777 O   0  0  0  0  0  0  0  0  0  0  0  0
   20.1392   76.2411   -7.5972 O   0  0  0  0  0  0  0  0  0  0  0  0
   20.9360   73.9664   -5.9465 O   0  0  0  0  0  0  0  0  0  0  0  0
   20.8292   78.7646   -6.3295 O   0  0  0  0  0  0  0  0  0  0  0  0
   20.7317   76.3573   -6.3036 C   0  0  2  0  0  0  0  0  0  0  0  0
   20.3326   75.1547   -5.4481 C   0  0  2  0  0  0  0  0  0  0  0  0
   20.2269   77.6542   -5.6671 C   0  0  1  0  0  0  0  0  0  0  0  0
   20.7551   75.3548   -3.9920 C   0  0  1  0  0  0  0  0  0  0  0  0
   20.5798   77.7210   -4.1840 C   0  0  1  0  0  0  0  0  0  0  0  0
   20.4455   75.4239   -8.0211 H   0  0  0  0  0  0  0  0  0  0  0  0
   20.6725   73.8333   -6.8702 H   0  0  0  0  0  0  0  0  0  0  0  0
   20.6124   78.7338   -7.2745 H   0  0  0  0  0  0  0  0  0  0  0  0
   19.9128   78.6950   -2.1572 O   0  0  0  0  0  0  0  0  0  0  0  0
   19.1833   79.6856   -4.0770 O   0  0  0  0  0  0  0  0  0  0  0  0
   19.8134   78.8089   -3.5048 C   0  0  0  0  0  0  0  0  0  0  0  0
  1  4  1  0
  1 24  1  0
  1  2  1  6
  1  3  2  0
 25 28  1  0
 25 24  1  0
 25 26  1  1
 25 27  2  0
  6 11  1  0
  6 12  1  0
 29 36  1  0
 29 37  1  0
  9  7  1  1
  7 13  1  0
 10  8  1  1
  8 14  1  0
  4  5  1  0
 36 28  1  6
 33 30  1  6
 30 38  1  0
 34 31  1  6
 31 39  1  0
 35 32  1  6
 32 40  1  0
 41 43  1  0
 15 19  2  0
 42 43  2  0
 16 22  2  0
 12 17  1  6
 17 19  1  0
 17 20  1  0
 18 19  1  0
 18 22  1  0
 18 23  1  0
  9 10  1  0
  9 11  1  0
 10 12  1  0
 11  5  1  6
 33 34  1  0
 33 35  1  0
 34 36  1  0
 35 37  1  0
 37 43  1  1
 20 21  2  0
 21 22  1  0
M  CHG  3   2  -1  26  -1  41  -1
M  END
>  <COMPND>  (84) 
    udp_gluA.pdb 

>  <AUTHOR>  (84) 
    GENERATED BY OPEN BABEL 3.1.1

>  <MASTER>  (84) 
        0    0    0    0    0    0    0    0   56    0   56    0

>  <minimizedAffinity>  (84) 
-6.18149

>  <CNNscore>  (84) 
0.8761352301

>  <CNNaffinity>  (84) 
4.6271443367

>  <CNN_VS>  (84) 
4.0540041924

>  <CNNaffinity_variance>  (84) 
0.0948965698

$$$$
85
     RDKit          3D

 43 45  0  0  0  0  0  0  0  0999 V2000
   22.9701   71.8338   -2.4187 P   0  0  2  0  0  0  0  0  0  0  0  0
   22.9573   73.2943   -3.1155 O   0  0  0  0  0  0  0  0  0  0  0  0
   24.2177   71.0325   -2.6498 O   0  0  0  0  0  0  0  0  0  0  0  0
   21.5929   71.1506   -2.9231 O   0  0  0  0  0  0  0  0  0  0  0  0
   20.9456   71.6931   -4.0594 C   0  0  0  0  0  0  0  0  0  0  0  0
   18.7844   72.1680   -4.9982 O   0  0  0  0  0  0  0  0  0  0  0  0
   17.6416   70.8486   -2.5599 O   0  0  0  0  0  0  0  0  0  0  0  0
   17.4301   68.8939   -4.4495 O   0  0  0  0  0  0  0  0  0  0  0  0
   18.8205   70.5213   -3.2958 C   0  0  1  0  0  0  0  0  0  0  0  0
   18.4531   69.8551   -4.6049 C   0  0  2  0  0  0  0  0  0  0  0  0
   19.4561   71.8219   -3.7676 C   0  0  1  0  0  0  0  0  0  0  0  0
   18.0187   71.0400   -5.4507 C   0  0  2  0  0  0  0  0  0  0  0  0
   17.2178   70.0332   -2.2481 H   0  0  0  0  0  0  0  0  0  0  0  0
   17.7560   68.1602   -3.9041 H   0  0  0  0  0  0  0  0  0  0  0  0
   16.1629   69.9116   -7.2560 O   0  0  0  0  0  0  0  0  0  0  0  0
   19.0893   70.3055  -10.7950 O   0  0  0  0  0  0  0  0  0  0  0  0
   18.2696   70.8362   -6.8494 N   0  0  0  0  0  0  0  0  0  0  0  0
   17.6226   70.1079   -9.0167 N   0  0  0  0  0  0  0  0  0  0  0  0
   17.2700   70.2612   -7.6694 C   0  0  0  0  0  0  0  0  0  0  0  0
   19.4928   71.2053   -7.3956 C   0  0  0  0  0  0  0  0  0  0  0  0
   19.8143   71.0531   -8.6818 C   0  0  0  0  0  0  0  0  0  0  0  0
   18.8262   70.4592   -9.6061 C   0  0  0  0  0  0  0  0  0  0  0  0
   16.9435   69.7079   -9.6068 H   0  0  0  0  0  0  0  0  0  0  0  0
   22.6627   72.1689   -0.8676 O   0  0  0  0  0  0  0  0  0  0  0  0
   23.6521   72.5567    0.3508 P   0  0  2  0  0  0  0  0  0  0  0  0
   24.4180   73.8724   -0.1992 O   0  0  0  0  0  0  0  0  0  0  0  0
   24.5643   71.4447    0.7810 O   0  0  0  0  0  0  0  0  0  0  0  0
   22.6761   73.1087    1.5106 O   0  0  0  0  0  0  0  0  0  0  0  0
   22.5564   71.9358    3.5647 O   0  0  0  0  0  0  0  0  0  0  0  0
   19.1815   74.3110    3.7550 O   0  0  0  0  0  0  0  0  0  0  0  0
   19.9092   72.9688    1.2643 O   0  0  0  0  0  0  0  0  0  0  0  0
   21.5351   74.9919    5.3195 O   0  0  0  0  0  0  0  0  0  0  0  0
   20.5189   73.9743    3.3865 C   0  0  2  0  0  0  0  0  0  0  0  0
   20.5101   72.7093    2.5278 C   0  0  2  0  0  0  0  0  0  0  0  0
   21.3186   73.7405    4.6702 C   0  0  1  0  0  0  0  0  0  0  0  0
   21.9308   72.1886    2.3061 C   0  0  1  0  0  0  0  0  0  0  0  0
   22.6734   73.1036    4.3744 C   0  0  1  0  0  0  0  0  0  0  0  0
   18.6543   74.4640    2.9550 H   0  0  0  0  0  0  0  0  0  0  0  0
   19.0075   73.2998    1.3975 H   0  0  0  0  0  0  0  0  0  0  0  0
   20.6805   75.4078    5.5132 H   0  0  0  0  0  0  0  0  0  0  0  0
   23.4279   71.2333    5.5720 O   0  0  0  0  0  0  0  0  0  0  0  0
   23.6515   73.2694    6.5738 O   0  0  0  0  0  0  0  0  0  0  0  0
   23.2991   72.5822    5.6269 C   0  0  0  0  0  0  0  0  0  0  0  0
  1  4  1  0
  1 24  1  0
  1  2  1  6
  1  3  2  0
 25 28  1  0
 25 24  1  0
 25 26  1  6
 25 27  2  0
  6 11  1  0
  6 12  1  0
 29 36  1  0
 29 37  1  0
  9  7  1  1
  7 13  1  0
 10  8  1  1
  8 14  1  0
  4  5  1  0
 36 28  1  1
 33 30  1  1
 30 38  1  0
 34 31  1  6
 31 39  1  0
 35 32  1  6
 32 40  1  0
 41 43  1  0
 15 19  2  0
 42 43  2  0
 16 22  2  0
 12 17  1  6
 17 19  1  0
 17 20  1  0
 18 19  1  0
 18 22  1  0
 18 23  1  0
  9 10  1  0
  9 11  1  0
 10 12  1  0
 11  5  1  6
 33 34  1  0
 33 35  1  0
 34 36  1  0
 35 37  1  0
 37 43  1  1
 20 21  2  0
 21 22  1  0
M  CHG  3   2  -1  26  -1  41  -1
M  END
>  <COMPND>  (85) 
    udp_gluA.pdb 

>  <AUTHOR>  (85) 
    GENERATED BY OPEN BABEL 3.1.1

>  <MASTER>  (85) 
        0    0    0    0    0    0    0    0   56    0   56    0

>  <minimizedAffinity>  (85) 
-7.26363

>  <CNNscore>  (85) 
0.8693226576

>  <CNNaffinity>  (85) 
4.6180963516

>  <CNN_VS>  (85) 
4.0146160126

>  <CNNaffinity_variance>  (85) 
0.0583357736

$$$$
86
     RDKit          3D

 43 45  0  0  0  0  0  0  0  0999 V2000
   22.7033   71.4925   -1.9880 P   0  0  2  0  0  0  0  0  0  0  0  0
   22.3310   73.0667   -2.0323 O   0  0  0  0  0  0  0  0  0  0  0  0
   24.0521   71.1444   -2.5462 O   0  0  0  0  0  0  0  0  0  0  0  0
   21.4410   70.7745   -2.7015 O   0  0  0  0  0  0  0  0  0  0  0  0
   20.8709   71.3877   -3.8431 C   0  0  0  0  0  0  0  0  0  0  0  0
   18.7828   72.0459   -4.8352 O   0  0  0  0  0  0  0  0  0  0  0  0
   17.4643   70.7171   -2.4927 O   0  0  0  0  0  0  0  0  0  0  0  0
   17.1909   68.8547   -4.4658 O   0  0  0  0  0  0  0  0  0  0  0  0
   18.6447   70.3372   -3.2005 C   0  0  1  0  0  0  0  0  0  0  0  0
   18.2816   69.7482   -4.5472 C   0  0  2  0  0  0  0  0  0  0  0  0
   19.3838   71.6079   -3.5974 C   0  0  1  0  0  0  0  0  0  0  0  0
   17.9598   70.9914   -5.3588 C   0  0  2  0  0  0  0  0  0  0  0  0
   16.9751   69.9216   -2.2287 H   0  0  0  0  0  0  0  0  0  0  0  0
   17.4461   68.0801   -3.9396 H   0  0  0  0  0  0  0  0  0  0  0  0
   16.1549   69.9056   -7.2403 O   0  0  0  0  0  0  0  0  0  0  0  0
   19.1717   70.3960  -10.6902 O   0  0  0  0  0  0  0  0  0  0  0  0
   18.2477   70.8239   -6.7552 N   0  0  0  0  0  0  0  0  0  0  0  0
   17.6595   70.1500   -8.9566 N   0  0  0  0  0  0  0  0  0  0  0  0
   17.2715   70.2680   -7.6155 C   0  0  0  0  0  0  0  0  0  0  0  0
   19.4837   71.2095   -7.2596 C   0  0  0  0  0  0  0  0  0  0  0  0
   19.8391   71.0909   -8.5404 C   0  0  0  0  0  0  0  0  0  0  0  0
   18.8772   70.5187   -9.5051 C   0  0  0  0  0  0  0  0  0  0  0  0
   16.9973   69.7637   -9.5743 H   0  0  0  0  0  0  0  0  0  0  0  0
   22.5022   71.1157   -0.4290 O   0  0  0  0  0  0  0  0  0  0  0  0
   23.4404   71.3898    0.8588 P   0  0  2  0  0  0  0  0  0  0  0  0
   24.4857   72.5042    0.3243 O   0  0  0  0  0  0  0  0  0  0  0  0
   24.0853   70.1577    1.4242 O   0  0  0  0  0  0  0  0  0  0  0  0
   22.4922   72.1844    1.8942 O   0  0  0  0  0  0  0  0  0  0  0  0
   21.0853   74.0857    1.7721 O   0  0  0  0  0  0  0  0  0  0  0  0
   22.9139   74.6269    5.4370 O   0  0  0  0  0  0  0  0  0  0  0  0
   24.4586   73.7133    3.1319 O   0  0  0  0  0  0  0  0  0  0  0  0
   20.1608   73.7031    5.3021 O   0  0  0  0  0  0  0  0  0  0  0  0
   22.3676   73.8783    4.3511 C   0  0  2  0  0  0  0  0  0  0  0  0
   23.1272   74.2112    3.0668 C   0  0  2  0  0  0  0  0  0  0  0  0
   20.8918   74.2579    4.2102 C   0  0  1  0  0  0  0  0  0  0  0  0
   22.4293   73.6087    1.8466 C   0  0  1  0  0  0  0  0  0  0  0  0
   20.3016   73.7257    2.9076 C   0  0  1  0  0  0  0  0  0  0  0  0
   23.8514   74.4021    5.5456 H   0  0  0  0  0  0  0  0  0  0  0  0
   24.9073   74.0913    3.9040 H   0  0  0  0  0  0  0  0  0  0  0  0
   20.5266   74.0338    6.1374 H   0  0  0  0  0  0  0  0  0  0  0  0
   18.9124   74.7599    1.3258 O   0  0  0  0  0  0  0  0  0  0  0  0
   18.0849   74.5178    3.4367 O   0  0  0  0  0  0  0  0  0  0  0  0
   18.9827   74.3668    2.6218 C   0  0  0  0  0  0  0  0  0  0  0  0
  1  4  1  0
  1 24  1  0
  1  2  1  1
  1  3  2  0
 25 28  1  0
 25 24  1  0
 25 26  1  6
 25 27  2  0
  6 11  1  0
  6 12  1  0
 29 36  1  0
 29 37  1  0
  9  7  1  1
  7 13  1  0
 10  8  1  1
  8 14  1  0
  4  5  1  0
 36 28  1  1
 33 30  1  1
 30 38  1  0
 34 31  1  1
 31 39  1  0
 35 32  1  1
 32 40  1  0
 41 43  1  0
 15 19  2  0
 42 43  2  0
 16 22  2  0
 12 17  1  6
 17 19  1  0
 17 20  1  0
 18 19  1  0
 18 22  1  0
 18 23  1  0
  9 10  1  0
  9 11  1  0
 10 12  1  0
 11  5  1  6
 33 34  1  0
 33 35  1  0
 34 36  1  0
 35 37  1  0
 37 43  1  6
 20 21  2  0
 21 22  1  0
M  CHG  3   2  -1  26  -1  41  -1
M  END
>  <COMPND>  (86) 
    udp_gluA.pdb 

>  <AUTHOR>  (86) 
    GENERATED BY OPEN BABEL 3.1.1

>  <MASTER>  (86) 
        0    0    0    0    0    0    0    0   56    0   56    0

>  <minimizedAffinity>  (86) 
-6.91662

>  <CNNscore>  (86) 
0.8661887646

>  <CNNaffinity>  (86) 
4.6748824120

>  <CNN_VS>  (86) 
4.0493307114

>  <CNNaffinity_variance>  (86) 
0.0612635911

$$$$
87
     RDKit          3D

 43 45  0  0  0  0  0  0  0  0999 V2000
   21.8238   72.9290   -4.5523 P   0  0  2  0  0  0  0  0  0  0  0  0
   21.3909   74.4883   -4.5606 O   0  0  0  0  0  0  0  0  0  0  0  0
   22.9425   72.5771   -5.4885 O   0  0  0  0  0  0  0  0  0  0  0  0
   20.4325   72.1383   -4.7914 O   0  0  0  0  0  0  0  0  0  0  0  0
   19.8826   71.3977   -3.7173 C   0  0  0  0  0  0  0  0  0  0  0  0
   17.9750   71.9290   -5.0798 O   0  0  0  0  0  0  0  0  0  0  0  0
   16.3310   70.5364   -2.9942 O   0  0  0  0  0  0  0  0  0  0  0  0
   16.5248   68.6524   -4.9561 O   0  0  0  0  0  0  0  0  0  0  0  0
   17.6396   70.2226   -3.4715 C   0  0  1  0  0  0  0  0  0  0  0  0
   17.5601   69.6074   -4.8527 C   0  0  2  0  0  0  0  0  0  0  0  0
   18.3656   71.5322   -3.7474 C   0  0  1  0  0  0  0  0  0  0  0  0
   17.3211   70.8261   -5.7275 C   0  0  2  0  0  0  0  0  0  0  0  0
   15.8478   69.7151   -2.8110 H   0  0  0  0  0  0  0  0  0  0  0  0
   16.7237   67.8963   -4.3810 H   0  0  0  0  0  0  0  0  0  0  0  0
   15.7779   70.3524   -8.0450 O   0  0  0  0  0  0  0  0  0  0  0  0
   19.5189   70.2410  -10.7350 O   0  0  0  0  0  0  0  0  0  0  0  0
   17.8661   70.6694   -7.0463 N   0  0  0  0  0  0  0  0  0  0  0  0
   17.6427   70.2964   -9.3824 N   0  0  0  0  0  0  0  0  0  0  0  0
   17.0037   70.4345   -8.1432 C   0  0  0  0  0  0  0  0  0  0  0  0
   19.2393   70.7502   -7.2434 C   0  0  0  0  0  0  0  0  0  0  0  0
   19.8337   70.6166   -8.4307 C   0  0  0  0  0  0  0  0  0  0  0  0
   19.0043   70.3682   -9.6281 C   0  0  0  0  0  0  0  0  0  0  0  0
   17.0631   70.1302  -10.1607 H   0  0  0  0  0  0  0  0  0  0  0  0
   22.1380   72.6479   -2.9918 O   0  0  0  0  0  0  0  0  0  0  0  0
   23.5333   72.3731   -2.2228 P   0  0  2  0  0  0  0  0  0  0  0  0
   24.3414   73.7625   -2.4150 O   0  0  0  0  0  0  0  0  0  0  0  0
   24.2715   71.1570   -2.7023 O   0  0  0  0  0  0  0  0  0  0  0  0
   23.1397   72.3441   -0.6586 O   0  0  0  0  0  0  0  0  0  0  0  0
   23.9853   70.7525    0.8779 O   0  0  0  0  0  0  0  0  0  0  0  0
   20.5038   71.9582    2.7470 O   0  0  0  0  0  0  0  0  0  0  0  0
   20.5484   71.4799   -0.1346 O   0  0  0  0  0  0  0  0  0  0  0  0
   23.0786   72.9097    3.7040 O   0  0  0  0  0  0  0  0  0  0  0  0
   21.6622   72.1097    1.9266 C   0  0  2  0  0  0  0  0  0  0  0  0
   21.5958   71.1236    0.7601 C   0  0  2  0  0  0  0  0  0  0  0  0
   22.8937   71.8296    2.7909 C   0  0  1  0  0  0  0  0  0  0  0  0
   22.9182   71.0944   -0.0075 C   0  0  1  0  0  0  0  0  0  0  0  0
   24.1521   71.6901    1.9391 C   0  0  1  0  0  0  0  0  0  0  0  0
   19.7085   72.1314    2.2189 H   0  0  0  0  0  0  0  0  0  0  0  0
   19.7063   71.5007    0.3459 H   0  0  0  0  0  0  0  0  0  0  0  0
   22.2846   73.0093    4.2521 H   0  0  0  0  0  0  0  0  0  0  0  0
   25.1790   69.7466    2.7575 O   0  0  0  0  0  0  0  0  0  0  0  0
   26.1486   71.7396    3.2930 O   0  0  0  0  0  0  0  0  0  0  0  0
   25.2693   71.0994    2.7361 C   0  0  0  0  0  0  0  0  0  0  0  0
  1  4  1  0
  1 24  1  0
  1  2  1  1
  1  3  2  0
 25 28  1  0
 25 24  1  0
 25 26  1  1
 25 27  2  0
  6 11  1  0
  6 12  1  0
 29 36  1  0
 29 37  1  0
  9  7  1  6
  7 13  1  0
 10  8  1  1
  8 14  1  0
  4  5  1  0
 36 28  1  1
 33 30  1  1
 30 38  1  0
 34 31  1  6
 31 39  1  0
 35 32  1  1
 32 40  1  0
 41 43  1  0
 15 19  2  0
 42 43  2  0
 16 22  2  0
 12 17  1  6
 17 19  1  0
 17 20  1  0
 18 19  1  0
 18 22  1  0
 18 23  1  0
  9 10  1  0
  9 11  1  0
 10 12  1  0
 11  5  1  6
 33 34  1  0
 33 35  1  0
 34 36  1  0
 35 37  1  0
 37 43  1  1
 20 21  2  0
 21 22  1  0
M  CHG  3   2  -1  26  -1  41  -1
M  END
>  <COMPND>  (87) 
    udp_gluA.pdb 

>  <AUTHOR>  (87) 
    GENERATED BY OPEN BABEL 3.1.1

>  <MASTER>  (87) 
        0    0    0    0    0    0    0    0   56    0   56    0

>  <minimizedAffinity>  (87) 
-8.06278

>  <CNNscore>  (87) 
0.8495176435

>  <CNNaffinity>  (87) 
4.7577819824

>  <CNN_VS>  (87) 
4.0418195724

>  <CNNaffinity_variance>  (87) 
0.0244250000

$$$$
88
     RDKit          3D

 43 45  0  0  0  0  0  0  0  0999 V2000
   23.0358   71.5758   -2.3477 P   0  0  2  0  0  0  0  0  0  0  0  0
   22.8992   73.1812   -2.4995 O   0  0  0  0  0  0  0  0  0  0  0  0
   24.2290   70.9742   -3.0303 O   0  0  0  0  0  0  0  0  0  0  0  0
   21.5955   71.0162   -2.8275 O   0  0  0  0  0  0  0  0  0  0  0  0
   20.9529   71.6503   -3.9182 C   0  0  0  0  0  0  0  0  0  0  0  0
   18.7854   72.1198   -4.8451 O   0  0  0  0  0  0  0  0  0  0  0  0
   17.6603   70.7379   -2.4335 O   0  0  0  0  0  0  0  0  0  0  0  0
   17.4689   68.8201   -4.3627 O   0  0  0  0  0  0  0  0  0  0  0  0
   18.8420   70.4390   -3.1770 C   0  0  1  0  0  0  0  0  0  0  0  0
   18.4808   69.7958   -4.4992 C   0  0  2  0  0  0  0  0  0  0  0  0
   19.4624   71.7562   -3.6225 C   0  0  1  0  0  0  0  0  0  0  0  0
   18.0321   70.9928   -5.3200 C   0  0  2  0  0  0  0  0  0  0  0  0
   17.2462   69.9115   -2.1381 H   0  0  0  0  0  0  0  0  0  0  0  0
   17.8036   68.0791   -3.8328 H   0  0  0  0  0  0  0  0  0  0  0  0
   16.1857   69.8843   -7.1473 O   0  0  0  0  0  0  0  0  0  0  0  0
   19.1052   70.3802  -10.6792 O   0  0  0  0  0  0  0  0  0  0  0  0
   18.2838   70.8206   -6.7229 N   0  0  0  0  0  0  0  0  0  0  0  0
   17.6419   70.1314   -8.9044 N   0  0  0  0  0  0  0  0  0  0  0  0
   17.2891   70.2532   -7.5540 C   0  0  0  0  0  0  0  0  0  0  0  0
   19.5029   71.2129   -7.2621 C   0  0  0  0  0  0  0  0  0  0  0  0
   19.8247   71.0906   -8.5514 C   0  0  0  0  0  0  0  0  0  0  0  0
   18.8416   70.5065   -9.4872 C   0  0  0  0  0  0  0  0  0  0  0  0
   16.9663   69.7372   -9.5023 H   0  0  0  0  0  0  0  0  0  0  0  0
   22.9952   71.3580   -0.7465 O   0  0  0  0  0  0  0  0  0  0  0  0
   21.8548   71.7101    0.3440 P   0  0  2  0  0  0  0  0  0  0  0  0
   20.8227   70.4699    0.2134 O   0  0  0  0  0  0  0  0  0  0  0  0
   21.2248   73.0606    0.1621 O   0  0  0  0  0  0  0  0  0  0  0  0
   22.5732   71.4933    1.7720 O   0  0  0  0  0  0  0  0  0  0  0  0
   23.1776   73.2127    3.2845 O   0  0  0  0  0  0  0  0  0  0  0  0
   25.8544   70.2304    4.2888 O   0  0  0  0  0  0  0  0  0  0  0  0
   25.2508   70.7966    1.4871 O   0  0  0  0  0  0  0  0  0  0  0  0
   23.5657   70.7728    5.9972 O   0  0  0  0  0  0  0  0  0  0  0  0
   24.6146   70.7678    3.8282 C   0  0  2  0  0  0  0  0  0  0  0  0
   24.8572   71.6176    2.5806 C   0  0  2  0  0  0  0  0  0  0  0  0
   24.0250   71.6255    4.9500 C   0  0  1  0  0  0  0  0  0  0  0  0
   23.5971   72.3928    2.1932 C   0  0  1  0  0  0  0  0  0  0  0  0
   22.8504   72.4629    4.4524 C   0  0  1  0  0  0  0  0  0  0  0  0
   26.2478   69.6815    3.5922 H   0  0  0  0  0  0  0  0  0  0  0  0
   26.0497   70.3016    1.7261 H   0  0  0  0  0  0  0  0  0  0  0  0
   24.3037   70.2341    6.3227 H   0  0  0  0  0  0  0  0  0  0  0  0
   23.2903   73.4366    6.5404 O   0  0  0  0  0  0  0  0  0  0  0  0
   21.6182   74.3588    5.2943 O   0  0  0  0  0  0  0  0  0  0  0  0
   22.4972   73.5233    5.4439 C   0  0  0  0  0  0  0  0  0  0  0  0
  1  4  1  0
  1 24  1  0
  1  2  1  1
  1  3  2  0
 25 28  1  0
 25 24  1  0
 25 26  1  1
 25 27  2  0
  6 11  1  0
  6 12  1  0
 29 36  1  0
 29 37  1  0
  9  7  1  1
  7 13  1  0
 10  8  1  1
  8 14  1  0
  4  5  1  0
 36 28  1  1
 33 30  1  1
 30 38  1  0
 34 31  1  6
 31 39  1  0
 35 32  1  1
 32 40  1  0
 41 43  1  0
 15 19  2  0
 42 43  2  0
 16 22  2  0
 12 17  1  6
 17 19  1  0
 17 20  1  0
 18 19  1  0
 18 22  1  0
 18 23  1  0
  9 10  1  0
  9 11  1  0
 10 12  1  0
 11  5  1  6
 33 34  1  0
 33 35  1  0
 34 36  1  0
 35 37  1  0
 37 43  1  1
 20 21  2  0
 21 22  1  0
M  CHG  3   2  -1  26  -1  41  -1
M  END
>  <COMPND>  (88) 
    udp_gluA.pdb 

>  <AUTHOR>  (88) 
    GENERATED BY OPEN BABEL 3.1.1

>  <MASTER>  (88) 
        0    0    0    0    0    0    0    0   56    0   56    0

>  <minimizedAffinity>  (88) 
-8.58116

>  <CNNscore>  (88) 
0.8283153772

>  <CNNaffinity>  (88) 
4.5911054611

>  <CNN_VS>  (88) 
3.8028831482

>  <CNNaffinity_variance>  (88) 
0.0928076357

$$$$
89
     RDKit          3D

 43 45  0  0  0  0  0  0  0  0999 V2000
   22.9095   71.5995   -2.3987 P   0  0  2  0  0  0  0  0  0  0  0  0
   22.4099   73.0190   -2.9938 O   0  0  0  0  0  0  0  0  0  0  0  0
   24.1506   71.0468   -3.0358 O   0  0  0  0  0  0  0  0  0  0  0  0
   21.5963   70.6581   -2.4853 O   0  0  0  0  0  0  0  0  0  0  0  0
   20.8765   70.6122   -3.7035 C   0  0  0  0  0  0  0  0  0  0  0  0
   18.9418   71.6777   -4.6518 O   0  0  0  0  0  0  0  0  0  0  0  0
   17.3830   70.4101   -2.4258 O   0  0  0  0  0  0  0  0  0  0  0  0
   16.8435   68.7727   -4.5386 O   0  0  0  0  0  0  0  0  0  0  0  0
   18.4976   69.8962   -3.1552 C   0  0  1  0  0  0  0  0  0  0  0  0
   18.0668   69.4784   -4.5452 C   0  0  2  0  0  0  0  0  0  0  0  0
   19.4413   71.0545   -3.4487 C   0  0  1  0  0  0  0  0  0  0  0  0
   17.9668   70.8155   -5.2595 C   0  0  2  0  0  0  0  0  0  0  0  0
   16.7659   69.6882   -2.2266 H   0  0  0  0  0  0  0  0  0  0  0  0
   16.9594   67.9292   -4.0728 H   0  0  0  0  0  0  0  0  0  0  0  0
   16.0744   70.0504   -7.2115 O   0  0  0  0  0  0  0  0  0  0  0  0
   19.1567   70.4413  -10.6160 O   0  0  0  0  0  0  0  0  0  0  0  0
   18.2479   70.7091   -6.6633 N   0  0  0  0  0  0  0  0  0  0  0  0
   17.6116   70.2448   -8.9051 N   0  0  0  0  0  0  0  0  0  0  0  0
   17.2263   70.3163   -7.5600 C   0  0  0  0  0  0  0  0  0  0  0  0
   19.5222   70.9937   -7.1390 C   0  0  0  0  0  0  0  0  0  0  0  0
   19.8744   70.9212   -8.4240 C   0  0  0  0  0  0  0  0  0  0  0  0
   18.8662   70.5175   -9.4260 C   0  0  0  0  0  0  0  0  0  0  0  0
   16.9179   69.9715   -9.5481 H   0  0  0  0  0  0  0  0  0  0  0  0
   23.0404   71.8958   -0.8150 O   0  0  0  0  0  0  0  0  0  0  0  0
   23.3146   73.2717   -0.0117 P   0  0  2  0  0  0  0  0  0  0  0  0
   21.8301   73.8854    0.1883 O   0  0  0  0  0  0  0  0  0  0  0  0
   24.2807   74.1990   -0.6905 O   0  0  0  0  0  0  0  0  0  0  0  0
   23.7631   72.8013    1.4647 O   0  0  0  0  0  0  0  0  0  0  0  0
   24.2640   70.7093    2.4556 O   0  0  0  0  0  0  0  0  0  0  0  0
   22.1916   72.6010    5.4879 O   0  0  0  0  0  0  0  0  0  0  0  0
   21.2809   72.8064    2.7197 O   0  0  0  0  0  0  0  0  0  0  0  0
   25.0835   72.3440    5.6365 O   0  0  0  0  0  0  0  0  0  0  0  0
   23.0526   72.5187    4.3521 C   0  0  2  0  0  0  0  0  0  0  0  0
   22.2895   71.9117    3.1744 C   0  0  2  0  0  0  0  0  0  0  0  0
   24.2452   71.6355    4.7256 C   0  0  1  0  0  0  0  0  0  0  0  0
   23.2348   71.5957    2.0145 C   0  0  1  0  0  0  0  0  0  0  0  0
   25.0677   71.2610    3.4961 C   0  0  1  0  0  0  0  0  0  0  0  0
   21.4262   73.1575    5.2740 H   0  0  0  0  0  0  0  0  0  0  0  0
   20.6777   73.0115    3.4507 H   0  0  0  0  0  0  0  0  0  0  0  0
   24.5719   72.5885    6.4235 H   0  0  0  0  0  0  0  0  0  0  0  0
   25.4603   68.9487    3.5227 O   0  0  0  0  0  0  0  0  0  0  0  0
   27.1425   70.2979    4.2637 O   0  0  0  0  0  0  0  0  0  0  0  0
   26.0171   70.1511    3.8110 C   0  0  0  0  0  0  0  0  0  0  0  0
  1  4  1  0
  1 24  1  0
  1  2  1  6
  1  3  2  0
 25 28  1  0
 25 24  1  0
 25 26  1  1
 25 27  2  0
  6 11  1  0
  6 12  1  0
 29 36  1  0
 29 37  1  0
  9  7  1  1
  7 13  1  0
 10  8  1  1
  8 14  1  0
  4  5  1  0
 36 28  1  1
 33 30  1  1
 30 38  1  0
 34 31  1  6
 31 39  1  0
 35 32  1  1
 32 40  1  0
 41 43  1  0
 15 19  2  0
 42 43  2  0
 16 22  2  0
 12 17  1  6
 17 19  1  0
 17 20  1  0
 18 19  1  0
 18 22  1  0
 18 23  1  0
  9 10  1  0
  9 11  1  0
 10 12  1  0
 11  5  1  6
 33 34  1  0
 33 35  1  0
 34 36  1  0
 35 37  1  0
 37 43  1  1
 20 21  2  0
 21 22  1  0
M  CHG  3   2  -1  26  -1  41  -1
M  END
>  <COMPND>  (89) 
    udp_gluA.pdb 

>  <AUTHOR>  (89) 
    GENERATED BY OPEN BABEL 3.1.1

>  <MASTER>  (89) 
        0    0    0    0    0    0    0    0   56    0   56    0

>  <minimizedAffinity>  (89) 
-8.43694

>  <CNNscore>  (89) 
0.7284994721

>  <CNNaffinity>  (89) 
4.5373721123

>  <CNN_VS>  (89) 
3.3054730892

>  <CNNaffinity_variance>  (89) 
0.0413044207

$$$$
90
     RDKit          3D

 43 45  0  0  0  0  0  0  0  0999 V2000
   21.9707   72.8238   -5.9479 P   0  0  2  0  0  0  0  0  0  0  0  0
   22.1659   74.0108   -7.0305 O   0  0  0  0  0  0  0  0  0  0  0  0
   23.2166   72.4264   -5.2120 O   0  0  0  0  0  0  0  0  0  0  0  0
   21.2455   71.6468   -6.7885 O   0  0  0  0  0  0  0  0  0  0  0  0
   20.2505   72.0031   -7.7305 C   0  0  0  0  0  0  0  0  0  0  0  0
   19.1079   69.9845   -7.1003 O   0  0  0  0  0  0  0  0  0  0  0  0
   18.1224   69.8795   -9.9303 O   0  0  0  0  0  0  0  0  0  0  0  0
   15.9682   70.8732   -8.5857 O   0  0  0  0  0  0  0  0  0  0  0  0
   18.3423   71.0138   -9.0916 C   0  0  1  0  0  0  0  0  0  0  0  0
   17.2514   71.1122   -8.0464 C   0  0  2  0  0  0  0  0  0  0  0  0
   19.5745   70.7371   -8.2410 C   0  0  1  0  0  0  0  0  0  0  0  0
   17.6738   70.0475   -7.0484 C   0  0  2  0  0  0  0  0  0  0  0  0
   17.3399   70.0328  -10.4835 H   0  0  0  0  0  0  0  0  0  0  0  0
   15.7454   71.5781   -9.2146 H   0  0  0  0  0  0  0  0  0  0  0  0
   16.2606   68.2836   -5.3548 O   0  0  0  0  0  0  0  0  0  0  0  0
   16.1706   71.3594   -1.9233 O   0  0  0  0  0  0  0  0  0  0  0  0
   17.2685   70.3617   -5.7076 N   0  0  0  0  0  0  0  0  0  0  0  0
   16.2163   69.8176   -3.6477 N   0  0  0  0  0  0  0  0  0  0  0  0
   16.5624   69.4046   -4.9410 C   0  0  0  0  0  0  0  0  0  0  0  0
   17.5716   71.6043   -5.1645 C   0  0  0  0  0  0  0  0  0  0  0  0
   17.2351   71.9835   -3.9301 C   0  0  0  0  0  0  0  0  0  0  0  0
   16.4950   71.0427   -3.0638 C   0  0  0  0  0  0  0  0  0  0  0  0
   15.7224   69.1690   -3.0957 H   0  0  0  0  0  0  0  0  0  0  0  0
   20.7820   73.3833   -5.0063 O   0  0  0  0  0  0  0  0  0  0  0  0
   20.8111   74.4086   -3.7566 P   0  0  2  0  0  0  0  0  0  0  0  0
   19.2617   74.8526   -3.6063 O   0  0  0  0  0  0  0  0  0  0  0  0
   21.7691   75.5528   -3.9211 O   0  0  0  0  0  0  0  0  0  0  0  0
   21.0946   73.4777   -2.4700 O   0  0  0  0  0  0  0  0  0  0  0  0
   21.1069   74.0806   -0.1796 O   0  0  0  0  0  0  0  0  0  0  0  0
   23.8598   71.0009   -0.2531 O   0  0  0  0  0  0  0  0  0  0  0  0
   23.8355   73.0163   -2.3679 O   0  0  0  0  0  0  0  0  0  0  0  0
   21.1927   70.5490    0.8116 O   0  0  0  0  0  0  0  0  0  0  0  0
   22.6961   71.7187   -0.6638 C   0  0  2  0  0  0  0  0  0  0  0  0
   23.0992   73.1097   -1.1539 C   0  0  2  0  0  0  0  0  0  0  0  0
   21.7592   71.8297    0.5412 C   0  0  1  0  0  0  0  0  0  0  0  0
   21.8677   73.9866   -1.3845 C   0  0  1  0  0  0  0  0  0  0  0  0
   20.6269   72.8180    0.2772 C   0  0  1  0  0  0  0  0  0  0  0  0
   24.4700   70.9179   -1.0028 H   0  0  0  0  0  0  0  0  0  0  0  0
   24.6183   72.4610   -2.2289 H   0  0  0  0  0  0  0  0  0  0  0  0
   21.9030   69.9105    0.9812 H   0  0  0  0  0  0  0  0  0  0  0  0
   20.3554   72.3861    2.5666 O   0  0  0  0  0  0  0  0  0  0  0  0
   19.0695   74.0364    1.6599 O   0  0  0  0  0  0  0  0  0  0  0  0
   19.9207   73.1670    1.5468 C   0  0  0  0  0  0  0  0  0  0  0  0
  1  4  1  0
  1 24  1  0
  1  2  1  6
  1  3  2  0
 25 28  1  0
 25 24  1  0
 25 26  1  1
 25 27  2  0
  6 11  1  0
  6 12  1  0
 29 36  1  0
 29 37  1  0
  9  7  1  6
  7 13  1  0
 10  8  1  6
  8 14  1  0
  4  5  1  0
 36 28  1  6
 33 30  1  1
 30 38  1  0
 34 31  1  6
 31 39  1  0
 35 32  1  6
 32 40  1  0
 41 43  1  0
 15 19  2  0
 42 43  2  0
 16 22  2  0
 12 17  1  1
 17 19  1  0
 17 20  1  0
 18 19  1  0
 18 22  1  0
 18 23  1  0
  9 10  1  0
  9 11  1  0
 10 12  1  0
 11  5  1  1
 33 34  1  0
 33 35  1  0
 34 36  1  0
 35 37  1  0
 37 43  1  1
 20 21  2  0
 21 22  1  0
M  CHG  3   2  -1  26  -1  41  -1
M  END
>  <COMPND>  (90) 
    udp_gluA.pdb 

>  <AUTHOR>  (90) 
    GENERATED BY OPEN BABEL 3.1.1

>  <MASTER>  (90) 
        0    0    0    0    0    0    0    0   56    0   56    0

>  <minimizedAffinity>  (90) 
-6.98947

>  <CNNscore>  (90) 
0.7035211325

>  <CNNaffinity>  (90) 
4.5803232193

>  <CNN_VS>  (90) 
3.2223541737

>  <CNNaffinity_variance>  (90) 
0.1968325227

$$$$
91
     RDKit          3D

 43 45  0  0  0  0  0  0  0  0999 V2000
   21.9546   72.6864   -5.7760 P   0  0  2  0  0  0  0  0  0  0  0  0
   21.5280   74.1911   -5.3604 O   0  0  0  0  0  0  0  0  0  0  0  0
   23.0594   72.5978   -6.7877 O   0  0  0  0  0  0  0  0  0  0  0  0
   20.5572   71.9891   -6.1988 O   0  0  0  0  0  0  0  0  0  0  0  0
   20.0381   72.2440   -7.4911 C   0  0  0  0  0  0  0  0  0  0  0  0
   19.0179   70.1292   -6.9767 O   0  0  0  0  0  0  0  0  0  0  0  0
   18.2024   70.0318   -9.8606 O   0  0  0  0  0  0  0  0  0  0  0  0
   15.9077   70.8248   -8.6190 O   0  0  0  0  0  0  0  0  0  0  0  0
   18.2890   71.1551   -8.9835 C   0  0  1  0  0  0  0  0  0  0  0  0
   17.1372   71.1427   -8.0009 C   0  0  2  0  0  0  0  0  0  0  0  0
   19.4892   70.9464   -8.0701 C   0  0  1  0  0  0  0  0  0  0  0  0
   17.5825   70.0844   -7.0062 C   0  0  2  0  0  0  0  0  0  0  0  0
   17.4427   70.1424  -10.4541 H   0  0  0  0  0  0  0  0  0  0  0  0
   15.6678   71.5288   -9.2426 H   0  0  0  0  0  0  0  0  0  0  0  0
   16.2766   68.1527   -5.4126 O   0  0  0  0  0  0  0  0  0  0  0  0
   15.6980   71.1366   -1.9476 O   0  0  0  0  0  0  0  0  0  0  0  0
   17.0805   70.3296   -5.6838 N   0  0  0  0  0  0  0  0  0  0  0  0
   15.9887   69.6410   -3.6887 N   0  0  0  0  0  0  0  0  0  0  0  0
   16.4398   69.2906   -4.9681 C   0  0  0  0  0  0  0  0  0  0  0  0
   17.2261   71.5861   -5.1085 C   0  0  0  0  0  0  0  0  0  0  0  0
   16.7910   71.9050   -3.8879 C   0  0  0  0  0  0  0  0  0  0  0  0
   16.1098   70.8768   -3.0742 C   0  0  0  0  0  0  0  0  0  0  0  0
   15.5376   68.9347   -3.1721 H   0  0  0  0  0  0  0  0  0  0  0  0
   22.2884   71.9975   -4.3523 O   0  0  0  0  0  0  0  0  0  0  0  0
   23.5646   72.1515   -3.3719 P   0  0  2  0  0  0  0  0  0  0  0  0
   24.5006   73.2200   -4.1482 O   0  0  0  0  0  0  0  0  0  0  0  0
   24.2477   70.8559   -3.0421 O   0  0  0  0  0  0  0  0  0  0  0  0
   23.0027   72.9568   -2.0920 O   0  0  0  0  0  0  0  0  0  0  0  0
   21.2522   72.1546   -0.7130 O   0  0  0  0  0  0  0  0  0  0  0  0
   21.1042   76.2179    0.0189 O   0  0  0  0  0  0  0  0  0  0  0  0
   21.4970   75.2158   -2.6970 O   0  0  0  0  0  0  0  0  0  0  0  0
   22.2614   74.4215    1.9898 O   0  0  0  0  0  0  0  0  0  0  0  0
   21.7268   74.9720   -0.2941 C   0  0  2  0  0  0  0  0  0  0  0  0
   21.1278   74.4102   -1.5837 C   0  0  2  0  0  0  0  0  0  0  0  0
   21.4765   74.0123    0.8713 C   0  0  1  0  0  0  0  0  0  0  0  0
   21.6011   72.9765   -1.8275 C   0  0  1  0  0  0  0  0  0  0  0  0
   21.8575   72.5806    0.5057 C   0  0  1  0  0  0  0  0  0  0  0  0
   21.2500   76.8440   -0.7078 H   0  0  0  0  0  0  0  0  0  0  0  0
   21.2000   76.1269   -2.5488 H   0  0  0  0  0  0  0  0  0  0  0  0
   22.0287   75.3313    2.2326 H   0  0  0  0  0  0  0  0  0  0  0  0
   21.4836   70.3380    1.0823 O   0  0  0  0  0  0  0  0  0  0  0  0
   20.7857   71.9234    2.5650 O   0  0  0  0  0  0  0  0  0  0  0  0
   21.3124   71.6145    1.5066 C   0  0  0  0  0  0  0  0  0  0  0  0
  1  4  1  0
  1 24  1  0
  1  2  1  1
  1  3  2  0
 25 28  1  0
 25 24  1  0
 25 26  1  6
 25 27  2  0
  6 11  1  0
  6 12  1  0
 29 36  1  0
 29 37  1  0
  9  7  1  6
  7 13  1  0
 10  8  1  6
  8 14  1  0
  4  5  1  0
 36 28  1  1
 33 30  1  1
 30 38  1  0
 34 31  1  6
 31 39  1  0
 35 32  1  1
 32 40  1  0
 41 43  1  0
 15 19  2  0
 42 43  2  0
 16 22  2  0
 12 17  1  1
 17 19  1  0
 17 20  1  0
 18 19  1  0
 18 22  1  0
 18 23  1  0
  9 10  1  0
  9 11  1  0
 10 12  1  0
 11  5  1  1
 33 34  1  0
 33 35  1  0
 34 36  1  0
 35 37  1  0
 37 43  1  1
 20 21  2  0
 21 22  1  0
M  CHG  3   2  -1  26  -1  41  -1
M  END
>  <COMPND>  (91) 
    udp_gluA.pdb 

>  <AUTHOR>  (91) 
    GENERATED BY OPEN BABEL 3.1.1

>  <MASTER>  (91) 
        0    0    0    0    0    0    0    0   56    0   56    0

>  <minimizedAffinity>  (91) 
-8.04825

>  <CNNscore>  (91) 
0.6866379976

>  <CNNaffinity>  (91) 
4.4538412094

>  <CNN_VS>  (91) 
3.0581765175

>  <CNNaffinity_variance>  (91) 
0.4037337303

$$$$
92
     RDKit          3D

 43 45  0  0  0  0  0  0  0  0999 V2000
   23.5566   72.5635   -3.5471 P   0  0  2  0  0  0  0  0  0  0  0  0
   23.9754   71.0800   -3.0545 O   0  0  0  0  0  0  0  0  0  0  0  0
   24.5939   73.2761   -4.3645 O   0  0  0  0  0  0  0  0  0  0  0  0
   23.0994   73.3102   -2.1864 O   0  0  0  0  0  0  0  0  0  0  0  0
   22.1361   74.3441   -2.2734 C   0  0  0  0  0  0  0  0  0  0  0  0
   21.2203   72.7273   -0.7486 O   0  0  0  0  0  0  0  0  0  0  0  0
   19.2437   74.8471    0.0199 O   0  0  0  0  0  0  0  0  0  0  0  0
   21.0477   74.9459    2.0624 O   0  0  0  0  0  0  0  0  0  0  0  0
   20.6212   74.9806   -0.3311 C   0  0  1  0  0  0  0  0  0  0  0  0
   21.5002   74.4963    0.8025 C   0  0  2  0  0  0  0  0  0  0  0  0
   20.9271   73.9682   -1.4264 C   0  0  1  0  0  0  0  0  0  0  0  0
   21.4065   72.9875    0.6517 C   0  0  2  0  0  0  0  0  0  0  0  0
   19.0245   75.4841    0.7184 H   0  0  0  0  0  0  0  0  0  0  0  0
   21.1278   75.9120    2.1088 H   0  0  0  0  0  0  0  0  0  0  0  0
   21.5595   70.2274    1.2307 O   0  0  0  0  0  0  0  0  0  0  0  0
   26.0199   70.5243    2.3536 O   0  0  0  0  0  0  0  0  0  0  0  0
   22.5953   72.3174    1.0972 N   0  0  0  0  0  0  0  0  0  0  0  0
   23.7806   70.3781    1.7904 N   0  0  0  0  0  0  0  0  0  0  0  0
   22.5655   70.9275    1.3606 C   0  0  0  0  0  0  0  0  0  0  0  0
   23.7734   73.0345    1.2672 C   0  0  0  0  0  0  0  0  0  0  0  0
   24.9238   72.4969    1.6774 C   0  0  0  0  0  0  0  0  0  0  0  0
   24.9778   71.0506    1.9749 C   0  0  0  0  0  0  0  0  0  0  0  0
   23.7840   69.4124    1.9820 H   0  0  0  0  0  0  0  0  0  0  0  0
   22.1548   72.3100   -4.3110 O   0  0  0  0  0  0  0  0  0  0  0  0
   21.5916   72.8830   -5.7139 P   0  0  2  0  0  0  0  0  0  0  0  0
   22.5457   72.1741   -6.8127 O   0  0  0  0  0  0  0  0  0  0  0  0
   21.5589   74.3816   -5.7982 O   0  0  0  0  0  0  0  0  0  0  0  0
   20.1564   72.1705   -5.9005 O   0  0  0  0  0  0  0  0  0  0  0  0
   19.3560   70.0439   -5.2326 O   0  0  0  0  0  0  0  0  0  0  0  0
   17.3913   70.5912   -8.8254 O   0  0  0  0  0  0  0  0  0  0  0  0
   20.2055   71.3250   -8.5498 O   0  0  0  0  0  0  0  0  0  0  0  0
   15.9603   70.9148   -6.3157 O   0  0  0  0  0  0  0  0  0  0  0  0
   17.9987   70.9937   -7.5978 C   0  0  2  0  0  0  0  0  0  0  0  0
   19.4687   70.5734   -7.5923 C   0  0  2  0  0  0  0  0  0  0  0  0
   17.2462   70.3129   -6.4523 C   0  0  1  0  0  0  0  0  0  0  0  0
   20.0915   70.7797   -6.2109 C   0  0  1  0  0  0  0  0  0  0  0  0
   17.9950   70.4568   -5.1306 C   0  0  1  0  0  0  0  0  0  0  0  0
   17.8530   71.0116   -9.5679 H   0  0  0  0  0  0  0  0  0  0  0  0
   19.8156   71.1989   -9.4287 H   0  0  0  0  0  0  0  0  0  0  0  0
   15.4734   70.8302   -7.1503 H   0  0  0  0  0  0  0  0  0  0  0  0
   16.2630   69.9980   -3.6170 O   0  0  0  0  0  0  0  0  0  0  0  0
   17.9629   68.4835   -3.7426 O   0  0  0  0  0  0  0  0  0  0  0  0
   17.4387   69.5271   -4.1017 C   0  0  0  0  0  0  0  0  0  0  0  0
  1  4  1  0
  1 24  1  0
  1  2  1  1
  1  3  2  0
 25 28  1  0
 25 24  1  0
 25 26  1  6
 25 27  2  0
  6 11  1  0
  6 12  1  0
 29 36  1  0
 29 37  1  0
  9  7  1  1
  7 13  1  0
 10  8  1  1
  8 14  1  0
  4  5  1  0
 36 28  1  1
 33 30  1  6
 30 38  1  0
 34 31  1  6
 31 39  1  0
 35 32  1  1
 32 40  1  0
 41 43  1  0
 15 19  2  0
 42 43  2  0
 16 22  2  0
 12 17  1  6
 17 19  1  0
 17 20  1  0
 18 19  1  0
 18 22  1  0
 18 23  1  0
  9 10  1  0
  9 11  1  0
 10 12  1  0
 11  5  1  1
 33 34  1  0
 33 35  1  0
 34 36  1  0
 35 37  1  0
 37 43  1  1
 20 21  2  0
 21 22  1  0
M  CHG  3   2  -1  26  -1  41  -1
M  END
>  <COMPND>  (92) 
    udp_gluA.pdb 

>  <AUTHOR>  (92) 
    GENERATED BY OPEN BABEL 3.1.1

>  <MASTER>  (92) 
        0    0    0    0    0    0    0    0   56    0   56    0

>  <minimizedAffinity>  (92) 
-7.78037

>  <CNNscore>  (92) 
0.6433153749

>  <CNNaffinity>  (92) 
4.4380664825

>  <CNN_VS>  (92) 
2.8550763130

>  <CNNaffinity_variance>  (92) 
0.0811697990

$$$$
93
     RDKit          3D

 43 45  0  0  0  0  0  0  0  0999 V2000
   21.1726   71.7094   -1.2982 P   0  0  2  0  0  0  0  0  0  0  0  0
   20.3557   70.5041   -0.5921 O   0  0  0  0  0  0  0  0  0  0  0  0
   22.6601   71.5197   -1.3532 O   0  0  0  0  0  0  0  0  0  0  0  0
   20.6614   73.0330   -0.5205 O   0  0  0  0  0  0  0  0  0  0  0  0
   21.3554   73.4439    0.6431 C   0  0  0  0  0  0  0  0  0  0  0  0
   21.3891   71.7236    2.3214 O   0  0  0  0  0  0  0  0  0  0  0  0
   19.5261   73.4746    3.8882 O   0  0  0  0  0  0  0  0  0  0  0  0
   21.9300   73.9367    5.0898 O   0  0  0  0  0  0  0  0  0  0  0  0
   20.6177   73.8431    3.0450 C   0  0  1  0  0  0  0  0  0  0  0  0
   21.9340   73.5474    3.7322 C   0  0  2  0  0  0  0  0  0  0  0  0
   20.6489   72.8776    1.8680 C   0  0  1  0  0  0  0  0  0  0  0  0
   22.0511   72.0431    3.5556 C   0  0  2  0  0  0  0  0  0  0  0  0
   19.4858   74.0775    4.6476 H   0  0  0  0  0  0  0  0  0  0  0  0
   21.8540   74.9025    5.1489 H   0  0  0  0  0  0  0  0  0  0  0  0
   23.6263   71.3415    5.7923 O   0  0  0  0  0  0  0  0  0  0  0  0
   27.2760   70.3754    3.1485 O   0  0  0  0  0  0  0  0  0  0  0  0
   23.4160   71.6048    3.4804 N   0  0  0  0  0  0  0  0  0  0  0  0
   25.4429   70.8619    4.4735 N   0  0  0  0  0  0  0  0  0  0  0  0
   24.1182   71.2765    4.6641 C   0  0  0  0  0  0  0  0  0  0  0  0
   24.0445   71.5021    2.2453 C   0  0  0  0  0  0  0  0  0  0  0  0
   25.3077   71.1054    2.0794 C   0  0  0  0  0  0  0  0  0  0  0  0
   26.1115   70.7447    3.2657 C   0  0  0  0  0  0  0  0  0  0  0  0
   25.9526   70.6300    5.2832 H   0  0  0  0  0  0  0  0  0  0  0  0
   20.4562   71.8366   -2.7416 O   0  0  0  0  0  0  0  0  0  0  0  0
   20.7904   72.7774   -4.0132 P   0  0  2  0  0  0  0  0  0  0  0  0
   22.2092   72.2007   -4.5372 O   0  0  0  0  0  0  0  0  0  0  0  0
   20.7952   74.2472   -3.7074 O   0  0  0  0  0  0  0  0  0  0  0  0
   19.7278   72.3320   -5.1424 O   0  0  0  0  0  0  0  0  0  0  0  0
   19.0111   70.0749   -5.1759 O   0  0  0  0  0  0  0  0  0  0  0  0
   17.7672   71.4070   -8.8835 O   0  0  0  0  0  0  0  0  0  0  0  0
   20.3876   72.1673   -7.8393 O   0  0  0  0  0  0  0  0  0  0  0  0
   15.8368   71.0429   -6.7406 O   0  0  0  0  0  0  0  0  0  0  0  0
   18.0750   71.5199   -7.4940 C   0  0  2  0  0  0  0  0  0  0  0  0
   19.5465   71.1730   -7.2660 C   0  0  2  0  0  0  0  0  0  0  0  0
   17.1742   70.5473   -6.7295 C   0  0  1  0  0  0  0  0  0  0  0  0
   19.8566   71.0589   -5.7728 C   0  0  1  0  0  0  0  0  0  0  0  0
   17.6251   70.3927   -5.2799 C   0  0  1  0  0  0  0  0  0  0  0  0
   18.3277   72.0161   -9.3895 H   0  0  0  0  0  0  0  0  0  0  0  0
   20.1959   72.2452   -8.7867 H   0  0  0  0  0  0  0  0  0  0  0  0
   15.5378   71.1460   -7.6576 H   0  0  0  0  0  0  0  0  0  0  0  0
   16.3074   68.4737   -5.5678 O   0  0  0  0  0  0  0  0  0  0  0  0
   17.0017   68.9505   -3.4489 O   0  0  0  0  0  0  0  0  0  0  0  0
   16.9622   69.2160   -4.6409 C   0  0  0  0  0  0  0  0  0  0  0  0
  1  4  1  0
  1 24  1  0
  1  2  1  1
  1  3  2  0
 25 28  1  0
 25 24  1  0
 25 26  1  6
 25 27  2  0
  6 11  1  0
  6 12  1  0
 29 36  1  0
 29 37  1  0
  9  7  1  1
  7 13  1  0
 10  8  1  1
  8 14  1  0
  4  5  1  0
 36 28  1  1
 33 30  1  6
 30 38  1  0
 34 31  1  1
 31 39  1  0
 35 32  1  1
 32 40  1  0
 41 43  1  0
 15 19  2  0
 42 43  2  0
 16 22  2  0
 12 17  1  6
 17 19  1  0
 17 20  1  0
 18 19  1  0
 18 22  1  0
 18 23  1  0
  9 10  1  0
  9 11  1  0
 10 12  1  0
 11  5  1  6
 33 34  1  0
 33 35  1  0
 34 36  1  0
 35 37  1  0
 37 43  1  6
 20 21  2  0
 21 22  1  0
M  CHG  3   2  -1  26  -1  41  -1
M  END
>  <COMPND>  (93) 
    udp_gluA.pdb 

>  <AUTHOR>  (93) 
    GENERATED BY OPEN BABEL 3.1.1

>  <MASTER>  (93) 
        0    0    0    0    0    0    0    0   56    0   56    0

>  <minimizedAffinity>  (93) 
-7.41947

>  <CNNscore>  (93) 
0.5771555901

>  <CNNaffinity>  (93) 
4.2307333946

>  <CNN_VS>  (93) 
2.4417915344

>  <CNNaffinity_variance>  (93) 
0.2949488163

$$$$
94
     RDKit          3D

 43 45  0  0  0  0  0  0  0  0999 V2000
   23.2122   71.8316   -2.3355 P   0  0  2  0  0  0  0  0  0  0  0  0
   23.6135   73.3689   -2.0280 O   0  0  0  0  0  0  0  0  0  0  0  0
   24.2347   71.0525   -3.1097 O   0  0  0  0  0  0  0  0  0  0  0  0
   21.7487   71.9410   -3.0168 O   0  0  0  0  0  0  0  0  0  0  0  0
   21.5354   72.9318   -4.0053 C   0  0  0  0  0  0  0  0  0  0  0  0
   20.8066   71.0315   -5.2842 O   0  0  0  0  0  0  0  0  0  0  0  0
   21.3408   72.6993   -7.7183 O   0  0  0  0  0  0  0  0  0  0  0  0
   18.6322   72.8767   -7.4571 O   0  0  0  0  0  0  0  0  0  0  0  0
   20.8320   73.0963   -6.4447 C   0  0  1  0  0  0  0  0  0  0  0  0
   19.3947   72.6460   -6.2910 C   0  0  2  0  0  0  0  0  0  0  0  0
   21.5400   72.2719   -5.3783 C   0  0  1  0  0  0  0  0  0  0  0  0
   19.5587   71.1675   -5.9825 C   0  0  2  0  0  0  0  0  0  0  0  0
   20.9032   73.2125   -8.4160 H   0  0  0  0  0  0  0  0  0  0  0  0
   18.5565   73.8321   -7.6101 H   0  0  0  0  0  0  0  0  0  0  0  0
   17.1229   70.1268   -6.9623 O   0  0  0  0  0  0  0  0  0  0  0  0
   15.5766   69.2490   -2.7099 O   0  0  0  0  0  0  0  0  0  0  0  0
   18.5022   70.6602   -5.1535 N   0  0  0  0  0  0  0  0  0  0  0  0
   16.3547   69.6916   -4.8434 N   0  0  0  0  0  0  0  0  0  0  0  0
   17.3186   70.1599   -5.7459 C   0  0  0  0  0  0  0  0  0  0  0  0
   18.6444   70.6599   -3.7712 C   0  0  0  0  0  0  0  0  0  0  0  0
   17.7169   70.2100   -2.9239 C   0  0  0  0  0  0  0  0  0  0  0  0
   16.4503   69.6713   -3.4614 C   0  0  0  0  0  0  0  0  0  0  0  0
   15.5212   69.3403   -5.2322 H   0  0  0  0  0  0  0  0  0  0  0  0
   22.8860   71.2409   -0.8667 O   0  0  0  0  0  0  0  0  0  0  0  0
   21.7998   71.6931    0.2420 P   0  0  2  0  0  0  0  0  0  0  0  0
   20.6939   70.5127    0.1793 O   0  0  0  0  0  0  0  0  0  0  0  0
   21.2446   73.0723    0.0335 O   0  0  0  0  0  0  0  0  0  0  0  0
   22.5450   71.4782    1.6566 O   0  0  0  0  0  0  0  0  0  0  0  0
   23.0990   73.2005    3.1849 O   0  0  0  0  0  0  0  0  0  0  0  0
   25.8861   70.3033    4.1369 O   0  0  0  0  0  0  0  0  0  0  0  0
   25.2434   70.8796    1.3459 O   0  0  0  0  0  0  0  0  0  0  0  0
   23.5917   70.7452    5.8665 O   0  0  0  0  0  0  0  0  0  0  0  0
   24.6250   70.8018    3.6907 C   0  0  2  0  0  0  0  0  0  0  0  0
   24.8288   71.6738    2.4515 C   0  0  2  0  0  0  0  0  0  0  0  0
   24.0134   71.6254    4.8263 C   0  0  1  0  0  0  0  0  0  0  0  0
   23.5395   72.4084    2.0813 C   0  0  1  0  0  0  0  0  0  0  0  0
   22.8066   72.4264    4.3461 C   0  0  1  0  0  0  0  0  0  0  0  0
   26.2937   69.7766    3.4314 H   0  0  0  0  0  0  0  0  0  0  0  0
   26.0608   70.4105    1.5739 H   0  0  0  0  0  0  0  0  0  0  0  0
   24.3505   70.2293    6.1809 H   0  0  0  0  0  0  0  0  0  0  0  0
   23.2066   73.3713    6.4553 O   0  0  0  0  0  0  0  0  0  0  0  0
   21.5302   74.2838    5.2078 O   0  0  0  0  0  0  0  0  0  0  0  0
   22.4233   73.4624    5.3521 C   0  0  0  0  0  0  0  0  0  0  0  0
  1  4  1  0
  1 24  1  0
  1  2  1  1
  1  3  2  0
 25 28  1  0
 25 24  1  0
 25 26  1  1
 25 27  2  0
  6 11  1  0
  6 12  1  0
 29 36  1  0
 29 37  1  0
  9  7  1  6
  7 13  1  0
 10  8  1  6
  8 14  1  0
  4  5  1  0
 36 28  1  1
 33 30  1  1
 30 38  1  0
 34 31  1  6
 31 39  1  0
 35 32  1  1
 32 40  1  0
 41 43  1  0
 15 19  2  0
 42 43  2  0
 16 22  2  0
 12 17  1  1
 17 19  1  0
 17 20  1  0
 18 19  1  0
 18 22  1  0
 18 23  1  0
  9 10  1  0
  9 11  1  0
 10 12  1  0
 11  5  1  1
 33 34  1  0
 33 35  1  0
 34 36  1  0
 35 37  1  0
 37 43  1  1
 20 21  2  0
 21 22  1  0
M  CHG  3   2  -1  26  -1  41  -1
M  END
>  <COMPND>  (94) 
    udp_gluA.pdb 

>  <AUTHOR>  (94) 
    GENERATED BY OPEN BABEL 3.1.1

>  <MASTER>  (94) 
        0    0    0    0    0    0    0    0   56    0   56    0

>  <minimizedAffinity>  (94) 
-7.99277

>  <CNNscore>  (94) 
0.5541372299

>  <CNNaffinity>  (94) 
4.1737546921

>  <CNN_VS>  (94) 
2.3128328323

>  <CNNaffinity_variance>  (94) 
0.1833167523

$$$$
95
     RDKit          3D

 43 45  0  0  0  0  0  0  0  0999 V2000
   23.0180   71.6892   -2.7981 P   0  0  2  0  0  0  0  0  0  0  0  0
   24.3688   70.8514   -3.1022 O   0  0  0  0  0  0  0  0  0  0  0  0
   21.8200   70.8552   -2.4504 O   0  0  0  0  0  0  0  0  0  0  0  0
   22.8556   72.6474   -4.0917 O   0  0  0  0  0  0  0  0  0  0  0  0
   21.5757   72.7724   -4.6840 C   0  0  0  0  0  0  0  0  0  0  0  0
   20.8032   70.7367   -5.7022 O   0  0  0  0  0  0  0  0  0  0  0  0
   21.2795   72.0914   -8.3346 O   0  0  0  0  0  0  0  0  0  0  0  0
   18.5799   72.3216   -8.0259 O   0  0  0  0  0  0  0  0  0  0  0  0
   20.8074   72.6446   -7.1060 C   0  0  1  0  0  0  0  0  0  0  0  0
   19.3725   72.2282   -6.8607 C   0  0  2  0  0  0  0  0  0  0  0  0
   21.5399   71.9504   -5.9659 C   0  0  1  0  0  0  0  0  0  0  0  0
   19.5375   70.7970   -6.3788 C   0  0  2  0  0  0  0  0  0  0  0  0
   20.8257   72.5195   -9.0779 H   0  0  0  0  0  0  0  0  0  0  0  0
   18.5048   73.2519   -8.2921 H   0  0  0  0  0  0  0  0  0  0  0  0
   17.0330   69.7545   -7.1644 O   0  0  0  0  0  0  0  0  0  0  0  0
   15.6379   69.3193   -2.7931 O   0  0  0  0  0  0  0  0  0  0  0  0
   18.5012   70.4031   -5.4667 N   0  0  0  0  0  0  0  0  0  0  0  0
   16.3402   69.5397   -4.9865 N   0  0  0  0  0  0  0  0  0  0  0  0
   17.2797   69.8913   -5.9646 C   0  0  0  0  0  0  0  0  0  0  0  0
   18.7004   70.5235   -4.0967 C   0  0  0  0  0  0  0  0  0  0  0  0
   17.7955   70.1840   -3.1766 C   0  0  0  0  0  0  0  0  0  0  0  0
   16.4922   69.6418   -3.6132 C   0  0  0  0  0  0  0  0  0  0  0  0
   15.4811   69.1828   -5.3090 H   0  0  0  0  0  0  0  0  0  0  0  0
   23.4817   72.7174   -1.6402 O   0  0  0  0  0  0  0  0  0  0  0  0
   23.4014   72.6081   -0.0292 P   0  0  2  0  0  0  0  0  0  0  0  0
   24.3250   73.8397    0.4715 O   0  0  0  0  0  0  0  0  0  0  0  0
   23.8055   71.2698    0.5181 O   0  0  0  0  0  0  0  0  0  0  0  0
   21.8948   73.0540    0.3367 O   0  0  0  0  0  0  0  0  0  0  0  0
   20.9332   74.7059   -1.0617 O   0  0  0  0  0  0  0  0  0  0  0  0
   18.2441   74.5884    2.0724 O   0  0  0  0  0  0  0  0  0  0  0  0
   21.1190   74.4980    2.5836 O   0  0  0  0  0  0  0  0  0  0  0  0
   17.5791   73.3419   -0.4682 O   0  0  0  0  0  0  0  0  0  0  0  0
   19.2049   74.0585    1.1591 C   0  0  2  0  0  0  0  0  0  0  0  0
   20.5312   74.8010    1.3237 C   0  0  2  0  0  0  0  0  0  0  0  0
   18.6624   74.2460   -0.2595 C   0  0  1  0  0  0  0  0  0  0  0  0
   21.5117   74.4224    0.2128 C   0  0  1  0  0  0  0  0  0  0  0  0
   19.7367   73.9703   -1.3076 C   0  0  1  0  0  0  0  0  0  0  0  0
   18.5673   74.4804    2.9808 H   0  0  0  0  0  0  0  0  0  0  0  0
   20.5021   74.7355    3.2932 H   0  0  0  0  0  0  0  0  0  0  0  0
   16.8885   73.5067    0.1926 H   0  0  0  0  0  0  0  0  0  0  0  0
   20.0243   75.5610   -3.0072 O   0  0  0  0  0  0  0  0  0  0  0  0
   18.4344   73.9605   -3.3387 O   0  0  0  0  0  0  0  0  0  0  0  0
   19.3077   74.4665   -2.6500 C   0  0  0  0  0  0  0  0  0  0  0  0
  1  4  1  0
  1 24  1  0
  1  2  1  6
  1  3  2  0
 25 28  1  0
 25 24  1  0
 25 26  1  1
 25 27  2  0
  6 11  1  0
  6 12  1  0
 29 36  1  0
 29 37  1  0
  9  7  1  6
  7 13  1  0
 10  8  1  6
  8 14  1  0
  4  5  1  0
 36 28  1  6
 33 30  1  1
 30 38  1  0
 34 31  1  1
 31 39  1  0
 35 32  1  6
 32 40  1  0
 41 43  1  0
 15 19  2  0
 42 43  2  0
 16 22  2  0
 12 17  1  1
 17 19  1  0
 17 20  1  0
 18 19  1  0
 18 22  1  0
 18 23  1  0
  9 10  1  0
  9 11  1  0
 10 12  1  0
 11  5  1  1
 33 34  1  0
 33 35  1  0
 34 36  1  0
 35 37  1  0
 37 43  1  6
 20 21  2  0
 21 22  1  0
M  CHG  3   2  -1  26  -1  41  -1
M  END
>  <COMPND>  (95) 
    udp_gluA.pdb 

>  <AUTHOR>  (95) 
    GENERATED BY OPEN BABEL 3.1.1

>  <MASTER>  (95) 
        0    0    0    0    0    0    0    0   56    0   56    0

>  <minimizedAffinity>  (95) 
-6.32911

>  <CNNscore>  (95) 
0.5503222942

>  <CNNaffinity>  (95) 
4.0846085548

>  <CNN_VS>  (95) 
2.2478511333

>  <CNNaffinity_variance>  (95) 
0.3057079017

$$$$
96
     RDKit          3D

 43 45  0  0  0  0  0  0  0  0999 V2000
   23.4355   73.0950   -0.5323 P   0  0  2  0  0  0  0  0  0  0  0  0
   23.7905   71.5268   -0.7157 O   0  0  0  0  0  0  0  0  0  0  0  0
   23.2802   73.8633   -1.8120 O   0  0  0  0  0  0  0  0  0  0  0  0
   24.5775   73.6363    0.4780 O   0  0  0  0  0  0  0  0  0  0  0  0
   24.3777   73.4790    1.8708 C   0  0  0  0  0  0  0  0  0  0  0  0
   26.1253   72.7477    3.3502 O   0  0  0  0  0  0  0  0  0  0  0  0
   25.0375   69.9799    2.9658 O   0  0  0  0  0  0  0  0  0  0  0  0
   24.0218   70.6872    5.3957 O   0  0  0  0  0  0  0  0  0  0  0  0
   24.3388   71.2225    3.0451 C   0  0  1  0  0  0  0  0  0  0  0  0
   24.3120   71.7184    4.4754 C   0  0  2  0  0  0  0  0  0  0  0  0
   25.1866   72.2830    2.3561 C   0  0  1  0  0  0  0  0  0  0  0  0
   25.7160   72.2738    4.6430 C   0  0  2  0  0  0  0  0  0  0  0  0
   24.5151   69.2866    3.3996 H   0  0  0  0  0  0  0  0  0  0  0  0
   23.1174   70.3675    5.2484 H   0  0  0  0  0  0  0  0  0  0  0  0
   27.7229   72.6017    6.6030 O   0  0  0  0  0  0  0  0  0  0  0  0
   25.8099   76.4900    8.1732 O   0  0  0  0  0  0  0  0  0  0  0  0
   25.7667   73.3628    5.5770 N   0  0  0  0  0  0  0  0  0  0  0  0
   26.7676   74.5374    7.3839 N   0  0  0  0  0  0  0  0  0  0  0  0
   26.8177   73.4341    6.5217 C   0  0  0  0  0  0  0  0  0  0  0  0
   24.7846   74.3455    5.5506 C   0  0  0  0  0  0  0  0  0  0  0  0
   24.7503   75.3913    6.3788 C   0  0  0  0  0  0  0  0  0  0  0  0
   25.8113   75.5398    7.3964 C   0  0  0  0  0  0  0  0  0  0  0  0
   27.4877   74.6075    8.0516 H   0  0  0  0  0  0  0  0  0  0  0  0
   22.1138   73.0616    0.3976 O   0  0  0  0  0  0  0  0  0  0  0  0
   20.8291   72.0802    0.3814 P   0  0  2  0  0  0  0  0  0  0  0  0
   19.6697   72.9774    1.0677 O   0  0  0  0  0  0  0  0  0  0  0  0
   21.0592   70.7536    1.0457 O   0  0  0  0  0  0  0  0  0  0  0  0
   20.4053   71.9863   -1.1723 O   0  0  0  0  0  0  0  0  0  0  0  0
   19.1090   70.0967   -1.7708 O   0  0  0  0  0  0  0  0  0  0  0  0
   20.1322   71.6207   -5.4719 O   0  0  0  0  0  0  0  0  0  0  0  0
   22.1054   71.5061   -3.3206 O   0  0  0  0  0  0  0  0  0  0  0  0
   17.4463   72.0037   -4.4280 O   0  0  0  0  0  0  0  0  0  0  0  0
   19.8085   71.6790   -4.0828 C   0  0  2  0  0  0  0  0  0  0  0  0
   20.8323   70.8716   -3.2844 C   0  0  2  0  0  0  0  0  0  0  0  0
   18.4072   71.0922   -3.8987 C   0  0  1  0  0  0  0  0  0  0  0  0
   20.3930   70.7193   -1.8275 C   0  0  1  0  0  0  0  0  0  0  0  0
   18.0926   70.8532   -2.4247 C   0  0  1  0  0  0  0  0  0  0  0  0
   21.0189   71.9883   -5.6133 H   0  0  0  0  0  0  0  0  0  0  0  0
   22.3901   71.6062   -4.2422 H   0  0  0  0  0  0  0  0  0  0  0  0
   17.6353   72.1644   -5.3657 H   0  0  0  0  0  0  0  0  0  0  0  0
   17.2388   68.7045   -2.0303 O   0  0  0  0  0  0  0  0  0  0  0  0
   15.7276   70.3809   -2.3547 O   0  0  0  0  0  0  0  0  0  0  0  0
   16.8825   69.9901   -2.2738 C   0  0  0  0  0  0  0  0  0  0  0  0
  1  4  1  0
  1 24  1  0
  1  2  1  6
  1  3  2  0
 25 28  1  0
 25 24  1  0
 25 26  1  1
 25 27  2  0
  6 11  1  0
  6 12  1  0
 29 36  1  0
 29 37  1  0
  9  7  1  1
  7 13  1  0
 10  8  1  1
  8 14  1  0
  4  5  1  0
 36 28  1  6
 33 30  1  6
 30 38  1  0
 34 31  1  1
 31 39  1  0
 35 32  1  1
 32 40  1  0
 41 43  1  0
 15 19  2  0
 42 43  2  0
 16 22  2  0
 12 17  1  1
 17 19  1  0
 17 20  1  0
 18 19  1  0
 18 22  1  0
 18 23  1  0
  9 10  1  0
  9 11  1  0
 10 12  1  0
 11  5  1  1
 33 34  1  0
 33 35  1  0
 34 36  1  0
 35 37  1  0
 37 43  1  6
 20 21  2  0
 21 22  1  0
M  CHG  3   2  -1  26  -1  41  -1
M  END
>  <COMPND>  (96) 
    udp_gluA.pdb 

>  <AUTHOR>  (96) 
    GENERATED BY OPEN BABEL 3.1.1

>  <MASTER>  (96) 
        0    0    0    0    0    0    0    0   56    0   56    0

>  <minimizedAffinity>  (96) 
-6.46496

>  <CNNscore>  (96) 
0.5121133924

>  <CNNaffinity>  (96) 
4.1081409454

>  <CNN_VS>  (96) 
2.1038339138

>  <CNNaffinity_variance>  (96) 
0.0667139068

$$$$
97
     RDKit          3D

 43 45  0  0  0  0  0  0  0  0999 V2000
   23.5948   72.5840   -3.6215 P   0  0  2  0  0  0  0  0  0  0  0  0
   24.1325   71.1237   -3.1774 O   0  0  0  0  0  0  0  0  0  0  0  0
   24.6488   73.5147   -4.1457 O   0  0  0  0  0  0  0  0  0  0  0  0
   22.7764   73.1068   -2.3274 O   0  0  0  0  0  0  0  0  0  0  0  0
   21.7322   72.2989   -1.8161 C   0  0  0  0  0  0  0  0  0  0  0  0
   23.0991   72.4697    0.1537 O   0  0  0  0  0  0  0  0  0  0  0  0
   21.5698   70.1093    1.1935 O   0  0  0  0  0  0  0  0  0  0  0  0
   20.3930   72.1998    2.4900 O   0  0  0  0  0  0  0  0  0  0  0  0
   21.1135   71.2006    0.3937 C   0  0  1  0  0  0  0  0  0  0  0  0
   20.9916   72.4527    1.2361 C   0  0  2  0  0  0  0  0  0  0  0  0
   22.2297   71.5739   -0.5722 C   0  0  1  0  0  0  0  0  0  0  0  0
   22.4403   72.8932    1.3579 C   0  0  2  0  0  0  0  0  0  0  0  0
   20.8734   69.8529    1.8187 H   0  0  0  0  0  0  0  0  0  0  0  0
   19.4721   71.9230    2.3588 H   0  0  0  0  0  0  0  0  0  0  0  0
   22.3247   74.2918    3.8089 O   0  0  0  0  0  0  0  0  0  0  0  0
   22.9549   78.3563    1.7289 O   0  0  0  0  0  0  0  0  0  0  0  0
   22.5712   74.3171    1.4857 N   0  0  0  0  0  0  0  0  0  0  0  0
   22.6377   76.3149    2.7705 N   0  0  0  0  0  0  0  0  0  0  0  0
   22.4980   74.9208    2.7633 C   0  0  0  0  0  0  0  0  0  0  0  0
   22.7712   75.0995    0.3549 C   0  0  0  0  0  0  0  0  0  0  0  0
   22.9026   76.4273    0.3776 C   0  0  0  0  0  0  0  0  0  0  0  0
   22.8374   77.1360    1.6725 C   0  0  0  0  0  0  0  0  0  0  0  0
   22.5882   76.7579    3.6483 H   0  0  0  0  0  0  0  0  0  0  0  0
   22.4213   72.2333   -4.6764 O   0  0  0  0  0  0  0  0  0  0  0  0
   21.6867   73.1472   -5.7894 P   0  0  2  0  0  0  0  0  0  0  0  0
   22.6067   72.9389   -7.1049 O   0  0  0  0  0  0  0  0  0  0  0  0
   21.5020   74.5811   -5.3847 O   0  0  0  0  0  0  0  0  0  0  0  0
   20.3164   72.3638   -6.1227 O   0  0  0  0  0  0  0  0  0  0  0  0
   19.7125   70.1815   -5.4284 O   0  0  0  0  0  0  0  0  0  0  0  0
   17.5936   70.5583   -8.9550 O   0  0  0  0  0  0  0  0  0  0  0  0
   20.3470   71.5174   -8.7720 O   0  0  0  0  0  0  0  0  0  0  0  0
   16.2240   70.7727   -6.3997 O   0  0  0  0  0  0  0  0  0  0  0  0
   18.2064   71.0119   -7.7480 C   0  0  2  0  0  0  0  0  0  0  0  0
   19.7049   70.7115   -7.7907 C   0  0  2  0  0  0  0  0  0  0  0  0
   17.5491   70.2760   -6.5783 C   0  0  1  0  0  0  0  0  0  0  0  0
   20.3539   70.9714   -6.4305 C   0  0  1  0  0  0  0  0  0  0  0  0
   18.3267   70.4836   -5.2819 C   0  0  1  0  0  0  0  0  0  0  0  0
   17.9954   71.0124   -9.7123 H   0  0  0  0  0  0  0  0  0  0  0  0
   19.9400   71.3577   -9.6376 H   0  0  0  0  0  0  0  0  0  0  0  0
   15.7185   70.6467   -7.2179 H   0  0  0  0  0  0  0  0  0  0  0  0
   18.7186   69.5436   -3.1690 O   0  0  0  0  0  0  0  0  0  0  0  0
   16.8976   68.7948   -4.3190 O   0  0  0  0  0  0  0  0  0  0  0  0
   17.8811   69.5151   -4.2351 C   0  0  0  0  0  0  0  0  0  0  0  0
  1  4  1  0
  1 24  1  0
  1  2  1  1
  1  3  2  0
 25 28  1  0
 25 24  1  0
 25 26  1  6
 25 27  2  0
  6 11  1  0
  6 12  1  0
 29 36  1  0
 29 37  1  0
  9  7  1  1
  7 13  1  0
 10  8  1  1
  8 14  1  0
  4  5  1  0
 36 28  1  1
 33 30  1  6
 30 38  1  0
 34 31  1  6
 31 39  1  0
 35 32  1  1
 32 40  1  0
 41 43  1  0
 15 19  2  0
 42 43  2  0
 16 22  2  0
 12 17  1  6
 17 19  1  0
 17 20  1  0
 18 19  1  0
 18 22  1  0
 18 23  1  0
  9 10  1  0
  9 11  1  0
 10 12  1  0
 11  5  1  6
 33 34  1  0
 33 35  1  0
 34 36  1  0
 35 37  1  0
 37 43  1  1
 20 21  2  0
 21 22  1  0
M  CHG  3   2  -1  26  -1  41  -1
M  END
>  <COMPND>  (97) 
    udp_gluA.pdb 

>  <AUTHOR>  (97) 
    GENERATED BY OPEN BABEL 3.1.1

>  <MASTER>  (97) 
        0    0    0    0    0    0    0    0   56    0   56    0

>  <minimizedAffinity>  (97) 
-7.35741

>  <CNNscore>  (97) 
0.4480710030

>  <CNNaffinity>  (97) 
4.2112722397

>  <CNN_VS>  (97) 
1.8869489431

>  <CNNaffinity_variance>  (97) 
0.1204036102

$$$$
98
     RDKit          3D

 43 45  0  0  0  0  0  0  0  0999 V2000
   18.6858   73.1953   -3.2640 P   0  0  2  0  0  0  0  0  0  0  0  0
   19.0446   74.4869   -2.3574 O   0  0  0  0  0  0  0  0  0  0  0  0
   17.3865   73.2855   -4.0093 O   0  0  0  0  0  0  0  0  0  0  0  0
   18.8228   71.9509   -2.2389 O   0  0  0  0  0  0  0  0  0  0  0  0
   19.2480   72.2103   -0.9136 C   0  0  0  0  0  0  0  0  0  0  0  0
   21.2980   71.1499   -1.5848 O   0  0  0  0  0  0  0  0  0  0  0  0
   21.6245   70.3787    1.2944 O   0  0  0  0  0  0  0  0  0  0  0  0
   23.2923   72.5233    1.0592 O   0  0  0  0  0  0  0  0  0  0  0  0
   21.0776   71.5732    0.7353 C   0  0  1  0  0  0  0  0  0  0  0  0
   22.1839   72.4496    0.1871 C   0  0  2  0  0  0  0  0  0  0  0  0
   20.3156   71.1948   -0.5274 C   0  0  1  0  0  0  0  0  0  0  0  0
   22.5158   71.7558   -1.1231 C   0  0  2  0  0  0  0  0  0  0  0  0
   22.1162   70.5952    2.1026 H   0  0  0  0  0  0  0  0  0  0  0  0
   23.0299   72.9733    1.8782 H   0  0  0  0  0  0  0  0  0  0  0  0
   24.2001   71.0358   -3.2728 O   0  0  0  0  0  0  0  0  0  0  0  0
   24.2744   75.3483   -4.8978 O   0  0  0  0  0  0  0  0  0  0  0  0
   22.9904   72.6705   -2.1225 N   0  0  0  0  0  0  0  0  0  0  0  0
   24.2363   73.1846   -4.0795 N   0  0  0  0  0  0  0  0  0  0  0  0
   23.8327   72.2069   -3.1607 C   0  0  0  0  0  0  0  0  0  0  0  0
   22.6206   74.0089   -2.0695 C   0  0  0  0  0  0  0  0  0  0  0  0
   23.0132   74.9291   -2.9527 C   0  0  0  0  0  0  0  0  0  0  0  0
   23.8953   74.5274   -4.0680 C   0  0  0  0  0  0  0  0  0  0  0  0
   24.8248   72.8861   -4.8102 H   0  0  0  0  0  0  0  0  0  0  0  0
   19.9915   73.0375   -4.2037 O   0  0  0  0  0  0  0  0  0  0  0  0
   20.2544   73.4749   -5.7377 P   0  0  2  0  0  0  0  0  0  0  0  0
   21.7703   72.9766   -6.0098 O   0  0  0  0  0  0  0  0  0  0  0  0
   20.0245   74.9332   -6.0102 O   0  0  0  0  0  0  0  0  0  0  0  0
   19.3350   72.4775   -6.6110 O   0  0  0  0  0  0  0  0  0  0  0  0
   18.9864   70.2685   -5.8314 O   0  0  0  0  0  0  0  0  0  0  0  0
   17.7920   69.9666   -9.7747 O   0  0  0  0  0  0  0  0  0  0  0  0
   20.1864   71.4821   -9.0646 O   0  0  0  0  0  0  0  0  0  0  0  0
   15.8078   70.0630   -7.6523 O   0  0  0  0  0  0  0  0  0  0  0  0
   17.9872   70.6156   -8.5183 C   0  0  2  0  0  0  0  0  0  0  0  0
   19.4769   70.6281   -8.1747 C   0  0  2  0  0  0  0  0  0  0  0  0
   17.2030   69.8391   -7.4581 C   0  0  1  0  0  0  0  0  0  0  0  0
   19.7034   71.1055   -6.7396 C   0  0  1  0  0  0  0  0  0  0  0  0
   17.5773   70.2878   -6.0484 C   0  0  1  0  0  0  0  0  0  0  0  0
   18.2812   70.4426  -10.4642 H   0  0  0  0  0  0  0  0  0  0  0  0
   20.0469   71.1851   -9.9771 H   0  0  0  0  0  0  0  0  0  0  0  0
   15.5565   69.7817   -8.5460 H   0  0  0  0  0  0  0  0  0  0  0  0
   17.7653   69.4309   -3.8731 O   0  0  0  0  0  0  0  0  0  0  0  0
   16.1487   68.5345   -5.2080 O   0  0  0  0  0  0  0  0  0  0  0  0
   17.0679   69.3197   -5.0308 C   0  0  0  0  0  0  0  0  0  0  0  0
  1  4  1  0
  1 24  1  0
  1  2  1  1
  1  3  2  0
 25 28  1  0
 25 24  1  0
 25 26  1  6
 25 27  2  0
  6 11  1  0
  6 12  1  0
 29 36  1  0
 29 37  1  0
  9  7  1  6
  7 13  1  0
 10  8  1  1
  8 14  1  0
  4  5  1  0
 36 28  1  6
 33 30  1  6
 30 38  1  0
 34 31  1  6
 31 39  1  0
 35 32  1  6
 32 40  1  0
 41 43  1  0
 15 19  2  0
 42 43  2  0
 16 22  2  0
 12 17  1  6
 17 19  1  0
 17 20  1  0
 18 19  1  0
 18 22  1  0
 18 23  1  0
  9 10  1  0
  9 11  1  0
 10 12  1  0
 11  5  1  6
 33 34  1  0
 33 35  1  0
 34 36  1  0
 35 37  1  0
 37 43  1  1
 20 21  2  0
 21 22  1  0
M  CHG  3   2  -1  26  -1  41  -1
M  END
>  <COMPND>  (98) 
    udp_gluA.pdb 

>  <AUTHOR>  (98) 
    GENERATED BY OPEN BABEL 3.1.1

>  <MASTER>  (98) 
        0    0    0    0    0    0    0    0   56    0   56    0

>  <minimizedAffinity>  (98) 
-7.52126

>  <CNNscore>  (98) 
0.4468058944

>  <CNNaffinity>  (98) 
4.0483064651

>  <CNN_VS>  (98) 
1.8088071346

>  <CNNaffinity_variance>  (98) 
0.6469240189

$$$$
99
     RDKit          3D

 43 45  0  0  0  0  0  0  0  0999 V2000
   22.9841   71.8109   -2.5845 P   0  0  2  0  0  0  0  0  0  0  0  0
   24.2701   70.9569   -3.0700 O   0  0  0  0  0  0  0  0  0  0  0  0
   21.7823   70.9918   -2.2151 O   0  0  0  0  0  0  0  0  0  0  0  0
   22.7624   72.8880   -3.7714 O   0  0  0  0  0  0  0  0  0  0  0  0
   21.4995   72.9409   -4.4092 C   0  0  0  0  0  0  0  0  0  0  0  0
   20.8458   70.8892   -5.4774 O   0  0  0  0  0  0  0  0  0  0  0  0
   21.4234   72.2739   -8.0736 O   0  0  0  0  0  0  0  0  0  0  0  0
   18.7053   72.4208   -7.9118 O   0  0  0  0  0  0  0  0  0  0  0  0
   20.8685   72.8051   -6.8701 C   0  0  1  0  0  0  0  0  0  0  0  0
   19.4358   72.3441   -6.7055 C   0  0  2  0  0  0  0  0  0  0  0  0
   21.5586   72.1261   -5.6949 C   0  0  1  0  0  0  0  0  0  0  0  0
   19.6177   70.9155   -6.2218 C   0  0  2  0  0  0  0  0  0  0  0  0
   20.9980   72.6928   -8.8386 H   0  0  0  0  0  0  0  0  0  0  0  0
   18.6166   73.3500   -8.1775 H   0  0  0  0  0  0  0  0  0  0  0  0
   17.1657   69.8653   -7.1501 O   0  0  0  0  0  0  0  0  0  0  0  0
   15.5767   69.2955   -2.8612 O   0  0  0  0  0  0  0  0  0  0  0  0
   18.5457   70.4849   -5.3695 N   0  0  0  0  0  0  0  0  0  0  0  0
   16.3762   69.5835   -5.0131 N   0  0  0  0  0  0  0  0  0  0  0  0
   17.3551   69.9725   -5.9370 C   0  0  0  0  0  0  0  0  0  0  0  0
   18.6800   70.5705   -3.9891 C   0  0  0  0  0  0  0  0  0  0  0  0
   17.7382   70.1956   -3.1212 C   0  0  0  0  0  0  0  0  0  0  0  0
   16.4635   69.6501   -3.6320 C   0  0  0  0  0  0  0  0  0  0  0  0
   15.5377   69.2255   -5.3845 H   0  0  0  0  0  0  0  0  0  0  0  0
   23.5799   72.7124   -1.3824 O   0  0  0  0  0  0  0  0  0  0  0  0
   23.5585   72.4939    0.2193 P   0  0  2  0  0  0  0  0  0  0  0  0
   24.7228   73.4886    0.7439 O   0  0  0  0  0  0  0  0  0  0  0  0
   23.7264   71.0649    0.6482 O   0  0  0  0  0  0  0  0  0  0  0  0
   22.1840   73.1825    0.7080 O   0  0  0  0  0  0  0  0  0  0  0  0
   21.8702   72.4227    2.9292 O   0  0  0  0  0  0  0  0  0  0  0  0
   18.7138   75.0512    2.4860 O   0  0  0  0  0  0  0  0  0  0  0  0
   19.4291   73.2185    0.3264 O   0  0  0  0  0  0  0  0  0  0  0  0
   21.0470   75.8215    4.0395 O   0  0  0  0  0  0  0  0  0  0  0  0
   20.0311   74.5475    2.2647 C   0  0  2  0  0  0  0  0  0  0  0  0
   19.9482   73.1504    1.6495 C   0  0  2  0  0  0  0  0  0  0  0  0
   20.7494   74.4928    3.6149 C   0  0  1  0  0  0  0  0  0  0  0  0
   21.3257   72.4871    1.6105 C   0  0  1  0  0  0  0  0  0  0  0  0
   22.0542   73.7072    3.5203 C   0  0  1  0  0  0  0  0  0  0  0  0
   18.2381   75.0948    1.6415 H   0  0  0  0  0  0  0  0  0  0  0  0
   18.5553   73.6385    0.3436 H   0  0  0  0  0  0  0  0  0  0  0  0
   20.2249   76.3323    4.1036 H   0  0  0  0  0  0  0  0  0  0  0  0
   21.6540   73.6751    5.8312 O   0  0  0  0  0  0  0  0  0  0  0  0
   23.6773   72.9052    5.1152 O   0  0  0  0  0  0  0  0  0  0  0  0
   22.5753   73.3785    4.8814 C   0  0  0  0  0  0  0  0  0  0  0  0
  1  4  1  0
  1 24  1  0
  1  2  1  6
  1  3  2  0
 25 28  1  0
 25 24  1  0
 25 26  1  1
 25 27  2  0
  6 11  1  0
  6 12  1  0
 29 36  1  0
 29 37  1  0
  9  7  1  6
  7 13  1  0
 10  8  1  6
  8 14  1  0
  4  5  1  0
 36 28  1  6
 33 30  1  1
 30 38  1  0
 34 31  1  6
 31 39  1  0
 35 32  1  6
 32 40  1  0
 41 43  1  0
 15 19  2  0
 42 43  2  0
 16 22  2  0
 12 17  1  1
 17 19  1  0
 17 20  1  0
 18 19  1  0
 18 22  1  0
 18 23  1  0
  9 10  1  0
  9 11  1  0
 10 12  1  0
 11  5  1  1
 33 34  1  0
 33 35  1  0
 34 36  1  0
 35 37  1  0
 37 43  1  1
 20 21  2  0
 21 22  1  0
M  CHG  3   2  -1  26  -1  41  -1
M  END
>  <COMPND>  (99) 
    udp_gluA.pdb 

>  <AUTHOR>  (99) 
    GENERATED BY OPEN BABEL 3.1.1

>  <MASTER>  (99) 
        0    0    0    0    0    0    0    0   56    0   56    0

>  <minimizedAffinity>  (99) 
-6.65138

>  <CNNscore>  (99) 
0.4452323616

>  <CNNaffinity>  (99) 
4.0275912285

>  <CNN_VS>  (99) 
1.7932139635

>  <CNNaffinity_variance>  (99) 
0.1658760607

$$$$
100
     RDKit          3D

 43 45  0  0  0  0  0  0  0  0999 V2000
   23.5494   72.4039   -3.0861 P   0  0  2  0  0  0  0  0  0  0  0  0
   24.2222   70.9410   -3.2477 O   0  0  0  0  0  0  0  0  0  0  0  0
   24.4394   73.5548   -3.4538 O   0  0  0  0  0  0  0  0  0  0  0  0
   22.9870   72.4075   -1.5689 O   0  0  0  0  0  0  0  0  0  0  0  0
   23.5469   71.4993   -0.6382 C   0  0  0  0  0  0  0  0  0  0  0  0
   23.1644   70.4783    1.5040 O   0  0  0  0  0  0  0  0  0  0  0  0
   20.5938   72.0207    1.5720 O   0  0  0  0  0  0  0  0  0  0  0  0
   22.2221   73.5052    3.1785 O   0  0  0  0  0  0  0  0  0  0  0  0
   21.8630   72.4027    1.0413 C   0  0  1  0  0  0  0  0  0  0  0  0
   22.8244   72.7281    2.1647 C   0  0  2  0  0  0  0  0  0  0  0  0
   22.5036   71.1684    0.4212 C   0  0  1  0  0  0  0  0  0  0  0  0
   23.2243   71.3445    2.6483 C   0  0  2  0  0  0  0  0  0  0  0  0
   20.1652   72.7930    1.9738 H   0  0  0  0  0  0  0  0  0  0  0  0
   21.9862   74.3762    2.8211 H   0  0  0  0  0  0  0  0  0  0  0  0
   23.8270   71.1547    5.4009 O   0  0  0  0  0  0  0  0  0  0  0  0
   28.3652   71.2418    4.5998 O   0  0  0  0  0  0  0  0  0  0  0  0
   24.5548   71.3156    3.1866 N   0  0  0  0  0  0  0  0  0  0  0  0
   26.0867   71.1993    4.9993 N   0  0  0  0  0  0  0  0  0  0  0  0
   24.7484   71.2186    4.5849 C   0  0  0  0  0  0  0  0  0  0  0  0
   25.6497   71.3811    2.3336 C   0  0  0  0  0  0  0  0  0  0  0  0
   26.9195   71.3616    2.7435 C   0  0  0  0  0  0  0  0  0  0  0  0
   27.2088   71.2627    4.1891 C   0  0  0  0  0  0  0  0  0  0  0  0
   26.2467   71.1343    5.9686 H   0  0  0  0  0  0  0  0  0  0  0  0
   22.2029   72.2840   -3.9724 O   0  0  0  0  0  0  0  0  0  0  0  0
   21.7775   72.9988   -5.3587 P   0  0  2  0  0  0  0  0  0  0  0  0
   22.8447   72.4073   -6.4225 O   0  0  0  0  0  0  0  0  0  0  0  0
   21.7375   74.4981   -5.2914 O   0  0  0  0  0  0  0  0  0  0  0  0
   20.3760   72.3091   -5.7615 O   0  0  0  0  0  0  0  0  0  0  0  0
   19.5888   70.1127   -5.3550 O   0  0  0  0  0  0  0  0  0  0  0  0
   17.7971   70.9917   -8.9723 O   0  0  0  0  0  0  0  0  0  0  0  0
   20.5773   71.7392   -8.4765 O   0  0  0  0  0  0  0  0  0  0  0  0
   16.2343   71.0342   -6.5214 O   0  0  0  0  0  0  0  0  0  0  0  0
   18.3328   71.2766   -7.6801 C   0  0  2  0  0  0  0  0  0  0  0  0
   19.8093   70.8819   -7.6399 C   0  0  2  0  0  0  0  0  0  0  0  0
   17.5381   70.4703   -6.6504 C   0  0  1  0  0  0  0  0  0  0  0  0
   20.3569   70.9564   -6.2139 C   0  0  1  0  0  0  0  0  0  0  0  0
   18.2158   70.4908   -5.2834 C   0  0  1  0  0  0  0  0  0  0  0  0
   18.2867   71.4932   -9.6433 H   0  0  0  0  0  0  0  0  0  0  0  0
   20.2352   71.6972   -9.3829 H   0  0  0  0  0  0  0  0  0  0  0  0
   15.7922   71.0273   -7.3847 H   0  0  0  0  0  0  0  0  0  0  0  0
   18.5338   69.0542   -3.4567 O   0  0  0  0  0  0  0  0  0  0  0  0
   16.4892   69.0172   -4.4655 O   0  0  0  0  0  0  0  0  0  0  0  0
   17.6283   69.4520   -4.3844 C   0  0  0  0  0  0  0  0  0  0  0  0
  1  4  1  0
  1 24  1  0
  1  2  1  1
  1  3  2  0
 25 28  1  0
 25 24  1  0
 25 26  1  6
 25 27  2  0
  6 11  1  0
  6 12  1  0
 29 36  1  0
 29 37  1  0
  9  7  1  1
  7 13  1  0
 10  8  1  1
  8 14  1  0
  4  5  1  0
 36 28  1  1
 33 30  1  6
 30 38  1  0
 34 31  1  6
 31 39  1  0
 35 32  1  1
 32 40  1  0
 41 43  1  0
 15 19  2  0
 42 43  2  0
 16 22  2  0
 12 17  1  6
 17 19  1  0
 17 20  1  0
 18 19  1  0
 18 22  1  0
 18 23  1  0
  9 10  1  0
  9 11  1  0
 10 12  1  0
 11  5  1  6
 33 34  1  0
 33 35  1  0
 34 36  1  0
 35 37  1  0
 37 43  1  1
 20 21  2  0
 21 22  1  0
M  CHG  3   2  -1  26  -1  41  -1
M  END
>  <COMPND>  (100) 
    udp_gluA.pdb 

>  <AUTHOR>  (100) 
    GENERATED BY OPEN BABEL 3.1.1

>  <MASTER>  (100) 
        0    0    0    0    0    0    0    0   56    0   56    0

>  <minimizedAffinity>  (100) 
-8.10318

>  <CNNscore>  (100) 
0.4332741499

>  <CNNaffinity>  (100) 
4.1494688988

>  <CNN_VS>  (100) 
1.7978576422

>  <CNNaffinity_variance>  (100) 
0.1411183178

$$$$
101
     RDKit          3D

 43 45  0  0  0  0  0  0  0  0999 V2000
   21.0811   71.8023   -1.6321 P   0  0  2  0  0  0  0  0  0  0  0  0
   22.2399   71.1284   -0.7255 O   0  0  0  0  0  0  0  0  0  0  0  0
   20.3902   72.9781   -1.0061 O   0  0  0  0  0  0  0  0  0  0  0  0
   20.1273   70.5578   -2.0314 O   0  0  0  0  0  0  0  0  0  0  0  0
   19.6631   70.4626   -3.3656 C   0  0  0  0  0  0  0  0  0  0  0  0
   17.9403   71.5512   -4.6401 O   0  0  0  0  0  0  0  0  0  0  0  0
   15.9861   70.0609   -2.9221 O   0  0  0  0  0  0  0  0  0  0  0  0
   16.0012   68.5918   -5.2194 O   0  0  0  0  0  0  0  0  0  0  0  0
   17.2564   69.6398   -3.4198 C   0  0  1  0  0  0  0  0  0  0  0  0
   17.1628   69.3281   -4.8984 C   0  0  2  0  0  0  0  0  0  0  0  0
   18.1888   70.8434   -3.4062 C   0  0  1  0  0  0  0  0  0  0  0  0
   17.1635   70.7169   -5.5141 C   0  0  2  0  0  0  0  0  0  0  0  0
   15.3732   69.3086   -2.9213 H   0  0  0  0  0  0  0  0  0  0  0  0
   16.0488   67.7157   -4.8045 H   0  0  0  0  0  0  0  0  0  0  0  0
   15.7542   70.1934   -7.9049 O   0  0  0  0  0  0  0  0  0  0  0  0
   19.5259   70.8169  -10.4797 O   0  0  0  0  0  0  0  0  0  0  0  0
   17.7527   70.7358   -6.8231 N   0  0  0  0  0  0  0  0  0  0  0  0
   17.6343   70.5034   -9.1849 N   0  0  0  0  0  0  0  0  0  0  0  0
   16.9566   70.4584   -7.9595 C   0  0  0  0  0  0  0  0  0  0  0  0
   19.1030   71.0280   -6.9718 C   0  0  0  0  0  0  0  0  0  0  0  0
   19.7349   71.0672   -8.1465 C   0  0  0  0  0  0  0  0  0  0  0  0
   18.9756   70.7886   -9.3830 C   0  0  0  0  0  0  0  0  0  0  0  0
   17.1013   70.3117   -9.9902 H   0  0  0  0  0  0  0  0  0  0  0  0
   21.8484   72.1308   -3.0164 O   0  0  0  0  0  0  0  0  0  0  0  0
   23.3275   72.7205   -3.2960 P   0  0  2  0  0  0  0  0  0  0  0  0
   24.2434   71.3895   -3.3965 O   0  0  0  0  0  0  0  0  0  0  0  0
   23.7958   73.7178   -2.2762 O   0  0  0  0  0  0  0  0  0  0  0  0
   23.2640   73.2860   -4.8055 O   0  0  0  0  0  0  0  0  0  0  0  0
   21.1866   74.4147   -4.9451 O   0  0  0  0  0  0  0  0  0  0  0  0
   22.8361   75.2290   -8.6443 O   0  0  0  0  0  0  0  0  0  0  0  0
   23.0535   72.5578   -7.4816 O   0  0  0  0  0  0  0  0  0  0  0  0
   22.7856   77.2808   -6.5856 O   0  0  0  0  0  0  0  0  0  0  0  0
   22.8488   74.9634   -7.2418 C   0  0  2  0  0  0  0  0  0  0  0  0
   22.2217   73.5949   -6.9743 C   0  0  2  0  0  0  0  0  0  0  0  0
   22.0442   76.0629   -6.5449 C   0  0  1  0  0  0  0  0  0  0  0  0
   22.0082   73.3743   -5.4762 C   0  0  1  0  0  0  0  0  0  0  0  0
   21.7654   75.7101   -5.0867 C   0  0  1  0  0  0  0  0  0  0  0  0
   23.3415   74.5428   -9.1081 H   0  0  0  0  0  0  0  0  0  0  0  0
   23.1933   72.6917   -8.4318 H   0  0  0  0  0  0  0  0  0  0  0  0
   22.9698   77.5165   -7.5083 H   0  0  0  0  0  0  0  0  0  0  0  0
   19.8160   75.8969   -3.7958 O   0  0  0  0  0  0  0  0  0  0  0  0
   20.6762   77.8213   -4.6651 O   0  0  0  0  0  0  0  0  0  0  0  0
   20.7188   76.6096   -4.5141 C   0  0  0  0  0  0  0  0  0  0  0  0
  1  4  1  0
  1 24  1  0
  1  2  1  1
  1  3  2  0
 25 28  1  0
 25 24  1  0
 25 26  1  6
 25 27  2  0
  6 11  1  0
  6 12  1  0
 29 36  1  0
 29 37  1  0
  9  7  1  6
  7 13  1  0
 10  8  1  1
  8 14  1  0
  4  5  1  0
 36 28  1  1
 33 30  1  6
 30 38  1  0
 34 31  1  1
 31 39  1  0
 35 32  1  1
 32 40  1  0
 41 43  1  0
 15 19  2  0
 42 43  2  0
 16 22  2  0
 12 17  1  6
 17 19  1  0
 17 20  1  0
 18 19  1  0
 18 22  1  0
 18 23  1  0
  9 10  1  0
  9 11  1  0
 10 12  1  0
 11  5  1  6
 33 34  1  0
 33 35  1  0
 34 36  1  0
 35 37  1  0
 37 43  1  6
 20 21  2  0
 21 22  1  0
M  CHG  3   2  -1  26  -1  41  -1
M  END
>  <COMPND>  (101) 
    udp_gluA.pdb 

>  <AUTHOR>  (101) 
    GENERATED BY OPEN BABEL 3.1.1

>  <MASTER>  (101) 
        0    0    0    0    0    0    0    0   56    0   56    0

>  <minimizedAffinity>  (101) 
-7.34500

>  <CNNscore>  (101) 
0.9333885312

>  <CNNaffinity>  (101) 
4.7701201439

>  <CNN_VS>  (101) 
4.4523754120

>  <CNNaffinity_variance>  (101) 
0.4249331951

$$$$
102
     RDKit          3D

 43 45  0  0  0  0  0  0  0  0999 V2000
   21.3263   72.7421   -4.0832 P   0  0  2  0  0  0  0  0  0  0  0  0
   20.4937   74.0670   -3.6704 O   0  0  0  0  0  0  0  0  0  0  0  0
   22.3819   72.9572   -5.1278 O   0  0  0  0  0  0  0  0  0  0  0  0
   20.1796   71.6628   -4.4549 O   0  0  0  0  0  0  0  0  0  0  0  0
   19.5542   70.9513   -3.4027 C   0  0  0  0  0  0  0  0  0  0  0  0
   17.7430   71.7819   -4.7472 O   0  0  0  0  0  0  0  0  0  0  0  0
   15.9278   70.2501   -2.9168 O   0  0  0  0  0  0  0  0  0  0  0  0
   16.0833   68.6235   -5.0999 O   0  0  0  0  0  0  0  0  0  0  0  0
   17.2326   69.9110   -3.3871 C   0  0  1  0  0  0  0  0  0  0  0  0
   17.1721   69.4842   -4.8384 C   0  0  2  0  0  0  0  0  0  0  0  0
   18.0514   71.1922   -3.4656 C   0  0  1  0  0  0  0  0  0  0  0  0
   17.0480   70.8183   -5.5545 C   0  0  2  0  0  0  0  0  0  0  0  0
   15.3860   69.4472   -2.8583 H   0  0  0  0  0  0  0  0  0  0  0  0
   16.2094   67.7883   -4.6219 H   0  0  0  0  0  0  0  0  0  0  0  0
   15.6610   70.1228   -7.9144 O   0  0  0  0  0  0  0  0  0  0  0  0
   19.4076   70.7610  -10.5220 O   0  0  0  0  0  0  0  0  0  0  0  0
   17.6367   70.7944   -6.8636 N   0  0  0  0  0  0  0  0  0  0  0  0
   17.5286   70.4404   -9.2108 N   0  0  0  0  0  0  0  0  0  0  0  0
   16.8524   70.4305   -7.9837 C   0  0  0  0  0  0  0  0  0  0  0  0
   18.9750   71.1302   -7.0285 C   0  0  0  0  0  0  0  0  0  0  0  0
   19.6056   71.1351   -8.2045 C   0  0  0  0  0  0  0  0  0  0  0  0
   18.8581   70.7663   -9.4246 C   0  0  0  0  0  0  0  0  0  0  0  0
   17.0038   70.1886  -10.0048 H   0  0  0  0  0  0  0  0  0  0  0  0
   21.8831   72.2064   -2.6634 O   0  0  0  0  0  0  0  0  0  0  0  0
   23.3740   72.2102   -2.0383 P   0  0  2  0  0  0  0  0  0  0  0  0
   23.9070   73.7039   -2.3621 O   0  0  0  0  0  0  0  0  0  0  0  0
   24.2600   71.1125   -2.5521 O   0  0  0  0  0  0  0  0  0  0  0  0
   23.1481   72.1959   -0.4410 O   0  0  0  0  0  0  0  0  0  0  0  0
   23.8273   70.5684    1.1399 O   0  0  0  0  0  0  0  0  0  0  0  0
   20.3835   72.0448    2.8800 O   0  0  0  0  0  0  0  0  0  0  0  0
   20.4859   71.5263    0.0068 O   0  0  0  0  0  0  0  0  0  0  0  0
   22.9881   72.8223    3.9107 O   0  0  0  0  0  0  0  0  0  0  0  0
   21.5755   72.1022    2.0966 C   0  0  2  0  0  0  0  0  0  0  0  0
   21.4758   71.1079    0.9394 C   0  0  2  0  0  0  0  0  0  0  0  0
   22.7553   71.7462    3.0040 C   0  0  1  0  0  0  0  0  0  0  0  0
   22.8165   70.9740    0.2161 C   0  0  1  0  0  0  0  0  0  0  0  0
   24.0270   71.5057    2.1957 C   0  0  1  0  0  0  0  0  0  0  0  0
   19.6201   72.2674    2.3242 H   0  0  0  0  0  0  0  0  0  0  0  0
   19.6325   71.6136    0.4591 H   0  0  0  0  0  0  0  0  0  0  0  0
   22.1861   72.9857    4.4313 H   0  0  0  0  0  0  0  0  0  0  0  0
   25.7863   71.7724    3.7239 O   0  0  0  0  0  0  0  0  0  0  0  0
   25.2639   69.6422    3.1006 O   0  0  0  0  0  0  0  0  0  0  0  0
   25.0728   70.8473    3.0354 C   0  0  0  0  0  0  0  0  0  0  0  0
  1  4  1  0
  1 24  1  0
  1  2  1  1
  1  3  2  0
 25 28  1  0
 25 24  1  0
 25 26  1  1
 25 27  2  0
  6 11  1  0
  6 12  1  0
 29 36  1  0
 29 37  1  0
  9  7  1  6
  7 13  1  0
 10  8  1  1
  8 14  1  0
  4  5  1  0
 36 28  1  1
 33 30  1  1
 30 38  1  0
 34 31  1  6
 31 39  1  0
 35 32  1  1
 32 40  1  0
 41 43  1  0
 15 19  2  0
 42 43  2  0
 16 22  2  0
 12 17  1  6
 17 19  1  0
 17 20  1  0
 18 19  1  0
 18 22  1  0
 18 23  1  0
  9 10  1  0
  9 11  1  0
 10 12  1  0
 11  5  1  6
 33 34  1  0
 33 35  1  0
 34 36  1  0
 35 37  1  0
 37 43  1  1
 20 21  2  0
 21 22  1  0
M  CHG  3   2  -1  26  -1  41  -1
M  END
>  <COMPND>  (102) 
    udp_gluA.pdb 

>  <AUTHOR>  (102) 
    GENERATED BY OPEN BABEL 3.1.1

>  <MASTER>  (102) 
        0    0    0    0    0    0    0    0   56    0   56    0

>  <minimizedAffinity>  (102) 
-8.13239

>  <CNNscore>  (102) 
0.8639634848

>  <CNNaffinity>  (102) 
4.6854090691

>  <CNN_VS>  (102) 
4.0480222702

>  <CNNaffinity_variance>  (102) 
0.0538020842

$$$$
103
     RDKit          3D

 43 45  0  0  0  0  0  0  0  0999 V2000
   23.2003   71.8517   -2.3567 P   0  0  2  0  0  0  0  0  0  0  0  0
   23.7522   73.3194   -1.9567 O   0  0  0  0  0  0  0  0  0  0  0  0
   24.1513   71.0147   -3.1610 O   0  0  0  0  0  0  0  0  0  0  0  0
   21.7688   72.1503   -3.0492 O   0  0  0  0  0  0  0  0  0  0  0  0
   21.0303   71.0614   -3.5720 C   0  0  0  0  0  0  0  0  0  0  0  0
   18.9296   71.8064   -4.4718 O   0  0  0  0  0  0  0  0  0  0  0  0
   17.6452   70.3344   -2.1969 O   0  0  0  0  0  0  0  0  0  0  0  0
   17.3093   68.6136   -4.2855 O   0  0  0  0  0  0  0  0  0  0  0  0
   18.8061   69.9919   -2.9542 C   0  0  1  0  0  0  0  0  0  0  0  0
   18.4083   69.4996   -4.3296 C   0  0  2  0  0  0  0  0  0  0  0  0
   19.5513   71.2791   -3.2798 C   0  0  1  0  0  0  0  0  0  0  0  0
   18.0838   70.7984   -5.0478 C   0  0  2  0  0  0  0  0  0  0  0  0
   17.1526   69.5277   -1.9770 H   0  0  0  0  0  0  0  0  0  0  0  0
   17.5666   67.8024   -3.8188 H   0  0  0  0  0  0  0  0  0  0  0  0
   16.2346   69.8434   -6.9570 O   0  0  0  0  0  0  0  0  0  0  0  0
   19.1768   70.5565  -10.4324 O   0  0  0  0  0  0  0  0  0  0  0  0
   18.3406   70.7236   -6.4582 N   0  0  0  0  0  0  0  0  0  0  0  0
   17.7021   70.1985   -8.6860 N   0  0  0  0  0  0  0  0  0  0  0  0
   17.3439   70.2279   -7.3318 C   0  0  0  0  0  0  0  0  0  0  0  0
   19.5666   71.1395   -6.9630 C   0  0  0  0  0  0  0  0  0  0  0  0
   19.8934   71.1056   -8.2564 C   0  0  0  0  0  0  0  0  0  0  0  0
   18.9087   70.6006   -9.2356 C   0  0  0  0  0  0  0  0  0  0  0  0
   17.0253   69.8554   -9.3133 H   0  0  0  0  0  0  0  0  0  0  0  0
   22.7877   71.2175   -0.9283 O   0  0  0  0  0  0  0  0  0  0  0  0
   21.7208   71.7085    0.1827 P   0  0  2  0  0  0  0  0  0  0  0  0
   20.6032   70.5377    0.1653 O   0  0  0  0  0  0  0  0  0  0  0  0
   21.1758   73.0873   -0.0540 O   0  0  0  0  0  0  0  0  0  0  0  0
   22.4831   71.5229    1.5923 O   0  0  0  0  0  0  0  0  0  0  0  0
   23.1743   73.2880    3.0120 O   0  0  0  0  0  0  0  0  0  0  0  0
   25.7965   70.2779    4.0755 O   0  0  0  0  0  0  0  0  0  0  0  0
   25.1322   70.7399    1.2684 O   0  0  0  0  0  0  0  0  0  0  0  0
   23.5706   70.9570    5.8176 O   0  0  0  0  0  0  0  0  0  0  0  0
   24.5595   70.8294    3.6243 C   0  0  2  0  0  0  0  0  0  0  0  0
   24.7908   71.6178    2.3349 C   0  0  2  0  0  0  0  0  0  0  0  0
   24.0239   71.7507    4.7226 C   0  0  1  0  0  0  0  0  0  0  0  0
   23.5418   72.4105    1.9469 C   0  0  1  0  0  0  0  0  0  0  0  0
   22.8591   72.5985    4.2196 C   0  0  1  0  0  0  0  0  0  0  0  0
   26.1560   69.6888    3.3936 H   0  0  0  0  0  0  0  0  0  0  0  0
   25.9238   70.2334    1.5079 H   0  0  0  0  0  0  0  0  0  0  0  0
   24.3025   70.4124    6.1470 H   0  0  0  0  0  0  0  0  0  0  0  0
   22.5585   74.9039    4.5297 O   0  0  0  0  0  0  0  0  0  0  0  0
   22.3472   73.5710    6.3675 O   0  0  0  0  0  0  0  0  0  0  0  0
   22.5616   73.7100    5.1727 C   0  0  0  0  0  0  0  0  0  0  0  0
  1  4  1  0
  1 24  1  0
  1  2  1  1
  1  3  2  0
 25 28  1  0
 25 24  1  0
 25 26  1  1
 25 27  2  0
  6 11  1  0
  6 12  1  0
 29 36  1  0
 29 37  1  0
  9  7  1  1
  7 13  1  0
 10  8  1  1
  8 14  1  0
  4  5  1  0
 36 28  1  1
 33 30  1  1
 30 38  1  0
 34 31  1  6
 31 39  1  0
 35 32  1  1
 32 40  1  0
 41 43  1  0
 15 19  2  0
 42 43  2  0
 16 22  2  0
 12 17  1  6
 17 19  1  0
 17 20  1  0
 18 19  1  0
 18 22  1  0
 18 23  1  0
  9 10  1  0
  9 11  1  0
 10 12  1  0
 11  5  1  6
 33 34  1  0
 33 35  1  0
 34 36  1  0
 35 37  1  0
 37 43  1  1
 20 21  2  0
 21 22  1  0
M  CHG  3   2  -1  26  -1  41  -1
M  END
>  <COMPND>  (103) 
    udp_gluA.pdb 

>  <AUTHOR>  (103) 
    GENERATED BY OPEN BABEL 3.1.1

>  <MASTER>  (103) 
        0    0    0    0    0    0    0    0   56    0   56    0

>  <minimizedAffinity>  (103) 
-8.36797

>  <CNNscore>  (103) 
0.8325887918

>  <CNNaffinity>  (103) 
4.6834778786

>  <CNN_VS>  (103) 
3.8994112015

>  <CNNaffinity_variance>  (103) 
0.0993842781

$$$$
104
     RDKit          3D

 43 45  0  0  0  0  0  0  0  0999 V2000
   20.5103   71.4855   -1.8474 P   0  0  2  0  0  0  0  0  0  0  0  0
   21.0484   70.8896   -3.2524 O   0  0  0  0  0  0  0  0  0  0  0  0
   20.2113   70.4573   -0.7961 O   0  0  0  0  0  0  0  0  0  0  0  0
   19.2706   72.4326   -2.2765 O   0  0  0  0  0  0  0  0  0  0  0  0
   18.8794   72.4594   -3.6369 C   0  0  0  0  0  0  0  0  0  0  0  0
   17.0295   72.1024   -5.1295 O   0  0  0  0  0  0  0  0  0  0  0  0
   15.8525   70.3947   -2.9639 O   0  0  0  0  0  0  0  0  0  0  0  0
   16.8902   68.5480   -4.6812 O   0  0  0  0  0  0  0  0  0  0  0  0
   17.2187   70.5540   -3.3470 C   0  0  1  0  0  0  0  0  0  0  0  0
   17.4863   69.8279   -4.6483 C   0  0  2  0  0  0  0  0  0  0  0  0
   17.4284   72.0087   -3.7448 C   0  0  1  0  0  0  0  0  0  0  0  0
   16.8858   70.7791   -5.6694 C   0  0  2  0  0  0  0  0  0  0  0  0
   15.6943   69.4728   -2.7054 H   0  0  0  0  0  0  0  0  0  0  0  0
   17.3069   67.9801   -4.0136 H   0  0  0  0  0  0  0  0  0  0  0  0
   15.5769   70.4634   -8.1521 O   0  0  0  0  0  0  0  0  0  0  0  0
   19.5598   70.5526  -10.4700 O   0  0  0  0  0  0  0  0  0  0  0  0
   17.5564   70.7167   -6.9372 N   0  0  0  0  0  0  0  0  0  0  0  0
   17.5620   70.5071   -9.3041 N   0  0  0  0  0  0  0  0  0  0  0  0
   16.8056   70.5562   -8.1257 C   0  0  0  0  0  0  0  0  0  0  0  0
   18.9413   70.8157   -6.9948 C   0  0  0  0  0  0  0  0  0  0  0  0
   19.6482   70.7673   -8.1256 C   0  0  0  0  0  0  0  0  0  0  0  0
   18.9401   70.6004   -9.4117 C   0  0  0  0  0  0  0  0  0  0  0  0
   17.0614   70.3938  -10.1443 H   0  0  0  0  0  0  0  0  0  0  0  0
   21.6572   72.5497   -1.4415 O   0  0  0  0  0  0  0  0  0  0  0  0
   23.2512   72.3680   -1.2422 P   0  0  2  0  0  0  0  0  0  0  0  0
   23.8457   73.8074   -1.6839 O   0  0  0  0  0  0  0  0  0  0  0  0
   23.8360   71.2027   -1.9865 O   0  0  0  0  0  0  0  0  0  0  0  0
   23.4603   72.3144    0.3565 O   0  0  0  0  0  0  0  0  0  0  0  0
   24.2315   70.4823    1.6441 O   0  0  0  0  0  0  0  0  0  0  0  0
   21.8557   72.4834    4.3680 O   0  0  0  0  0  0  0  0  0  0  0  0
   20.9785   72.1505    1.6014 O   0  0  0  0  0  0  0  0  0  0  0  0
   24.7516   72.6642    4.5477 O   0  0  0  0  0  0  0  0  0  0  0  0
   22.7413   72.3590    3.2552 C   0  0  2  0  0  0  0  0  0  0  0  0
   22.0940   71.4842    2.1813 C   0  0  2  0  0  0  0  0  0  0  0  0
   24.0389   71.7183    3.7528 C   0  0  1  0  0  0  0  0  0  0  0  0
   23.0965   71.1395    1.0790 C   0  0  1  0  0  0  0  0  0  0  0  0
   24.9295   71.2887    2.5905 C   0  0  1  0  0  0  0  0  0  0  0  0
   21.0239   72.8883    4.0758 H   0  0  0  0  0  0  0  0  0  0  0  0
   20.3385   72.3724    2.2952 H   0  0  0  0  0  0  0  0  0  0  0  0
   24.1957   72.9459    5.2910 H   0  0  0  0  0  0  0  0  0  0  0  0
   25.5016   69.3023    3.6989 O   0  0  0  0  0  0  0  0  0  0  0  0
   27.2145   70.5799    2.9032 O   0  0  0  0  0  0  0  0  0  0  0  0
   26.0193   70.3829    3.0639 C   0  0  0  0  0  0  0  0  0  0  0  0
  1  4  1  0
  1 24  1  0
  1  2  1  6
  1  3  2  0
 25 28  1  0
 25 24  1  0
 25 26  1  6
 25 27  2  0
  6 11  1  0
  6 12  1  0
 29 36  1  0
 29 37  1  0
  9  7  1  6
  7 13  1  0
 10  8  1  1
  8 14  1  0
  4  5  1  0
 36 28  1  1
 33 30  1  1
 30 38  1  0
 34 31  1  6
 31 39  1  0
 35 32  1  1
 32 40  1  0
 41 43  1  0
 15 19  2  0
 42 43  2  0
 16 22  2  0
 12 17  1  6
 17 19  1  0
 17 20  1  0
 18 19  1  0
 18 22  1  0
 18 23  1  0
  9 10  1  0
  9 11  1  0
 10 12  1  0
 11  5  1  6
 33 34  1  0
 33 35  1  0
 34 36  1  0
 35 37  1  0
 37 43  1  1
 20 21  2  0
 21 22  1  0
M  CHG  3   2  -1  26  -1  41  -1
M  END
>  <COMPND>  (104) 
    udp_gluA.pdb 

>  <AUTHOR>  (104) 
    GENERATED BY OPEN BABEL 3.1.1

>  <MASTER>  (104) 
        0    0    0    0    0    0    0    0   56    0   56    0

>  <minimizedAffinity>  (104) 
-7.70977

>  <CNNscore>  (104) 
0.8180260658

>  <CNNaffinity>  (104) 
4.6755876541

>  <CNN_VS>  (104) 
3.8247525692

>  <CNNaffinity_variance>  (104) 
0.0603820011

$$$$
105
     RDKit          3D

 43 45  0  0  0  0  0  0  0  0999 V2000
   23.0499   71.6232   -2.4087 P   0  0  2  0  0  0  0  0  0  0  0  0
   22.6440   73.0853   -2.9712 O   0  0  0  0  0  0  0  0  0  0  0  0
   24.2307   70.9899   -3.0843 O   0  0  0  0  0  0  0  0  0  0  0  0
   21.6683   70.7838   -2.4759 O   0  0  0  0  0  0  0  0  0  0  0  0
   20.9511   70.7586   -3.6963 C   0  0  0  0  0  0  0  0  0  0  0  0
   18.9678   71.7424   -4.6323 O   0  0  0  0  0  0  0  0  0  0  0  0
   17.4820   70.4405   -2.3764 O   0  0  0  0  0  0  0  0  0  0  0  0
   16.9799   68.7633   -4.4671 O   0  0  0  0  0  0  0  0  0  0  0  0
   18.6067   69.9608   -3.1137 C   0  0  1  0  0  0  0  0  0  0  0  0
   18.1761   69.5136   -4.4945 C   0  0  2  0  0  0  0  0  0  0  0  0
   19.5035   71.1501   -3.4292 C   0  0  1  0  0  0  0  0  0  0  0  0
   18.0186   70.8388   -5.2204 C   0  0  2  0  0  0  0  0  0  0  0  0
   16.8943   69.6983   -2.1632 H   0  0  0  0  0  0  0  0  0  0  0  0
   17.1322   67.9293   -3.9946 H   0  0  0  0  0  0  0  0  0  0  0  0
   16.1236   70.0195   -7.1477 O   0  0  0  0  0  0  0  0  0  0  0  0
   19.1620   70.4536  -10.5862 O   0  0  0  0  0  0  0  0  0  0  0  0
   18.2877   70.7289   -6.6263 N   0  0  0  0  0  0  0  0  0  0  0  0
   17.6390   70.2355   -8.8583 N   0  0  0  0  0  0  0  0  0  0  0  0
   17.2659   70.3079   -7.5098 C   0  0  0  0  0  0  0  0  0  0  0  0
   19.5506   71.0378   -7.1169 C   0  0  0  0  0  0  0  0  0  0  0  0
   19.8913   70.9641   -8.4050 C   0  0  0  0  0  0  0  0  0  0  0  0
   18.8820   70.5317   -9.3939 C   0  0  0  0  0  0  0  0  0  0  0  0
   16.9449   69.9428   -9.4922 H   0  0  0  0  0  0  0  0  0  0  0  0
   23.2402   71.8838   -0.8248 O   0  0  0  0  0  0  0  0  0  0  0  0
   23.3329   73.2583    0.0212 P   0  0  2  0  0  0  0  0  0  0  0  0
   21.7881   73.7285    0.1333 O   0  0  0  0  0  0  0  0  0  0  0  0
   24.2508   74.2868   -0.5737 O   0  0  0  0  0  0  0  0  0  0  0  0
   23.7266   72.7937    1.5150 O   0  0  0  0  0  0  0  0  0  0  0  0
   24.1459   70.6756    2.4882 O   0  0  0  0  0  0  0  0  0  0  0  0
   22.1847   72.6348    5.5514 O   0  0  0  0  0  0  0  0  0  0  0  0
   21.2585   72.8974    2.7932 O   0  0  0  0  0  0  0  0  0  0  0  0
   25.0640   72.2527    5.6713 O   0  0  0  0  0  0  0  0  0  0  0  0
   23.0309   72.5230    4.4071 C   0  0  2  0  0  0  0  0  0  0  0  0
   22.2317   71.9571    3.2330 C   0  0  2  0  0  0  0  0  0  0  0  0
   24.1877   71.5869    4.7640 C   0  0  1  0  0  0  0  0  0  0  0  0
   23.1519   71.6084    2.0623 C   0  0  1  0  0  0  0  0  0  0  0  0
   24.9821   71.1854    3.5245 C   0  0  1  0  0  0  0  0  0  0  0  0
   21.4421   73.2251    5.3482 H   0  0  0  0  0  0  0  0  0  0  0  0
   20.6713   73.1234    3.5311 H   0  0  0  0  0  0  0  0  0  0  0  0
   24.5707   72.5137    6.4646 H   0  0  0  0  0  0  0  0  0  0  0  0
   27.0856   70.4721    4.2784 O   0  0  0  0  0  0  0  0  0  0  0  0
   25.5911   68.8561    3.6831 O   0  0  0  0  0  0  0  0  0  0  0  0
   25.8856   70.0336    3.8236 C   0  0  0  0  0  0  0  0  0  0  0  0
  1  4  1  0
  1 24  1  0
  1  2  1  6
  1  3  2  0
 25 28  1  0
 25 24  1  0
 25 26  1  1
 25 27  2  0
  6 11  1  0
  6 12  1  0
 29 36  1  0
 29 37  1  0
  9  7  1  1
  7 13  1  0
 10  8  1  1
  8 14  1  0
  4  5  1  0
 36 28  1  1
 33 30  1  1
 30 38  1  0
 34 31  1  6
 31 39  1  0
 35 32  1  1
 32 40  1  0
 41 43  1  0
 15 19  2  0
 42 43  2  0
 16 22  2  0
 12 17  1  6
 17 19  1  0
 17 20  1  0
 18 19  1  0
 18 22  1  0
 18 23  1  0
  9 10  1  0
  9 11  1  0
 10 12  1  0
 11  5  1  6
 33 34  1  0
 33 35  1  0
 34 36  1  0
 35 37  1  0
 37 43  1  1
 20 21  2  0
 21 22  1  0
M  CHG  3   2  -1  26  -1  41  -1
M  END
>  <COMPND>  (105) 
    udp_gluA.pdb 

>  <AUTHOR>  (105) 
    GENERATED BY OPEN BABEL 3.1.1

>  <MASTER>  (105) 
        0    0    0    0    0    0    0    0   56    0   56    0

>  <minimizedAffinity>  (105) 
-8.55324

>  <CNNscore>  (105) 
0.7201420665

>  <CNNaffinity>  (105) 
4.5042028427

>  <CNN_VS>  (105) 
3.2436659336

>  <CNNaffinity_variance>  (105) 
0.0356872715

$$$$
106
     RDKit          3D

 43 45  0  0  0  0  0  0  0  0999 V2000
   21.8902   72.8663   -5.2060 P   0  0  2  0  0  0  0  0  0  0  0  0
   21.5569   74.4365   -5.0004 O   0  0  0  0  0  0  0  0  0  0  0  0
   23.0844   72.5797   -6.0682 O   0  0  0  0  0  0  0  0  0  0  0  0
   20.4895   72.2351   -5.7134 O   0  0  0  0  0  0  0  0  0  0  0  0
   20.1443   72.3666   -7.0801 C   0  0  0  0  0  0  0  0  0  0  0  0
   19.0442   70.3028   -6.5249 O   0  0  0  0  0  0  0  0  0  0  0  0
   18.6793   69.9191   -9.4764 O   0  0  0  0  0  0  0  0  0  0  0  0
   16.2265   70.8087   -8.6834 O   0  0  0  0  0  0  0  0  0  0  0  0
   18.6375   71.1228   -8.7096 C   0  0  1  0  0  0  0  0  0  0  0  0
   17.3488   71.1958   -7.9184 C   0  0  2  0  0  0  0  0  0  0  0  0
   19.6824   71.0142   -7.6075 C   0  0  1  0  0  0  0  0  0  0  0  0
   17.6299   70.2429   -6.7691 C   0  0  2  0  0  0  0  0  0  0  0  0
   18.0201   69.9650  -10.1870 H   0  0  0  0  0  0  0  0  0  0  0  0
   16.0893   71.4468   -9.4018 H   0  0  0  0  0  0  0  0  0  0  0  0
   16.7517   68.4089   -4.8091 O   0  0  0  0  0  0  0  0  0  0  0  0
   14.9654   71.7668   -2.2057 O   0  0  0  0  0  0  0  0  0  0  0  0
   16.9329   70.6107   -5.5693 N   0  0  0  0  0  0  0  0  0  0  0  0
   15.8620   70.0830   -3.5148 N   0  0  0  0  0  0  0  0  0  0  0  0
   16.5353   69.6117   -4.6495 C   0  0  0  0  0  0  0  0  0  0  0  0
   16.6514   71.9470   -5.3126 C   0  0  0  0  0  0  0  0  0  0  0  0
   16.0088   72.3810   -4.2266 C   0  0  0  0  0  0  0  0  0  0  0  0
   15.5585   71.4014   -3.2161 C   0  0  0  0  0  0  0  0  0  0  0  0
   15.5735   69.4058   -2.8609 H   0  0  0  0  0  0  0  0  0  0  0  0
   22.0075   72.3187   -3.6897 O   0  0  0  0  0  0  0  0  0  0  0  0
   23.2835   72.1811   -2.7066 P   0  0  2  0  0  0  0  0  0  0  0  0
   24.0156   73.6179   -2.8475 O   0  0  0  0  0  0  0  0  0  0  0  0
   24.1672   71.0048   -3.0055 O   0  0  0  0  0  0  0  0  0  0  0  0
   22.6573   72.1874   -1.2198 O   0  0  0  0  0  0  0  0  0  0  0  0
   24.0756   71.1500    0.3680 O   0  0  0  0  0  0  0  0  0  0  0  0
   20.6670   71.8279    2.6017 O   0  0  0  0  0  0  0  0  0  0  0  0
   20.4680   70.8509   -0.1442 O   0  0  0  0  0  0  0  0  0  0  0  0
   23.0059   73.5168    2.9595 O   0  0  0  0  0  0  0  0  0  0  0  0
   21.6323   72.0933    1.5841 C   0  0  2  0  0  0  0  0  0  0  0  0
   21.6769   70.9216    0.6029 C   0  0  2  0  0  0  0  0  0  0  0  0
   22.9937   72.2743    2.2592 C   0  0  1  0  0  0  0  0  0  0  0  0
   22.8529   71.0626   -0.3646 C   0  0  1  0  0  0  0  0  0  0  0  0
   24.1263   72.2795    1.2367 C   0  0  1  0  0  0  0  0  0  0  0  0
   19.7936   71.7092    2.1962 H   0  0  0  0  0  0  0  0  0  0  0  0
   19.7176   70.7616    0.4635 H   0  0  0  0  0  0  0  0  0  0  0  0
   22.2895   73.5265    3.6134 H   0  0  0  0  0  0  0  0  0  0  0  0
   26.0172   70.9364    1.5865 O   0  0  0  0  0  0  0  0  0  0  0  0
   25.9610   72.9514    2.6523 O   0  0  0  0  0  0  0  0  0  0  0  0
   25.4506   72.1249    1.9111 C   0  0  0  0  0  0  0  0  0  0  0  0
  1  4  1  0
  1 24  1  0
  1  2  1  1
  1  3  2  0
 25 28  1  0
 25 24  1  0
 25 26  1  1
 25 27  2  0
  6 11  1  0
  6 12  1  0
 29 36  1  0
 29 37  1  0
  9  7  1  6
  7 13  1  0
 10  8  1  6
  8 14  1  0
  4  5  1  0
 36 28  1  1
 33 30  1  1
 30 38  1  0
 34 31  1  6
 31 39  1  0
 35 32  1  6
 32 40  1  0
 41 43  1  0
 15 19  2  0
 42 43  2  0
 16 22  2  0
 12 17  1  1
 17 19  1  0
 17 20  1  0
 18 19  1  0
 18 22  1  0
 18 23  1  0
  9 10  1  0
  9 11  1  0
 10 12  1  0
 11  5  1  1
 33 34  1  0
 33 35  1  0
 34 36  1  0
 35 37  1  0
 37 43  1  1
 20 21  2  0
 21 22  1  0
M  CHG  3   2  -1  26  -1  41  -1
M  END
>  <COMPND>  (106) 
    udp_gluA.pdb 

>  <AUTHOR>  (106) 
    GENERATED BY OPEN BABEL 3.1.1

>  <MASTER>  (106) 
        0    0    0    0    0    0    0    0   56    0   56    0

>  <minimizedAffinity>  (106) 
-7.90461

>  <CNNscore>  (106) 
0.6972677708

>  <CNNaffinity>  (106) 
4.5672440529

>  <CNN_VS>  (106) 
3.1845920086

>  <CNNaffinity_variance>  (106) 
0.1086633652

$$$$
107
     RDKit          3D

 43 45  0  0  0  0  0  0  0  0999 V2000
   23.5301   73.6739   -4.1370 P   0  0  2  0  0  0  0  0  0  0  0  0
   22.6715   75.0111   -4.4433 O   0  0  0  0  0  0  0  0  0  0  0  0
   25.0131   73.8815   -4.0401 O   0  0  0  0  0  0  0  0  0  0  0  0
   23.0395   72.6290   -5.2707 O   0  0  0  0  0  0  0  0  0  0  0  0
   21.6532   72.3713   -5.3983 C   0  0  0  0  0  0  0  0  0  0  0  0
   20.6428   70.3705   -6.2664 O   0  0  0  0  0  0  0  0  0  0  0  0
   20.8938   71.6400   -8.9713 O   0  0  0  0  0  0  0  0  0  0  0  0
   18.2678   72.0506   -8.3618 O   0  0  0  0  0  0  0  0  0  0  0  0
   20.6027   72.2465   -7.7120 C   0  0  1  0  0  0  0  0  0  0  0  0
   19.1829   71.9288   -7.2930 C   0  0  2  0  0  0  0  0  0  0  0  0
   21.4179   71.5285   -6.6452 C   0  0  1  0  0  0  0  0  0  0  0  0
   19.3134   70.4995   -6.7949 C   0  0  2  0  0  0  0  0  0  0  0  0
   20.3843   72.0820   -9.6690 H   0  0  0  0  0  0  0  0  0  0  0  0
   18.2203   72.9784   -8.6426 H   0  0  0  0  0  0  0  0  0  0  0  0
   16.6225   69.7771   -7.2573 O   0  0  0  0  0  0  0  0  0  0  0  0
   15.7745   69.3388   -2.7481 O   0  0  0  0  0  0  0  0  0  0  0  0
   18.3675   70.1914   -5.7600 N   0  0  0  0  0  0  0  0  0  0  0  0
   16.2024   69.5605   -5.0110 N   0  0  0  0  0  0  0  0  0  0  0  0
   17.0395   69.8401   -6.0993 C   0  0  0  0  0  0  0  0  0  0  0  0
   18.7582   70.2370   -4.4272 C   0  0  0  0  0  0  0  0  0  0  0  0
   17.9490   69.9678   -3.4008 C   0  0  0  0  0  0  0  0  0  0  0  0
   16.5450   69.5932   -3.6689 C   0  0  0  0  0  0  0  0  0  0  0  0
   15.2726   69.3155   -5.2222 H   0  0  0  0  0  0  0  0  0  0  0  0
   22.8411   73.1006   -2.7918 O   0  0  0  0  0  0  0  0  0  0  0  0
   22.9030   71.6366   -2.1087 P   0  0  2  0  0  0  0  0  0  0  0  0
   24.2600   71.0002   -2.7202 O   0  0  0  0  0  0  0  0  0  0  0  0
   21.6746   70.8019   -2.3287 O   0  0  0  0  0  0  0  0  0  0  0  0
   23.2495   71.9224   -0.5592 O   0  0  0  0  0  0  0  0  0  0  0  0
   24.5276   70.8551    1.1250 O   0  0  0  0  0  0  0  0  0  0  0  0
   21.1414   71.9647    3.2156 O   0  0  0  0  0  0  0  0  0  0  0  0
   20.9214   70.8525    0.5231 O   0  0  0  0  0  0  0  0  0  0  0  0
   23.6155   73.4543    3.5487 O   0  0  0  0  0  0  0  0  0  0  0  0
   22.1517   72.0830    2.2139 C   0  0  2  0  0  0  0  0  0  0  0  0
   22.1130   70.8573    1.3008 C   0  0  2  0  0  0  0  0  0  0  0  0
   23.5069   72.1795    2.9182 C   0  0  1  0  0  0  0  0  0  0  0  0
   23.3203   70.8359    0.3624 C   0  0  1  0  0  0  0  0  0  0  0  0
   24.6600   72.0238    1.9310 C   0  0  1  0  0  0  0  0  0  0  0  0
   20.2711   71.9018    2.7914 H   0  0  0  0  0  0  0  0  0  0  0  0
   20.1513   70.8663    1.1123 H   0  0  0  0  0  0  0  0  0  0  0  0
   22.8871   73.5661    4.1795 H   0  0  0  0  0  0  0  0  0  0  0  0
   26.7241   70.9104    1.9719 O   0  0  0  0  0  0  0  0  0  0  0  0
   26.2660   72.3164    3.7077 O   0  0  0  0  0  0  0  0  0  0  0  0
   25.9476   71.7900    2.6520 C   0  0  0  0  0  0  0  0  0  0  0  0
  1  4  1  0
  1 24  1  0
  1  2  1  6
  1  3  2  0
 25 28  1  0
 25 24  1  0
 25 26  1  6
 25 27  2  0
  6 11  1  0
  6 12  1  0
 29 36  1  0
 29 37  1  0
  9  7  1  6
  7 13  1  0
 10  8  1  6
  8 14  1  0
  4  5  1  0
 36 28  1  6
 33 30  1  1
 30 38  1  0
 34 31  1  6
 31 39  1  0
 35 32  1  6
 32 40  1  0
 41 43  1  0
 15 19  2  0
 42 43  2  0
 16 22  2  0
 12 17  1  1
 17 19  1  0
 17 20  1  0
 18 19  1  0
 18 22  1  0
 18 23  1  0
  9 10  1  0
  9 11  1  0
 10 12  1  0
 11  5  1  1
 33 34  1  0
 33 35  1  0
 34 36  1  0
 35 37  1  0
 37 43  1  1
 20 21  2  0
 21 22  1  0
M  CHG  3   2  -1  26  -1  41  -1
M  END
>  <COMPND>  (107) 
    udp_gluA.pdb 

>  <AUTHOR>  (107) 
    GENERATED BY OPEN BABEL 3.1.1

>  <MASTER>  (107) 
        0    0    0    0    0    0    0    0   56    0   56    0

>  <minimizedAffinity>  (107) 
-8.09251

>  <CNNscore>  (107) 
0.5891385078

>  <CNNaffinity>  (107) 
4.3167724609

>  <CNN_VS>  (107) 
2.5431768894

>  <CNNaffinity_variance>  (107) 
0.1470728070

$$$$
108
     RDKit          3D

 43 45  0  0  0  0  0  0  0  0999 V2000
   22.7836   73.6184   -4.4116 P   0  0  2  0  0  0  0  0  0  0  0  0
   23.8775   72.4300   -4.5126 O   0  0  0  0  0  0  0  0  0  0  0  0
   23.2461   74.9505   -4.9247 O   0  0  0  0  0  0  0  0  0  0  0  0
   22.3165   73.5857   -2.8628 O   0  0  0  0  0  0  0  0  0  0  0  0
   22.0163   74.8115   -2.2212 C   0  0  0  0  0  0  0  0  0  0  0  0
   20.8463   73.3193   -0.7440 O   0  0  0  0  0  0  0  0  0  0  0  0
   19.3279   75.7311    0.1882 O   0  0  0  0  0  0  0  0  0  0  0  0
   21.1659   75.3807    2.1719 O   0  0  0  0  0  0  0  0  0  0  0  0
   20.6969   75.6202   -0.2019 C   0  0  1  0  0  0  0  0  0  0  0  0
   21.4945   74.9201    0.8779 C   0  0  2  0  0  0  0  0  0  0  0  0
   20.7784   74.6269   -1.3529 C   0  0  1  0  0  0  0  0  0  0  0  0
   21.1119   73.4661    0.6600 C   0  0  2  0  0  0  0  0  0  0  0  0
   19.2505   76.3606    0.9226 H   0  0  0  0  0  0  0  0  0  0  0  0
   21.4294   76.3105    2.2607 H   0  0  0  0  0  0  0  0  0  0  0  0
   20.8344   70.6575    0.7653 O   0  0  0  0  0  0  0  0  0  0  0  0
   25.2075   70.0930    2.1075 O   0  0  0  0  0  0  0  0  0  0  0  0
   22.1619   72.5613    1.0337 N   0  0  0  0  0  0  0  0  0  0  0  0
   23.0125   70.3791    1.4347 N   0  0  0  0  0  0  0  0  0  0  0  0
   21.9184   71.1676    1.0547 C   0  0  0  0  0  0  0  0  0  0  0  0
   23.4156   73.0556    1.3726 C   0  0  0  0  0  0  0  0  0  0  0  0
   24.4487   72.2916    1.7327 C   0  0  0  0  0  0  0  0  0  0  0  0
   24.2778   70.8246    1.7811 C   0  0  0  0  0  0  0  0  0  0  0  0
   22.8666   69.4057    1.4587 H   0  0  0  0  0  0  0  0  0  0  0  0
   21.5070   73.0035   -5.1893 O   0  0  0  0  0  0  0  0  0  0  0  0
   20.0220   73.5969   -5.4268 P   0  0  2  0  0  0  0  0  0  0  0  0
   20.2983   74.9740   -6.2315 O   0  0  0  0  0  0  0  0  0  0  0  0
   19.2180   73.7655   -4.1702 O   0  0  0  0  0  0  0  0  0  0  0  0
   19.3581   72.6131   -6.5194 O   0  0  0  0  0  0  0  0  0  0  0  0
   19.0887   70.4201   -5.6665 O   0  0  0  0  0  0  0  0  0  0  0  0
   17.9456   69.9358   -9.6069 O   0  0  0  0  0  0  0  0  0  0  0  0
   20.2717   71.5682   -8.9298 O   0  0  0  0  0  0  0  0  0  0  0  0
   15.9385   70.0267   -7.5059 O   0  0  0  0  0  0  0  0  0  0  0  0
   18.1029   70.6348   -8.3721 C   0  0  2  0  0  0  0  0  0  0  0  0
   19.5876   70.7180   -8.0167 C   0  0  2  0  0  0  0  0  0  0  0  0
   17.3394   69.8649   -7.2922 C   0  0  1  0  0  0  0  0  0  0  0  0
   19.7812   71.2530   -6.5972 C   0  0  1  0  0  0  0  0  0  0  0  0
   17.6821   70.3762   -5.8959 C   0  0  1  0  0  0  0  0  0  0  0  0
   18.4225   70.4068  -10.3083 H   0  0  0  0  0  0  0  0  0  0  0  0
   20.1529   71.2348   -9.8326 H   0  0  0  0  0  0  0  0  0  0  0  0
   15.7071   69.7051   -8.3913 H   0  0  0  0  0  0  0  0  0  0  0  0
   17.9852   69.4907   -3.7452 O   0  0  0  0  0  0  0  0  0  0  0  0
   16.2341   68.6862   -4.9640 O   0  0  0  0  0  0  0  0  0  0  0  0
   17.2011   69.4243   -4.8496 C   0  0  0  0  0  0  0  0  0  0  0  0
  1  4  1  0
  1 24  1  0
  1  2  1  1
  1  3  2  0
 25 28  1  0
 25 24  1  0
 25 26  1  6
 25 27  2  0
  6 11  1  0
  6 12  1  0
 29 36  1  0
 29 37  1  0
  9  7  1  1
  7 13  1  0
 10  8  1  1
  8 14  1  0
  4  5  1  0
 36 28  1  6
 33 30  1  6
 30 38  1  0
 34 31  1  6
 31 39  1  0
 35 32  1  6
 32 40  1  0
 41 43  1  0
 15 19  2  0
 42 43  2  0
 16 22  2  0
 12 17  1  6
 17 19  1  0
 17 20  1  0
 18 19  1  0
 18 22  1  0
 18 23  1  0
  9 10  1  0
  9 11  1  0
 10 12  1  0
 11  5  1  1
 33 34  1  0
 33 35  1  0
 34 36  1  0
 35 37  1  0
 37 43  1  1
 20 21  2  0
 21 22  1  0
M  CHG  3   2  -1  26  -1  41  -1
M  END
>  <COMPND>  (108) 
    udp_gluA.pdb 

>  <AUTHOR>  (108) 
    GENERATED BY OPEN BABEL 3.1.1

>  <MASTER>  (108) 
        0    0    0    0    0    0    0    0   56    0   56    0

>  <minimizedAffinity>  (108) 
-7.36164

>  <CNNscore>  (108) 
0.5864843130

>  <CNNaffinity>  (108) 
4.4393587112

>  <CNN_VS>  (108) 
2.6036143303

>  <CNNaffinity_variance>  (108) 
0.0850589722

$$$$
109
     RDKit          3D

 43 45  0  0  0  0  0  0  0  0999 V2000
   23.1849   71.8415   -2.4154 P   0  0  2  0  0  0  0  0  0  0  0  0
   23.5677   73.3800   -2.0909 O   0  0  0  0  0  0  0  0  0  0  0  0
   24.2336   71.0720   -3.1637 O   0  0  0  0  0  0  0  0  0  0  0  0
   21.7403   71.9444   -3.1367 O   0  0  0  0  0  0  0  0  0  0  0  0
   21.5742   72.8785   -4.1875 C   0  0  0  0  0  0  0  0  0  0  0  0
   20.8686   70.9041   -5.3628 O   0  0  0  0  0  0  0  0  0  0  0  0
   21.4410   72.4251   -7.8828 O   0  0  0  0  0  0  0  0  0  0  0  0
   18.7283   72.6123   -7.6769 O   0  0  0  0  0  0  0  0  0  0  0  0
   20.9109   72.8962   -6.6436 C   0  0  1  0  0  0  0  0  0  0  0  0
   19.4717   72.4529   -6.4868 C   0  0  2  0  0  0  0  0  0  0  0  0
   21.6021   72.1381   -5.5185 C   0  0  1  0  0  0  0  0  0  0  0  0
   19.6322   70.9958   -6.0882 C   0  0  2  0  0  0  0  0  0  0  0  0
   21.0143   72.8950   -8.6168 H   0  0  0  0  0  0  0  0  0  0  0  0
   18.6541   73.5568   -7.8878 H   0  0  0  0  0  0  0  0  0  0  0  0
   17.1638   70.0107   -7.0438 O   0  0  0  0  0  0  0  0  0  0  0  0
   15.6013   69.2614   -2.7728 O   0  0  0  0  0  0  0  0  0  0  0  0
   18.5626   70.5366   -5.2479 N   0  0  0  0  0  0  0  0  0  0  0  0
   16.3876   69.6394   -4.9157 N   0  0  0  0  0  0  0  0  0  0  0  0
   17.3631   70.0611   -5.8286 C   0  0  0  0  0  0  0  0  0  0  0  0
   18.7080   70.5583   -3.8661 C   0  0  0  0  0  0  0  0  0  0  0  0
   17.7692   70.1529   -3.0087 C   0  0  0  0  0  0  0  0  0  0  0  0
   16.4857   69.6426   -3.5337 C   0  0  0  0  0  0  0  0  0  0  0  0
   15.5429   69.3061   -5.2963 H   0  0  0  0  0  0  0  0  0  0  0  0
   22.8219   71.2429   -0.9584 O   0  0  0  0  0  0  0  0  0  0  0  0
   21.7549   71.7309    0.1538 P   0  0  2  0  0  0  0  0  0  0  0  0
   20.6322   70.5651    0.1260 O   0  0  0  0  0  0  0  0  0  0  0  0
   21.2164   73.1136   -0.0744 O   0  0  0  0  0  0  0  0  0  0  0  0
   22.5135   71.5321    1.5636 O   0  0  0  0  0  0  0  0  0  0  0  0
   23.1399   73.2875    3.0249 O   0  0  0  0  0  0  0  0  0  0  0  0
   25.8312   70.3296    4.0619 O   0  0  0  0  0  0  0  0  0  0  0  0
   25.1866   70.8278    1.2564 O   0  0  0  0  0  0  0  0  0  0  0  0
   23.5678   70.9140    5.7900 O   0  0  0  0  0  0  0  0  0  0  0  0
   24.5848   70.8560    3.6066 C   0  0  2  0  0  0  0  0  0  0  0  0
   24.8091   71.6752    2.3353 C   0  0  2  0  0  0  0  0  0  0  0  0
   24.0116   71.7409    4.7158 C   0  0  1  0  0  0  0  0  0  0  0  0
   23.5434   72.4412    1.9477 C   0  0  1  0  0  0  0  0  0  0  0  0
   22.8299   72.5664    4.2153 C   0  0  1  0  0  0  0  0  0  0  0  0
   26.2144   69.7638    3.3732 H   0  0  0  0  0  0  0  0  0  0  0  0
   25.9889   70.3385    1.4957 H   0  0  0  0  0  0  0  0  0  0  0  0
   24.3105   70.3832    6.1177 H   0  0  0  0  0  0  0  0  0  0  0  0
   22.1268   74.7815    4.5321 O   0  0  0  0  0  0  0  0  0  0  0  0
   22.5320   73.5413    6.4021 O   0  0  0  0  0  0  0  0  0  0  0  0
   22.4912   73.6506    5.1858 C   0  0  0  0  0  0  0  0  0  0  0  0
  1  4  1  0
  1 24  1  0
  1  2  1  1
  1  3  2  0
 25 28  1  0
 25 24  1  0
 25 26  1  1
 25 27  2  0
  6 11  1  0
  6 12  1  0
 29 36  1  0
 29 37  1  0
  9  7  1  6
  7 13  1  0
 10  8  1  6
  8 14  1  0
  4  5  1  0
 36 28  1  1
 33 30  1  1
 30 38  1  0
 34 31  1  6
 31 39  1  0
 35 32  1  1
 32 40  1  0
 41 43  1  0
 15 19  2  0
 42 43  2  0
 16 22  2  0
 12 17  1  1
 17 19  1  0
 17 20  1  0
 18 19  1  0
 18 22  1  0
 18 23  1  0
  9 10  1  0
  9 11  1  0
 10 12  1  0
 11  5  1  1
 33 34  1  0
 33 35  1  0
 34 36  1  0
 35 37  1  0
 37 43  1  1
 20 21  2  0
 21 22  1  0
M  CHG  3   2  -1  26  -1  41  -1
M  END
>  <COMPND>  (109) 
    udp_gluA.pdb 

>  <AUTHOR>  (109) 
    GENERATED BY OPEN BABEL 3.1.1

>  <MASTER>  (109) 
        0    0    0    0    0    0    0    0   56    0   56    0

>  <minimizedAffinity>  (109) 
-8.01586

>  <CNNscore>  (109) 
0.5612307787

>  <CNNaffinity>  (109) 
4.1891894341

>  <CNN_VS>  (109) 
2.3511021137

>  <CNNaffinity_variance>  (109) 
0.2540913224

$$$$
110
     RDKit          3D

 43 45  0  0  0  0  0  0  0  0999 V2000
   23.3890   72.2792   -2.9509 P   0  0  2  0  0  0  0  0  0  0  0  0
   24.2034   70.8908   -3.1176 O   0  0  0  0  0  0  0  0  0  0  0  0
   24.0902   73.4933   -3.4859 O   0  0  0  0  0  0  0  0  0  0  0  0
   23.0116   72.3219   -1.3781 O   0  0  0  0  0  0  0  0  0  0  0  0
   23.8751   71.6798   -0.4580 C   0  0  0  0  0  0  0  0  0  0  0  0
   23.9104   70.2961    1.5071 O   0  0  0  0  0  0  0  0  0  0  0  0
   21.3409   71.6392    2.2723 O   0  0  0  0  0  0  0  0  0  0  0  0
   23.1751   72.9378    3.8168 O   0  0  0  0  0  0  0  0  0  0  0  0
   22.4832   72.1837    1.6111 C   0  0  1  0  0  0  0  0  0  0  0  0
   23.6157   72.3791    2.5968 C   0  0  2  0  0  0  0  0  0  0  0  0
   23.0463   71.1125    0.6872 C   0  0  1  0  0  0  0  0  0  0  0  0
   24.1412   70.9629    2.7582 C   0  0  2  0  0  0  0  0  0  0  0  0
   20.9637   72.3055    2.8684 H   0  0  0  0  0  0  0  0  0  0  0  0
   22.8505   73.8391    3.6611 H   0  0  0  0  0  0  0  0  0  0  0  0
   25.4484   68.8230    4.0578 O   0  0  0  0  0  0  0  0  0  0  0  0
   29.5343   70.9444    3.8363 O   0  0  0  0  0  0  0  0  0  0  0  0
   25.5459   70.9299    3.0527 N   0  0  0  0  0  0  0  0  0  0  0  0
   27.4819   69.8821    3.9472 N   0  0  0  0  0  0  0  0  0  0  0  0
   26.1032   69.8072    3.7093 C   0  0  0  0  0  0  0  0  0  0  0  0
   26.3557   71.9996    2.6910 C   0  0  0  0  0  0  0  0  0  0  0  0
   27.6684   72.0565    2.9244 C   0  0  0  0  0  0  0  0  0  0  0  0
   28.3288   70.9245    3.6069 C   0  0  0  0  0  0  0  0  0  0  0  0
   27.8923   69.1131    4.4049 H   0  0  0  0  0  0  0  0  0  0  0  0
   21.9711   71.9552   -3.6562 O   0  0  0  0  0  0  0  0  0  0  0  0
   20.5098   72.6168   -3.4551 P   0  0  2  0  0  0  0  0  0  0  0  0
   20.8326   74.1989   -3.3409 O   0  0  0  0  0  0  0  0  0  0  0  0
   19.7353   72.0586   -2.2964 O   0  0  0  0  0  0  0  0  0  0  0  0
   19.7850   72.4514   -4.8868 O   0  0  0  0  0  0  0  0  0  0  0  0
   19.1468   70.1831   -5.1251 O   0  0  0  0  0  0  0  0  0  0  0  0
   17.8391   71.8036   -8.6932 O   0  0  0  0  0  0  0  0  0  0  0  0
   20.4367   72.5566   -7.5887 O   0  0  0  0  0  0  0  0  0  0  0  0
   15.9331   71.1784   -6.5891 O   0  0  0  0  0  0  0  0  0  0  0  0
   18.1497   71.8000   -7.2998 C   0  0  2  0  0  0  0  0  0  0  0  0
   19.6334   71.4854   -7.1071 C   0  0  2  0  0  0  0  0  0  0  0  0
   17.2869   70.7309   -6.6257 C   0  0  1  0  0  0  0  0  0  0  0  0
   19.9547   71.2464   -5.6311 C   0  0  1  0  0  0  0  0  0  0  0  0
   17.7500   70.4605   -5.1971 C   0  0  1  0  0  0  0  0  0  0  0  0
   18.3756   72.4756   -9.1425 H   0  0  0  0  0  0  0  0  0  0  0  0
   20.2378   72.7138   -8.5247 H   0  0  0  0  0  0  0  0  0  0  0  0
   15.6261   71.3542   -7.4923 H   0  0  0  0  0  0  0  0  0  0  0  0
   16.4128   68.5833   -5.6326 O   0  0  0  0  0  0  0  0  0  0  0  0
   17.2533   68.7950   -3.5236 O   0  0  0  0  0  0  0  0  0  0  0  0
   17.1315   69.2080   -4.6671 C   0  0  0  0  0  0  0  0  0  0  0  0
  1  4  1  0
  1 24  1  0
  1  2  1  1
  1  3  2  0
 25 28  1  0
 25 24  1  0
 25 26  1  1
 25 27  2  0
  6 11  1  0
  6 12  1  0
 29 36  1  0
 29 37  1  0
  9  7  1  1
  7 13  1  0
 10  8  1  1
  8 14  1  0
  4  5  1  0
 36 28  1  1
 33 30  1  6
 30 38  1  0
 34 31  1  1
 31 39  1  0
 35 32  1  1
 32 40  1  0
 41 43  1  0
 15 19  2  0
 42 43  2  0
 16 22  2  0
 12 17  1  6
 17 19  1  0
 17 20  1  0
 18 19  1  0
 18 22  1  0
 18 23  1  0
  9 10  1  0
  9 11  1  0
 10 12  1  0
 11  5  1  6
 33 34  1  0
 33 35  1  0
 34 36  1  0
 35 37  1  0
 37 43  1  6
 20 21  2  0
 21 22  1  0
M  CHG  3   2  -1  26  -1  41  -1
M  END
>  <COMPND>  (110) 
    udp_gluA.pdb 

>  <AUTHOR>  (110) 
    GENERATED BY OPEN BABEL 3.1.1

>  <MASTER>  (110) 
        0    0    0    0    0    0    0    0   56    0   56    0

>  <minimizedAffinity>  (110) 
-7.87000

>  <CNNscore>  (110) 
0.5477338433

>  <CNNaffinity>  (110) 
4.1906256676

>  <CNN_VS>  (110) 
2.2953474522

>  <CNNaffinity_variance>  (110) 
0.1505523622

$$$$
111
     RDKit          3D

 43 45  0  0  0  0  0  0  0  0999 V2000
   20.2657   71.9600   -1.0669 P   0  0  2  0  0  0  0  0  0  0  0  0
   19.5194   70.5250   -1.1210 O   0  0  0  0  0  0  0  0  0  0  0  0
   19.3624   73.1355   -0.8345 O   0  0  0  0  0  0  0  0  0  0  0  0
   21.1322   71.9989   -2.4327 O   0  0  0  0  0  0  0  0  0  0  0  0
   21.3497   73.2494   -3.0600 C   0  0  0  0  0  0  0  0  0  0  0  0
   21.8634   71.8473   -4.9436 O   0  0  0  0  0  0  0  0  0  0  0  0
   23.3894   74.1874   -6.0329 O   0  0  0  0  0  0  0  0  0  0  0  0
   21.0551   74.2917   -7.4387 O   0  0  0  0  0  0  0  0  0  0  0  0
   22.1742   74.1708   -5.2834 C   0  0  1  0  0  0  0  0  0  0  0  0
   21.0274   73.7041   -6.1548 C   0  0  2  0  0  0  0  0  0  0  0  0
   22.2708   73.0505   -4.2569 C   0  0  1  0  0  0  0  0  0  0  0  0
   21.2521   72.2021   -6.1941 C   0  0  2  0  0  0  0  0  0  0  0  0
   23.3513   74.8954   -6.6955 H   0  0  0  0  0  0  0  0  0  0  0  0
   20.9071   75.2477   -7.3600 H   0  0  0  0  0  0  0  0  0  0  0  0
   20.1859   71.3537   -8.6679 O   0  0  0  0  0  0  0  0  0  0  0  0
   16.5441   69.3934   -6.6335 O   0  0  0  0  0  0  0  0  0  0  0  0
   20.0269   71.4684   -6.3398 N   0  0  0  0  0  0  0  0  0  0  0  0
   18.3726   70.3791   -7.6524 N   0  0  0  0  0  0  0  0  0  0  0  0
   19.5795   71.0902   -7.6278 C   0  0  0  0  0  0  0  0  0  0  0  0
   19.2836   71.1295   -5.2157 C   0  0  0  0  0  0  0  0  0  0  0  0
   18.1350   70.4512   -5.2550 C   0  0  0  0  0  0  0  0  0  0  0  0
   17.5974   70.0193   -6.5618 C   0  0  0  0  0  0  0  0  0  0  0  0
   18.0398   70.1067   -8.5381 H   0  0  0  0  0  0  0  0  0  0  0  0
   21.3918   71.7407    0.0718 O   0  0  0  0  0  0  0  0  0  0  0  0
   22.8095   72.4775    0.3184 P   0  0  2  0  0  0  0  0  0  0  0  0
   22.4248   74.0488    0.2602 O   0  0  0  0  0  0  0  0  0  0  0  0
   23.8904   72.0696   -0.6403 O   0  0  0  0  0  0  0  0  0  0  0  0
   23.1510   72.1991    1.8703 O   0  0  0  0  0  0  0  0  0  0  0  0
   24.1294   73.5031    3.5882 O   0  0  0  0  0  0  0  0  0  0  0  0
   25.7193   69.7686    4.3586 O   0  0  0  0  0  0  0  0  0  0  0  0
   25.5135   70.7534    1.6159 O   0  0  0  0  0  0  0  0  0  0  0  0
   23.5793   70.8154    6.0245 O   0  0  0  0  0  0  0  0  0  0  0  0
   24.7317   70.6976    3.9119 C   0  0  2  0  0  0  0  0  0  0  0  0
   25.3047   71.5479    2.7778 C   0  0  2  0  0  0  0  0  0  0  0  0
   24.3451   71.5836    5.0983 C   0  0  1  0  0  0  0  0  0  0  0  0
   24.3632   72.7016    2.4296 C   0  0  1  0  0  0  0  0  0  0  0  0
   23.5114   72.7809    4.6510 C   0  0  1  0  0  0  0  0  0  0  0  0
   25.9806   69.1947    3.6212 H   0  0  0  0  0  0  0  0  0  0  0  0
   26.1098   70.0192    1.8297 H   0  0  0  0  0  0  0  0  0  0  0  0
   24.0986   70.0501    6.3169 H   0  0  0  0  0  0  0  0  0  0  0  0
   22.2703   73.6463    6.4433 O   0  0  0  0  0  0  0  0  0  0  0  0
   24.2603   74.6551    5.9731 O   0  0  0  0  0  0  0  0  0  0  0  0
   23.4195   73.7998    5.7400 C   0  0  0  0  0  0  0  0  0  0  0  0
  1  4  1  0
  1 24  1  0
  1  2  1  6
  1  3  2  0
 25 28  1  0
 25 24  1  0
 25 26  1  1
 25 27  2  0
  6 11  1  0
  6 12  1  0
 29 36  1  0
 29 37  1  0
  9  7  1  6
  7 13  1  0
 10  8  1  6
  8 14  1  0
  4  5  1  0
 36 28  1  1
 33 30  1  1
 30 38  1  0
 34 31  1  6
 31 39  1  0
 35 32  1  1
 32 40  1  0
 41 43  1  0
 15 19  2  0
 42 43  2  0
 16 22  2  0
 12 17  1  1
 17 19  1  0
 17 20  1  0
 18 19  1  0
 18 22  1  0
 18 23  1  0
  9 10  1  0
  9 11  1  0
 10 12  1  0
 11  5  1  1
 33 34  1  0
 33 35  1  0
 34 36  1  0
 35 37  1  0
 37 43  1  1
 20 21  2  0
 21 22  1  0
M  CHG  3   2  -1  26  -1  41  -1
M  END
>  <COMPND>  (111) 
    udp_gluA.pdb 

>  <AUTHOR>  (111) 
    GENERATED BY OPEN BABEL 3.1.1

>  <MASTER>  (111) 
        0    0    0    0    0    0    0    0   56    0   56    0

>  <minimizedAffinity>  (111) 
-6.62635

>  <CNNscore>  (111) 
0.5301588178

>  <CNNaffinity>  (111) 
4.2551126480

>  <CNN_VS>  (111) 
2.2558856010

>  <CNNaffinity_variance>  (111) 
0.0492784195

$$$$
112
     RDKit          3D

 43 45  0  0  0  0  0  0  0  0999 V2000
   21.4301   73.4762   -4.5749 P   0  0  2  0  0  0  0  0  0  0  0  0
   19.9555   73.0959   -4.0276 O   0  0  0  0  0  0  0  0  0  0  0  0
   21.6473   74.9355   -4.8492 O   0  0  0  0  0  0  0  0  0  0  0  0
   21.6442   72.4849   -5.8357 O   0  0  0  0  0  0  0  0  0  0  0  0
   20.6521   72.4510   -6.8451 C   0  0  0  0  0  0  0  0  0  0  0  0
   19.4814   70.4917   -6.0913 O   0  0  0  0  0  0  0  0  0  0  0  0
   19.6995   69.5027   -8.9137 O   0  0  0  0  0  0  0  0  0  0  0  0
   17.1326   70.4158   -8.7989 O   0  0  0  0  0  0  0  0  0  0  0  0
   19.5002   70.8331   -8.4352 C   0  0  1  0  0  0  0  0  0  0  0  0
   18.0818   71.0027   -7.9334 C   0  0  2  0  0  0  0  0  0  0  0  0
   20.3120   70.9994   -7.1578 C   0  0  1  0  0  0  0  0  0  0  0  0
   18.1420   70.3161   -6.5796 C   0  0  2  0  0  0  0  0  0  0  0  0
   19.1905   69.3726   -9.7295 H   0  0  0  0  0  0  0  0  0  0  0  0
   17.1324   70.8884   -9.6467 H   0  0  0  0  0  0  0  0  0  0  0  0
   16.8340   68.8539   -4.5480 O   0  0  0  0  0  0  0  0  0  0  0  0
   14.6344   72.6023   -3.0135 O   0  0  0  0  0  0  0  0  0  0  0  0
   17.2224   70.8849   -5.6354 N   0  0  0  0  0  0  0  0  0  0  0  0
   15.7389   70.7220   -3.7863 N   0  0  0  0  0  0  0  0  0  0  0  0
   16.6194   70.0628   -4.6542 C   0  0  0  0  0  0  0  0  0  0  0  0
   16.9275   72.2419   -5.6856 C   0  0  0  0  0  0  0  0  0  0  0  0
   16.0862   72.8560   -4.8514 C   0  0  0  0  0  0  0  0  0  0  0  0
   15.4134   72.0687   -3.7974 C   0  0  0  0  0  0  0  0  0  0  0  0
   15.3053   70.1700   -3.0959 H   0  0  0  0  0  0  0  0  0  0  0  0
   22.4074   72.8498   -3.4501 O   0  0  0  0  0  0  0  0  0  0  0  0
   22.5120   71.3525   -2.8495 P   0  0  2  0  0  0  0  0  0  0  0  0
   24.0902   71.0140   -2.9725 O   0  0  0  0  0  0  0  0  0  0  0  0
   21.6116   70.3557   -3.5202 O   0  0  0  0  0  0  0  0  0  0  0  0
   22.2553   71.5276   -1.2665 O   0  0  0  0  0  0  0  0  0  0  0  0
   21.9662   73.5862   -0.1318 O   0  0  0  0  0  0  0  0  0  0  0  0
   23.4083   71.1591    2.8844 O   0  0  0  0  0  0  0  0  0  0  0  0
   24.5643   71.0360    0.2043 O   0  0  0  0  0  0  0  0  0  0  0  0
   20.5862   71.8503    2.7913 O   0  0  0  0  0  0  0  0  0  0  0  0
   22.6928   71.4647    1.6875 C   0  0  2  0  0  0  0  0  0  0  0  0
   23.6560   72.0377    0.6476 C   0  0  2  0  0  0  0  0  0  0  0  0
   21.6104   72.4901    2.0323 C   0  0  1  0  0  0  0  0  0  0  0  0
   22.8944   72.5885   -0.5588 C   0  0  1  0  0  0  0  0  0  0  0  0
   20.9854   73.0850    0.7738 C   0  0  1  0  0  0  0  0  0  0  0  0
   24.1018   70.5091    2.6898 H   0  0  0  0  0  0  0  0  0  0  0  0
   25.0508   70.6819    0.9647 H   0  0  0  0  0  0  0  0  0  0  0  0
   20.9708   71.4672    3.5951 H   0  0  0  0  0  0  0  0  0  0  0  0
   20.5258   75.3354    0.2984 O   0  0  0  0  0  0  0  0  0  0  0  0
   19.3285   74.3614    1.9768 O   0  0  0  0  0  0  0  0  0  0  0  0
   20.1817   74.3004    1.1042 C   0  0  0  0  0  0  0  0  0  0  0  0
  1  4  1  0
  1 24  1  0
  1  2  1  1
  1  3  2  0
 25 28  1  0
 25 24  1  0
 25 26  1  1
 25 27  2  0
  6 11  1  0
  6 12  1  0
 29 36  1  0
 29 37  1  0
  9  7  1  1
  7 13  1  0
 10  8  1  6
  8 14  1  0
  4  5  1  0
 36 28  1  1
 33 30  1  1
 30 38  1  0
 34 31  1  6
 31 39  1  0
 35 32  1  6
 32 40  1  0
 41 43  1  0
 15 19  2  0
 42 43  2  0
 16 22  2  0
 12 17  1  1
 17 19  1  0
 17 20  1  0
 18 19  1  0
 18 22  1  0
 18 23  1  0
  9 10  1  0
  9 11  1  0
 10 12  1  0
 11  5  1  1
 33 34  1  0
 33 35  1  0
 34 36  1  0
 35 37  1  0
 37 43  1  1
 20 21  2  0
 21 22  1  0
M  CHG  3   2  -1  26  -1  41  -1
M  END
>  <COMPND>  (112) 
    udp_gluA.pdb 

>  <AUTHOR>  (112) 
    GENERATED BY OPEN BABEL 3.1.1

>  <MASTER>  (112) 
        0    0    0    0    0    0    0    0   56    0   56    0

>  <minimizedAffinity>  (112) 
-6.91184

>  <CNNscore>  (112) 
0.5171585083

>  <CNNaffinity>  (112) 
4.2858858109

>  <CNN_VS>  (112) 
2.2164824009

>  <CNNaffinity_variance>  (112) 
0.3235833347

$$$$
113
     RDKit          3D

 43 45  0  0  0  0  0  0  0  0999 V2000
   22.1168   72.9624   -6.1114 P   0  0  2  0  0  0  0  0  0  0  0  0
   20.9242   73.6889   -5.2936 O   0  0  0  0  0  0  0  0  0  0  0  0
   23.1254   73.8919   -6.7202 O   0  0  0  0  0  0  0  0  0  0  0  0
   21.3417   71.9907   -7.1473 O   0  0  0  0  0  0  0  0  0  0  0  0
   19.9474   72.1636   -7.3223 C   0  0  0  0  0  0  0  0  0  0  0  0
   18.7629   70.1527   -6.7471 O   0  0  0  0  0  0  0  0  0  0  0  0
   18.1138   69.9218   -9.6655 O   0  0  0  0  0  0  0  0  0  0  0  0
   15.8067   70.9321   -8.6201 O   0  0  0  0  0  0  0  0  0  0  0  0
   18.2218   71.0913   -8.8535 C   0  0  1  0  0  0  0  0  0  0  0  0
   17.0158   71.2126   -7.9462 C   0  0  2  0  0  0  0  0  0  0  0  0
   19.3499   70.8679   -7.8558 C   0  0  1  0  0  0  0  0  0  0  0  0
   17.3318   70.1945   -6.8638 C   0  0  2  0  0  0  0  0  0  0  0  0
   17.3991   70.0409  -10.3111 H   0  0  0  0  0  0  0  0  0  0  0  0
   15.6503   71.6082   -9.2985 H   0  0  0  0  0  0  0  0  0  0  0  0
   16.8625   68.3746   -4.7557 O   0  0  0  0  0  0  0  0  0  0  0  0
   15.1718   71.6850   -2.0306 O   0  0  0  0  0  0  0  0  0  0  0  0
   16.7699   70.5539   -5.5926 N   0  0  0  0  0  0  0  0  0  0  0  0
   16.0199   70.0249   -3.4008 N   0  0  0  0  0  0  0  0  0  0  0  0
   16.5750   69.5630   -4.6015 C   0  0  0  0  0  0  0  0  0  0  0  0
   16.4202   71.8743   -5.3373 C   0  0  0  0  0  0  0  0  0  0  0  0
   15.8922   72.2994   -4.1878 C   0  0  0  0  0  0  0  0  0  0  0  0
   15.6554   71.3274   -3.1004 C   0  0  0  0  0  0  0  0  0  0  0  0
   15.8729   69.3530   -2.6964 H   0  0  0  0  0  0  0  0  0  0  0  0
   22.7227   71.9281   -5.0270 O   0  0  0  0  0  0  0  0  0  0  0  0
   23.3276   72.1742   -3.5481 P   0  0  2  0  0  0  0  0  0  0  0  0
   24.0360   73.6242   -3.6748 O   0  0  0  0  0  0  0  0  0  0  0  0
   24.2371   71.0817   -3.0651 O   0  0  0  0  0  0  0  0  0  0  0  0
   22.0367   72.4318   -2.6155 O   0  0  0  0  0  0  0  0  0  0  0  0
   21.6066   70.9846   -0.7908 O   0  0  0  0  0  0  0  0  0  0  0  0
   17.9537   72.8573   -1.2577 O   0  0  0  0  0  0  0  0  0  0  0  0
   19.4728   71.9717   -3.5906 O   0  0  0  0  0  0  0  0  0  0  0  0
   19.7137   73.6161    0.9281 O   0  0  0  0  0  0  0  0  0  0  0  0
   19.3767   72.7489   -1.2944 C   0  0  2  0  0  0  0  0  0  0  0  0
   19.7798   71.6221   -2.2459 C   0  0  2  0  0  0  0  0  0  0  0  0
   19.8648   72.4475    0.1244 C   0  0  1  0  0  0  0  0  0  0  0  0
   21.2758   71.3238   -2.1380 C   0  0  1  0  0  0  0  0  0  0  0  0
   21.3344   72.0366    0.1325 C   0  0  1  0  0  0  0  0  0  0  0  0
   17.6208   73.0486   -2.1486 H   0  0  0  0  0  0  0  0  0  0  0  0
   18.5251   72.1626   -3.6663 H   0  0  0  0  0  0  0  0  0  0  0  0
   18.7827   73.8883    0.9312 H   0  0  0  0  0  0  0  0  0  0  0  0
   22.6520   70.4734    1.2822 O   0  0  0  0  0  0  0  0  0  0  0  0
   21.2390   71.7588    2.5273 O   0  0  0  0  0  0  0  0  0  0  0  0
   21.7096   71.4344    1.4473 C   0  0  0  0  0  0  0  0  0  0  0  0
  1  4  1  0
  1 24  1  0
  1  2  1  1
  1  3  2  0
 25 28  1  0
 25 24  1  0
 25 26  1  6
 25 27  2  0
  6 11  1  0
  6 12  1  0
 29 36  1  0
 29 37  1  0
  9  7  1  6
  7 13  1  0
 10  8  1  6
  8 14  1  0
  4  5  1  0
 36 28  1  1
 33 30  1  1
 30 38  1  0
 34 31  1  6
 31 39  1  0
 35 32  1  1
 32 40  1  0
 41 43  1  0
 15 19  2  0
 42 43  2  0
 16 22  2  0
 12 17  1  1
 17 19  1  0
 17 20  1  0
 18 19  1  0
 18 22  1  0
 18 23  1  0
  9 10  1  0
  9 11  1  0
 10 12  1  0
 11  5  1  1
 33 34  1  0
 33 35  1  0
 34 36  1  0
 35 37  1  0
 37 43  1  1
 20 21  2  0
 21 22  1  0
M  CHG  3   2  -1  26  -1  41  -1
M  END
>  <COMPND>  (113) 
    udp_gluA.pdb 

>  <AUTHOR>  (113) 
    GENERATED BY OPEN BABEL 3.1.1

>  <MASTER>  (113) 
        0    0    0    0    0    0    0    0   56    0   56    0

>  <minimizedAffinity>  (113) 
-7.66763

>  <CNNscore>  (113) 
0.5092103481

>  <CNNaffinity>  (113) 
4.2415566444

>  <CNN_VS>  (113) 
2.1598446369

>  <CNNaffinity_variance>  (113) 
0.5449985862

$$$$
114
     RDKit          3D

 43 45  0  0  0  0  0  0  0  0999 V2000
   21.4688   75.2776   -4.3153 P   0  0  2  0  0  0  0  0  0  0  0  0
   22.6543   76.3789   -4.3382 O   0  0  0  0  0  0  0  0  0  0  0  0
   20.6935   75.1546   -5.5942 O   0  0  0  0  0  0  0  0  0  0  0  0
   20.6039   75.6650   -3.0039 O   0  0  0  0  0  0  0  0  0  0  0  0
   21.0377   75.1890   -1.7430 C   0  0  0  0  0  0  0  0  0  0  0  0
   20.5820   72.9614   -0.9635 O   0  0  0  0  0  0  0  0  0  0  0  0
   18.1594   74.1229    0.3682 O   0  0  0  0  0  0  0  0  0  0  0  0
   19.9254   73.8997    2.4339 O   0  0  0  0  0  0  0  0  0  0  0  0
   19.4535   74.6979    0.1862 C   0  0  1  0  0  0  0  0  0  0  0  0
   20.4485   74.0592    1.1318 C   0  0  2  0  0  0  0  0  0  0  0  0
   19.9771   74.2557   -1.1735 C   0  0  1  0  0  0  0  0  0  0  0  0
   20.7274   72.7321    0.4470 C   0  0  2  0  0  0  0  0  0  0  0  0
   17.8043   74.3913    1.2304 H   0  0  0  0  0  0  0  0  0  0  0  0
   19.7653   74.7725    2.8271 H   0  0  0  0  0  0  0  0  0  0  0  0
   21.3529   70.0529    1.0849 O   0  0  0  0  0  0  0  0  0  0  0  0
   25.8523   70.9929    1.4260 O   0  0  0  0  0  0  0  0  0  0  0  0
   22.0541   72.2493    0.7073 N   0  0  0  0  0  0  0  0  0  0  0  0
   23.5931   70.5238    1.2552 N   0  0  0  0  0  0  0  0  0  0  0  0
   22.2600   70.8846    1.0189 C   0  0  0  0  0  0  0  0  0  0  0  0
   23.1335   73.1227    0.6510 C   0  0  0  0  0  0  0  0  0  0  0  0
   24.3985   72.7640    0.8786 C   0  0  0  0  0  0  0  0  0  0  0  0
   24.6998   71.3563    1.2115 C   0  0  0  0  0  0  0  0  0  0  0  0
   23.7612   69.5792    1.4761 H   0  0  0  0  0  0  0  0  0  0  0  0
   22.2349   73.9290   -3.8600 O   0  0  0  0  0  0  0  0  0  0  0  0
   22.2919   72.4612   -4.5351 P   0  0  2  0  0  0  0  0  0  0  0  0
   22.7889   71.5142   -3.3200 O   0  0  0  0  0  0  0  0  0  0  0  0
   23.1446   72.3833   -5.7683 O   0  0  0  0  0  0  0  0  0  0  0  0
   20.7474   72.0549   -4.7624 O   0  0  0  0  0  0  0  0  0  0  0  0
   19.5338   70.0777   -5.2390 O   0  0  0  0  0  0  0  0  0  0  0  0
   17.7457   72.7958   -7.7851 O   0  0  0  0  0  0  0  0  0  0  0  0
   20.6476   72.7691   -7.4487 O   0  0  0  0  0  0  0  0  0  0  0  0
   16.3886   71.9636   -5.3527 O   0  0  0  0  0  0  0  0  0  0  0  0
   18.4117   72.3651   -6.5981 C   0  0  2  0  0  0  0  0  0  0  0  0
   19.7682   71.7615   -6.9627 C   0  0  2  0  0  0  0  0  0  0  0  0
   17.5296   71.3179   -5.9145 C   0  0  1  0  0  0  0  0  0  0  0  0
   20.4089   71.0836   -5.7507 C   0  0  1  0  0  0  0  0  0  0  0  0
   18.2818   70.5987   -4.7985 C   0  0  1  0  0  0  0  0  0  0  0  0
   18.2878   73.4618   -8.2366 H   0  0  0  0  0  0  0  0  0  0  0  0
   20.2472   73.2036   -8.2177 H   0  0  0  0  0  0  0  0  0  0  0  0
   15.9010   72.4254   -6.0527 H   0  0  0  0  0  0  0  0  0  0  0  0
   18.0769   68.8734   -3.2228 O   0  0  0  0  0  0  0  0  0  0  0  0
   16.5877   68.8874   -4.9494 O   0  0  0  0  0  0  0  0  0  0  0  0
   17.5432   69.3747   -4.3642 C   0  0  0  0  0  0  0  0  0  0  0  0
  1  4  1  0
  1 24  1  0
  1  2  1  6
  1  3  2  0
 25 28  1  0
 25 24  1  0
 25 26  1  1
 25 27  2  0
  6 11  1  0
  6 12  1  0
 29 36  1  0
 29 37  1  0
  9  7  1  1
  7 13  1  0
 10  8  1  1
  8 14  1  0
  4  5  1  0
 36 28  1  1
 33 30  1  6
 30 38  1  0
 34 31  1  1
 31 39  1  0
 35 32  1  1
 32 40  1  0
 41 43  1  0
 15 19  2  0
 42 43  2  0
 16 22  2  0
 12 17  1  6
 17 19  1  0
 17 20  1  0
 18 19  1  0
 18 22  1  0
 18 23  1  0
  9 10  1  0
  9 11  1  0
 10 12  1  0
 11  5  1  1
 33 34  1  0
 33 35  1  0
 34 36  1  0
 35 37  1  0
 37 43  1  6
 20 21  2  0
 21 22  1  0
M  CHG  3   2  -1  26  -1  41  -1
M  END
>  <COMPND>  (114) 
    udp_gluA.pdb 

>  <AUTHOR>  (114) 
    GENERATED BY OPEN BABEL 3.1.1

>  <MASTER>  (114) 
        0    0    0    0    0    0    0    0   56    0   56    0

>  <minimizedAffinity>  (114) 
-6.37827

>  <CNNscore>  (114) 
0.5029581785

>  <CNNaffinity>  (114) 
4.1566877365

>  <CNN_VS>  (114) 
2.0906400681

>  <CNNaffinity_variance>  (114) 
0.1941108704

$$$$
115
     RDKit          3D

 43 45  0  0  0  0  0  0  0  0999 V2000
   23.2873   71.8531   -2.0842 P   0  0  2  0  0  0  0  0  0  0  0  0
   24.1746   70.9486   -3.0910 O   0  0  0  0  0  0  0  0  0  0  0  0
   23.0940   73.2772   -2.5155 O   0  0  0  0  0  0  0  0  0  0  0  0
   23.9987   71.6450   -0.6459 O   0  0  0  0  0  0  0  0  0  0  0  0
   23.6386   72.5074    0.4176 C   0  0  0  0  0  0  0  0  0  0  0  0
   23.8031   70.7022    1.9962 O   0  0  0  0  0  0  0  0  0  0  0  0
   21.3767   71.8764    3.3097 O   0  0  0  0  0  0  0  0  0  0  0  0
   23.4024   72.7440    4.9159 O   0  0  0  0  0  0  0  0  0  0  0  0
   22.4726   72.5392    2.6786 C   0  0  1  0  0  0  0  0  0  0  0  0
   23.7010   72.4779    3.5614 C   0  0  2  0  0  0  0  0  0  0  0  0
   22.8997   71.7034    1.4797 C   0  0  1  0  0  0  0  0  0  0  0  0
   24.1798   71.0537    3.3370 C   0  0  2  0  0  0  0  0  0  0  0  0
   21.0862   72.3919    4.0789 H   0  0  0  0  0  0  0  0  0  0  0  0
   23.1025   73.6626    5.0064 H   0  0  0  0  0  0  0  0  0  0  0  0
   25.5013   68.6945    4.1522 O   0  0  0  0  0  0  0  0  0  0  0  0
   29.6463   70.6816    3.8139 O   0  0  0  0  0  0  0  0  0  0  0  0
   25.6036   70.9268    3.4704 N   0  0  0  0  0  0  0  0  0  0  0  0
   27.5644   69.6868    3.9839 N   0  0  0  0  0  0  0  0  0  0  0  0
   26.1667   69.6974    3.8871 C   0  0  0  0  0  0  0  0  0  0  0  0
   26.4259   72.0109    3.1886 C   0  0  0  0  0  0  0  0  0  0  0  0
   27.7566   71.9855    3.2853 C   0  0  0  0  0  0  0  0  0  0  0  0
   28.4243   70.7393    3.7150 C   0  0  0  0  0  0  0  0  0  0  0  0
   27.9793   68.8424    4.2741 H   0  0  0  0  0  0  0  0  0  0  0  0
   21.9209   71.0016   -1.9403 O   0  0  0  0  0  0  0  0  0  0  0  0
   20.3797   71.4163   -2.1984 P   0  0  2  0  0  0  0  0  0  0  0  0
   20.2208   72.7906   -1.3581 O   0  0  0  0  0  0  0  0  0  0  0  0
   19.3863   70.3509   -1.8353 O   0  0  0  0  0  0  0  0  0  0  0  0
   20.3331   71.8764   -3.7440 O   0  0  0  0  0  0  0  0  0  0  0  0
   19.5137   70.3016   -5.3117 O   0  0  0  0  0  0  0  0  0  0  0  0
   21.2397   73.1274   -7.7823 O   0  0  0  0  0  0  0  0  0  0  0  0
   22.5825   72.2888   -5.3270 O   0  0  0  0  0  0  0  0  0  0  0  0
   18.3486   73.0017   -7.5058 O   0  0  0  0  0  0  0  0  0  0  0  0
   20.5615   72.6536   -6.6189 C   0  0  2  0  0  0  0  0  0  0  0  0
   21.4452   71.6428   -5.8874 C   0  0  2  0  0  0  0  0  0  0  0  0
   19.2567   71.9924   -7.0685 C   0  0  1  0  0  0  0  0  0  0  0  0
   20.6684   70.9444   -4.7705 C   0  0  1  0  0  0  0  0  0  0  0  0
   18.6067   71.2116   -5.9299 C   0  0  1  0  0  0  0  0  0  0  0  0
   22.0723   73.5516   -7.5212 H   0  0  0  0  0  0  0  0  0  0  0  0
   23.0799   72.7343   -6.0302 H   0  0  0  0  0  0  0  0  0  0  0  0
   18.7503   73.5062   -8.2304 H   0  0  0  0  0  0  0  0  0  0  0  0
   17.5659   70.2586   -7.8035 O   0  0  0  0  0  0  0  0  0  0  0  0
   16.7298   69.7055   -5.7555 O   0  0  0  0  0  0  0  0  0  0  0  0
   17.5317   70.3131   -6.4489 C   0  0  0  0  0  0  0  0  0  0  0  0
  1  4  1  0
  1 24  1  0
  1  2  1  6
  1  3  2  0
 25 28  1  0
 25 24  1  0
 25 26  1  1
 25 27  2  0
  6 11  1  0
  6 12  1  0
 29 36  1  0
 29 37  1  0
  9  7  1  1
  7 13  1  0
 10  8  1  1
  8 14  1  0
  4  5  1  0
 36 28  1  1
 33 30  1  6
 30 38  1  0
 34 31  1  1
 31 39  1  0
 35 32  1  1
 32 40  1  0
 41 43  1  0
 15 19  2  0
 42 43  2  0
 16 22  2  0
 12 17  1  6
 17 19  1  0
 17 20  1  0
 18 19  1  0
 18 22  1  0
 18 23  1  0
  9 10  1  0
  9 11  1  0
 10 12  1  0
 11  5  1  6
 33 34  1  0
 33 35  1  0
 34 36  1  0
 35 37  1  0
 37 43  1  6
 20 21  2  0
 21 22  1  0
M  CHG  3   2  -1  26  -1  41  -1
M  END
>  <COMPND>  (115) 
    udp_gluA.pdb 

>  <AUTHOR>  (115) 
    GENERATED BY OPEN BABEL 3.1.1

>  <MASTER>  (115) 
        0    0    0    0    0    0    0    0   56    0   56    0

>  <minimizedAffinity>  (115) 
-7.71127

>  <CNNscore>  (115) 
0.4996278882

>  <CNNaffinity>  (115) 
4.1772098541

>  <CNN_VS>  (115) 
2.0870504379

>  <CNNaffinity_variance>  (115) 
0.1957566440

$$$$
116
     RDKit          3D

 43 45  0  0  0  0  0  0  0  0999 V2000
   22.0781   71.3841    0.4765 P   0  0  2  0  0  0  0  0  0  0  0  0
   21.2205   72.7429    0.2837 O   0  0  0  0  0  0  0  0  0  0  0  0
   21.3248   70.2415    1.0920 O   0  0  0  0  0  0  0  0  0  0  0  0
   23.3980   71.8681    1.2774 O   0  0  0  0  0  0  0  0  0  0  0  0
   23.2752   72.9335    2.2018 C   0  0  0  0  0  0  0  0  0  0  0  0
   23.6856   71.2774    3.8948 O   0  0  0  0  0  0  0  0  0  0  0  0
   22.0180   72.9868    5.7081 O   0  0  0  0  0  0  0  0  0  0  0  0
   24.5601   73.6112    6.4721 O   0  0  0  0  0  0  0  0  0  0  0  0
   22.9304   73.3797    4.6826 C   0  0  1  0  0  0  0  0  0  0  0  0
   24.3576   73.1749    5.1443 C   0  0  2  0  0  0  0  0  0  0  0  0
   22.8169   72.3760    3.5433 C   0  0  1  0  0  0  0  0  0  0  0  0
   24.5266   71.6731    4.9900 C   0  0  2  0  0  0  0  0  0  0  0  0
   22.0724   73.6134    6.4472 H   0  0  0  0  0  0  0  0  0  0  0  0
   24.4417   74.5734    6.5179 H   0  0  0  0  0  0  0  0  0  0  0  0
   25.2638   69.6163    3.2004 O   0  0  0  0  0  0  0  0  0  0  0  0
   29.7564   70.3339    3.9393 O   0  0  0  0  0  0  0  0  0  0  0  0
   25.8817   71.3014    4.6961 N   0  0  0  0  0  0  0  0  0  0  0  0
   27.5007   69.9750    3.5709 N   0  0  0  0  0  0  0  0  0  0  0  0
   26.1439   70.2537    3.7819 C   0  0  0  0  0  0  0  0  0  0  0  0
   26.9333   71.9723    5.3085 C   0  0  0  0  0  0  0  0  0  0  0  0
   28.2215   71.6954    5.0972 C   0  0  0  0  0  0  0  0  0  0  0  0
   28.5814   70.6139    4.1568 C   0  0  0  0  0  0  0  0  0  0  0  0
   27.7080   69.2481    2.9400 H   0  0  0  0  0  0  0  0  0  0  0  0
   22.6409   71.0961   -1.0111 O   0  0  0  0  0  0  0  0  0  0  0  0
   23.1799   72.1028   -2.1554 P   0  0  2  0  0  0  0  0  0  0  0  0
   24.1550   71.1647   -3.0440 O   0  0  0  0  0  0  0  0  0  0  0  0
   23.8333   73.3458   -1.6242 O   0  0  0  0  0  0  0  0  0  0  0  0
   21.9004   72.3708   -3.1007 O   0  0  0  0  0  0  0  0  0  0  0  0
   20.2262   70.9626   -4.0080 O   0  0  0  0  0  0  0  0  0  0  0  0
   20.8627   73.6175   -7.1087 O   0  0  0  0  0  0  0  0  0  0  0  0
   23.1174   72.5393   -5.5960 O   0  0  0  0  0  0  0  0  0  0  0  0
   18.4885   73.8554   -5.4481 O   0  0  0  0  0  0  0  0  0  0  0  0
   20.7876   73.1994   -5.7458 C   0  0  2  0  0  0  0  0  0  0  0  0
   21.7801   72.0619   -5.5040 C   0  0  2  0  0  0  0  0  0  0  0  0
   19.3581   72.7251   -5.4747 C   0  0  1  0  0  0  0  0  0  0  0  0
   21.5688   71.4352   -4.1251 C   0  0  1  0  0  0  0  0  0  0  0  0
   19.2563   71.9998   -4.1360 C   0  0  1  0  0  0  0  0  0  0  0  0
   21.7625   73.9232   -7.3042 H   0  0  0  0  0  0  0  0  0  0  0  0
   23.2584   72.9385   -6.4684 H   0  0  0  0  0  0  0  0  0  0  0  0
   18.5440   74.3260   -6.2945 H   0  0  0  0  0  0  0  0  0  0  0  0
   16.9876   72.0733   -3.5448 O   0  0  0  0  0  0  0  0  0  0  0  0
   17.7926   70.0922   -4.3361 O   0  0  0  0  0  0  0  0  0  0  0  0
   17.9610   71.2628   -4.0292 C   0  0  0  0  0  0  0  0  0  0  0  0
  1  4  1  0
  1 24  1  0
  1  2  1  6
  1  3  2  0
 25 28  1  0
 25 24  1  0
 25 26  1  6
 25 27  2  0
  6 11  1  0
  6 12  1  0
 29 36  1  0
 29 37  1  0
  9  7  1  1
  7 13  1  0
 10  8  1  1
  8 14  1  0
  4  5  1  0
 36 28  1  1
 33 30  1  6
 30 38  1  0
 34 31  1  1
 31 39  1  0
 35 32  1  1
 32 40  1  0
 41 43  1  0
 15 19  2  0
 42 43  2  0
 16 22  2  0
 12 17  1  6
 17 19  1  0
 17 20  1  0
 18 19  1  0
 18 22  1  0
 18 23  1  0
  9 10  1  0
  9 11  1  0
 10 12  1  0
 11  5  1  6
 33 34  1  0
 33 35  1  0
 34 36  1  0
 35 37  1  0
 37 43  1  6
 20 21  2  0
 21 22  1  0
M  CHG  3   2  -1  26  -1  41  -1
M  END
>  <COMPND>  (116) 
    udp_gluA.pdb 

>  <AUTHOR>  (116) 
    GENERATED BY OPEN BABEL 3.1.1

>  <MASTER>  (116) 
        0    0    0    0    0    0    0    0   56    0   56    0

>  <minimizedAffinity>  (116) 
-7.66072

>  <CNNscore>  (116) 
0.4923895001

>  <CNNaffinity>  (116) 
4.2343568802

>  <CNN_VS>  (116) 
2.0849528313

>  <CNNaffinity_variance>  (116) 
0.1836553961

$$$$
117
     RDKit          3D

 43 45  0  0  0  0  0  0  0  0999 V2000
   23.2584   72.3010   -3.5830 P   0  0  2  0  0  0  0  0  0  0  0  0
   23.6341   70.7860   -3.1558 O   0  0  0  0  0  0  0  0  0  0  0  0
   24.2624   72.9765   -4.4705 O   0  0  0  0  0  0  0  0  0  0  0  0
   22.9572   73.0385   -2.1746 O   0  0  0  0  0  0  0  0  0  0  0  0
   23.6235   72.5770   -1.0138 C   0  0  0  0  0  0  0  0  0  0  0  0
   21.9164   74.0478   -0.1769 O   0  0  0  0  0  0  0  0  0  0  0  0
   22.9179   73.3491    2.5617 O   0  0  0  0  0  0  0  0  0  0  0  0
   20.6942   71.7887    2.3244 O   0  0  0  0  0  0  0  0  0  0  0  0
   22.8182   72.5266    1.3990 C   0  0  1  0  0  0  0  0  0  0  0  0
   21.3730   72.1558    1.1416 C   0  0  2  0  0  0  0  0  0  0  0  0
   23.1475   73.3859    0.1860 C   0  0  1  0  0  0  0  0  0  0  0  0
   20.8251   73.4316    0.5249 C   0  0  2  0  0  0  0  0  0  0  0  0
   22.7118   72.8218    3.3499 H   0  0  0  0  0  0  0  0  0  0  0  0
   21.0796   70.9712    2.6779 H   0  0  0  0  0  0  0  0  0  0  0  0
   18.7866   75.2822   -0.1045 O   0  0  0  0  0  0  0  0  0  0  0  0
   16.7815   72.3515   -3.0430 O   0  0  0  0  0  0  0  0  0  0  0  0
   19.7580   73.1782   -0.4013 N   0  0  0  0  0  0  0  0  0  0  0  0
   17.7893   73.8204   -1.5666 N   0  0  0  0  0  0  0  0  0  0  0  0
   18.7844   74.1752   -0.6463 C   0  0  0  0  0  0  0  0  0  0  0  0
   19.6841   71.9550   -1.0565 C   0  0  0  0  0  0  0  0  0  0  0  0
   18.7297   71.6314   -1.9312 C   0  0  0  0  0  0  0  0  0  0  0  0
   17.6736   72.6167   -2.2429 C   0  0  0  0  0  0  0  0  0  0  0  0
   17.0991   74.4976   -1.7520 H   0  0  0  0  0  0  0  0  0  0  0  0
   21.7865   72.1409   -4.2314 O   0  0  0  0  0  0  0  0  0  0  0  0
   20.7491   73.2453   -4.7952 P   0  0  2  0  0  0  0  0  0  0  0  0
   21.5415   73.8901   -6.0508 O   0  0  0  0  0  0  0  0  0  0  0  0
   20.2964   74.2447   -3.7704 O   0  0  0  0  0  0  0  0  0  0  0  0
   19.5587   72.3853   -5.4630 O   0  0  0  0  0  0  0  0  0  0  0  0
   18.9868   70.0959   -5.2610 O   0  0  0  0  0  0  0  0  0  0  0  0
   17.9523   70.8779   -9.1836 O   0  0  0  0  0  0  0  0  0  0  0  0
   20.4329   71.9419   -8.0660 O   0  0  0  0  0  0  0  0  0  0  0  0
   15.8888   70.6410   -7.1497 O   0  0  0  0  0  0  0  0  0  0  0  0
   18.1448   71.1798   -7.8016 C   0  0  2  0  0  0  0  0  0  0  0  0
   19.6129   70.9677   -7.4311 C   0  0  2  0  0  0  0  0  0  0  0  0
   17.2493   70.2460   -6.9844 C   0  0  1  0  0  0  0  0  0  0  0  0
   19.8136   71.0575   -5.9177 C   0  0  1  0  0  0  0  0  0  0  0  0
   17.5959   70.3003   -5.4993 C   0  0  1  0  0  0  0  0  0  0  0  0
   18.5116   71.4592   -9.7227 H   0  0  0  0  0  0  0  0  0  0  0  0
   20.3103   71.8908   -9.0266 H   0  0  0  0  0  0  0  0  0  0  0  0
   15.6554   70.6109   -8.0907 H   0  0  0  0  0  0  0  0  0  0  0  0
   16.3374   68.3251   -5.6273 O   0  0  0  0  0  0  0  0  0  0  0  0
   16.9921   69.0087   -3.5529 O   0  0  0  0  0  0  0  0  0  0  0  0
   16.9594   69.1660   -4.7641 C   0  0  0  0  0  0  0  0  0  0  0  0
  1  4  1  0
  1 24  1  0
  1  2  1  1
  1  3  2  0
 25 28  1  0
 25 24  1  0
 25 26  1  6
 25 27  2  0
  6 11  1  0
  6 12  1  0
 29 36  1  0
 29 37  1  0
  9  7  1  1
  7 13  1  0
 10  8  1  1
  8 14  1  0
  4  5  1  0
 36 28  1  1
 33 30  1  6
 30 38  1  0
 34 31  1  6
 31 39  1  0
 35 32  1  1
 32 40  1  0
 41 43  1  0
 15 19  2  0
 42 43  2  0
 16 22  2  0
 12 17  1  6
 17 19  1  0
 17 20  1  0
 18 19  1  0
 18 22  1  0
 18 23  1  0
  9 10  1  0
  9 11  1  0
 10 12  1  0
 11  5  1  6
 33 34  1  0
 33 35  1  0
 34 36  1  0
 35 37  1  0
 37 43  1  1
 20 21  2  0
 21 22  1  0
M  CHG  3   2  -1  26  -1  41  -1
M  END
>  <COMPND>  (117) 
    udp_gluA.pdb 

>  <AUTHOR>  (117) 
    GENERATED BY OPEN BABEL 3.1.1

>  <MASTER>  (117) 
        0    0    0    0    0    0    0    0   56    0   56    0

>  <minimizedAffinity>  (117) 
-6.65449

>  <CNNscore>  (117) 
0.4823585153

>  <CNNaffinity>  (117) 
4.1567044258

>  <CNN_VS>  (117) 
2.0050218105

>  <CNNaffinity_variance>  (117) 
0.3315703869

$$$$
118
     RDKit          3D

 43 45  0  0  0  0  0  0  0  0999 V2000
   22.9721   71.9555   -2.9526 P   0  0  2  0  0  0  0  0  0  0  0  0
   24.1915   70.9027   -3.1058 O   0  0  0  0  0  0  0  0  0  0  0  0
   22.9675   73.0702   -3.9572 O   0  0  0  0  0  0  0  0  0  0  0  0
   23.0424   72.4085   -1.4009 O   0  0  0  0  0  0  0  0  0  0  0  0
   23.8301   71.6424   -0.5080 C   0  0  0  0  0  0  0  0  0  0  0  0
   23.7601   70.3721    1.5314 O   0  0  0  0  0  0  0  0  0  0  0  0
   20.9880   71.4566    1.8933 O   0  0  0  0  0  0  0  0  0  0  0  0
   22.4652   73.0283    3.5617 O   0  0  0  0  0  0  0  0  0  0  0  0
   22.1417   72.0913    1.3414 C   0  0  1  0  0  0  0  0  0  0  0  0
   23.1132   72.4615    2.4421 C   0  0  2  0  0  0  0  0  0  0  0  0
   22.9265   71.0444    0.5627 C   0  0  1  0  0  0  0  0  0  0  0  0
   23.7592   71.1228    2.7561 C   0  0  2  0  0  0  0  0  0  0  0  0
   20.4705   72.1058    2.3956 H   0  0  0  0  0  0  0  0  0  0  0  0
   22.0705   73.8787    3.3106 H   0  0  0  0  0  0  0  0  0  0  0  0
   24.4912   71.4445    5.4648 O   0  0  0  0  0  0  0  0  0  0  0  0
   28.9754   71.6469    4.4185 O   0  0  0  0  0  0  0  0  0  0  0  0
   25.1107   71.2619    3.2195 N   0  0  0  0  0  0  0  0  0  0  0  0
   26.7238   71.5460    4.9410 N   0  0  0  0  0  0  0  0  0  0  0  0
   25.3704   71.4184    4.6016 C   0  0  0  0  0  0  0  0  0  0  0  0
   26.1614   71.2408    2.3103 C   0  0  0  0  0  0  0  0  0  0  0  0
   27.4463   71.3636    2.6489 C   0  0  0  0  0  0  0  0  0  0  0  0
   27.8034   71.5318    4.0728 C   0  0  0  0  0  0  0  0  0  0  0  0
   26.9293   71.6582    5.8973 H   0  0  0  0  0  0  0  0  0  0  0  0
   21.6649   71.0056   -2.9949 O   0  0  0  0  0  0  0  0  0  0  0  0
   20.1871   71.2052   -2.3707 P   0  0  2  0  0  0  0  0  0  0  0  0
   19.9688   72.8076   -2.4420 O   0  0  0  0  0  0  0  0  0  0  0  0
   20.0130   70.6178   -1.0001 O   0  0  0  0  0  0  0  0  0  0  0  0
   19.1872   70.6081   -3.4870 O   0  0  0  0  0  0  0  0  0  0  0  0
   17.7084   72.0661   -4.6256 O   0  0  0  0  0  0  0  0  0  0  0  0
   16.0319   68.3758   -5.4251 O   0  0  0  0  0  0  0  0  0  0  0  0
   17.0417   68.9964   -2.7550 O   0  0  0  0  0  0  0  0  0  0  0  0
   17.5444   69.7676   -7.4808 O   0  0  0  0  0  0  0  0  0  0  0  0
   17.0904   69.2968   -5.1620 C   0  0  2  0  0  0  0  0  0  0  0  0
   16.8726   69.9504   -3.7971 C   0  0  2  0  0  0  0  0  0  0  0  0
   17.0814   70.3558   -6.2667 C   0  0  1  0  0  0  0  0  0  0  0  0
   17.8529   71.1040   -3.5802 C   0  0  1  0  0  0  0  0  0  0  0  0
   17.9883   71.5324   -5.9179 C   0  0  1  0  0  0  0  0  0  0  0  0
   16.0180   67.6934   -4.7357 H   0  0  0  0  0  0  0  0  0  0  0  0
   16.4229   68.2615   -2.8865 H   0  0  0  0  0  0  0  0  0  0  0  0
   16.9758   69.0172   -7.7140 H   0  0  0  0  0  0  0  0  0  0  0  0
   18.6100   73.6922   -6.5890 O   0  0  0  0  0  0  0  0  0  0  0  0
   16.8398   72.7381   -7.6640 O   0  0  0  0  0  0  0  0  0  0  0  0
   17.7256   72.6913   -6.8235 C   0  0  0  0  0  0  0  0  0  0  0  0
  1  4  1  0
  1 24  1  0
  1  2  1  6
  1  3  2  0
 25 28  1  0
 25 24  1  0
 25 26  1  1
 25 27  2  0
  6 11  1  0
  6 12  1  0
 29 36  1  0
 29 37  1  0
  9  7  1  1
  7 13  1  0
 10  8  1  1
  8 14  1  0
  4  5  1  0
 36 28  1  6
 33 30  1  6
 30 38  1  0
 34 31  1  1
 31 39  1  0
 35 32  1  6
 32 40  1  0
 41 43  1  0
 15 19  2  0
 42 43  2  0
 16 22  2  0
 12 17  1  6
 17 19  1  0
 17 20  1  0
 18 19  1  0
 18 22  1  0
 18 23  1  0
  9 10  1  0
  9 11  1  0
 10 12  1  0
 11  5  1  6
 33 34  1  0
 33 35  1  0
 34 36  1  0
 35 37  1  0
 37 43  1  6
 20 21  2  0
 21 22  1  0
M  CHG  3   2  -1  26  -1  41  -1
M  END
>  <COMPND>  (118) 
    udp_gluA.pdb 

>  <AUTHOR>  (118) 
    GENERATED BY OPEN BABEL 3.1.1

>  <MASTER>  (118) 
        0    0    0    0    0    0    0    0   56    0   56    0

>  <minimizedAffinity>  (118) 
-7.59780

>  <CNNscore>  (118) 
0.4707528651

>  <CNNaffinity>  (118) 
4.1117658615

>  <CNN_VS>  (118) 
1.9356255531

>  <CNNaffinity_variance>  (118) 
0.1870668828

$$$$
119
     RDKit          3D

 43 45  0  0  0  0  0  0  0  0999 V2000
   22.2342   71.3867    0.4078 P   0  0  2  0  0  0  0  0  0  0  0  0
   21.3954   72.7327    0.0860 O   0  0  0  0  0  0  0  0  0  0  0  0
   21.4782   70.3349    1.1654 O   0  0  0  0  0  0  0  0  0  0  0  0
   23.5834   71.9300    1.1167 O   0  0  0  0  0  0  0  0  0  0  0  0
   23.4677   72.9235    2.1187 C   0  0  0  0  0  0  0  0  0  0  0  0
   23.8347   71.1287    3.6750 O   0  0  0  0  0  0  0  0  0  0  0  0
   22.2011   72.7265    5.6166 O   0  0  0  0  0  0  0  0  0  0  0  0
   24.7545   73.2291    6.4312 O   0  0  0  0  0  0  0  0  0  0  0  0
   23.1255   73.1786    4.6268 C   0  0  1  0  0  0  0  0  0  0  0  0
   24.5462   72.9047    5.0725 C   0  0  2  0  0  0  0  0  0  0  0  0
   22.9926   72.2717    3.4110 C   0  0  1  0  0  0  0  0  0  0  0  0
   24.6812   71.4164    4.7993 C   0  0  2  0  0  0  0  0  0  0  0  0
   22.2676   73.2908    6.4033 H   0  0  0  0  0  0  0  0  0  0  0  0
   24.6581   74.1871    6.5533 H   0  0  0  0  0  0  0  0  0  0  0  0
   25.5018   68.7763    4.2227 O   0  0  0  0  0  0  0  0  0  0  0  0
   29.8756   70.0813    3.5816 O   0  0  0  0  0  0  0  0  0  0  0  0
   26.0283   71.0381    4.4784 N   0  0  0  0  0  0  0  0  0  0  0  0
   27.6796   69.4286    3.9049 N   0  0  0  0  0  0  0  0  0  0  0  0
   26.3351   69.6841    4.2050 C   0  0  0  0  0  0  0  0  0  0  0  0
   27.0279   72.0024    4.4353 C   0  0  0  0  0  0  0  0  0  0  0  0
   28.3050   71.7436    4.1476 C   0  0  0  0  0  0  0  0  0  0  0  0
   28.7095   70.3538    3.8505 C   0  0  0  0  0  0  0  0  0  0  0  0
   27.9179   68.4928    3.7130 H   0  0  0  0  0  0  0  0  0  0  0  0
   22.7518   70.9240   -1.0520 O   0  0  0  0  0  0  0  0  0  0  0  0
   23.1292   71.7858   -2.3667 P   0  0  2  0  0  0  0  0  0  0  0  0
   24.2802   70.8949   -3.0751 O   0  0  0  0  0  0  0  0  0  0  0  0
   23.5334   73.2028   -2.0790 O   0  0  0  0  0  0  0  0  0  0  0  0
   21.8470   71.6387   -3.3345 O   0  0  0  0  0  0  0  0  0  0  0  0
   21.5415   72.3164   -5.5832 O   0  0  0  0  0  0  0  0  0  0  0  0
   17.7360   72.7763   -4.0422 O   0  0  0  0  0  0  0  0  0  0  0  0
   20.0706   73.6074   -2.4951 O   0  0  0  0  0  0  0  0  0  0  0  0
   18.3519   70.5113   -5.7572 O   0  0  0  0  0  0  0  0  0  0  0  0
   19.0302   72.1862   -4.1637 C   0  0  2  0  0  0  0  0  0  0  0  0
   20.1013   73.2366   -3.8685 C   0  0  2  0  0  0  0  0  0  0  0  0
   19.1786   71.6620   -5.5937 C   0  0  1  0  0  0  0  0  0  0  0  0
   21.4950   72.7080   -4.2106 C   0  0  1  0  0  0  0  0  0  0  0  0
   20.6225   71.2724   -5.8972 C   0  0  1  0  0  0  0  0  0  0  0  0
   17.6189   73.1166   -3.1412 H   0  0  0  0  0  0  0  0  0  0  0  0
   19.1890   73.9435   -2.2710 H   0  0  0  0  0  0  0  0  0  0  0  0
   17.4302   70.7456   -5.5668 H   0  0  0  0  0  0  0  0  0  0  0  0
   20.7038   69.7702   -7.6967 O   0  0  0  0  0  0  0  0  0  0  0  0
   21.0584   71.9735   -8.1644 O   0  0  0  0  0  0  0  0  0  0  0  0
   20.8225   71.0797   -7.3653 C   0  0  0  0  0  0  0  0  0  0  0  0
  1  4  1  0
  1 24  1  0
  1  2  1  6
  1  3  2  0
 25 28  1  0
 25 24  1  0
 25 26  1  6
 25 27  2  0
  6 11  1  0
  6 12  1  0
 29 36  1  0
 29 37  1  0
  9  7  1  1
  7 13  1  0
 10  8  1  1
  8 14  1  0
  4  5  1  0
 36 28  1  1
 33 30  1  6
 30 38  1  0
 34 31  1  1
 31 39  1  0
 35 32  1  1
 32 40  1  0
 41 43  1  0
 15 19  2  0
 42 43  2  0
 16 22  2  0
 12 17  1  6
 17 19  1  0
 17 20  1  0
 18 19  1  0
 18 22  1  0
 18 23  1  0
  9 10  1  0
  9 11  1  0
 10 12  1  0
 11  5  1  6
 33 34  1  0
 33 35  1  0
 34 36  1  0
 35 37  1  0
 37 43  1  6
 20 21  2  0
 21 22  1  0
M  CHG  3   2  -1  26  -1  41  -1
M  END
>  <COMPND>  (119) 
    udp_gluA.pdb 

>  <AUTHOR>  (119) 
    GENERATED BY OPEN BABEL 3.1.1

>  <MASTER>  (119) 
        0    0    0    0    0    0    0    0   56    0   56    0

>  <minimizedAffinity>  (119) 
-7.62730

>  <CNNscore>  (119) 
0.4611831009

>  <CNNaffinity>  (119) 
4.0793275833

>  <CNN_VS>  (119) 
1.8813169003

>  <CNNaffinity_variance>  (119) 
0.3322306275

$$$$
120
     RDKit          3D

 43 45  0  0  0  0  0  0  0  0999 V2000
   21.9257   71.5951    0.4134 P   0  0  2  0  0  0  0  0  0  0  0  0
   20.8578   70.4040    0.6574 O   0  0  0  0  0  0  0  0  0  0  0  0
   21.4176   72.9739    0.7178 O   0  0  0  0  0  0  0  0  0  0  0  0
   22.4374   71.3537   -1.1024 O   0  0  0  0  0  0  0  0  0  0  0  0
   22.2588   72.3907   -2.0496 C   0  0  0  0  0  0  0  0  0  0  0  0
   21.7502   70.6880   -3.6682 O   0  0  0  0  0  0  0  0  0  0  0  0
   23.0247   72.4946   -5.6939 O   0  0  0  0  0  0  0  0  0  0  0  0
   20.3631   72.9187   -6.1084 O   0  0  0  0  0  0  0  0  0  0  0  0
   22.2318   72.8310   -4.5552 C   0  0  1  0  0  0  0  0  0  0  0  0
   20.7748   72.5149   -4.8192 C   0  0  2  0  0  0  0  0  0  0  0  0
   22.5729   71.8526   -3.4396 C   0  0  1  0  0  0  0  0  0  0  0  0
   20.7419   71.0066   -4.6404 C   0  0  2  0  0  0  0  0  0  0  0  0
   22.8242   73.1063   -6.4200 H   0  0  0  0  0  0  0  0  0  0  0  0
   20.4014   73.8864   -6.1717 H   0  0  0  0  0  0  0  0  0  0  0  0
   18.5288   70.4398   -6.3010 O   0  0  0  0  0  0  0  0  0  0  0  0
   15.9138   69.2172   -2.7079 O   0  0  0  0  0  0  0  0  0  0  0  0
   19.4706   70.5388   -4.1652 N   0  0  0  0  0  0  0  0  0  0  0  0
   17.2282   69.8324   -4.5097 N   0  0  0  0  0  0  0  0  0  0  0  0
   18.4242   70.2841   -5.0829 C   0  0  0  0  0  0  0  0  0  0  0  0
   19.2707   70.3353   -2.8052 C   0  0  0  0  0  0  0  0  0  0  0  0
   18.1251   69.9042   -2.2738 C   0  0  0  0  0  0  0  0  0  0  0  0
   16.9814   69.6155   -3.1638 C   0  0  0  0  0  0  0  0  0  0  0  0
   16.4845   69.6503   -5.1286 H   0  0  0  0  0  0  0  0  0  0  0  0
   23.1939   71.1333    1.3029 O   0  0  0  0  0  0  0  0  0  0  0  0
   24.6498   71.8063    1.5055 P   0  0  2  0  0  0  0  0  0  0  0  0
   24.6034   73.0911    0.5219 O   0  0  0  0  0  0  0  0  0  0  0  0
   25.7995   70.8747    1.2520 O   0  0  0  0  0  0  0  0  0  0  0  0
   24.6090   72.4302    2.9926 O   0  0  0  0  0  0  0  0  0  0  0  0
   25.4131   71.5348    5.0324 O   0  0  0  0  0  0  0  0  0  0  0  0
   22.1565   73.7351    6.3059 O   0  0  0  0  0  0  0  0  0  0  0  0
   21.9921   72.1149    3.8805 O   0  0  0  0  0  0  0  0  0  0  0  0
   24.8517   74.7387    6.7300 O   0  0  0  0  0  0  0  0  0  0  0  0
   23.2729   73.4227    5.4728 C   0  0  2  0  0  0  0  0  0  0  0  0
   23.0585   72.0565    4.8207 C   0  0  2  0  0  0  0  0  0  0  0  0
   24.5267   73.4029    6.3499 C   0  0  1  0  0  0  0  0  0  0  0  0
   24.3265   71.5859    4.1071 C   0  0  1  0  0  0  0  0  0  0  0  0
   25.7172   72.8040    5.6066 C   0  0  1  0  0  0  0  0  0  0  0  0
   21.3480   73.7532    5.7700 H   0  0  0  0  0  0  0  0  0  0  0  0
   21.1843   72.4132    4.3265 H   0  0  0  0  0  0  0  0  0  0  0  0
   24.1020   75.1315    7.2039 H   0  0  0  0  0  0  0  0  0  0  0  0
   27.8378   71.8487    5.9102 O   0  0  0  0  0  0  0  0  0  0  0  0
   26.8359   72.7613    7.7440 O   0  0  0  0  0  0  0  0  0  0  0  0
   26.8284   72.4861    6.5535 C   0  0  0  0  0  0  0  0  0  0  0  0
  1  4  1  0
  1 24  1  0
  1  2  1  1
  1  3  2  0
 25 28  1  0
 25 24  1  0
 25 26  1  6
 25 27  2  0
  6 11  1  0
  6 12  1  0
 29 36  1  0
 29 37  1  0
  9  7  1  6
  7 13  1  0
 10  8  1  6
  8 14  1  0
  4  5  1  0
 36 28  1  6
 33 30  1  1
 30 38  1  0
 34 31  1  6
 31 39  1  0
 35 32  1  6
 32 40  1  0
 41 43  1  0
 15 19  2  0
 42 43  2  0
 16 22  2  0
 12 17  1  1
 17 19  1  0
 17 20  1  0
 18 19  1  0
 18 22  1  0
 18 23  1  0
  9 10  1  0
  9 11  1  0
 10 12  1  0
 11  5  1  1
 33 34  1  0
 33 35  1  0
 34 36  1  0
 35 37  1  0
 37 43  1  1
 20 21  2  0
 21 22  1  0
M  CHG  3   2  -1  26  -1  41  -1
M  END
>  <COMPND>  (120) 
    udp_gluA.pdb 

>  <AUTHOR>  (120) 
    GENERATED BY OPEN BABEL 3.1.1

>  <MASTER>  (120) 
        0    0    0    0    0    0    0    0   56    0   56    0

>  <minimizedAffinity>  (120) 
-7.16453

>  <CNNscore>  (120) 
0.4582157731

>  <CNNaffinity>  (120) 
4.0026884079

>  <CNN_VS>  (120) 
1.8340950012

>  <CNNaffinity_variance>  (120) 
0.0545056574

$$$$
121
     RDKit          3D

 43 45  0  0  0  0  0  0  0  0999 V2000
   22.9060   71.9456   -2.3617 P   0  0  2  0  0  0  0  0  0  0  0  0
   23.5573   73.2729   -1.7036 O   0  0  0  0  0  0  0  0  0  0  0  0
   23.7598   71.2645   -3.3908 O   0  0  0  0  0  0  0  0  0  0  0  0
   21.4510   72.4379   -2.8701 O   0  0  0  0  0  0  0  0  0  0  0  0
   20.7793   71.6650   -3.8478 C   0  0  0  0  0  0  0  0  0  0  0  0
   18.6575   72.1521   -4.8668 O   0  0  0  0  0  0  0  0  0  0  0  0
   17.4201   70.7460   -2.5252 O   0  0  0  0  0  0  0  0  0  0  0  0
   17.3116   68.8512   -4.4833 O   0  0  0  0  0  0  0  0  0  0  0  0
   18.6336   70.4520   -3.2176 C   0  0  1  0  0  0  0  0  0  0  0  0
   18.3313   69.8252   -4.5622 C   0  0  2  0  0  0  0  0  0  0  0  0
   19.2771   71.7722   -3.6190 C   0  0  1  0  0  0  0  0  0  0  0  0
   17.9236   71.0330   -5.3886 C   0  0  2  0  0  0  0  0  0  0  0  0
   16.9907   69.9176   -2.2586 H   0  0  0  0  0  0  0  0  0  0  0  0
   17.6199   68.1031   -3.9474 H   0  0  0  0  0  0  0  0  0  0  0  0
   16.0290   70.4281   -7.3939 O   0  0  0  0  0  0  0  0  0  0  0  0
   19.2445   70.4545  -10.6960 O   0  0  0  0  0  0  0  0  0  0  0  0
   18.2384   70.8762   -6.7805 N   0  0  0  0  0  0  0  0  0  0  0  0
   17.6325   70.4408   -9.0365 N   0  0  0  0  0  0  0  0  0  0  0  0
   17.2124   70.5724   -7.7063 C   0  0  0  0  0  0  0  0  0  0  0  0
   19.5495   71.0248   -7.2160 C   0  0  0  0  0  0  0  0  0  0  0  0
   19.9346   70.8966   -8.4872 C   0  0  0  0  0  0  0  0  0  0  0  0
   18.9244   70.5788   -9.5177 C   0  0  0  0  0  0  0  0  0  0  0  0
   16.9363   70.2274   -9.6991 H   0  0  0  0  0  0  0  0  0  0  0  0
   22.5523   71.0374   -1.0722 O   0  0  0  0  0  0  0  0  0  0  0  0
   21.3586   71.1526    0.0120 P   0  0  2  0  0  0  0  0  0  0  0  0
   21.8422   70.1660    1.2008 O   0  0  0  0  0  0  0  0  0  0  0  0
   19.9965   70.8391   -0.5361 O   0  0  0  0  0  0  0  0  0  0  0  0
   21.5072   72.6360    0.6283 O   0  0  0  0  0  0  0  0  0  0  0  0
   23.3496   73.8454    1.4955 O   0  0  0  0  0  0  0  0  0  0  0  0
   20.2923   75.0671    3.9912 O   0  0  0  0  0  0  0  0  0  0  0  0
   20.5325   72.2634    3.2065 O   0  0  0  0  0  0  0  0  0  0  0  0
   21.2689   76.8397    1.9043 O   0  0  0  0  0  0  0  0  0  0  0  0
   20.8763   74.6243    2.7661 C   0  0  2  0  0  0  0  0  0  0  0  0
   21.5253   73.2557    2.9738 C   0  0  2  0  0  0  0  0  0  0  0  0
   21.9274   75.6534    2.3441 C   0  0  1  0  0  0  0  0  0  0  0  0
   22.3556   72.8532    1.7542 C   0  0  1  0  0  0  0  0  0  0  0  0
   22.7964   75.1272    1.2054 C   0  0  1  0  0  0  0  0  0  0  0  0
   19.6210   74.4286    4.2790 H   0  0  0  0  0  0  0  0  0  0  0  0
   20.0017   72.5125    3.9789 H   0  0  0  0  0  0  0  0  0  0  0  0
   20.7123   77.1848    2.6198 H   0  0  0  0  0  0  0  0  0  0  0  0
   24.1970   76.7800    2.1044 O   0  0  0  0  0  0  0  0  0  0  0  0
   24.7354   75.9692    0.0424 O   0  0  0  0  0  0  0  0  0  0  0  0
   24.0081   75.9823    1.0242 C   0  0  0  0  0  0  0  0  0  0  0  0
  1  4  1  0
  1 24  1  0
  1  2  1  1
  1  3  2  0
 25 28  1  0
 25 24  1  0
 25 26  1  1
 25 27  2  0
  6 11  1  0
  6 12  1  0
 29 36  1  0
 29 37  1  0
  9  7  1  6
  7 13  1  0
 10  8  1  1
  8 14  1  0
  4  5  1  0
 36 28  1  6
 33 30  1  1
 30 38  1  0
 34 31  1  6
 31 39  1  0
 35 32  1  6
 32 40  1  0
 41 43  1  0
 15 19  2  0
 42 43  2  0
 16 22  2  0
 12 17  1  6
 17 19  1  0
 17 20  1  0
 18 19  1  0
 18 22  1  0
 18 23  1  0
  9 10  1  0
  9 11  1  0
 10 12  1  0
 11  5  1  6
 33 34  1  0
 33 35  1  0
 34 36  1  0
 35 37  1  0
 37 43  1  1
 20 21  2  0
 21 22  1  0
M  CHG  3   2  -1  26  -1  41  -1
M  END
>  <COMPND>  (121) 
    udp_gluA.pdb 

>  <AUTHOR>  (121) 
    GENERATED BY OPEN BABEL 3.1.1

>  <MASTER>  (121) 
        0    0    0    0    0    0    0    0   56    0   56    0

>  <minimizedAffinity>  (121) 
-7.02235

>  <CNNscore>  (121) 
0.9262809753

>  <CNNaffinity>  (121) 
4.8259248734

>  <CNN_VS>  (121) 
4.4701623917

>  <CNNaffinity_variance>  (121) 
0.0509851091

$$$$
122
     RDKit          3D

 43 45  0  0  0  0  0  0  0  0999 V2000
   21.7958   72.2919   -1.8275 P   0  0  2  0  0  0  0  0  0  0  0  0
   22.4038   73.7212   -2.2817 O   0  0  0  0  0  0  0  0  0  0  0  0
   22.5278   71.0944   -2.3584 O   0  0  0  0  0  0  0  0  0  0  0  0
   20.2305   72.3916   -2.2249 O   0  0  0  0  0  0  0  0  0  0  0  0
   19.7971   71.7777   -3.4248 C   0  0  0  0  0  0  0  0  0  0  0  0
   17.7998   72.0584   -4.7323 O   0  0  0  0  0  0  0  0  0  0  0  0
   16.4235   70.4038   -2.6443 O   0  0  0  0  0  0  0  0  0  0  0  0
   16.8340   68.6065   -4.6537 O   0  0  0  0  0  0  0  0  0  0  0  0
   17.7510   70.2897   -3.1575 C   0  0  1  0  0  0  0  0  0  0  0  0
   17.7252   69.6973   -4.5506 C   0  0  2  0  0  0  0  0  0  0  0  0
   18.2761   71.6948   -3.4184 C   0  0  1  0  0  0  0  0  0  0  0  0
   17.2934   70.8867   -5.3912 C   0  0  2  0  0  0  0  0  0  0  0  0
   16.0667   69.5184   -2.4698 H   0  0  0  0  0  0  0  0  0  0  0  0
   17.1528   67.8752   -4.1010 H   0  0  0  0  0  0  0  0  0  0  0  0
   15.8173   70.0867   -7.6622 O   0  0  0  0  0  0  0  0  0  0  0  0
   19.4237   70.7302  -10.4592 O   0  0  0  0  0  0  0  0  0  0  0  0
   17.8219   70.8359   -6.7249 N   0  0  0  0  0  0  0  0  0  0  0  0
   17.6152   70.4070   -9.0529 N   0  0  0  0  0  0  0  0  0  0  0  0
   16.9963   70.4195   -7.7960 C   0  0  0  0  0  0  0  0  0  0  0  0
   19.1426   71.1973   -6.9619 C   0  0  0  0  0  0  0  0  0  0  0  0
   19.7184   71.1803   -8.1656 C   0  0  0  0  0  0  0  0  0  0  0  0
   18.9251   70.7568   -9.3381 C   0  0  0  0  0  0  0  0  0  0  0  0
   17.0609   70.1187   -9.8138 H   0  0  0  0  0  0  0  0  0  0  0  0
   21.7692   72.4047   -0.2152 O   0  0  0  0  0  0  0  0  0  0  0  0
   22.1739   71.3380    0.9302 P   0  0  2  0  0  0  0  0  0  0  0  0
   23.7584   71.1154    0.6851 O   0  0  0  0  0  0  0  0  0  0  0  0
   21.3617   70.0755    0.9106 O   0  0  0  0  0  0  0  0  0  0  0  0
   22.0881   72.1678    2.3110 O   0  0  0  0  0  0  0  0  0  0  0  0
   20.8441   74.1832    2.3029 O   0  0  0  0  0  0  0  0  0  0  0  0
   22.9391   74.5025    5.8494 O   0  0  0  0  0  0  0  0  0  0  0  0
   24.2520   73.5026    3.4387 O   0  0  0  0  0  0  0  0  0  0  0  0
   20.1141   73.8175    5.8800 O   0  0  0  0  0  0  0  0  0  0  0  0
   22.2636   73.8223    4.7916 C   0  0  2  0  0  0  0  0  0  0  0  0
   22.9666   74.1124    3.4653 C   0  0  2  0  0  0  0  0  0  0  0  0
   20.8197   74.3278    4.7504 C   0  0  1  0  0  0  0  0  0  0  0  0
   22.1444   73.5929    2.2851 C   0  0  1  0  0  0  0  0  0  0  0  0
   20.1054   73.8706    3.4818 C   0  0  1  0  0  0  0  0  0  0  0  0
   23.8589   74.1974    5.8947 H   0  0  0  0  0  0  0  0  0  0  0  0
   24.7790   73.8276    4.1851 H   0  0  0  0  0  0  0  0  0  0  0  0
   20.5586   74.1012    6.6941 H   0  0  0  0  0  0  0  0  0  0  0  0
   17.9446   74.3278    4.2713 O   0  0  0  0  0  0  0  0  0  0  0  0
   18.6100   75.4082    2.3768 O   0  0  0  0  0  0  0  0  0  0  0  0
   18.8308   74.6260    3.2892 C   0  0  0  0  0  0  0  0  0  0  0  0
  1  4  1  0
  1 24  1  0
  1  2  1  6
  1  3  2  0
 25 28  1  0
 25 24  1  0
 25 26  1  6
 25 27  2  0
  6 11  1  0
  6 12  1  0
 29 36  1  0
 29 37  1  0
  9  7  1  6
  7 13  1  0
 10  8  1  1
  8 14  1  0
  4  5  1  0
 36 28  1  1
 33 30  1  1
 30 38  1  0
 34 31  1  1
 31 39  1  0
 35 32  1  1
 32 40  1  0
 41 43  1  0
 15 19  2  0
 42 43  2  0
 16 22  2  0
 12 17  1  6
 17 19  1  0
 17 20  1  0
 18 19  1  0
 18 22  1  0
 18 23  1  0
  9 10  1  0
  9 11  1  0
 10 12  1  0
 11  5  1  6
 33 34  1  0
 33 35  1  0
 34 36  1  0
 35 37  1  0
 37 43  1  6
 20 21  2  0
 21 22  1  0
M  CHG  3   2  -1  26  -1  41  -1
M  END
>  <COMPND>  (122) 
    udp_gluA.pdb 

>  <AUTHOR>  (122) 
    GENERATED BY OPEN BABEL 3.1.1

>  <MASTER>  (122) 
        0    0    0    0    0    0    0    0   56    0   56    0

>  <minimizedAffinity>  (122) 
-6.81671

>  <CNNscore>  (122) 
0.8455767632

>  <CNNaffinity>  (122) 
4.5463094711

>  <CNN_VS>  (122) 
3.8442535400

>  <CNNaffinity_variance>  (122) 
0.0331471898

$$$$
123
     RDKit          3D

 43 45  0  0  0  0  0  0  0  0999 V2000
   21.0115   71.6076   -1.4610 P   0  0  2  0  0  0  0  0  0  0  0  0
   22.1572   71.0302   -2.4473 O   0  0  0  0  0  0  0  0  0  0  0  0
   20.2685   70.5671   -0.6754 O   0  0  0  0  0  0  0  0  0  0  0  0
   20.1055   72.5416   -2.4227 O   0  0  0  0  0  0  0  0  0  0  0  0
   19.6938   72.0245   -3.6747 C   0  0  0  0  0  0  0  0  0  0  0  0
   17.6845   72.0973   -4.9919 O   0  0  0  0  0  0  0  0  0  0  0  0
   16.4212   70.4650   -2.8167 O   0  0  0  0  0  0  0  0  0  0  0  0
   16.9584   68.5962   -4.7286 O   0  0  0  0  0  0  0  0  0  0  0  0
   17.7544   70.4154   -3.3254 C   0  0  1  0  0  0  0  0  0  0  0  0
   17.7722   69.7496   -4.6850 C   0  0  2  0  0  0  0  0  0  0  0  0
   18.1821   71.8375   -3.6614 C   0  0  1  0  0  0  0  0  0  0  0  0
   17.2612   70.8603   -5.5868 C   0  0  2  0  0  0  0  0  0  0  0  0
   16.1258   69.5677   -2.5949 H   0  0  0  0  0  0  0  0  0  0  0  0
   17.3256   67.9189   -4.1384 H   0  0  0  0  0  0  0  0  0  0  0  0
   15.7313   70.2578   -7.8831 O   0  0  0  0  0  0  0  0  0  0  0  0
   19.4132   70.5607  -10.6392 O   0  0  0  0  0  0  0  0  0  0  0  0
   17.7946   70.7753   -6.9169 N   0  0  0  0  0  0  0  0  0  0  0  0
   17.5668   70.4082   -9.2534 N   0  0  0  0  0  0  0  0  0  0  0  0
   16.9403   70.4660   -8.0016 C   0  0  0  0  0  0  0  0  0  0  0  0
   19.1484   70.9985   -7.1368 C   0  0  0  0  0  0  0  0  0  0  0  0
   19.7311   70.9400   -8.3359 C   0  0  0  0  0  0  0  0  0  0  0  0
   18.9091   70.6219   -9.5219 C   0  0  0  0  0  0  0  0  0  0  0  0
   16.9927   70.1925  -10.0237 H   0  0  0  0  0  0  0  0  0  0  0  0
   21.8154   72.6837   -0.5618 O   0  0  0  0  0  0  0  0  0  0  0  0
   21.3163   74.0299    0.1813 P   0  0  2  0  0  0  0  0  0  0  0  0
   19.8023   73.6678    0.6252 O   0  0  0  0  0  0  0  0  0  0  0  0
   21.4359   75.2734   -0.6514 O   0  0  0  0  0  0  0  0  0  0  0  0
   22.1479   74.0670    1.5631 O   0  0  0  0  0  0  0  0  0  0  0  0
   24.1817   73.0535    2.2308 O   0  0  0  0  0  0  0  0  0  0  0  0
   21.9759   72.8904    5.7202 O   0  0  0  0  0  0  0  0  0  0  0  0
   20.7295   72.2767    3.1503 O   0  0  0  0  0  0  0  0  0  0  0  0
   24.0995   74.8538    5.4268 O   0  0  0  0  0  0  0  0  0  0  0  0
   22.4012   73.4366    4.4717 C   0  0  2  0  0  0  0  0  0  0  0  0
   22.1295   72.4299    3.3535 C   0  0  2  0  0  0  0  0  0  0  0  0
   23.8998   73.7309    4.5703 C   0  0  1  0  0  0  0  0  0  0  0  0
   22.7767   72.8800    2.0430 C   0  0  1  0  0  0  0  0  0  0  0  0
   24.4962   74.0489    3.2022 C   0  0  1  0  0  0  0  0  0  0  0  0
   21.0263   72.6953    5.6812 H   0  0  0  0  0  0  0  0  0  0  0  0
   20.3123   71.9916    3.9779 H   0  0  0  0  0  0  0  0  0  0  0  0
   23.7242   74.6644    6.3010 H   0  0  0  0  0  0  0  0  0  0  0  0
   26.4130   73.2363    4.2825 O   0  0  0  0  0  0  0  0  0  0  0  0
   26.7324   74.5880    2.4742 O   0  0  0  0  0  0  0  0  0  0  0  0
   25.9889   74.0091    3.2520 C   0  0  0  0  0  0  0  0  0  0  0  0
  1  4  1  0
  1 24  1  0
  1  2  1  6
  1  3  2  0
 25 28  1  0
 25 24  1  0
 25 26  1  1
 25 27  2  0
  6 11  1  0
  6 12  1  0
 29 36  1  0
 29 37  1  0
  9  7  1  6
  7 13  1  0
 10  8  1  1
  8 14  1  0
  4  5  1  0
 36 28  1  1
 33 30  1  1
 30 38  1  0
 34 31  1  6
 31 39  1  0
 35 32  1  1
 32 40  1  0
 41 43  1  0
 15 19  2  0
 42 43  2  0
 16 22  2  0
 12 17  1  6
 17 19  1  0
 17 20  1  0
 18 19  1  0
 18 22  1  0
 18 23  1  0
  9 10  1  0
  9 11  1  0
 10 12  1  0
 11  5  1  6
 33 34  1  0
 33 35  1  0
 34 36  1  0
 35 37  1  0
 37 43  1  1
 20 21  2  0
 21 22  1  0
M  CHG  3   2  -1  26  -1  41  -1
M  END
>  <COMPND>  (123) 
    udp_gluA.pdb 

>  <AUTHOR>  (123) 
    GENERATED BY OPEN BABEL 3.1.1

>  <MASTER>  (123) 
        0    0    0    0    0    0    0    0   56    0   56    0

>  <minimizedAffinity>  (123) 
-7.05517

>  <CNNscore>  (123) 
0.8184438348

>  <CNNaffinity>  (123) 
4.4688196182

>  <CNN_VS>  (123) 
3.6574778557

>  <CNNaffinity_variance>  (123) 
0.0409905836

$$$$
124
     RDKit          3D

 43 45  0  0  0  0  0  0  0  0999 V2000
   21.6398   72.3756   -1.7727 P   0  0  2  0  0  0  0  0  0  0  0  0
   22.5177   73.5246   -2.4993 O   0  0  0  0  0  0  0  0  0  0  0  0
   22.1921   70.9855   -1.8925 O   0  0  0  0  0  0  0  0  0  0  0  0
   20.1495   72.5930   -2.3642 O   0  0  0  0  0  0  0  0  0  0  0  0
   19.7409   71.8110   -3.4714 C   0  0  0  0  0  0  0  0  0  0  0  0
   17.7509   72.0663   -4.7953 O   0  0  0  0  0  0  0  0  0  0  0  0
   16.3745   70.4093   -2.7093 O   0  0  0  0  0  0  0  0  0  0  0  0
   16.8170   68.6060   -4.7064 O   0  0  0  0  0  0  0  0  0  0  0  0
   17.7068   70.3051   -3.2119 C   0  0  1  0  0  0  0  0  0  0  0  0
   17.6972   69.7055   -4.6021 C   0  0  2  0  0  0  0  0  0  0  0  0
   18.2207   71.7138   -3.4761 C   0  0  1  0  0  0  0  0  0  0  0  0
   17.2606   70.8867   -5.4520 C   0  0  2  0  0  0  0  0  0  0  0  0
   16.0247   69.5215   -2.5330 H   0  0  0  0  0  0  0  0  0  0  0  0
   17.1385   67.8804   -4.1476 H   0  0  0  0  0  0  0  0  0  0  0  0
   15.7962   70.1048   -7.7369 O   0  0  0  0  0  0  0  0  0  0  0  0
   19.4312   70.7225  -10.5026 O   0  0  0  0  0  0  0  0  0  0  0  0
   17.7996   70.8341   -6.7815 N   0  0  0  0  0  0  0  0  0  0  0  0
   17.6083   70.4122   -9.1120 N   0  0  0  0  0  0  0  0  0  0  0  0
   16.9792   70.4275   -7.8602 C   0  0  0  0  0  0  0  0  0  0  0  0
   19.1254   71.1843   -7.0067 C   0  0  0  0  0  0  0  0  0  0  0  0
   19.7109   71.1649   -8.2056 C   0  0  0  0  0  0  0  0  0  0  0  0
   18.9236   70.7510   -9.3856 C   0  0  0  0  0  0  0  0  0  0  0  0
   17.0578   70.1305   -9.8782 H   0  0  0  0  0  0  0  0  0  0  0  0
   21.5121   72.9211   -0.2564 O   0  0  0  0  0  0  0  0  0  0  0  0
   21.3275   72.1330    1.1431 P   0  0  2  0  0  0  0  0  0  0  0  0
   21.0418   70.6100    0.6750 O   0  0  0  0  0  0  0  0  0  0  0  0
   20.2730   72.7120    2.0414 O   0  0  0  0  0  0  0  0  0  0  0  0
   22.8060   72.0906    1.7870 O   0  0  0  0  0  0  0  0  0  0  0  0
   24.5624   73.4244    0.9239 O   0  0  0  0  0  0  0  0  0  0  0  0
   26.6494   70.5378    3.0167 O   0  0  0  0  0  0  0  0  0  0  0  0
   24.3389   69.8046    1.3862 O   0  0  0  0  0  0  0  0  0  0  0  0
   26.3679   73.2161    4.1112 O   0  0  0  0  0  0  0  0  0  0  0  0
   25.5537   71.4101    2.7399 C   0  0  2  0  0  0  0  0  0  0  0  0
   24.9707   71.0794    1.3658 C   0  0  2  0  0  0  0  0  0  0  0  0
   26.0764   72.8482    2.7643 C   0  0  1  0  0  0  0  0  0  0  0  0
   23.9501   72.1343    0.9363 C   0  0  1  0  0  0  0  0  0  0  0  0
   25.0465   73.8248    2.2039 C   0  0  1  0  0  0  0  0  0  0  0  0
   26.3412   69.6179    3.0064 H   0  0  0  0  0  0  0  0  0  0  0  0
   24.9807   69.1304    1.6582 H   0  0  0  0  0  0  0  0  0  0  0  0
   27.0222   72.6022    4.4797 H   0  0  0  0  0  0  0  0  0  0  0  0
   26.0552   75.7526    3.0800 O   0  0  0  0  0  0  0  0  0  0  0  0
   25.8220   75.6386    0.8147 O   0  0  0  0  0  0  0  0  0  0  0  0
   25.6714   75.1531    1.9258 C   0  0  0  0  0  0  0  0  0  0  0  0
  1  4  1  0
  1 24  1  0
  1  2  1  6
  1  3  2  0
 25 28  1  0
 25 24  1  0
 25 26  1  6
 25 27  2  0
  6 11  1  0
  6 12  1  0
 29 36  1  0
 29 37  1  0
  9  7  1  6
  7 13  1  0
 10  8  1  1
  8 14  1  0
  4  5  1  0
 36 28  1  1
 33 30  1  6
 30 38  1  0
 34 31  1  1
 31 39  1  0
 35 32  1  1
 32 40  1  0
 41 43  1  0
 15 19  2  0
 42 43  2  0
 16 22  2  0
 12 17  1  6
 17 19  1  0
 17 20  1  0
 18 19  1  0
 18 22  1  0
 18 23  1  0
  9 10  1  0
  9 11  1  0
 10 12  1  0
 11  5  1  6
 33 34  1  0
 33 35  1  0
 34 36  1  0
 35 37  1  0
 37 43  1  6
 20 21  2  0
 21 22  1  0
M  CHG  3   2  -1  26  -1  41  -1
M  END
>  <COMPND>  (124) 
    udp_gluA.pdb 

>  <AUTHOR>  (124) 
    GENERATED BY OPEN BABEL 3.1.1

>  <MASTER>  (124) 
        0    0    0    0    0    0    0    0   56    0   56    0

>  <minimizedAffinity>  (124) 
-7.37268

>  <CNNscore>  (124) 
0.8183988333

>  <CNNaffinity>  (124) 
4.7163262367

>  <CNN_VS>  (124) 
3.8598358631

>  <CNNaffinity_variance>  (124) 
0.1150328517

$$$$
125
     RDKit          3D

 43 45  0  0  0  0  0  0  0  0999 V2000
   23.2181   71.8080   -2.3529 P   0  0  2  0  0  0  0  0  0  0  0  0
   23.7872   73.2571   -1.9114 O   0  0  0  0  0  0  0  0  0  0  0  0
   24.1367   71.0063   -3.2278 O   0  0  0  0  0  0  0  0  0  0  0  0
   21.7620   72.1361   -2.9774 O   0  0  0  0  0  0  0  0  0  0  0  0
   21.0270   71.0810   -3.5697 C   0  0  0  0  0  0  0  0  0  0  0  0
   18.9106   71.7941   -4.4586 O   0  0  0  0  0  0  0  0  0  0  0  0
   17.6607   70.3078   -2.1738 O   0  0  0  0  0  0  0  0  0  0  0  0
   17.3376   68.5786   -4.2575 O   0  0  0  0  0  0  0  0  0  0  0  0
   18.8220   69.9807   -2.9373 C   0  0  1  0  0  0  0  0  0  0  0  0
   18.4234   69.4803   -4.3095 C   0  0  2  0  0  0  0  0  0  0  0  0
   19.5466   71.2779   -3.2693 C   0  0  1  0  0  0  0  0  0  0  0  0
   18.0761   70.7730   -5.0280 C   0  0  2  0  0  0  0  0  0  0  0  0
   17.1810   69.4945   -1.9497 H   0  0  0  0  0  0  0  0  0  0  0  0
   17.6092   67.7721   -3.7909 H   0  0  0  0  0  0  0  0  0  0  0  0
   16.2174   69.8194   -6.9286 O   0  0  0  0  0  0  0  0  0  0  0  0
   19.1421   70.5356  -10.4182 O   0  0  0  0  0  0  0  0  0  0  0  0
   18.3258   70.6993   -6.4397 N   0  0  0  0  0  0  0  0  0  0  0  0
   17.6762   70.1761   -8.6647 N   0  0  0  0  0  0  0  0  0  0  0  0
   17.3248   70.2043   -7.3087 C   0  0  0  0  0  0  0  0  0  0  0  0
   19.5492   71.1158   -6.9504 C   0  0  0  0  0  0  0  0  0  0  0  0
   19.8695   71.0830   -8.2454 C   0  0  0  0  0  0  0  0  0  0  0  0
   18.8800   70.5787   -9.2200 C   0  0  0  0  0  0  0  0  0  0  0  0
   16.9962   69.8335   -9.2889 H   0  0  0  0  0  0  0  0  0  0  0  0
   22.8587   71.1130   -0.9385 O   0  0  0  0  0  0  0  0  0  0  0  0
   21.9319   71.6168    0.2866 P   0  0  2  0  0  0  0  0  0  0  0  0
   20.7441   70.5179    0.3281 O   0  0  0  0  0  0  0  0  0  0  0  0
   21.4577   73.0354    0.1570 O   0  0  0  0  0  0  0  0  0  0  0  0
   22.8063   71.3215    1.6097 O   0  0  0  0  0  0  0  0  0  0  0  0
   23.1937   73.1052    3.1188 O   0  0  0  0  0  0  0  0  0  0  0  0
   25.9942   70.3323    4.3582 O   0  0  0  0  0  0  0  0  0  0  0  0
   25.5376   70.8052    1.5118 O   0  0  0  0  0  0  0  0  0  0  0  0
   23.5677   70.7470    5.9046 O   0  0  0  0  0  0  0  0  0  0  0  0
   24.7537   70.7749    3.8075 C   0  0  2  0  0  0  0  0  0  0  0  0
   25.0192   71.6168    2.5593 C   0  0  2  0  0  0  0  0  0  0  0  0
   24.0358   71.6102    4.8700 C   0  0  1  0  0  0  0  0  0  0  0  0
   23.7377   72.2965    2.0750 C   0  0  1  0  0  0  0  0  0  0  0  0
   22.8424   72.3559    4.2799 C   0  0  1  0  0  0  0  0  0  0  0  0
   26.4682   69.7993    3.7006 H   0  0  0  0  0  0  0  0  0  0  0  0
   26.3507   70.3706    1.8123 H   0  0  0  0  0  0  0  0  0  0  0  0
   24.3176   70.2663    6.2886 H   0  0  0  0  0  0  0  0  0  0  0  0
   21.4058   74.1760    4.6334 O   0  0  0  0  0  0  0  0  0  0  0  0
   22.7494   73.5589    6.3692 O   0  0  0  0  0  0  0  0  0  0  0  0
   22.3548   73.4072    5.2228 C   0  0  0  0  0  0  0  0  0  0  0  0
  1  4  1  0
  1 24  1  0
  1  2  1  1
  1  3  2  0
 25 28  1  0
 25 24  1  0
 25 26  1  1
 25 27  2  0
  6 11  1  0
  6 12  1  0
 29 36  1  0
 29 37  1  0
  9  7  1  1
  7 13  1  0
 10  8  1  1
  8 14  1  0
  4  5  1  0
 36 28  1  1
 33 30  1  1
 30 38  1  0
 34 31  1  6
 31 39  1  0
 35 32  1  1
 32 40  1  0
 41 43  1  0
 15 19  2  0
 42 43  2  0
 16 22  2  0
 12 17  1  6
 17 19  1  0
 17 20  1  0
 18 19  1  0
 18 22  1  0
 18 23  1  0
  9 10  1  0
  9 11  1  0
 10 12  1  0
 11  5  1  6
 33 34  1  0
 33 35  1  0
 34 36  1  0
 35 37  1  0
 37 43  1  1
 20 21  2  0
 21 22  1  0
M  CHG  3   2  -1  26  -1  41  -1
M  END
>  <COMPND>  (125) 
    udp_gluA.pdb 

>  <AUTHOR>  (125) 
    GENERATED BY OPEN BABEL 3.1.1

>  <MASTER>  (125) 
        0    0    0    0    0    0    0    0   56    0   56    0

>  <minimizedAffinity>  (125) 
-8.51442

>  <CNNscore>  (125) 
0.8179992437

>  <CNNaffinity>  (125) 
4.6571664810

>  <CNN_VS>  (125) 
3.8095586300

>  <CNNaffinity_variance>  (125) 
0.0958061069

$$$$
126
     RDKit          3D

 43 45  0  0  0  0  0  0  0  0999 V2000
   20.6561   71.4041   -1.6618 P   0  0  2  0  0  0  0  0  0  0  0  0
   21.6991   70.7649   -2.7212 O   0  0  0  0  0  0  0  0  0  0  0  0
   19.6525   70.4400   -1.1005 O   0  0  0  0  0  0  0  0  0  0  0  0
   20.0426   72.6814   -2.4429 O   0  0  0  0  0  0  0  0  0  0  0  0
   19.6376   72.5196   -3.7899 C   0  0  0  0  0  0  0  0  0  0  0  0
   17.8019   73.0058   -5.2635 O   0  0  0  0  0  0  0  0  0  0  0  0
   16.0236   71.9378   -3.0982 O   0  0  0  0  0  0  0  0  0  0  0  0
   16.1603   69.8463   -4.8426 O   0  0  0  0  0  0  0  0  0  0  0  0
   17.3240   71.5030   -3.4960 C   0  0  1  0  0  0  0  0  0  0  0  0
   17.2464   70.7484   -4.8062 C   0  0  2  0  0  0  0  0  0  0  0  0
   18.1324   72.7334   -3.8844 C   0  0  1  0  0  0  0  0  0  0  0  0
   17.1026   71.8775   -5.8124 C   0  0  2  0  0  0  0  0  0  0  0  0
   15.4884   71.1688   -2.8453 H   0  0  0  0  0  0  0  0  0  0  0  0
   16.2991   69.1465   -4.1845 H   0  0  0  0  0  0  0  0  0  0  0  0
   16.5131   73.2345   -8.2181 O   0  0  0  0  0  0  0  0  0  0  0  0
   19.3506   70.5359  -10.6492 O   0  0  0  0  0  0  0  0  0  0  0  0
   17.6732   71.5503   -7.0884 N   0  0  0  0  0  0  0  0  0  0  0  0
   17.9262   71.8885   -9.4268 N   0  0  0  0  0  0  0  0  0  0  0  0
   17.3100   72.2945   -8.2358 C   0  0  0  0  0  0  0  0  0  0  0  0
   18.5822   70.5046   -7.1942 C   0  0  0  0  0  0  0  0  0  0  0  0
   19.1613   70.1294   -8.3364 C   0  0  0  0  0  0  0  0  0  0  0  0
   18.8355   70.8548   -9.5818 C   0  0  0  0  0  0  0  0  0  0  0  0
   17.6874   72.3904  -10.2395 H   0  0  0  0  0  0  0  0  0  0  0  0
   21.6264   72.0827   -0.5615 O   0  0  0  0  0  0  0  0  0  0  0  0
   22.4817   71.4307    0.6456 P   0  0  2  0  0  0  0  0  0  0  0  0
   23.8822   71.0367   -0.0643 O   0  0  0  0  0  0  0  0  0  0  0  0
   21.7969   70.2886    1.3387 O   0  0  0  0  0  0  0  0  0  0  0  0
   22.8478   72.6742    1.6060 O   0  0  0  0  0  0  0  0  0  0  0  0
   22.2489   72.4836    3.8894 O   0  0  0  0  0  0  0  0  0  0  0  0
   23.1397   76.5064    3.5869 O   0  0  0  0  0  0  0  0  0  0  0  0
   21.6160   75.1650    1.4861 O   0  0  0  0  0  0  0  0  0  0  0  0
   25.0160   74.6882    4.8616 O   0  0  0  0  0  0  0  0  0  0  0  0
   23.2563   75.1186    3.2730 C   0  0  2  0  0  0  0  0  0  0  0  0
   21.9157   74.5965    2.7556 C   0  0  2  0  0  0  0  0  0  0  0  0
   23.6593   74.3773    4.5497 C   0  0  1  0  0  0  0  0  0  0  0  0
   21.9349   73.0728    2.6270 C   0  0  1  0  0  0  0  0  0  0  0  0
   23.5318   72.8661    4.3802 C   0  0  1  0  0  0  0  0  0  0  0  0
   22.8843   76.9979    2.7904 H   0  0  0  0  0  0  0  0  0  0  0  0
   21.6025   76.1318    1.5603 H   0  0  0  0  0  0  0  0  0  0  0  0
   25.1108   75.6472    4.9718 H   0  0  0  0  0  0  0  0  0  0  0  0
   23.6871   73.0798    6.7108 O   0  0  0  0  0  0  0  0  0  0  0  0
   23.5892   70.9648    5.8645 O   0  0  0  0  0  0  0  0  0  0  0  0
   23.6043   72.1759    5.7034 C   0  0  0  0  0  0  0  0  0  0  0  0
  1  4  1  0
  1 24  1  0
  1  2  1  6
  1  3  2  0
 25 28  1  0
 25 24  1  0
 25 26  1  6
 25 27  2  0
  6 11  1  0
  6 12  1  0
 29 36  1  0
 29 37  1  0
  9  7  1  6
  7 13  1  0
 10  8  1  1
  8 14  1  0
  4  5  1  0
 36 28  1  6
 33 30  1  1
 30 38  1  0
 34 31  1  6
 31 39  1  0
 35 32  1  6
 32 40  1  0
 41 43  1  0
 15 19  2  0
 42 43  2  0
 16 22  2  0
 12 17  1  6
 17 19  1  0
 17 20  1  0
 18 19  1  0
 18 22  1  0
 18 23  1  0
  9 10  1  0
  9 11  1  0
 10 12  1  0
 11  5  1  6
 33 34  1  0
 33 35  1  0
 34 36  1  0
 35 37  1  0
 37 43  1  1
 20 21  2  0
 21 22  1  0
M  CHG  3   2  -1  26  -1  41  -1
M  END
>  <COMPND>  (126) 
    udp_gluA.pdb 

>  <AUTHOR>  (126) 
    GENERATED BY OPEN BABEL 3.1.1

>  <MASTER>  (126) 
        0    0    0    0    0    0    0    0   56    0   56    0

>  <minimizedAffinity>  (126) 
-7.02246

>  <CNNscore>  (126) 
0.6987808943

>  <CNNaffinity>  (126) 
4.1940445900

>  <CNN_VS>  (126) 
2.9307181835

>  <CNNaffinity_variance>  (126) 
0.0290161185

$$$$
127
     RDKit          3D

 43 45  0  0  0  0  0  0  0  0999 V2000
   21.9617   72.6985   -5.8537 P   0  0  2  0  0  0  0  0  0  0  0  0
   21.5154   74.1380   -5.2643 O   0  0  0  0  0  0  0  0  0  0  0  0
   22.9988   72.7514   -6.9370 O   0  0  0  0  0  0  0  0  0  0  0  0
   20.5624   71.9920   -6.2546 O   0  0  0  0  0  0  0  0  0  0  0  0
   20.0252   72.2377   -7.5413 C   0  0  0  0  0  0  0  0  0  0  0  0
   19.0045   70.1284   -7.0057 O   0  0  0  0  0  0  0  0  0  0  0  0
   18.1923   70.0005   -9.8894 O   0  0  0  0  0  0  0  0  0  0  0  0
   15.8962   70.8065   -8.6588 O   0  0  0  0  0  0  0  0  0  0  0  0
   18.2778   71.1329   -9.0241 C   0  0  1  0  0  0  0  0  0  0  0  0
   17.1249   71.1310   -8.0427 C   0  0  2  0  0  0  0  0  0  0  0  0
   19.4770   70.9340   -8.1072 C   0  0  1  0  0  0  0  0  0  0  0  0
   17.5691   70.0833   -7.0363 C   0  0  2  0  0  0  0  0  0  0  0  0
   17.4332   70.1048  -10.4849 H   0  0  0  0  0  0  0  0  0  0  0  0
   15.6569   71.5038   -9.2900 H   0  0  0  0  0  0  0  0  0  0  0  0
   16.3116   68.1536   -5.4018 O   0  0  0  0  0  0  0  0  0  0  0  0
   15.6763   71.1895   -1.9924 O   0  0  0  0  0  0  0  0  0  0  0  0
   17.0656   70.3424   -5.7172 N   0  0  0  0  0  0  0  0  0  0  0  0
   15.9955   69.6678   -3.7057 N   0  0  0  0  0  0  0  0  0  0  0  0
   16.4506   69.3032   -4.9797 C   0  0  0  0  0  0  0  0  0  0  0  0
   17.1846   71.6126   -5.1664 C   0  0  0  0  0  0  0  0  0  0  0  0
   16.7461   71.9450   -3.9507 C   0  0  0  0  0  0  0  0  0  0  0  0
   16.0906   70.9175   -3.1152 C   0  0  0  0  0  0  0  0  0  0  0  0
   15.5619   68.9616   -3.1741 H   0  0  0  0  0  0  0  0  0  0  0  0
   22.4119   71.8880   -4.5297 O   0  0  0  0  0  0  0  0  0  0  0  0
   23.5975   72.1664   -3.4665 P   0  0  2  0  0  0  0  0  0  0  0  0
   24.5824   73.1721   -4.2658 O   0  0  0  0  0  0  0  0  0  0  0  0
   24.2667   70.9252   -2.9512 O   0  0  0  0  0  0  0  0  0  0  0  0
   22.9177   73.0830   -2.3262 O   0  0  0  0  0  0  0  0  0  0  0  0
   21.6413   71.7652   -0.8284 O   0  0  0  0  0  0  0  0  0  0  0  0
   20.8364   75.5868    0.5189 O   0  0  0  0  0  0  0  0  0  0  0  0
   20.9137   75.0117   -2.3442 O   0  0  0  0  0  0  0  0  0  0  0  0
   22.6644   73.8742    1.9942 O   0  0  0  0  0  0  0  0  0  0  0  0
   21.6231   74.5515   -0.0703 C   0  0  2  0  0  0  0  0  0  0  0  0
   20.9199   74.0231   -1.3208 C   0  0  2  0  0  0  0  0  0  0  0  0
   21.7836   73.4336    0.9625 C   0  0  1  0  0  0  0  0  0  0  0  0
   21.6121   72.7653   -1.8475 C   0  0  1  0  0  0  0  0  0  0  0  0
   22.3642   72.1714    0.3316 C   0  0  1  0  0  0  0  0  0  0  0  0
   20.7211   76.3084   -0.1193 H   0  0  0  0  0  0  0  0  0  0  0  0
   20.4762   75.8127   -2.0168 H   0  0  0  0  0  0  0  0  0  0  0  0
   22.3064   74.6773    2.4039 H   0  0  0  0  0  0  0  0  0  0  0  0
   23.1342   71.0483    2.2414 O   0  0  0  0  0  0  0  0  0  0  0  0
   21.3729   70.1213    1.1290 O   0  0  0  0  0  0  0  0  0  0  0  0
   22.2118   71.0016    1.2485 C   0  0  0  0  0  0  0  0  0  0  0  0
  1  4  1  0
  1 24  1  0
  1  2  1  1
  1  3  2  0
 25 28  1  0
 25 24  1  0
 25 26  1  6
 25 27  2  0
  6 11  1  0
  6 12  1  0
 29 36  1  0
 29 37  1  0
  9  7  1  6
  7 13  1  0
 10  8  1  6
  8 14  1  0
  4  5  1  0
 36 28  1  1
 33 30  1  1
 30 38  1  0
 34 31  1  6
 31 39  1  0
 35 32  1  1
 32 40  1  0
 41 43  1  0
 15 19  2  0
 42 43  2  0
 16 22  2  0
 12 17  1  1
 17 19  1  0
 17 20  1  0
 18 19  1  0
 18 22  1  0
 18 23  1  0
  9 10  1  0
  9 11  1  0
 10 12  1  0
 11  5  1  1
 33 34  1  0
 33 35  1  0
 34 36  1  0
 35 37  1  0
 37 43  1  1
 20 21  2  0
 21 22  1  0
M  CHG  3   2  -1  26  -1  41  -1
M  END
>  <COMPND>  (127) 
    udp_gluA.pdb 

>  <AUTHOR>  (127) 
    GENERATED BY OPEN BABEL 3.1.1

>  <MASTER>  (127) 
        0    0    0    0    0    0    0    0   56    0   56    0

>  <minimizedAffinity>  (127) 
-8.05969

>  <CNNscore>  (127) 
0.6984832883

>  <CNNaffinity>  (127) 
4.5060176849

>  <CNN_VS>  (127) 
3.1473779678

>  <CNNaffinity_variance>  (127) 
0.3995139003

$$$$
128
     RDKit          3D

 43 45  0  0  0  0  0  0  0  0999 V2000
   23.1475   71.6492   -2.4128 P   0  0  2  0  0  0  0  0  0  0  0  0
   22.8071   73.1302   -2.9693 O   0  0  0  0  0  0  0  0  0  0  0  0
   24.2451   70.9342   -3.1448 O   0  0  0  0  0  0  0  0  0  0  0  0
   21.7125   70.9019   -2.3941 O   0  0  0  0  0  0  0  0  0  0  0  0
   20.9837   70.8071   -3.6043 C   0  0  0  0  0  0  0  0  0  0  0  0
   18.9644   71.7298   -4.5255 O   0  0  0  0  0  0  0  0  0  0  0  0
   17.5300   70.3428   -2.2873 O   0  0  0  0  0  0  0  0  0  0  0  0
   17.0881   68.6773   -4.4008 O   0  0  0  0  0  0  0  0  0  0  0  0
   18.6709   69.9152   -3.0316 C   0  0  1  0  0  0  0  0  0  0  0  0
   18.2558   69.4716   -4.4184 C   0  0  2  0  0  0  0  0  0  0  0  0
   19.5229   71.1411   -3.3310 C   0  0  1  0  0  0  0  0  0  0  0  0
   18.0488   70.8000   -5.1257 C   0  0  2  0  0  0  0  0  0  0  0  0
   16.9703   69.5765   -2.0841 H   0  0  0  0  0  0  0  0  0  0  0  0
   17.2716   67.8430   -3.9400 H   0  0  0  0  0  0  0  0  0  0  0  0
   16.1709   69.9766   -7.0679 O   0  0  0  0  0  0  0  0  0  0  0  0
   19.2010   70.5297  -10.4967 O   0  0  0  0  0  0  0  0  0  0  0  0
   18.3204   70.7196   -6.5331 N   0  0  0  0  0  0  0  0  0  0  0  0
   17.6822   70.2519   -8.7737 N   0  0  0  0  0  0  0  0  0  0  0  0
   17.3073   70.2937   -7.4243 C   0  0  0  0  0  0  0  0  0  0  0  0
   19.5770   71.0618   -7.0176 C   0  0  0  0  0  0  0  0  0  0  0  0
   19.9194   71.0170   -8.3066 C   0  0  0  0  0  0  0  0  0  0  0  0
   18.9192   70.5818   -9.3033 C   0  0  0  0  0  0  0  0  0  0  0  0
   16.9942   69.9564   -9.4129 H   0  0  0  0  0  0  0  0  0  0  0  0
   23.4421   71.9094   -0.8449 O   0  0  0  0  0  0  0  0  0  0  0  0
   23.4000   73.2670    0.0319 P   0  0  2  0  0  0  0  0  0  0  0  0
   21.8212   73.6193    0.0925 O   0  0  0  0  0  0  0  0  0  0  0  0
   24.2604   74.3739   -0.5051 O   0  0  0  0  0  0  0  0  0  0  0  0
   23.7703   72.7981    1.5304 O   0  0  0  0  0  0  0  0  0  0  0  0
   24.1764   70.6790    2.5069 O   0  0  0  0  0  0  0  0  0  0  0  0
   22.1551   72.6277    5.5375 O   0  0  0  0  0  0  0  0  0  0  0  0
   21.2790   72.8939    2.7633 O   0  0  0  0  0  0  0  0  0  0  0  0
   25.0325   72.2516    5.7094 O   0  0  0  0  0  0  0  0  0  0  0  0
   23.0223   72.5201    4.4086 C   0  0  2  0  0  0  0  0  0  0  0  0
   22.2460   71.9548    3.2190 C   0  0  2  0  0  0  0  0  0  0  0  0
   24.1744   71.5857    4.7848 C   0  0  1  0  0  0  0  0  0  0  0  0
   23.1883   71.6105    2.0647 C   0  0  1  0  0  0  0  0  0  0  0  0
   24.9923   71.1884    3.5594 C   0  0  1  0  0  0  0  0  0  0  0  0
   21.4150   73.2169    5.3219 H   0  0  0  0  0  0  0  0  0  0  0  0
   20.6779   73.1172    3.4908 H   0  0  0  0  0  0  0  0  0  0  0  0
   24.5242   72.5099    6.4940 H   0  0  0  0  0  0  0  0  0  0  0  0
   27.0714   70.4770    4.3795 O   0  0  0  0  0  0  0  0  0  0  0  0
   25.6126   68.8611    3.7014 O   0  0  0  0  0  0  0  0  0  0  0  0
   25.8927   70.0380    3.8727 C   0  0  0  0  0  0  0  0  0  0  0  0
  1  4  1  0
  1 24  1  0
  1  2  1  6
  1  3  2  0
 25 28  1  0
 25 24  1  0
 25 26  1  1
 25 27  2  0
  6 11  1  0
  6 12  1  0
 29 36  1  0
 29 37  1  0
  9  7  1  1
  7 13  1  0
 10  8  1  1
  8 14  1  0
  4  5  1  0
 36 28  1  1
 33 30  1  1
 30 38  1  0
 34 31  1  6
 31 39  1  0
 35 32  1  1
 32 40  1  0
 41 43  1  0
 15 19  2  0
 42 43  2  0
 16 22  2  0
 12 17  1  6
 17 19  1  0
 17 20  1  0
 18 19  1  0
 18 22  1  0
 18 23  1  0
  9 10  1  0
  9 11  1  0
 10 12  1  0
 11  5  1  6
 33 34  1  0
 33 35  1  0
 34 36  1  0
 35 37  1  0
 37 43  1  1
 20 21  2  0
 21 22  1  0
M  CHG  3   2  -1  26  -1  41  -1
M  END
>  <COMPND>  (128) 
    udp_gluA.pdb 

>  <AUTHOR>  (128) 
    GENERATED BY OPEN BABEL 3.1.1

>  <MASTER>  (128) 
        0    0    0    0    0    0    0    0   56    0   56    0

>  <minimizedAffinity>  (128) 
-8.49766

>  <CNNscore>  (128) 
0.6973628998

>  <CNNaffinity>  (128) 
4.4857077599

>  <CNN_VS>  (128) 
3.1281661987

>  <CNNaffinity_variance>  (128) 
0.0369680971

$$$$
129
     RDKit          3D

 43 45  0  0  0  0  0  0  0  0999 V2000
   20.7118   73.6250   -1.1313 P   0  0  2  0  0  0  0  0  0  0  0  0
   19.4644   73.5172   -0.1061 O   0  0  0  0  0  0  0  0  0  0  0  0
   20.9070   74.9773   -1.7517 O   0  0  0  0  0  0  0  0  0  0  0  0
   20.4703   72.4052   -2.1666 O   0  0  0  0  0  0  0  0  0  0  0  0
   20.2195   72.7118   -3.5259 C   0  0  0  0  0  0  0  0  0  0  0  0
   20.6476   70.9822   -5.1392 O   0  0  0  0  0  0  0  0  0  0  0  0
   23.1771   72.4608   -5.7770 O   0  0  0  0  0  0  0  0  0  0  0  0
   21.5243   73.2004   -7.8160 O   0  0  0  0  0  0  0  0  0  0  0  0
   21.8936   72.9766   -5.4231 C   0  0  1  0  0  0  0  0  0  0  0  0
   20.9338   72.8368   -6.5857 C   0  0  2  0  0  0  0  0  0  0  0  0
   21.2804   72.0418   -4.3895 C   0  0  1  0  0  0  0  0  0  0  0  0
   20.5748   71.3619   -6.5227 C   0  0  2  0  0  0  0  0  0  0  0  0
   23.5886   73.0415   -6.4366 H   0  0  0  0  0  0  0  0  0  0  0  0
   21.7340   74.1480   -7.8063 H   0  0  0  0  0  0  0  0  0  0  0  0
   19.9249   70.9711   -9.2432 O   0  0  0  0  0  0  0  0  0  0  0  0
   15.4597   70.3602   -8.2774 O   0  0  0  0  0  0  0  0  0  0  0  0
   19.2504   71.0990   -7.0100 N   0  0  0  0  0  0  0  0  0  0  0  0
   17.7014   70.6682   -8.7597 N   0  0  0  0  0  0  0  0  0  0  0  0
   19.0312   70.9180   -8.3961 C   0  0  0  0  0  0  0  0  0  0  0  0
   18.1864   71.0212   -6.1195 C   0  0  0  0  0  0  0  0  0  0  0  0
   16.9243   70.7823   -6.4811 C   0  0  0  0  0  0  0  0  0  0  0  0
   16.6097   70.5823   -7.9109 C   0  0  0  0  0  0  0  0  0  0  0  0
   17.5238   70.5408   -9.7197 H   0  0  0  0  0  0  0  0  0  0  0  0
   21.9581   73.1058   -0.2424 O   0  0  0  0  0  0  0  0  0  0  0  0
   22.4889   71.6111    0.0705 P   0  0  2  0  0  0  0  0  0  0  0  0
   23.2911   71.2136   -1.2780 O   0  0  0  0  0  0  0  0  0  0  0  0
   21.4088   70.6422    0.4559 O   0  0  0  0  0  0  0  0  0  0  0  0
   23.6385   71.8100    1.1846 O   0  0  0  0  0  0  0  0  0  0  0  0
   24.4340   70.5128    2.9995 O   0  0  0  0  0  0  0  0  0  0  0  0
   24.5276   74.3259    4.5868 O   0  0  0  0  0  0  0  0  0  0  0  0
   22.2648   73.4555    2.9570 O   0  0  0  0  0  0  0  0  0  0  0  0
   26.9937   73.0304    3.7555 O   0  0  0  0  0  0  0  0  0  0  0  0
   24.6126   73.3404    3.5575 C   0  0  2  0  0  0  0  0  0  0  0  0
   23.2826   72.5936    3.4529 C   0  0  2  0  0  0  0  0  0  0  0  0
   25.7397   72.3716    3.9222 C   0  0  1  0  0  0  0  0  0  0  0  0
   23.4060   71.3836    2.5258 C   0  0  1  0  0  0  0  0  0  0  0  0
   25.7181   71.1317    3.0330 C   0  0  1  0  0  0  0  0  0  0  0  0
   23.8177   74.9529    4.3766 H   0  0  0  0  0  0  0  0  0  0  0  0
   22.1812   74.2256    3.5403 H   0  0  0  0  0  0  0  0  0  0  0  0
   27.0203   73.8216    4.3161 H   0  0  0  0  0  0  0  0  0  0  0  0
   25.8449   69.0807    4.1638 O   0  0  0  0  0  0  0  0  0  0  0  0
   27.8139   70.0558    3.5543 O   0  0  0  0  0  0  0  0  0  0  0  0
   26.5927   70.0594    3.5966 C   0  0  0  0  0  0  0  0  0  0  0  0
  1  4  1  0
  1 24  1  0
  1  2  1  1
  1  3  2  0
 25 28  1  0
 25 24  1  0
 25 26  1  6
 25 27  2  0
  6 11  1  0
  6 12  1  0
 29 36  1  0
 29 37  1  0
  9  7  1  6
  7 13  1  0
 10  8  1  6
  8 14  1  0
  4  5  1  0
 36 28  1  6
 33 30  1  1
 30 38  1  0
 34 31  1  6
 31 39  1  0
 35 32  1  6
 32 40  1  0
 41 43  1  0
 15 19  2  0
 42 43  2  0
 16 22  2  0
 12 17  1  1
 17 19  1  0
 17 20  1  0
 18 19  1  0
 18 22  1  0
 18 23  1  0
  9 10  1  0
  9 11  1  0
 10 12  1  0
 11  5  1  6
 33 34  1  0
 33 35  1  0
 34 36  1  0
 35 37  1  0
 37 43  1  1
 20 21  2  0
 21 22  1  0
M  CHG  3   2  -1  26  -1  41  -1
M  END
>  <COMPND>  (129) 
    udp_gluA.pdb 

>  <AUTHOR>  (129) 
    GENERATED BY OPEN BABEL 3.1.1

>  <MASTER>  (129) 
        0    0    0    0    0    0    0    0   56    0   56    0

>  <minimizedAffinity>  (129) 
-7.05938

>  <CNNscore>  (129) 
0.5777990222

>  <CNNaffinity>  (129) 
4.2839999199

>  <CNN_VS>  (129) 
2.4752910137

>  <CNNaffinity_variance>  (129) 
0.0527834371

$$$$
130
     RDKit          3D

 43 45  0  0  0  0  0  0  0  0999 V2000
   22.9979   72.2703   -1.7540 P   0  0  2  0  0  0  0  0  0  0  0  0
   23.6067   73.7353   -2.0732 O   0  0  0  0  0  0  0  0  0  0  0  0
   23.8920   71.1203   -2.1145 O   0  0  0  0  0  0  0  0  0  0  0  0
   21.5490   72.2863   -2.4740 O   0  0  0  0  0  0  0  0  0  0  0  0
   21.3918   73.0432   -3.6601 C   0  0  0  0  0  0  0  0  0  0  0  0
   20.9320   70.9047   -4.6568 O   0  0  0  0  0  0  0  0  0  0  0  0
   21.8525   72.1188   -7.2395 O   0  0  0  0  0  0  0  0  0  0  0  0
   19.1371   72.2035   -7.4756 O   0  0  0  0  0  0  0  0  0  0  0  0
   21.1221   72.7180   -6.1689 C   0  0  1  0  0  0  0  0  0  0  0  0
   19.6884   72.2314   -6.1756 C   0  0  2  0  0  0  0  0  0  0  0  0
   21.6479   72.1420   -4.8613 C   0  0  1  0  0  0  0  0  0  0  0  0
   19.8229   70.8457   -5.5676 C   0  0  2  0  0  0  0  0  0  0  0  0
   21.5341   72.4713   -8.0857 H   0  0  0  0  0  0  0  0  0  0  0  0
   19.0719   73.1090   -7.8186 H   0  0  0  0  0  0  0  0  0  0  0  0
   17.4631   69.8735   -6.7772 O   0  0  0  0  0  0  0  0  0  0  0  0
   15.3740   69.3469   -2.7026 O   0  0  0  0  0  0  0  0  0  0  0  0
   18.6472   70.4472   -4.8465 N   0  0  0  0  0  0  0  0  0  0  0  0
   16.4245   69.6131   -4.7467 N   0  0  0  0  0  0  0  0  0  0  0  0
   17.5147   69.9729   -5.5498 C   0  0  0  0  0  0  0  0  0  0  0  0
   18.6242   70.5266   -3.4594 C   0  0  0  0  0  0  0  0  0  0  0  0
   17.5776   70.1798   -2.7076 C   0  0  0  0  0  0  0  0  0  0  0  0
   16.3541   69.6749   -3.3644 C   0  0  0  0  0  0  0  0  0  0  0  0
   15.6237   69.2818   -5.2139 H   0  0  0  0  0  0  0  0  0  0  0  0
   22.6246   72.3666   -0.1842 O   0  0  0  0  0  0  0  0  0  0  0  0
   22.1919   71.2253    0.8759 P   0  0  2  0  0  0  0  0  0  0  0  0
   23.5113   70.2927    0.9745 O   0  0  0  0  0  0  0  0  0  0  0  0
   20.9382   70.4860    0.5074 O   0  0  0  0  0  0  0  0  0  0  0  0
   22.1262   71.9890    2.2954 O   0  0  0  0  0  0  0  0  0  0  0  0
   22.6926   74.1980    2.9346 O   0  0  0  0  0  0  0  0  0  0  0  0
   23.7861   72.0461    6.2874 O   0  0  0  0  0  0  0  0  0  0  0  0
   24.3770   71.0252    3.6148 O   0  0  0  0  0  0  0  0  0  0  0  0
   21.3500   73.6323    6.3020 O   0  0  0  0  0  0  0  0  0  0  0  0
   23.0120   72.3444    5.1256 C   0  0  2  0  0  0  0  0  0  0  0  0
   23.9170   72.3426    3.8934 C   0  0  2  0  0  0  0  0  0  0  0  0
   22.3802   73.7246    5.3199 C   0  0  1  0  0  0  0  0  0  0  0  0
   23.1752   72.8804    2.6689 C   0  0  1  0  0  0  0  0  0  0  0  0
   21.7711   74.2462    4.0216 C   0  0  1  0  0  0  0  0  0  0  0  0
   24.1975   71.1732    6.1868 H   0  0  0  0  0  0  0  0  0  0  0  0
   24.8485   70.6776    4.3877 H   0  0  0  0  0  0  0  0  0  0  0  0
   21.7244   73.3013    7.1333 H   0  0  0  0  0  0  0  0  0  0  0  0
   22.0946   76.2517    5.1942 O   0  0  0  0  0  0  0  0  0  0  0  0
   20.7289   76.3223    3.3697 O   0  0  0  0  0  0  0  0  0  0  0  0
   21.4569   75.7028    4.1307 C   0  0  0  0  0  0  0  0  0  0  0  0
  1  4  1  0
  1 24  1  0
  1  2  1  6
  1  3  2  0
 25 28  1  0
 25 24  1  0
 25 26  1  1
 25 27  2  0
  6 11  1  0
  6 12  1  0
 29 36  1  0
 29 37  1  0
  9  7  1  6
  7 13  1  0
 10  8  1  6
  8 14  1  0
  4  5  1  0
 36 28  1  1
 33 30  1  1
 30 38  1  0
 34 31  1  6
 31 39  1  0
 35 32  1  1
 32 40  1  0
 41 43  1  0
 15 19  2  0
 42 43  2  0
 16 22  2  0
 12 17  1  1
 17 19  1  0
 17 20  1  0
 18 19  1  0
 18 22  1  0
 18 23  1  0
  9 10  1  0
  9 11  1  0
 10 12  1  0
 11  5  1  1
 33 34  1  0
 33 35  1  0
 34 36  1  0
 35 37  1  0
 37 43  1  1
 20 21  2  0
 21 22  1  0
M  CHG  3   2  -1  26  -1  41  -1
M  END
>  <COMPND>  (130) 
    udp_gluA.pdb 

>  <AUTHOR>  (130) 
    GENERATED BY OPEN BABEL 3.1.1

>  <MASTER>  (130) 
        0    0    0    0    0    0    0    0   56    0   56    0

>  <minimizedAffinity>  (130) 
-6.86708

>  <CNNscore>  (130) 
0.5452205539

>  <CNNaffinity>  (130) 
4.2021112442

>  <CNN_VS>  (130) 
2.2910773754

>  <CNNaffinity_variance>  (130) 
0.1286483705

$$$$
131
     RDKit          3D

 43 45  0  0  0  0  0  0  0  0999 V2000
   23.2101   71.8058   -2.4104 P   0  0  2  0  0  0  0  0  0  0  0  0
   23.6192   73.3260   -2.0357 O   0  0  0  0  0  0  0  0  0  0  0  0
   24.2094   71.0705   -3.2545 O   0  0  0  0  0  0  0  0  0  0  0  0
   21.7265   71.9467   -3.0405 O   0  0  0  0  0  0  0  0  0  0  0  0
   21.5031   72.9348   -4.0296 C   0  0  0  0  0  0  0  0  0  0  0  0
   20.7748   71.0283   -5.2994 O   0  0  0  0  0  0  0  0  0  0  0  0
   21.2828   72.6938   -7.7406 O   0  0  0  0  0  0  0  0  0  0  0  0
   18.5753   72.8579   -7.4601 O   0  0  0  0  0  0  0  0  0  0  0  0
   20.7812   73.0908   -6.4641 C   0  0  1  0  0  0  0  0  0  0  0  0
   19.3474   72.6335   -6.2990 C   0  0  2  0  0  0  0  0  0  0  0  0
   21.5011   72.2722   -5.4012 C   0  0  1  0  0  0  0  0  0  0  0  0
   19.5212   71.1565   -5.9888 C   0  0  2  0  0  0  0  0  0  0  0  0
   20.8375   73.2034   -8.4361 H   0  0  0  0  0  0  0  0  0  0  0  0
   18.4936   73.8126   -7.6144 H   0  0  0  0  0  0  0  0  0  0  0  0
   17.0608   70.1532   -6.9459 O   0  0  0  0  0  0  0  0  0  0  0  0
   15.5740   69.2216   -2.6838 O   0  0  0  0  0  0  0  0  0  0  0  0
   18.4733   70.6454   -5.1512 N   0  0  0  0  0  0  0  0  0  0  0  0
   16.3222   69.6911   -4.8222 N   0  0  0  0  0  0  0  0  0  0  0  0
   17.2759   70.1652   -5.7325 C   0  0  0  0  0  0  0  0  0  0  0  0
   18.6374   70.6218   -3.7716 C   0  0  0  0  0  0  0  0  0  0  0  0
   17.7193   70.1668   -2.9167 C   0  0  0  0  0  0  0  0  0  0  0  0
   16.4395   69.6479   -3.4423 C   0  0  0  0  0  0  0  0  0  0  0  0
   15.4795   69.3534   -5.2032 H   0  0  0  0  0  0  0  0  0  0  0  0
   22.9292   71.1389   -0.9650 O   0  0  0  0  0  0  0  0  0  0  0  0
   21.9980   71.6233    0.2646 P   0  0  2  0  0  0  0  0  0  0  0  0
   20.8165   70.5172    0.2918 O   0  0  0  0  0  0  0  0  0  0  0  0
   21.5158   73.0405    0.1507 O   0  0  0  0  0  0  0  0  0  0  0  0
   22.8724   71.3178    1.5853 O   0  0  0  0  0  0  0  0  0  0  0  0
   23.2666   73.1256    3.0637 O   0  0  0  0  0  0  0  0  0  0  0  0
   25.9799   70.3219    4.4220 O   0  0  0  0  0  0  0  0  0  0  0  0
   25.5934   70.7418    1.5570 O   0  0  0  0  0  0  0  0  0  0  0  0
   23.5312   70.8215    5.9069 O   0  0  0  0  0  0  0  0  0  0  0  0
   24.7611   70.7784    3.8356 C   0  0  2  0  0  0  0  0  0  0  0  0
   25.0708   71.5869    2.5755 C   0  0  2  0  0  0  0  0  0  0  0  0
   24.0393   71.6517    4.8643 C   0  0  1  0  0  0  0  0  0  0  0  0
   23.8147   72.2829    2.0494 C   0  0  1  0  0  0  0  0  0  0  0  0
   22.8750   72.4094    4.2329 C   0  0  1  0  0  0  0  0  0  0  0  0
   26.4560   69.7646    3.7863 H   0  0  0  0  0  0  0  0  0  0  0  0
   26.3904   70.2968    1.8840 H   0  0  0  0  0  0  0  0  0  0  0  0
   24.2623   70.3335    6.3170 H   0  0  0  0  0  0  0  0  0  0  0  0
   21.8368   74.5034    4.4298 O   0  0  0  0  0  0  0  0  0  0  0  0
   22.4753   73.4734    6.3612 O   0  0  0  0  0  0  0  0  0  0  0  0
   22.3905   73.4913    5.1424 C   0  0  0  0  0  0  0  0  0  0  0  0
  1  4  1  0
  1 24  1  0
  1  2  1  1
  1  3  2  0
 25 28  1  0
 25 24  1  0
 25 26  1  1
 25 27  2  0
  6 11  1  0
  6 12  1  0
 29 36  1  0
 29 37  1  0
  9  7  1  6
  7 13  1  0
 10  8  1  6
  8 14  1  0
  4  5  1  0
 36 28  1  1
 33 30  1  1
 30 38  1  0
 34 31  1  6
 31 39  1  0
 35 32  1  1
 32 40  1  0
 41 43  1  0
 15 19  2  0
 42 43  2  0
 16 22  2  0
 12 17  1  1
 17 19  1  0
 17 20  1  0
 18 19  1  0
 18 22  1  0
 18 23  1  0
  9 10  1  0
  9 11  1  0
 10 12  1  0
 11  5  1  1
 33 34  1  0
 33 35  1  0
 34 36  1  0
 35 37  1  0
 37 43  1  1
 20 21  2  0
 21 22  1  0
M  CHG  3   2  -1  26  -1  41  -1
M  END
>  <COMPND>  (131) 
    udp_gluA.pdb 

>  <AUTHOR>  (131) 
    GENERATED BY OPEN BABEL 3.1.1

>  <MASTER>  (131) 
        0    0    0    0    0    0    0    0   56    0   56    0

>  <minimizedAffinity>  (131) 
-8.10271

>  <CNNscore>  (131) 
0.5450301766

>  <CNNaffinity>  (131) 
4.1920442581

>  <CNN_VS>  (131) 
2.2847905159

>  <CNNaffinity_variance>  (131) 
0.1919946223

$$$$
132
     RDKit          3D

 43 45  0  0  0  0  0  0  0  0999 V2000
   22.0065   71.2845    0.3935 P   0  0  2  0  0  0  0  0  0  0  0  0
   21.8253   72.8846    0.5536 O   0  0  0  0  0  0  0  0  0  0  0  0
   20.7354   70.5237    0.1543 O   0  0  0  0  0  0  0  0  0  0  0  0
   22.8455   70.8551    1.7087 O   0  0  0  0  0  0  0  0  0  0  0  0
   23.5315   71.8609    2.4314 C   0  0  0  0  0  0  0  0  0  0  0  0
   24.2564   71.0242    4.5649 O   0  0  0  0  0  0  0  0  0  0  0  0
   22.2537   72.9010    5.7725 O   0  0  0  0  0  0  0  0  0  0  0  0
   24.6047   74.2408    6.1097 O   0  0  0  0  0  0  0  0  0  0  0  0
   23.0763   73.0773    4.6189 C   0  0  1  0  0  0  0  0  0  0  0  0
   24.5103   73.3331    5.0319 C   0  0  2  0  0  0  0  0  0  0  0  0
   23.1838   71.7347    3.9090 C   0  0  1  0  0  0  0  0  0  0  0  0
   24.9864   71.9380    5.3989 C   0  0  2  0  0  0  0  0  0  0  0  0
   22.1702   73.7458    6.2427 H   0  0  0  0  0  0  0  0  0  0  0  0
   24.2902   75.1139    5.8256 H   0  0  0  0  0  0  0  0  0  0  0  0
   27.0172   72.8608    7.1311 O   0  0  0  0  0  0  0  0  0  0  0  0
   30.3460   71.1994    4.4103 O   0  0  0  0  0  0  0  0  0  0  0  0
   26.3920   71.7601    5.1674 N   0  0  0  0  0  0  0  0  0  0  0  0
   28.6732   72.0334    5.7739 N   0  0  0  0  0  0  0  0  0  0  0  0
   27.3300   72.2623    6.1002 C   0  0  0  0  0  0  0  0  0  0  0  0
   26.8286   71.0938    4.0289 C   0  0  0  0  0  0  0  0  0  0  0  0
   28.1124   70.8831    3.7315 C   0  0  0  0  0  0  0  0  0  0  0  0
   29.1562   71.3767    4.6535 C   0  0  0  0  0  0  0  0  0  0  0  0
   29.3448   72.3756    6.4072 H   0  0  0  0  0  0  0  0  0  0  0  0
   23.0991   71.1598   -0.7912 O   0  0  0  0  0  0  0  0  0  0  0  0
   23.1155   71.7693   -2.2885 P   0  0  2  0  0  0  0  0  0  0  0  0
   24.3139   70.9523   -3.0073 O   0  0  0  0  0  0  0  0  0  0  0  0
   23.2647   73.2622   -2.3440 O   0  0  0  0  0  0  0  0  0  0  0  0
   21.7691   71.2050   -2.9748 O   0  0  0  0  0  0  0  0  0  0  0  0
   20.9296   72.8475   -4.4603 O   0  0  0  0  0  0  0  0  0  0  0  0
   18.0956   69.8628   -4.8185 O   0  0  0  0  0  0  0  0  0  0  0  0
   19.1738   70.5744   -2.1983 O   0  0  0  0  0  0  0  0  0  0  0  0
   20.0631   70.2666   -6.9201 O   0  0  0  0  0  0  0  0  0  0  0  0
   19.4003   70.4025   -4.6077 C   0  0  2  0  0  0  0  0  0  0  0  0
   19.3816   71.3253   -3.3889 C   0  0  2  0  0  0  0  0  0  0  0  0
   19.7967   71.1849   -5.8617 C   0  0  1  0  0  0  0  0  0  0  0  0
   20.6958   72.0979   -3.2674 C   0  0  1  0  0  0  0  0  0  0  0  0
   21.0460   72.0275   -5.6209 C   0  0  1  0  0  0  0  0  0  0  0  0
   17.8224   69.3612   -4.0342 H   0  0  0  0  0  0  0  0  0  0  0  0
   18.3417   70.0814   -2.2685 H   0  0  0  0  0  0  0  0  0  0  0  0
   19.2758   69.7241   -7.0833 H   0  0  0  0  0  0  0  0  0  0  0  0
   21.5407   72.4011   -7.8831 O   0  0  0  0  0  0  0  0  0  0  0  0
   21.1243   74.2344   -6.5929 O   0  0  0  0  0  0  0  0  0  0  0  0
   21.2334   73.0239   -6.7183 C   0  0  0  0  0  0  0  0  0  0  0  0
  1  4  1  0
  1 24  1  0
  1  2  1  1
  1  3  2  0
 25 28  1  0
 25 24  1  0
 25 26  1  6
 25 27  2  0
  6 11  1  0
  6 12  1  0
 29 36  1  0
 29 37  1  0
  9  7  1  1
  7 13  1  0
 10  8  1  1
  8 14  1  0
  4  5  1  0
 36 28  1  6
 33 30  1  6
 30 38  1  0
 34 31  1  1
 31 39  1  0
 35 32  1  6
 32 40  1  0
 41 43  1  0
 15 19  2  0
 42 43  2  0
 16 22  2  0
 12 17  1  6
 17 19  1  0
 17 20  1  0
 18 19  1  0
 18 22  1  0
 18 23  1  0
  9 10  1  0
  9 11  1  0
 10 12  1  0
 11  5  1  6
 33 34  1  0
 33 35  1  0
 34 36  1  0
 35 37  1  0
 37 43  1  6
 20 21  2  0
 21 22  1  0
M  CHG  3   2  -1  26  -1  41  -1
M  END
>  <COMPND>  (132) 
    udp_gluA.pdb 

>  <AUTHOR>  (132) 
    GENERATED BY OPEN BABEL 3.1.1

>  <MASTER>  (132) 
        0    0    0    0    0    0    0    0   56    0   56    0

>  <minimizedAffinity>  (132) 
-7.34817

>  <CNNscore>  (132) 
0.5120891333

>  <CNNaffinity>  (132) 
4.0472335815

>  <CNN_VS>  (132) 
2.0725443363

>  <CNNaffinity_variance>  (132) 
0.1122643724

$$$$
133
     RDKit          3D

 43 45  0  0  0  0  0  0  0  0999 V2000
   20.7646   74.0819   -0.7687 P   0  0  2  0  0  0  0  0  0  0  0  0
   19.5539   74.9939   -0.2018 O   0  0  0  0  0  0  0  0  0  0  0  0
   21.9676   74.8463   -1.2379 O   0  0  0  0  0  0  0  0  0  0  0  0
   20.0552   73.1393   -1.8760 O   0  0  0  0  0  0  0  0  0  0  0  0
   20.3164   73.3901   -3.2448 C   0  0  0  0  0  0  0  0  0  0  0  0
   20.7269   71.2490   -4.2571 O   0  0  0  0  0  0  0  0  0  0  0  0
   23.4725   72.2793   -4.8828 O   0  0  0  0  0  0  0  0  0  0  0  0
   22.1769   72.5497   -7.2670 O   0  0  0  0  0  0  0  0  0  0  0  0
   22.2262   72.9759   -4.8737 C   0  0  1  0  0  0  0  0  0  0  0  0
   21.4036   72.5944   -6.0861 C   0  0  2  0  0  0  0  0  0  0  0  0
   21.3863   72.4211   -3.7313 C   0  0  1  0  0  0  0  0  0  0  0  0
   20.8668   71.2306   -5.6866 C   0  0  2  0  0  0  0  0  0  0  0  0
   24.0265   72.6166   -5.6046 H   0  0  0  0  0  0  0  0  0  0  0  0
   22.4950   73.4418   -7.4791 H   0  0  0  0  0  0  0  0  0  0  0  0
   20.5088   70.0544   -8.2292 O   0  0  0  0  0  0  0  0  0  0  0  0
   15.9175   70.2008   -7.8524 O   0  0  0  0  0  0  0  0  0  0  0  0
   19.5889   70.9501   -6.2773 N   0  0  0  0  0  0  0  0  0  0  0  0
   18.2224   70.1293   -8.0395 N   0  0  0  0  0  0  0  0  0  0  0  0
   19.5191   70.3575   -7.5603 C   0  0  0  0  0  0  0  0  0  0  0  0
   18.4230   71.2595   -5.5874 C   0  0  0  0  0  0  0  0  0  0  0  0
   17.1941   71.0360   -6.0572 C   0  0  0  0  0  0  0  0  0  0  0  0
   17.0332   70.4204   -7.3908 C   0  0  0  0  0  0  0  0  0  0  0  0
   18.1483   69.7194   -8.9316 H   0  0  0  0  0  0  0  0  0  0  0  0
   21.0499   73.0591    0.4501 O   0  0  0  0  0  0  0  0  0  0  0  0
   21.6666   71.5647    0.4594 P   0  0  2  0  0  0  0  0  0  0  0  0
   22.8768   71.6573   -0.6117 O   0  0  0  0  0  0  0  0  0  0  0  0
   20.6658   70.4838    0.1697 O   0  0  0  0  0  0  0  0  0  0  0  0
   22.3989   71.4330    1.8907 O   0  0  0  0  0  0  0  0  0  0  0  0
   23.1902   73.1922    3.2649 O   0  0  0  0  0  0  0  0  0  0  0  0
   25.7272   70.1034    4.3093 O   0  0  0  0  0  0  0  0  0  0  0  0
   25.0086   70.5482    1.5128 O   0  0  0  0  0  0  0  0  0  0  0  0
   23.5729   70.8896    6.0958 O   0  0  0  0  0  0  0  0  0  0  0  0
   24.5000   70.6935    3.8806 C   0  0  2  0  0  0  0  0  0  0  0  0
   24.7268   71.4537    2.5737 C   0  0  2  0  0  0  0  0  0  0  0  0
   24.0266   71.6499    4.9775 C   0  0  1  0  0  0  0  0  0  0  0  0
   23.4980   72.2862    2.2048 C   0  0  1  0  0  0  0  0  0  0  0  0
   22.8811   72.5326    4.4906 C   0  0  1  0  0  0  0  0  0  0  0  0
   26.0474   69.4915    3.6278 H   0  0  0  0  0  0  0  0  0  0  0  0
   25.7870   70.0166    1.7403 H   0  0  0  0  0  0  0  0  0  0  0  0
   24.2927   70.3233    6.4152 H   0  0  0  0  0  0  0  0  0  0  0  0
   22.6876   74.8528    4.7746 O   0  0  0  0  0  0  0  0  0  0  0  0
   22.4484   73.5539    6.6333 O   0  0  0  0  0  0  0  0  0  0  0  0
   22.6488   73.6682    5.4334 C   0  0  0  0  0  0  0  0  0  0  0  0
  1  4  1  0
  1 24  1  0
  1  2  1  1
  1  3  2  0
 25 28  1  0
 25 24  1  0
 25 26  1  6
 25 27  2  0
  6 11  1  0
  6 12  1  0
 29 36  1  0
 29 37  1  0
  9  7  1  6
  7 13  1  0
 10  8  1  6
  8 14  1  0
  4  5  1  0
 36 28  1  1
 33 30  1  1
 30 38  1  0
 34 31  1  6
 31 39  1  0
 35 32  1  1
 32 40  1  0
 41 43  1  0
 15 19  2  0
 42 43  2  0
 16 22  2  0
 12 17  1  6
 17 19  1  0
 17 20  1  0
 18 19  1  0
 18 22  1  0
 18 23  1  0
  9 10  1  0
  9 11  1  0
 10 12  1  0
 11  5  1  6
 33 34  1  0
 33 35  1  0
 34 36  1  0
 35 37  1  0
 37 43  1  1
 20 21  2  0
 21 22  1  0
M  CHG  3   2  -1  26  -1  41  -1
M  END
>  <COMPND>  (133) 
    udp_gluA.pdb 

>  <AUTHOR>  (133) 
    GENERATED BY OPEN BABEL 3.1.1

>  <MASTER>  (133) 
        0    0    0    0    0    0    0    0   56    0   56    0

>  <minimizedAffinity>  (133) 
-7.16403

>  <CNNscore>  (133) 
0.4896776378

>  <CNNaffinity>  (133) 
4.1401910782

>  <CNN_VS>  (133) 
2.0273590088

>  <CNNaffinity_variance>  (133) 
0.0917954519

$$$$
134
     RDKit          3D

 43 45  0  0  0  0  0  0  0  0999 V2000
   22.8606   71.9200   -2.7915 P   0  0  2  0  0  0  0  0  0  0  0  0
   22.3573   70.9159   -1.6265 O   0  0  0  0  0  0  0  0  0  0  0  0
   24.1768   71.5581   -3.4148 O   0  0  0  0  0  0  0  0  0  0  0  0
   22.7878   73.3821   -2.1025 O   0  0  0  0  0  0  0  0  0  0  0  0
   23.4708   73.5879   -0.8795 C   0  0  0  0  0  0  0  0  0  0  0  0
   22.4853   72.8193    1.1738 O   0  0  0  0  0  0  0  0  0  0  0  0
   21.5564   75.6429    1.5680 O   0  0  0  0  0  0  0  0  0  0  0  0
   23.7389   75.5008    3.1967 O   0  0  0  0  0  0  0  0  0  0  0  0
   22.7715   75.1636    0.9916 C   0  0  1  0  0  0  0  0  0  0  0  0
   23.6963   74.6464    2.0730 C   0  0  2  0  0  0  0  0  0  0  0  0
   22.4530   73.8954    0.2114 C   0  0  1  0  0  0  0  0  0  0  0  0
   23.0844   73.2926    2.3905 C   0  0  2  0  0  0  0  0  0  0  0  0
   21.7346   76.4530    2.0717 H   0  0  0  0  0  0  0  0  0  0  0  0
   24.1367   76.3489    2.9431 H   0  0  0  0  0  0  0  0  0  0  0  0
   22.9728   71.9160    4.8540 O   0  0  0  0  0  0  0  0  0  0  0  0
   26.8928   69.6558    3.9770 O   0  0  0  0  0  0  0  0  0  0  0  0
   24.0626   72.3389    2.8311 N   0  0  0  0  0  0  0  0  0  0  0  0
   24.9258   70.7924    4.4153 N   0  0  0  0  0  0  0  0  0  0  0  0
   23.9133   71.7032    4.0864 C   0  0  0  0  0  0  0  0  0  0  0  0
   25.1533   72.0405    2.0235 C   0  0  0  0  0  0  0  0  0  0  0  0
   26.1104   71.1699    2.3505 C   0  0  0  0  0  0  0  0  0  0  0  0
   26.0298   70.4631    3.6457 C   0  0  0  0  0  0  0  0  0  0  0  0
   24.8446   70.3388    5.2854 H   0  0  0  0  0  0  0  0  0  0  0  0
   21.6122   71.9395   -3.8181 O   0  0  0  0  0  0  0  0  0  0  0  0
   21.3629   72.7902   -5.1701 P   0  0  2  0  0  0  0  0  0  0  0  0
   22.5331   72.2658   -6.1581 O   0  0  0  0  0  0  0  0  0  0  0  0
   21.3454   74.2777   -4.9672 O   0  0  0  0  0  0  0  0  0  0  0  0
   20.0034   72.1831   -5.7909 O   0  0  0  0  0  0  0  0  0  0  0  0
   19.0999   70.0277   -5.4072 O   0  0  0  0  0  0  0  0  0  0  0  0
   17.6339   70.8960   -9.1708 O   0  0  0  0  0  0  0  0  0  0  0  0
   20.3942   71.5473   -8.4703 O   0  0  0  0  0  0  0  0  0  0  0  0
   15.8866   71.0512   -6.8526 O   0  0  0  0  0  0  0  0  0  0  0  0
   18.0775   71.1881   -7.8457 C   0  0  2  0  0  0  0  0  0  0  0  0
   19.5294   70.7383   -7.6814 C   0  0  2  0  0  0  0  0  0  0  0  0
   17.1730   70.4353   -6.8675 C   0  0  1  0  0  0  0  0  0  0  0  0
   19.9660   70.8226   -6.2181 C   0  0  1  0  0  0  0  0  0  0  0  0
   17.7417   70.4594   -5.4516 C   0  0  1  0  0  0  0  0  0  0  0  0
   18.1941   71.3637   -9.8101 H   0  0  0  0  0  0  0  0  0  0  0  0
   20.1228   71.4987   -9.4000 H   0  0  0  0  0  0  0  0  0  0  0  0
   15.5136   71.0425   -7.7480 H   0  0  0  0  0  0  0  0  0  0  0  0
   16.3734   68.5579   -5.3365 O   0  0  0  0  0  0  0  0  0  0  0  0
   17.0722   69.4575   -3.3613 O   0  0  0  0  0  0  0  0  0  0  0  0
   17.0446   69.4637   -4.5829 C   0  0  0  0  0  0  0  0  0  0  0  0
  1  4  1  0
  1 24  1  0
  1  2  1  1
  1  3  2  0
 25 28  1  0
 25 24  1  0
 25 26  1  6
 25 27  2  0
  6 11  1  0
  6 12  1  0
 29 36  1  0
 29 37  1  0
  9  7  1  1
  7 13  1  0
 10  8  1  1
  8 14  1  0
  4  5  1  0
 36 28  1  1
 33 30  1  6
 30 38  1  0
 34 31  1  6
 31 39  1  0
 35 32  1  1
 32 40  1  0
 41 43  1  0
 15 19  2  0
 42 43  2  0
 16 22  2  0
 12 17  1  6
 17 19  1  0
 17 20  1  0
 18 19  1  0
 18 22  1  0
 18 23  1  0
  9 10  1  0
  9 11  1  0
 10 12  1  0
 11  5  1  6
 33 34  1  0
 33 35  1  0
 34 36  1  0
 35 37  1  0
 37 43  1  1
 20 21  2  0
 21 22  1  0
M  CHG  3   2  -1  26  -1  41  -1
M  END
>  <COMPND>  (134) 
    udp_gluA.pdb 

>  <AUTHOR>  (134) 
    GENERATED BY OPEN BABEL 3.1.1

>  <MASTER>  (134) 
        0    0    0    0    0    0    0    0   56    0   56    0

>  <minimizedAffinity>  (134) 
-7.04883

>  <CNNscore>  (134) 
0.4819853008

>  <CNNaffinity>  (134) 
4.3099303246

>  <CNN_VS>  (134) 
2.0773229599

>  <CNNaffinity_variance>  (134) 
0.0913952440

$$$$
135
     RDKit          3D

 43 45  0  0  0  0  0  0  0  0999 V2000
   20.9940   71.6887   -0.8145 P   0  0  2  0  0  0  0  0  0  0  0  0
   19.8823   72.6524   -0.1404 O   0  0  0  0  0  0  0  0  0  0  0  0
   20.4444   70.4804   -1.5144 O   0  0  0  0  0  0  0  0  0  0  0  0
   22.0323   71.3913    0.3901 O   0  0  0  0  0  0  0  0  0  0  0  0
   22.6092   72.4897    1.0722 C   0  0  0  0  0  0  0  0  0  0  0  0
   24.6359   73.1084    2.2068 O   0  0  0  0  0  0  0  0  0  0  0  0
   25.8657   70.6852    0.9389 O   0  0  0  0  0  0  0  0  0  0  0  0
   25.3481   69.8321    3.4767 O   0  0  0  0  0  0  0  0  0  0  0  0
   24.5391   70.8718    1.4330 C   0  0  1  0  0  0  0  0  0  0  0  0
   24.5372   70.8599    2.9470 C   0  0  2  0  0  0  0  0  0  0  0  0
   24.1201   72.3028    1.1251 C   0  0  1  0  0  0  0  0  0  0  0  0
   25.0633   72.2470    3.2739 C   0  0  2  0  0  0  0  0  0  0  0  0
   26.1554   69.7778    1.1241 H   0  0  0  0  0  0  0  0  0  0  0  0
   24.9711   68.9692    3.2416 H   0  0  0  0  0  0  0  0  0  0  0  0
   26.2769   71.8333    5.7904 O   0  0  0  0  0  0  0  0  0  0  0  0
   22.9946   74.2244    7.9705 O   0  0  0  0  0  0  0  0  0  0  0  0
   24.5471   72.7503    4.5154 N   0  0  0  0  0  0  0  0  0  0  0  0
   24.6404   73.0238    6.8739 N   0  0  0  0  0  0  0  0  0  0  0  0
   25.2334   72.4858    5.7241 C   0  0  0  0  0  0  0  0  0  0  0  0
   23.3756   73.4975    4.5274 C   0  0  0  0  0  0  0  0  0  0  0  0
   22.8226   74.0038    5.6313 C   0  0  0  0  0  0  0  0  0  0  0  0
   23.4763   73.7725    6.9361 C   0  0  0  0  0  0  0  0  0  0  0  0
   25.0990   72.8511    7.7279 H   0  0  0  0  0  0  0  0  0  0  0  0
   21.8215   72.6997   -1.7663 O   0  0  0  0  0  0  0  0  0  0  0  0
   23.0501   72.4340   -2.7830 P   0  0  2  0  0  0  0  0  0  0  0  0
   23.7510   71.1066   -2.1772 O   0  0  0  0  0  0  0  0  0  0  0  0
   23.9776   73.6031   -2.9469 O   0  0  0  0  0  0  0  0  0  0  0  0
   22.3506   71.9377   -4.1493 O   0  0  0  0  0  0  0  0  0  0  0  0
   21.5586   73.9682   -5.0760 O   0  0  0  0  0  0  0  0  0  0  0  0
   20.8820   71.3128   -8.1678 O   0  0  0  0  0  0  0  0  0  0  0  0
   20.2922   70.5547   -5.4088 O   0  0  0  0  0  0  0  0  0  0  0  0
   23.1128   73.1719   -8.3028 O   0  0  0  0  0  0  0  0  0  0  0  0
   21.5610   71.8406   -7.0283 C   0  0  2  0  0  0  0  0  0  0  0  0
   20.6065   71.8756   -5.8345 C   0  0  2  0  0  0  0  0  0  0  0  0
   22.0345   73.2544   -7.3728 C   0  0  1  0  0  0  0  0  0  0  0  0
   21.2225   72.6429   -4.6638 C   0  0  1  0  0  0  0  0  0  0  0  0
   22.5173   73.9983   -6.1310 C   0  0  1  0  0  0  0  0  0  0  0  0
   20.5719   70.4146   -7.9723 H   0  0  0  0  0  0  0  0  0  0  0  0
   19.9011   70.0620   -6.1469 H   0  0  0  0  0  0  0  0  0  0  0  0
   22.8188   72.7004   -9.0979 H   0  0  0  0  0  0  0  0  0  0  0  0
   21.9361   75.8124   -7.4995 O   0  0  0  0  0  0  0  0  0  0  0  0
   23.3391   76.2350   -5.7525 O   0  0  0  0  0  0  0  0  0  0  0  0
   22.6628   75.4588   -6.4106 C   0  0  0  0  0  0  0  0  0  0  0  0
  1  4  1  0
  1 24  1  0
  1  2  1  1
  1  3  2  0
 25 28  1  0
 25 24  1  0
 25 26  1  1
 25 27  2  0
  6 11  1  0
  6 12  1  0
 29 36  1  0
 29 37  1  0
  9  7  1  1
  7 13  1  0
 10  8  1  6
  8 14  1  0
  4  5  1  0
 36 28  1  6
 33 30  1  6
 30 38  1  0
 34 31  1  1
 31 39  1  0
 35 32  1  6
 32 40  1  0
 41 43  1  0
 15 19  2  0
 42 43  2  0
 16 22  2  0
 12 17  1  1
 17 19  1  0
 17 20  1  0
 18 19  1  0
 18 22  1  0
 18 23  1  0
  9 10  1  0
  9 11  1  0
 10 12  1  0
 11  5  1  1
 33 34  1  0
 33 35  1  0
 34 36  1  0
 35 37  1  0
 37 43  1  6
 20 21  2  0
 21 22  1  0
M  CHG  3   2  -1  26  -1  41  -1
M  END
>  <COMPND>  (135) 
    udp_gluA.pdb 

>  <AUTHOR>  (135) 
    GENERATED BY OPEN BABEL 3.1.1

>  <MASTER>  (135) 
        0    0    0    0    0    0    0    0   56    0   56    0

>  <minimizedAffinity>  (135) 
-6.40019

>  <CNNscore>  (135) 
0.4748969376

>  <CNNaffinity>  (135) 
3.9680747986

>  <CNN_VS>  (135) 
1.8844265938

>  <CNNaffinity_variance>  (135) 
0.0803954378

$$$$
136
     RDKit          3D

 43 45  0  0  0  0  0  0  0  0999 V2000
   18.5437   73.6189   -3.5081 P   0  0  2  0  0  0  0  0  0  0  0  0
   18.7119   74.9056   -2.5413 O   0  0  0  0  0  0  0  0  0  0  0  0
   17.3464   73.6576   -4.4118 O   0  0  0  0  0  0  0  0  0  0  0  0
   18.6190   72.3594   -2.4953 O   0  0  0  0  0  0  0  0  0  0  0  0
   19.0762   72.5809   -1.1737 C   0  0  0  0  0  0  0  0  0  0  0  0
   21.0565   71.3780   -1.8135 O   0  0  0  0  0  0  0  0  0  0  0  0
   21.2104   70.4820    1.0439 O   0  0  0  0  0  0  0  0  0  0  0  0
   23.0556   72.4876    0.9481 O   0  0  0  0  0  0  0  0  0  0  0  0
   20.7844   71.7367    0.5120 C   0  0  1  0  0  0  0  0  0  0  0  0
   21.9784   72.5368    0.0360 C   0  0  2  0  0  0  0  0  0  0  0  0
   20.0420   71.4673   -0.7897 C   0  0  1  0  0  0  0  0  0  0  0  0
   22.3015   71.8642   -1.2873 C   0  0  2  0  0  0  0  0  0  0  0  0
   21.6874   70.6285    1.8762 H   0  0  0  0  0  0  0  0  0  0  0  0
   22.8003   72.9288    1.7740 H   0  0  0  0  0  0  0  0  0  0  0  0
   24.1563   71.1114   -3.2796 O   0  0  0  0  0  0  0  0  0  0  0  0
   24.4804   75.4267   -4.8661 O   0  0  0  0  0  0  0  0  0  0  0  0
   22.8865   72.7707   -2.2343 N   0  0  0  0  0  0  0  0  0  0  0  0
   24.3167   73.2616   -4.0672 N   0  0  0  0  0  0  0  0  0  0  0  0
   23.8082   72.2906   -3.1945 C   0  0  0  0  0  0  0  0  0  0  0  0
   22.5453   74.1175   -2.2072 C   0  0  0  0  0  0  0  0  0  0  0  0
   23.0383   75.0311   -3.0458 C   0  0  0  0  0  0  0  0  0  0  0  0
   24.0081   74.6122   -4.0789 C   0  0  0  0  0  0  0  0  0  0  0  0
   24.9618   72.9515   -4.7433 H   0  0  0  0  0  0  0  0  0  0  0  0
   19.9648   73.5534   -4.2757 O   0  0  0  0  0  0  0  0  0  0  0  0
   20.3293   73.6726   -5.8462 P   0  0  2  0  0  0  0  0  0  0  0  0
   21.8067   73.0168   -5.9338 O   0  0  0  0  0  0  0  0  0  0  0  0
   20.2381   75.0669   -6.3954 O   0  0  0  0  0  0  0  0  0  0  0  0
   19.3651   72.6026   -6.5726 O   0  0  0  0  0  0  0  0  0  0  0  0
   19.1376   70.4128   -5.6994 O   0  0  0  0  0  0  0  0  0  0  0  0
   17.7270   69.9321   -9.5525 O   0  0  0  0  0  0  0  0  0  0  0  0
   20.1058   71.5477   -9.0373 O   0  0  0  0  0  0  0  0  0  0  0  0
   15.8673   70.0409   -7.3208 O   0  0  0  0  0  0  0  0  0  0  0  0
   17.9727   70.6315   -8.3325 C   0  0  2  0  0  0  0  0  0  0  0  0
   19.4786   70.7038   -8.0785 C   0  0  2  0  0  0  0  0  0  0  0  0
   17.2783   69.8688   -7.2021 C   0  0  1  0  0  0  0  0  0  0  0  0
   19.7718   71.2393   -6.6763 C   0  0  1  0  0  0  0  0  0  0  0  0
   17.7185   70.3793   -5.8331 C   0  0  1  0  0  0  0  0  0  0  0  0
   18.1589   70.3985  -10.2855 H   0  0  0  0  0  0  0  0  0  0  0  0
   19.9236   71.2140   -9.9294 H   0  0  0  0  0  0  0  0  0  0  0  0
   15.5742   69.7200   -8.1879 H   0  0  0  0  0  0  0  0  0  0  0  0
   18.2361   69.3849   -3.7728 O   0  0  0  0  0  0  0  0  0  0  0  0
   16.2642   68.7880   -4.7496 O   0  0  0  0  0  0  0  0  0  0  0  0
   17.3022   69.4325   -4.7549 C   0  0  0  0  0  0  0  0  0  0  0  0
  1  4  1  0
  1 24  1  0
  1  2  1  1
  1  3  2  0
 25 28  1  0
 25 24  1  0
 25 26  1  1
 25 27  2  0
  6 11  1  0
  6 12  1  0
 29 36  1  0
 29 37  1  0
  9  7  1  6
  7 13  1  0
 10  8  1  1
  8 14  1  0
  4  5  1  0
 36 28  1  6
 33 30  1  6
 30 38  1  0
 34 31  1  6
 31 39  1  0
 35 32  1  6
 32 40  1  0
 41 43  1  0
 15 19  2  0
 42 43  2  0
 16 22  2  0
 12 17  1  6
 17 19  1  0
 17 20  1  0
 18 19  1  0
 18 22  1  0
 18 23  1  0
  9 10  1  0
  9 11  1  0
 10 12  1  0
 11  5  1  6
 33 34  1  0
 33 35  1  0
 34 36  1  0
 35 37  1  0
 37 43  1  1
 20 21  2  0
 21 22  1  0
M  CHG  3   2  -1  26  -1  41  -1
M  END
>  <COMPND>  (136) 
    udp_gluA.pdb 

>  <AUTHOR>  (136) 
    GENERATED BY OPEN BABEL 3.1.1

>  <MASTER>  (136) 
        0    0    0    0    0    0    0    0   56    0   56    0

>  <minimizedAffinity>  (136) 
-7.33125

>  <CNNscore>  (136) 
0.4687408805

>  <CNNaffinity>  (136) 
3.9985930920

>  <CNN_VS>  (136) 
1.8743040562

>  <CNNaffinity_variance>  (136) 
0.8094636202

$$$$
137
     RDKit          3D

 43 45  0  0  0  0  0  0  0  0999 V2000
   22.9722   71.9358   -2.9240 P   0  0  2  0  0  0  0  0  0  0  0  0
   24.2072   70.9072   -3.1125 O   0  0  0  0  0  0  0  0  0  0  0  0
   22.9015   73.0346   -3.9435 O   0  0  0  0  0  0  0  0  0  0  0  0
   23.0965   72.4139   -1.3832 O   0  0  0  0  0  0  0  0  0  0  0  0
   23.8609   71.6249   -0.4901 C   0  0  0  0  0  0  0  0  0  0  0  0
   23.7523   70.3826    1.5649 O   0  0  0  0  0  0  0  0  0  0  0  0
   20.9732   71.4700    1.8584 O   0  0  0  0  0  0  0  0  0  0  0  0
   22.4174   73.0655    3.5332 O   0  0  0  0  0  0  0  0  0  0  0  0
   22.1371   72.0979    1.3202 C   0  0  1  0  0  0  0  0  0  0  0  0
   23.0870   72.4839    2.4342 C   0  0  2  0  0  0  0  0  0  0  0  0
   22.9372   71.0410    0.5711 C   0  0  1  0  0  0  0  0  0  0  0  0
   23.7275   71.1501    2.7788 C   0  0  2  0  0  0  0  0  0  0  0  0
   20.4459   72.1257    2.3418 H   0  0  0  0  0  0  0  0  0  0  0  0
   22.0272   73.9121    3.2629 H   0  0  0  0  0  0  0  0  0  0  0  0
   24.4071   71.5092    5.4965 O   0  0  0  0  0  0  0  0  0  0  0  0
   28.9105   71.7007    4.5339 O   0  0  0  0  0  0  0  0  0  0  0  0
   25.0698   71.2965    3.2662 N   0  0  0  0  0  0  0  0  0  0  0  0
   26.6493   71.6052    5.0144 N   0  0  0  0  0  0  0  0  0  0  0  0
   25.3028   71.4720    4.6508 C   0  0  0  0  0  0  0  0  0  0  0  0
   26.1377   71.2638    2.3777 C   0  0  0  0  0  0  0  0  0  0  0  0
   27.4158   71.3921    2.7393 C   0  0  0  0  0  0  0  0  0  0  0  0
   27.7455   71.5800    4.1674 C   0  0  0  0  0  0  0  0  0  0  0  0
   26.8364   71.7306    5.9728 H   0  0  0  0  0  0  0  0  0  0  0  0
   21.6858   70.9574   -2.8982 O   0  0  0  0  0  0  0  0  0  0  0  0
   20.1968   71.1771   -2.3079 P   0  0  2  0  0  0  0  0  0  0  0  0
   20.0135   72.7847   -2.3557 O   0  0  0  0  0  0  0  0  0  0  0  0
   19.9756   70.5694   -0.9531 O   0  0  0  0  0  0  0  0  0  0  0  0
   19.2137   70.6209   -3.4598 O   0  0  0  0  0  0  0  0  0  0  0  0
   17.7270   72.0741   -4.5942 O   0  0  0  0  0  0  0  0  0  0  0  0
   16.0582   68.3787   -5.3859 O   0  0  0  0  0  0  0  0  0  0  0  0
   17.0754   69.0036   -2.7196 O   0  0  0  0  0  0  0  0  0  0  0  0
   17.5598   69.7736   -7.4476 O   0  0  0  0  0  0  0  0  0  0  0  0
   17.1150   69.3028   -5.1269 C   0  0  2  0  0  0  0  0  0  0  0  0
   16.9000   69.9566   -3.7616 C   0  0  2  0  0  0  0  0  0  0  0  0
   17.0993   70.3611   -6.2322 C   0  0  1  0  0  0  0  0  0  0  0  0
   17.8778   71.1130   -3.5487 C   0  0  1  0  0  0  0  0  0  0  0  0
   18.0040   71.5405   -5.8871 C   0  0  1  0  0  0  0  0  0  0  0  0
   16.0485   67.6966   -4.6961 H   0  0  0  0  0  0  0  0  0  0  0  0
   16.4582   68.2669   -2.8486 H   0  0  0  0  0  0  0  0  0  0  0  0
   16.9925   69.0214   -7.6784 H   0  0  0  0  0  0  0  0  0  0  0  0
   18.6342   73.6908   -6.5803 O   0  0  0  0  0  0  0  0  0  0  0  0
   16.8330   72.7505   -7.6151 O   0  0  0  0  0  0  0  0  0  0  0  0
   17.7350   72.6982   -6.7925 C   0  0  0  0  0  0  0  0  0  0  0  0
  1  4  1  0
  1 24  1  0
  1  2  1  6
  1  3  2  0
 25 28  1  0
 25 24  1  0
 25 26  1  1
 25 27  2  0
  6 11  1  0
  6 12  1  0
 29 36  1  0
 29 37  1  0
  9  7  1  1
  7 13  1  0
 10  8  1  1
  8 14  1  0
  4  5  1  0
 36 28  1  6
 33 30  1  6
 30 38  1  0
 34 31  1  1
 31 39  1  0
 35 32  1  6
 32 40  1  0
 41 43  1  0
 15 19  2  0
 42 43  2  0
 16 22  2  0
 12 17  1  6
 17 19  1  0
 17 20  1  0
 18 19  1  0
 18 22  1  0
 18 23  1  0
  9 10  1  0
  9 11  1  0
 10 12  1  0
 11  5  1  6
 33 34  1  0
 33 35  1  0
 34 36  1  0
 35 37  1  0
 37 43  1  6
 20 21  2  0
 21 22  1  0
M  CHG  3   2  -1  26  -1  41  -1
M  END
>  <COMPND>  (137) 
    udp_gluA.pdb 

>  <AUTHOR>  (137) 
    GENERATED BY OPEN BABEL 3.1.1

>  <MASTER>  (137) 
        0    0    0    0    0    0    0    0   56    0   56    0

>  <minimizedAffinity>  (137) 
-7.58024

>  <CNNscore>  (137) 
0.4666117132

>  <CNNaffinity>  (137) 
4.1200914383

>  <CNN_VS>  (137) 
1.9224829674

>  <CNNaffinity_variance>  (137) 
0.1687354743

$$$$
138
     RDKit          3D

 43 45  0  0  0  0  0  0  0  0999 V2000
   23.0098   71.8322   -2.2430 P   0  0  2  0  0  0  0  0  0  0  0  0
   24.1643   70.9767   -2.9874 O   0  0  0  0  0  0  0  0  0  0  0  0
   22.8030   73.2183   -2.7793 O   0  0  0  0  0  0  0  0  0  0  0  0
   23.4041   71.7364   -0.6767 O   0  0  0  0  0  0  0  0  0  0  0  0
   22.8063   72.6467    0.2279 C   0  0  0  0  0  0  0  0  0  0  0  0
   22.8627   70.9775    1.9565 O   0  0  0  0  0  0  0  0  0  0  0  0
   20.2030   72.0551    2.8262 O   0  0  0  0  0  0  0  0  0  0  0  0
   21.9192   73.1875    4.6173 O   0  0  0  0  0  0  0  0  0  0  0  0
   21.3317   72.7523    2.2984 C   0  0  1  0  0  0  0  0  0  0  0  0
   22.4237   72.8482    3.3426 C   0  0  2  0  0  0  0  0  0  0  0  0
   21.9783   71.8673    1.2415 C   0  0  1  0  0  0  0  0  0  0  0  0
   23.0215   71.4521    3.3029 C   0  0  2  0  0  0  0  0  0  0  0  0
   19.7732   72.6009    3.5037 H   0  0  0  0  0  0  0  0  0  0  0  0
   21.5501   74.0847    4.5906 H   0  0  0  0  0  0  0  0  0  0  0  0
   24.0256   71.3897    5.9419 O   0  0  0  0  0  0  0  0  0  0  0  0
   28.3949   71.4233    4.4750 O   0  0  0  0  0  0  0  0  0  0  0  0
   24.4171   71.4439    3.6393 N   0  0  0  0  0  0  0  0  0  0  0  0
   26.2008   71.4075    5.2088 N   0  0  0  0  0  0  0  0  0  0  0  0
   24.8159   71.4120    4.9965 C   0  0  0  0  0  0  0  0  0  0  0  0
   25.3736   71.4655    2.6315 C   0  0  0  0  0  0  0  0  0  0  0  0
   26.6901   71.4608    2.8494 C   0  0  0  0  0  0  0  0  0  0  0  0
   27.1904   71.4290    4.2394 C   0  0  0  0  0  0  0  0  0  0  0  0
   26.5026   71.3876    6.1457 H   0  0  0  0  0  0  0  0  0  0  0  0
   21.7168   70.8682   -2.3518 O   0  0  0  0  0  0  0  0  0  0  0  0
   20.1381   71.1911   -2.2201 P   0  0  2  0  0  0  0  0  0  0  0  0
   20.1024   72.8009   -2.0541 O   0  0  0  0  0  0  0  0  0  0  0  0
   19.4458   70.4404   -1.1196 O   0  0  0  0  0  0  0  0  0  0  0  0
   19.5407   70.9204   -3.6940 O   0  0  0  0  0  0  0  0  0  0  0  0
   20.4280   72.5652   -5.1488 O   0  0  0  0  0  0  0  0  0  0  0  0
   18.0458   70.3711   -7.7138 O   0  0  0  0  0  0  0  0  0  0  0  0
   17.1051   71.0449   -5.0313 O   0  0  0  0  0  0  0  0  0  0  0  0
   20.9349   70.0545   -7.7759 O   0  0  0  0  0  0  0  0  0  0  0  0
   18.9038   70.5826   -6.5925 C   0  0  2  0  0  0  0  0  0  0  0  0
   18.2650   71.5969   -5.6435 C   0  0  2  0  0  0  0  0  0  0  0  0
   20.2420   71.1110   -7.1140 C   0  0  1  0  0  0  0  0  0  0  0  0
   19.2496   72.0213   -4.5530 C   0  0  1  0  0  0  0  0  0  0  0  0
   21.1168   71.6309   -5.9770 C   0  0  1  0  0  0  0  0  0  0  0  0
   17.1890   70.0351   -7.4067 H   0  0  0  0  0  0  0  0  0  0  0  0
   16.4761   70.7732   -5.7175 H   0  0  0  0  0  0  0  0  0  0  0  0
   20.3888   69.7145   -8.5019 H   0  0  0  0  0  0  0  0  0  0  0  0
   21.9726   72.9084   -7.7482 O   0  0  0  0  0  0  0  0  0  0  0  0
   23.3074   72.6406   -5.9190 O   0  0  0  0  0  0  0  0  0  0  0  0
   22.2584   72.4336   -6.5105 C   0  0  0  0  0  0  0  0  0  0  0  0
  1  4  1  0
  1 24  1  0
  1  2  1  6
  1  3  2  0
 25 28  1  0
 25 24  1  0
 25 26  1  1
 25 27  2  0
  6 11  1  0
  6 12  1  0
 29 36  1  0
 29 37  1  0
  9  7  1  1
  7 13  1  0
 10  8  1  1
  8 14  1  0
  4  5  1  0
 36 28  1  6
 33 30  1  6
 30 38  1  0
 34 31  1  1
 31 39  1  0
 35 32  1  1
 32 40  1  0
 41 43  1  0
 15 19  2  0
 42 43  2  0
 16 22  2  0
 12 17  1  6
 17 19  1  0
 17 20  1  0
 18 19  1  0
 18 22  1  0
 18 23  1  0
  9 10  1  0
  9 11  1  0
 10 12  1  0
 11  5  1  6
 33 34  1  0
 33 35  1  0
 34 36  1  0
 35 37  1  0
 37 43  1  6
 20 21  2  0
 21 22  1  0
M  CHG  3   2  -1  26  -1  41  -1
M  END
>  <COMPND>  (138) 
    udp_gluA.pdb 

>  <AUTHOR>  (138) 
    GENERATED BY OPEN BABEL 3.1.1

>  <MASTER>  (138) 
        0    0    0    0    0    0    0    0   56    0   56    0

>  <minimizedAffinity>  (138) 
-7.73260

>  <CNNscore>  (138) 
0.4598391056

>  <CNNaffinity>  (138) 
4.0660643578

>  <CNN_VS>  (138) 
1.8697353601

>  <CNNaffinity_variance>  (138) 
0.2487750053

$$$$
139
     RDKit          3D

 43 45  0  0  0  0  0  0  0  0999 V2000
   22.7496   73.1057   -5.0758 P   0  0  2  0  0  0  0  0  0  0  0  0
   22.9165   72.3579   -6.5012 O   0  0  0  0  0  0  0  0  0  0  0  0
   23.1489   74.5521   -5.0685 O   0  0  0  0  0  0  0  0  0  0  0  0
   23.5471   72.1514   -4.0408 O   0  0  0  0  0  0  0  0  0  0  0  0
   22.8045   71.4395   -3.0680 C   0  0  0  0  0  0  0  0  0  0  0  0
   21.6975   72.9893   -1.6017 O   0  0  0  0  0  0  0  0  0  0  0  0
   23.5097   71.9577    0.5531 O   0  0  0  0  0  0  0  0  0  0  0  0
   21.1729   70.6475    1.0620 O   0  0  0  0  0  0  0  0  0  0  0  0
   22.9052   71.2546   -0.5326 C   0  0  1  0  0  0  0  0  0  0  0  0
   21.4287   71.0500   -0.2674 C   0  0  2  0  0  0  0  0  0  0  0  0
   22.8865   72.1817   -1.7403 C   0  0  1  0  0  0  0  0  0  0  0  0
   20.8585   72.4223   -0.5829 C   0  0  2  0  0  0  0  0  0  0  0  0
   23.5329   71.3853    1.3364 H   0  0  0  0  0  0  0  0  0  0  0  0
   21.5554   69.7684    1.2129 H   0  0  0  0  0  0  0  0  0  0  0  0
   19.9230   70.4990   -2.4275 O   0  0  0  0  0  0  0  0  0  0  0  0
   15.6657   72.2647   -2.3877 O   0  0  0  0  0  0  0  0  0  0  0  0
   19.5102   72.3563   -1.0715 N   0  0  0  0  0  0  0  0  0  0  0  0
   17.8038   71.3809   -2.4067 N   0  0  0  0  0  0  0  0  0  0  0  0
   19.1432   71.3507   -1.9968 C   0  0  0  0  0  0  0  0  0  0  0  0
   18.5679   73.2790   -0.6337 C   0  0  0  0  0  0  0  0  0  0  0  0
   17.2948   73.2950   -1.0333 C   0  0  0  0  0  0  0  0  0  0  0  0
   16.8300   72.2787   -1.9999 C   0  0  0  0  0  0  0  0  0  0  0  0
   17.5251   70.6918   -3.0523 H   0  0  0  0  0  0  0  0  0  0  0  0
   21.2008   72.8328   -4.7020 O   0  0  0  0  0  0  0  0  0  0  0  0
   19.8582   73.6516   -5.0772 P   0  0  2  0  0  0  0  0  0  0  0  0
   20.2981   74.5062   -6.3797 O   0  0  0  0  0  0  0  0  0  0  0  0
   19.3067   74.4787   -3.9522 O   0  0  0  0  0  0  0  0  0  0  0  0
   18.8434   72.5345   -5.6469 O   0  0  0  0  0  0  0  0  0  0  0  0
   18.5016   70.2271   -5.2366 O   0  0  0  0  0  0  0  0  0  0  0  0
   18.0240   70.4319   -9.3351 O   0  0  0  0  0  0  0  0  0  0  0  0
   20.1634   71.9221   -8.0173 O   0  0  0  0  0  0  0  0  0  0  0  0
   15.7022   70.1584   -7.6073 O   0  0  0  0  0  0  0  0  0  0  0  0
   17.9601   70.9067   -7.9903 C   0  0  2  0  0  0  0  0  0  0  0  0
   19.3649   70.9269   -7.3874 C   0  0  2  0  0  0  0  0  0  0  0  0
   17.0542   69.9618   -7.1977 C   0  0  1  0  0  0  0  0  0  0  0  0
   19.3116   71.2083   -5.8852 C   0  0  1  0  0  0  0  0  0  0  0  0
   17.1524   70.2238   -5.6976 C   0  0  1  0  0  0  0  0  0  0  0  0
   18.5945   71.0170   -9.8580 H   0  0  0  0  0  0  0  0  0  0  0  0
   20.2013   71.7499   -8.9708 H   0  0  0  0  0  0  0  0  0  0  0  0
   15.6260   69.9949   -8.5604 H   0  0  0  0  0  0  0  0  0  0  0  0
   16.2644   68.0532   -5.7335 O   0  0  0  0  0  0  0  0  0  0  0  0
   16.3062   69.1267   -3.7223 O   0  0  0  0  0  0  0  0  0  0  0  0
   16.5356   69.1054   -4.9222 C   0  0  0  0  0  0  0  0  0  0  0  0
  1  4  1  0
  1 24  1  0
  1  2  1  6
  1  3  2  0
 25 28  1  0
 25 24  1  0
 25 26  1  6
 25 27  2  0
  6 11  1  0
  6 12  1  0
 29 36  1  0
 29 37  1  0
  9  7  1  1
  7 13  1  0
 10  8  1  1
  8 14  1  0
  4  5  1  0
 36 28  1  6
 33 30  1  6
 30 38  1  0
 34 31  1  6
 31 39  1  0
 35 32  1  6
 32 40  1  0
 41 43  1  0
 15 19  2  0
 42 43  2  0
 16 22  2  0
 12 17  1  6
 17 19  1  0
 17 20  1  0
 18 19  1  0
 18 22  1  0
 18 23  1  0
  9 10  1  0
  9 11  1  0
 10 12  1  0
 11  5  1  6
 33 34  1  0
 33 35  1  0
 34 36  1  0
 35 37  1  0
 37 43  1  1
 20 21  2  0
 21 22  1  0
M  CHG  3   2  -1  26  -1  41  -1
M  END
>  <COMPND>  (139) 
    udp_gluA.pdb 

>  <AUTHOR>  (139) 
    GENERATED BY OPEN BABEL 3.1.1

>  <MASTER>  (139) 
        0    0    0    0    0    0    0    0   56    0   56    0

>  <minimizedAffinity>  (139) 
-7.44578

>  <CNNscore>  (139) 
0.4110659361

>  <CNNaffinity>  (139) 
3.9951934814

>  <CNN_VS>  (139) 
1.6422879696

>  <CNNaffinity_variance>  (139) 
0.6734474897

$$$$
140
     RDKit          3D

 43 45  0  0  0  0  0  0  0  0999 V2000
   23.5444   72.4852   -3.4004 P   0  0  2  0  0  0  0  0  0  0  0  0
   24.1351   71.0053   -3.1179 O   0  0  0  0  0  0  0  0  0  0  0  0
   24.5302   73.4628   -3.9699 O   0  0  0  0  0  0  0  0  0  0  0  0
   22.8680   72.9088   -1.9930 O   0  0  0  0  0  0  0  0  0  0  0  0
   23.5642   72.6205   -0.7944 C   0  0  0  0  0  0  0  0  0  0  0  0
   23.8905   70.8695    0.8196 O   0  0  0  0  0  0  0  0  0  0  0  0
   20.9217   70.4644    0.7044 O   0  0  0  0  0  0  0  0  0  0  0  0
   21.2387   71.8978    3.0025 O   0  0  0  0  0  0  0  0  0  0  0  0
   21.6723   71.6760    0.6203 C   0  0  1  0  0  0  0  0  0  0  0  0
   22.2048   72.0586    1.9849 C   0  0  2  0  0  0  0  0  0  0  0  0
   22.9523   71.3830   -0.1505 C   0  0  1  0  0  0  0  0  0  0  0  0
   23.3819   71.1110    2.1411 C   0  0  2  0  0  0  0  0  0  0  0  0
   20.0990   70.6266    1.1929 H   0  0  0  0  0  0  0  0  0  0  0  0
   20.5105   72.5230    2.8586 H   0  0  0  0  0  0  0  0  0  0  0  0
   25.3692   69.5864    3.4460 O   0  0  0  0  0  0  0  0  0  0  0  0
   27.3515   73.3508    5.2191 O   0  0  0  0  0  0  0  0  0  0  0  0
   24.4294   71.6671    2.9502 N   0  0  0  0  0  0  0  0  0  0  0  0
   26.3540   71.4626    4.3287 N   0  0  0  0  0  0  0  0  0  0  0  0
   25.3776   70.8133    3.5618 C   0  0  0  0  0  0  0  0  0  0  0  0
   24.5111   73.0426    3.1297 C   0  0  0  0  0  0  0  0  0  0  0  0
   25.4476   73.6469    3.8635 C   0  0  0  0  0  0  0  0  0  0  0  0
   26.4758   72.8269    4.5372 C   0  0  0  0  0  0  0  0  0  0  0  0
   27.0240   70.8889    4.7660 H   0  0  0  0  0  0  0  0  0  0  0  0
   22.2655   72.1914   -4.3444 O   0  0  0  0  0  0  0  0  0  0  0  0
   21.7257   72.9492   -5.6665 P   0  0  2  0  0  0  0  0  0  0  0  0
   22.7358   72.4387   -6.8238 O   0  0  0  0  0  0  0  0  0  0  0  0
   21.6447   74.4421   -5.5307 O   0  0  0  0  0  0  0  0  0  0  0  0
   20.3217   72.2306   -6.0055 O   0  0  0  0  0  0  0  0  0  0  0  0
   19.5931   70.0753   -5.3474 O   0  0  0  0  0  0  0  0  0  0  0  0
   17.5807   70.5888   -8.9187 O   0  0  0  0  0  0  0  0  0  0  0  0
   20.3734   71.4070   -8.6617 O   0  0  0  0  0  0  0  0  0  0  0  0
   16.1628   70.8492   -6.3943 O   0  0  0  0  0  0  0  0  0  0  0  0
   18.1863   71.0005   -7.6933 C   0  0  2  0  0  0  0  0  0  0  0  0
   19.6685   70.6258   -7.7037 C   0  0  2  0  0  0  0  0  0  0  0  0
   17.4653   70.2882   -6.5467 C   0  0  1  0  0  0  0  0  0  0  0  0
   20.2969   70.8409   -6.3262 C   0  0  1  0  0  0  0  0  0  0  0  0
   18.2211   70.4452   -5.2304 C   0  0  1  0  0  0  0  0  0  0  0  0
   18.0227   71.0288   -9.6619 H   0  0  0  0  0  0  0  0  0  0  0  0
   19.9798   71.2755   -9.5381 H   0  0  0  0  0  0  0  0  0  0  0  0
   15.6713   70.7559   -7.2253 H   0  0  0  0  0  0  0  0  0  0  0  0
   18.6408   69.2540   -3.2539 O   0  0  0  0  0  0  0  0  0  0  0  0
   16.5880   68.9909   -4.2109 O   0  0  0  0  0  0  0  0  0  0  0  0
   17.7027   69.4912   -4.2040 C   0  0  0  0  0  0  0  0  0  0  0  0
  1  4  1  0
  1 24  1  0
  1  2  1  1
  1  3  2  0
 25 28  1  0
 25 24  1  0
 25 26  1  6
 25 27  2  0
  6 11  1  0
  6 12  1  0
 29 36  1  0
 29 37  1  0
  9  7  1  1
  7 13  1  0
 10  8  1  1
  8 14  1  0
  4  5  1  0
 36 28  1  1
 33 30  1  6
 30 38  1  0
 34 31  1  6
 31 39  1  0
 35 32  1  1
 32 40  1  0
 41 43  1  0
 15 19  2  0
 42 43  2  0
 16 22  2  0
 12 17  1  1
 17 19  1  0
 17 20  1  0
 18 19  1  0
 18 22  1  0
 18 23  1  0
  9 10  1  0
  9 11  1  0
 10 12  1  0
 11  5  1  1
 33 34  1  0
 33 35  1  0
 34 36  1  0
 35 37  1  0
 37 43  1  1
 20 21  2  0
 21 22  1  0
M  CHG  3   2  -1  26  -1  41  -1
M  END
>  <COMPND>  (140) 
    udp_gluA.pdb 

>  <AUTHOR>  (140) 
    GENERATED BY OPEN BABEL 3.1.1

>  <MASTER>  (140) 
        0    0    0    0    0    0    0    0   56    0   56    0

>  <minimizedAffinity>  (140) 
-8.58640

>  <CNNscore>  (140) 
0.4077934027

>  <CNNaffinity>  (140) 
4.0742521286

>  <CNN_VS>  (140) 
1.6614531279

>  <CNNaffinity_variance>  (140) 
0.2576251924

$$$$
141
     RDKit          3D

 43 45  0  0  0  0  0  0  0  0999 V2000
   22.8107   71.6498   -2.6831 P   0  0  2  0  0  0  0  0  0  0  0  0
   24.2129   70.9813   -3.1370 O   0  0  0  0  0  0  0  0  0  0  0  0
   22.3334   71.2543   -1.3165 O   0  0  0  0  0  0  0  0  0  0  0  0
   21.8051   71.3101   -3.9042 O   0  0  0  0  0  0  0  0  0  0  0  0
   20.8664   70.2636   -3.7359 C   0  0  0  0  0  0  0  0  0  0  0  0
   19.0687   71.5592   -4.6672 O   0  0  0  0  0  0  0  0  0  0  0  0
   17.3737   70.4541   -2.4542 O   0  0  0  0  0  0  0  0  0  0  0  0
   16.6461   68.9175   -4.5862 O   0  0  0  0  0  0  0  0  0  0  0  0
   18.4205   69.8230   -3.1920 C   0  0  1  0  0  0  0  0  0  0  0  0
   17.9433   69.4758   -4.5863 C   0  0  2  0  0  0  0  0  0  0  0  0
   19.4927   70.8669   -3.4729 C   0  0  1  0  0  0  0  0  0  0  0  0
   17.9996   70.8243   -5.2838 C   0  0  2  0  0  0  0  0  0  0  0  0
   16.6767   69.8066   -2.2629 H   0  0  0  0  0  0  0  0  0  0  0  0
   16.6630   68.0604   -4.1312 H   0  0  0  0  0  0  0  0  0  0  0  0
   16.0362   70.2707   -7.2370 O   0  0  0  0  0  0  0  0  0  0  0  0
   19.1352   70.3834  -10.6469 O   0  0  0  0  0  0  0  0  0  0  0  0
   18.2658   70.7036   -6.6892 N   0  0  0  0  0  0  0  0  0  0  0  0
   17.5817   70.3263   -8.9334 N   0  0  0  0  0  0  0  0  0  0  0  0
   17.2082   70.4233   -7.5865 C   0  0  0  0  0  0  0  0  0  0  0  0
   19.5612   70.8638   -7.1661 C   0  0  0  0  0  0  0  0  0  0  0  0
   19.9018   70.7685   -8.4528 C   0  0  0  0  0  0  0  0  0  0  0  0
   18.8562   70.4771   -9.4554 C   0  0  0  0  0  0  0  0  0  0  0  0
   16.8629   70.1298   -9.5767 H   0  0  0  0  0  0  0  0  0  0  0  0
   23.0861   73.2317   -2.8685 O   0  0  0  0  0  0  0  0  0  0  0  0
   22.1160   74.4274   -3.3614 P   0  0  2  0  0  0  0  0  0  0  0  0
   22.7355   75.7317   -2.6298 O   0  0  0  0  0  0  0  0  0  0  0  0
   20.6597   74.1942   -3.0807 O   0  0  0  0  0  0  0  0  0  0  0  0
   22.4734   74.6275   -4.9217 O   0  0  0  0  0  0  0  0  0  0  0  0
   20.8334   75.2989   -6.4930 O   0  0  0  0  0  0  0  0  0  0  0  0
   23.7167   73.6409   -8.9437 O   0  0  0  0  0  0  0  0  0  0  0  0
   22.9891   72.3467   -6.4277 O   0  0  0  0  0  0  0  0  0  0  0  0
   23.4331   76.5289   -8.7714 O   0  0  0  0  0  0  0  0  0  0  0  0
   23.2219   74.3349   -7.7984 C   0  0  2  0  0  0  0  0  0  0  0  0
   22.2726   73.4245   -7.0190 C   0  0  2  0  0  0  0  0  0  0  0  0
   22.4825   75.5833   -8.2849 C   0  0  1  0  0  0  0  0  0  0  0  0
   21.5474   74.2027   -5.9202 C   0  0  1  0  0  0  0  0  0  0  0  0
   21.6824   76.2312   -7.1586 C   0  0  1  0  0  0  0  0  0  0  0  0
   24.1905   72.8435   -8.6591 H   0  0  0  0  0  0  0  0  0  0  0  0
   23.4519   71.8487   -7.1192 H   0  0  0  0  0  0  0  0  0  0  0  0
   23.9491   76.1290   -9.4887 H   0  0  0  0  0  0  0  0  0  0  0  0
   19.5184   77.1324   -7.0779 O   0  0  0  0  0  0  0  0  0  0  0  0
   20.9679   78.0409   -8.5855 O   0  0  0  0  0  0  0  0  0  0  0  0
   20.7179   77.2345   -7.7022 C   0  0  0  0  0  0  0  0  0  0  0  0
  1  4  1  0
  1 24  1  0
  1  2  1  6
  1  3  2  0
 25 28  1  0
 25 24  1  0
 25 26  1  1
 25 27  2  0
  6 11  1  0
  6 12  1  0
 29 36  1  0
 29 37  1  0
  9  7  1  1
  7 13  1  0
 10  8  1  1
  8 14  1  0
  4  5  1  0
 36 28  1  1
 33 30  1  6
 30 38  1  0
 34 31  1  1
 31 39  1  0
 35 32  1  1
 32 40  1  0
 41 43  1  0
 15 19  2  0
 42 43  2  0
 16 22  2  0
 12 17  1  6
 17 19  1  0
 17 20  1  0
 18 19  1  0
 18 22  1  0
 18 23  1  0
  9 10  1  0
  9 11  1  0
 10 12  1  0
 11  5  1  6
 33 34  1  0
 33 35  1  0
 34 36  1  0
 35 37  1  0
 37 43  1  6
 20 21  2  0
 21 22  1  0
M  CHG  3   2  -1  26  -1  41  -1
M  END
>  <COMPND>  (141) 
    udp_gluA.pdb 

>  <AUTHOR>  (141) 
    GENERATED BY OPEN BABEL 3.1.1

>  <MASTER>  (141) 
        0    0    0    0    0    0    0    0   56    0   56    0

>  <minimizedAffinity>  (141) 
-7.35285

>  <CNNscore>  (141) 
0.9213101864

>  <CNNaffinity>  (141) 
4.7625298500

>  <CNN_VS>  (141) 
4.3877673149

>  <CNNaffinity_variance>  (141) 
0.2259097397

$$$$
142
     RDKit          3D

 43 45  0  0  0  0  0  0  0  0999 V2000
   22.5869   72.3854   -3.7143 P   0  0  2  0  0  0  0  0  0  0  0  0
   24.1322   71.9120   -3.6318 O   0  0  0  0  0  0  0  0  0  0  0  0
   22.3154   73.7591   -3.1748 O   0  0  0  0  0  0  0  0  0  0  0  0
   21.7727   71.1793   -3.0071 O   0  0  0  0  0  0  0  0  0  0  0  0
   20.8356   70.4518   -3.7798 C   0  0  0  0  0  0  0  0  0  0  0  0
   18.9596   71.6230   -4.7214 O   0  0  0  0  0  0  0  0  0  0  0  0
   17.3632   70.5258   -2.4324 O   0  0  0  0  0  0  0  0  0  0  0  0
   16.6696   68.8742   -4.4885 O   0  0  0  0  0  0  0  0  0  0  0  0
   18.4249   69.9168   -3.1677 C   0  0  1  0  0  0  0  0  0  0  0  0
   17.9381   69.4932   -4.5374 C   0  0  2  0  0  0  0  0  0  0  0  0
   19.4396   70.9988   -3.5109 C   0  0  1  0  0  0  0  0  0  0  0  0
   17.9155   70.8145   -5.2867 C   0  0  2  0  0  0  0  0  0  0  0  0
   16.7022   69.8538   -2.2018 H   0  0  0  0  0  0  0  0  0  0  0  0
   16.7368   68.0373   -4.0016 H   0  0  0  0  0  0  0  0  0  0  0  0
   15.9013   70.8157   -7.2665 O   0  0  0  0  0  0  0  0  0  0  0  0
   18.9692   70.1820  -10.6474 O   0  0  0  0  0  0  0  0  0  0  0  0
   18.1600   70.6518   -6.6919 N   0  0  0  0  0  0  0  0  0  0  0  0
   17.4311   70.4990   -8.9484 N   0  0  0  0  0  0  0  0  0  0  0  0
   17.0776   70.6674   -7.6031 C   0  0  0  0  0  0  0  0  0  0  0  0
   19.4591   70.4811   -7.1547 C   0  0  0  0  0  0  0  0  0  0  0  0
   19.7804   70.3220   -8.4401 C   0  0  0  0  0  0  0  0  0  0  0  0
   18.7082   70.3253   -9.4568 C   0  0  0  0  0  0  0  0  0  0  0  0
   16.6943   70.5043   -9.6013 H   0  0  0  0  0  0  0  0  0  0  0  0
   22.2320   72.1946   -5.2797 O   0  0  0  0  0  0  0  0  0  0  0  0
   22.0933   73.2733   -6.4759 P   0  0  2  0  0  0  0  0  0  0  0  0
   20.7061   74.0325   -6.1301 O   0  0  0  0  0  0  0  0  0  0  0  0
   22.1452   72.6765   -7.8525 O   0  0  0  0  0  0  0  0  0  0  0  0
   23.2413   74.3664   -6.1763 O   0  0  0  0  0  0  0  0  0  0  0  0
   23.7130   76.4768   -5.2105 O   0  0  0  0  0  0  0  0  0  0  0  0
   24.6280   77.1470   -9.1831 O   0  0  0  0  0  0  0  0  0  0  0  0
   22.2457   75.6238   -8.4487 O   0  0  0  0  0  0  0  0  0  0  0  0
   26.7565   76.7908   -7.2355 O   0  0  0  0  0  0  0  0  0  0  0  0
   24.5043   76.3793   -7.9859 C   0  0  2  0  0  0  0  0  0  0  0  0
   23.0436   76.3670   -7.5345 C   0  0  2  0  0  0  0  0  0  0  0  0
   25.3866   77.0264   -6.9160 C   0  0  1  0  0  0  0  0  0  0  0  0
   22.9069   75.7526   -6.1407 C   0  0  1  0  0  0  0  0  0  0  0  0
   25.1015   76.4467   -5.5335 C   0  0  1  0  0  0  0  0  0  0  0  0
   24.0757   76.7545   -9.8776 H   0  0  0  0  0  0  0  0  0  0  0  0
   22.3279   76.0080   -9.3353 H   0  0  0  0  0  0  0  0  0  0  0  0
   26.9511   77.1548   -8.1133 H   0  0  0  0  0  0  0  0  0  0  0  0
   25.2585   76.9262   -3.2429 O   0  0  0  0  0  0  0  0  0  0  0  0
   26.5138   78.1971   -4.6600 O   0  0  0  0  0  0  0  0  0  0  0  0
   25.7127   77.2950   -4.4662 C   0  0  0  0  0  0  0  0  0  0  0  0
  1  4  1  0
  1 24  1  0
  1  2  1  6
  1  3  2  0
 25 28  1  0
 25 24  1  0
 25 26  1  1
 25 27  2  0
  6 11  1  0
  6 12  1  0
 29 36  1  0
 29 37  1  0
  9  7  1  1
  7 13  1  0
 10  8  1  1
  8 14  1  0
  4  5  1  0
 36 28  1  6
 33 30  1  6
 30 38  1  0
 34 31  1  6
 31 39  1  0
 35 32  1  6
 32 40  1  0
 41 43  1  0
 15 19  2  0
 42 43  2  0
 16 22  2  0
 12 17  1  6
 17 19  1  0
 17 20  1  0
 18 19  1  0
 18 22  1  0
 18 23  1  0
  9 10  1  0
  9 11  1  0
 10 12  1  0
 11  5  1  6
 33 34  1  0
 33 35  1  0
 34 36  1  0
 35 37  1  0
 37 43  1  1
 20 21  2  0
 21 22  1  0
M  CHG  3   2  -1  26  -1  41  -1
M  END
>  <COMPND>  (142) 
    udp_gluA.pdb 

>  <AUTHOR>  (142) 
    GENERATED BY OPEN BABEL 3.1.1

>  <MASTER>  (142) 
        0    0    0    0    0    0    0    0   56    0   56    0

>  <minimizedAffinity>  (142) 
-6.75780

>  <CNNscore>  (142) 
0.8959718347

>  <CNNaffinity>  (142) 
4.8312449455

>  <CNN_VS>  (142) 
4.3286595345

>  <CNNaffinity_variance>  (142) 
0.0804044232

$$$$
143
     RDKit          3D

 43 45  0  0  0  0  0  0  0  0999 V2000
   23.0449   71.5504   -2.3203 P   0  0  2  0  0  0  0  0  0  0  0  0
   22.9039   73.1593   -2.4231 O   0  0  0  0  0  0  0  0  0  0  0  0
   24.2527   70.9756   -3.0004 O   0  0  0  0  0  0  0  0  0  0  0  0
   21.6158   71.0009   -2.8435 O   0  0  0  0  0  0  0  0  0  0  0  0
   20.9881   71.6696   -3.9221 C   0  0  0  0  0  0  0  0  0  0  0  0
   18.8265   72.1584   -4.8528 O   0  0  0  0  0  0  0  0  0  0  0  0
   17.6845   70.8175   -2.4260 O   0  0  0  0  0  0  0  0  0  0  0  0
   17.4659   68.8820   -4.3345 O   0  0  0  0  0  0  0  0  0  0  0  0
   18.8615   70.4949   -3.1669 C   0  0  1  0  0  0  0  0  0  0  0  0
   18.4908   69.8425   -4.4819 C   0  0  2  0  0  0  0  0  0  0  0  0
   19.4993   71.7987   -3.6267 C   0  0  1  0  0  0  0  0  0  0  0  0
   18.0577   71.0366   -5.3153 C   0  0  2  0  0  0  0  0  0  0  0  0
   17.2594   70.0000   -2.1216 H   0  0  0  0  0  0  0  0  0  0  0  0
   17.7910   68.1423   -3.7969 H   0  0  0  0  0  0  0  0  0  0  0  0
   16.2099   69.8974   -7.1221 O   0  0  0  0  0  0  0  0  0  0  0  0
   19.1181   70.3544  -10.6686 O   0  0  0  0  0  0  0  0  0  0  0  0
   18.3061   70.8461   -6.7163 N   0  0  0  0  0  0  0  0  0  0  0  0
   17.6605   70.1252   -8.8865 N   0  0  0  0  0  0  0  0  0  0  0  0
   17.3110   70.2643   -7.5369 C   0  0  0  0  0  0  0  0  0  0  0  0
   19.5225   71.2349   -7.2642 C   0  0  0  0  0  0  0  0  0  0  0  0
   19.8411   71.0960   -8.5526 C   0  0  0  0  0  0  0  0  0  0  0  0
   18.8574   70.4961   -9.4777 C   0  0  0  0  0  0  0  0  0  0  0  0
   16.9845   69.7207   -9.4771 H   0  0  0  0  0  0  0  0  0  0  0  0
   22.9769   71.2812   -0.7279 O   0  0  0  0  0  0  0  0  0  0  0  0
   21.8521   71.6683    0.3669 P   0  0  2  0  0  0  0  0  0  0  0  0
   20.7991   70.4431    0.2643 O   0  0  0  0  0  0  0  0  0  0  0  0
   21.2423   73.0259    0.1698 O   0  0  0  0  0  0  0  0  0  0  0  0
   22.5796   71.4616    1.7918 O   0  0  0  0  0  0  0  0  0  0  0  0
   23.1785   73.1965    3.2887 O   0  0  0  0  0  0  0  0  0  0  0  0
   25.8694   70.2346    4.3151 O   0  0  0  0  0  0  0  0  0  0  0  0
   25.2598   70.7740    1.5094 O   0  0  0  0  0  0  0  0  0  0  0  0
   23.5806   70.7818    6.0217 O   0  0  0  0  0  0  0  0  0  0  0  0
   24.6268   70.7626    3.8514 C   0  0  2  0  0  0  0  0  0  0  0  0
   24.8641   71.6027    2.5963 C   0  0  2  0  0  0  0  0  0  0  0  0
   24.0348   71.6274    4.9667 C   0  0  1  0  0  0  0  0  0  0  0  0
   23.6002   72.3691    2.2038 C   0  0  1  0  0  0  0  0  0  0  0  0
   22.8560   72.4554    4.4633 C   0  0  1  0  0  0  0  0  0  0  0  0
   26.2644   69.6814    3.6227 H   0  0  0  0  0  0  0  0  0  0  0  0
   26.0612   70.2846    1.7516 H   0  0  0  0  0  0  0  0  0  0  0  0
   24.3214   70.2492    6.3509 H   0  0  0  0  0  0  0  0  0  0  0  0
   21.5824   74.3715    4.9194 O   0  0  0  0  0  0  0  0  0  0  0  0
   22.9636   73.6231    6.5720 O   0  0  0  0  0  0  0  0  0  0  0  0
   22.4995   73.5228    5.4461 C   0  0  0  0  0  0  0  0  0  0  0  0
  1  4  1  0
  1 24  1  0
  1  2  1  1
  1  3  2  0
 25 28  1  0
 25 24  1  0
 25 26  1  1
 25 27  2  0
  6 11  1  0
  6 12  1  0
 29 36  1  0
 29 37  1  0
  9  7  1  1
  7 13  1  0
 10  8  1  1
  8 14  1  0
  4  5  1  0
 36 28  1  1
 33 30  1  1
 30 38  1  0
 34 31  1  6
 31 39  1  0
 35 32  1  1
 32 40  1  0
 41 43  1  0
 15 19  2  0
 42 43  2  0
 16 22  2  0
 12 17  1  6
 17 19  1  0
 17 20  1  0
 18 19  1  0
 18 22  1  0
 18 23  1  0
  9 10  1  0
  9 11  1  0
 10 12  1  0
 11  5  1  6
 33 34  1  0
 33 35  1  0
 34 36  1  0
 35 37  1  0
 37 43  1  1
 20 21  2  0
 21 22  1  0
M  CHG  3   2  -1  26  -1  41  -1
M  END
>  <COMPND>  (143) 
    udp_gluA.pdb 

>  <AUTHOR>  (143) 
    GENERATED BY OPEN BABEL 3.1.1

>  <MASTER>  (143) 
        0    0    0    0    0    0    0    0   56    0   56    0

>  <minimizedAffinity>  (143) 
-8.57132

>  <CNNscore>  (143) 
0.8323482275

>  <CNNaffinity>  (143) 
4.5870413780

>  <CNN_VS>  (143) 
3.8180158138

>  <CNNaffinity_variance>  (143) 
0.1014671773

$$$$
144
     RDKit          3D

 43 45  0  0  0  0  0  0  0  0999 V2000
   22.9337   71.5906   -2.3953 P   0  0  2  0  0  0  0  0  0  0  0  0
   22.4762   73.0191   -3.0028 O   0  0  0  0  0  0  0  0  0  0  0  0
   24.1768   71.0118   -3.0048 O   0  0  0  0  0  0  0  0  0  0  0  0
   21.6038   70.6761   -2.5093 O   0  0  0  0  0  0  0  0  0  0  0  0
   20.8944   70.6643   -3.7345 C   0  0  0  0  0  0  0  0  0  0  0  0
   18.9398   71.6958   -4.6797 O   0  0  0  0  0  0  0  0  0  0  0  0
   17.4077   70.4056   -2.4482 O   0  0  0  0  0  0  0  0  0  0  0  0
   16.8908   68.7563   -4.5573 O   0  0  0  0  0  0  0  0  0  0  0  0
   18.5291   69.9094   -3.1794 C   0  0  1  0  0  0  0  0  0  0  0  0
   18.1021   69.4824   -4.5678 C   0  0  2  0  0  0  0  0  0  0  0  0
   19.4526   71.0828   -3.4769 C   0  0  1  0  0  0  0  0  0  0  0  0
   17.9780   70.8164   -5.2839 C   0  0  2  0  0  0  0  0  0  0  0  0
   16.8033   69.6738   -2.2465 H   0  0  0  0  0  0  0  0  0  0  0  0
   17.0219   67.9155   -4.0906 H   0  0  0  0  0  0  0  0  0  0  0  0
   16.0973   70.0062   -7.2288 O   0  0  0  0  0  0  0  0  0  0  0  0
   19.1613   70.4548  -10.6426 O   0  0  0  0  0  0  0  0  0  0  0  0
   18.2576   70.7127   -6.6881 N   0  0  0  0  0  0  0  0  0  0  0  0
   17.6254   70.2294   -8.9271 N   0  0  0  0  0  0  0  0  0  0  0  0
   17.2422   70.2959   -7.5811 C   0  0  0  0  0  0  0  0  0  0  0  0
   19.5241   71.0235   -7.1679 C   0  0  0  0  0  0  0  0  0  0  0  0
   19.8744   70.9554   -8.4538 C   0  0  0  0  0  0  0  0  0  0  0  0
   18.8724   70.5277   -9.4521 C   0  0  0  0  0  0  0  0  0  0  0  0
   16.9360   69.9397   -9.5675 H   0  0  0  0  0  0  0  0  0  0  0  0
   23.0363   71.8867   -0.8095 O   0  0  0  0  0  0  0  0  0  0  0  0
   23.3193   73.2584   -0.0020 P   0  0  2  0  0  0  0  0  0  0  0  0
   21.8420   73.8973    0.1709 O   0  0  0  0  0  0  0  0  0  0  0  0
   24.3131   74.1686   -0.6635 O   0  0  0  0  0  0  0  0  0  0  0  0
   23.7329   72.7815    1.4826 O   0  0  0  0  0  0  0  0  0  0  0  0
   24.1431   70.6647    2.4625 O   0  0  0  0  0  0  0  0  0  0  0  0
   22.1920   72.6427    5.5201 O   0  0  0  0  0  0  0  0  0  0  0  0
   21.2658   72.9004    2.7614 O   0  0  0  0  0  0  0  0  0  0  0  0
   25.0697   72.2481    5.6400 O   0  0  0  0  0  0  0  0  0  0  0  0
   23.0372   72.5234    4.3758 C   0  0  2  0  0  0  0  0  0  0  0  0
   22.2350   71.9572    3.2039 C   0  0  2  0  0  0  0  0  0  0  0  0
   24.1900   71.5832    4.7352 C   0  0  1  0  0  0  0  0  0  0  0  0
   23.1531   71.6005    2.0340 C   0  0  1  0  0  0  0  0  0  0  0  0
   24.9821   71.1741    3.4968 C   0  0  1  0  0  0  0  0  0  0  0  0
   21.4520   73.2356    5.3153 H   0  0  0  0  0  0  0  0  0  0  0  0
   20.6800   73.1314    3.4989 H   0  0  0  0  0  0  0  0  0  0  0  0
   24.5778   72.5139    6.4327 H   0  0  0  0  0  0  0  0  0  0  0  0
   27.0918   70.4543    4.2264 O   0  0  0  0  0  0  0  0  0  0  0  0
   25.5735   68.8424    3.6830 O   0  0  0  0  0  0  0  0  0  0  0  0
   25.8805   70.0193    3.7993 C   0  0  0  0  0  0  0  0  0  0  0  0
  1  4  1  0
  1 24  1  0
  1  2  1  6
  1  3  2  0
 25 28  1  0
 25 24  1  0
 25 26  1  1
 25 27  2  0
  6 11  1  0
  6 12  1  0
 29 36  1  0
 29 37  1  0
  9  7  1  1
  7 13  1  0
 10  8  1  1
  8 14  1  0
  4  5  1  0
 36 28  1  1
 33 30  1  1
 30 38  1  0
 34 31  1  6
 31 39  1  0
 35 32  1  1
 32 40  1  0
 41 43  1  0
 15 19  2  0
 42 43  2  0
 16 22  2  0
 12 17  1  6
 17 19  1  0
 17 20  1  0
 18 19  1  0
 18 22  1  0
 18 23  1  0
  9 10  1  0
  9 11  1  0
 10 12  1  0
 11  5  1  6
 33 34  1  0
 33 35  1  0
 34 36  1  0
 35 37  1  0
 37 43  1  1
 20 21  2  0
 21 22  1  0
M  CHG  3   2  -1  26  -1  41  -1
M  END
>  <COMPND>  (144) 
    udp_gluA.pdb 

>  <AUTHOR>  (144) 
    GENERATED BY OPEN BABEL 3.1.1

>  <MASTER>  (144) 
        0    0    0    0    0    0    0    0   56    0   56    0

>  <minimizedAffinity>  (144) 
-8.53800

>  <CNNscore>  (144) 
0.7293697596

>  <CNNaffinity>  (144) 
4.5219259262

>  <CNN_VS>  (144) 
3.2981560230

>  <CNNaffinity_variance>  (144) 
0.0388516709

$$$$
145
     RDKit          3D

 43 45  0  0  0  0  0  0  0  0999 V2000
   21.9812   72.5761   -5.8745 P   0  0  2  0  0  0  0  0  0  0  0  0
   21.2062   73.9379   -5.4699 O   0  0  0  0  0  0  0  0  0  0  0  0
   23.1803   72.7675   -6.7561 O   0  0  0  0  0  0  0  0  0  0  0  0
   20.8142   71.6277   -6.4717 O   0  0  0  0  0  0  0  0  0  0  0  0
   20.2041   71.9955   -7.6953 C   0  0  0  0  0  0  0  0  0  0  0  0
   19.0367   69.9491   -7.2187 O   0  0  0  0  0  0  0  0  0  0  0  0
   18.0953   70.0412  -10.0642 O   0  0  0  0  0  0  0  0  0  0  0  0
   15.9276   70.9614   -8.6893 O   0  0  0  0  0  0  0  0  0  0  0  0
   18.3104   71.1152   -9.1483 C   0  0  1  0  0  0  0  0  0  0  0  0
   17.2038   71.1530   -8.1157 C   0  0  2  0  0  0  0  0  0  0  0  0
   19.5268   70.7721   -8.2993 C   0  0  1  0  0  0  0  0  0  0  0  0
   17.6025   70.0207   -7.1846 C   0  0  2  0  0  0  0  0  0  0  0  0
   17.3228   70.2377  -10.6177 H   0  0  0  0  0  0  0  0  0  0  0  0
   15.7200   71.7084   -9.2731 H   0  0  0  0  0  0  0  0  0  0  0  0
   16.2130   68.1324   -5.6098 O   0  0  0  0  0  0  0  0  0  0  0  0
   16.0251   71.0023   -2.0081 O   0  0  0  0  0  0  0  0  0  0  0  0
   17.1784   70.2483   -5.8321 N   0  0  0  0  0  0  0  0  0  0  0  0
   16.1198   69.5639   -3.8178 N   0  0  0  0  0  0  0  0  0  0  0  0
   16.4865   69.2337   -5.1292 C   0  0  0  0  0  0  0  0  0  0  0  0
   17.4495   71.4636   -5.2154 C   0  0  0  0  0  0  0  0  0  0  0  0
   17.0937   71.7637   -3.9648 C   0  0  0  0  0  0  0  0  0  0  0  0
   16.3665   70.7589   -3.1616 C   0  0  0  0  0  0  0  0  0  0  0  0
   15.6353   68.8742   -3.3091 H   0  0  0  0  0  0  0  0  0  0  0  0
   22.3003   71.9006   -4.4411 O   0  0  0  0  0  0  0  0  0  0  0  0
   23.5256   72.1260   -3.4107 P   0  0  2  0  0  0  0  0  0  0  0  0
   24.4593   73.2039   -4.1765 O   0  0  0  0  0  0  0  0  0  0  0  0
   24.2359   70.8645   -3.0132 O   0  0  0  0  0  0  0  0  0  0  0  0
   22.8804   72.9470   -2.1810 O   0  0  0  0  0  0  0  0  0  0  0  0
   21.2179   72.0245   -0.7689 O   0  0  0  0  0  0  0  0  0  0  0  0
   20.6710   76.0763   -0.1757 O   0  0  0  0  0  0  0  0  0  0  0  0
   21.1596   75.0249   -2.8572 O   0  0  0  0  0  0  0  0  0  0  0  0
   21.9999   74.4711    1.8511 O   0  0  0  0  0  0  0  0  0  0  0  0
   21.4131   74.8876   -0.4483 C   0  0  2  0  0  0  0  0  0  0  0  0
   20.8719   74.2256   -1.7157 C   0  0  2  0  0  0  0  0  0  0  0  0
   21.2588   73.9486    0.7502 C   0  0  1  0  0  0  0  0  0  0  0  0
   21.4838   72.8379   -1.9122 C   0  0  1  0  0  0  0  0  0  0  0  0
   21.7787   72.5496    0.4323 C   0  0  1  0  0  0  0  0  0  0  0  0
   20.7543   76.6883   -0.9239 H   0  0  0  0  0  0  0  0  0  0  0  0
   20.7745   75.9070   -2.7392 H   0  0  0  0  0  0  0  0  0  0  0  0
   21.6790   75.3615    2.0635 H   0  0  0  0  0  0  0  0  0  0  0  0
   21.5314   70.2979    1.0411 O   0  0  0  0  0  0  0  0  0  0  0  0
   20.8530   71.8646    2.5525 O   0  0  0  0  0  0  0  0  0  0  0  0
   21.3315   71.5695    1.4676 C   0  0  0  0  0  0  0  0  0  0  0  0
  1  4  1  0
  1 24  1  0
  1  2  1  1
  1  3  2  0
 25 28  1  0
 25 24  1  0
 25 26  1  6
 25 27  2  0
  6 11  1  0
  6 12  1  0
 29 36  1  0
 29 37  1  0
  9  7  1  6
  7 13  1  0
 10  8  1  6
  8 14  1  0
  4  5  1  0
 36 28  1  1
 33 30  1  1
 30 38  1  0
 34 31  1  6
 31 39  1  0
 35 32  1  1
 32 40  1  0
 41 43  1  0
 15 19  2  0
 42 43  2  0
 16 22  2  0
 12 17  1  1
 17 19  1  0
 17 20  1  0
 18 19  1  0
 18 22  1  0
 18 23  1  0
  9 10  1  0
  9 11  1  0
 10 12  1  0
 11  5  1  1
 33 34  1  0
 33 35  1  0
 34 36  1  0
 35 37  1  0
 37 43  1  1
 20 21  2  0
 21 22  1  0
M  CHG  3   2  -1  26  -1  41  -1
M  END
>  <COMPND>  (145) 
    udp_gluA.pdb 

>  <AUTHOR>  (145) 
    GENERATED BY OPEN BABEL 3.1.1

>  <MASTER>  (145) 
        0    0    0    0    0    0    0    0   56    0   56    0

>  <minimizedAffinity>  (145) 
-8.15391

>  <CNNscore>  (145) 
0.6987576485

>  <CNNaffinity>  (145) 
4.4969735146

>  <CNN_VS>  (145) 
3.1422946453

>  <CNNaffinity_variance>  (145) 
0.3977311254

$$$$
146
     RDKit          3D

 43 45  0  0  0  0  0  0  0  0999 V2000
   21.1219   73.1931   -4.6291 P   0  0  2  0  0  0  0  0  0  0  0  0
   19.8324   72.9839   -3.6740 O   0  0  0  0  0  0  0  0  0  0  0  0
   21.1683   74.5073   -5.3520 O   0  0  0  0  0  0  0  0  0  0  0  0
   21.1287   71.8747   -5.5669 O   0  0  0  0  0  0  0  0  0  0  0  0
   20.7080   72.0002   -6.9130 C   0  0  0  0  0  0  0  0  0  0  0  0
   19.3104   70.1332   -6.3311 O   0  0  0  0  0  0  0  0  0  0  0  0
   19.2235   69.5223   -9.2655 O   0  0  0  0  0  0  0  0  0  0  0  0
   16.8264   70.7511   -8.8415 O   0  0  0  0  0  0  0  0  0  0  0  0
   19.2462   70.7886   -8.6064 C   0  0  1  0  0  0  0  0  0  0  0  0
   17.8979   71.0786   -7.9817 C   0  0  2  0  0  0  0  0  0  0  0  0
   20.1443   70.6654   -7.3830 C   0  0  1  0  0  0  0  0  0  0  0  0
   17.9343   70.2102   -6.7357 C   0  0  2  0  0  0  0  0  0  0  0  0
   18.6558   69.5762  -10.0506 H   0  0  0  0  0  0  0  0  0  0  0  0
   16.8468   71.3316   -9.6191 H   0  0  0  0  0  0  0  0  0  0  0  0
   16.6975   68.6796   -4.7098 O   0  0  0  0  0  0  0  0  0  0  0  0
   14.9936   72.4382   -2.6570 O   0  0  0  0  0  0  0  0  0  0  0  0
   17.1615   70.7632   -5.6597 N   0  0  0  0  0  0  0  0  0  0  0  0
   15.8492   70.5530   -3.6899 N   0  0  0  0  0  0  0  0  0  0  0  0
   16.5823   69.9066   -4.6938 C   0  0  0  0  0  0  0  0  0  0  0  0
   16.9850   72.1384   -5.5678 C   0  0  0  0  0  0  0  0  0  0  0  0
   16.2836   72.7400   -4.6050 C   0  0  0  0  0  0  0  0  0  0  0  0
   15.6451   71.9169   -3.5570 C   0  0  0  0  0  0  0  0  0  0  0  0
   15.4348   69.9773   -3.0072 H   0  0  0  0  0  0  0  0  0  0  0  0
   22.3624   72.9322   -3.6262 O   0  0  0  0  0  0  0  0  0  0  0  0
   23.6668   73.8283   -3.2958 P   0  0  2  0  0  0  0  0  0  0  0  0
   23.0697   75.3299   -3.2012 O   0  0  0  0  0  0  0  0  0  0  0  0
   24.7885   73.6698   -4.2810 O   0  0  0  0  0  0  0  0  0  0  0  0
   24.0514   73.4465   -1.7763 O   0  0  0  0  0  0  0  0  0  0  0  0
   22.1925   72.8567   -0.4326 O   0  0  0  0  0  0  0  0  0  0  0  0
   25.2181   73.0837    2.3713 O   0  0  0  0  0  0  0  0  0  0  0  0
   25.0056   75.0878    0.2563 O   0  0  0  0  0  0  0  0  0  0  0  0
   24.2474   70.4930    1.4786 O   0  0  0  0  0  0  0  0  0  0  0  0
   24.6485   72.8361    1.0859 C   0  0  2  0  0  0  0  0  0  0  0  0
   24.0076   74.1184    0.5545 C   0  0  2  0  0  0  0  0  0  0  0  0
   23.5937   71.7381    1.2397 C   0  0  1  0  0  0  0  0  0  0  0  0
   23.1913   73.8394   -0.7083 C   0  0  1  0  0  0  0  0  0  0  0  0
   22.7388   71.6068   -0.0175 C   0  0  1  0  0  0  0  0  0  0  0  0
   25.8915   73.7784    2.2983 H   0  0  0  0  0  0  0  0  0  0  0  0
   25.5276   75.2695    1.0532 H   0  0  0  0  0  0  0  0  0  0  0  0
   24.7950   70.5632    2.2762 H   0  0  0  0  0  0  0  0  0  0  0  0
   20.6244   70.9101   -0.7560 O   0  0  0  0  0  0  0  0  0  0  0  0
   21.3534   70.0834    1.2400 O   0  0  0  0  0  0  0  0  0  0  0  0
   21.5225   70.7819    0.2519 C   0  0  0  0  0  0  0  0  0  0  0  0
  1  4  1  0
  1 24  1  0
  1  2  1  1
  1  3  2  0
 25 28  1  0
 25 24  1  0
 25 26  1  1
 25 27  2  0
  6 11  1  0
  6 12  1  0
 29 36  1  0
 29 37  1  0
  9  7  1  1
  7 13  1  0
 10  8  1  6
  8 14  1  0
  4  5  1  0
 36 28  1  6
 33 30  1  1
 30 38  1  0
 34 31  1  6
 31 39  1  0
 35 32  1  6
 32 40  1  0
 41 43  1  0
 15 19  2  0
 42 43  2  0
 16 22  2  0
 12 17  1  1
 17 19  1  0
 17 20  1  0
 18 19  1  0
 18 22  1  0
 18 23  1  0
  9 10  1  0
  9 11  1  0
 10 12  1  0
 11  5  1  1
 33 34  1  0
 33 35  1  0
 34 36  1  0
 35 37  1  0
 37 43  1  1
 20 21  2  0
 21 22  1  0
M  CHG  3   2  -1  26  -1  41  -1
M  END
>  <COMPND>  (146) 
    udp_gluA.pdb 

>  <AUTHOR>  (146) 
    GENERATED BY OPEN BABEL 3.1.1

>  <MASTER>  (146) 
        0    0    0    0    0    0    0    0   56    0   56    0

>  <minimizedAffinity>  (146) 
-6.76745

>  <CNNscore>  (146) 
0.6757779121

>  <CNNaffinity>  (146) 
4.3951735497

>  <CNN_VS>  (146) 
2.9701611996

>  <CNNaffinity_variance>  (146) 
0.3067135215

$$$$
147
     RDKit          3D

 43 45  0  0  0  0  0  0  0  0999 V2000
   21.1450   71.7961    1.3402 P   0  0  2  0  0  0  0  0  0  0  0  0
   21.6371   70.2633    1.1754 O   0  0  0  0  0  0  0  0  0  0  0  0
   20.5954   72.1432    2.6927 O   0  0  0  0  0  0  0  0  0  0  0  0
   20.1364   72.0165    0.0943 O   0  0  0  0  0  0  0  0  0  0  0  0
   20.6619   72.5201   -1.1201 C   0  0  0  0  0  0  0  0  0  0  0  0
   19.7467   70.4120   -1.8242 O   0  0  0  0  0  0  0  0  0  0  0  0
   21.1778   70.8688   -4.4194 O   0  0  0  0  0  0  0  0  0  0  0  0
   18.6117   71.5666   -5.0231 O   0  0  0  0  0  0  0  0  0  0  0  0
   20.5388   71.8142   -3.5612 C   0  0  1  0  0  0  0  0  0  0  0  0
   19.0340   71.6983   -3.6819 C   0  0  2  0  0  0  0  0  0  0  0  0
   20.7775   71.3785   -2.1219 C   0  0  1  0  0  0  0  0  0  0  0  0
   18.7458   70.4579   -2.8535 C   0  0  2  0  0  0  0  0  0  0  0  0
   21.0390   71.1262   -5.3447 H   0  0  0  0  0  0  0  0  0  0  0  0
   18.8170   72.3817   -5.5083 H   0  0  0  0  0  0  0  0  0  0  0  0
   17.2226   68.1722   -2.1965 O   0  0  0  0  0  0  0  0  0  0  0  0
   13.7788   70.7280   -0.5076 O   0  0  0  0  0  0  0  0  0  0  0  0
   17.4479   70.4972   -2.2413 N   0  0  0  0  0  0  0  0  0  0  0  0
   15.5084   69.4473   -1.3568 N   0  0  0  0  0  0  0  0  0  0  0  0
   16.7669   69.2910   -1.9526 C   0  0  0  0  0  0  0  0  0  0  0  0
   16.8637   71.7195   -1.9319 C   0  0  0  0  0  0  0  0  0  0  0  0
   15.6635   71.8525   -1.3640 C   0  0  0  0  0  0  0  0  0  0  0  0
   14.8856   70.6412   -1.0308 C   0  0  0  0  0  0  0  0  0  0  0  0
   15.0143   68.6217   -1.1484 H   0  0  0  0  0  0  0  0  0  0  0  0
   22.4502   72.6450    0.9056 O   0  0  0  0  0  0  0  0  0  0  0  0
   24.0184   72.4195    1.2272 P   0  0  2  0  0  0  0  0  0  0  0  0
   24.7068   73.7799    0.6833 O   0  0  0  0  0  0  0  0  0  0  0  0
   24.5918   71.1604    0.6441 O   0  0  0  0  0  0  0  0  0  0  0  0
   24.1259   72.5228    2.8335 O   0  0  0  0  0  0  0  0  0  0  0  0
   25.3958   70.7008    3.6561 O   0  0  0  0  0  0  0  0  0  0  0  0
   24.3198   72.6219    7.1518 O   0  0  0  0  0  0  0  0  0  0  0  0
   22.3842   72.2881    4.9893 O   0  0  0  0  0  0  0  0  0  0  0  0
   27.0269   72.8730    6.1224 O   0  0  0  0  0  0  0  0  0  0  0  0
   24.6685   72.5279    5.7706 C   0  0  2  0  0  0  0  0  0  0  0  0
   23.6524   71.6454    5.0452 C   0  0  2  0  0  0  0  0  0  0  0  0
   26.0680   71.9158    5.6768 C   0  0  1  0  0  0  0  0  0  0  0  0
   24.1161   71.3339    3.6216 C   0  0  1  0  0  0  0  0  0  0  0  0
   26.4067   71.5171    4.2433 C   0  0  1  0  0  0  0  0  0  0  0  0
   23.4339   73.0082    7.2362 H   0  0  0  0  0  0  0  0  0  0  0  0
   22.0840   72.4889    5.8892 H   0  0  0  0  0  0  0  0  0  0  0  0
   26.8226   73.1353    7.0337 H   0  0  0  0  0  0  0  0  0  0  0  0
   27.2788   69.3846    3.8036 O   0  0  0  0  0  0  0  0  0  0  0  0
   28.7458   70.9848    4.5012 O   0  0  0  0  0  0  0  0  0  0  0  0
   27.6121   70.6351    4.2088 C   0  0  0  0  0  0  0  0  0  0  0  0
  1  4  1  0
  1 24  1  0
  1  2  1  1
  1  3  2  0
 25 28  1  0
 25 24  1  0
 25 26  1  6
 25 27  2  0
  6 11  1  0
  6 12  1  0
 29 36  1  0
 29 37  1  0
  9  7  1  6
  7 13  1  0
 10  8  1  6
  8 14  1  0
  4  5  1  0
 36 28  1  6
 33 30  1  1
 30 38  1  0
 34 31  1  6
 31 39  1  0
 35 32  1  6
 32 40  1  0
 41 43  1  0
 15 19  2  0
 42 43  2  0
 16 22  2  0
 12 17  1  1
 17 19  1  0
 17 20  1  0
 18 19  1  0
 18 22  1  0
 18 23  1  0
  9 10  1  0
  9 11  1  0
 10 12  1  0
 11  5  1  1
 33 34  1  0
 33 35  1  0
 34 36  1  0
 35 37  1  0
 37 43  1  1
 20 21  2  0
 21 22  1  0
M  CHG  3   2  -1  26  -1  41  -1
M  END
>  <COMPND>  (147) 
    udp_gluA.pdb 

>  <AUTHOR>  (147) 
    GENERATED BY OPEN BABEL 3.1.1

>  <MASTER>  (147) 
        0    0    0    0    0    0    0    0   56    0   56    0

>  <minimizedAffinity>  (147) 
-7.13626

>  <CNNscore>  (147) 
0.6150580645

>  <CNNaffinity>  (147) 
4.1945934296

>  <CNN_VS>  (147) 
2.5799186230

>  <CNNaffinity_variance>  (147) 
0.1470090449

$$$$
148
     RDKit          3D

 43 45  0  0  0  0  0  0  0  0999 V2000
   23.1869   71.8610   -2.4649 P   0  0  2  0  0  0  0  0  0  0  0  0
   23.5739   73.3995   -2.1450 O   0  0  0  0  0  0  0  0  0  0  0  0
   24.2297   71.0890   -3.2186 O   0  0  0  0  0  0  0  0  0  0  0  0
   21.7379   71.9650   -3.1773 O   0  0  0  0  0  0  0  0  0  0  0  0
   21.5730   72.8816   -4.2437 C   0  0  0  0  0  0  0  0  0  0  0  0
   20.8823   70.8853   -5.3908 O   0  0  0  0  0  0  0  0  0  0  0  0
   21.4601   72.3687   -7.9319 O   0  0  0  0  0  0  0  0  0  0  0  0
   18.7456   72.5464   -7.7423 O   0  0  0  0  0  0  0  0  0  0  0  0
   20.9217   72.8570   -6.7030 C   0  0  1  0  0  0  0  0  0  0  0  0
   19.4839   72.4095   -6.5461 C   0  0  2  0  0  0  0  0  0  0  0  0
   21.6109   72.1202   -5.5626 C   0  0  1  0  0  0  0  0  0  0  0  0
   19.6491   70.9596   -6.1236 C   0  0  2  0  0  0  0  0  0  0  0  0
   21.0350   72.8248   -8.6754 H   0  0  0  0  0  0  0  0  0  0  0  0
   18.6681   73.4870   -7.9685 H   0  0  0  0  0  0  0  0  0  0  0  0
   17.1812   69.9695   -7.0751 O   0  0  0  0  0  0  0  0  0  0  0  0
   15.6104   69.2581   -2.8007 O   0  0  0  0  0  0  0  0  0  0  0  0
   18.5776   70.5088   -5.2813 N   0  0  0  0  0  0  0  0  0  0  0  0
   16.4008   69.6171   -4.9453 N   0  0  0  0  0  0  0  0  0  0  0  0
   17.3785   70.0299   -5.8601 C   0  0  0  0  0  0  0  0  0  0  0  0
   18.7205   70.5420   -3.8995 C   0  0  0  0  0  0  0  0  0  0  0  0
   17.7798   70.1451   -3.0404 C   0  0  0  0  0  0  0  0  0  0  0  0
   16.4966   69.6318   -3.5632 C   0  0  0  0  0  0  0  0  0  0  0  0
   15.5565   69.2816   -5.3245 H   0  0  0  0  0  0  0  0  0  0  0  0
   22.8320   71.2650   -1.0049 O   0  0  0  0  0  0  0  0  0  0  0  0
   21.7662   71.7508    0.1095 P   0  0  2  0  0  0  0  0  0  0  0  0
   20.6444   70.5841    0.0817 O   0  0  0  0  0  0  0  0  0  0  0  0
   21.2262   73.1333   -0.1162 O   0  0  0  0  0  0  0  0  0  0  0  0
   22.5269   71.5507    1.5180 O   0  0  0  0  0  0  0  0  0  0  0  0
   23.1825   73.3107    2.9608 O   0  0  0  0  0  0  0  0  0  0  0  0
   25.8277   70.3211    4.0256 O   0  0  0  0  0  0  0  0  0  0  0  0
   25.1882   70.8010    1.2157 O   0  0  0  0  0  0  0  0  0  0  0  0
   23.5756   70.9589    5.7495 O   0  0  0  0  0  0  0  0  0  0  0  0
   24.5893   70.8626    3.5660 C   0  0  2  0  0  0  0  0  0  0  0  0
   24.8252   71.6652    2.2863 C   0  0  2  0  0  0  0  0  0  0  0  0
   24.0314   71.7676    4.6667 C   0  0  1  0  0  0  0  0  0  0  0  0
   23.5715   72.4472    1.8920 C   0  0  1  0  0  0  0  0  0  0  0  0
   22.8624   72.6067    4.1587 C   0  0  1  0  0  0  0  0  0  0  0  0
   26.2012   69.7424    3.3423 H   0  0  0  0  0  0  0  0  0  0  0  0
   25.9829   70.3015    1.4592 H   0  0  0  0  0  0  0  0  0  0  0  0
   24.3101   70.4197    6.0820 H   0  0  0  0  0  0  0  0  0  0  0  0
   22.7723   74.9170    4.5534 O   0  0  0  0  0  0  0  0  0  0  0  0
   22.1269   73.5450    6.2564 O   0  0  0  0  0  0  0  0  0  0  0  0
   22.5420   73.7060    5.1185 C   0  0  0  0  0  0  0  0  0  0  0  0
  1  4  1  0
  1 24  1  0
  1  2  1  1
  1  3  2  0
 25 28  1  0
 25 24  1  0
 25 26  1  1
 25 27  2  0
  6 11  1  0
  6 12  1  0
 29 36  1  0
 29 37  1  0
  9  7  1  6
  7 13  1  0
 10  8  1  6
  8 14  1  0
  4  5  1  0
 36 28  1  1
 33 30  1  1
 30 38  1  0
 34 31  1  6
 31 39  1  0
 35 32  1  1
 32 40  1  0
 41 43  1  0
 15 19  2  0
 42 43  2  0
 16 22  2  0
 12 17  1  1
 17 19  1  0
 17 20  1  0
 18 19  1  0
 18 22  1  0
 18 23  1  0
  9 10  1  0
  9 11  1  0
 10 12  1  0
 11  5  1  1
 33 34  1  0
 33 35  1  0
 34 36  1  0
 35 37  1  0
 37 43  1  1
 20 21  2  0
 21 22  1  0
M  CHG  3   2  -1  26  -1  41  -1
M  END
>  <COMPND>  (148) 
    udp_gluA.pdb 

>  <AUTHOR>  (148) 
    GENERATED BY OPEN BABEL 3.1.1

>  <MASTER>  (148) 
        0    0    0    0    0    0    0    0   56    0   56    0

>  <minimizedAffinity>  (148) 
-8.02375

>  <CNNscore>  (148) 
0.5591551065

>  <CNNaffinity>  (148) 
4.1868200302

>  <CNN_VS>  (148) 
2.3410818577

>  <CNNaffinity_variance>  (148) 
0.2683809698

$$$$
149
     RDKit          3D

 43 45  0  0  0  0  0  0  0  0999 V2000
   20.8967   71.2846   -2.5654 P   0  0  2  0  0  0  0  0  0  0  0  0
   19.6199   70.8015   -1.6963 O   0  0  0  0  0  0  0  0  0  0  0  0
   21.6019   70.1931   -3.3159 O   0  0  0  0  0  0  0  0  0  0  0  0
   21.8012   72.1051   -1.5040 O   0  0  0  0  0  0  0  0  0  0  0  0
   22.5712   71.3760   -0.5659 C   0  0  0  0  0  0  0  0  0  0  0  0
   22.5855   70.5097    1.6762 O   0  0  0  0  0  0  0  0  0  0  0  0
   20.2798   72.3526    2.2043 O   0  0  0  0  0  0  0  0  0  0  0  0
   22.3835   73.7030    3.2937 O   0  0  0  0  0  0  0  0  0  0  0  0
   21.4260   72.5534    1.3770 C   0  0  1  0  0  0  0  0  0  0  0  0
   22.6495   72.8124    2.2303 C   0  0  2  0  0  0  0  0  0  0  0  0
   21.7707   71.2233    0.7211 C   0  0  1  0  0  0  0  0  0  0  0  0
   22.9997   71.4147    2.7119 C   0  0  2  0  0  0  0  0  0  0  0  0
   20.0404   73.1889    2.6342 H   0  0  0  0  0  0  0  0  0  0  0  0
   22.1662   74.5784    2.9355 H   0  0  0  0  0  0  0  0  0  0  0  0
   24.1565   70.8956    5.2355 O   0  0  0  0  0  0  0  0  0  0  0  0
   28.4127   70.8030    3.4690 O   0  0  0  0  0  0  0  0  0  0  0  0
   24.4075   71.2505    2.9400 N   0  0  0  0  0  0  0  0  0  0  0  0
   26.2753   70.8510    4.3535 N   0  0  0  0  0  0  0  0  0  0  0  0
   24.8855   70.9928    4.2466 C   0  0  0  0  0  0  0  0  0  0  0  0
   25.2978   71.3432    1.8771 C   0  0  0  0  0  0  0  0  0  0  0  0
   26.6199   71.2056    1.9946 C   0  0  0  0  0  0  0  0  0  0  0  0
   27.2009   70.9354    3.3260 C   0  0  0  0  0  0  0  0  0  0  0  0
   26.6319   70.6731    5.2538 H   0  0  0  0  0  0  0  0  0  0  0  0
   20.2803   72.4528   -3.4972 O   0  0  0  0  0  0  0  0  0  0  0  0
   20.8632   73.1715   -4.8229 P   0  0  2  0  0  0  0  0  0  0  0  0
   22.3102   72.4725   -5.0168 O   0  0  0  0  0  0  0  0  0  0  0  0
   20.9061   74.6701   -4.7425 O   0  0  0  0  0  0  0  0  0  0  0  0
   19.9655   72.5914   -6.0312 O   0  0  0  0  0  0  0  0  0  0  0  0
   19.0477   70.4143   -5.8665 O   0  0  0  0  0  0  0  0  0  0  0  0
   18.7206   71.1603   -9.9168 O   0  0  0  0  0  0  0  0  0  0  0  0
   21.1380   71.9181   -8.4619 O   0  0  0  0  0  0  0  0  0  0  0  0
   16.3696   71.3005   -8.2127 O   0  0  0  0  0  0  0  0  0  0  0  0
   18.7504   71.4926   -8.5287 C   0  0  2  0  0  0  0  0  0  0  0  0
   20.1027   71.0955   -7.9363 C   0  0  2  0  0  0  0  0  0  0  0  0
   17.6204   70.7283   -7.8352 C   0  0  1  0  0  0  0  0  0  0  0  0
   20.0909   71.2225   -6.4123 C   0  0  1  0  0  0  0  0  0  0  0  0
   17.7504   70.7989   -6.3164 C   0  0  1  0  0  0  0  0  0  0  0  0
   19.4303   71.6344  -10.3782 H   0  0  0  0  0  0  0  0  0  0  0  0
   21.1510   71.8426   -9.4286 H   0  0  0  0  0  0  0  0  0  0  0  0
   16.2744   71.2620   -9.1772 H   0  0  0  0  0  0  0  0  0  0  0  0
   16.2990   68.9759   -6.5843 O   0  0  0  0  0  0  0  0  0  0  0  0
   16.6540   69.7191   -4.4581 O   0  0  0  0  0  0  0  0  0  0  0  0
   16.8572   69.7968   -5.6604 C   0  0  0  0  0  0  0  0  0  0  0  0
  1  4  1  0
  1 24  1  0
  1  2  1  1
  1  3  2  0
 25 28  1  0
 25 24  1  0
 25 26  1  6
 25 27  2  0
  6 11  1  0
  6 12  1  0
 29 36  1  0
 29 37  1  0
  9  7  1  1
  7 13  1  0
 10  8  1  1
  8 14  1  0
  4  5  1  0
 36 28  1  6
 33 30  1  6
 30 38  1  0
 34 31  1  6
 31 39  1  0
 35 32  1  1
 32 40  1  0
 41 43  1  0
 15 19  2  0
 42 43  2  0
 16 22  2  0
 12 17  1  6
 17 19  1  0
 17 20  1  0
 18 19  1  0
 18 22  1  0
 18 23  1  0
  9 10  1  0
  9 11  1  0
 10 12  1  0
 11  5  1  6
 33 34  1  0
 33 35  1  0
 34 36  1  0
 35 37  1  0
 37 43  1  1
 20 21  2  0
 21 22  1  0
M  CHG  3   2  -1  26  -1  41  -1
M  END
>  <COMPND>  (149) 
    udp_gluA.pdb 

>  <AUTHOR>  (149) 
    GENERATED BY OPEN BABEL 3.1.1

>  <MASTER>  (149) 
        0    0    0    0    0    0    0    0   56    0   56    0

>  <minimizedAffinity>  (149) 
-7.52913

>  <CNNscore>  (149) 
0.5510444045

>  <CNNaffinity>  (149) 
4.2307128906

>  <CNN_VS>  (149) 
2.3313107491

>  <CNNaffinity_variance>  (149) 
0.1281861067

$$$$
150
     RDKit          3D

 43 45  0  0  0  0  0  0  0  0999 V2000
   23.4701   72.2904   -3.1952 P   0  0  2  0  0  0  0  0  0  0  0  0
   24.2759   73.0042   -4.4035 O   0  0  0  0  0  0  0  0  0  0  0  0
   24.2299   71.2152   -2.4752 O   0  0  0  0  0  0  0  0  0  0  0  0
   22.0765   71.8302   -3.8762 O   0  0  0  0  0  0  0  0  0  0  0  0
   21.5299   72.6327   -4.9065 C   0  0  0  0  0  0  0  0  0  0  0  0
   20.6766   70.6066   -5.8782 O   0  0  0  0  0  0  0  0  0  0  0  0
   21.0762   71.9334   -8.5374 O   0  0  0  0  0  0  0  0  0  0  0  0
   18.3961   72.2213   -8.1246 O   0  0  0  0  0  0  0  0  0  0  0  0
   20.6642   72.5045   -7.2954 C   0  0  1  0  0  0  0  0  0  0  0  0
   19.2320   72.1195   -6.9908 C   0  0  2  0  0  0  0  0  0  0  0  0
   21.4269   71.8030   -6.1798 C   0  0  1  0  0  0  0  0  0  0  0  0
   19.3867   70.6884   -6.5050 C   0  0  2  0  0  0  0  0  0  0  0  0
   20.6022   72.3658   -9.2655 H   0  0  0  0  0  0  0  0  0  0  0  0
   18.3295   73.1511   -8.3947 H   0  0  0  0  0  0  0  0  0  0  0  0
   16.8158   69.7369   -7.1844 O   0  0  0  0  0  0  0  0  0  0  0  0
   15.6032   69.3131   -2.7579 O   0  0  0  0  0  0  0  0  0  0  0  0
   18.3795   70.3220   -5.5500 N   0  0  0  0  0  0  0  0  0  0  0  0
   16.2139   69.5277   -4.9791 N   0  0  0  0  0  0  0  0  0  0  0  0
   17.1202   69.8556   -5.9960 C   0  0  0  0  0  0  0  0  0  0  0  0
   18.6435   70.4245   -4.1896 C   0  0  0  0  0  0  0  0  0  0  0  0
   17.7696   70.1081   -3.2320 C   0  0  0  0  0  0  0  0  0  0  0  0
   16.4304   69.6134   -3.6133 C   0  0  0  0  0  0  0  0  0  0  0  0
   15.3298   69.2026   -5.2651 H   0  0  0  0  0  0  0  0  0  0  0  0
   23.0269   73.5379   -2.2678 O   0  0  0  0  0  0  0  0  0  0  0  0
   23.9080   74.6468   -1.4883 P   0  0  2  0  0  0  0  0  0  0  0  0
   22.7913   75.6626   -0.9038 O   0  0  0  0  0  0  0  0  0  0  0  0
   24.9593   75.3042   -2.3347 O   0  0  0  0  0  0  0  0  0  0  0  0
   24.4782   73.8778   -0.1899 O   0  0  0  0  0  0  0  0  0  0  0  0
   22.7678   73.3211    1.3508 O   0  0  0  0  0  0  0  0  0  0  0  0
   26.1655   72.2548    3.4452 O   0  0  0  0  0  0  0  0  0  0  0  0
   26.0927   74.7366    1.9058 O   0  0  0  0  0  0  0  0  0  0  0  0
   24.4946   70.2068    2.2349 O   0  0  0  0  0  0  0  0  0  0  0  0
   25.3596   72.4550    2.2840 C   0  0  2  0  0  0  0  0  0  0  0  0
   24.9572   73.9268    2.1879 C   0  0  2  0  0  0  0  0  0  0  0  0
   24.1172   71.5708    2.4125 C   0  0  1  0  0  0  0  0  0  0  0  0
   23.9107   74.1375    1.0928 C   0  0  1  0  0  0  0  0  0  0  0  0
   23.0687   71.9274    1.3626 C   0  0  1  0  0  0  0  0  0  0  0  0
   26.9611   72.8068    3.3860 H   0  0  0  0  0  0  0  0  0  0  0  0
   26.7609   74.6076    2.5966 H   0  0  0  0  0  0  0  0  0  0  0  0
   25.1618   69.9671    2.8970 H   0  0  0  0  0  0  0  0  0  0  0  0
   21.6331   70.0918    1.0954 O   0  0  0  0  0  0  0  0  0  0  0  0
   20.8971   71.8056    2.4069 O   0  0  0  0  0  0  0  0  0  0  0  0
   21.7525   71.3028    1.6939 C   0  0  0  0  0  0  0  0  0  0  0  0
  1  4  1  0
  1 24  1  0
  1  2  1  6
  1  3  2  0
 25 28  1  0
 25 24  1  0
 25 26  1  1
 25 27  2  0
  6 11  1  0
  6 12  1  0
 29 36  1  0
 29 37  1  0
  9  7  1  6
  7 13  1  0
 10  8  1  6
  8 14  1  0
  4  5  1  0
 36 28  1  6
 33 30  1  1
 30 38  1  0
 34 31  1  6
 31 39  1  0
 35 32  1  6
 32 40  1  0
 41 43  1  0
 15 19  2  0
 42 43  2  0
 16 22  2  0
 12 17  1  1
 17 19  1  0
 17 20  1  0
 18 19  1  0
 18 22  1  0
 18 23  1  0
  9 10  1  0
  9 11  1  0
 10 12  1  0
 11  5  1  1
 33 34  1  0
 33 35  1  0
 34 36  1  0
 35 37  1  0
 37 43  1  1
 20 21  2  0
 21 22  1  0
M  CHG  3   2  -1  26  -1  41  -1
M  END
>  <COMPND>  (150) 
    udp_gluA.pdb 

>  <AUTHOR>  (150) 
    GENERATED BY OPEN BABEL 3.1.1

>  <MASTER>  (150) 
        0    0    0    0    0    0    0    0   56    0   56    0

>  <minimizedAffinity>  (150) 
-7.85473

>  <CNNscore>  (150) 
0.5397791266

>  <CNNaffinity>  (150) 
4.3082056046

>  <CNN_VS>  (150) 
2.3254795074

>  <CNNaffinity_variance>  (150) 
0.2578557730

$$$$
151
     RDKit          3D

 43 45  0  0  0  0  0  0  0  0999 V2000
   14.6050   71.5379   -2.1168 P   0  0  2  0  0  0  0  0  0  0  0  0
   14.0743   72.4089   -3.3731 O   0  0  0  0  0  0  0  0  0  0  0  0
   15.3071   72.3266   -1.0505 O   0  0  0  0  0  0  0  0  0  0  0  0
   15.4717   70.3559   -2.8020 O   0  0  0  0  0  0  0  0  0  0  0  0
   16.3627   70.6912   -3.8499 C   0  0  0  0  0  0  0  0  0  0  0  0
   18.5334   69.8651   -4.4693 O   0  0  0  0  0  0  0  0  0  0  0  0
   19.5848   71.4076   -2.1227 O   0  0  0  0  0  0  0  0  0  0  0  0
   20.2017   73.0293   -4.2264 O   0  0  0  0  0  0  0  0  0  0  0  0
   18.5276   71.7407   -3.0226 C   0  0  1  0  0  0  0  0  0  0  0  0
   19.0931   72.1648   -4.3615 C   0  0  2  0  0  0  0  0  0  0  0  0
   17.7924   70.4561   -3.3798 C   0  0  1  0  0  0  0  0  0  0  0  0
   19.4649   70.8298   -4.9840 C   0  0  2  0  0  0  0  0  0  0  0  0
   20.0691   72.2128   -1.8801 H   0  0  0  0  0  0  0  0  0  0  0  0
   19.9132   73.8649   -3.8260 H   0  0  0  0  0  0  0  0  0  0  0  0
   21.4976   71.7808   -6.6988 O   0  0  0  0  0  0  0  0  0  0  0  0
   19.0065   70.8549  -10.4645 O   0  0  0  0  0  0  0  0  0  0  0  0
   19.3739   70.8488   -6.4165 N   0  0  0  0  0  0  0  0  0  0  0  0
   20.2545   71.3197   -8.5727 N   0  0  0  0  0  0  0  0  0  0  0  0
   20.4516   71.3475   -7.1858 C   0  0  0  0  0  0  0  0  0  0  0  0
   18.2283   70.3759   -7.0450 C   0  0  0  0  0  0  0  0  0  0  0  0
   18.0551   70.3556   -8.3680 C   0  0  0  0  0  0  0  0  0  0  0  0
   19.1331   70.8597   -9.2438 C   0  0  0  0  0  0  0  0  0  0  0  0
   20.9903   71.6637   -9.1290 H   0  0  0  0  0  0  0  0  0  0  0  0
   13.2727   70.7698   -1.6190 O   0  0  0  0  0  0  0  0  0  0  0  0
   12.1860   71.1555   -0.4858 P   0  0  2  0  0  0  0  0  0  0  0  0
   10.9752   71.8063   -1.3408 O   0  0  0  0  0  0  0  0  0  0  0  0
   12.7195   72.0406    0.6032 O   0  0  0  0  0  0  0  0  0  0  0  0
   11.6078   69.7390    0.0257 O   0  0  0  0  0  0  0  0  0  0  0  0
   12.9453   67.8265    0.4287 O   0  0  0  0  0  0  0  0  0  0  0  0
    9.2373   66.1330   -0.2426 O   0  0  0  0  0  0  0  0  0  0  0  0
   10.1811   68.3393   -1.9086 O   0  0  0  0  0  0  0  0  0  0  0  0
   10.2873   66.3216    2.4616 O   0  0  0  0  0  0  0  0  0  0  0  0
   10.1505   67.1376    0.1988 C   0  0  2  0  0  0  0  0  0  0  0  0
   10.9899   67.6213   -0.9839 C   0  0  2  0  0  0  0  0  0  0  0  0
   11.0495   66.5206    1.2726 C   0  0  1  0  0  0  0  0  0  0  0  0
   12.1297   68.5254   -0.5124 C   0  0  1  0  0  0  0  0  0  0  0  0
   12.2324   67.4281    1.5976 C   0  0  1  0  0  0  0  0  0  0  0  0
    8.6555   66.5022   -0.9256 H   0  0  0  0  0  0  0  0  0  0  0  0
    9.4557   67.7717   -2.2117 H   0  0  0  0  0  0  0  0  0  0  0  0
    9.5311   65.7457    2.2684 H   0  0  0  0  0  0  0  0  0  0  0  0
   14.4985   67.2096    2.1620 O   0  0  0  0  0  0  0  0  0  0  0  0
   13.0394   65.7512    3.1332 O   0  0  0  0  0  0  0  0  0  0  0  0
   13.2657   66.6910    2.3858 C   0  0  0  0  0  0  0  0  0  0  0  0
  1  4  1  0
  1 24  1  0
  1  2  1  6
  1  3  2  0
 25 28  1  0
 25 24  1  0
 25 26  1  6
 25 27  2  0
  6 11  1  0
  6 12  1  0
 29 36  1  0
 29 37  1  0
  9  7  1  1
  7 13  1  0
 10  8  1  1
  8 14  1  0
  4  5  1  0
 36 28  1  1
 33 30  1  6
 30 38  1  0
 34 31  1  6
 31 39  1  0
 35 32  1  1
 32 40  1  0
 41 43  1  0
 15 19  2  0
 42 43  2  0
 16 22  2  0
 12 17  1  6
 17 19  1  0
 17 20  1  0
 18 19  1  0
 18 22  1  0
 18 23  1  0
  9 10  1  0
  9 11  1  0
 10 12  1  0
 11  5  1  6
 33 34  1  0
 33 35  1  0
 34 36  1  0
 35 37  1  0
 37 43  1  1
 20 21  2  0
 21 22  1  0
M  CHG  3   2  -1  26  -1  41  -1
M  END
>  <COMPND>  (151) 
    udp_gluA.pdb 

>  <AUTHOR>  (151) 
    GENERATED BY OPEN BABEL 3.1.1

>  <MASTER>  (151) 
        0    0    0    0    0    0    0    0   56    0   56    0

>  <minimizedAffinity>  (151) 
-6.57944

>  <CNNscore>  (151) 
0.5207547545

>  <CNNaffinity>  (151) 
4.3296432495

>  <CNN_VS>  (151) 
2.2546823025

>  <CNNaffinity_variance>  (151) 
0.0680949390

$$$$
152
     RDKit          3D

 43 45  0  0  0  0  0  0  0  0999 V2000
   20.5928   72.2066   -0.1426 P   0  0  2  0  0  0  0  0  0  0  0  0
   20.5716   70.6196    0.1736 O   0  0  0  0  0  0  0  0  0  0  0  0
   19.8256   73.0562    0.8275 O   0  0  0  0  0  0  0  0  0  0  0  0
   20.1193   72.3014   -1.6869 O   0  0  0  0  0  0  0  0  0  0  0  0
   19.9235   71.0994   -2.4090 C   0  0  0  0  0  0  0  0  0  0  0  0
   20.6343   70.1362   -4.4934 O   0  0  0  0  0  0  0  0  0  0  0  0
   23.0108   71.9554   -4.3101 O   0  0  0  0  0  0  0  0  0  0  0  0
   21.4004   73.2560   -6.0852 O   0  0  0  0  0  0  0  0  0  0  0  0
   21.6594   72.1916   -3.9145 C   0  0  1  0  0  0  0  0  0  0  0  0
   20.7877   72.4125   -5.1325 C   0  0  2  0  0  0  0  0  0  0  0  0
   21.1000   70.8911   -3.3539 C   0  0  1  0  0  0  0  0  0  0  0  0
   20.5957   70.9950   -5.6442 C   0  0  2  0  0  0  0  0  0  0  0  0
   23.3897   72.7724   -4.6716 H   0  0  0  0  0  0  0  0  0  0  0  0
   21.5002   74.1464   -5.7119 H   0  0  0  0  0  0  0  0  0  0  0  0
   20.3206   70.0801   -8.3019 O   0  0  0  0  0  0  0  0  0  0  0  0
   15.7239   70.3628   -8.1166 O   0  0  0  0  0  0  0  0  0  0  0  0
   19.3388   70.8203   -6.3153 N   0  0  0  0  0  0  0  0  0  0  0  0
   18.0315   70.2227   -8.2075 N   0  0  0  0  0  0  0  0  0  0  0  0
   19.3106   70.3553   -7.6514 C   0  0  0  0  0  0  0  0  0  0  0  0
   18.1522   71.1064   -5.6511 C   0  0  0  0  0  0  0  0  0  0  0  0
   16.9404   70.9750   -6.1943 C   0  0  0  0  0  0  0  0  0  0  0  0
   16.8230   70.4954   -7.5870 C   0  0  0  0  0  0  0  0  0  0  0  0
   17.9865   69.9025   -9.1374 H   0  0  0  0  0  0  0  0  0  0  0  0
   22.1726   72.5389   -0.2259 O   0  0  0  0  0  0  0  0  0  0  0  0
   23.0249   73.7913    0.3386 P   0  0  2  0  0  0  0  0  0  0  0  0
   21.9323   74.9839    0.4018 O   0  0  0  0  0  0  0  0  0  0  0  0
   24.2492   74.1162   -0.4674 O   0  0  0  0  0  0  0  0  0  0  0  0
   23.3174   73.4249    1.8822 O   0  0  0  0  0  0  0  0  0  0  0  0
   23.8579   71.2715    2.7070 O   0  0  0  0  0  0  0  0  0  0  0  0
   22.1947   73.0560    6.0414 O   0  0  0  0  0  0  0  0  0  0  0  0
   20.9906   73.4295    3.4060 O   0  0  0  0  0  0  0  0  0  0  0  0
   25.0756   72.7159    5.8523 O   0  0  0  0  0  0  0  0  0  0  0  0
   22.9218   73.0106    4.8136 C   0  0  2  0  0  0  0  0  0  0  0  0
   22.0143   72.4861    3.7006 C   0  0  2  0  0  0  0  0  0  0  0  0
   24.1196   72.0782    5.0075 C   0  0  1  0  0  0  0  0  0  0  0  0
   22.8150   72.2065    2.4280 C   0  0  1  0  0  0  0  0  0  0  0  0
   24.7889   71.7469    3.6767 C   0  0  1  0  0  0  0  0  0  0  0  0
   21.4285   73.6428    5.9421 H   0  0  0  0  0  0  0  0  0  0  0  0
   20.4787   73.6118    4.2092 H   0  0  0  0  0  0  0  0  0  0  0  0
   24.6623   72.9322    6.7027 H   0  0  0  0  0  0  0  0  0  0  0  0
   25.3422   69.5541    3.0549 O   0  0  0  0  0  0  0  0  0  0  0  0
   26.7200   70.5913    4.5465 O   0  0  0  0  0  0  0  0  0  0  0  0
   25.7314   70.5976    3.8285 C   0  0  0  0  0  0  0  0  0  0  0  0
  1  4  1  0
  1 24  1  0
  1  2  1  1
  1  3  2  0
 25 28  1  0
 25 24  1  0
 25 26  1  1
 25 27  2  0
  6 11  1  0
  6 12  1  0
 29 36  1  0
 29 37  1  0
  9  7  1  6
  7 13  1  0
 10  8  1  6
  8 14  1  0
  4  5  1  0
 36 28  1  1
 33 30  1  1
 30 38  1  0
 34 31  1  6
 31 39  1  0
 35 32  1  1
 32 40  1  0
 41 43  1  0
 15 19  2  0
 42 43  2  0
 16 22  2  0
 12 17  1  1
 17 19  1  0
 17 20  1  0
 18 19  1  0
 18 22  1  0
 18 23  1  0
  9 10  1  0
  9 11  1  0
 10 12  1  0
 11  5  1  1
 33 34  1  0
 33 35  1  0
 34 36  1  0
 35 37  1  0
 37 43  1  1
 20 21  2  0
 21 22  1  0
M  CHG  3   2  -1  26  -1  41  -1
M  END
>  <COMPND>  (152) 
    udp_gluA.pdb 

>  <AUTHOR>  (152) 
    GENERATED BY OPEN BABEL 3.1.1

>  <MASTER>  (152) 
        0    0    0    0    0    0    0    0   56    0   56    0

>  <minimizedAffinity>  (152) 
-6.88958

>  <CNNscore>  (152) 
0.5001043677

>  <CNNaffinity>  (152) 
4.1143360138

>  <CNN_VS>  (152) 
2.0575973988

>  <CNNaffinity_variance>  (152) 
0.0977849066

$$$$
153
     RDKit          3D

 43 45  0  0  0  0  0  0  0  0999 V2000
   23.1111   71.8391   -2.5422 P   0  0  2  0  0  0  0  0  0  0  0  0
   23.4579   73.3520   -2.0844 O   0  0  0  0  0  0  0  0  0  0  0  0
   24.1940   71.1477   -3.3175 O   0  0  0  0  0  0  0  0  0  0  0  0
   21.6864   71.9783   -3.2964 O   0  0  0  0  0  0  0  0  0  0  0  0
   21.5808   72.8829   -4.3804 C   0  0  0  0  0  0  0  0  0  0  0  0
   20.8939   70.8660   -5.4929 O   0  0  0  0  0  0  0  0  0  0  0  0
   21.4668   72.3072   -8.0592 O   0  0  0  0  0  0  0  0  0  0  0  0
   18.7521   72.4821   -7.8709 O   0  0  0  0  0  0  0  0  0  0  0  0
   20.9281   72.8151   -6.8384 C   0  0  1  0  0  0  0  0  0  0  0  0
   19.4914   72.3672   -6.6731 C   0  0  2  0  0  0  0  0  0  0  0  0
   21.6196   72.0994   -5.6861 C   0  0  1  0  0  0  0  0  0  0  0  0
   19.6601   70.9251   -6.2261 C   0  0  2  0  0  0  0  0  0  0  0  0
   21.0402   72.7497   -8.8101 H   0  0  0  0  0  0  0  0  0  0  0  0
   18.6723   73.4186   -8.1130 H   0  0  0  0  0  0  0  0  0  0  0  0
   17.1634   69.9897   -7.1579 O   0  0  0  0  0  0  0  0  0  0  0  0
   15.6287   69.2674   -2.8722 O   0  0  0  0  0  0  0  0  0  0  0  0
   18.5900   70.4863   -5.3756 N   0  0  0  0  0  0  0  0  0  0  0  0
   16.4011   69.6318   -5.0225 N   0  0  0  0  0  0  0  0  0  0  0  0
   17.3757   70.0351   -5.9447 C   0  0  0  0  0  0  0  0  0  0  0  0
   18.7494   70.5039   -3.9953 C   0  0  0  0  0  0  0  0  0  0  0  0
   17.8113   70.1163   -3.1289 C   0  0  0  0  0  0  0  0  0  0  0  0
   16.5129   69.6318   -3.6415 C   0  0  0  0  0  0  0  0  0  0  0  0
   15.5463   69.3156   -5.3950 H   0  0  0  0  0  0  0  0  0  0  0  0
   22.7161   71.1200   -1.1494 O   0  0  0  0  0  0  0  0  0  0  0  0
   22.0494   71.7122    0.1991 P   0  0  2  0  0  0  0  0  0  0  0  0
   21.2614   70.4381    0.8124 O   0  0  0  0  0  0  0  0  0  0  0  0
   21.1903   72.9239   -0.0195 O   0  0  0  0  0  0  0  0  0  0  0  0
   23.2914   71.9441    1.2021 O   0  0  0  0  0  0  0  0  0  0  0  0
   24.1203   70.7339    3.0615 O   0  0  0  0  0  0  0  0  0  0  0  0
   24.7182   74.6401    4.2665 O   0  0  0  0  0  0  0  0  0  0  0  0
   22.2454   73.8692    2.9155 O   0  0  0  0  0  0  0  0  0  0  0  0
   26.9652   73.0310    3.3650 O   0  0  0  0  0  0  0  0  0  0  0  0
   24.6161   73.5658    3.3320 C   0  0  2  0  0  0  0  0  0  0  0  0
   23.2172   72.9534    3.4070 C   0  0  2  0  0  0  0  0  0  0  0  0
   25.6744   72.5215    3.6946 C   0  0  1  0  0  0  0  0  0  0  0  0
   23.1411   71.6615    2.5921 C   0  0  1  0  0  0  0  0  0  0  0  0
   25.4551   71.2181    2.9319 C   0  0  1  0  0  0  0  0  0  0  0  0
   24.0550   75.3162    4.0559 H   0  0  0  0  0  0  0  0  0  0  0  0
   22.2882   74.6914    3.4279 H   0  0  0  0  0  0  0  0  0  0  0  0
   27.1172   73.8608    3.8438 H   0  0  0  0  0  0  0  0  0  0  0  0
   27.5921   70.3231    3.2976 O   0  0  0  0  0  0  0  0  0  0  0  0
   25.8189   69.1540    4.1271 O   0  0  0  0  0  0  0  0  0  0  0  0
   26.2711   70.1144    3.5221 C   0  0  0  0  0  0  0  0  0  0  0  0
  1  4  1  0
  1 24  1  0
  1  2  1  1
  1  3  2  0
 25 28  1  0
 25 24  1  0
 25 26  1  1
 25 27  2  0
  6 11  1  0
  6 12  1  0
 29 36  1  0
 29 37  1  0
  9  7  1  6
  7 13  1  0
 10  8  1  6
  8 14  1  0
  4  5  1  0
 36 28  1  6
 33 30  1  1
 30 38  1  0
 34 31  1  6
 31 39  1  0
 35 32  1  6
 32 40  1  0
 41 43  1  0
 15 19  2  0
 42 43  2  0
 16 22  2  0
 12 17  1  1
 17 19  1  0
 17 20  1  0
 18 19  1  0
 18 22  1  0
 18 23  1  0
  9 10  1  0
  9 11  1  0
 10 12  1  0
 11  5  1  1
 33 34  1  0
 33 35  1  0
 34 36  1  0
 35 37  1  0
 37 43  1  1
 20 21  2  0
 21 22  1  0
M  CHG  3   2  -1  26  -1  41  -1
M  END
>  <COMPND>  (153) 
    udp_gluA.pdb 

>  <AUTHOR>  (153) 
    GENERATED BY OPEN BABEL 3.1.1

>  <MASTER>  (153) 
        0    0    0    0    0    0    0    0   56    0   56    0

>  <minimizedAffinity>  (153) 
-7.81371

>  <CNNscore>  (153) 
0.4967681468

>  <CNNaffinity>  (153) 
4.1465196609

>  <CNN_VS>  (153) 
2.0598587990

>  <CNNaffinity_variance>  (153) 
0.1363729537

$$$$
154
     RDKit          3D

 43 45  0  0  0  0  0  0  0  0999 V2000
   20.2043   75.6388   -2.6838 P   0  0  2  0  0  0  0  0  0  0  0  0
   19.5714   75.4630   -1.2048 O   0  0  0  0  0  0  0  0  0  0  0  0
   20.5675   77.0469   -3.0542 O   0  0  0  0  0  0  0  0  0  0  0  0
   19.1331   74.9112   -3.6538 O   0  0  0  0  0  0  0  0  0  0  0  0
   19.5341   73.7454   -4.3500 C   0  0  0  0  0  0  0  0  0  0  0  0
   18.0142   71.9472   -4.8338 O   0  0  0  0  0  0  0  0  0  0  0  0
   19.0083   70.6749   -2.3070 O   0  0  0  0  0  0  0  0  0  0  0  0
   20.3741   69.3151   -4.2362 O   0  0  0  0  0  0  0  0  0  0  0  0
   19.7227   71.4494   -3.2705 C   0  0  1  0  0  0  0  0  0  0  0  0
   19.9625   70.6351   -4.5241 C   0  0  2  0  0  0  0  0  0  0  0  0
   18.7934   72.5449   -3.7751 C   0  0  1  0  0  0  0  0  0  0  0  0
   18.6032   70.6894   -5.2003 C   0  0  2  0  0  0  0  0  0  0  0  0
   19.5818   69.9683   -1.9701 H   0  0  0  0  0  0  0  0  0  0  0  0
   21.2444   69.3342   -3.8070 H   0  0  0  0  0  0  0  0  0  0  0  0
   16.5861   69.6553   -6.8850 O   0  0  0  0  0  0  0  0  0  0  0  0
   19.0814   70.4652  -10.6747 O   0  0  0  0  0  0  0  0  0  0  0  0
   18.6996   70.6181   -6.6308 N   0  0  0  0  0  0  0  0  0  0  0  0
   17.8312   70.0587   -8.7708 N   0  0  0  0  0  0  0  0  0  0  0  0
   17.6295   70.0805   -7.3845 C   0  0  0  0  0  0  0  0  0  0  0  0
   19.8427   71.0787   -7.2728 C   0  0  0  0  0  0  0  0  0  0  0  0
   20.0204   71.0515   -8.5951 C   0  0  0  0  0  0  0  0  0  0  0  0
   18.9505   70.5045   -9.4550 C   0  0  0  0  0  0  0  0  0  0  0  0
   17.1008   69.6870   -9.3163 H   0  0  0  0  0  0  0  0  0  0  0  0
   21.4459   74.6039   -2.6726 O   0  0  0  0  0  0  0  0  0  0  0  0
   22.8263   74.6113   -1.8310 P   0  0  2  0  0  0  0  0  0  0  0  0
   23.0415   76.1784   -1.4871 O   0  0  0  0  0  0  0  0  0  0  0  0
   23.9833   73.9692   -2.5402 O   0  0  0  0  0  0  0  0  0  0  0  0
   22.4474   73.9326   -0.4174 O   0  0  0  0  0  0  0  0  0  0  0  0
   23.6151   71.9756    0.2275 O   0  0  0  0  0  0  0  0  0  0  0  0
   20.4170   71.9466    2.8428 O   0  0  0  0  0  0  0  0  0  0  0  0
   20.0255   72.6411    0.0323 O   0  0  0  0  0  0  0  0  0  0  0  0
   23.0554   72.7372    3.7728 O   0  0  0  0  0  0  0  0  0  0  0  0
   21.4188   72.5386    2.0158 C   0  0  2  0  0  0  0  0  0  0  0  0
   21.2209   72.0862    0.5688 C   0  0  2  0  0  0  0  0  0  0  0  0
   22.7865   72.0864    2.5324 C   0  0  1  0  0  0  0  0  0  0  0  0
   22.4027   72.5114   -0.3038 C   0  0  1  0  0  0  0  0  0  0  0  0
   23.8978   72.4363    1.5470 C   0  0  1  0  0  0  0  0  0  0  0  0
   19.5391   72.2198    2.5333 H   0  0  0  0  0  0  0  0  0  0  0  0
   19.2715   72.3755    0.5813 H   0  0  0  0  0  0  0  0  0  0  0  0
   22.3552   72.5228    4.4089 H   0  0  0  0  0  0  0  0  0  0  0  0
   25.3788   70.6940    1.0250 O   0  0  0  0  0  0  0  0  0  0  0  0
   25.8983   71.9973    2.8224 O   0  0  0  0  0  0  0  0  0  0  0  0
   25.1593   71.7137    1.8916 C   0  0  0  0  0  0  0  0  0  0  0  0
  1  4  1  0
  1 24  1  0
  1  2  1  1
  1  3  2  0
 25 28  1  0
 25 24  1  0
 25 26  1  1
 25 27  2  0
  6 11  1  0
  6 12  1  0
 29 36  1  0
 29 37  1  0
  9  7  1  1
  7 13  1  0
 10  8  1  1
  8 14  1  0
  4  5  1  0
 36 28  1  1
 33 30  1  1
 30 38  1  0
 34 31  1  6
 31 39  1  0
 35 32  1  1
 32 40  1  0
 41 43  1  0
 15 19  2  0
 42 43  2  0
 16 22  2  0
 12 17  1  6
 17 19  1  0
 17 20  1  0
 18 19  1  0
 18 22  1  0
 18 23  1  0
  9 10  1  0
  9 11  1  0
 10 12  1  0
 11  5  1  6
 33 34  1  0
 33 35  1  0
 34 36  1  0
 35 37  1  0
 37 43  1  1
 20 21  2  0
 21 22  1  0
M  CHG  3   2  -1  26  -1  41  -1
M  END
>  <COMPND>  (154) 
    udp_gluA.pdb 

>  <AUTHOR>  (154) 
    GENERATED BY OPEN BABEL 3.1.1

>  <MASTER>  (154) 
        0    0    0    0    0    0    0    0   56    0   56    0

>  <minimizedAffinity>  (154) 
-6.19011

>  <CNNscore>  (154) 
0.4933747947

>  <CNNaffinity>  (154) 
4.1632957458

>  <CNN_VS>  (154) 
2.0540652275

>  <CNNaffinity_variance>  (154) 
0.1248148531

$$$$
155
     RDKit          3D

 43 45  0  0  0  0  0  0  0  0999 V2000
   22.2316   71.4050    0.3928 P   0  0  2  0  0  0  0  0  0  0  0  0
   21.7014   70.1645    1.2865 O   0  0  0  0  0  0  0  0  0  0  0  0
   23.6008   71.2235   -0.1940 O   0  0  0  0  0  0  0  0  0  0  0  0
   22.0465   72.6883    1.3607 O   0  0  0  0  0  0  0  0  0  0  0  0
   23.0697   72.9850    2.2932 C   0  0  0  0  0  0  0  0  0  0  0  0
   23.5276   71.3515    3.9959 O   0  0  0  0  0  0  0  0  0  0  0  0
   21.9649   73.1171    5.8485 O   0  0  0  0  0  0  0  0  0  0  0  0
   24.5465   73.7145    6.4923 O   0  0  0  0  0  0  0  0  0  0  0  0
   22.8382   73.4783    4.7782 C   0  0  1  0  0  0  0  0  0  0  0  0
   24.2808   73.2591    5.1822 C   0  0  2  0  0  0  0  0  0  0  0  0
   22.6611   72.4575    3.6625 C   0  0  1  0  0  0  0  0  0  0  0  0
   24.4207   71.7524    5.0472 C   0  0  2  0  0  0  0  0  0  0  0  0
   22.0603   73.7551    6.5734 H   0  0  0  0  0  0  0  0  0  0  0  0
   24.4445   74.6791    6.5263 H   0  0  0  0  0  0  0  0  0  0  0  0
   25.0557   69.8643    3.0451 O   0  0  0  0  0  0  0  0  0  0  0  0
   29.5797   70.3036    3.8093 O   0  0  0  0  0  0  0  0  0  0  0  0
   25.7563   71.3548    4.7023 N   0  0  0  0  0  0  0  0  0  0  0  0
   27.3083   70.0841    3.4283 N   0  0  0  0  0  0  0  0  0  0  0  0
   25.9664   70.3981    3.6811 C   0  0  0  0  0  0  0  0  0  0  0  0
   26.8400   71.9112    5.3706 C   0  0  0  0  0  0  0  0  0  0  0  0
   28.1134   71.6020    5.1185 C   0  0  0  0  0  0  0  0  0  0  0  0
   28.4196   70.6103    4.0668 C   0  0  0  0  0  0  0  0  0  0  0  0
   27.4796   69.4189    2.7229 H   0  0  0  0  0  0  0  0  0  0  0  0
   21.0526   71.5980   -0.6960 O   0  0  0  0  0  0  0  0  0  0  0  0
   21.1017   72.0711   -2.2412 P   0  0  2  0  0  0  0  0  0  0  0  0
   22.1557   71.0407   -2.9101 O   0  0  0  0  0  0  0  0  0  0  0  0
   21.4476   73.5197   -2.4309 O   0  0  0  0  0  0  0  0  0  0  0  0
   19.6701   71.6397   -2.8470 O   0  0  0  0  0  0  0  0  0  0  0  0
   18.2663   69.7727   -2.4563 O   0  0  0  0  0  0  0  0  0  0  0  0
   17.7058   70.4147   -6.4988 O   0  0  0  0  0  0  0  0  0  0  0  0
   20.3756   70.5961   -5.3268 O   0  0  0  0  0  0  0  0  0  0  0  0
   15.6564   71.2109   -4.5969 O   0  0  0  0  0  0  0  0  0  0  0  0
   17.9636   70.7839   -5.1441 C   0  0  2  0  0  0  0  0  0  0  0  0
   19.2311   70.0826   -4.6550 C   0  0  2  0  0  0  0  0  0  0  0  0
   16.7602   70.3575   -4.3005 C   0  0  1  0  0  0  0  0  0  0  0  0
   19.4128   70.2693   -3.1480 C   0  0  1  0  0  0  0  0  0  0  0  0
   17.0639   70.4535   -2.8081 C   0  0  1  0  0  0  0  0  0  0  0  0
   18.4574   70.6758   -7.0540 H   0  0  0  0  0  0  0  0  0  0  0  0
   20.2670   70.4812   -6.2835 H   0  0  0  0  0  0  0  0  0  0  0  0
   15.4529   71.1592   -5.5439 H   0  0  0  0  0  0  0  0  0  0  0  0
   14.9071   70.4929   -1.8872 O   0  0  0  0  0  0  0  0  0  0  0  0
   16.1574   68.6202   -1.5280 O   0  0  0  0  0  0  0  0  0  0  0  0
   16.0258   69.7360   -2.0083 C   0  0  0  0  0  0  0  0  0  0  0  0
  1  4  1  0
  1 24  1  0
  1  2  1  1
  1  3  2  0
 25 28  1  0
 25 24  1  0
 25 26  1  6
 25 27  2  0
  6 11  1  0
  6 12  1  0
 29 36  1  0
 29 37  1  0
  9  7  1  1
  7 13  1  0
 10  8  1  1
  8 14  1  0
  4  5  1  0
 36 28  1  6
 33 30  1  6
 30 38  1  0
 34 31  1  6
 31 39  1  0
 35 32  1  1
 32 40  1  0
 41 43  1  0
 15 19  2  0
 42 43  2  0
 16 22  2  0
 12 17  1  6
 17 19  1  0
 17 20  1  0
 18 19  1  0
 18 22  1  0
 18 23  1  0
  9 10  1  0
  9 11  1  0
 10 12  1  0
 11  5  1  6
 33 34  1  0
 33 35  1  0
 34 36  1  0
 35 37  1  0
 37 43  1  1
 20 21  2  0
 21 22  1  0
M  CHG  3   2  -1  26  -1  41  -1
M  END
>  <COMPND>  (155) 
    udp_gluA.pdb 

>  <AUTHOR>  (155) 
    GENERATED BY OPEN BABEL 3.1.1

>  <MASTER>  (155) 
        0    0    0    0    0    0    0    0   56    0   56    0

>  <minimizedAffinity>  (155) 
-7.64652

>  <CNNscore>  (155) 
0.4887126982

>  <CNNaffinity>  (155) 
4.0877060890

>  <CNN_VS>  (155) 
1.9977139235

>  <CNNaffinity_variance>  (155) 
0.2248644829

$$$$
156
     RDKit          3D

 43 45  0  0  0  0  0  0  0  0999 V2000
   19.4647   73.7353   -1.1542 P   0  0  2  0  0  0  0  0  0  0  0  0
   19.4032   74.9740   -2.1937 O   0  0  0  0  0  0  0  0  0  0  0  0
   18.1366   73.1220   -0.8201 O   0  0  0  0  0  0  0  0  0  0  0  0
   20.3033   74.3213    0.0994 O   0  0  0  0  0  0  0  0  0  0  0  0
   21.2196   73.4668    0.7586 C   0  0  0  0  0  0  0  0  0  0  0  0
   21.3281   71.7698    2.4574 O   0  0  0  0  0  0  0  0  0  0  0  0
   19.5198   73.5339    4.0728 O   0  0  0  0  0  0  0  0  0  0  0  0
   21.9669   74.0230    5.1720 O   0  0  0  0  0  0  0  0  0  0  0  0
   20.5754   73.8956    3.1821 C   0  0  1  0  0  0  0  0  0  0  0  0
   21.9192   73.6152    3.8207 C   0  0  2  0  0  0  0  0  0  0  0  0
   20.5648   72.9142    2.0181 C   0  0  1  0  0  0  0  0  0  0  0  0
   22.0366   72.1091    3.6600 C   0  0  2  0  0  0  0  0  0  0  0  0
   19.5065   74.1470    4.8249 H   0  0  0  0  0  0  0  0  0  0  0  0
   21.8886   74.9891    5.2211 H   0  0  0  0  0  0  0  0  0  0  0  0
   23.5770   71.0669    5.7855 O   0  0  0  0  0  0  0  0  0  0  0  0
   27.2560   70.4782    3.0722 O   0  0  0  0  0  0  0  0  0  0  0  0
   23.3997   71.6758    3.5368 N   0  0  0  0  0  0  0  0  0  0  0  0
   25.4082   70.7757    4.4323 N   0  0  0  0  0  0  0  0  0  0  0  0
   24.0837   71.1678    4.6665 C   0  0  0  0  0  0  0  0  0  0  0  0
   24.0441   71.7543    2.3082 C   0  0  0  0  0  0  0  0  0  0  0  0
   25.3070   71.3765    2.1004 C   0  0  0  0  0  0  0  0  0  0  0  0
   26.0924   70.8354    3.2290 C   0  0  0  0  0  0  0  0  0  0  0  0
   25.9055   70.4207    5.2043 H   0  0  0  0  0  0  0  0  0  0  0  0
   20.5155   72.7260   -1.8542 O   0  0  0  0  0  0  0  0  0  0  0  0
   20.3255   71.2269   -2.4289 P   0  0  2  0  0  0  0  0  0  0  0  0
   19.7457   70.4132   -1.1553 O   0  0  0  0  0  0  0  0  0  0  0  0
   21.5685   70.6347   -3.0274 O   0  0  0  0  0  0  0  0  0  0  0  0
   19.0779   71.3336   -3.4461 O   0  0  0  0  0  0  0  0  0  0  0  0
   18.5276   70.3056   -5.5076 O   0  0  0  0  0  0  0  0  0  0  0  0
   17.2440   74.1825   -6.1323 O   0  0  0  0  0  0  0  0  0  0  0  0
   19.7869   73.6624   -4.7915 O   0  0  0  0  0  0  0  0  0  0  0  0
   15.3143   72.0743   -5.6007 O   0  0  0  0  0  0  0  0  0  0  0  0
   17.5227   73.0092   -5.3684 C   0  0  2  0  0  0  0  0  0  0  0  0
   19.0120   72.6773   -5.4651 C   0  0  2  0  0  0  0  0  0  0  0  0
   16.6838   71.8633   -5.9386 C   0  0  1  0  0  0  0  0  0  0  0  0
   19.3079   71.3071   -4.8537 C   0  0  1  0  0  0  0  0  0  0  0  0
   17.1237   70.5159   -5.3732 C   0  0  1  0  0  0  0  0  0  0  0  0
   17.7661   74.9243   -5.7881 H   0  0  0  0  0  0  0  0  0  0  0  0
   19.6038   74.5344   -5.1742 H   0  0  0  0  0  0  0  0  0  0  0  0
   15.0219   72.9287   -5.9547 H   0  0  0  0  0  0  0  0  0  0  0  0
   16.2957   69.7810   -7.4410 O   0  0  0  0  0  0  0  0  0  0  0  0
   16.3102   68.2728   -5.7310 O   0  0  0  0  0  0  0  0  0  0  0  0
   16.5388   69.3919   -6.1649 C   0  0  0  0  0  0  0  0  0  0  0  0
  1  4  1  0
  1 24  1  0
  1  2  1  6
  1  3  2  0
 25 28  1  0
 25 24  1  0
 25 26  1  1
 25 27  2  0
  6 11  1  0
  6 12  1  0
 29 36  1  0
 29 37  1  0
  9  7  1  1
  7 13  1  0
 10  8  1  1
  8 14  1  0
  4  5  1  0
 36 28  1  1
 33 30  1  6
 30 38  1  0
 34 31  1  1
 31 39  1  0
 35 32  1  1
 32 40  1  0
 41 43  1  0
 15 19  2  0
 42 43  2  0
 16 22  2  0
 12 17  1  6
 17 19  1  0
 17 20  1  0
 18 19  1  0
 18 22  1  0
 18 23  1  0
  9 10  1  0
  9 11  1  0
 10 12  1  0
 11  5  1  6
 33 34  1  0
 33 35  1  0
 34 36  1  0
 35 37  1  0
 37 43  1  6
 20 21  2  0
 21 22  1  0
M  CHG  3   2  -1  26  -1  41  -1
M  END
>  <COMPND>  (156) 
    udp_gluA.pdb 

>  <AUTHOR>  (156) 
    GENERATED BY OPEN BABEL 3.1.1

>  <MASTER>  (156) 
        0    0    0    0    0    0    0    0   56    0   56    0

>  <minimizedAffinity>  (156) 
-6.45568

>  <CNNscore>  (156) 
0.4820427895

>  <CNNaffinity>  (156) 
4.0396852493

>  <CNN_VS>  (156) 
1.9473011494

>  <CNNaffinity_variance>  (156) 
0.1459007114

$$$$
157
     RDKit          3D

 43 45  0  0  0  0  0  0  0  0999 V2000
   22.4323   73.9613   -6.0016 P   0  0  2  0  0  0  0  0  0  0  0  0
   22.9728   72.4361   -6.0228 O   0  0  0  0  0  0  0  0  0  0  0  0
   21.9675   74.4873   -7.3279 O   0  0  0  0  0  0  0  0  0  0  0  0
   23.6321   74.7889   -5.2990 O   0  0  0  0  0  0  0  0  0  0  0  0
   24.0078   74.4446   -3.9781 C   0  0  0  0  0  0  0  0  0  0  0  0
   22.6515   75.1884   -2.1382 O   0  0  0  0  0  0  0  0  0  0  0  0
   24.6608   77.3866   -1.7879 O   0  0  0  0  0  0  0  0  0  0  0  0
   25.3705   75.6147    0.1596 O   0  0  0  0  0  0  0  0  0  0  0  0
   24.8654   76.0297   -2.1824 C   0  0  1  0  0  0  0  0  0  0  0  0
   24.7218   75.1095   -0.9887 C   0  0  2  0  0  0  0  0  0  0  0  0
   23.6876   75.6104   -3.0514 C   0  0  1  0  0  0  0  0  0  0  0  0
   23.2131   75.0389   -0.8246 C   0  0  2  0  0  0  0  0  0  0  0  0
   25.4009   77.6770   -1.2315 H   0  0  0  0  0  0  0  0  0  0  0  0
   26.3283   75.6397    0.0051 H   0  0  0  0  0  0  0  0  0  0  0  0
   22.9669   74.5170    1.9401 O   0  0  0  0  0  0  0  0  0  0  0  0
   21.5426   70.1992    1.1839 O   0  0  0  0  0  0  0  0  0  0  0  0
   22.7801   73.7870   -0.2714 N   0  0  0  0  0  0  0  0  0  0  0  0
   22.2587   72.3667    1.5608 N   0  0  0  0  0  0  0  0  0  0  0  0
   22.6909   73.6285    1.1318 C   0  0  0  0  0  0  0  0  0  0  0  0
   22.4478   72.7339   -1.1149 C   0  0  0  0  0  0  0  0  0  0  0  0
   22.0373   71.5369   -0.6912 C   0  0  0  0  0  0  0  0  0  0  0  0
   21.9176   71.2884    0.7605 C   0  0  0  0  0  0  0  0  0  0  0  0
   22.1907   72.2317    2.5337 H   0  0  0  0  0  0  0  0  0  0  0  0
   21.2941   73.9270   -4.8544 O   0  0  0  0  0  0  0  0  0  0  0  0
   19.9916   72.9855   -4.6793 P   0  0  2  0  0  0  0  0  0  0  0  0
   18.8079   74.0454   -4.3698 O   0  0  0  0  0  0  0  0  0  0  0  0
   20.1444   71.9093   -3.6438 O   0  0  0  0  0  0  0  0  0  0  0  0
   19.6750   72.4442   -6.1657 O   0  0  0  0  0  0  0  0  0  0  0  0
   18.9414   70.2031   -5.9460 O   0  0  0  0  0  0  0  0  0  0  0  0
   18.6844   70.7754  -10.0295 O   0  0  0  0  0  0  0  0  0  0  0  0
   20.9794   71.7899   -8.5335 O   0  0  0  0  0  0  0  0  0  0  0  0
   16.2755   70.7715   -8.4021 O   0  0  0  0  0  0  0  0  0  0  0  0
   18.6403   71.1575   -8.6547 C   0  0  2  0  0  0  0  0  0  0  0  0
   20.0015   70.8998   -8.0080 C   0  0  2  0  0  0  0  0  0  0  0  0
   17.5576   70.3233   -7.9665 C   0  0  1  0  0  0  0  0  0  0  0  0
   19.9292   71.0788   -6.4909 C   0  0  1  0  0  0  0  0  0  0  0  0
   17.6315   70.4580   -6.4483 C   0  0  1  0  0  0  0  0  0  0  0  0
   19.3657   71.2926  -10.4873 H   0  0  0  0  0  0  0  0  0  0  0  0
   21.0305   71.6819   -9.4958 H   0  0  0  0  0  0  0  0  0  0  0  0
   16.2155   70.6911   -9.3669 H   0  0  0  0  0  0  0  0  0  0  0  0
   15.9806   68.8074   -6.6756 O   0  0  0  0  0  0  0  0  0  0  0  0
   16.8623   69.1171   -4.5957 O   0  0  0  0  0  0  0  0  0  0  0  0
   16.8060   69.4061   -5.7816 C   0  0  0  0  0  0  0  0  0  0  0  0
  1  4  1  0
  1 24  1  0
  1  2  1  6
  1  3  2  0
 25 28  1  0
 25 24  1  0
 25 26  1  1
 25 27  2  0
  6 11  1  0
  6 12  1  0
 29 36  1  0
 29 37  1  0
  9  7  1  1
  7 13  1  0
 10  8  1  1
  8 14  1  0
  4  5  1  0
 36 28  1  6
 33 30  1  6
 30 38  1  0
 34 31  1  6
 31 39  1  0
 35 32  1  6
 32 40  1  0
 41 43  1  0
 15 19  2  0
 42 43  2  0
 16 22  2  0
 12 17  1  6
 17 19  1  0
 17 20  1  0
 18 19  1  0
 18 22  1  0
 18 23  1  0
  9 10  1  0
  9 11  1  0
 10 12  1  0
 11  5  1  6
 33 34  1  0
 33 35  1  0
 34 36  1  0
 35 37  1  0
 37 43  1  1
 20 21  2  0
 21 22  1  0
M  CHG  3   2  -1  26  -1  41  -1
M  END
>  <COMPND>  (157) 
    udp_gluA.pdb 

>  <AUTHOR>  (157) 
    GENERATED BY OPEN BABEL 3.1.1

>  <MASTER>  (157) 
        0    0    0    0    0    0    0    0   56    0   56    0

>  <minimizedAffinity>  (157) 
-6.99550

>  <CNNscore>  (157) 
0.4667533934

>  <CNNaffinity>  (157) 
4.2183246613

>  <CNN_VS>  (157) 
1.9689173698

>  <CNNaffinity_variance>  (157) 
0.1354746372

$$$$
158
     RDKit          3D

 43 45  0  0  0  0  0  0  0  0999 V2000
   18.8321   73.3465   -3.4581 P   0  0  2  0  0  0  0  0  0  0  0  0
   19.1506   74.5791   -2.4591 O   0  0  0  0  0  0  0  0  0  0  0  0
   17.5909   73.5063   -4.2861 O   0  0  0  0  0  0  0  0  0  0  0  0
   18.8723   72.0463   -2.4960 O   0  0  0  0  0  0  0  0  0  0  0  0
   19.1661   72.2298   -1.1232 C   0  0  0  0  0  0  0  0  0  0  0  0
   21.2425   71.1731   -1.7143 O   0  0  0  0  0  0  0  0  0  0  0  0
   21.4443   70.3779    1.1698 O   0  0  0  0  0  0  0  0  0  0  0  0
   23.1219   72.5228    1.0243 O   0  0  0  0  0  0  0  0  0  0  0  0
   20.9227   71.5774    0.5976 C   0  0  1  0  0  0  0  0  0  0  0  0
   22.0520   72.4572    0.1047 C   0  0  2  0  0  0  0  0  0  0  0  0
   20.2155   71.2101   -0.6998 C   0  0  1  0  0  0  0  0  0  0  0  0
   22.4396   71.7740   -1.1956 C   0  0  2  0  0  0  0  0  0  0  0  0
   21.9009   70.5872    2.0001 H   0  0  0  0  0  0  0  0  0  0  0  0
   22.8248   72.9662    1.8349 H   0  0  0  0  0  0  0  0  0  0  0  0
   24.2012   71.0670   -3.2868 O   0  0  0  0  0  0  0  0  0  0  0  0
   24.3617   75.3961   -4.8608 O   0  0  0  0  0  0  0  0  0  0  0  0
   22.9573   72.6965   -2.1661 N   0  0  0  0  0  0  0  0  0  0  0  0
   24.2803   73.2240   -4.0682 N   0  0  0  0  0  0  0  0  0  0  0  0
   23.8362   72.2390   -3.1762 C   0  0  0  0  0  0  0  0  0  0  0  0
   22.5931   74.0364   -2.1128 C   0  0  0  0  0  0  0  0  0  0  0  0
   23.0244   74.9636   -2.9702 C   0  0  0  0  0  0  0  0  0  0  0  0
   23.9465   74.5686   -4.0551 C   0  0  0  0  0  0  0  0  0  0  0  0
   24.8948   72.9298   -4.7789 H   0  0  0  0  0  0  0  0  0  0  0  0
   20.1979   73.2091   -4.3118 O   0  0  0  0  0  0  0  0  0  0  0  0
   20.5101   73.5061   -5.8700 P   0  0  2  0  0  0  0  0  0  0  0  0
   21.9608   72.8235   -6.0932 O   0  0  0  0  0  0  0  0  0  0  0  0
   20.4458   74.9585   -6.2449 O   0  0  0  0  0  0  0  0  0  0  0  0
   19.4856   72.5595   -6.6804 O   0  0  0  0  0  0  0  0  0  0  0  0
   18.8465   70.3797   -6.0100 O   0  0  0  0  0  0  0  0  0  0  0  0
   18.1834   70.2343  -10.0852 O   0  0  0  0  0  0  0  0  0  0  0  0
   20.5779   71.5247   -9.0196 O   0  0  0  0  0  0  0  0  0  0  0  0
   15.9421   70.4772   -8.2499 O   0  0  0  0  0  0  0  0  0  0  0  0
   18.2588   70.8475   -8.7982 C   0  0  2  0  0  0  0  0  0  0  0  0
   19.6829   70.7249   -8.2556 C   0  0  2  0  0  0  0  0  0  0  0  0
   17.2732   70.1293   -7.8737 C   0  0  1  0  0  0  0  0  0  0  0  0
   19.7500   71.1622   -6.7916 C   0  0  1  0  0  0  0  0  0  0  0  0
   17.4873   70.5253   -6.4157 C   0  0  1  0  0  0  0  0  0  0  0  0
   18.8014   70.6744  -10.6899 H   0  0  0  0  0  0  0  0  0  0  0  0
   20.5403   71.2529   -9.9497 H   0  0  0  0  0  0  0  0  0  0  0  0
   15.7928   70.2305   -9.1760 H   0  0  0  0  0  0  0  0  0  0  0  0
   16.5926   70.1563   -4.2791 O   0  0  0  0  0  0  0  0  0  0  0  0
   16.3710   68.4757   -5.8040 O   0  0  0  0  0  0  0  0  0  0  0  0
   16.7625   69.5927   -5.5008 C   0  0  0  0  0  0  0  0  0  0  0  0
  1  4  1  0
  1 24  1  0
  1  2  1  1
  1  3  2  0
 25 28  1  0
 25 24  1  0
 25 26  1  6
 25 27  2  0
  6 11  1  0
  6 12  1  0
 29 36  1  0
 29 37  1  0
  9  7  1  6
  7 13  1  0
 10  8  1  1
  8 14  1  0
  4  5  1  0
 36 28  1  6
 33 30  1  6
 30 38  1  0
 34 31  1  6
 31 39  1  0
 35 32  1  6
 32 40  1  0
 41 43  1  0
 15 19  2  0
 42 43  2  0
 16 22  2  0
 12 17  1  6
 17 19  1  0
 17 20  1  0
 18 19  1  0
 18 22  1  0
 18 23  1  0
  9 10  1  0
  9 11  1  0
 10 12  1  0
 11  5  1  6
 33 34  1  0
 33 35  1  0
 34 36  1  0
 35 37  1  0
 37 43  1  1
 20 21  2  0
 21 22  1  0
M  CHG  3   2  -1  26  -1  41  -1
M  END
>  <COMPND>  (158) 
    udp_gluA.pdb 

>  <AUTHOR>  (158) 
    GENERATED BY OPEN BABEL 3.1.1

>  <MASTER>  (158) 
        0    0    0    0    0    0    0    0   56    0   56    0

>  <minimizedAffinity>  (158) 
-7.60264

>  <CNNscore>  (158) 
0.4660193026

>  <CNNaffinity>  (158) 
4.0978827477

>  <CNN_VS>  (158) 
1.9096924067

>  <CNNaffinity_variance>  (158) 
0.5883709192

$$$$
159
     RDKit          3D

 43 45  0  0  0  0  0  0  0  0999 V2000
   23.5928   72.4357   -3.3183 P   0  0  2  0  0  0  0  0  0  0  0  0
   24.1406   70.9152   -3.2338 O   0  0  0  0  0  0  0  0  0  0  0  0
   24.5694   73.4310   -3.8728 O   0  0  0  0  0  0  0  0  0  0  0  0
   23.0540   72.7381   -1.8229 O   0  0  0  0  0  0  0  0  0  0  0  0
   22.8868   71.6508   -0.9317 C   0  0  0  0  0  0  0  0  0  0  0  0
   21.1831   71.0572    0.6567 O   0  0  0  0  0  0  0  0  0  0  0  0
   19.2190   72.1826   -1.3098 O   0  0  0  0  0  0  0  0  0  0  0  0
   19.4546   74.1951    0.5151 O   0  0  0  0  0  0  0  0  0  0  0  0
   20.5386   72.6278   -0.9951 C   0  0  1  0  0  0  0  0  0  0  0  0
   20.5510   73.3201    0.3513 C   0  0  2  0  0  0  0  0  0  0  0  0
   21.3980   71.3994   -0.7297 C   0  0  1  0  0  0  0  0  0  0  0  0
   20.5087   72.1434    1.3113 C   0  0  2  0  0  0  0  0  0  0  0  0
   18.6513   72.9502   -1.4834 H   0  0  0  0  0  0  0  0  0  0  0  0
   19.5277   74.9270   -0.1180 H   0  0  0  0  0  0  0  0  0  0  0  0
   19.4001   73.6912    3.3974 O   0  0  0  0  0  0  0  0  0  0  0  0
   23.1458   73.1581    6.0297 O   0  0  0  0  0  0  0  0  0  0  0  0
   21.1725   72.4249    2.5527 N   0  0  0  0  0  0  0  0  0  0  0  0
   21.2671   73.4251    4.7060 N   0  0  0  0  0  0  0  0  0  0  0  0
   20.5277   73.2132    3.5350 C   0  0  0  0  0  0  0  0  0  0  0  0
   22.4460   71.9213    2.7880 C   0  0  0  0  0  0  0  0  0  0  0  0
   23.1382   72.1316    3.9093 C   0  0  0  0  0  0  0  0  0  0  0  0
   22.5366   72.9458    4.9857 C   0  0  0  0  0  0  0  0  0  0  0  0
   20.8398   73.9727    5.4037 H   0  0  0  0  0  0  0  0  0  0  0  0
   22.2288   72.2831   -4.1721 O   0  0  0  0  0  0  0  0  0  0  0  0
   21.7493   72.9942   -5.5426 P   0  0  2  0  0  0  0  0  0  0  0  0
   22.7941   72.4245   -6.6400 O   0  0  0  0  0  0  0  0  0  0  0  0
   21.6850   74.4923   -5.4692 O   0  0  0  0  0  0  0  0  0  0  0  0
   20.3486   72.2809   -5.9054 O   0  0  0  0  0  0  0  0  0  0  0  0
   19.6356   70.1450   -5.1715 O   0  0  0  0  0  0  0  0  0  0  0  0
   17.5475   70.5575   -8.7123 O   0  0  0  0  0  0  0  0  0  0  0  0
   20.3444   71.3828   -8.5378 O   0  0  0  0  0  0  0  0  0  0  0  0
   16.1833   70.8888   -6.1667 O   0  0  0  0  0  0  0  0  0  0  0  0
   18.1787   71.0036   -7.5121 C   0  0  2  0  0  0  0  0  0  0  0  0
   19.6606   70.6288   -7.5435 C   0  0  2  0  0  0  0  0  0  0  0  0
   17.4826   70.3239   -6.3309 C   0  0  1  0  0  0  0  0  0  0  0  0
   20.3179   70.8827   -6.1861 C   0  0  1  0  0  0  0  0  0  0  0  0
   18.2660   70.5179   -5.0358 C   0  0  1  0  0  0  0  0  0  0  0  0
   17.9733   70.9764   -9.4768 H   0  0  0  0  0  0  0  0  0  0  0  0
   19.9324   71.2267   -9.4016 H   0  0  0  0  0  0  0  0  0  0  0  0
   15.6743   70.7721   -6.9842 H   0  0  0  0  0  0  0  0  0  0  0  0
   18.5980   69.6111   -2.8983 O   0  0  0  0  0  0  0  0  0  0  0  0
   16.7583   68.9127   -4.0502 O   0  0  0  0  0  0  0  0  0  0  0  0
   17.7702   69.5931   -3.9723 C   0  0  0  0  0  0  0  0  0  0  0  0
  1  4  1  0
  1 24  1  0
  1  2  1  1
  1  3  2  0
 25 28  1  0
 25 24  1  0
 25 26  1  6
 25 27  2  0
  6 11  1  0
  6 12  1  0
 29 36  1  0
 29 37  1  0
  9  7  1  1
  7 13  1  0
 10  8  1  6
  8 14  1  0
  4  5  1  0
 36 28  1  1
 33 30  1  6
 30 38  1  0
 34 31  1  6
 31 39  1  0
 35 32  1  1
 32 40  1  0
 41 43  1  0
 15 19  2  0
 42 43  2  0
 16 22  2  0
 12 17  1  1
 17 19  1  0
 17 20  1  0
 18 19  1  0
 18 22  1  0
 18 23  1  0
  9 10  1  0
  9 11  1  0
 10 12  1  0
 11  5  1  1
 33 34  1  0
 33 35  1  0
 34 36  1  0
 35 37  1  0
 37 43  1  1
 20 21  2  0
 21 22  1  0
M  CHG  3   2  -1  26  -1  41  -1
M  END
>  <COMPND>  (159) 
    udp_gluA.pdb 

>  <AUTHOR>  (159) 
    GENERATED BY OPEN BABEL 3.1.1

>  <MASTER>  (159) 
        0    0    0    0    0    0    0    0   56    0   56    0

>  <minimizedAffinity>  (159) 
-7.47610

>  <CNNscore>  (159) 
0.4639329910

>  <CNNaffinity>  (159) 
4.0307512283

>  <CNN_VS>  (159) 
1.8699984550

>  <CNNaffinity_variance>  (159) 
0.2483410537

$$$$
160
     RDKit          3D

 43 45  0  0  0  0  0  0  0  0999 V2000
   20.8078   71.4210   -3.7671 P   0  0  2  0  0  0  0  0  0  0  0  0
   19.6610   72.4721   -3.3210 O   0  0  0  0  0  0  0  0  0  0  0  0
   21.5818   71.8101   -4.9924 O   0  0  0  0  0  0  0  0  0  0  0  0
   20.0274   70.0060   -3.8490 O   0  0  0  0  0  0  0  0  0  0  0  0
   19.0623   69.7078   -2.8569 C   0  0  0  0  0  0  0  0  0  0  0  0
   16.7303   69.1777   -2.6153 O   0  0  0  0  0  0  0  0  0  0  0  0
   16.6897   68.8386   -5.5943 O   0  0  0  0  0  0  0  0  0  0  0  0
   15.6022   71.3171   -5.2619 O   0  0  0  0  0  0  0  0  0  0  0  0
   17.4226   69.7725   -4.8011 C   0  0  1  0  0  0  0  0  0  0  0  0
   16.4999   70.8519   -4.2759 C   0  0  2  0  0  0  0  0  0  0  0  0
   17.8498   69.0678   -3.5207 C   0  0  1  0  0  0  0  0  0  0  0  0
   15.7962   70.1374   -3.1347 C   0  0  2  0  0  0  0  0  0  0  0  0
   16.4061   69.2661   -6.4180 H   0  0  0  0  0  0  0  0  0  0  0  0
   16.0986   71.7643   -5.9659 H   0  0  0  0  0  0  0  0  0  0  0  0
   13.7072   69.6406   -1.3002 O   0  0  0  0  0  0  0  0  0  0  0  0
   14.4128   73.6461    0.8681 O   0  0  0  0  0  0  0  0  0  0  0  0
   15.4128   71.0335   -2.0807 N   0  0  0  0  0  0  0  0  0  0  0  0
   14.0599   71.6365   -0.2226 N   0  0  0  0  0  0  0  0  0  0  0  0
   14.3491   70.6890   -1.2135 C   0  0  0  0  0  0  0  0  0  0  0  0
   16.0878   72.2365   -1.9132 C   0  0  0  0  0  0  0  0  0  0  0  0
   15.8008   73.1295   -0.9640 C   0  0  0  0  0  0  0  0  0  0  0  0
   14.7024   72.8466   -0.0168 C   0  0  0  0  0  0  0  0  0  0  0  0
   13.3219   71.4198    0.3919 H   0  0  0  0  0  0  0  0  0  0  0  0
   21.6998   71.2670   -2.4279 O   0  0  0  0  0  0  0  0  0  0  0  0
   23.1464   71.8758   -2.0403 P   0  0  2  0  0  0  0  0  0  0  0  0
   23.0426   73.4157   -2.5286 O   0  0  0  0  0  0  0  0  0  0  0  0
   24.3076   71.1205   -2.6192 O   0  0  0  0  0  0  0  0  0  0  0  0
   23.1375   71.9581   -0.4292 O   0  0  0  0  0  0  0  0  0  0  0  0
   23.8284   70.4425    1.2545 O   0  0  0  0  0  0  0  0  0  0  0  0
   20.4962   72.1627    2.9879 O   0  0  0  0  0  0  0  0  0  0  0  0
   20.4758   71.4116    0.1648 O   0  0  0  0  0  0  0  0  0  0  0  0
   23.1589   72.9376    3.8599 O   0  0  0  0  0  0  0  0  0  0  0  0
   21.6592   72.1190    2.1612 C   0  0  2  0  0  0  0  0  0  0  0  0
   21.4875   71.0385    1.0932 C   0  0  2  0  0  0  0  0  0  0  0  0
   22.8614   71.7999    3.0527 C   0  0  1  0  0  0  0  0  0  0  0  0
   22.7958   70.8042    0.3367 C   0  0  1  0  0  0  0  0  0  0  0  0
   24.0945   71.4549    2.2226 C   0  0  1  0  0  0  0  0  0  0  0  0
   19.7192   72.3640    2.4428 H   0  0  0  0  0  0  0  0  0  0  0  0
   19.6429   71.5621    0.6380 H   0  0  0  0  0  0  0  0  0  0  0  0
   22.3820   73.1678    4.3931 H   0  0  0  0  0  0  0  0  0  0  0  0
   25.8890   71.7879    3.6959 O   0  0  0  0  0  0  0  0  0  0  0  0
   25.3321   69.6319    3.2056 O   0  0  0  0  0  0  0  0  0  0  0  0
   25.1516   70.8334    3.0762 C   0  0  0  0  0  0  0  0  0  0  0  0
  1  4  1  0
  1 24  1  0
  1  2  1  1
  1  3  2  0
 25 28  1  0
 25 24  1  0
 25 26  1  6
 25 27  2  0
  6 11  1  0
  6 12  1  0
 29 36  1  0
 29 37  1  0
  9  7  1  6
  7 13  1  0
 10  8  1  6
  8 14  1  0
  4  5  1  0
 36 28  1  1
 33 30  1  1
 30 38  1  0
 34 31  1  6
 31 39  1  0
 35 32  1  6
 32 40  1  0
 41 43  1  0
 15 19  2  0
 42 43  2  0
 16 22  2  0
 12 17  1  1
 17 19  1  0
 17 20  1  0
 18 19  1  0
 18 22  1  0
 18 23  1  0
  9 10  1  0
  9 11  1  0
 10 12  1  0
 11  5  1  1
 33 34  1  0
 33 35  1  0
 34 36  1  0
 35 37  1  0
 37 43  1  1
 20 21  2  0
 21 22  1  0
M  CHG  3   2  -1  26  -1  41  -1
M  END
>  <COMPND>  (160) 
    udp_gluA.pdb 

>  <AUTHOR>  (160) 
    GENERATED BY OPEN BABEL 3.1.1

>  <MASTER>  (160) 
        0    0    0    0    0    0    0    0   56    0   56    0

>  <minimizedAffinity>  (160) 
-6.79392

>  <CNNscore>  (160) 
0.4548537135

>  <CNNaffinity>  (160) 
3.9594085217

>  <CNN_VS>  (160) 
1.8009517193

>  <CNNaffinity_variance>  (160) 
0.2732504010

$$$$
161
     RDKit          3D

 43 45  0  0  0  0  0  0  0  0999 V2000
   23.1756   72.1765   -2.9242 P   0  0  2  0  0  0  0  0  0  0  0  0
   23.8811   73.5378   -3.4417 O   0  0  0  0  0  0  0  0  0  0  0  0
   24.0358   70.9492   -2.9989 O   0  0  0  0  0  0  0  0  0  0  0  0
   21.7904   72.1155   -3.7580 O   0  0  0  0  0  0  0  0  0  0  0  0
   21.0413   70.9142   -3.7377 C   0  0  0  0  0  0  0  0  0  0  0  0
   19.0004   71.8002   -4.6473 O   0  0  0  0  0  0  0  0  0  0  0  0
   17.6130   70.4564   -2.3536 O   0  0  0  0  0  0  0  0  0  0  0  0
   17.1496   68.7380   -4.4197 O   0  0  0  0  0  0  0  0  0  0  0  0
   18.7449   70.0195   -3.1063 C   0  0  1  0  0  0  0  0  0  0  0  0
   18.3108   69.5401   -4.4752 C   0  0  2  0  0  0  0  0  0  0  0  0
   19.5826   71.2441   -3.4485 C   0  0  1  0  0  0  0  0  0  0  0  0
   18.0822   70.8498   -5.2103 C   0  0  2  0  0  0  0  0  0  0  0  0
   17.0626   69.6911   -2.1233 H   0  0  0  0  0  0  0  0  0  0  0  0
   17.3468   67.9163   -3.9424 H   0  0  0  0  0  0  0  0  0  0  0  0
   16.1670   70.0061   -7.1067 O   0  0  0  0  0  0  0  0  0  0  0  0
   19.1499   70.4583  -10.5912 O   0  0  0  0  0  0  0  0  0  0  0  0
   18.3316   70.7380   -6.6196 N   0  0  0  0  0  0  0  0  0  0  0  0
   17.6548   70.2312   -8.8402 N   0  0  0  0  0  0  0  0  0  0  0  0
   17.3009   70.3043   -7.4865 C   0  0  0  0  0  0  0  0  0  0  0  0
   19.5840   71.0574   -7.1298 C   0  0  0  0  0  0  0  0  0  0  0  0
   19.9064   70.9828   -8.4226 C   0  0  0  0  0  0  0  0  0  0  0  0
   18.8868   70.5376   -9.3950 C   0  0  0  0  0  0  0  0  0  0  0  0
   16.9543   69.9297   -9.4629 H   0  0  0  0  0  0  0  0  0  0  0  0
   22.6857   72.5656   -1.4337 O   0  0  0  0  0  0  0  0  0  0  0  0
   22.4401   71.6499   -0.1242 P   0  0  2  0  0  0  0  0  0  0  0  0
   23.8767   70.9402    0.1056 O   0  0  0  0  0  0  0  0  0  0  0  0
   21.2904   70.6925   -0.2491 O   0  0  0  0  0  0  0  0  0  0  0  0
   22.3064   72.7017    1.0916 O   0  0  0  0  0  0  0  0  0  0  0  0
   23.9662   72.9217    2.7667 O   0  0  0  0  0  0  0  0  0  0  0  0
   20.6583   74.5347    4.6439 O   0  0  0  0  0  0  0  0  0  0  0  0
   20.4129   72.1055    3.0397 O   0  0  0  0  0  0  0  0  0  0  0  0
   22.7478   76.2762    3.6183 O   0  0  0  0  0  0  0  0  0  0  0  0
   21.5024   74.2153    3.5378 C   0  0  2  0  0  0  0  0  0  0  0  0
   21.6477   72.6974    3.4265 C   0  0  2  0  0  0  0  0  0  0  0  0
   22.8667   74.8642    3.7813 C   0  0  1  0  0  0  0  0  0  0  0  0
   22.7211   72.3242    2.4031 C   0  0  1  0  0  0  0  0  0  0  0  0
   23.9132   74.3463    2.7989 C   0  0  1  0  0  0  0  0  0  0  0  0
   19.7853   74.1328    4.5113 H   0  0  0  0  0  0  0  0  0  0  0  0
   19.7271   72.3385    3.6845 H   0  0  0  0  0  0  0  0  0  0  0  0
   22.0846   76.6185    4.2378 H   0  0  0  0  0  0  0  0  0  0  0  0
   26.0382   73.6162    3.4720 O   0  0  0  0  0  0  0  0  0  0  0  0
   25.6933   75.8682    3.3787 O   0  0  0  0  0  0  0  0  0  0  0  0
   25.2894   74.7232    3.2421 C   0  0  0  0  0  0  0  0  0  0  0  0
  1  4  1  0
  1 24  1  0
  1  2  1  6
  1  3  2  0
 25 28  1  0
 25 24  1  0
 25 26  1  1
 25 27  2  0
  6 11  1  0
  6 12  1  0
 29 36  1  0
 29 37  1  0
  9  7  1  1
  7 13  1  0
 10  8  1  1
  8 14  1  0
  4  5  1  0
 36 28  1  6
 33 30  1  1
 30 38  1  0
 34 31  1  6
 31 39  1  0
 35 32  1  6
 32 40  1  0
 41 43  1  0
 15 19  2  0
 42 43  2  0
 16 22  2  0
 12 17  1  6
 17 19  1  0
 17 20  1  0
 18 19  1  0
 18 22  1  0
 18 23  1  0
  9 10  1  0
  9 11  1  0
 10 12  1  0
 11  5  1  6
 33 34  1  0
 33 35  1  0
 34 36  1  0
 35 37  1  0
 37 43  1  1
 20 21  2  0
 21 22  1  0
M  CHG  3   2  -1  26  -1  41  -1
M  END
>  <COMPND>  (161) 
    udp_gluA.pdb 

>  <AUTHOR>  (161) 
    GENERATED BY OPEN BABEL 3.1.1

>  <MASTER>  (161) 
        0    0    0    0    0    0    0    0   56    0   56    0

>  <minimizedAffinity>  (161) 
-7.16130

>  <CNNscore>  (161) 
0.8913934231

>  <CNNaffinity>  (161) 
4.7349934578

>  <CNN_VS>  (161) 
4.2207422256

>  <CNNaffinity_variance>  (161) 
0.0255786236

$$$$
162
     RDKit          3D

 43 45  0  0  0  0  0  0  0  0999 V2000
   21.7299   74.7519   -5.6696 P   0  0  2  0  0  0  0  0  0  0  0  0
   22.3270   76.2177   -6.0071 O   0  0  0  0  0  0  0  0  0  0  0  0
   21.7473   73.7818   -6.8143 O   0  0  0  0  0  0  0  0  0  0  0  0
   20.2748   75.0622   -5.0336 O   0  0  0  0  0  0  0  0  0  0  0  0
   19.1367   74.9653   -5.8701 C   0  0  0  0  0  0  0  0  0  0  0  0
   17.4183   73.3121   -6.1732 O   0  0  0  0  0  0  0  0  0  0  0  0
   17.6399   72.8108   -3.2251 O   0  0  0  0  0  0  0  0  0  0  0  0
   19.0608   70.7411   -4.2899 O   0  0  0  0  0  0  0  0  0  0  0  0
   18.6634   73.1367   -4.1657 C   0  0  1  0  0  0  0  0  0  0  0  0
   18.9772   71.9377   -5.0353 C   0  0  2  0  0  0  0  0  0  0  0  0
   18.0800   74.1174   -5.1737 C   0  0  1  0  0  0  0  0  0  0  0  0
   17.8107   71.9401   -6.0086 C   0  0  2  0  0  0  0  0  0  0  0  0
   17.9891   72.1851   -2.5706 H   0  0  0  0  0  0  0  0  0  0  0  0
   19.8188   70.7889   -3.6856 H   0  0  0  0  0  0  0  0  0  0  0  0
   15.9947   70.6754   -7.7634 O   0  0  0  0  0  0  0  0  0  0  0  0
   19.2820   69.9013  -10.9000 O   0  0  0  0  0  0  0  0  0  0  0  0
   18.1652   71.3989   -7.2901 N   0  0  0  0  0  0  0  0  0  0  0  0
   17.6339   70.2901   -9.3235 N   0  0  0  0  0  0  0  0  0  0  0  0
   17.1770   70.7836   -8.0943 C   0  0  0  0  0  0  0  0  0  0  0  0
   19.4777   71.4819   -7.7390 C   0  0  0  0  0  0  0  0  0  0  0  0
   19.8981   71.0070   -8.9131 C   0  0  0  0  0  0  0  0  0  0  0  0
   18.9287   70.3485   -9.8131 C   0  0  0  0  0  0  0  0  0  0  0  0
   16.9644   69.8556   -9.8999 H   0  0  0  0  0  0  0  0  0  0  0  0
   22.5976   74.2935   -4.3852 O   0  0  0  0  0  0  0  0  0  0  0  0
   22.9136   72.8253   -3.7868 P   0  0  2  0  0  0  0  0  0  0  0  0
   24.5020   72.6538   -4.0470 O   0  0  0  0  0  0  0  0  0  0  0  0
   22.0697   71.7285   -4.3689 O   0  0  0  0  0  0  0  0  0  0  0  0
   22.7790   72.9970   -2.1885 O   0  0  0  0  0  0  0  0  0  0  0  0
   21.6078   71.8361   -0.4885 O   0  0  0  0  0  0  0  0  0  0  0  0
   21.1471   75.7642    0.7055 O   0  0  0  0  0  0  0  0  0  0  0  0
   20.8844   75.0319   -2.1104 O   0  0  0  0  0  0  0  0  0  0  0  0
   23.0357   74.0334    2.0796 O   0  0  0  0  0  0  0  0  0  0  0  0
   21.8122   74.6558    0.0996 C   0  0  2  0  0  0  0  0  0  0  0  0
   20.9518   74.1013   -1.0361 C   0  0  2  0  0  0  0  0  0  0  0  0
   22.0272   73.5881    1.1746 C   0  0  1  0  0  0  0  0  0  0  0  0
   21.5186   72.7797   -1.5568 C   0  0  1  0  0  0  0  0  0  0  0  0
   22.4717   72.2629    0.5625 C   0  0  1  0  0  0  0  0  0  0  0  0
   20.9997   76.4557    0.0410 H   0  0  0  0  0  0  0  0  0  0  0  0
   20.5259   75.8729   -1.7871 H   0  0  0  0  0  0  0  0  0  0  0  0
   22.7652   74.8763    2.4760 H   0  0  0  0  0  0  0  0  0  0  0  0
   21.5811   70.1550    1.0776 O   0  0  0  0  0  0  0  0  0  0  0  0
   22.8974   71.1420    2.6563 O   0  0  0  0  0  0  0  0  0  0  0  0
   22.3608   71.1548    1.5586 C   0  0  0  0  0  0  0  0  0  0  0  0
  1  4  1  0
  1 24  1  0
  1  2  1  6
  1  3  2  0
 25 28  1  0
 25 24  1  0
 25 26  1  1
 25 27  2  0
  6 11  1  0
  6 12  1  0
 29 36  1  0
 29 37  1  0
  9  7  1  1
  7 13  1  0
 10  8  1  1
  8 14  1  0
  4  5  1  0
 36 28  1  1
 33 30  1  1
 30 38  1  0
 34 31  1  6
 31 39  1  0
 35 32  1  1
 32 40  1  0
 41 43  1  0
 15 19  2  0
 42 43  2  0
 16 22  2  0
 12 17  1  6
 17 19  1  0
 17 20  1  0
 18 19  1  0
 18 22  1  0
 18 23  1  0
  9 10  1  0
  9 11  1  0
 10 12  1  0
 11  5  1  6
 33 34  1  0
 33 35  1  0
 34 36  1  0
 35 37  1  0
 37 43  1  1
 20 21  2  0
 21 22  1  0
M  CHG  3   2  -1  26  -1  41  -1
M  END
>  <COMPND>  (162) 
    udp_gluA.pdb 

>  <AUTHOR>  (162) 
    GENERATED BY OPEN BABEL 3.1.1

>  <MASTER>  (162) 
        0    0    0    0    0    0    0    0   56    0   56    0

>  <minimizedAffinity>  (162) 
-6.34614

>  <CNNscore>  (162) 
0.8276633620

>  <CNNaffinity>  (162) 
4.4998426437

>  <CNN_VS>  (162) 
3.7243549824

>  <CNNaffinity_variance>  (162) 
0.0023706562

$$$$
163
     RDKit          3D

 43 45  0  0  0  0  0  0  0  0999 V2000
   23.0065   71.5050   -2.3026 P   0  0  2  0  0  0  0  0  0  0  0  0
   22.7171   73.0819   -2.5229 O   0  0  0  0  0  0  0  0  0  0  0  0
   24.2384   70.9856   -2.9841 O   0  0  0  0  0  0  0  0  0  0  0  0
   21.6167   70.7922   -2.7247 O   0  0  0  0  0  0  0  0  0  0  0  0
   20.9888   71.1944   -3.9282 C   0  0  0  0  0  0  0  0  0  0  0  0
   18.9137   71.9589   -4.8701 O   0  0  0  0  0  0  0  0  0  0  0  0
   17.5828   70.6651   -2.5151 O   0  0  0  0  0  0  0  0  0  0  0  0
   17.1843   68.8401   -4.5017 O   0  0  0  0  0  0  0  0  0  0  0  0
   18.7299   70.2397   -3.2511 C   0  0  1  0  0  0  0  0  0  0  0  0
   18.3131   69.6835   -4.5961 C   0  0  2  0  0  0  0  0  0  0  0  0
   19.5187   71.4796   -3.6496 C   0  0  1  0  0  0  0  0  0  0  0  0
   18.0327   70.9494   -5.3877 C   0  0  2  0  0  0  0  0  0  0  0  0
   17.0629   69.8900   -2.2495 H   0  0  0  0  0  0  0  0  0  0  0  0
   17.4140   68.0486   -3.9891 H   0  0  0  0  0  0  0  0  0  0  0  0
   16.1485   69.9513   -7.2398 O   0  0  0  0  0  0  0  0  0  0  0  0
   19.1082   70.3615  -10.7492 O   0  0  0  0  0  0  0  0  0  0  0  0
   18.2845   70.7850   -6.7914 N   0  0  0  0  0  0  0  0  0  0  0  0
   17.6247   70.1556   -8.9857 N   0  0  0  0  0  0  0  0  0  0  0  0
   17.2699   70.2750   -7.6356 C   0  0  0  0  0  0  0  0  0  0  0  0
   19.5234   71.1286   -7.3188 C   0  0  0  0  0  0  0  0  0  0  0  0
   19.8468   71.0092   -8.6079 C   0  0  0  0  0  0  0  0  0  0  0  0
   18.8437   70.4834   -9.5569 C   0  0  0  0  0  0  0  0  0  0  0  0
   16.9354   69.8008   -9.5925 H   0  0  0  0  0  0  0  0  0  0  0  0
   23.0154   71.3591   -0.6927 O   0  0  0  0  0  0  0  0  0  0  0  0
   21.8888   71.7133    0.4113 P   0  0  2  0  0  0  0  0  0  0  0  0
   20.8462   70.4816    0.2840 O   0  0  0  0  0  0  0  0  0  0  0  0
   21.2672   73.0695    0.2437 O   0  0  0  0  0  0  0  0  0  0  0  0
   22.6200   71.4827    1.8307 O   0  0  0  0  0  0  0  0  0  0  0  0
   23.1585   73.1944    3.3764 O   0  0  0  0  0  0  0  0  0  0  0  0
   25.9222   70.2822    4.3505 O   0  0  0  0  0  0  0  0  0  0  0  0
   25.3204   70.8766    1.5543 O   0  0  0  0  0  0  0  0  0  0  0  0
   23.6055   70.7222    6.0505 O   0  0  0  0  0  0  0  0  0  0  0  0
   24.6691   70.7875    3.8896 C   0  0  2  0  0  0  0  0  0  0  0  0
   24.8932   71.6658    2.6584 C   0  0  2  0  0  0  0  0  0  0  0  0
   24.0445   71.6068    5.0213 C   0  0  1  0  0  0  0  0  0  0  0  0
   23.6117   72.4070    2.2746 C   0  0  1  0  0  0  0  0  0  0  0  0
   22.8473   72.4147    4.5290 C   0  0  1  0  0  0  0  0  0  0  0  0
   26.3378   69.7581    3.6478 H   0  0  0  0  0  0  0  0  0  0  0  0
   26.1330   70.4033    1.7909 H   0  0  0  0  0  0  0  0  0  0  0  0
   24.3581   70.2018    6.3725 H   0  0  0  0  0  0  0  0  0  0  0  0
   23.3624   73.5064    6.5401 O   0  0  0  0  0  0  0  0  0  0  0  0
   21.4535   74.1454    5.4691 O   0  0  0  0  0  0  0  0  0  0  0  0
   22.4535   73.4463    5.5355 C   0  0  0  0  0  0  0  0  0  0  0  0
  1  4  1  0
  1 24  1  0
  1  2  1  1
  1  3  2  0
 25 28  1  0
 25 24  1  0
 25 26  1  6
 25 27  2  0
  6 11  1  0
  6 12  1  0
 29 36  1  0
 29 37  1  0
  9  7  1  1
  7 13  1  0
 10  8  1  1
  8 14  1  0
  4  5  1  0
 36 28  1  1
 33 30  1  1
 30 38  1  0
 34 31  1  6
 31 39  1  0
 35 32  1  1
 32 40  1  0
 41 43  1  0
 15 19  2  0
 42 43  2  0
 16 22  2  0
 12 17  1  6
 17 19  1  0
 17 20  1  0
 18 19  1  0
 18 22  1  0
 18 23  1  0
  9 10  1  0
  9 11  1  0
 10 12  1  0
 11  5  1  6
 33 34  1  0
 33 35  1  0
 34 36  1  0
 35 37  1  0
 37 43  1  1
 20 21  2  0
 21 22  1  0
M  CHG  3   2  -1  26  -1  41  -1
M  END
>  <COMPND>  (163) 
    udp_gluA.pdb 

>  <AUTHOR>  (163) 
    GENERATED BY OPEN BABEL 3.1.1

>  <MASTER>  (163) 
        0    0    0    0    0    0    0    0   56    0   56    0

>  <minimizedAffinity>  (163) 
-8.69421

>  <CNNscore>  (163) 
0.8216772079

>  <CNNaffinity>  (163) 
4.5943307877

>  <CNN_VS>  (163) 
3.7750568390

>  <CNNaffinity_variance>  (163) 
0.0967303887

$$$$
164
     RDKit          3D

 43 45  0  0  0  0  0  0  0  0999 V2000
   22.9842   73.4406   -4.0764 P   0  0  2  0  0  0  0  0  0  0  0  0
   23.0168   74.9089   -4.7560 O   0  0  0  0  0  0  0  0  0  0  0  0
   24.2681   72.6697   -4.1718 O   0  0  0  0  0  0  0  0  0  0  0  0
   21.6892   72.7337   -4.7407 O   0  0  0  0  0  0  0  0  0  0  0  0
   21.1606   71.5744   -4.1234 C   0  0  0  0  0  0  0  0  0  0  0  0
   19.0213   72.1876   -5.0316 O   0  0  0  0  0  0  0  0  0  0  0  0
   17.8324   70.9712   -2.5621 O   0  0  0  0  0  0  0  0  0  0  0  0
   17.4562   69.0189   -4.4284 O   0  0  0  0  0  0  0  0  0  0  0  0
   18.9736   70.5574   -3.3137 C   0  0  1  0  0  0  0  0  0  0  0  0
   18.5396   69.9065   -4.6099 C   0  0  2  0  0  0  0  0  0  0  0  0
   19.6885   71.8073   -3.8087 C   0  0  1  0  0  0  0  0  0  0  0  0
   18.1729   71.1107   -5.4603 C   0  0  2  0  0  0  0  0  0  0  0  0
   17.3593   70.1894   -2.2353 H   0  0  0  0  0  0  0  0  0  0  0  0
   17.7404   68.2695   -3.8811 H   0  0  0  0  0  0  0  0  0  0  0  0
   16.2411   70.0178   -7.2069 O   0  0  0  0  0  0  0  0  0  0  0  0
   19.0992   70.2616  -10.8146 O   0  0  0  0  0  0  0  0  0  0  0  0
   18.3857   70.8779   -6.8608 N   0  0  0  0  0  0  0  0  0  0  0  0
   17.6668   70.1393   -9.0019 N   0  0  0  0  0  0  0  0  0  0  0  0
   17.3497   70.3243   -7.6497 C   0  0  0  0  0  0  0  0  0  0  0  0
   19.6079   71.1980   -7.4393 C   0  0  0  0  0  0  0  0  0  0  0  0
   19.8953   71.0161   -8.7296 C   0  0  0  0  0  0  0  0  0  0  0  0
   18.8679   70.4416   -9.6228 C   0  0  0  0  0  0  0  0  0  0  0  0
   16.9620   69.7533   -9.5707 H   0  0  0  0  0  0  0  0  0  0  0  0
   22.4951   73.7501   -2.5671 O   0  0  0  0  0  0  0  0  0  0  0  0
   23.1139   74.7158   -1.4278 P   0  0  2  0  0  0  0  0  0  0  0  0
   22.3270   76.1114   -1.6586 O   0  0  0  0  0  0  0  0  0  0  0  0
   24.6099   74.8354   -1.4680 O   0  0  0  0  0  0  0  0  0  0  0  0
   22.5253   74.1411   -0.0402 O   0  0  0  0  0  0  0  0  0  0  0  0
   21.9469   75.2290    1.9825 O   0  0  0  0  0  0  0  0  0  0  0  0
   23.3664   71.6003    3.3558 O   0  0  0  0  0  0  0  0  0  0  0  0
   24.7433   73.0084    1.1981 O   0  0  0  0  0  0  0  0  0  0  0  0
   20.5076   72.1261    3.3103 O   0  0  0  0  0  0  0  0  0  0  0  0
   22.7246   72.4856    2.4380 C   0  0  2  0  0  0  0  0  0  0  0  0
   23.7094   73.5694    1.9987 C   0  0  2  0  0  0  0  0  0  0  0  0
   21.5236   73.1141    3.1484 C   0  0  1  0  0  0  0  0  0  0  0  0
   22.9990   74.6631    1.2000 C   0  0  1  0  0  0  0  0  0  0  0  0
   20.9487   74.2782    2.3466 C   0  0  1  0  0  0  0  0  0  0  0  0
   24.1330   71.1891    2.9263 H   0  0  0  0  0  0  0  0  0  0  0  0
   25.1982   72.3135    1.6986 H   0  0  0  0  0  0  0  0  0  0  0  0
   20.8607   71.3795    3.8189 H   0  0  0  0  0  0  0  0  0  0  0  0
   19.8609   74.5274    4.4097 O   0  0  0  0  0  0  0  0  0  0  0  0
   19.4439   76.1047    2.8168 O   0  0  0  0  0  0  0  0  0  0  0  0
   20.0070   75.0835    3.1815 C   0  0  0  0  0  0  0  0  0  0  0  0
  1  4  1  0
  1 24  1  0
  1  2  1  6
  1  3  2  0
 25 28  1  0
 25 24  1  0
 25 26  1  6
 25 27  2  0
  6 11  1  0
  6 12  1  0
 29 36  1  0
 29 37  1  0
  9  7  1  1
  7 13  1  0
 10  8  1  1
  8 14  1  0
  4  5  1  0
 36 28  1  6
 33 30  1  1
 30 38  1  0
 34 31  1  6
 31 39  1  0
 35 32  1  6
 32 40  1  0
 41 43  1  0
 15 19  2  0
 42 43  2  0
 16 22  2  0
 12 17  1  6
 17 19  1  0
 17 20  1  0
 18 19  1  0
 18 22  1  0
 18 23  1  0
  9 10  1  0
  9 11  1  0
 10 12  1  0
 11  5  1  6
 33 34  1  0
 33 35  1  0
 34 36  1  0
 35 37  1  0
 37 43  1  1
 20 21  2  0
 21 22  1  0
M  CHG  3   2  -1  26  -1  41  -1
M  END
>  <COMPND>  (164) 
    udp_gluA.pdb 

>  <AUTHOR>  (164) 
    GENERATED BY OPEN BABEL 3.1.1

>  <MASTER>  (164) 
        0    0    0    0    0    0    0    0   56    0   56    0

>  <minimizedAffinity>  (164) 
-6.59342

>  <CNNscore>  (164) 
0.7786149979

>  <CNNaffinity>  (164) 
4.5057535172

>  <CNN_VS>  (164) 
3.5082473755

>  <CNNaffinity_variance>  (164) 
0.0193423945

$$$$
165
     RDKit          3D

 43 45  0  0  0  0  0  0  0  0999 V2000
   22.9917   71.6036   -2.3944 P   0  0  2  0  0  0  0  0  0  0  0  0
   22.5729   73.0482   -2.9913 O   0  0  0  0  0  0  0  0  0  0  0  0
   24.2198   70.9967   -3.0070 O   0  0  0  0  0  0  0  0  0  0  0  0
   21.6383   70.7254   -2.5166 O   0  0  0  0  0  0  0  0  0  0  0  0
   20.9324   70.7385   -3.7438 C   0  0  0  0  0  0  0  0  0  0  0  0
   18.9632   71.7430   -4.6876 O   0  0  0  0  0  0  0  0  0  0  0  0
   17.4565   70.4652   -2.4319 O   0  0  0  0  0  0  0  0  0  0  0  0
   16.9398   68.7880   -4.5191 O   0  0  0  0  0  0  0  0  0  0  0  0
   18.5772   69.9701   -3.1649 C   0  0  1  0  0  0  0  0  0  0  0  0
   18.1448   69.5240   -4.5456 C   0  0  2  0  0  0  0  0  0  0  0  0
   19.4888   71.1478   -3.4815 C   0  0  1  0  0  0  0  0  0  0  0  0
   18.0049   70.8489   -5.2757 C   0  0  2  0  0  0  0  0  0  0  0  0
   16.8595   69.7306   -2.2181 H   0  0  0  0  0  0  0  0  0  0  0  0
   17.0810   67.9536   -4.0439 H   0  0  0  0  0  0  0  0  0  0  0  0
   16.1079   70.0370   -7.2041 O   0  0  0  0  0  0  0  0  0  0  0  0
   19.1571   70.4354  -10.6375 O   0  0  0  0  0  0  0  0  0  0  0  0
   18.2762   70.7318   -6.6805 N   0  0  0  0  0  0  0  0  0  0  0  0
   17.6287   70.2352   -8.9121 N   0  0  0  0  0  0  0  0  0  0  0  0
   17.2531   70.3154   -7.5647 C   0  0  0  0  0  0  0  0  0  0  0  0
   19.5425   71.0293   -7.1694 C   0  0  0  0  0  0  0  0  0  0  0  0
   19.8854   70.9483   -8.4565 C   0  0  0  0  0  0  0  0  0  0  0  0
   18.8750   70.5200   -9.4460 C   0  0  0  0  0  0  0  0  0  0  0  0
   16.9337   69.9455   -9.5465 H   0  0  0  0  0  0  0  0  0  0  0  0
   23.1002   71.8848   -0.8063 O   0  0  0  0  0  0  0  0  0  0  0  0
   23.3672   73.2523    0.0137 P   0  0  2  0  0  0  0  0  0  0  0  0
   21.8838   73.8778    0.1827 O   0  0  0  0  0  0  0  0  0  0  0  0
   24.3575   74.1757   -0.6347 O   0  0  0  0  0  0  0  0  0  0  0  0
   23.7759   72.7670    1.4969 O   0  0  0  0  0  0  0  0  0  0  0  0
   24.1964   70.6482    2.4680 O   0  0  0  0  0  0  0  0  0  0  0  0
   22.1992   72.5898    5.5191 O   0  0  0  0  0  0  0  0  0  0  0  0
   21.2962   72.8559    2.7536 O   0  0  0  0  0  0  0  0  0  0  0  0
   25.0791   72.2206    5.6633 O   0  0  0  0  0  0  0  0  0  0  0  0
   23.0560   72.4851    4.3820 C   0  0  2  0  0  0  0  0  0  0  0  0
   22.2698   71.9188    3.1993 C   0  0  2  0  0  0  0  0  0  0  0  0
   24.2139   71.5533    4.7465 C   0  0  1  0  0  0  0  0  0  0  0  0
   23.2019   71.5775    2.0359 C   0  0  1  0  0  0  0  0  0  0  0  0
   25.0210   71.1589    3.5130 C   0  0  1  0  0  0  0  0  0  0  0  0
   21.4557   73.1773    5.3110 H   0  0  0  0  0  0  0  0  0  0  0  0
   20.7015   73.0771    3.4869 H   0  0  0  0  0  0  0  0  0  0  0  0
   24.5776   72.4772    6.4530 H   0  0  0  0  0  0  0  0  0  0  0  0
   27.1538   70.4538    4.1881 O   0  0  0  0  0  0  0  0  0  0  0  0
   25.6136   68.8316    3.7460 O   0  0  0  0  0  0  0  0  0  0  0  0
   25.9271   70.0105    3.8170 C   0  0  0  0  0  0  0  0  0  0  0  0
  1  4  1  0
  1 24  1  0
  1  2  1  6
  1  3  2  0
 25 28  1  0
 25 24  1  0
 25 26  1  1
 25 27  2  0
  6 11  1  0
  6 12  1  0
 29 36  1  0
 29 37  1  0
  9  7  1  1
  7 13  1  0
 10  8  1  1
  8 14  1  0
  4  5  1  0
 36 28  1  1
 33 30  1  1
 30 38  1  0
 34 31  1  6
 31 39  1  0
 35 32  1  1
 32 40  1  0
 41 43  1  0
 15 19  2  0
 42 43  2  0
 16 22  2  0
 12 17  1  6
 17 19  1  0
 17 20  1  0
 18 19  1  0
 18 22  1  0
 18 23  1  0
  9 10  1  0
  9 11  1  0
 10 12  1  0
 11  5  1  6
 33 34  1  0
 33 35  1  0
 34 36  1  0
 35 37  1  0
 37 43  1  1
 20 21  2  0
 21 22  1  0
M  CHG  3   2  -1  26  -1  41  -1
M  END
>  <COMPND>  (165) 
    udp_gluA.pdb 

>  <AUTHOR>  (165) 
    GENERATED BY OPEN BABEL 3.1.1

>  <MASTER>  (165) 
        0    0    0    0    0    0    0    0   56    0   56    0

>  <minimizedAffinity>  (165) 
-8.52718

>  <CNNscore>  (165) 
0.7251228094

>  <CNNaffinity>  (165) 
4.5110721588

>  <CNN_VS>  (165) 
3.2710812092

>  <CNNaffinity_variance>  (165) 
0.0400744602

$$$$
166
     RDKit          3D

 43 45  0  0  0  0  0  0  0  0999 V2000
   22.5475   71.8695   -1.3847 P   0  0  2  0  0  0  0  0  0  0  0  0
   22.5726   73.1600   -2.3609 O   0  0  0  0  0  0  0  0  0  0  0  0
   23.8382   71.1079   -1.3081 O   0  0  0  0  0  0  0  0  0  0  0  0
   21.2626   71.0256   -1.8894 O   0  0  0  0  0  0  0  0  0  0  0  0
   20.6141   71.4295   -3.0814 C   0  0  0  0  0  0  0  0  0  0  0  0
   18.4645   71.8180   -4.0844 O   0  0  0  0  0  0  0  0  0  0  0  0
   17.3387   70.1176   -1.8860 O   0  0  0  0  0  0  0  0  0  0  0  0
   17.4064   68.3935   -3.9976 O   0  0  0  0  0  0  0  0  0  0  0  0
   18.5773   69.9883   -2.5843 C   0  0  1  0  0  0  0  0  0  0  0  0
   18.3386   69.4543   -3.9807 C   0  0  2  0  0  0  0  0  0  0  0  0
   19.1069   71.3880   -2.8646 C   0  0  1  0  0  0  0  0  0  0  0  0
   17.8332   70.6885   -4.7082 C   0  0  2  0  0  0  0  0  0  0  0  0
   16.9808   69.2359   -1.6957 H   0  0  0  0  0  0  0  0  0  0  0  0
   17.7748   67.6317   -3.5223 H   0  0  0  0  0  0  0  0  0  0  0  0
   16.3005   69.4119   -6.7075 O   0  0  0  0  0  0  0  0  0  0  0  0
   19.2172   70.7125  -10.0309 O   0  0  0  0  0  0  0  0  0  0  0  0
   18.1690   70.6779   -6.1039 N   0  0  0  0  0  0  0  0  0  0  0  0
   17.7552   70.0600   -8.3607 N   0  0  0  0  0  0  0  0  0  0  0  0
   17.3315   70.0070   -7.0263 C   0  0  0  0  0  0  0  0  0  0  0  0
   19.3147   71.3277   -6.5466 C   0  0  0  0  0  0  0  0  0  0  0  0
   19.7055   71.3696   -7.8219 C   0  0  0  0  0  0  0  0  0  0  0  0
   18.8868   70.6929   -8.8491 C   0  0  0  0  0  0  0  0  0  0  0  0
   17.1893   69.5984   -9.0211 H   0  0  0  0  0  0  0  0  0  0  0  0
   22.0462   72.4882    0.0219 O   0  0  0  0  0  0  0  0  0  0  0  0
   21.5686   71.7679    1.3882 P   0  0  2  0  0  0  0  0  0  0  0  0
   21.5703   70.1969    0.9982 O   0  0  0  0  0  0  0  0  0  0  0  0
   20.2595   72.2706    1.9243 O   0  0  0  0  0  0  0  0  0  0  0  0
   22.8152   71.9381    2.3980 O   0  0  0  0  0  0  0  0  0  0  0  0
   24.6416   73.4433    2.4866 O   0  0  0  0  0  0  0  0  0  0  0  0
   26.4027   69.9115    3.7086 O   0  0  0  0  0  0  0  0  0  0  0  0
   24.5087   69.9298    1.4844 O   0  0  0  0  0  0  0  0  0  0  0  0
   25.7735   71.9779    5.6542 O   0  0  0  0  0  0  0  0  0  0  0  0
   25.3438   70.8581    3.5646 C   0  0  2  0  0  0  0  0  0  0  0  0
   25.0677   71.0951    2.0796 C   0  0  2  0  0  0  0  0  0  0  0  0
   25.7789   72.1608    4.2396 C   0  0  1  0  0  0  0  0  0  0  0  0
   24.1041   72.2662    1.8824 C   0  0  1  0  0  0  0  0  0  0  0  0
   24.8364   73.3097    3.8927 C   0  0  1  0  0  0  0  0  0  0  0  0
   26.1488   69.0754    3.2870 H   0  0  0  0  0  0  0  0  0  0  0  0
   25.1148   69.1827    1.6060 H   0  0  0  0  0  0  0  0  0  0  0  0
   26.3693   71.2492    5.8883 H   0  0  0  0  0  0  0  0  0  0  0  0
   24.6271   75.6458    3.9070 O   0  0  0  0  0  0  0  0  0  0  0  0
   26.5111   74.7646    4.8414 O   0  0  0  0  0  0  0  0  0  0  0  0
   25.4381   74.6230    4.2743 C   0  0  0  0  0  0  0  0  0  0  0  0
  1  4  1  0
  1 24  1  0
  1  2  1  6
  1  3  2  0
 25 28  1  0
 25 24  1  0
 25 26  1  6
 25 27  2  0
  6 11  1  0
  6 12  1  0
 29 36  1  0
 29 37  1  0
  9  7  1  1
  7 13  1  0
 10  8  1  1
  8 14  1  0
  4  5  1  0
 36 28  1  1
 33 30  1  6
 30 38  1  0
 34 31  1  1
 31 39  1  0
 35 32  1  1
 32 40  1  0
 41 43  1  0
 15 19  2  0
 42 43  2  0
 16 22  2  0
 12 17  1  6
 17 19  1  0
 17 20  1  0
 18 19  1  0
 18 22  1  0
 18 23  1  0
  9 10  1  0
  9 11  1  0
 10 12  1  0
 11  5  1  6
 33 34  1  0
 33 35  1  0
 34 36  1  0
 35 37  1  0
 37 43  1  6
 20 21  2  0
 21 22  1  0
M  CHG  3   2  -1  26  -1  41  -1
M  END
>  <COMPND>  (166) 
    udp_gluA.pdb 

>  <AUTHOR>  (166) 
    GENERATED BY OPEN BABEL 3.1.1

>  <MASTER>  (166) 
        0    0    0    0    0    0    0    0   56    0   56    0

>  <minimizedAffinity>  (166) 
-7.34435

>  <CNNscore>  (166) 
0.6892582178

>  <CNNaffinity>  (166) 
4.5243577957

>  <CNN_VS>  (166) 
3.1184508801

>  <CNNaffinity_variance>  (166) 
0.1802095622

$$$$
167
     RDKit          3D

 43 45  0  0  0  0  0  0  0  0999 V2000
   23.4719   72.7604   -2.6927 P   0  0  2  0  0  0  0  0  0  0  0  0
   24.0433   74.2645   -2.5187 O   0  0  0  0  0  0  0  0  0  0  0  0
   24.2456   71.8948   -3.6434 O   0  0  0  0  0  0  0  0  0  0  0  0
   21.9095   72.9776   -3.0529 O   0  0  0  0  0  0  0  0  0  0  0  0
   21.2536   71.9971   -3.8358 C   0  0  0  0  0  0  0  0  0  0  0  0
   20.7894   71.3130   -6.0929 O   0  0  0  0  0  0  0  0  0  0  0  0
   21.2245   74.1805   -6.8542 O   0  0  0  0  0  0  0  0  0  0  0  0
   18.5052   73.9813   -6.8117 O   0  0  0  0  0  0  0  0  0  0  0  0
   20.6276   73.6390   -5.6756 C   0  0  1  0  0  0  0  0  0  0  0  0
   19.2448   73.1063   -5.9858 C   0  0  2  0  0  0  0  0  0  0  0  0
   21.3829   72.3694   -5.3073 C   0  0  1  0  0  0  0  0  0  0  0  0
   19.5610   71.7861   -6.6677 C   0  0  2  0  0  0  0  0  0  0  0  0
   20.7587   74.9927   -7.1091 H   0  0  0  0  0  0  0  0  0  0  0  0
   18.3292   74.8067   -6.3325 H   0  0  0  0  0  0  0  0  0  0  0  0
   17.9448   70.7034   -8.7152 O   0  0  0  0  0  0  0  0  0  0  0  0
   15.6652   68.0153   -5.7451 O   0  0  0  0  0  0  0  0  0  0  0  0
   18.5375   70.8017   -6.4574 N   0  0  0  0  0  0  0  0  0  0  0  0
   16.8103   69.3663   -7.2338 N   0  0  0  0  0  0  0  0  0  0  0  0
   17.7820   70.3235   -7.5541 C   0  0  0  0  0  0  0  0  0  0  0  0
   18.2917   70.3192   -5.1777 C   0  0  0  0  0  0  0  0  0  0  0  0
   17.3622   69.4066   -4.8880 C   0  0  0  0  0  0  0  0  0  0  0  0
   16.5286   68.8562   -5.9768 C   0  0  0  0  0  0  0  0  0  0  0  0
   16.2703   69.0200   -7.9806 H   0  0  0  0  0  0  0  0  0  0  0  0
   23.4217   72.2132   -1.1725 O   0  0  0  0  0  0  0  0  0  0  0  0
   22.2621   72.3037   -0.0496 P   0  0  2  0  0  0  0  0  0  0  0  0
   21.2637   71.0943   -0.4508 O   0  0  0  0  0  0  0  0  0  0  0  0
   21.5993   73.6475    0.0443 O   0  0  0  0  0  0  0  0  0  0  0  0
   22.9721   71.8107    1.3125 O   0  0  0  0  0  0  0  0  0  0  0  0
   23.7722   73.2473    3.0170 O   0  0  0  0  0  0  0  0  0  0  0  0
   26.0885   69.8768    3.6024 O   0  0  0  0  0  0  0  0  0  0  0  0
   25.5512   70.8537    0.9021 O   0  0  0  0  0  0  0  0  0  0  0  0
   23.8794   70.4594    5.3999 O   0  0  0  0  0  0  0  0  0  0  0  0
   24.9184   70.6055    3.2311 C   0  0  2  0  0  0  0  0  0  0  0  0
   25.2560   71.5713    2.0949 C   0  0  2  0  0  0  0  0  0  0  0  0
   24.4327   71.3781    4.4596 C   0  0  1  0  0  0  0  0  0  0  0  0
   24.0933   72.5276    1.8260 C   0  0  1  0  0  0  0  0  0  0  0  0
   23.3620   72.3998    4.0878 C   0  0  1  0  0  0  0  0  0  0  0  0
   26.4153   69.3779    2.8371 H   0  0  0  0  0  0  0  0  0  0  0  0
   26.2880   70.2448    1.0655 H   0  0  0  0  0  0  0  0  0  0  0  0
   24.5507   69.8036    5.6448 H   0  0  0  0  0  0  0  0  0  0  0  0
   24.2169   74.1597    5.3814 O   0  0  0  0  0  0  0  0  0  0  0  0
   22.1157   73.4278    5.8798 O   0  0  0  0  0  0  0  0  0  0  0  0
   23.1345   73.3614    5.2084 C   0  0  0  0  0  0  0  0  0  0  0  0
  1  4  1  0
  1 24  1  0
  1  2  1  1
  1  3  2  0
 25 28  1  0
 25 24  1  0
 25 26  1  6
 25 27  2  0
  6 11  1  0
  6 12  1  0
 29 36  1  0
 29 37  1  0
  9  7  1  6
  7 13  1  0
 10  8  1  6
  8 14  1  0
  4  5  1  0
 36 28  1  1
 33 30  1  1
 30 38  1  0
 34 31  1  6
 31 39  1  0
 35 32  1  1
 32 40  1  0
 41 43  1  0
 15 19  2  0
 42 43  2  0
 16 22  2  0
 12 17  1  1
 17 19  1  0
 17 20  1  0
 18 19  1  0
 18 22  1  0
 18 23  1  0
  9 10  1  0
  9 11  1  0
 10 12  1  0
 11  5  1  1
 33 34  1  0
 33 35  1  0
 34 36  1  0
 35 37  1  0
 37 43  1  1
 20 21  2  0
 21 22  1  0
M  CHG  3   2  -1  26  -1  41  -1
M  END
>  <COMPND>  (167) 
    udp_gluA.pdb 

>  <AUTHOR>  (167) 
    GENERATED BY OPEN BABEL 3.1.1

>  <MASTER>  (167) 
        0    0    0    0    0    0    0    0   56    0   56    0

>  <minimizedAffinity>  (167) 
-6.75134

>  <CNNscore>  (167) 
0.6453001499

>  <CNNaffinity>  (167) 
4.3165578842

>  <CNN_VS>  (167) 
2.7854754925

>  <CNNaffinity_variance>  (167) 
0.0777601823

$$$$
168
     RDKit          3D

 43 45  0  0  0  0  0  0  0  0999 V2000
   23.5710   72.7769   -3.5644 P   0  0  2  0  0  0  0  0  0  0  0  0
   23.8879   71.2436   -3.1552 O   0  0  0  0  0  0  0  0  0  0  0  0
   24.6469   73.4556   -4.3603 O   0  0  0  0  0  0  0  0  0  0  0  0
   23.1851   73.4819   -2.1601 O   0  0  0  0  0  0  0  0  0  0  0  0
   22.2237   74.5212   -2.1670 C   0  0  0  0  0  0  0  0  0  0  0  0
   21.3061   72.8026   -0.7592 O   0  0  0  0  0  0  0  0  0  0  0  0
   19.2548   74.8298    0.0620 O   0  0  0  0  0  0  0  0  0  0  0  0
   20.9963   74.8607    2.1601 O   0  0  0  0  0  0  0  0  0  0  0  0
   20.6380   75.0150   -0.2399 C   0  0  1  0  0  0  0  0  0  0  0  0
   21.4962   74.4911    0.8920 C   0  0  2  0  0  0  0  0  0  0  0  0
   21.0009   74.0711   -1.3781 C   0  0  1  0  0  0  0  0  0  0  0  0
   21.4453   72.9909    0.6580 C   0  0  2  0  0  0  0  0  0  0  0  0
   18.9995   75.4225    0.7867 H   0  0  0  0  0  0  0  0  0  0  0  0
   21.0504   75.8245    2.2606 H   0  0  0  0  0  0  0  0  0  0  0  0
   21.6139   70.2298    1.2276 O   0  0  0  0  0  0  0  0  0  0  0  0
   26.0713   70.5489    2.3564 O   0  0  0  0  0  0  0  0  0  0  0  0
   22.6376   72.3262    1.1024 N   0  0  0  0  0  0  0  0  0  0  0  0
   23.8335   70.3915    1.7903 N   0  0  0  0  0  0  0  0  0  0  0  0
   22.6156   70.9352    1.3611 C   0  0  0  0  0  0  0  0  0  0  0  0
   23.8112   73.0496    1.2762 C   0  0  0  0  0  0  0  0  0  0  0  0
   24.9644   72.5174    1.6858 C   0  0  0  0  0  0  0  0  0  0  0  0
   25.0266   71.0704    1.9784 C   0  0  0  0  0  0  0  0  0  0  0  0
   23.8424   69.4252    1.9786 H   0  0  0  0  0  0  0  0  0  0  0  0
   22.1455   72.6641   -4.3181 O   0  0  0  0  0  0  0  0  0  0  0  0
   21.6913   73.1142   -5.8029 P   0  0  2  0  0  0  0  0  0  0  0  0
   22.7684   72.3753   -6.7591 O   0  0  0  0  0  0  0  0  0  0  0  0
   21.6089   74.6006   -5.9975 O   0  0  0  0  0  0  0  0  0  0  0  0
   20.3076   72.3271   -6.0640 O   0  0  0  0  0  0  0  0  0  0  0  0
   19.6604   70.1858   -5.2861 O   0  0  0  0  0  0  0  0  0  0  0  0
   17.5978   70.4420   -8.8565 O   0  0  0  0  0  0  0  0  0  0  0  0
   20.3627   71.3673   -8.6739 O   0  0  0  0  0  0  0  0  0  0  0  0
   16.1956   70.7861   -6.3334 O   0  0  0  0  0  0  0  0  0  0  0  0
   18.2003   70.9379   -7.6611 C   0  0  2  0  0  0  0  0  0  0  0  0
   19.6945   70.6139   -7.6687 C   0  0  2  0  0  0  0  0  0  0  0  0
   17.5152   70.2627   -6.4709 C   0  0  1  0  0  0  0  0  0  0  0  0
   20.3280   70.9224   -6.3113 C   0  0  1  0  0  0  0  0  0  0  0  0
   18.2775   70.5143   -5.1731 C   0  0  1  0  0  0  0  0  0  0  0  0
   18.0172   70.8572   -9.6266 H   0  0  0  0  0  0  0  0  0  0  0  0
   19.9656   71.1767   -9.5378 H   0  0  0  0  0  0  0  0  0  0  0  0
   15.6998   70.6326   -7.1528 H   0  0  0  0  0  0  0  0  0  0  0  0
   16.5440   69.9254   -3.7070 O   0  0  0  0  0  0  0  0  0  0  0  0
   18.4504   68.6777   -3.6181 O   0  0  0  0  0  0  0  0  0  0  0  0
   17.8023   69.5983   -4.0927 C   0  0  0  0  0  0  0  0  0  0  0  0
  1  4  1  0
  1 24  1  0
  1  2  1  1
  1  3  2  0
 25 28  1  0
 25 24  1  0
 25 26  1  6
 25 27  2  0
  6 11  1  0
  6 12  1  0
 29 36  1  0
 29 37  1  0
  9  7  1  1
  7 13  1  0
 10  8  1  1
  8 14  1  0
  4  5  1  0
 36 28  1  1
 33 30  1  6
 30 38  1  0
 34 31  1  6
 31 39  1  0
 35 32  1  1
 32 40  1  0
 41 43  1  0
 15 19  2  0
 42 43  2  0
 16 22  2  0
 12 17  1  6
 17 19  1  0
 17 20  1  0
 18 19  1  0
 18 22  1  0
 18 23  1  0
  9 10  1  0
  9 11  1  0
 10 12  1  0
 11  5  1  1
 33 34  1  0
 33 35  1  0
 34 36  1  0
 35 37  1  0
 37 43  1  1
 20 21  2  0
 21 22  1  0
M  CHG  3   2  -1  26  -1  41  -1
M  END
>  <COMPND>  (168) 
    udp_gluA.pdb 

>  <AUTHOR>  (168) 
    GENERATED BY OPEN BABEL 3.1.1

>  <MASTER>  (168) 
        0    0    0    0    0    0    0    0   56    0   56    0

>  <minimizedAffinity>  (168) 
-7.64697

>  <CNNscore>  (168) 
0.5934931040

>  <CNNaffinity>  (168) 
4.4084310532

>  <CNN_VS>  (168) 
2.6163735390

>  <CNNaffinity_variance>  (168) 
0.0673427358

$$$$
169
     RDKit          3D

 43 45  0  0  0  0  0  0  0  0999 V2000
   23.0494   71.8054   -2.5681 P   0  0  2  0  0  0  0  0  0  0  0  0
   23.2777   73.3566   -2.1676 O   0  0  0  0  0  0  0  0  0  0  0  0
   24.2319   71.1345   -3.2033 O   0  0  0  0  0  0  0  0  0  0  0  0
   21.6951   71.8278   -3.4530 O   0  0  0  0  0  0  0  0  0  0  0  0
   21.6097   72.7362   -4.5356 C   0  0  0  0  0  0  0  0  0  0  0  0
   20.8332   70.7402   -5.6268 O   0  0  0  0  0  0  0  0  0  0  0  0
   21.3777   72.1634   -8.2094 O   0  0  0  0  0  0  0  0  0  0  0  0
   18.6755   72.4184   -7.9467 O   0  0  0  0  0  0  0  0  0  0  0  0
   20.8880   72.6872   -6.9747 C   0  0  1  0  0  0  0  0  0  0  0  0
   19.4438   72.2820   -6.7695 C   0  0  2  0  0  0  0  0  0  0  0  0
   21.5895   71.9516   -5.8411 C   0  0  1  0  0  0  0  0  0  0  0  0
   19.5820   70.8356   -6.3259 C   0  0  2  0  0  0  0  0  0  0  0  0
   20.9439   72.6182   -8.9487 H   0  0  0  0  0  0  0  0  0  0  0  0
   18.6168   73.3568   -8.1875 H   0  0  0  0  0  0  0  0  0  0  0  0
   17.0855   69.8367   -7.1897 O   0  0  0  0  0  0  0  0  0  0  0  0
   15.5946   69.3055   -2.8608 O   0  0  0  0  0  0  0  0  0  0  0  0
   18.5233   70.4287   -5.4459 N   0  0  0  0  0  0  0  0  0  0  0  0
   16.3450   69.5740   -5.0328 N   0  0  0  0  0  0  0  0  0  0  0  0
   17.3080   69.9411   -5.9820 C   0  0  0  0  0  0  0  0  0  0  0  0
   18.6945   70.5130   -4.0695 C   0  0  0  0  0  0  0  0  0  0  0  0
   17.7674   70.1592   -3.1772 C   0  0  0  0  0  0  0  0  0  0  0  0
   16.4688   69.6403   -3.6545 C   0  0  0  0  0  0  0  0  0  0  0  0
   15.4898   69.2335   -5.3821 H   0  0  0  0  0  0  0  0  0  0  0  0
   22.5640   71.1393   -1.1776 O   0  0  0  0  0  0  0  0  0  0  0  0
   21.7306   71.7581    0.0618 P   0  0  2  0  0  0  0  0  0  0  0  0
   21.1623   70.4446    0.8181 O   0  0  0  0  0  0  0  0  0  0  0  0
   20.6740   72.7466   -0.3389 O   0  0  0  0  0  0  0  0  0  0  0  0
   22.8549   72.3468    1.0577 O   0  0  0  0  0  0  0  0  0  0  0  0
   22.7406   72.2158    3.4197 O   0  0  0  0  0  0  0  0  0  0  0  0
   25.2516   75.4514    2.8778 O   0  0  0  0  0  0  0  0  0  0  0  0
   22.8767   75.1240    1.2084 O   0  0  0  0  0  0  0  0  0  0  0  0
   26.3387   72.8808    3.6910 O   0  0  0  0  0  0  0  0  0  0  0  0
   24.6633   74.1905    2.5584 C   0  0  2  0  0  0  0  0  0  0  0  0
   23.1549   74.3609    2.3766 C   0  0  2  0  0  0  0  0  0  0  0  0
   24.9551   73.2269    3.7109 C   0  0  1  0  0  0  0  0  0  0  0  0
   22.4609   73.0030    2.2615 C   0  0  1  0  0  0  0  0  0  0  0  0
   24.1307   71.9485    3.5905 C   0  0  1  0  0  0  0  0  0  0  0  0
   25.0790   76.0802    2.1594 H   0  0  0  0  0  0  0  0  0  0  0  0
   23.3143   75.9869    1.2746 H   0  0  0  0  0  0  0  0  0  0  0  0
   26.8745   73.6858    3.7668 H   0  0  0  0  0  0  0  0  0  0  0  0
   25.2215   70.3161    4.8739 O   0  0  0  0  0  0  0  0  0  0  0  0
   23.3671   71.2846    5.7808 O   0  0  0  0  0  0  0  0  0  0  0  0
   24.1687   71.1707    4.8656 C   0  0  0  0  0  0  0  0  0  0  0  0
  1  4  1  0
  1 24  1  0
  1  2  1  1
  1  3  2  0
 25 28  1  0
 25 24  1  0
 25 26  1  1
 25 27  2  0
  6 11  1  0
  6 12  1  0
 29 36  1  0
 29 37  1  0
  9  7  1  6
  7 13  1  0
 10  8  1  6
  8 14  1  0
  4  5  1  0
 36 28  1  6
 33 30  1  1
 30 38  1  0
 34 31  1  6
 31 39  1  0
 35 32  1  6
 32 40  1  0
 41 43  1  0
 15 19  2  0
 42 43  2  0
 16 22  2  0
 12 17  1  1
 17 19  1  0
 17 20  1  0
 18 19  1  0
 18 22  1  0
 18 23  1  0
  9 10  1  0
  9 11  1  0
 10 12  1  0
 11  5  1  1
 33 34  1  0
 33 35  1  0
 34 36  1  0
 35 37  1  0
 37 43  1  1
 20 21  2  0
 21 22  1  0
M  CHG  3   2  -1  26  -1  41  -1
M  END
>  <COMPND>  (169) 
    udp_gluA.pdb 

>  <AUTHOR>  (169) 
    GENERATED BY OPEN BABEL 3.1.1

>  <MASTER>  (169) 
        0    0    0    0    0    0    0    0   56    0   56    0

>  <minimizedAffinity>  (169) 
-7.67392

>  <CNNscore>  (169) 
0.5551976562

>  <CNNaffinity>  (169) 
4.1959414482

>  <CNN_VS>  (169) 
2.3295769691

>  <CNNaffinity_variance>  (169) 
0.1300642043

$$$$
170
     RDKit          3D

 43 45  0  0  0  0  0  0  0  0999 V2000
   23.5117   71.9602   -3.2004 P   0  0  2  0  0  0  0  0  0  0  0  0
   24.1927   73.0868   -4.1417 O   0  0  0  0  0  0  0  0  0  0  0  0
   24.3304   70.7178   -3.0060 O   0  0  0  0  0  0  0  0  0  0  0  0
   22.0474   71.7418   -3.8532 O   0  0  0  0  0  0  0  0  0  0  0  0
   21.6353   72.6081   -4.8944 C   0  0  0  0  0  0  0  0  0  0  0  0
   20.7528   70.6128   -5.9032 O   0  0  0  0  0  0  0  0  0  0  0  0
   21.1389   71.9961   -8.5355 O   0  0  0  0  0  0  0  0  0  0  0  0
   18.4660   72.2998   -8.0892 O   0  0  0  0  0  0  0  0  0  0  0  0
   20.7448   72.5426   -7.2767 C   0  0  1  0  0  0  0  0  0  0  0  0
   19.3120   72.1642   -6.9665 C   0  0  2  0  0  0  0  0  0  0  0  0
   21.5116   71.8087   -6.1851 C   0  0  1  0  0  0  0  0  0  0  0  0
   19.4577   70.7211   -6.5149 C   0  0  2  0  0  0  0  0  0  0  0  0
   20.6620   72.4495   -9.2487 H   0  0  0  0  0  0  0  0  0  0  0  0
   18.4057   73.2361   -8.3374 H   0  0  0  0  0  0  0  0  0  0  0  0
   16.8710   69.8098   -7.1897 O   0  0  0  0  0  0  0  0  0  0  0  0
   15.6983   69.2964   -2.7619 O   0  0  0  0  0  0  0  0  0  0  0  0
   18.4564   70.3425   -5.5583 N   0  0  0  0  0  0  0  0  0  0  0  0
   16.2891   69.5559   -4.9837 N   0  0  0  0  0  0  0  0  0  0  0  0
   17.1884   69.8984   -6.0021 C   0  0  0  0  0  0  0  0  0  0  0  0
   18.7349   70.4114   -4.1987 C   0  0  0  0  0  0  0  0  0  0  0  0
   17.8675   70.0815   -3.2398 C   0  0  0  0  0  0  0  0  0  0  0  0
   16.5199   69.6084   -3.6186 C   0  0  0  0  0  0  0  0  0  0  0  0
   15.3990   69.2458   -5.2681 H   0  0  0  0  0  0  0  0  0  0  0  0
   23.1862   72.7717   -1.8409 O   0  0  0  0  0  0  0  0  0  0  0  0
   22.0402   72.5517   -0.7220 P   0  0  2  0  0  0  0  0  0  0  0  0
   21.4799   71.0694   -1.0529 O   0  0  0  0  0  0  0  0  0  0  0  0
   20.9863   73.6207   -0.7013 O   0  0  0  0  0  0  0  0  0  0  0  0
   22.8484   72.3814    0.6637 O   0  0  0  0  0  0  0  0  0  0  0  0
   23.6387   70.6723    2.1002 O   0  0  0  0  0  0  0  0  0  0  0  0
   21.6951   73.1702    4.7555 O   0  0  0  0  0  0  0  0  0  0  0  0
   20.5085   72.5605    2.1565 O   0  0  0  0  0  0  0  0  0  0  0  0
   24.5992   73.1552    4.6251 O   0  0  0  0  0  0  0  0  0  0  0  0
   22.4474   72.8419    3.5875 C   0  0  2  0  0  0  0  0  0  0  0  0
   21.6365   71.8904    2.7072 C   0  0  2  0  0  0  0  0  0  0  0  0
   23.7489   72.1733    4.0357 C   0  0  1  0  0  0  0  0  0  0  0  0
   22.4924   71.3366    1.5672 C   0  0  1  0  0  0  0  0  0  0  0  0
   24.4820   71.5363    2.8588 C   0  0  1  0  0  0  0  0  0  0  0  0
   20.8632   73.5964    4.4953 H   0  0  0  0  0  0  0  0  0  0  0  0
   19.9611   72.9147    2.8744 H   0  0  0  0  0  0  0  0  0  0  0  0
   24.1443   73.5684    5.3755 H   0  0  0  0  0  0  0  0  0  0  0  0
   26.6808   71.3148    3.6449 O   0  0  0  0  0  0  0  0  0  0  0  0
   25.4501   69.4056    3.4455 O   0  0  0  0  0  0  0  0  0  0  0  0
   25.5585   70.6179    3.3385 C   0  0  0  0  0  0  0  0  0  0  0  0
  1  4  1  0
  1 24  1  0
  1  2  1  6
  1  3  2  0
 25 28  1  0
 25 24  1  0
 25 26  1  6
 25 27  2  0
  6 11  1  0
  6 12  1  0
 29 36  1  0
 29 37  1  0
  9  7  1  6
  7 13  1  0
 10  8  1  6
  8 14  1  0
  4  5  1  0
 36 28  1  6
 33 30  1  1
 30 38  1  0
 34 31  1  6
 31 39  1  0
 35 32  1  6
 32 40  1  0
 41 43  1  0
 15 19  2  0
 42 43  2  0
 16 22  2  0
 12 17  1  1
 17 19  1  0
 17 20  1  0
 18 19  1  0
 18 22  1  0
 18 23  1  0
  9 10  1  0
  9 11  1  0
 10 12  1  0
 11  5  1  1
 33 34  1  0
 33 35  1  0
 34 36  1  0
 35 37  1  0
 37 43  1  1
 20 21  2  0
 21 22  1  0
M  CHG  3   2  -1  26  -1  41  -1
M  END
>  <COMPND>  (170) 
    udp_gluA.pdb 

>  <AUTHOR>  (170) 
    GENERATED BY OPEN BABEL 3.1.1

>  <MASTER>  (170) 
        0    0    0    0    0    0    0    0   56    0   56    0

>  <minimizedAffinity>  (170) 
-8.11161

>  <CNNscore>  (170) 
0.5473372936

>  <CNNaffinity>  (170) 
4.2226157188

>  <CNN_VS>  (170) 
2.3111951351

>  <CNNaffinity_variance>  (170) 
0.1703114957

$$$$
171
     RDKit          3D

 43 45  0  0  0  0  0  0  0  0999 V2000
   23.1921   71.7532   -2.5530 P   0  0  2  0  0  0  0  0  0  0  0  0
   23.4874   73.3197   -2.2745 O   0  0  0  0  0  0  0  0  0  0  0  0
   24.3255   70.9968   -3.1815 O   0  0  0  0  0  0  0  0  0  0  0  0
   21.8052   71.7614   -3.3863 O   0  0  0  0  0  0  0  0  0  0  0  0
   21.6549   72.6953   -4.4397 C   0  0  0  0  0  0  0  0  0  0  0  0
   20.8335   70.7404   -5.5716 O   0  0  0  0  0  0  0  0  0  0  0  0
   21.3678   72.2214   -8.1236 O   0  0  0  0  0  0  0  0  0  0  0  0
   18.6734   72.5110   -7.8195 O   0  0  0  0  0  0  0  0  0  0  0  0
   20.9019   72.7206   -6.8697 C   0  0  1  0  0  0  0  0  0  0  0  0
   19.4542   72.3324   -6.6562 C   0  0  2  0  0  0  0  0  0  0  0  0
   21.6059   71.9452   -5.7645 C   0  0  1  0  0  0  0  0  0  0  0  0
   19.5753   70.8731   -6.2517 C   0  0  2  0  0  0  0  0  0  0  0  0
   20.9319   72.7018   -8.8453 H   0  0  0  0  0  0  0  0  0  0  0  0
   18.6264   73.4561   -8.0353 H   0  0  0  0  0  0  0  0  0  0  0  0
   17.0960   69.8259   -7.1079 O   0  0  0  0  0  0  0  0  0  0  0  0
   15.6060   69.3208   -2.7756 O   0  0  0  0  0  0  0  0  0  0  0  0
   18.5215   70.4599   -5.3688 N   0  0  0  0  0  0  0  0  0  0  0  0
   16.3559   69.5763   -4.9494 N   0  0  0  0  0  0  0  0  0  0  0  0
   17.3148   69.9475   -5.9012 C   0  0  0  0  0  0  0  0  0  0  0  0
   18.6890   70.5623   -3.9931 C   0  0  0  0  0  0  0  0  0  0  0  0
   17.7659   70.2044   -3.0984 C   0  0  0  0  0  0  0  0  0  0  0  0
   16.4763   69.6601   -3.5717 C   0  0  0  0  0  0  0  0  0  0  0  0
   15.5067   69.2186   -5.2962 H   0  0  0  0  0  0  0  0  0  0  0  0
   22.7403   71.2054   -1.1009 O   0  0  0  0  0  0  0  0  0  0  0  0
   21.7528   71.8378    0.0120 P   0  0  2  0  0  0  0  0  0  0  0  0
   20.8097   70.5879    0.4228 O   0  0  0  0  0  0  0  0  0  0  0  0
   21.0022   73.0531   -0.4502 O   0  0  0  0  0  0  0  0  0  0  0  0
   22.6913   72.0808    1.3014 O   0  0  0  0  0  0  0  0  0  0  0  0
   22.0855   74.1676    2.2434 O   0  0  0  0  0  0  0  0  0  0  0  0
   25.0844   72.9295    4.8011 O   0  0  0  0  0  0  0  0  0  0  0  0
   25.3592   72.5734    1.9145 O   0  0  0  0  0  0  0  0  0  0  0  0
   22.3024   72.7704    5.6291 O   0  0  0  0  0  0  0  0  0  0  0  0
   23.9854   72.7648    3.9050 C   0  0  2  0  0  0  0  0  0  0  0  0
   24.3455   73.3518    2.5400 C   0  0  2  0  0  0  0  0  0  0  0  0
   22.7786   73.4961    4.4973 C   0  0  1  0  0  0  0  0  0  0  0  0
   23.1207   73.4019    1.6257 C   0  0  1  0  0  0  0  0  0  0  0  0
   21.6457   73.6147    3.4819 C   0  0  1  0  0  0  0  0  0  0  0  0
   25.8631   72.4730    4.4453 H   0  0  0  0  0  0  0  0  0  0  0  0
   26.1393   72.5371    2.4894 H   0  0  0  0  0  0  0  0  0  0  0  0
   23.0140   72.6877    6.2830 H   0  0  0  0  0  0  0  0  0  0  0  0
   19.7671   74.0227    4.8259 O   0  0  0  0  0  0  0  0  0  0  0  0
   20.5546   75.7643    3.5826 O   0  0  0  0  0  0  0  0  0  0  0  0
   20.6206   74.5988    3.9434 C   0  0  0  0  0  0  0  0  0  0  0  0
  1  4  1  0
  1 24  1  0
  1  2  1  1
  1  3  2  0
 25 28  1  0
 25 24  1  0
 25 26  1  1
 25 27  2  0
  6 11  1  0
  6 12  1  0
 29 36  1  0
 29 37  1  0
  9  7  1  6
  7 13  1  0
 10  8  1  6
  8 14  1  0
  4  5  1  0
 36 28  1  1
 33 30  1  1
 30 38  1  0
 34 31  1  6
 31 39  1  0
 35 32  1  1
 32 40  1  0
 41 43  1  0
 15 19  2  0
 42 43  2  0
 16 22  2  0
 12 17  1  1
 17 19  1  0
 17 20  1  0
 18 19  1  0
 18 22  1  0
 18 23  1  0
  9 10  1  0
  9 11  1  0
 10 12  1  0
 11  5  1  1
 33 34  1  0
 33 35  1  0
 34 36  1  0
 35 37  1  0
 37 43  1  1
 20 21  2  0
 21 22  1  0
M  CHG  3   2  -1  26  -1  41  -1
M  END
>  <COMPND>  (171) 
    udp_gluA.pdb 

>  <AUTHOR>  (171) 
    GENERATED BY OPEN BABEL 3.1.1

>  <MASTER>  (171) 
        0    0    0    0    0    0    0    0   56    0   56    0

>  <minimizedAffinity>  (171) 
-7.26955

>  <CNNscore>  (171) 
0.5244418383

>  <CNNaffinity>  (171) 
4.1664013863

>  <CNN_VS>  (171) 
2.1850352287

>  <CNNaffinity_variance>  (171) 
0.3150742054

$$$$
172
     RDKit          3D

 43 45  0  0  0  0  0  0  0  0999 V2000
   22.3075   71.1519    0.7466 P   0  0  2  0  0  0  0  0  0  0  0  0
   20.7969   70.6161    0.5228 O   0  0  0  0  0  0  0  0  0  0  0  0
   23.2434   70.1631    1.3776 O   0  0  0  0  0  0  0  0  0  0  0  0
   22.1113   72.5438    1.5479 O   0  0  0  0  0  0  0  0  0  0  0  0
   23.1121   72.9418    2.4668 C   0  0  0  0  0  0  0  0  0  0  0  0
   23.7082   71.6303    4.3909 O   0  0  0  0  0  0  0  0  0  0  0  0
   21.7326   73.2990    5.9088 O   0  0  0  0  0  0  0  0  0  0  0  0
   24.1192   74.4171    6.6087 O   0  0  0  0  0  0  0  0  0  0  0  0
   22.6114   73.6791    4.8497 C   0  0  1  0  0  0  0  0  0  0  0  0
   24.0352   73.7689    5.3568 C   0  0  2  0  0  0  0  0  0  0  0  0
   22.6952   72.5173    3.8691 C   0  0  1  0  0  0  0  0  0  0  0  0
   24.4376   72.3057    5.4278 C   0  0  2  0  0  0  0  0  0  0  0  0
   21.6631   74.0256    6.5483 H   0  0  0  0  0  0  0  0  0  0  0  0
   23.8533   75.3454    6.5106 H   0  0  0  0  0  0  0  0  0  0  0  0
   26.4289   72.7601    7.3783 O   0  0  0  0  0  0  0  0  0  0  0  0
   29.8007   71.5331    4.4853 O   0  0  0  0  0  0  0  0  0  0  0  0
   25.8436   72.1129    5.2111 N   0  0  0  0  0  0  0  0  0  0  0  0
   28.1064   72.1495    5.9353 N   0  0  0  0  0  0  0  0  0  0  0  0
   26.7608   72.3700    6.2574 C   0  0  0  0  0  0  0  0  0  0  0  0
   26.3009   71.6726    3.9750 C   0  0  0  0  0  0  0  0  0  0  0  0
   27.5866   71.4668    3.6830 C   0  0  0  0  0  0  0  0  0  0  0  0
   28.6096   71.7128    4.7205 C   0  0  0  0  0  0  0  0  0  0  0  0
   28.7639   72.3237    6.6471 H   0  0  0  0  0  0  0  0  0  0  0  0
   22.7416   71.6415   -0.7314 O   0  0  0  0  0  0  0  0  0  0  0  0
   22.0173   72.6435   -1.7730 P   0  0  2  0  0  0  0  0  0  0  0  0
   23.1360   72.8522   -2.9243 O   0  0  0  0  0  0  0  0  0  0  0  0
   21.5195   73.9185   -1.1562 O   0  0  0  0  0  0  0  0  0  0  0  0
   20.8734   71.7479   -2.4744 O   0  0  0  0  0  0  0  0  0  0  0  0
   19.5251   71.9886   -4.4066 O   0  0  0  0  0  0  0  0  0  0  0  0
   16.8475   70.3686   -1.7095 O   0  0  0  0  0  0  0  0  0  0  0  0
   18.7124   72.4558   -0.8727 O   0  0  0  0  0  0  0  0  0  0  0  0
   17.9829   68.7129   -3.8121 O   0  0  0  0  0  0  0  0  0  0  0  0
   18.1266   70.5869   -2.3046 C   0  0  2  0  0  0  0  0  0  0  0  0
   18.4822   72.0717   -2.2233 C   0  0  2  0  0  0  0  0  0  0  0  0
   18.0516   70.1368   -3.7654 C   0  0  1  0  0  0  0  0  0  0  0  0
   19.7317   72.3811   -3.0491 C   0  0  1  0  0  0  0  0  0  0  0  0
   19.2773   70.5920   -4.5522 C   0  0  1  0  0  0  0  0  0  0  0  0
   16.8711   70.6474   -0.7805 H   0  0  0  0  0  0  0  0  0  0  0  0
   17.9237   72.2620   -0.3429 H   0  0  0  0  0  0  0  0  0  0  0  0
   17.2070   68.4102   -3.3147 H   0  0  0  0  0  0  0  0  0  0  0  0
   20.2078   70.6178   -6.7051 O   0  0  0  0  0  0  0  0  0  0  0  0
   17.9730   70.1955   -6.5429 O   0  0  0  0  0  0  0  0  0  0  0  0
   19.0499   70.4431   -6.0213 C   0  0  0  0  0  0  0  0  0  0  0  0
  1  4  1  0
  1 24  1  0
  1  2  1  6
  1  3  2  0
 25 28  1  0
 25 24  1  0
 25 26  1  6
 25 27  2  0
  6 11  1  0
  6 12  1  0
 29 36  1  0
 29 37  1  0
  9  7  1  1
  7 13  1  0
 10  8  1  1
  8 14  1  0
  4  5  1  0
 36 28  1  1
 33 30  1  6
 30 38  1  0
 34 31  1  1
 31 39  1  0
 35 32  1  1
 32 40  1  0
 41 43  1  0
 15 19  2  0
 42 43  2  0
 16 22  2  0
 12 17  1  6
 17 19  1  0
 17 20  1  0
 18 19  1  0
 18 22  1  0
 18 23  1  0
  9 10  1  0
  9 11  1  0
 10 12  1  0
 11  5  1  6
 33 34  1  0
 33 35  1  0
 34 36  1  0
 35 37  1  0
 37 43  1  6
 20 21  2  0
 21 22  1  0
M  CHG  3   2  -1  26  -1  41  -1
M  END
>  <COMPND>  (172) 
    udp_gluA.pdb 

>  <AUTHOR>  (172) 
    GENERATED BY OPEN BABEL 3.1.1

>  <MASTER>  (172) 
        0    0    0    0    0    0    0    0   56    0   56    0

>  <minimizedAffinity>  (172) 
-6.41140

>  <CNNscore>  (172) 
0.4875843227

>  <CNNaffinity>  (172) 
4.1507043839

>  <CNN_VS>  (172) 
2.0238184929

>  <CNNaffinity_variance>  (172) 
0.1124391779

$$$$
173
     RDKit          3D

 43 45  0  0  0  0  0  0  0  0999 V2000
   23.6172   72.6281   -3.6237 P   0  0  2  0  0  0  0  0  0  0  0  0
   24.1332   71.1274   -3.3067 O   0  0  0  0  0  0  0  0  0  0  0  0
   24.6908   73.5945   -4.0302 O   0  0  0  0  0  0  0  0  0  0  0  0
   22.7687   73.0335   -2.3070 O   0  0  0  0  0  0  0  0  0  0  0  0
   23.3261   72.7634   -1.0339 C   0  0  0  0  0  0  0  0  0  0  0  0
   23.5912   70.9368    0.5059 O   0  0  0  0  0  0  0  0  0  0  0  0
   20.6276   70.5483    0.2661 O   0  0  0  0  0  0  0  0  0  0  0  0
   20.8651   71.8702    2.6393 O   0  0  0  0  0  0  0  0  0  0  0  0
   21.3831   71.7599    0.2662 C   0  0  1  0  0  0  0  0  0  0  0  0
   21.8672   72.0755    1.6655 C   0  0  2  0  0  0  0  0  0  0  0  0
   22.6892   71.4991   -0.4716 C   0  0  1  0  0  0  0  0  0  0  0  0
   23.0362   71.1174    1.8184 C   0  0  2  0  0  0  0  0  0  0  0  0
   19.7883   70.6902    0.7321 H   0  0  0  0  0  0  0  0  0  0  0  0
   20.1437   72.5042    2.4994 H   0  0  0  0  0  0  0  0  0  0  0  0
   23.4805   73.8631    2.3087 O   0  0  0  0  0  0  0  0  0  0  0  0
   26.9743   72.9722    5.1798 O   0  0  0  0  0  0  0  0  0  0  0  0
   24.0552   71.6308    2.6896 N   0  0  0  0  0  0  0  0  0  0  0  0
   25.2208   73.4168    3.7374 N   0  0  0  0  0  0  0  0  0  0  0  0
   24.1945   73.0277    2.8666 C   0  0  0  0  0  0  0  0  0  0  0  0
   24.9015   70.7550    3.3587 C   0  0  0  0  0  0  0  0  0  0  0  0
   25.8752   71.1409    4.1857 C   0  0  0  0  0  0  0  0  0  0  0  0
   26.0882   72.5834    4.4249 C   0  0  0  0  0  0  0  0  0  0  0  0
   25.3385   74.3846    3.8749 H   0  0  0  0  0  0  0  0  0  0  0  0
   22.4693   72.3897   -4.7366 O   0  0  0  0  0  0  0  0  0  0  0  0
   20.9197   71.9541   -4.5865 P   0  0  2  0  0  0  0  0  0  0  0  0
   20.1747   73.3497   -4.2437 O   0  0  0  0  0  0  0  0  0  0  0  0
   20.6811   70.8630   -3.5833 O   0  0  0  0  0  0  0  0  0  0  0  0
   20.4474   71.5984   -6.0875 O   0  0  0  0  0  0  0  0  0  0  0  0
   18.1714   70.9566   -5.9569 O   0  0  0  0  0  0  0  0  0  0  0  0
   18.8927   70.6748  -10.0150 O   0  0  0  0  0  0  0  0  0  0  0  0
   20.8686   69.7141   -8.0895 O   0  0  0  0  0  0  0  0  0  0  0  0
   17.3829   72.9210   -8.9538 O   0  0  0  0  0  0  0  0  0  0  0  0
   19.0496   71.2002   -8.6969 C   0  0  2  0  0  0  0  0  0  0  0  0
   19.5377   70.0949   -7.7602 C   0  0  2  0  0  0  0  0  0  0  0  0
   17.6902   71.7288   -8.2336 C   0  0  1  0  0  0  0  0  0  0  0  0
   19.4978   70.5559   -6.3025 C   0  0  1  0  0  0  0  0  0  0  0  0
   17.6958   72.0480   -6.7414 C   0  0  1  0  0  0  0  0  0  0  0  0
   19.7441   70.3329  -10.3304 H   0  0  0  0  0  0  0  0  0  0  0  0
   20.9013   69.4207   -9.0132 H   0  0  0  0  0  0  0  0  0  0  0  0
   17.3763   72.7315   -9.9051 H   0  0  0  0  0  0  0  0  0  0  0  0
   15.7029   73.2777   -6.8743 O   0  0  0  0  0  0  0  0  0  0  0  0
   15.7712   71.5672   -5.3681 O   0  0  0  0  0  0  0  0  0  0  0  0
   16.3036   72.2433   -6.2355 C   0  0  0  0  0  0  0  0  0  0  0  0
  1  4  1  0
  1 24  1  0
  1  2  1  1
  1  3  2  0
 25 28  1  0
 25 24  1  0
 25 26  1  1
 25 27  2  0
  6 11  1  0
  6 12  1  0
 29 36  1  0
 29 37  1  0
  9  7  1  1
  7 13  1  0
 10  8  1  1
  8 14  1  0
  4  5  1  0
 36 28  1  6
 33 30  1  6
 30 38  1  0
 34 31  1  6
 31 39  1  0
 35 32  1  6
 32 40  1  0
 41 43  1  0
 15 19  2  0
 42 43  2  0
 16 22  2  0
 12 17  1  1
 17 19  1  0
 17 20  1  0
 18 19  1  0
 18 22  1  0
 18 23  1  0
  9 10  1  0
  9 11  1  0
 10 12  1  0
 11  5  1  1
 33 34  1  0
 33 35  1  0
 34 36  1  0
 35 37  1  0
 37 43  1  1
 20 21  2  0
 21 22  1  0
M  CHG  3   2  -1  26  -1  41  -1
M  END
>  <COMPND>  (173) 
    udp_gluA.pdb 

>  <AUTHOR>  (173) 
    GENERATED BY OPEN BABEL 3.1.1

>  <MASTER>  (173) 
        0    0    0    0    0    0    0    0   56    0   56    0

>  <minimizedAffinity>  (173) 
-7.71523

>  <CNNscore>  (173) 
0.4778600931

>  <CNNaffinity>  (173) 
4.1710677147

>  <CNN_VS>  (173) 
1.9931868315

>  <CNNaffinity_variance>  (173) 
0.0520528331

$$$$
174
     RDKit          3D

 43 45  0  0  0  0  0  0  0  0999 V2000
   23.2644   72.0835   -2.8455 P   0  0  2  0  0  0  0  0  0  0  0  0
   24.3684   70.9468   -3.1741 O   0  0  0  0  0  0  0  0  0  0  0  0
   23.8080   73.4761   -2.7159 O   0  0  0  0  0  0  0  0  0  0  0  0
   22.4891   71.5082   -1.5471 O   0  0  0  0  0  0  0  0  0  0  0  0
   23.1934   71.4227   -0.3219 C   0  0  0  0  0  0  0  0  0  0  0  0
   22.8962   70.5644    1.9036 O   0  0  0  0  0  0  0  0  0  0  0  0
   20.3683   72.1750    1.9870 O   0  0  0  0  0  0  0  0  0  0  0  0
   22.1092   73.7247    3.4026 O   0  0  0  0  0  0  0  0  0  0  0  0
   21.6175   72.4854    1.3692 C   0  0  1  0  0  0  0  0  0  0  0  0
   22.6416   72.8630    2.4185 C   0  0  2  0  0  0  0  0  0  0  0  0
   22.1976   71.1943    0.8080 C   0  0  1  0  0  0  0  0  0  0  0  0
   23.0336   71.5065    2.9791 C   0  0  2  0  0  0  0  0  0  0  0  0
   19.9783   72.9847    2.3532 H   0  0  0  0  0  0  0  0  0  0  0  0
   21.8756   74.5745    2.9961 H   0  0  0  0  0  0  0  0  0  0  0  0
   23.7689   71.4133    5.7044 O   0  0  0  0  0  0  0  0  0  0  0  0
   28.2628   71.4088    4.6802 O   0  0  0  0  0  0  0  0  0  0  0  0
   24.3886   71.4801    3.4527 N   0  0  0  0  0  0  0  0  0  0  0  0
   26.0064   71.4121    5.1917 N   0  0  0  0  0  0  0  0  0  0  0  0
   24.6497   71.4337    4.8426 C   0  0  0  0  0  0  0  0  0  0  0  0
   25.4409   71.4985    2.5454 C   0  0  0  0  0  0  0  0  0  0  0  0
   26.7290   71.4774    2.8933 C   0  0  0  0  0  0  0  0  0  0  0  0
   27.0880   71.4297    4.3259 C   0  0  0  0  0  0  0  0  0  0  0  0
   26.2132   71.3819    6.1538 H   0  0  0  0  0  0  0  0  0  0  0  0
   22.1816   71.8909   -4.0301 O   0  0  0  0  0  0  0  0  0  0  0  0
   21.7829   72.8490   -5.2698 P   0  0  2  0  0  0  0  0  0  0  0  0
   22.8686   72.4566   -6.4046 O   0  0  0  0  0  0  0  0  0  0  0  0
   21.7440   74.3110   -4.9305 O   0  0  0  0  0  0  0  0  0  0  0  0
   20.3880   72.2513   -5.8169 O   0  0  0  0  0  0  0  0  0  0  0  0
   19.5452   70.0727   -5.4262 O   0  0  0  0  0  0  0  0  0  0  0  0
   17.7501   71.0364   -9.0202 O   0  0  0  0  0  0  0  0  0  0  0  0
   20.5531   71.7041   -8.5389 O   0  0  0  0  0  0  0  0  0  0  0  0
   16.2079   71.0956   -6.5566 O   0  0  0  0  0  0  0  0  0  0  0  0
   18.3032   71.2936   -7.7294 C   0  0  2  0  0  0  0  0  0  0  0  0
   19.7688   70.8592   -7.7049 C   0  0  2  0  0  0  0  0  0  0  0  0
   17.4950   70.4984   -6.7016 C   0  0  1  0  0  0  0  0  0  0  0  0
   20.3291   70.9043   -6.2826 C   0  0  1  0  0  0  0  0  0  0  0  0
   18.1835   70.4867   -5.3399 C   0  0  1  0  0  0  0  0  0  0  0  0
   18.2478   71.5314   -9.6899 H   0  0  0  0  0  0  0  0  0  0  0  0
   20.2030   71.6805   -9.4430 H   0  0  0  0  0  0  0  0  0  0  0  0
   15.7591   71.1094   -7.4164 H   0  0  0  0  0  0  0  0  0  0  0  0
   18.4307   69.1211   -3.4489 O   0  0  0  0  0  0  0  0  0  0  0  0
   16.4604   68.9748   -4.5873 O   0  0  0  0  0  0  0  0  0  0  0  0
   17.5752   69.4550   -4.4467 C   0  0  0  0  0  0  0  0  0  0  0  0
  1  4  1  0
  1 24  1  0
  1  2  1  6
  1  3  2  0
 25 28  1  0
 25 24  1  0
 25 26  1  6
 25 27  2  0
  6 11  1  0
  6 12  1  0
 29 36  1  0
 29 37  1  0
  9  7  1  1
  7 13  1  0
 10  8  1  1
  8 14  1  0
  4  5  1  0
 36 28  1  1
 33 30  1  6
 30 38  1  0
 34 31  1  6
 31 39  1  0
 35 32  1  1
 32 40  1  0
 41 43  1  0
 15 19  2  0
 42 43  2  0
 16 22  2  0
 12 17  1  6
 17 19  1  0
 17 20  1  0
 18 19  1  0
 18 22  1  0
 18 23  1  0
  9 10  1  0
  9 11  1  0
 10 12  1  0
 11  5  1  6
 33 34  1  0
 33 35  1  0
 34 36  1  0
 35 37  1  0
 37 43  1  1
 20 21  2  0
 21 22  1  0
M  CHG  3   2  -1  26  -1  41  -1
M  END
>  <COMPND>  (174) 
    udp_gluA.pdb 

>  <AUTHOR>  (174) 
    GENERATED BY OPEN BABEL 3.1.1

>  <MASTER>  (174) 
        0    0    0    0    0    0    0    0   56    0   56    0

>  <minimizedAffinity>  (174) 
-8.11847

>  <CNNscore>  (174) 
0.4573023319

>  <CNNaffinity>  (174) 
4.2219133377

>  <CNN_VS>  (174) 
1.9306907654

>  <CNNaffinity_variance>  (174) 
0.1302717030

$$$$
175
     RDKit          3D

 43 45  0  0  0  0  0  0  0  0999 V2000
   18.3416   70.2981   -2.9724 P   0  0  2  0  0  0  0  0  0  0  0  0
   19.3384   69.4436   -3.9184 O   0  0  0  0  0  0  0  0  0  0  0  0
   17.7647   69.5408   -1.8125 O   0  0  0  0  0  0  0  0  0  0  0  0
   17.2668   70.9251   -4.0066 O   0  0  0  0  0  0  0  0  0  0  0  0
   16.6905   70.0747   -4.9809 C   0  0  0  0  0  0  0  0  0  0  0  0
   17.2805   71.9662   -6.3418 O   0  0  0  0  0  0  0  0  0  0  0  0
   15.5132   70.7673   -8.4468 O   0  0  0  0  0  0  0  0  0  0  0  0
   18.0087   70.0675   -9.2946 O   0  0  0  0  0  0  0  0  0  0  0  0
   16.3648   70.1162   -7.5037 C   0  0  1  0  0  0  0  0  0  0  0  0
   17.8146   70.2732   -7.9110 C   0  0  2  0  0  0  0  0  0  0  0  0
   16.3125   70.9037   -6.2017 C   0  0  1  0  0  0  0  0  0  0  0  0
   18.1089   71.7014   -7.4851 C   0  0  2  0  0  0  0  0  0  0  0  0
   15.5302   70.2821   -9.2871 H   0  0  0  0  0  0  0  0  0  0  0  0
   17.8088   69.1438   -9.5154 H   0  0  0  0  0  0  0  0  0  0  0  0
   20.2972   71.2277   -9.2066 O   0  0  0  0  0  0  0  0  0  0  0  0
   23.3418   72.4660   -5.9753 O   0  0  0  0  0  0  0  0  0  0  0  0
   19.4840   71.8919   -7.1194 N   0  0  0  0  0  0  0  0  0  0  0  0
   21.8115   71.8440   -7.5952 N   0  0  0  0  0  0  0  0  0  0  0  0
   20.5077   71.6248   -8.0590 C   0  0  0  0  0  0  0  0  0  0  0  0
   19.8069   72.3397   -5.8442 C   0  0  0  0  0  0  0  0  0  0  0  0
   21.0545   72.5440   -5.4168 C   0  0  0  0  0  0  0  0  0  0  0  0
   22.1824   72.2879   -6.3363 C   0  0  0  0  0  0  0  0  0  0  0  0
   22.5413   71.6629   -8.2309 H   0  0  0  0  0  0  0  0  0  0  0  0
   19.2396   71.5778   -2.5613 O   0  0  0  0  0  0  0  0  0  0  0  0
   19.0633   72.6609   -1.3742 P   0  0  2  0  0  0  0  0  0  0  0  0
   19.5606   71.8550   -0.0613 O   0  0  0  0  0  0  0  0  0  0  0  0
   17.6793   73.2317   -1.2619 O   0  0  0  0  0  0  0  0  0  0  0  0
   20.2187   73.7542   -1.6427 O   0  0  0  0  0  0  0  0  0  0  0  0
   22.2565   72.7976   -0.9069 O   0  0  0  0  0  0  0  0  0  0  0  0
   23.5161   76.4642   -2.3342 O   0  0  0  0  0  0  0  0  0  0  0  0
   21.0660   76.2512   -0.7575 O   0  0  0  0  0  0  0  0  0  0  0  0
   23.9913   74.0527   -3.8864 O   0  0  0  0  0  0  0  0  0  0  0  0
   22.6940   75.2982   -2.2831 C   0  0  2  0  0  0  0  0  0  0  0  0
   22.0199   75.2070   -0.9139 C   0  0  2  0  0  0  0  0  0  0  0  0
   23.5880   74.0787   -2.5185 C   0  0  1  0  0  0  0  0  0  0  0  0
   21.3171   73.8600   -0.7388 C   0  0  1  0  0  0  0  0  0  0  0  0
   22.8527   72.7795   -2.2020 C   0  0  1  0  0  0  0  0  0  0  0  0
   22.9694   77.2522   -2.1872 H   0  0  0  0  0  0  0  0  0  0  0  0
   21.5050   77.1088   -0.8677 H   0  0  0  0  0  0  0  0  0  0  0  0
   24.4604   74.8741   -4.1009 H   0  0  0  0  0  0  0  0  0  0  0  0
   24.0071   71.2742   -0.8226 O   0  0  0  0  0  0  0  0  0  0  0  0
   24.3445   71.0938   -3.0704 O   0  0  0  0  0  0  0  0  0  0  0  0
   23.8102   71.6359   -2.1146 C   0  0  0  0  0  0  0  0  0  0  0  0
  1  4  1  0
  1 24  1  0
  1  2  1  6
  1  3  2  0
 25 28  1  0
 25 24  1  0
 25 26  1  1
 25 27  2  0
  6 11  1  0
  6 12  1  0
 29 36  1  0
 29 37  1  0
  9  7  1  6
  7 13  1  0
 10  8  1  6
  8 14  1  0
  4  5  1  0
 36 28  1  6
 33 30  1  1
 30 38  1  0
 34 31  1  6
 31 39  1  0
 35 32  1  6
 32 40  1  0
 41 43  1  0
 15 19  2  0
 42 43  2  0
 16 22  2  0
 12 17  1  1
 17 19  1  0
 17 20  1  0
 18 19  1  0
 18 22  1  0
 18 23  1  0
  9 10  1  0
  9 11  1  0
 10 12  1  0
 11  5  1  1
 33 34  1  0
 33 35  1  0
 34 36  1  0
 35 37  1  0
 37 43  1  1
 20 21  2  0
 21 22  1  0
M  CHG  3   2  -1  26  -1  41  -1
M  END
>  <COMPND>  (175) 
    udp_gluA.pdb 

>  <AUTHOR>  (175) 
    GENERATED BY OPEN BABEL 3.1.1

>  <MASTER>  (175) 
        0    0    0    0    0    0    0    0   56    0   56    0

>  <minimizedAffinity>  (175) 
-6.62940

>  <CNNscore>  (175) 
0.4333764613

>  <CNNaffinity>  (175) 
4.2923150063

>  <CNN_VS>  (175) 
1.8601882458

>  <CNNaffinity_variance>  (175) 
0.2802165151

$$$$
176
     RDKit          3D

 43 45  0  0  0  0  0  0  0  0999 V2000
   21.3585   71.3130   -0.1173 P   0  0  2  0  0  0  0  0  0  0  0  0
   21.2761   70.2228    1.0759 O   0  0  0  0  0  0  0  0  0  0  0  0
   22.6616   71.3412   -0.8609 O   0  0  0  0  0  0  0  0  0  0  0  0
   20.9248   72.7003    0.5934 O   0  0  0  0  0  0  0  0  0  0  0  0
   21.8631   73.7597    0.6371 C   0  0  0  0  0  0  0  0  0  0  0  0
   21.9887   73.5072    3.0242 O   0  0  0  0  0  0  0  0  0  0  0  0
   22.2769   76.4897    3.1379 O   0  0  0  0  0  0  0  0  0  0  0  0
   24.8450   75.6304    3.4575 O   0  0  0  0  0  0  0  0  0  0  0  0
   22.7828   75.5692    2.1708 C   0  0  1  0  0  0  0  0  0  0  0  0
   23.9545   74.7995    2.7426 C   0  0  2  0  0  0  0  0  0  0  0  0
   21.7445   74.4724    1.9782 C   0  0  1  0  0  0  0  0  0  0  0  0
   23.2599   73.7836    3.6333 C   0  0  2  0  0  0  0  0  0  0  0  0
   22.9232   77.2000    3.2778 H   0  0  0  0  0  0  0  0  0  0  0  0
   25.2617   76.2590    2.8466 H   0  0  0  0  0  0  0  0  0  0  0  0
   23.1217   72.0373    5.8487 O   0  0  0  0  0  0  0  0  0  0  0  0
   26.1415   69.1107    3.9620 O   0  0  0  0  0  0  0  0  0  0  0  0
   23.9994   72.5584    3.7471 N   0  0  0  0  0  0  0  0  0  0  0  0
   24.6267   70.5819    4.9073 N   0  0  0  0  0  0  0  0  0  0  0  0
   23.8582   71.7534    4.9022 C   0  0  0  0  0  0  0  0  0  0  0  0
   24.8510   72.1645    2.7221 C   0  0  0  0  0  0  0  0  0  0  0  0
   25.5769   71.0449    2.7413 C   0  0  0  0  0  0  0  0  0  0  0  0
   25.4879   70.1482    3.9124 C   0  0  0  0  0  0  0  0  0  0  0  0
   24.5467   70.0062    5.7020 H   0  0  0  0  0  0  0  0  0  0  0  0
   20.0718   70.9531   -1.0271 O   0  0  0  0  0  0  0  0  0  0  0  0
   19.2436   71.8423   -2.0934 P   0  0  2  0  0  0  0  0  0  0  0  0
   20.3796   72.3077   -3.1485 O   0  0  0  0  0  0  0  0  0  0  0  0
   18.4675   72.9726   -1.4817 O   0  0  0  0  0  0  0  0  0  0  0  0
   18.3457   70.7763   -2.9057 O   0  0  0  0  0  0  0  0  0  0  0  0
   16.9602   72.0738   -4.3220 O   0  0  0  0  0  0  0  0  0  0  0  0
   15.9501   68.2299   -5.4497 O   0  0  0  0  0  0  0  0  0  0  0  0
   16.3123   68.8988   -2.6291 O   0  0  0  0  0  0  0  0  0  0  0  0
   17.6646   69.8469   -7.1517 O   0  0  0  0  0  0  0  0  0  0  0  0
   16.8111   69.2650   -4.9750 C   0  0  2  0  0  0  0  0  0  0  0  0
   16.2417   69.8519   -3.6832 C   0  0  2  0  0  0  0  0  0  0  0  0
   16.8957   70.3433   -6.0576 C   0  0  1  0  0  0  0  0  0  0  0  0
   17.0073   71.1095   -3.2697 C   0  0  1  0  0  0  0  0  0  0  0  0
   17.5604   71.6115   -5.5299 C   0  0  1  0  0  0  0  0  0  0  0  0
   15.8810   67.5331   -4.7781 H   0  0  0  0  0  0  0  0  0  0  0  0
   15.8288   68.0980   -2.8849 H   0  0  0  0  0  0  0  0  0  0  0  0
   17.2523   69.0396   -7.4967 H   0  0  0  0  0  0  0  0  0  0  0  0
   17.4279   73.9362   -5.8119 O   0  0  0  0  0  0  0  0  0  0  0  0
   17.1283   72.6448   -7.6670 O   0  0  0  0  0  0  0  0  0  0  0  0
   17.3458   72.7531   -6.4695 C   0  0  0  0  0  0  0  0  0  0  0  0
  1  4  1  0
  1 24  1  0
  1  2  1  1
  1  3  2  0
 25 28  1  0
 25 24  1  0
 25 26  1  6
 25 27  2  0
  6 11  1  0
  6 12  1  0
 29 36  1  0
 29 37  1  0
  9  7  1  1
  7 13  1  0
 10  8  1  1
  8 14  1  0
  4  5  1  0
 36 28  1  6
 33 30  1  6
 30 38  1  0
 34 31  1  1
 31 39  1  0
 35 32  1  6
 32 40  1  0
 41 43  1  0
 15 19  2  0
 42 43  2  0
 16 22  2  0
 12 17  1  6
 17 19  1  0
 17 20  1  0
 18 19  1  0
 18 22  1  0
 18 23  1  0
  9 10  1  0
  9 11  1  0
 10 12  1  0
 11  5  1  6
 33 34  1  0
 33 35  1  0
 34 36  1  0
 35 37  1  0
 37 43  1  6
 20 21  2  0
 21 22  1  0
M  CHG  3   2  -1  26  -1  41  -1
M  END
>  <COMPND>  (176) 
    udp_gluA.pdb 

>  <AUTHOR>  (176) 
    GENERATED BY OPEN BABEL 3.1.1

>  <MASTER>  (176) 
        0    0    0    0    0    0    0    0   56    0   56    0

>  <minimizedAffinity>  (176) 
-6.67993

>  <CNNscore>  (176) 
0.4240187705

>  <CNNaffinity>  (176) 
4.0123167038

>  <CNN_VS>  (176) 
1.7012976408

>  <CNNaffinity_variance>  (176) 
0.2444833070

$$$$
177
     RDKit          3D

 43 45  0  0  0  0  0  0  0  0999 V2000
   22.1835   71.5451   -2.5335 P   0  0  2  0  0  0  0  0  0  0  0  0
   21.4099   72.9657   -2.5831 O   0  0  0  0  0  0  0  0  0  0  0  0
   23.2900   71.3910   -3.5352 O   0  0  0  0  0  0  0  0  0  0  0  0
   20.9944   70.4517   -2.6262 O   0  0  0  0  0  0  0  0  0  0  0  0
   19.9723   70.6442   -3.5868 C   0  0  0  0  0  0  0  0  0  0  0  0
   17.7207   71.4518   -3.3501 O   0  0  0  0  0  0  0  0  0  0  0  0
   17.0434   68.7134   -2.3332 O   0  0  0  0  0  0  0  0  0  0  0  0
   16.1623   68.6260   -4.9124 O   0  0  0  0  0  0  0  0  0  0  0  0
   17.9673   69.0959   -3.3524 C   0  0  1  0  0  0  0  0  0  0  0  0
   17.2243   69.5053   -4.6064 C   0  0  2  0  0  0  0  0  0  0  0  0
   18.6203   70.4041   -2.9275 C   0  0  1  0  0  0  0  0  0  0  0  0
   16.7431   70.9006   -4.2466 C   0  0  2  0  0  0  0  0  0  0  0  0
   16.6135   67.8799   -2.5824 H   0  0  0  0  0  0  0  0  0  0  0  0
   16.5203   67.7518   -5.1348 H   0  0  0  0  0  0  0  0  0  0  0  0
   14.6625   72.7684   -4.6454 O   0  0  0  0  0  0  0  0  0  0  0  0
   16.4069   74.1226   -8.6911 O   0  0  0  0  0  0  0  0  0  0  0  0
   16.6291   71.7542   -5.3952 N   0  0  0  0  0  0  0  0  0  0  0  0
   15.5327   73.4404   -6.6605 N   0  0  0  0  0  0  0  0  0  0  0  0
   15.5450   72.6575   -5.4986 C   0  0  0  0  0  0  0  0  0  0  0  0
   17.5845   71.6928   -6.4024 C   0  0  0  0  0  0  0  0  0  0  0  0
   17.5595   72.4455   -7.5040 C   0  0  0  0  0  0  0  0  0  0  0  0
   16.4597   73.4147   -7.6899 C   0  0  0  0  0  0  0  0  0  0  0  0
   14.7864   74.0754   -6.7558 H   0  0  0  0  0  0  0  0  0  0  0  0
   22.6530   71.4413   -0.9902 O   0  0  0  0  0  0  0  0  0  0  0  0
   21.8436   71.6999    0.3852 P   0  0  2  0  0  0  0  0  0  0  0  0
   20.7414   70.5143    0.3942 O   0  0  0  0  0  0  0  0  0  0  0  0
   21.2676   73.0806    0.5105 O   0  0  0  0  0  0  0  0  0  0  0  0
   22.8822   71.2992    1.5528 O   0  0  0  0  0  0  0  0  0  0  0  0
   23.2965   73.0829    3.0546 O   0  0  0  0  0  0  0  0  0  0  0  0
   26.0386   70.2640    4.3205 O   0  0  0  0  0  0  0  0  0  0  0  0
   25.6036   70.7310    1.4697 O   0  0  0  0  0  0  0  0  0  0  0  0
   23.6137   70.7323    5.8539 O   0  0  0  0  0  0  0  0  0  0  0  0
   24.8091   70.7271    3.7620 C   0  0  2  0  0  0  0  0  0  0  0  0
   25.0961   71.5575    2.5108 C   0  0  2  0  0  0  0  0  0  0  0  0
   24.1025   71.5812    4.8171 C   0  0  1  0  0  0  0  0  0  0  0  0
   23.8298   72.2588    2.0173 C   0  0  1  0  0  0  0  0  0  0  0  0
   22.9260   72.3463    4.2178 C   0  0  1  0  0  0  0  0  0  0  0  0
   26.5054   69.7188    3.6677 H   0  0  0  0  0  0  0  0  0  0  0  0
   26.4071   70.2827    1.7760 H   0  0  0  0  0  0  0  0  0  0  0  0
   24.3526   70.2394    6.2436 H   0  0  0  0  0  0  0  0  0  0  0  0
   21.2664   73.9192    4.7405 O   0  0  0  0  0  0  0  0  0  0  0  0
   23.0489   73.7786    6.1556 O   0  0  0  0  0  0  0  0  0  0  0  0
   22.4542   73.4114    5.1533 C   0  0  0  0  0  0  0  0  0  0  0  0
  1  4  1  0
  1 24  1  0
  1  2  1  1
  1  3  2  0
 25 28  1  0
 25 24  1  0
 25 26  1  6
 25 27  2  0
  6 11  1  0
  6 12  1  0
 29 36  1  0
 29 37  1  0
  9  7  1  1
  7 13  1  0
 10  8  1  1
  8 14  1  0
  4  5  1  0
 36 28  1  1
 33 30  1  1
 30 38  1  0
 34 31  1  6
 31 39  1  0
 35 32  1  1
 32 40  1  0
 41 43  1  0
 15 19  2  0
 42 43  2  0
 16 22  2  0
 12 17  1  6
 17 19  1  0
 17 20  1  0
 18 19  1  0
 18 22  1  0
 18 23  1  0
  9 10  1  0
  9 11  1  0
 10 12  1  0
 11  5  1  6
 33 34  1  0
 33 35  1  0
 34 36  1  0
 35 37  1  0
 37 43  1  1
 20 21  2  0
 21 22  1  0
M  CHG  3   2  -1  26  -1  41  -1
M  END
>  <COMPND>  (177) 
    udp_gluA.pdb 

>  <AUTHOR>  (177) 
    GENERATED BY OPEN BABEL 3.1.1

>  <MASTER>  (177) 
        0    0    0    0    0    0    0    0   56    0   56    0

>  <minimizedAffinity>  (177) 
-7.18566

>  <CNNscore>  (177) 
0.4151505232

>  <CNNaffinity>  (177) 
4.0589733124

>  <CNN_VS>  (177) 
1.6850849390

>  <CNNaffinity_variance>  (177) 
0.1244040281

$$$$
178
     RDKit          3D

 43 45  0  0  0  0  0  0  0  0999 V2000
   23.5031   72.3926   -3.4679 P   0  0  2  0  0  0  0  0  0  0  0  0
   24.1105   70.9149   -3.2101 O   0  0  0  0  0  0  0  0  0  0  0  0
   24.4828   73.3961   -4.0014 O   0  0  0  0  0  0  0  0  0  0  0  0
   22.8013   72.7750   -2.0610 O   0  0  0  0  0  0  0  0  0  0  0  0
   23.5110   72.5255   -0.8616 C   0  0  0  0  0  0  0  0  0  0  0  0
   23.8636   70.8182    0.7932 O   0  0  0  0  0  0  0  0  0  0  0  0
   20.8922   70.4184    0.7448 O   0  0  0  0  0  0  0  0  0  0  0  0
   21.2558   71.9130    2.9965 O   0  0  0  0  0  0  0  0  0  0  0  0
   21.6439   71.6252    0.6135 C   0  0  1  0  0  0  0  0  0  0  0  0
   22.2029   72.0433    1.9570 C   0  0  2  0  0  0  0  0  0  0  0  0
   22.9084   71.3077   -0.1729 C   0  0  1  0  0  0  0  0  0  0  0  0
   23.3806   71.0971    2.1169 C   0  0  2  0  0  0  0  0  0  0  0  0
   20.0793   70.5962    1.2440 H   0  0  0  0  0  0  0  0  0  0  0  0
   20.5264   72.5361    2.8493 H   0  0  0  0  0  0  0  0  0  0  0  0
   25.3860   69.6027    3.4291 O   0  0  0  0  0  0  0  0  0  0  0  0
   27.4127   73.4087    5.0573 O   0  0  0  0  0  0  0  0  0  0  0  0
   24.4444   71.6720    2.8906 N   0  0  0  0  0  0  0  0  0  0  0  0
   26.3929   71.4997    4.2396 N   0  0  0  0  0  0  0  0  0  0  0  0
   25.4006   70.8325    3.5093 C   0  0  0  0  0  0  0  0  0  0  0  0
   24.5339   73.0518    3.0291 C   0  0  0  0  0  0  0  0  0  0  0  0
   25.4856   73.6732    3.7283 C   0  0  0  0  0  0  0  0  0  0  0  0
   26.5230   72.8689    4.4066 C   0  0  0  0  0  0  0  0  0  0  0  0
   27.0688   70.9361    4.6811 H   0  0  0  0  0  0  0  0  0  0  0  0
   22.2416   72.1025   -4.4362 O   0  0  0  0  0  0  0  0  0  0  0  0
   21.6492   72.9385   -5.6867 P   0  0  2  0  0  0  0  0  0  0  0  0
   22.6399   72.5375   -6.9024 O   0  0  0  0  0  0  0  0  0  0  0  0
   21.5367   74.4155   -5.4421 O   0  0  0  0  0  0  0  0  0  0  0  0
   20.2540   72.2105   -6.0415 O   0  0  0  0  0  0  0  0  0  0  0  0
   19.5570   70.0412   -5.3952 O   0  0  0  0  0  0  0  0  0  0  0  0
   17.5102   70.5587   -8.9464 O   0  0  0  0  0  0  0  0  0  0  0  0
   20.2946   71.4090   -8.7046 O   0  0  0  0  0  0  0  0  0  0  0  0
   16.1093   70.7813   -6.4090 O   0  0  0  0  0  0  0  0  0  0  0  0
   18.1205   70.9680   -7.7224 C   0  0  2  0  0  0  0  0  0  0  0  0
   19.6070   70.6116   -7.7475 C   0  0  2  0  0  0  0  0  0  0  0  0
   17.4173   70.2376   -6.5761 C   0  0  1  0  0  0  0  0  0  0  0  0
   20.2437   70.8232   -6.3732 C   0  0  1  0  0  0  0  0  0  0  0  0
   18.1815   70.3933   -5.2645 C   0  0  1  0  0  0  0  0  0  0  0  0
   17.9409   71.0101   -9.6894 H   0  0  0  0  0  0  0  0  0  0  0  0
   19.8957   71.2799   -9.5789 H   0  0  0  0  0  0  0  0  0  0  0  0
   15.6124   70.6887   -7.2368 H   0  0  0  0  0  0  0  0  0  0  0  0
   18.6328   69.1884   -3.3033 O   0  0  0  0  0  0  0  0  0  0  0  0
   16.5734   68.9132   -4.2425 O   0  0  0  0  0  0  0  0  0  0  0  0
   17.6830   69.4247   -4.2420 C   0  0  0  0  0  0  0  0  0  0  0  0
  1  4  1  0
  1 24  1  0
  1  2  1  1
  1  3  2  0
 25 28  1  0
 25 24  1  0
 25 26  1  6
 25 27  2  0
  6 11  1  0
  6 12  1  0
 29 36  1  0
 29 37  1  0
  9  7  1  1
  7 13  1  0
 10  8  1  1
  8 14  1  0
  4  5  1  0
 36 28  1  1
 33 30  1  6
 30 38  1  0
 34 31  1  6
 31 39  1  0
 35 32  1  1
 32 40  1  0
 41 43  1  0
 15 19  2  0
 42 43  2  0
 16 22  2  0
 12 17  1  1
 17 19  1  0
 17 20  1  0
 18 19  1  0
 18 22  1  0
 18 23  1  0
  9 10  1  0
  9 11  1  0
 10 12  1  0
 11  5  1  1
 33 34  1  0
 33 35  1  0
 34 36  1  0
 35 37  1  0
 37 43  1  1
 20 21  2  0
 21 22  1  0
M  CHG  3   2  -1  26  -1  41  -1
M  END
>  <COMPND>  (178) 
    udp_gluA.pdb 

>  <AUTHOR>  (178) 
    GENERATED BY OPEN BABEL 3.1.1

>  <MASTER>  (178) 
        0    0    0    0    0    0    0    0   56    0   56    0

>  <minimizedAffinity>  (178) 
-8.49529

>  <CNNscore>  (178) 
0.4123479128

>  <CNNaffinity>  (178) 
4.1163067818

>  <CNN_VS>  (178) 
1.6973505020

>  <CNNaffinity_variance>  (178) 
0.2301541865

$$$$
179
     RDKit          3D

 43 45  0  0  0  0  0  0  0  0999 V2000
   22.6824   72.4242   -1.3187 P   0  0  2  0  0  0  0  0  0  0  0  0
   23.3226   73.8503   -1.7370 O   0  0  0  0  0  0  0  0  0  0  0  0
   23.6511   71.2786   -1.2907 O   0  0  0  0  0  0  0  0  0  0  0  0
   21.4229   72.2550   -2.3203 O   0  0  0  0  0  0  0  0  0  0  0  0
   21.3909   73.0318   -3.5035 C   0  0  0  0  0  0  0  0  0  0  0  0
   20.9416   70.8970   -4.5126 O   0  0  0  0  0  0  0  0  0  0  0  0
   21.9400   72.1041   -7.0695 O   0  0  0  0  0  0  0  0  0  0  0  0
   19.2326   72.2096   -7.3780 O   0  0  0  0  0  0  0  0  0  0  0  0
   21.1859   72.7088   -6.0187 C   0  0  1  0  0  0  0  0  0  0  0  0
   19.7492   72.2332   -6.0638 C   0  0  2  0  0  0  0  0  0  0  0  0
   21.6722   72.1288   -4.6976 C   0  0  1  0  0  0  0  0  0  0  0  0
   19.8568   70.8465   -5.4528 C   0  0  2  0  0  0  0  0  0  0  0  0
   21.6470   72.4591   -7.9238 H   0  0  0  0  0  0  0  0  0  0  0  0
   19.1836   73.1156   -7.7224 H   0  0  0  0  0  0  0  0  0  0  0  0
   17.5346   69.8607   -6.7226 O   0  0  0  0  0  0  0  0  0  0  0  0
   15.3210   69.3832   -2.7081 O   0  0  0  0  0  0  0  0  0  0  0  0
   18.6593   70.4570   -4.7635 N   0  0  0  0  0  0  0  0  0  0  0  0
   16.4340   69.6248   -4.7220 N   0  0  0  0  0  0  0  0  0  0  0  0
   17.5486   69.9747   -5.4955 C   0  0  0  0  0  0  0  0  0  0  0  0
   18.5937   70.5528   -3.3787 C   0  0  0  0  0  0  0  0  0  0  0  0
   17.5244   70.2154   -2.6553 C   0  0  0  0  0  0  0  0  0  0  0  0
   16.3212   69.7031   -3.3433 C   0  0  0  0  0  0  0  0  0  0  0  0
   15.6476   69.2883   -5.2096 H   0  0  0  0  0  0  0  0  0  0  0  0
   21.9777   72.7450    0.1002 O   0  0  0  0  0  0  0  0  0  0  0  0
   21.6039   71.7796    1.3420 P   0  0  2  0  0  0  0  0  0  0  0  0
   21.3088   70.3568    0.6286 O   0  0  0  0  0  0  0  0  0  0  0  0
   20.4804   72.2863    2.1994 O   0  0  0  0  0  0  0  0  0  0  0  0
   22.9975   71.5614    2.1247 O   0  0  0  0  0  0  0  0  0  0  0  0
   24.1699   73.4787    2.8722 O   0  0  0  0  0  0  0  0  0  0  0  0
   27.0621   70.5462    3.1940 O   0  0  0  0  0  0  0  0  0  0  0  0
   25.2998   70.6388    0.8659 O   0  0  0  0  0  0  0  0  0  0  0  0
   25.7274   71.5468    5.5748 O   0  0  0  0  0  0  0  0  0  0  0  0
   25.7371   71.0772    3.2117 C   0  0  2  0  0  0  0  0  0  0  0  0
   25.4046   71.6690    1.8417 C   0  0  2  0  0  0  0  0  0  0  0  0
   25.6768   72.1623    4.2891 C   0  0  1  0  0  0  0  0  0  0  0  0
   24.0893   72.4480    1.8869 C   0  0  1  0  0  0  0  0  0  0  0  0
   24.3902   72.9765    4.1884 C   0  0  1  0  0  0  0  0  0  0  0  0
   27.1244   69.8545    2.5165 H   0  0  0  0  0  0  0  0  0  0  0  0
   26.1308   70.1402    0.8321 H   0  0  0  0  0  0  0  0  0  0  0  0
   26.5416   71.0253    5.6518 H   0  0  0  0  0  0  0  0  0  0  0  0
   23.4661   75.0668    4.7161 O   0  0  0  0  0  0  0  0  0  0  0  0
   25.3528   74.4504    5.8384 O   0  0  0  0  0  0  0  0  0  0  0  0
   24.4839   74.2204    5.0107 C   0  0  0  0  0  0  0  0  0  0  0  0
  1  4  1  0
  1 24  1  0
  1  2  1  6
  1  3  2  0
 25 28  1  0
 25 24  1  0
 25 26  1  6
 25 27  2  0
  6 11  1  0
  6 12  1  0
 29 36  1  0
 29 37  1  0
  9  7  1  6
  7 13  1  0
 10  8  1  6
  8 14  1  0
  4  5  1  0
 36 28  1  1
 33 30  1  6
 30 38  1  0
 34 31  1  6
 31 39  1  0
 35 32  1  1
 32 40  1  0
 41 43  1  0
 15 19  2  0
 42 43  2  0
 16 22  2  0
 12 17  1  1
 17 19  1  0
 17 20  1  0
 18 19  1  0
 18 22  1  0
 18 23  1  0
  9 10  1  0
  9 11  1  0
 10 12  1  0
 11  5  1  1
 33 34  1  0
 33 35  1  0
 34 36  1  0
 35 37  1  0
 37 43  1  1
 20 21  2  0
 21 22  1  0
M  CHG  3   2  -1  26  -1  41  -1
M  END
>  <COMPND>  (179) 
    udp_gluA.pdb 

>  <AUTHOR>  (179) 
    GENERATED BY OPEN BABEL 3.1.1

>  <MASTER>  (179) 
        0    0    0    0    0    0    0    0   56    0   56    0

>  <minimizedAffinity>  (179) 
-6.73379

>  <CNNscore>  (179) 
0.4103823900

>  <CNNaffinity>  (179) 
4.1108841896

>  <CNN_VS>  (179) 
1.6870344877

>  <CNNaffinity_variance>  (179) 
0.0936563462

$$$$
180
     RDKit          3D

 43 45  0  0  0  0  0  0  0  0999 V2000
   22.1571   71.5339   -2.8998 P   0  0  2  0  0  0  0  0  0  0  0  0
   21.1999   72.8385   -2.9235 O   0  0  0  0  0  0  0  0  0  0  0  0
   23.3460   71.6037   -3.8128 O   0  0  0  0  0  0  0  0  0  0  0  0
   21.1414   70.3019   -3.1617 O   0  0  0  0  0  0  0  0  0  0  0  0
   20.0664   70.4919   -4.0632 C   0  0  0  0  0  0  0  0  0  0  0  0
   17.8653   71.3978   -3.7285 O   0  0  0  0  0  0  0  0  0  0  0  0
   17.1585   68.7438   -2.5249 O   0  0  0  0  0  0  0  0  0  0  0  0
   16.1087   68.5583   -5.0348 O   0  0  0  0  0  0  0  0  0  0  0  0
   18.0270   69.0371   -3.6195 C   0  0  1  0  0  0  0  0  0  0  0  0
   17.2190   69.4101   -4.8443 C   0  0  2  0  0  0  0  0  0  0  0  0
   18.7525   70.3389   -3.3078 C   0  0  1  0  0  0  0  0  0  0  0  0
   16.8122   70.8398   -4.5304 C   0  0  2  0  0  0  0  0  0  0  0  0
   16.6839   67.9160   -2.7011 H   0  0  0  0  0  0  0  0  0  0  0  0
   16.4201   67.6605   -5.2320 H   0  0  0  0  0  0  0  0  0  0  0  0
   14.8005   72.7906   -4.8822 O   0  0  0  0  0  0  0  0  0  0  0  0
   16.3009   73.8382   -9.1125 O   0  0  0  0  0  0  0  0  0  0  0  0
   16.6541   71.6369   -5.7138 N   0  0  0  0  0  0  0  0  0  0  0  0
   15.5491   73.3098   -6.9892 N   0  0  0  0  0  0  0  0  0  0  0  0
   15.6103   72.5892   -5.7892 C   0  0  0  0  0  0  0  0  0  0  0  0
   17.5274   71.4730   -6.7823 C   0  0  0  0  0  0  0  0  0  0  0  0
   17.4565   72.1674   -7.9196 C   0  0  0  0  0  0  0  0  0  0  0  0
   16.3941   73.1818   -8.0797 C   0  0  0  0  0  0  0  0  0  0  0  0
   14.8293   73.9772   -7.0659 H   0  0  0  0  0  0  0  0  0  0  0  0
   22.5202   71.3785   -1.3323 O   0  0  0  0  0  0  0  0  0  0  0  0
   21.7385   71.8759   -0.0074 P   0  0  2  0  0  0  0  0  0  0  0  0
   20.9259   70.5562    0.4598 O   0  0  0  0  0  0  0  0  0  0  0  0
   20.8793   73.0888   -0.2182 O   0  0  0  0  0  0  0  0  0  0  0  0
   22.8929   72.0582    1.1046 O   0  0  0  0  0  0  0  0  0  0  0  0
   24.1966   70.7833    2.6159 O   0  0  0  0  0  0  0  0  0  0  0  0
   22.6805   73.7256    5.0883 O   0  0  0  0  0  0  0  0  0  0  0  0
   20.9785   72.4542    3.0830 O   0  0  0  0  0  0  0  0  0  0  0  0
   25.4492   73.8417    4.2096 O   0  0  0  0  0  0  0  0  0  0  0  0
   23.1606   73.1730    3.8626 C   0  0  2  0  0  0  0  0  0  0  0  0
   22.2750   71.9971    3.4499 C   0  0  2  0  0  0  0  0  0  0  0  0
   24.5994   72.7027    4.0874 C   0  0  1  0  0  0  0  0  0  0  0  0
   22.8874   71.2382    2.2718 C   0  0  1  0  0  0  0  0  0  0  0  0
   25.0940   71.8475    2.9244 C   0  0  1  0  0  0  0  0  0  0  0  0
   21.7675   74.0313    4.9696 H   0  0  0  0  0  0  0  0  0  0  0  0
   20.5841   72.9369    3.8259 H   0  0  0  0  0  0  0  0  0  0  0  0
   25.1450   74.3945    4.9463 H   0  0  0  0  0  0  0  0  0  0  0  0
   26.4969   71.0757    4.6384 O   0  0  0  0  0  0  0  0  0  0  0  0
   27.1453   70.6524    2.4938 O   0  0  0  0  0  0  0  0  0  0  0  0
   26.3521   71.1298    3.2912 C   0  0  0  0  0  0  0  0  0  0  0  0
  1  4  1  0
  1 24  1  0
  1  2  1  1
  1  3  2  0
 25 28  1  0
 25 24  1  0
 25 26  1  1
 25 27  2  0
  6 11  1  0
  6 12  1  0
 29 36  1  0
 29 37  1  0
  9  7  1  1
  7 13  1  0
 10  8  1  1
  8 14  1  0
  4  5  1  0
 36 28  1  6
 33 30  1  1
 30 38  1  0
 34 31  1  6
 31 39  1  0
 35 32  1  6
 32 40  1  0
 41 43  1  0
 15 19  2  0
 42 43  2  0
 16 22  2  0
 12 17  1  6
 17 19  1  0
 17 20  1  0
 18 19  1  0
 18 22  1  0
 18 23  1  0
  9 10  1  0
  9 11  1  0
 10 12  1  0
 11  5  1  6
 33 34  1  0
 33 35  1  0
 34 36  1  0
 35 37  1  0
 37 43  1  1
 20 21  2  0
 21 22  1  0
M  CHG  3   2  -1  26  -1  41  -1
M  END
>  <COMPND>  (180) 
    udp_gluA.pdb 

>  <AUTHOR>  (180) 
    GENERATED BY OPEN BABEL 3.1.1

>  <MASTER>  (180) 
        0    0    0    0    0    0    0    0   56    0   56    0

>  <minimizedAffinity>  (180) 
-7.03519

>  <CNNscore>  (180) 
0.4101265669

>  <CNNaffinity>  (180) 
4.1917214394

>  <CNN_VS>  (180) 
1.7191363573

>  <CNNaffinity_variance>  (180) 
0.1320171058

$$$$
181
     RDKit          3D

 43 45  0  0  0  0  0  0  0  0999 V2000
   22.0562   71.7659   -3.1954 P   0  0  2  0  0  0  0  0  0  0  0  0
   21.4195   73.2431   -3.0191 O   0  0  0  0  0  0  0  0  0  0  0  0
   23.4956   71.7428   -3.6192 O   0  0  0  0  0  0  0  0  0  0  0  0
   21.0207   71.0119   -4.1839 O   0  0  0  0  0  0  0  0  0  0  0  0
   20.1587   70.0299   -3.6386 C   0  0  0  0  0  0  0  0  0  0  0  0
   18.4836   71.3775   -4.7136 O   0  0  0  0  0  0  0  0  0  0  0  0
   16.5270   70.1298   -2.8145 O   0  0  0  0  0  0  0  0  0  0  0  0
   16.0997   68.7299   -5.1152 O   0  0  0  0  0  0  0  0  0  0  0  0
   17.6677   69.5494   -3.4474 C   0  0  1  0  0  0  0  0  0  0  0  0
   17.3799   69.2903   -4.9110 C   0  0  2  0  0  0  0  0  0  0  0  0
   18.7560   70.6118   -3.5199 C   0  0  1  0  0  0  0  0  0  0  0  0
   17.5118   70.6805   -5.5093 C   0  0  2  0  0  0  0  0  0  0  0  0
   15.8181   69.4697   -2.7567 H   0  0  0  0  0  0  0  0  0  0  0  0
   16.0666   67.8456   -4.7165 H   0  0  0  0  0  0  0  0  0  0  0  0
   15.8306   70.2158   -7.7306 O   0  0  0  0  0  0  0  0  0  0  0  0
   19.3402   70.5856  -10.6954 O   0  0  0  0  0  0  0  0  0  0  0  0
   17.9600   70.6500   -6.8728 N   0  0  0  0  0  0  0  0  0  0  0  0
   17.5804   70.3994   -9.2050 N   0  0  0  0  0  0  0  0  0  0  0  0
   17.0339   70.4081   -7.9149 C   0  0  0  0  0  0  0  0  0  0  0  0
   19.3019   70.8596   -7.1667 C   0  0  0  0  0  0  0  0  0  0  0  0
   19.8078   70.8484   -8.4014 C   0  0  0  0  0  0  0  0  0  0  0  0
   18.9076   70.6020   -9.5470 C   0  0  0  0  0  0  0  0  0  0  0  0
   16.9554   70.2310   -9.9469 H   0  0  0  0  0  0  0  0  0  0  0  0
   21.7642   71.0717   -1.7651 O   0  0  0  0  0  0  0  0  0  0  0  0
   21.0871   71.6581   -0.4193 P   0  0  2  0  0  0  0  0  0  0  0  0
   20.9428   70.3494    0.5226 O   0  0  0  0  0  0  0  0  0  0  0  0
   19.8020   72.3994   -0.6490 O   0  0  0  0  0  0  0  0  0  0  0  0
   22.2500   72.5338    0.2759 O   0  0  0  0  0  0  0  0  0  0  0  0
   24.2747   73.4831   -0.5043 O   0  0  0  0  0  0  0  0  0  0  0  0
   25.3465   72.2065    3.2758 O   0  0  0  0  0  0  0  0  0  0  0  0
   23.6818   70.5257    1.5618 O   0  0  0  0  0  0  0  0  0  0  0  0
   24.8801   75.0304    2.7670 O   0  0  0  0  0  0  0  0  0  0  0  0
   24.4658   72.7093    2.2712 C   0  0  2  0  0  0  0  0  0  0  0  0
   24.3619   71.6982    1.1290 C   0  0  2  0  0  0  0  0  0  0  0  0
   25.0384   74.0331    1.7597 C   0  0  1  0  0  0  0  0  0  0  0  0
   23.6147   72.2956   -0.0642 C   0  0  1  0  0  0  0  0  0  0  0  0
   24.3218   74.4986    0.4955 C   0  0  1  0  0  0  0  0  0  0  0  0
   25.0029   71.3652    3.6158 H   0  0  0  0  0  0  0  0  0  0  0  0
   24.1503   70.1415    2.3190 H   0  0  0  0  0  0  0  0  0  0  0  0
   25.3316   74.7462    3.5771 H   0  0  0  0  0  0  0  0  0  0  0  0
   24.9919   75.4873   -1.5232 O   0  0  0  0  0  0  0  0  0  0  0  0
   25.7099   76.4700    0.4050 O   0  0  0  0  0  0  0  0  0  0  0  0
   25.0859   75.5938   -0.1746 C   0  0  0  0  0  0  0  0  0  0  0  0
  1  4  1  0
  1 24  1  0
  1  2  1  1
  1  3  2  0
 25 28  1  0
 25 24  1  0
 25 26  1  1
 25 27  2  0
  6 11  1  0
  6 12  1  0
 29 36  1  0
 29 37  1  0
  9  7  1  1
  7 13  1  0
 10  8  1  1
  8 14  1  0
  4  5  1  0
 36 28  1  1
 33 30  1  1
 30 38  1  0
 34 31  1  1
 31 39  1  0
 35 32  1  1
 32 40  1  0
 41 43  1  0
 15 19  2  0
 42 43  2  0
 16 22  2  0
 12 17  1  6
 17 19  1  0
 17 20  1  0
 18 19  1  0
 18 22  1  0
 18 23  1  0
  9 10  1  0
  9 11  1  0
 10 12  1  0
 11  5  1  6
 33 34  1  0
 33 35  1  0
 34 36  1  0
 35 37  1  0
 37 43  1  6
 20 21  2  0
 21 22  1  0
M  CHG  3   2  -1  26  -1  41  -1
M  END
>  <COMPND>  (181) 
    udp_gluA.pdb 

>  <AUTHOR>  (181) 
    GENERATED BY OPEN BABEL 3.1.1

>  <MASTER>  (181) 
        0    0    0    0    0    0    0    0   56    0   56    0

>  <minimizedAffinity>  (181) 
-7.63171

>  <CNNscore>  (181) 
0.9583224654

>  <CNNaffinity>  (181) 
5.0084567070

>  <CNN_VS>  (181) 
4.7997164726

>  <CNNaffinity_variance>  (181) 
0.0638280064

$$$$
182
     RDKit          3D

 43 45  0  0  0  0  0  0  0  0999 V2000
   23.1496   71.8056   -2.6616 P   0  0  2  0  0  0  0  0  0  0  0  0
   23.5500   73.3118   -2.2258 O   0  0  0  0  0  0  0  0  0  0  0  0
   24.2663   71.0009   -3.2593 O   0  0  0  0  0  0  0  0  0  0  0  0
   21.8473   72.0062   -3.6007 O   0  0  0  0  0  0  0  0  0  0  0  0
   21.0155   70.8882   -3.8509 C   0  0  0  0  0  0  0  0  0  0  0  0
   19.0089   71.8298   -4.7806 O   0  0  0  0  0  0  0  0  0  0  0  0
   17.5704   70.5741   -2.4686 O   0  0  0  0  0  0  0  0  0  0  0  0
   17.0512   68.8387   -4.5069 O   0  0  0  0  0  0  0  0  0  0  0  0
   18.6878   70.0853   -3.2108 C   0  0  1  0  0  0  0  0  0  0  0  0
   18.2399   69.5985   -4.5727 C   0  0  2  0  0  0  0  0  0  0  0  0
   19.5687   71.2738   -3.5712 C   0  0  1  0  0  0  0  0  0  0  0  0
   18.0590   70.9029   -5.3301 C   0  0  2  0  0  0  0  0  0  0  0  0
   16.9930   69.8326   -2.2270 H   0  0  0  0  0  0  0  0  0  0  0  0
   17.2185   68.0186   -4.0155 H   0  0  0  0  0  0  0  0  0  0  0  0
   16.1443   70.0093   -7.2041 O   0  0  0  0  0  0  0  0  0  0  0  0
   19.1222   70.3886  -10.7015 O   0  0  0  0  0  0  0  0  0  0  0  0
   18.3072   70.7589   -6.7367 N   0  0  0  0  0  0  0  0  0  0  0  0
   17.6296   70.1981   -8.9441 N   0  0  0  0  0  0  0  0  0  0  0  0
   17.2769   70.3019   -7.5921 C   0  0  0  0  0  0  0  0  0  0  0  0
   19.5582   71.0699   -7.2557 C   0  0  0  0  0  0  0  0  0  0  0  0
   19.8793   70.9661   -8.5467 C   0  0  0  0  0  0  0  0  0  0  0  0
   18.8601   70.4951   -9.5073 C   0  0  0  0  0  0  0  0  0  0  0  0
   16.9293   69.8801   -9.5587 H   0  0  0  0  0  0  0  0  0  0  0  0
   22.5267   71.1884   -1.3037 O   0  0  0  0  0  0  0  0  0  0  0  0
   21.6105   71.8616   -0.1544 P   0  0  2  0  0  0  0  0  0  0  0  0
   20.7023   70.6266    0.3654 O   0  0  0  0  0  0  0  0  0  0  0  0
   20.8255   73.0561   -0.6137 O   0  0  0  0  0  0  0  0  0  0  0  0
   22.6297   72.1572    1.0607 O   0  0  0  0  0  0  0  0  0  0  0  0
   24.0902   70.8179    2.3577 O   0  0  0  0  0  0  0  0  0  0  0  0
   22.5696   73.4003    5.2015 O   0  0  0  0  0  0  0  0  0  0  0  0
   20.8204   72.2365    3.1717 O   0  0  0  0  0  0  0  0  0  0  0  0
   25.2693   73.7707    4.1888 O   0  0  0  0  0  0  0  0  0  0  0  0
   23.0036   73.0036    3.9006 C   0  0  2  0  0  0  0  0  0  0  0  0
   22.1598   71.8238    3.4173 C   0  0  2  0  0  0  0  0  0  0  0  0
   24.4768   72.6006    3.9960 C   0  0  1  0  0  0  0  0  0  0  0  0
   22.7397   71.2253    2.1350 C   0  0  1  0  0  0  0  0  0  0  0  0
   24.9456   71.8979    2.7252 C   0  0  1  0  0  0  0  0  0  0  0  0
   21.6357   73.6609    5.1655 H   0  0  0  0  0  0  0  0  0  0  0  0
   20.4463   72.6176    3.9811 H   0  0  0  0  0  0  0  0  0  0  0  0
   24.9809   74.2274    4.9945 H   0  0  0  0  0  0  0  0  0  0  0  0
   26.7902   70.8104    1.7680 O   0  0  0  0  0  0  0  0  0  0  0  0
   26.7939   71.0658    4.0338 O   0  0  0  0  0  0  0  0  0  0  0  0
   26.2607   71.2241    2.9458 C   0  0  0  0  0  0  0  0  0  0  0  0
  1  4  1  0
  1 24  1  0
  1  2  1  1
  1  3  2  0
 25 28  1  0
 25 24  1  0
 25 26  1  1
 25 27  2  0
  6 11  1  0
  6 12  1  0
 29 36  1  0
 29 37  1  0
  9  7  1  1
  7 13  1  0
 10  8  1  1
  8 14  1  0
  4  5  1  0
 36 28  1  6
 33 30  1  1
 30 38  1  0
 34 31  1  6
 31 39  1  0
 35 32  1  6
 32 40  1  0
 41 43  1  0
 15 19  2  0
 42 43  2  0
 16 22  2  0
 12 17  1  6
 17 19  1  0
 17 20  1  0
 18 19  1  0
 18 22  1  0
 18 23  1  0
  9 10  1  0
  9 11  1  0
 10 12  1  0
 11  5  1  6
 33 34  1  0
 33 35  1  0
 34 36  1  0
 35 37  1  0
 37 43  1  1
 20 21  2  0
 21 22  1  0
M  CHG  3   2  -1  26  -1  41  -1
M  END
>  <COMPND>  (182) 
    udp_gluA.pdb 

>  <AUTHOR>  (182) 
    GENERATED BY OPEN BABEL 3.1.1

>  <MASTER>  (182) 
        0    0    0    0    0    0    0    0   56    0   56    0

>  <minimizedAffinity>  (182) 
-8.26681

>  <CNNscore>  (182) 
0.8873156309

>  <CNNaffinity>  (182) 
4.7119245529

>  <CNN_VS>  (182) 
4.1809644699

>  <CNNaffinity_variance>  (182) 
0.0198793150

$$$$
183
     RDKit          3D

 43 45  0  0  0  0  0  0  0  0999 V2000
   22.8555   71.9082   -2.6142 P   0  0  2  0  0  0  0  0  0  0  0  0
   23.0679   73.4267   -2.0967 O   0  0  0  0  0  0  0  0  0  0  0  0
   24.0570   71.2862   -3.2634 O   0  0  0  0  0  0  0  0  0  0  0  0
   21.5259   71.9930   -3.5323 O   0  0  0  0  0  0  0  0  0  0  0  0
   20.7190   70.8369   -3.6621 C   0  0  0  0  0  0  0  0  0  0  0  0
   18.7709   71.7980   -4.6912 O   0  0  0  0  0  0  0  0  0  0  0  0
   17.2006   70.5201   -2.4793 O   0  0  0  0  0  0  0  0  0  0  0  0
   16.7910   68.8117   -4.5649 O   0  0  0  0  0  0  0  0  0  0  0  0
   18.3563   70.0358   -3.1636 C   0  0  1  0  0  0  0  0  0  0  0  0
   17.9840   69.5674   -4.5544 C   0  0  2  0  0  0  0  0  0  0  0  0
   19.2600   71.2250   -3.4592 C   0  0  1  0  0  0  0  0  0  0  0  0
   17.8504   70.8816   -5.3046 C   0  0  2  0  0  0  0  0  0  0  0  0
   16.6080   69.7781   -2.2797 H   0  0  0  0  0  0  0  0  0  0  0  0
   16.9276   67.9850   -4.0750 H   0  0  0  0  0  0  0  0  0  0  0  0
   16.0373   70.0311   -7.2960 O   0  0  0  0  0  0  0  0  0  0  0  0
   19.2121   70.4276  -10.6137 O   0  0  0  0  0  0  0  0  0  0  0  0
   18.1767   70.7536   -6.6967 N   0  0  0  0  0  0  0  0  0  0  0  0
   17.6206   70.2284   -8.9464 N   0  0  0  0  0  0  0  0  0  0  0  0
   17.1926   70.3178   -7.6152 C   0  0  0  0  0  0  0  0  0  0  0  0
   19.4578   71.0595   -7.1397 C   0  0  0  0  0  0  0  0  0  0  0  0
   19.8508   70.9695   -8.4118 C   0  0  0  0  0  0  0  0  0  0  0  0
   18.8836   70.5210   -9.4349 C   0  0  0  0  0  0  0  0  0  0  0  0
   16.9535   69.9252   -9.6040 H   0  0  0  0  0  0  0  0  0  0  0  0
   22.3341   71.1429   -1.2894 O   0  0  0  0  0  0  0  0  0  0  0  0
   21.6547   71.7076    0.0645 P   0  0  2  0  0  0  0  0  0  0  0  0
   21.0720   70.3727    0.7706 O   0  0  0  0  0  0  0  0  0  0  0  0
   20.6327   72.7838   -0.1619 O   0  0  0  0  0  0  0  0  0  0  0  0
   22.8979   72.1496    0.9927 O   0  0  0  0  0  0  0  0  0  0  0  0
   22.5436   73.0549    3.1524 O   0  0  0  0  0  0  0  0  0  0  0  0
   26.4058   74.2825    2.3495 O   0  0  0  0  0  0  0  0  0  0  0  0
   24.3501   74.4115    0.2778 O   0  0  0  0  0  0  0  0  0  0  0  0
   25.9267   72.0779    4.1829 O   0  0  0  0  0  0  0  0  0  0  0  0
   25.2749   73.4135    2.2865 C   0  0  2  0  0  0  0  0  0  0  0  0
   24.0958   74.1531    1.6538 C   0  0  2  0  0  0  0  0  0  0  0  0
   24.9292   72.9830    3.7138 C   0  0  1  0  0  0  0  0  0  0  0  0
   22.8082   73.3373    1.7777 C   0  0  1  0  0  0  0  0  0  0  0  0
   23.5725   72.2869    3.7725 C   0  0  1  0  0  0  0  0  0  0  0  0
   26.6439   74.5691    1.4537 H   0  0  0  0  0  0  0  0  0  0  0  0
   25.1659   74.9286    0.1918 H   0  0  0  0  0  0  0  0  0  0  0  0
   26.7952   72.5087    4.1505 H   0  0  0  0  0  0  0  0  0  0  0  0
   23.5617   71.0267    5.7507 O   0  0  0  0  0  0  0  0  0  0  0  0
   22.3913   72.9835    5.7577 O   0  0  0  0  0  0  0  0  0  0  0  0
   23.0979   72.1682    5.1842 C   0  0  0  0  0  0  0  0  0  0  0  0
  1  4  1  0
  1 24  1  0
  1  2  1  1
  1  3  2  0
 25 28  1  0
 25 24  1  0
 25 26  1  1
 25 27  2  0
  6 11  1  0
  6 12  1  0
 29 36  1  0
 29 37  1  0
  9  7  1  1
  7 13  1  0
 10  8  1  1
  8 14  1  0
  4  5  1  0
 36 28  1  6
 33 30  1  1
 30 38  1  0
 34 31  1  6
 31 39  1  0
 35 32  1  6
 32 40  1  0
 41 43  1  0
 15 19  2  0
 42 43  2  0
 16 22  2  0
 12 17  1  6
 17 19  1  0
 17 20  1  0
 18 19  1  0
 18 22  1  0
 18 23  1  0
  9 10  1  0
  9 11  1  0
 10 12  1  0
 11  5  1  6
 33 34  1  0
 33 35  1  0
 34 36  1  0
 35 37  1  0
 37 43  1  1
 20 21  2  0
 21 22  1  0
M  CHG  3   2  -1  26  -1  41  -1
M  END
>  <COMPND>  (183) 
    udp_gluA.pdb 

>  <AUTHOR>  (183) 
    GENERATED BY OPEN BABEL 3.1.1

>  <MASTER>  (183) 
        0    0    0    0    0    0    0    0   56    0   56    0

>  <minimizedAffinity>  (183) 
-8.12959

>  <CNNscore>  (183) 
0.8541067243

>  <CNNaffinity>  (183) 
4.6910524368

>  <CNN_VS>  (183) 
4.0066595078

>  <CNNaffinity_variance>  (183) 
0.0368384868

$$$$
184
     RDKit          3D

 43 45  0  0  0  0  0  0  0  0999 V2000
   23.0080   71.5045   -2.3043 P   0  0  2  0  0  0  0  0  0  0  0  0
   22.7438   73.0858   -2.5242 O   0  0  0  0  0  0  0  0  0  0  0  0
   24.2354   70.9672   -2.9800 O   0  0  0  0  0  0  0  0  0  0  0  0
   21.6097   70.8134   -2.7345 O   0  0  0  0  0  0  0  0  0  0  0  0
   20.9855   71.2388   -3.9320 C   0  0  0  0  0  0  0  0  0  0  0  0
   18.9035   71.9817   -4.8760 O   0  0  0  0  0  0  0  0  0  0  0  0
   17.5847   70.6851   -2.5157 O   0  0  0  0  0  0  0  0  0  0  0  0
   17.2016   68.8492   -4.4953 O   0  0  0  0  0  0  0  0  0  0  0  0
   18.7353   70.2670   -3.2505 C   0  0  1  0  0  0  0  0  0  0  0  0
   18.3230   69.7021   -4.5933 C   0  0  2  0  0  0  0  0  0  0  0  0
   19.5130   71.5122   -3.6539 C   0  0  1  0  0  0  0  0  0  0  0  0
   18.0312   70.9626   -5.3895 C   0  0  2  0  0  0  0  0  0  0  0  0
   17.0717   69.9064   -2.2470 H   0  0  0  0  0  0  0  0  0  0  0  0
   17.4384   68.0617   -3.9799 H   0  0  0  0  0  0  0  0  0  0  0  0
   16.1483   69.9603   -7.2407 O   0  0  0  0  0  0  0  0  0  0  0  0
   19.1105   70.3631  -10.7489 O   0  0  0  0  0  0  0  0  0  0  0  0
   18.2840   70.7951   -6.7927 N   0  0  0  0  0  0  0  0  0  0  0  0
   17.6258   70.1609   -8.9861 N   0  0  0  0  0  0  0  0  0  0  0  0
   17.2700   70.2832   -7.6364 C   0  0  0  0  0  0  0  0  0  0  0  0
   19.5232   71.1377   -7.3199 C   0  0  0  0  0  0  0  0  0  0  0  0
   19.8475   71.0156   -8.6086 C   0  0  0  0  0  0  0  0  0  0  0  0
   18.8451   70.4876   -9.5572 C   0  0  0  0  0  0  0  0  0  0  0  0
   16.9369   69.8047   -9.5926 H   0  0  0  0  0  0  0  0  0  0  0  0
   23.0063   71.3567   -0.6946 O   0  0  0  0  0  0  0  0  0  0  0  0
   21.8698   71.7029    0.4018 P   0  0  2  0  0  0  0  0  0  0  0  0
   20.8407   70.4601    0.2730 O   0  0  0  0  0  0  0  0  0  0  0  0
   21.2352   73.0521    0.2260 O   0  0  0  0  0  0  0  0  0  0  0  0
   22.5953   71.4848    1.8261 O   0  0  0  0  0  0  0  0  0  0  0  0
   23.2098   73.2063    3.3322 O   0  0  0  0  0  0  0  0  0  0  0  0
   25.8803   70.2181    4.3360 O   0  0  0  0  0  0  0  0  0  0  0  0
   25.2697   70.7788    1.5347 O   0  0  0  0  0  0  0  0  0  0  0  0
   23.5986   70.7723    6.0500 O   0  0  0  0  0  0  0  0  0  0  0  0
   24.6408   70.7582    3.8778 C   0  0  2  0  0  0  0  0  0  0  0  0
   24.8822   71.6040    2.6272 C   0  0  2  0  0  0  0  0  0  0  0  0
   24.0573   71.6207    4.9992 C   0  0  1  0  0  0  0  0  0  0  0  0
   23.6234   72.3821    2.2417 C   0  0  1  0  0  0  0  0  0  0  0  0
   22.8839   72.4606    4.5030 C   0  0  1  0  0  0  0  0  0  0  0  0
   26.2698   69.6661    3.6397 H   0  0  0  0  0  0  0  0  0  0  0  0
   26.0678   70.2819    1.7725 H   0  0  0  0  0  0  0  0  0  0  0  0
   24.3360   70.2321    6.3747 H   0  0  0  0  0  0  0  0  0  0  0  0
   21.7138   74.4469    4.9354 O   0  0  0  0  0  0  0  0  0  0  0  0
   22.9343   73.5648    6.6476 O   0  0  0  0  0  0  0  0  0  0  0  0
   22.5372   73.5247    5.4928 C   0  0  0  0  0  0  0  0  0  0  0  0
  1  4  1  0
  1 24  1  0
  1  2  1  1
  1  3  2  0
 25 28  1  0
 25 24  1  0
 25 26  1  1
 25 27  2  0
  6 11  1  0
  6 12  1  0
 29 36  1  0
 29 37  1  0
  9  7  1  1
  7 13  1  0
 10  8  1  1
  8 14  1  0
  4  5  1  0
 36 28  1  1
 33 30  1  1
 30 38  1  0
 34 31  1  6
 31 39  1  0
 35 32  1  1
 32 40  1  0
 41 43  1  0
 15 19  2  0
 42 43  2  0
 16 22  2  0
 12 17  1  6
 17 19  1  0
 17 20  1  0
 18 19  1  0
 18 22  1  0
 18 23  1  0
  9 10  1  0
  9 11  1  0
 10 12  1  0
 11  5  1  6
 33 34  1  0
 33 35  1  0
 34 36  1  0
 35 37  1  0
 37 43  1  1
 20 21  2  0
 21 22  1  0
M  CHG  3   2  -1  26  -1  41  -1
M  END
>  <COMPND>  (184) 
    udp_gluA.pdb 

>  <AUTHOR>  (184) 
    GENERATED BY OPEN BABEL 3.1.1

>  <MASTER>  (184) 
        0    0    0    0    0    0    0    0   56    0   56    0

>  <minimizedAffinity>  (184) 
-8.70023

>  <CNNscore>  (184) 
0.8192990422

>  <CNNaffinity>  (184) 
4.6090278625

>  <CNN_VS>  (184) 
3.7761721611

>  <CNNaffinity_variance>  (184) 
0.1036342159

$$$$
185
     RDKit          3D

 43 45  0  0  0  0  0  0  0  0999 V2000
   20.5862   71.3917   -1.3419 P   0  0  2  0  0  0  0  0  0  0  0  0
   21.2272   70.6953   -0.0293 O   0  0  0  0  0  0  0  0  0  0  0  0
   20.0185   72.7627   -1.1183 O   0  0  0  0  0  0  0  0  0  0  0  0
   19.5479   70.2840   -1.9015 O   0  0  0  0  0  0  0  0  0  0  0  0
   19.2109   70.3069   -3.2764 C   0  0  0  0  0  0  0  0  0  0  0  0
   17.5639   71.3889   -4.6527 O   0  0  0  0  0  0  0  0  0  0  0  0
   15.5214   69.8160   -3.1211 O   0  0  0  0  0  0  0  0  0  0  0  0
   15.7428   68.4034   -5.4431 O   0  0  0  0  0  0  0  0  0  0  0  0
   16.8348   69.4343   -3.5308 C   0  0  1  0  0  0  0  0  0  0  0  0
   16.8597   69.1565   -5.0189 C   0  0  2  0  0  0  0  0  0  0  0  0
   17.7354   70.6569   -3.4198 C   0  0  1  0  0  0  0  0  0  0  0  0
   16.8744   70.5595   -5.6014 C   0  0  2  0  0  0  0  0  0  0  0  0
   14.9277   69.0509   -3.1835 H   0  0  0  0  0  0  0  0  0  0  0  0
   15.7795   67.5188   -5.0456 H   0  0  0  0  0  0  0  0  0  0  0  0
   15.6106   70.3323   -8.1169 O   0  0  0  0  0  0  0  0  0  0  0  0
   19.6023   70.8161  -10.3701 O   0  0  0  0  0  0  0  0  0  0  0  0
   17.5595   70.6225   -6.8614 N   0  0  0  0  0  0  0  0  0  0  0  0
   17.6000   70.5725   -9.2367 N   0  0  0  0  0  0  0  0  0  0  0  0
   16.8311   70.4970   -8.0679 C   0  0  0  0  0  0  0  0  0  0  0  0
   18.9362   70.8084   -6.8938 C   0  0  0  0  0  0  0  0  0  0  0  0
   19.6554   70.8784   -8.0156 C   0  0  0  0  0  0  0  0  0  0  0  0
   18.9709   70.7557   -9.3194 C   0  0  0  0  0  0  0  0  0  0  0  0
   17.1153   70.4857  -10.0892 H   0  0  0  0  0  0  0  0  0  0  0  0
   21.7955   71.3300   -2.4127 O   0  0  0  0  0  0  0  0  0  0  0  0
   22.9988   72.3662   -2.7156 P   0  0  2  0  0  0  0  0  0  0  0  0
   24.1064   71.4422   -3.4505 O   0  0  0  0  0  0  0  0  0  0  0  0
   23.5055   73.0930   -1.5036 O   0  0  0  0  0  0  0  0  0  0  0  0
   22.4297   73.3247   -3.8818 O   0  0  0  0  0  0  0  0  0  0  0  0
   20.1834   73.4838   -4.6153 O   0  0  0  0  0  0  0  0  0  0  0  0
   22.2579   74.5804   -8.0156 O   0  0  0  0  0  0  0  0  0  0  0  0
   23.1793   72.3458   -6.3749 O   0  0  0  0  0  0  0  0  0  0  0  0
   20.9251   76.6001   -6.4045 O   0  0  0  0  0  0  0  0  0  0  0  0
   22.0238   74.4659   -6.6120 C   0  0  2  0  0  0  0  0  0  0  0  0
   21.9186   72.9894   -6.2296 C   0  0  2  0  0  0  0  0  0  0  0  0
   20.7168   75.1937   -6.2896 C   0  0  1  0  0  0  0  0  0  0  0  0
   21.4422   72.8310   -4.7850 C   0  0  1  0  0  0  0  0  0  0  0  0
   20.2423   74.8851   -4.8725 C   0  0  1  0  0  0  0  0  0  0  0  0
   23.0836   74.1251   -8.2441 H   0  0  0  0  0  0  0  0  0  0  0  0
   23.4878   72.4426   -7.2892 H   0  0  0  0  0  0  0  0  0  0  0  0
   21.2276   76.8099   -7.3019 H   0  0  0  0  0  0  0  0  0  0  0  0
   17.9831   74.5400   -5.4001 O   0  0  0  0  0  0  0  0  0  0  0  0
   18.4683   76.2507   -3.9728 O   0  0  0  0  0  0  0  0  0  0  0  0
   18.8262   75.3212   -4.6805 C   0  0  0  0  0  0  0  0  0  0  0  0
  1  4  1  0
  1 24  1  0
  1  2  1  1
  1  3  2  0
 25 28  1  0
 25 24  1  0
 25 26  1  6
 25 27  2  0
  6 11  1  0
  6 12  1  0
 29 36  1  0
 29 37  1  0
  9  7  1  6
  7 13  1  0
 10  8  1  6
  8 14  1  0
  4  5  1  0
 36 28  1  1
 33 30  1  6
 30 38  1  0
 34 31  1  1
 31 39  1  0
 35 32  1  1
 32 40  1  0
 41 43  1  0
 15 19  2  0
 42 43  2  0
 16 22  2  0
 12 17  1  6
 17 19  1  0
 17 20  1  0
 18 19  1  0
 18 22  1  0
 18 23  1  0
  9 10  1  0
  9 11  1  0
 10 12  1  0
 11  5  1  6
 33 34  1  0
 33 35  1  0
 34 36  1  0
 35 37  1  0
 37 43  1  6
 20 21  2  0
 21 22  1  0
M  CHG  3   2  -1  26  -1  41  -1
M  END
>  <COMPND>  (185) 
    udp_gluA.pdb 

>  <AUTHOR>  (185) 
    GENERATED BY OPEN BABEL 3.1.1

>  <MASTER>  (185) 
        0    0    0    0    0    0    0    0   56    0   56    0

>  <minimizedAffinity>  (185) 
-7.49935

>  <CNNscore>  (185) 
0.8101682067

>  <CNNaffinity>  (185) 
4.5630564690

>  <CNN_VS>  (185) 
3.6968433857

>  <CNNaffinity_variance>  (185) 
1.0005335808

$$$$
186
     RDKit          3D

 43 45  0  0  0  0  0  0  0  0999 V2000
   22.0473   72.7775   -6.0588 P   0  0  2  0  0  0  0  0  0  0  0  0
   20.7576   73.4517   -5.3510 O   0  0  0  0  0  0  0  0  0  0  0  0
   23.0294   73.7497   -6.6437 O   0  0  0  0  0  0  0  0  0  0  0  0
   21.4087   71.7135   -7.0971 O   0  0  0  0  0  0  0  0  0  0  0  0
   20.2469   72.0843   -7.8162 C   0  0  0  0  0  0  0  0  0  0  0  0
   19.1787   70.0014   -7.2703 O   0  0  0  0  0  0  0  0  0  0  0  0
   18.1120   70.0279  -10.0726 O   0  0  0  0  0  0  0  0  0  0  0  0
   15.9730   70.8820   -8.6127 O   0  0  0  0  0  0  0  0  0  0  0  0
   18.3263   71.1189   -9.1769 C   0  0  1  0  0  0  0  0  0  0  0  0
   17.2649   71.1269   -8.0973 C   0  0  2  0  0  0  0  0  0  0  0  0
   19.5904   70.8302   -8.3789 C   0  0  1  0  0  0  0  0  0  0  0  0
   17.7456   70.0203   -7.1742 C   0  0  2  0  0  0  0  0  0  0  0  0
   17.3094   70.1896  -10.5936 H   0  0  0  0  0  0  0  0  0  0  0  0
   15.7125   71.6146   -9.1937 H   0  0  0  0  0  0  0  0  0  0  0  0
   16.2298   68.2177   -5.6155 O   0  0  0  0  0  0  0  0  0  0  0  0
   16.3723   70.9926   -1.9382 O   0  0  0  0  0  0  0  0  0  0  0  0
   17.3723   70.2466   -5.8066 N   0  0  0  0  0  0  0  0  0  0  0  0
   16.3014   69.6019   -3.7858 N   0  0  0  0  0  0  0  0  0  0  0  0
   16.6093   69.2773   -5.1135 C   0  0  0  0  0  0  0  0  0  0  0  0
   17.7624   71.4162   -5.1657 C   0  0  0  0  0  0  0  0  0  0  0  0
   17.4613   71.7116   -3.8996 C   0  0  0  0  0  0  0  0  0  0  0  0
   16.6661   70.7523   -3.1053 C   0  0  0  0  0  0  0  0  0  0  0  0
   15.7691   68.9433   -3.2835 H   0  0  0  0  0  0  0  0  0  0  0  0
   22.6482   71.8323   -4.8934 O   0  0  0  0  0  0  0  0  0  0  0  0
   23.5898   72.1788   -3.6257 P   0  0  2  0  0  0  0  0  0  0  0  0
   24.5984   73.3020   -4.2101 O   0  0  0  0  0  0  0  0  0  0  0  0
   24.2744   70.9864   -3.0229 O   0  0  0  0  0  0  0  0  0  0  0  0
   22.6288   72.9834   -2.6100 O   0  0  0  0  0  0  0  0  0  0  0  0
   21.7712   71.4110   -1.0604 O   0  0  0  0  0  0  0  0  0  0  0  0
   20.0479   74.9239    0.2655 O   0  0  0  0  0  0  0  0  0  0  0  0
   20.1976   74.3343   -2.5918 O   0  0  0  0  0  0  0  0  0  0  0  0
   22.2905   73.7641    1.7065 O   0  0  0  0  0  0  0  0  0  0  0  0
   21.0586   74.1135   -0.3343 C   0  0  2  0  0  0  0  0  0  0  0  0
   20.4829   73.3995   -1.5576 C   0  0  2  0  0  0  0  0  0  0  0  0
   21.5263   73.0935    0.7062 C   0  0  1  0  0  0  0  0  0  0  0  0
   21.4609   72.3511   -2.0897 C   0  0  1  0  0  0  0  0  0  0  0  0
   22.3949   72.0103    0.0732 C   0  0  1  0  0  0  0  0  0  0  0  0
   19.7353   75.5799   -0.3773 H   0  0  0  0  0  0  0  0  0  0  0  0
   19.5778   75.0027   -2.2610 H   0  0  0  0  0  0  0  0  0  0  0  0
   21.7491   74.4563    2.1172 H   0  0  0  0  0  0  0  0  0  0  0  0
   21.3929   70.2138    1.2002 O   0  0  0  0  0  0  0  0  0  0  0  0
   23.6267   70.5322    1.5290 O   0  0  0  0  0  0  0  0  0  0  0  0
   22.5706   70.8578    1.0077 C   0  0  0  0  0  0  0  0  0  0  0  0
  1  4  1  0
  1 24  1  0
  1  2  1  1
  1  3  2  0
 25 28  1  0
 25 24  1  0
 25 26  1  6
 25 27  2  0
  6 11  1  0
  6 12  1  0
 29 36  1  0
 29 37  1  0
  9  7  1  6
  7 13  1  0
 10  8  1  6
  8 14  1  0
  4  5  1  0
 36 28  1  1
 33 30  1  1
 30 38  1  0
 34 31  1  6
 31 39  1  0
 35 32  1  1
 32 40  1  0
 41 43  1  0
 15 19  2  0
 42 43  2  0
 16 22  2  0
 12 17  1  1
 17 19  1  0
 17 20  1  0
 18 19  1  0
 18 22  1  0
 18 23  1  0
  9 10  1  0
  9 11  1  0
 10 12  1  0
 11  5  1  1
 33 34  1  0
 33 35  1  0
 34 36  1  0
 35 37  1  0
 37 43  1  1
 20 21  2  0
 21 22  1  0
M  CHG  3   2  -1  26  -1  41  -1
M  END
>  <COMPND>  (186) 
    udp_gluA.pdb 

>  <AUTHOR>  (186) 
    GENERATED BY OPEN BABEL 3.1.1

>  <MASTER>  (186) 
        0    0    0    0    0    0    0    0   56    0   56    0

>  <minimizedAffinity>  (186) 
-8.15457

>  <CNNscore>  (186) 
0.7878969312

>  <CNNaffinity>  (186) 
4.6664085388

>  <CNN_VS>  (186) 
3.6766488552

>  <CNNaffinity_variance>  (186) 
0.2185359895

$$$$
187
     RDKit          3D

 43 45  0  0  0  0  0  0  0  0999 V2000
   20.9882   71.5915   -1.2962 P   0  0  2  0  0  0  0  0  0  0  0  0
   22.1613   71.0387   -2.2643 O   0  0  0  0  0  0  0  0  0  0  0  0
   20.6044   70.6698   -0.1759 O   0  0  0  0  0  0  0  0  0  0  0  0
   19.7978   71.9903   -2.3170 O   0  0  0  0  0  0  0  0  0  0  0  0
   19.2965   70.9969   -3.1923 C   0  0  0  0  0  0  0  0  0  0  0  0
   17.4915   71.7707   -4.5782 O   0  0  0  0  0  0  0  0  0  0  0  0
   15.7021   70.0705   -2.8755 O   0  0  0  0  0  0  0  0  0  0  0  0
   16.0354   68.5372   -5.1057 O   0  0  0  0  0  0  0  0  0  0  0  0
   17.0414   69.8246   -3.3050 C   0  0  1  0  0  0  0  0  0  0  0  0
   17.0609   69.4489   -4.7715 C   0  0  2  0  0  0  0  0  0  0  0  0
   17.7856   71.1529   -3.3065 C   0  0  1  0  0  0  0  0  0  0  0  0
   16.8854   70.7991   -5.4453 C   0  0  2  0  0  0  0  0  0  0  0  0
   15.2068   69.2361   -2.8665 H   0  0  0  0  0  0  0  0  0  0  0  0
   16.1925   67.6935   -4.6523 H   0  0  0  0  0  0  0  0  0  0  0  0
   15.6818   71.8418   -7.7778 O   0  0  0  0  0  0  0  0  0  0  0  0
   19.4272   70.9723  -10.3194 O   0  0  0  0  0  0  0  0  0  0  0  0
   17.5234   70.8574   -6.7300 N   0  0  0  0  0  0  0  0  0  0  0  0
   17.5480   71.4068   -9.0417 N   0  0  0  0  0  0  0  0  0  0  0  0
   16.8309   71.4004   -7.8380 C   0  0  0  0  0  0  0  0  0  0  0  0
   18.8203   70.3822   -6.8826 C   0  0  0  0  0  0  0  0  0  0  0  0
   19.4908   70.3951   -8.0363 C   0  0  0  0  0  0  0  0  0  0  0  0
   18.8387   70.9450   -9.2428 C   0  0  0  0  0  0  0  0  0  0  0  0
   17.0858   71.7782   -9.8277 H   0  0  0  0  0  0  0  0  0  0  0  0
   21.5565   73.0283   -0.8214 O   0  0  0  0  0  0  0  0  0  0  0  0
   20.9179   74.1553    0.1460 P   0  0  2  0  0  0  0  0  0  0  0  0
   19.5207   73.4884    0.6187 O   0  0  0  0  0  0  0  0  0  0  0  0
   20.7733   75.5058   -0.4937 O   0  0  0  0  0  0  0  0  0  0  0  0
   21.8456   74.1354    1.4655 O   0  0  0  0  0  0  0  0  0  0  0  0
   24.0891   73.4532    1.7985 O   0  0  0  0  0  0  0  0  0  0  0  0
   22.3371   72.3560    5.3755 O   0  0  0  0  0  0  0  0  0  0  0  0
   20.9537   71.8908    2.8448 O   0  0  0  0  0  0  0  0  0  0  0  0
   24.0261   74.7183    5.2421 O   0  0  0  0  0  0  0  0  0  0  0  0
   22.5199   73.1505    4.2036 C   0  0  2  0  0  0  0  0  0  0  0  0
   22.3164   72.2837    2.9607 C   0  0  2  0  0  0  0  0  0  0  0  0
   23.9421   73.7148    4.2319 C   0  0  1  0  0  0  0  0  0  0  0  0
   22.7268   73.0373    1.6949 C   0  0  1  0  0  0  0  0  0  0  0  0
   24.3206   74.3388    2.8918 C   0  0  1  0  0  0  0  0  0  0  0  0
   21.4399   71.9867    5.3793 H   0  0  0  0  0  0  0  0  0  0  0  0
   20.6864   71.4123    3.6448 H   0  0  0  0  0  0  0  0  0  0  0  0
   23.7874   74.3341    6.1001 H   0  0  0  0  0  0  0  0  0  0  0  0
   26.4431   73.8885    3.7827 O   0  0  0  0  0  0  0  0  0  0  0  0
   26.3424   75.3104    2.0031 O   0  0  0  0  0  0  0  0  0  0  0  0
   25.7924   74.5850    2.8182 C   0  0  0  0  0  0  0  0  0  0  0  0
  1  4  1  0
  1 24  1  0
  1  2  1  6
  1  3  2  0
 25 28  1  0
 25 24  1  0
 25 26  1  1
 25 27  2  0
  6 11  1  0
  6 12  1  0
 29 36  1  0
 29 37  1  0
  9  7  1  6
  7 13  1  0
 10  8  1  1
  8 14  1  0
  4  5  1  0
 36 28  1  1
 33 30  1  1
 30 38  1  0
 34 31  1  6
 31 39  1  0
 35 32  1  1
 32 40  1  0
 41 43  1  0
 15 19  2  0
 42 43  2  0
 16 22  2  0
 12 17  1  6
 17 19  1  0
 17 20  1  0
 18 19  1  0
 18 22  1  0
 18 23  1  0
  9 10  1  0
  9 11  1  0
 10 12  1  0
 11  5  1  6
 33 34  1  0
 33 35  1  0
 34 36  1  0
 35 37  1  0
 37 43  1  1
 20 21  2  0
 21 22  1  0
M  CHG  3   2  -1  26  -1  41  -1
M  END
>  <COMPND>  (187) 
    udp_gluA.pdb 

>  <AUTHOR>  (187) 
    GENERATED BY OPEN BABEL 3.1.1

>  <MASTER>  (187) 
        0    0    0    0    0    0    0    0   56    0   56    0

>  <minimizedAffinity>  (187) 
-6.81633

>  <CNNscore>  (187) 
0.7554563284

>  <CNNaffinity>  (187) 
4.4260950089

>  <CNN_VS>  (187) 
3.3437213898

>  <CNNaffinity_variance>  (187) 
0.0568853803

$$$$
188
     RDKit          3D

 43 45  0  0  0  0  0  0  0  0999 V2000
   20.4752   71.2202   -1.2527 P   0  0  2  0  0  0  0  0  0  0  0  0
   20.8823   70.6175    0.1929 O   0  0  0  0  0  0  0  0  0  0  0  0
   19.9332   72.6192   -1.2261 O   0  0  0  0  0  0  0  0  0  0  0  0
   19.4923   70.0977   -1.8788 O   0  0  0  0  0  0  0  0  0  0  0  0
   19.1702   70.1730   -3.2554 C   0  0  0  0  0  0  0  0  0  0  0  0
   17.5558   71.3248   -4.6137 O   0  0  0  0  0  0  0  0  0  0  0  0
   15.4710   69.7456   -3.1471 O   0  0  0  0  0  0  0  0  0  0  0  0
   15.6884   68.3977   -5.5076 O   0  0  0  0  0  0  0  0  0  0  0  0
   16.7810   69.3520   -3.5562 C   0  0  1  0  0  0  0  0  0  0  0  0
   16.8148   69.1174   -5.0516 C   0  0  2  0  0  0  0  0  0  0  0  0
   17.7026   70.5541   -3.4014 C   0  0  1  0  0  0  0  0  0  0  0  0
   16.8603   70.5363   -5.5924 C   0  0  2  0  0  0  0  0  0  0  0  0
   14.8642   68.9937   -3.2372 H   0  0  0  0  0  0  0  0  0  0  0  0
   15.7054   67.5013   -5.1359 H   0  0  0  0  0  0  0  0  0  0  0  0
   15.6230   70.3521   -8.1245 O   0  0  0  0  0  0  0  0  0  0  0  0
   19.6364   70.8849  -10.3273 O   0  0  0  0  0  0  0  0  0  0  0  0
   17.5582   70.6236   -6.8439 N   0  0  0  0  0  0  0  0  0  0  0  0
   17.6232   70.6167   -9.2192 N   0  0  0  0  0  0  0  0  0  0  0  0
   16.8424   70.5184   -8.0600 C   0  0  0  0  0  0  0  0  0  0  0  0
   18.9347   70.8128   -6.8587 C   0  0  0  0  0  0  0  0  0  0  0  0
   19.6652   70.9047   -7.9717 C   0  0  0  0  0  0  0  0  0  0  0  0
   18.9944   70.8041   -9.2844 C   0  0  0  0  0  0  0  0  0  0  0  0
   17.1474   70.5443  -10.0781 H   0  0  0  0  0  0  0  0  0  0  0  0
   21.8298   71.0392   -2.1159 O   0  0  0  0  0  0  0  0  0  0  0  0
   22.9309   72.1186   -2.6019 P   0  0  2  0  0  0  0  0  0  0  0  0
   24.1276   71.1927   -3.1773 O   0  0  0  0  0  0  0  0  0  0  0  0
   23.3560   73.0871   -1.5365 O   0  0  0  0  0  0  0  0  0  0  0  0
   22.2820   72.8045   -3.9100 O   0  0  0  0  0  0  0  0  0  0  0  0
   22.7496   75.0819   -4.3613 O   0  0  0  0  0  0  0  0  0  0  0  0
   19.4786   74.3978   -6.7905 O   0  0  0  0  0  0  0  0  0  0  0  0
   19.5551   73.3273   -4.0734 O   0  0  0  0  0  0  0  0  0  0  0  0
   22.1430   74.5593   -7.9420 O   0  0  0  0  0  0  0  0  0  0  0  0
   20.6787   74.0600   -6.0950 C   0  0  2  0  0  0  0  0  0  0  0  0
   20.4787   74.2759   -4.5947 C   0  0  2  0  0  0  0  0  0  0  0  0
   21.7984   74.9626   -6.6180 C   0  0  1  0  0  0  0  0  0  0  0  0
   21.8036   74.1466   -3.8419 C   0  0  1  0  0  0  0  0  0  0  0  0
   23.0435   74.8709   -5.7405 C   0  0  1  0  0  0  0  0  0  0  0  0
   18.7528   73.8369   -6.4746 H   0  0  0  0  0  0  0  0  0  0  0  0
   18.7121   73.4035   -4.5467 H   0  0  0  0  0  0  0  0  0  0  0  0
   21.3590   74.6129   -8.5107 H   0  0  0  0  0  0  0  0  0  0  0  0
   23.3803   76.9505   -6.7717 O   0  0  0  0  0  0  0  0  0  0  0  0
   25.1686   76.0131   -5.7122 O   0  0  0  0  0  0  0  0  0  0  0  0
   23.9959   75.9786   -6.0539 C   0  0  0  0  0  0  0  0  0  0  0  0
  1  4  1  0
  1 24  1  0
  1  2  1  1
  1  3  2  0
 25 28  1  0
 25 24  1  0
 25 26  1  6
 25 27  2  0
  6 11  1  0
  6 12  1  0
 29 36  1  0
 29 37  1  0
  9  7  1  6
  7 13  1  0
 10  8  1  6
  8 14  1  0
  4  5  1  0
 36 28  1  6
 33 30  1  6
 30 38  1  0
 34 31  1  1
 31 39  1  0
 35 32  1  6
 32 40  1  0
 41 43  1  0
 15 19  2  0
 42 43  2  0
 16 22  2  0
 12 17  1  6
 17 19  1  0
 17 20  1  0
 18 19  1  0
 18 22  1  0
 18 23  1  0
  9 10  1  0
  9 11  1  0
 10 12  1  0
 11  5  1  6
 33 34  1  0
 33 35  1  0
 34 36  1  0
 35 37  1  0
 37 43  1  6
 20 21  2  0
 21 22  1  0
M  CHG  3   2  -1  26  -1  41  -1
M  END
>  <COMPND>  (188) 
    udp_gluA.pdb 

>  <AUTHOR>  (188) 
    GENERATED BY OPEN BABEL 3.1.1

>  <MASTER>  (188) 
        0    0    0    0    0    0    0    0   56    0   56    0

>  <minimizedAffinity>  (188) 
-7.63285

>  <CNNscore>  (188) 
0.7479466796

>  <CNNaffinity>  (188) 
4.5164017677

>  <CNN_VS>  (188) 
3.3780276775

>  <CNNaffinity_variance>  (188) 
0.5456060171

$$$$
189
     RDKit          3D

 43 45  0  0  0  0  0  0  0  0999 V2000
   23.5258   72.5808   -3.5922 P   0  0  2  0  0  0  0  0  0  0  0  0
   23.9772   71.0932   -3.1428 O   0  0  0  0  0  0  0  0  0  0  0  0
   24.5427   73.3354   -4.3974 O   0  0  0  0  0  0  0  0  0  0  0  0
   23.0645   73.2814   -2.2087 O   0  0  0  0  0  0  0  0  0  0  0  0
   22.1293   74.3428   -2.2672 C   0  0  0  0  0  0  0  0  0  0  0  0
   21.1987   72.7430   -0.7337 O   0  0  0  0  0  0  0  0  0  0  0  0
   19.2483   74.8885    0.0306 O   0  0  0  0  0  0  0  0  0  0  0  0
   21.0582   74.9750    2.0685 O   0  0  0  0  0  0  0  0  0  0  0  0
   20.6264   75.0047   -0.3241 C   0  0  1  0  0  0  0  0  0  0  0  0
   21.5025   74.5150    0.8094 C   0  0  2  0  0  0  0  0  0  0  0  0
   20.9181   73.9844   -1.4159 C   0  0  1  0  0  0  0  0  0  0  0  0
   21.3911   73.0068    0.6652 C   0  0  2  0  0  0  0  0  0  0  0  0
   19.0381   75.5309    0.7270 H   0  0  0  0  0  0  0  0  0  0  0  0
   21.1495   75.9403    2.1107 H   0  0  0  0  0  0  0  0  0  0  0  0
   21.5268   70.2383    1.2067 O   0  0  0  0  0  0  0  0  0  0  0  0
   25.9793   70.4982    2.3690 O   0  0  0  0  0  0  0  0  0  0  0  0
   22.5733   72.3249    1.1106 N   0  0  0  0  0  0  0  0  0  0  0  0
   23.7440   70.3706    1.7860 N   0  0  0  0  0  0  0  0  0  0  0  0
   22.5349   70.9316    1.3543 C   0  0  0  0  0  0  0  0  0  0  0  0
   23.7532   73.0340    1.2999 C   0  0  0  0  0  0  0  0  0  0  0  0
   24.8978   72.4853    1.7117 C   0  0  0  0  0  0  0  0  0  0  0  0
   24.9428   71.0347    1.9894 C   0  0  0  0  0  0  0  0  0  0  0  0
   23.7414   69.4023    1.9642 H   0  0  0  0  0  0  0  0  0  0  0  0
   22.1234   72.3202   -4.3527 O   0  0  0  0  0  0  0  0  0  0  0  0
   21.5023   72.9825   -5.6904 P   0  0  2  0  0  0  0  0  0  0  0  0
   22.4762   72.4338   -6.8612 O   0  0  0  0  0  0  0  0  0  0  0  0
   21.3803   74.4779   -5.6376 O   0  0  0  0  0  0  0  0  0  0  0  0
   20.1081   72.2048   -5.9227 O   0  0  0  0  0  0  0  0  0  0  0  0
   19.4144   70.0301   -5.2915 O   0  0  0  0  0  0  0  0  0  0  0  0
   17.4510   70.5269   -8.8924 O   0  0  0  0  0  0  0  0  0  0  0  0
   20.2211   71.4016   -8.5831 O   0  0  0  0  0  0  0  0  0  0  0  0
   15.9863   70.7392   -6.3903 O   0  0  0  0  0  0  0  0  0  0  0  0
   18.0274   70.9424   -7.6542 C   0  0  2  0  0  0  0  0  0  0  0  0
   19.5172   70.5989   -7.6425 C   0  0  2  0  0  0  0  0  0  0  0  0
   17.3027   70.2069   -6.5247 C   0  0  1  0  0  0  0  0  0  0  0  0
   20.1180   70.8172   -6.2532 C   0  0  1  0  0  0  0  0  0  0  0  0
   18.0331   70.3702   -5.1949 C   0  0  1  0  0  0  0  0  0  0  0  0
   17.8958   70.9814   -9.6250 H   0  0  0  0  0  0  0  0  0  0  0  0
   19.8449   71.2683   -9.4669 H   0  0  0  0  0  0  0  0  0  0  0  0
   15.5107   70.6416   -7.2300 H   0  0  0  0  0  0  0  0  0  0  0  0
   18.5418   68.8421   -3.4898 O   0  0  0  0  0  0  0  0  0  0  0  0
   16.3389   69.1362   -3.9998 O   0  0  0  0  0  0  0  0  0  0  0  0
   17.5181   69.3981   -4.1840 C   0  0  0  0  0  0  0  0  0  0  0  0
  1  4  1  0
  1 24  1  0
  1  2  1  1
  1  3  2  0
 25 28  1  0
 25 24  1  0
 25 26  1  6
 25 27  2  0
  6 11  1  0
  6 12  1  0
 29 36  1  0
 29 37  1  0
  9  7  1  1
  7 13  1  0
 10  8  1  1
  8 14  1  0
  4  5  1  0
 36 28  1  1
 33 30  1  6
 30 38  1  0
 34 31  1  6
 31 39  1  0
 35 32  1  1
 32 40  1  0
 41 43  1  0
 15 19  2  0
 42 43  2  0
 16 22  2  0
 12 17  1  6
 17 19  1  0
 17 20  1  0
 18 19  1  0
 18 22  1  0
 18 23  1  0
  9 10  1  0
  9 11  1  0
 10 12  1  0
 11  5  1  1
 33 34  1  0
 33 35  1  0
 34 36  1  0
 35 37  1  0
 37 43  1  1
 20 21  2  0
 21 22  1  0
M  CHG  3   2  -1  26  -1  41  -1
M  END
>  <COMPND>  (189) 
    udp_gluA.pdb 

>  <AUTHOR>  (189) 
    GENERATED BY OPEN BABEL 3.1.1

>  <MASTER>  (189) 
        0    0    0    0    0    0    0    0   56    0   56    0

>  <minimizedAffinity>  (189) 
-7.90789

>  <CNNscore>  (189) 
0.6427366138

>  <CNNaffinity>  (189) 
4.4709749222

>  <CNN_VS>  (189) 
2.8736593723

>  <CNNaffinity_variance>  (189) 
0.0723480284

$$$$
190
     RDKit          3D

 43 45  0  0  0  0  0  0  0  0999 V2000
   21.6179   72.1600   -5.0147 P   0  0  2  0  0  0  0  0  0  0  0  0
   22.5703   72.0988   -6.3217 O   0  0  0  0  0  0  0  0  0  0  0  0
   21.7190   70.9740   -4.1010 O   0  0  0  0  0  0  0  0  0  0  0  0
   20.1470   72.4576   -5.6195 O   0  0  0  0  0  0  0  0  0  0  0  0
   19.9796   72.4493   -7.0254 C   0  0  0  0  0  0  0  0  0  0  0  0
   18.9910   70.3696   -6.3361 O   0  0  0  0  0  0  0  0  0  0  0  0
   18.5943   69.8052   -9.2542 O   0  0  0  0  0  0  0  0  0  0  0  0
   16.1152   70.6197   -8.4625 O   0  0  0  0  0  0  0  0  0  0  0  0
   18.5072   71.0463   -8.5539 C   0  0  1  0  0  0  0  0  0  0  0  0
   17.2303   71.1018   -7.7423 C   0  0  2  0  0  0  0  0  0  0  0  0
   19.5750   71.0492   -7.4685 C   0  0  1  0  0  0  0  0  0  0  0  0
   17.5773   70.2288   -6.5484 C   0  0  2  0  0  0  0  0  0  0  0  0
   17.9214   69.7800   -9.9530 H   0  0  0  0  0  0  0  0  0  0  0  0
   15.9347   71.2095   -9.2118 H   0  0  0  0  0  0  0  0  0  0  0  0
   17.0839   68.5333   -4.3443 O   0  0  0  0  0  0  0  0  0  0  0  0
   14.9077   71.8725   -2.0297 O   0  0  0  0  0  0  0  0  0  0  0  0
   16.8840   70.6293   -5.3568 N   0  0  0  0  0  0  0  0  0  0  0  0
   15.9996   70.1977   -3.1940 N   0  0  0  0  0  0  0  0  0  0  0  0
   16.6886   69.7000   -4.3078 C   0  0  0  0  0  0  0  0  0  0  0  0
   16.4077   71.9290   -5.2351 C   0  0  0  0  0  0  0  0  0  0  0  0
   15.7529   72.3888   -4.1672 C   0  0  0  0  0  0  0  0  0  0  0  0
   15.5063   71.4816   -3.0272 C   0  0  0  0  0  0  0  0  0  0  0  0
   15.8497   69.5686   -2.4516 H   0  0  0  0  0  0  0  0  0  0  0  0
   22.0236   73.5697   -4.3357 O   0  0  0  0  0  0  0  0  0  0  0  0
   23.3181   73.9951   -3.4657 P   0  0  2  0  0  0  0  0  0  0  0  0
   23.1733   75.6032   -3.3493 O   0  0  0  0  0  0  0  0  0  0  0  0
   24.6256   73.5319   -4.0402 O   0  0  0  0  0  0  0  0  0  0  0  0
   23.0094   73.4498   -1.9792 O   0  0  0  0  0  0  0  0  0  0  0  0
   20.7111   73.6079   -1.4298 O   0  0  0  0  0  0  0  0  0  0  0  0
   22.3524   72.3939    2.1619 O   0  0  0  0  0  0  0  0  0  0  0  0
   23.6826   74.4249    0.5372 O   0  0  0  0  0  0  0  0  0  0  0  0
   20.8981   70.4972    0.5069 O   0  0  0  0  0  0  0  0  0  0  0  0
   22.2458   72.4806    0.7409 C   0  0  2  0  0  0  0  0  0  0  0  0
   22.3641   73.9419    0.3072 C   0  0  2  0  0  0  0  0  0  0  0  0
   20.8845   71.9129    0.3332 C   0  0  1  0  0  0  0  0  0  0  0  0
   22.0270   74.1013   -1.1760 C   0  0  1  0  0  0  0  0  0  0  0  0
   20.5666   72.2221   -1.1269 C   0  0  1  0  0  0  0  0  0  0  0  0
   23.2099   72.7491    2.4443 H   0  0  0  0  0  0  0  0  0  0  0  0
   23.9033   74.3266    1.4763 H   0  0  0  0  0  0  0  0  0  0  0  0
   21.0995   70.2869    1.4321 H   0  0  0  0  0  0  0  0  0  0  0  0
   18.9422   70.6803   -1.8237 O   0  0  0  0  0  0  0  0  0  0  0  0
   18.2283   72.7858   -1.3173 O   0  0  0  0  0  0  0  0  0  0  0  0
   19.1252   71.9626   -1.4224 C   0  0  0  0  0  0  0  0  0  0  0  0
  1  4  1  0
  1 24  1  0
  1  2  1  6
  1  3  2  0
 25 28  1  0
 25 24  1  0
 25 26  1  1
 25 27  2  0
  6 11  1  0
  6 12  1  0
 29 36  1  0
 29 37  1  0
  9  7  1  1
  7 13  1  0
 10  8  1  6
  8 14  1  0
  4  5  1  0
 36 28  1  6
 33 30  1  1
 30 38  1  0
 34 31  1  6
 31 39  1  0
 35 32  1  6
 32 40  1  0
 41 43  1  0
 15 19  2  0
 42 43  2  0
 16 22  2  0
 12 17  1  1
 17 19  1  0
 17 20  1  0
 18 19  1  0
 18 22  1  0
 18 23  1  0
  9 10  1  0
  9 11  1  0
 10 12  1  0
 11  5  1  1
 33 34  1  0
 33 35  1  0
 34 36  1  0
 35 37  1  0
 37 43  1  1
 20 21  2  0
 21 22  1  0
M  CHG  3   2  -1  26  -1  41  -1
M  END
>  <COMPND>  (190) 
    udp_gluA.pdb 

>  <AUTHOR>  (190) 
    GENERATED BY OPEN BABEL 3.1.1

>  <MASTER>  (190) 
        0    0    0    0    0    0    0    0   56    0   56    0

>  <minimizedAffinity>  (190) 
-6.55684

>  <CNNscore>  (190) 
0.6358993649

>  <CNNaffinity>  (190) 
4.4112334251

>  <CNN_VS>  (190) 
2.8051004410

>  <CNNaffinity_variance>  (190) 
0.2940357327

$$$$
191
     RDKit          3D

 43 45  0  0  0  0  0  0  0  0999 V2000
   21.8967   72.9017   -5.1384 P   0  0  2  0  0  0  0  0  0  0  0  0
   21.7428   74.5029   -4.9616 O   0  0  0  0  0  0  0  0  0  0  0  0
   23.0096   72.4687   -6.0472 O   0  0  0  0  0  0  0  0  0  0  0  0
   20.4135   72.4132   -5.5618 O   0  0  0  0  0  0  0  0  0  0  0  0
   20.0656   72.4197   -6.9342 C   0  0  0  0  0  0  0  0  0  0  0  0
   19.0180   70.3652   -6.2565 O   0  0  0  0  0  0  0  0  0  0  0  0
   18.8680   69.6956   -9.1755 O   0  0  0  0  0  0  0  0  0  0  0  0
   16.3326   70.5356   -8.6258 O   0  0  0  0  0  0  0  0  0  0  0  0
   18.7247   70.9611   -8.5301 C   0  0  1  0  0  0  0  0  0  0  0  0
   17.3839   71.0445   -7.8318 C   0  0  2  0  0  0  0  0  0  0  0  0
   19.6970   71.0041   -7.3592 C   0  0  1  0  0  0  0  0  0  0  0  0
   17.6271   70.2155   -6.5822 C   0  0  2  0  0  0  0  0  0  0  0  0
   18.2566   69.6445   -9.9273 H   0  0  0  0  0  0  0  0  0  0  0  0
   16.2172   71.0978   -9.4084 H   0  0  0  0  0  0  0  0  0  0  0  0
   16.8600   68.5714   -4.4177 O   0  0  0  0  0  0  0  0  0  0  0  0
   14.5931   72.0197   -2.3647 O   0  0  0  0  0  0  0  0  0  0  0  0
   16.8364   70.6579   -5.4687 N   0  0  0  0  0  0  0  0  0  0  0  0
   15.7308   70.2901   -3.3978 N   0  0  0  0  0  0  0  0  0  0  0  0
   16.5061   69.7519   -4.4333 C   0  0  0  0  0  0  0  0  0  0  0  0
   16.3986   71.9753   -5.4089 C   0  0  0  0  0  0  0  0  0  0  0  0
   15.6603   72.4739   -4.4153 C   0  0  0  0  0  0  0  0  0  0  0  0
   15.2710   71.5930   -3.2946 C   0  0  0  0  0  0  0  0  0  0  0  0
   15.4865   69.6779   -2.6665 H   0  0  0  0  0  0  0  0  0  0  0  0
   22.0300   72.3795   -3.6145 O   0  0  0  0  0  0  0  0  0  0  0  0
   23.3249   72.2010   -2.6631 P   0  0  2  0  0  0  0  0  0  0  0  0
   24.0974   73.6147   -2.8207 O   0  0  0  0  0  0  0  0  0  0  0  0
   24.1642   70.9984   -2.9847 O   0  0  0  0  0  0  0  0  0  0  0  0
   22.7358   72.2241   -1.1615 O   0  0  0  0  0  0  0  0  0  0  0  0
   23.9574   70.8989    0.3750 O   0  0  0  0  0  0  0  0  0  0  0  0
   20.6335   71.9224    2.6048 O   0  0  0  0  0  0  0  0  0  0  0  0
   20.3558   71.1532   -0.1998 O   0  0  0  0  0  0  0  0  0  0  0  0
   23.1813   73.2327    3.0977 O   0  0  0  0  0  0  0  0  0  0  0  0
   21.6483   72.1078    1.6180 C   0  0  2  0  0  0  0  0  0  0  0  0
   21.5462   71.0037    0.5652 C   0  0  2  0  0  0  0  0  0  0  0  0
   23.0069   72.0497    2.3200 C   0  0  1  0  0  0  0  0  0  0  0  0
   22.7506   71.0330   -0.3768 C   0  0  1  0  0  0  0  0  0  0  0  0
   24.1502   71.9544    1.3140 C   0  0  1  0  0  0  0  0  0  0  0  0
   19.7610   71.9554    2.1817 H   0  0  0  0  0  0  0  0  0  0  0  0
   19.5875   71.1358    0.3917 H   0  0  0  0  0  0  0  0  0  0  0  0
   22.4599   73.3054    3.7420 H   0  0  0  0  0  0  0  0  0  0  0  0
   26.1702   70.7682    1.1941 O   0  0  0  0  0  0  0  0  0  0  0  0
   25.7568   71.9272    3.1138 O   0  0  0  0  0  0  0  0  0  0  0  0
   25.4242   71.5703    1.9936 C   0  0  0  0  0  0  0  0  0  0  0  0
  1  4  1  0
  1 24  1  0
  1  2  1  1
  1  3  2  0
 25 28  1  0
 25 24  1  0
 25 26  1  1
 25 27  2  0
  6 11  1  0
  6 12  1  0
 29 36  1  0
 29 37  1  0
  9  7  1  1
  7 13  1  0
 10  8  1  6
  8 14  1  0
  4  5  1  0
 36 28  1  1
 33 30  1  1
 30 38  1  0
 34 31  1  6
 31 39  1  0
 35 32  1  6
 32 40  1  0
 41 43  1  0
 15 19  2  0
 42 43  2  0
 16 22  2  0
 12 17  1  1
 17 19  1  0
 17 20  1  0
 18 19  1  0
 18 22  1  0
 18 23  1  0
  9 10  1  0
  9 11  1  0
 10 12  1  0
 11  5  1  1
 33 34  1  0
 33 35  1  0
 34 36  1  0
 35 37  1  0
 37 43  1  1
 20 21  2  0
 21 22  1  0
M  CHG  3   2  -1  26  -1  41  -1
M  END
>  <COMPND>  (191) 
    udp_gluA.pdb 

>  <AUTHOR>  (191) 
    GENERATED BY OPEN BABEL 3.1.1

>  <MASTER>  (191) 
        0    0    0    0    0    0    0    0   56    0   56    0

>  <minimizedAffinity>  (191) 
-7.76204

>  <CNNscore>  (191) 
0.6270895004

>  <CNNaffinity>  (191) 
4.4295425415

>  <CNN_VS>  (191) 
2.7777197361

>  <CNNaffinity_variance>  (191) 
0.1488854289

$$$$
192
     RDKit          3D

 43 45  0  0  0  0  0  0  0  0999 V2000
   21.1867   73.8154   -1.1764 P   0  0  2  0  0  0  0  0  0  0  0  0
   19.9833   74.7749   -0.6763 O   0  0  0  0  0  0  0  0  0  0  0  0
   22.3508   74.5304   -1.7971 O   0  0  0  0  0  0  0  0  0  0  0  0
   20.4489   72.7252   -2.1172 O   0  0  0  0  0  0  0  0  0  0  0  0
   20.2866   73.0186   -3.4927 C   0  0  0  0  0  0  0  0  0  0  0  0
   20.7036   71.1796   -4.9833 O   0  0  0  0  0  0  0  0  0  0  0  0
   23.2826   72.5529   -5.6572 O   0  0  0  0  0  0  0  0  0  0  0  0
   21.6916   73.2005   -7.7751 O   0  0  0  0  0  0  0  0  0  0  0  0
   22.0057   73.1211   -5.3653 C   0  0  1  0  0  0  0  0  0  0  0  0
   21.0668   72.9305   -6.5376 C   0  0  2  0  0  0  0  0  0  0  0  0
   21.3477   72.2694   -4.2884 C   0  0  1  0  0  0  0  0  0  0  0  0
   20.6691   71.4718   -6.3893 C   0  0  2  0  0  0  0  0  0  0  0  0
   23.7223   73.0802   -6.3430 H   0  0  0  0  0  0  0  0  0  0  0  0
   21.9251   74.1414   -7.8209 H   0  0  0  0  0  0  0  0  0  0  0  0
   20.0449   71.0670   -9.1138 O   0  0  0  0  0  0  0  0  0  0  0  0
   15.5683   70.4764   -8.1890 O   0  0  0  0  0  0  0  0  0  0  0  0
   19.3486   71.2104   -6.8882 N   0  0  0  0  0  0  0  0  0  0  0  0
   17.8157   70.7743   -8.6507 N   0  0  0  0  0  0  0  0  0  0  0  0
   19.1427   71.0219   -8.2753 C   0  0  0  0  0  0  0  0  0  0  0  0
   18.2756   71.1413   -6.0080 C   0  0  0  0  0  0  0  0  0  0  0  0
   17.0164   70.9044   -6.3807 C   0  0  0  0  0  0  0  0  0  0  0  0
   16.7154   70.6969   -7.8123 C   0  0  0  0  0  0  0  0  0  0  0  0
   17.6473   70.6418   -9.6116 H   0  0  0  0  0  0  0  0  0  0  0  0
   21.5482   72.9653    0.1501 O   0  0  0  0  0  0  0  0  0  0  0  0
   21.8764   71.3947    0.3476 P   0  0  2  0  0  0  0  0  0  0  0  0
   23.0840   71.1348   -0.6985 O   0  0  0  0  0  0  0  0  0  0  0  0
   20.6925   70.4902    0.1625 O   0  0  0  0  0  0  0  0  0  0  0  0
   22.5697   71.3010    1.8012 O   0  0  0  0  0  0  0  0  0  0  0  0
   23.0479   73.1030    3.2618 O   0  0  0  0  0  0  0  0  0  0  0  0
   25.9325   70.3521    4.3480 O   0  0  0  0  0  0  0  0  0  0  0  0
   25.2906   70.7911    1.5320 O   0  0  0  0  0  0  0  0  0  0  0  0
   23.6100   70.7777    6.0438 O   0  0  0  0  0  0  0  0  0  0  0  0
   24.6574   70.7849    3.8740 C   0  0  2  0  0  0  0  0  0  0  0  0
   24.8385   71.6132    2.6018 C   0  0  2  0  0  0  0  0  0  0  0  0
   24.0070   71.6303    4.9715 C   0  0  1  0  0  0  0  0  0  0  0  0
   23.5259   72.2839    2.1941 C   0  0  1  0  0  0  0  0  0  0  0  0
   22.7753   72.3660    4.4516 C   0  0  1  0  0  0  0  0  0  0  0  0
   26.3647   69.8129    3.6671 H   0  0  0  0  0  0  0  0  0  0  0  0
   26.1231   70.3622    1.7840 H   0  0  0  0  0  0  0  0  0  0  0  0
   24.3849   70.3034    6.3837 H   0  0  0  0  0  0  0  0  0  0  0  0
   21.3032   74.1334    4.9107 O   0  0  0  0  0  0  0  0  0  0  0  0
   22.8573   73.6340    6.5027 O   0  0  0  0  0  0  0  0  0  0  0  0
   22.3462   73.4267    5.4124 C   0  0  0  0  0  0  0  0  0  0  0  0
  1  4  1  0
  1 24  1  0
  1  2  1  1
  1  3  2  0
 25 28  1  0
 25 24  1  0
 25 26  1  6
 25 27  2  0
  6 11  1  0
  6 12  1  0
 29 36  1  0
 29 37  1  0
  9  7  1  6
  7 13  1  0
 10  8  1  6
  8 14  1  0
  4  5  1  0
 36 28  1  1
 33 30  1  1
 30 38  1  0
 34 31  1  6
 31 39  1  0
 35 32  1  1
 32 40  1  0
 41 43  1  0
 15 19  2  0
 42 43  2  0
 16 22  2  0
 12 17  1  1
 17 19  1  0
 17 20  1  0
 18 19  1  0
 18 22  1  0
 18 23  1  0
  9 10  1  0
  9 11  1  0
 10 12  1  0
 11  5  1  6
 33 34  1  0
 33 35  1  0
 34 36  1  0
 35 37  1  0
 37 43  1  1
 20 21  2  0
 21 22  1  0
M  CHG  3   2  -1  26  -1  41  -1
M  END
>  <COMPND>  (192) 
    udp_gluA.pdb 

>  <AUTHOR>  (192) 
    GENERATED BY OPEN BABEL 3.1.1

>  <MASTER>  (192) 
        0    0    0    0    0    0    0    0   56    0   56    0

>  <minimizedAffinity>  (192) 
-7.63862

>  <CNNscore>  (192) 
0.5752749443

>  <CNNaffinity>  (192) 
4.2864575386

>  <CNN_VS>  (192) 
2.4658915997

>  <CNNaffinity_variance>  (192) 
0.0484365597

$$$$
193
     RDKit          3D

 43 45  0  0  0  0  0  0  0  0999 V2000
   22.1597   73.2483   -4.9843 P   0  0  2  0  0  0  0  0  0  0  0  0
   21.8901   74.8381   -4.8481 O   0  0  0  0  0  0  0  0  0  0  0  0
   23.3968   72.8786   -5.7491 O   0  0  0  0  0  0  0  0  0  0  0  0
   20.7694   72.6675   -5.5738 O   0  0  0  0  0  0  0  0  0  0  0  0
   20.6754   72.4208   -6.9648 C   0  0  0  0  0  0  0  0  0  0  0  0
   19.5458   70.4815   -6.1041 O   0  0  0  0  0  0  0  0  0  0  0  0
   19.8425   69.3188   -8.8521 O   0  0  0  0  0  0  0  0  0  0  0  0
   17.2496   70.1632   -8.8391 O   0  0  0  0  0  0  0  0  0  0  0  0
   19.5978   70.6710   -8.4646 C   0  0  1  0  0  0  0  0  0  0  0  0
   18.1664   70.8318   -7.9983 C   0  0  2  0  0  0  0  0  0  0  0  0
   20.3813   70.9429   -7.1877 C   0  0  1  0  0  0  0  0  0  0  0  0
   18.2209   70.2362   -6.6018 C   0  0  2  0  0  0  0  0  0  0  0  0
   19.3521   69.1215   -9.6659 H   0  0  0  0  0  0  0  0  0  0  0  0
   17.2518   70.5797   -9.7157 H   0  0  0  0  0  0  0  0  0  0  0  0
   16.9074   68.8681   -4.5090 O   0  0  0  0  0  0  0  0  0  0  0  0
   14.5877   72.6466   -3.2495 O   0  0  0  0  0  0  0  0  0  0  0  0
   17.2689   70.8382   -5.7117 N   0  0  0  0  0  0  0  0  0  0  0  0
   15.7525   70.7511   -3.8844 N   0  0  0  0  0  0  0  0  0  0  0  0
   16.6660   70.0626   -4.6934 C   0  0  0  0  0  0  0  0  0  0  0  0
   16.9426   72.1818   -5.8509 C   0  0  0  0  0  0  0  0  0  0  0  0
   16.0700   72.8242   -5.0720 C   0  0  0  0  0  0  0  0  0  0  0  0
   15.3951   72.0859   -3.9844 C   0  0  0  0  0  0  0  0  0  0  0  0
   15.3184   70.2314   -3.1697 H   0  0  0  0  0  0  0  0  0  0  0  0
   22.1419   72.7444   -3.4485 O   0  0  0  0  0  0  0  0  0  0  0  0
   22.3873   71.2800   -2.8089 P   0  0  2  0  0  0  0  0  0  0  0  0
   23.9785   71.0540   -3.0019 O   0  0  0  0  0  0  0  0  0  0  0  0
   21.5325   70.1978   -3.4023 O   0  0  0  0  0  0  0  0  0  0  0  0
   22.1954   71.4895   -1.2209 O   0  0  0  0  0  0  0  0  0  0  0  0
   21.8889   73.5996   -0.1901 O   0  0  0  0  0  0  0  0  0  0  0  0
   23.3717   71.3437    2.9373 O   0  0  0  0  0  0  0  0  0  0  0  0
   24.5164   71.0977    0.2608 O   0  0  0  0  0  0  0  0  0  0  0  0
   20.5417   71.9989    2.8240 O   0  0  0  0  0  0  0  0  0  0  0  0
   22.6473   71.5807    1.7302 C   0  0  2  0  0  0  0  0  0  0  0  0
   23.5993   72.1107    0.6577 C   0  0  2  0  0  0  0  0  0  0  0  0
   21.5553   72.6105    2.0284 C   0  0  1  0  0  0  0  0  0  0  0  0
   22.8261   72.5916   -0.5710 C   0  0  1  0  0  0  0  0  0  0  0  0
   20.9179   73.1344    0.7447 C   0  0  1  0  0  0  0  0  0  0  0  0
   24.0713   70.6922    2.7721 H   0  0  0  0  0  0  0  0  0  0  0  0
   25.0104   70.7878    1.0356 H   0  0  0  0  0  0  0  0  0  0  0  0
   20.9343   71.6611    3.6442 H   0  0  0  0  0  0  0  0  0  0  0  0
   19.0145   74.0482    1.7661 O   0  0  0  0  0  0  0  0  0  0  0  0
   20.3727   75.4817    0.6262 O   0  0  0  0  0  0  0  0  0  0  0  0
   20.1025   74.3562    1.0176 C   0  0  0  0  0  0  0  0  0  0  0  0
  1  4  1  0
  1 24  1  0
  1  2  1  1
  1  3  2  0
 25 28  1  0
 25 24  1  0
 25 26  1  1
 25 27  2  0
  6 11  1  0
  6 12  1  0
 29 36  1  0
 29 37  1  0
  9  7  1  1
  7 13  1  0
 10  8  1  6
  8 14  1  0
  4  5  1  0
 36 28  1  1
 33 30  1  1
 30 38  1  0
 34 31  1  6
 31 39  1  0
 35 32  1  1
 32 40  1  0
 41 43  1  0
 15 19  2  0
 42 43  2  0
 16 22  2  0
 12 17  1  1
 17 19  1  0
 17 20  1  0
 18 19  1  0
 18 22  1  0
 18 23  1  0
  9 10  1  0
  9 11  1  0
 10 12  1  0
 11  5  1  1
 33 34  1  0
 33 35  1  0
 34 36  1  0
 35 37  1  0
 37 43  1  1
 20 21  2  0
 21 22  1  0
M  CHG  3   2  -1  26  -1  41  -1
M  END
>  <COMPND>  (193) 
    udp_gluA.pdb 

>  <AUTHOR>  (193) 
    GENERATED BY OPEN BABEL 3.1.1

>  <MASTER>  (193) 
        0    0    0    0    0    0    0    0   56    0   56    0

>  <minimizedAffinity>  (193) 
-7.20523

>  <CNNscore>  (193) 
0.5178046823

>  <CNNaffinity>  (193) 
4.3659138680

>  <CNN_VS>  (193) 
2.2606906891

>  <CNNaffinity_variance>  (193) 
0.2094417810

$$$$
194
     RDKit          3D

 43 45  0  0  0  0  0  0  0  0999 V2000
   21.9308   71.7288   -0.6280 P   0  0  2  0  0  0  0  0  0  0  0  0
   20.8026   70.6807   -0.1305 O   0  0  0  0  0  0  0  0  0  0  0  0
   23.1458   71.1043   -1.2490 O   0  0  0  0  0  0  0  0  0  0  0  0
   22.2026   72.6531    0.6719 O   0  0  0  0  0  0  0  0  0  0  0  0
   21.1747   73.5225    1.1102 C   0  0  0  0  0  0  0  0  0  0  0  0
   21.5502   72.1166    3.0233 O   0  0  0  0  0  0  0  0  0  0  0  0
   19.2226   73.5261    4.2831 O   0  0  0  0  0  0  0  0  0  0  0  0
   21.3625   74.7531    5.4457 O   0  0  0  0  0  0  0  0  0  0  0  0
   20.2301   74.0441    3.4141 C   0  0  1  0  0  0  0  0  0  0  0  0
   21.5388   74.1952    4.1603 C   0  0  2  0  0  0  0  0  0  0  0  0
   20.5684   72.9671    2.3924 C   0  0  1  0  0  0  0  0  0  0  0  0
   22.0415   72.7625    4.2085 C   0  0  2  0  0  0  0  0  0  0  0  0
   18.9899   74.1967    4.9448 H   0  0  0  0  0  0  0  0  0  0  0  0
   21.0419   75.6652    5.3610 H   0  0  0  0  0  0  0  0  0  0  0  0
   23.5290   71.0333    5.8741 O   0  0  0  0  0  0  0  0  0  0  0  0
   27.5371   72.5497    4.1772 O   0  0  0  0  0  0  0  0  0  0  0  0
   23.4749   72.6849    4.2225 N   0  0  0  0  0  0  0  0  0  0  0  0
   25.5239   71.7909    5.0281 N   0  0  0  0  0  0  0  0  0  0  0  0
   24.1245   71.7825    5.0976 C   0  0  0  0  0  0  0  0  0  0  0  0
   24.2216   73.4948    3.3754 C   0  0  0  0  0  0  0  0  0  0  0  0
   25.5549   73.4915    3.3205 C   0  0  0  0  0  0  0  0  0  0  0  0
   26.3104   72.5783    4.2029 C   0  0  0  0  0  0  0  0  0  0  0  0
   25.9984   71.1725    5.6295 H   0  0  0  0  0  0  0  0  0  0  0  0
   21.1045   72.7136   -1.6078 O   0  0  0  0  0  0  0  0  0  0  0  0
   21.6086   73.8444   -2.6474 P   0  0  2  0  0  0  0  0  0  0  0  0
   23.2109   73.6185   -2.6913 O   0  0  0  0  0  0  0  0  0  0  0  0
   21.1906   75.2410   -2.2887 O   0  0  0  0  0  0  0  0  0  0  0  0
   21.0865   73.3383   -4.0875 O   0  0  0  0  0  0  0  0  0  0  0  0
   20.3049   71.1744   -4.6492 O   0  0  0  0  0  0  0  0  0  0  0  0
   21.7934   72.4965   -8.2692 O   0  0  0  0  0  0  0  0  0  0  0  0
   23.2581   73.0015   -5.7925 O   0  0  0  0  0  0  0  0  0  0  0  0
   18.9239   72.4276   -7.8090 O   0  0  0  0  0  0  0  0  0  0  0  0
   21.1798   72.6265   -6.9868 C   0  0  2  0  0  0  0  0  0  0  0  0
   22.1406   72.1281   -5.9069 C   0  0  2  0  0  0  0  0  0  0  0  0
   19.8994   71.7883   -6.9880 C   0  0  1  0  0  0  0  0  0  0  0  0
   21.4394   72.0362   -4.5509 C   0  0  1  0  0  0  0  0  0  0  0  0
   19.3300   71.6390   -5.5802 C   0  0  1  0  0  0  0  0  0  0  0  0
   22.6094   73.0208   -8.2921 H   0  0  0  0  0  0  0  0  0  0  0  0
   23.7076   73.0647   -6.6494 H   0  0  0  0  0  0  0  0  0  0  0  0
   19.2739   72.5288   -8.7079 H   0  0  0  0  0  0  0  0  0  0  0  0
   18.1818   70.0521   -4.2898 O   0  0  0  0  0  0  0  0  0  0  0  0
   17.6223   70.2011   -6.4952 O   0  0  0  0  0  0  0  0  0  0  0  0
   18.2898   70.5673   -5.5396 C   0  0  0  0  0  0  0  0  0  0  0  0
  1  4  1  0
  1 24  1  0
  1  2  1  1
  1  3  2  0
 25 28  1  0
 25 24  1  0
 25 26  1  6
 25 27  2  0
  6 11  1  0
  6 12  1  0
 29 36  1  0
 29 37  1  0
  9  7  1  1
  7 13  1  0
 10  8  1  1
  8 14  1  0
  4  5  1  0
 36 28  1  6
 33 30  1  6
 30 38  1  0
 34 31  1  1
 31 39  1  0
 35 32  1  6
 32 40  1  0
 41 43  1  0
 15 19  2  0
 42 43  2  0
 16 22  2  0
 12 17  1  6
 17 19  1  0
 17 20  1  0
 18 19  1  0
 18 22  1  0
 18 23  1  0
  9 10  1  0
  9 11  1  0
 10 12  1  0
 11  5  1  6
 33 34  1  0
 33 35  1  0
 34 36  1  0
 35 37  1  0
 37 43  1  6
 20 21  2  0
 21 22  1  0
M  CHG  3   2  -1  26  -1  41  -1
M  END
>  <COMPND>  (194) 
    udp_gluA.pdb 

>  <AUTHOR>  (194) 
    GENERATED BY OPEN BABEL 3.1.1

>  <MASTER>  (194) 
        0    0    0    0    0    0    0    0   56    0   56    0

>  <minimizedAffinity>  (194) 
-6.56858

>  <CNNscore>  (194) 
0.5006573796

>  <CNNaffinity>  (194) 
4.0924391747

>  <CNN_VS>  (194) 
2.0489099026

>  <CNNaffinity_variance>  (194) 
0.1181039438

$$$$
195
     RDKit          3D

 43 45  0  0  0  0  0  0  0  0999 V2000
   23.5253   72.0134   -3.2262 P   0  0  2  0  0  0  0  0  0  0  0  0
   24.2037   73.0775   -4.2392 O   0  0  0  0  0  0  0  0  0  0  0  0
   24.3183   70.7598   -2.9998 O   0  0  0  0  0  0  0  0  0  0  0  0
   22.0358   71.8045   -3.8226 O   0  0  0  0  0  0  0  0  0  0  0  0
   21.6043   72.6478   -4.8748 C   0  0  0  0  0  0  0  0  0  0  0  0
   20.7533   70.6319   -5.8695 O   0  0  0  0  0  0  0  0  0  0  0  0
   21.1631   71.9847   -8.5140 O   0  0  0  0  0  0  0  0  0  0  0  0
   18.4818   72.2700   -8.1079 O   0  0  0  0  0  0  0  0  0  0  0  0
   20.7471   72.5437   -7.2679 C   0  0  1  0  0  0  0  0  0  0  0  0
   19.3136   72.1565   -6.9722 C   0  0  2  0  0  0  0  0  0  0  0  0
   21.5053   71.8308   -6.1566 C   0  0  1  0  0  0  0  0  0  0  0  0
   19.4657   70.7206   -6.5000 C   0  0  2  0  0  0  0  0  0  0  0  0
   20.6920   72.4245   -9.2395 H   0  0  0  0  0  0  0  0  0  0  0  0
   18.4166   73.2025   -8.3691 H   0  0  0  0  0  0  0  0  0  0  0  0
   16.8925   69.7890   -7.1978 O   0  0  0  0  0  0  0  0  0  0  0  0
   15.6684   69.3101   -2.7801 O   0  0  0  0  0  0  0  0  0  0  0  0
   18.4549   70.3454   -5.5522 N   0  0  0  0  0  0  0  0  0  0  0  0
   16.2849   69.5524   -4.9968 N   0  0  0  0  0  0  0  0  0  0  0  0
   17.1948   69.8903   -6.0073 C   0  0  0  0  0  0  0  0  0  0  0  0
   18.7163   70.4284   -4.1900 C   0  0  0  0  0  0  0  0  0  0  0  0
   17.8390   70.1026   -3.2387 C   0  0  0  0  0  0  0  0  0  0  0  0
   16.4987   69.6186   -3.6296 C   0  0  0  0  0  0  0  0  0  0  0  0
   15.4000   69.2347   -5.2892 H   0  0  0  0  0  0  0  0  0  0  0  0
   23.2639   72.8942   -1.8963 O   0  0  0  0  0  0  0  0  0  0  0  0
   22.3122   72.6279   -0.6168 P   0  0  2  0  0  0  0  0  0  0  0  0
   21.7434   71.1360   -0.8831 O   0  0  0  0  0  0  0  0  0  0  0  0
   21.2488   73.6679   -0.4133 O   0  0  0  0  0  0  0  0  0  0  0  0
   23.3306   72.4602    0.6230 O   0  0  0  0  0  0  0  0  0  0  0  0
   24.5924   70.8875    1.8654 O   0  0  0  0  0  0  0  0  0  0  0  0
   22.1541   72.5023    4.7834 O   0  0  0  0  0  0  0  0  0  0  0  0
   21.0796   71.8621    2.1433 O   0  0  0  0  0  0  0  0  0  0  0  0
   24.9534   73.2714    4.6310 O   0  0  0  0  0  0  0  0  0  0  0  0
   22.9250   72.5036    3.5819 C   0  0  2  0  0  0  0  0  0  0  0  0
   22.3628   71.4639    2.6121 C   0  0  2  0  0  0  0  0  0  0  0  0
   24.3714   72.1630    3.9476 C   0  0  1  0  0  0  0  0  0  0  0  0
   23.2938   71.2736    1.4138 C   0  0  1  0  0  0  0  0  0  0  0  0
   25.2047   71.8641    2.7047 C   0  0  1  0  0  0  0  0  0  0  0  0
   21.2309   72.7163    4.5757 H   0  0  0  0  0  0  0  0  0  0  0  0
   20.4838   71.9849    2.8985 H   0  0  0  0  0  0  0  0  0  0  0  0
   24.4323   73.4721    5.4242 H   0  0  0  0  0  0  0  0  0  0  0  0
   27.1632   70.8029    1.9702 O   0  0  0  0  0  0  0  0  0  0  0  0
   26.9158   71.0887    4.2188 O   0  0  0  0  0  0  0  0  0  0  0  0
   26.5009   71.2212    3.0771 C   0  0  0  0  0  0  0  0  0  0  0  0
  1  4  1  0
  1 24  1  0
  1  2  1  6
  1  3  2  0
 25 28  1  0
 25 24  1  0
 25 26  1  6
 25 27  2  0
  6 11  1  0
  6 12  1  0
 29 36  1  0
 29 37  1  0
  9  7  1  6
  7 13  1  0
 10  8  1  6
  8 14  1  0
  4  5  1  0
 36 28  1  1
 33 30  1  1
 30 38  1  0
 34 31  1  6
 31 39  1  0
 35 32  1  6
 32 40  1  0
 41 43  1  0
 15 19  2  0
 42 43  2  0
 16 22  2  0
 12 17  1  1
 17 19  1  0
 17 20  1  0
 18 19  1  0
 18 22  1  0
 18 23  1  0
  9 10  1  0
  9 11  1  0
 10 12  1  0
 11  5  1  1
 33 34  1  0
 33 35  1  0
 34 36  1  0
 35 37  1  0
 37 43  1  1
 20 21  2  0
 21 22  1  0
M  CHG  3   2  -1  26  -1  41  -1
M  END
>  <COMPND>  (195) 
    udp_gluA.pdb 

>  <AUTHOR>  (195) 
    GENERATED BY OPEN BABEL 3.1.1

>  <MASTER>  (195) 
        0    0    0    0    0    0    0    0   56    0   56    0

>  <minimizedAffinity>  (195) 
-8.08250

>  <CNNscore>  (195) 
0.4999934137

>  <CNNaffinity>  (195) 
4.2293472290

>  <CNN_VS>  (195) 
2.1146457195

>  <CNNaffinity_variance>  (195) 
0.1377000362

$$$$
196
     RDKit          3D

 43 45  0  0  0  0  0  0  0  0999 V2000
   23.1306   72.2299   -2.5246 P   0  0  2  0  0  0  0  0  0  0  0  0
   24.1805   71.9744   -3.7293 O   0  0  0  0  0  0  0  0  0  0  0  0
   23.0039   73.6598   -2.0872 O   0  0  0  0  0  0  0  0  0  0  0  0
   23.5906   71.1831   -1.3798 O   0  0  0  0  0  0  0  0  0  0  0  0
   23.8412   71.6743   -0.0758 C   0  0  0  0  0  0  0  0  0  0  0  0
   23.3122   70.6447    2.0308 O   0  0  0  0  0  0  0  0  0  0  0  0
   20.5762   71.8295    1.7114 O   0  0  0  0  0  0  0  0  0  0  0  0
   21.7667   73.5437    3.4665 O   0  0  0  0  0  0  0  0  0  0  0  0
   21.8441   72.3699    1.3385 C   0  0  1  0  0  0  0  0  0  0  0  0
   22.5957   72.8386    2.5664 C   0  0  2  0  0  0  0  0  0  0  0  0
   22.7178   71.2231    0.8487 C   0  0  1  0  0  0  0  0  0  0  0  0
   23.1047   71.5288    3.1437 C   0  0  2  0  0  0  0  0  0  0  0  0
   20.0005   72.5437    2.0278 H   0  0  0  0  0  0  0  0  0  0  0  0
   21.4689   74.3695    3.0526 H   0  0  0  0  0  0  0  0  0  0  0  0
   23.3029   72.1770    5.8855 O   0  0  0  0  0  0  0  0  0  0  0  0
   27.9097   72.1097    5.7557 O   0  0  0  0  0  0  0  0  0  0  0  0
   24.3434   71.6868    3.8519 N   0  0  0  0  0  0  0  0  0  0  0  0
   25.5971   72.1439    5.8180 N   0  0  0  0  0  0  0  0  0  0  0  0
   24.3328   72.0134    5.2286 C   0  0  0  0  0  0  0  0  0  0  0  0
   25.5504   71.5171    3.1845 C   0  0  0  0  0  0  0  0  0  0  0  0
   26.7477   71.6447    3.7598 C   0  0  0  0  0  0  0  0  0  0  0  0
   26.8248   71.9854    5.1956 C   0  0  0  0  0  0  0  0  0  0  0  0
   25.6152   72.3729    6.7754 H   0  0  0  0  0  0  0  0  0  0  0  0
   21.7648   71.5748   -3.0885 O   0  0  0  0  0  0  0  0  0  0  0  0
   20.2931   71.4569   -2.4296 P   0  0  2  0  0  0  0  0  0  0  0  0
   19.8493   73.0017   -2.2371 O   0  0  0  0  0  0  0  0  0  0  0  0
   20.2452   70.6384   -1.1720 O   0  0  0  0  0  0  0  0  0  0  0  0
   19.3539   70.9089   -3.6213 O   0  0  0  0  0  0  0  0  0  0  0  0
   17.9611   71.5992   -5.4081 O   0  0  0  0  0  0  0  0  0  0  0  0
   15.3687   69.2952   -3.1633 O   0  0  0  0  0  0  0  0  0  0  0  0
   17.2159   71.1441   -1.8579 O   0  0  0  0  0  0  0  0  0  0  0  0
   16.4867   68.2470   -5.6336 O   0  0  0  0  0  0  0  0  0  0  0  0
   16.6311   69.6838   -3.7049 C   0  0  2  0  0  0  0  0  0  0  0  0
   16.9634   71.1076   -3.2577 C   0  0  2  0  0  0  0  0  0  0  0  0
   16.5327   69.6144   -5.2305 C   0  0  1  0  0  0  0  0  0  0  0  0
   18.1898   71.6417   -3.9991 C   0  0  1  0  0  0  0  0  0  0  0  0
   17.7336   70.2793   -5.8971 C   0  0  1  0  0  0  0  0  0  0  0  0
   15.4073   69.3317   -2.1945 H   0  0  0  0  0  0  0  0  0  0  0  0
   16.4418   70.8063   -1.3813 H   0  0  0  0  0  0  0  0  0  0  0  0
   15.7268   67.8122   -5.2161 H   0  0  0  0  0  0  0  0  0  0  0  0
   18.4717   71.2373   -7.9068 O   0  0  0  0  0  0  0  0  0  0  0  0
   16.5100   70.0765   -7.9666 O   0  0  0  0  0  0  0  0  0  0  0  0
   17.4776   70.5002   -7.3524 C   0  0  0  0  0  0  0  0  0  0  0  0
  1  4  1  0
  1 24  1  0
  1  2  1  6
  1  3  2  0
 25 28  1  0
 25 24  1  0
 25 26  1  1
 25 27  2  0
  6 11  1  0
  6 12  1  0
 29 36  1  0
 29 37  1  0
  9  7  1  1
  7 13  1  0
 10  8  1  1
  8 14  1  0
  4  5  1  0
 36 28  1  6
 33 30  1  1
 30 38  1  0
 34 31  1  1
 31 39  1  0
 35 32  1  1
 32 40  1  0
 41 43  1  0
 15 19  2  0
 42 43  2  0
 16 22  2  0
 12 17  1  6
 17 19  1  0
 17 20  1  0
 18 19  1  0
 18 22  1  0
 18 23  1  0
  9 10  1  0
  9 11  1  0
 10 12  1  0
 11  5  1  6
 33 34  1  0
 33 35  1  0
 34 36  1  0
 35 37  1  0
 37 43  1  6
 20 21  2  0
 21 22  1  0
M  CHG  3   2  -1  26  -1  41  -1
M  END
>  <COMPND>  (196) 
    udp_gluA.pdb 

>  <AUTHOR>  (196) 
    GENERATED BY OPEN BABEL 3.1.1

>  <MASTER>  (196) 
        0    0    0    0    0    0    0    0   56    0   56    0

>  <minimizedAffinity>  (196) 
-7.38227

>  <CNNscore>  (196) 
0.4704221487

>  <CNNaffinity>  (196) 
4.1840705872

>  <CNN_VS>  (196) 
1.9682794809

>  <CNNaffinity_variance>  (196) 
0.1135640740

$$$$
197
     RDKit          3D

 43 45  0  0  0  0  0  0  0  0999 V2000
   22.9011   74.5145   -1.3151 P   0  0  2  0  0  0  0  0  0  0  0  0
   23.8865   74.9197   -0.0970 O   0  0  0  0  0  0  0  0  0  0  0  0
   22.7520   75.5578   -2.3833 O   0  0  0  0  0  0  0  0  0  0  0  0
   21.5337   74.0656   -0.5757 O   0  0  0  0  0  0  0  0  0  0  0  0
   21.4418   72.7480   -0.0660 C   0  0  0  0  0  0  0  0  0  0  0  0
   21.1763   71.7523    2.1056 O   0  0  0  0  0  0  0  0  0  0  0  0
   19.6359   74.2173    2.8423 O   0  0  0  0  0  0  0  0  0  0  0  0
   22.0802   74.6869    3.9563 O   0  0  0  0  0  0  0  0  0  0  0  0
   20.7768   74.0844    1.9941 C   0  0  1  0  0  0  0  0  0  0  0  0
   22.0212   73.8463    2.8229 C   0  0  2  0  0  0  0  0  0  0  0  0
   20.6455   72.7726    1.2323 C   0  0  1  0  0  0  0  0  0  0  0  0
   21.8798   72.3789    3.1899 C   0  0  2  0  0  0  0  0  0  0  0  0
   19.6973   75.0484    3.3395 H   0  0  0  0  0  0  0  0  0  0  0  0
   22.1703   75.6098    3.6700 H   0  0  0  0  0  0  0  0  0  0  0  0
   23.1220   71.9304    5.6863 O   0  0  0  0  0  0  0  0  0  0  0  0
   26.7531   69.8850    3.7177 O   0  0  0  0  0  0  0  0  0  0  0  0
   23.1499   71.7314    3.3586 N   0  0  0  0  0  0  0  0  0  0  0  0
   24.9298   70.9130    4.7034 N   0  0  0  0  0  0  0  0  0  0  0  0
   23.6857   71.5557    4.6564 C   0  0  0  0  0  0  0  0  0  0  0  0
   23.8497   71.2770    2.2475 C   0  0  0  0  0  0  0  0  0  0  0  0
   25.0346   70.6661    2.3081 C   0  0  0  0  0  0  0  0  0  0  0  0
   25.6644   70.4441    3.6263 C   0  0  0  0  0  0  0  0  0  0  0  0
   25.3239   70.7812    5.5959 H   0  0  0  0  0  0  0  0  0  0  0  0
   23.5154   73.1097   -1.8269 O   0  0  0  0  0  0  0  0  0  0  0  0
   23.5520   72.4405   -3.2981 P   0  0  2  0  0  0  0  0  0  0  0  0
   24.0278   70.9218   -3.0019 O   0  0  0  0  0  0  0  0  0  0  0  0
   24.4094   73.1751   -4.2877 O   0  0  0  0  0  0  0  0  0  0  0  0
   22.0022   72.3057   -3.7252 O   0  0  0  0  0  0  0  0  0  0  0  0
   20.5646   70.4462   -4.0161 O   0  0  0  0  0  0  0  0  0  0  0  0
   19.3147   72.9576   -7.0489 O   0  0  0  0  0  0  0  0  0  0  0  0
   22.1611   72.6202   -6.4841 O   0  0  0  0  0  0  0  0  0  0  0  0
   17.7142   72.6708   -4.6392 O   0  0  0  0  0  0  0  0  0  0  0  0
   19.8441   72.6283   -5.7647 C   0  0  2  0  0  0  0  0  0  0  0  0
   21.1266   71.8132   -5.9335 C   0  0  2  0  0  0  0  0  0  0  0  0
   18.7897   71.8120   -5.0137 C   0  0  1  0  0  0  0  0  0  0  0  0
   21.5962   71.2483   -4.5922 C   0  0  1  0  0  0  0  0  0  0  0  0
   19.3698   71.1784   -3.7526 C   0  0  1  0  0  0  0  0  0  0  0  0
   19.9676   73.4766   -7.5446 H   0  0  0  0  0  0  0  0  0  0  0  0
   21.8697   72.9823   -7.3353 H   0  0  0  0  0  0  0  0  0  0  0  0
   17.3362   73.0806   -5.4329 H   0  0  0  0  0  0  0  0  0  0  0  0
   17.6263   69.6703   -4.1854 O   0  0  0  0  0  0  0  0  0  0  0  0
   18.4332   69.7435   -2.0540 O   0  0  0  0  0  0  0  0  0  0  0  0
   18.4486   70.1339   -3.2118 C   0  0  0  0  0  0  0  0  0  0  0  0
  1  4  1  0
  1 24  1  0
  1  2  1  1
  1  3  2  0
 25 28  1  0
 25 24  1  0
 25 26  1  1
 25 27  2  0
  6 11  1  0
  6 12  1  0
 29 36  1  0
 29 37  1  0
  9  7  1  1
  7 13  1  0
 10  8  1  1
  8 14  1  0
  4  5  1  0
 36 28  1  1
 33 30  1  6
 30 38  1  0
 34 31  1  1
 31 39  1  0
 35 32  1  1
 32 40  1  0
 41 43  1  0
 15 19  2  0
 42 43  2  0
 16 22  2  0
 12 17  1  6
 17 19  1  0
 17 20  1  0
 18 19  1  0
 18 22  1  0
 18 23  1  0
  9 10  1  0
  9 11  1  0
 10 12  1  0
 11  5  1  6
 33 34  1  0
 33 35  1  0
 34 36  1  0
 35 37  1  0
 37 43  1  6
 20 21  2  0
 21 22  1  0
M  CHG  3   2  -1  26  -1  41  -1
M  END
>  <COMPND>  (197) 
    udp_gluA.pdb 

>  <AUTHOR>  (197) 
    GENERATED BY OPEN BABEL 3.1.1

>  <MASTER>  (197) 
        0    0    0    0    0    0    0    0   56    0   56    0

>  <minimizedAffinity>  (197) 
-6.77516

>  <CNNscore>  (197) 
0.4635823965

>  <CNNaffinity>  (197) 
3.9445166588

>  <CNN_VS>  (197) 
1.8286085129

>  <CNNaffinity_variance>  (197) 
0.2895580232

$$$$
198
     RDKit          3D

 43 45  0  0  0  0  0  0  0  0999 V2000
   18.9157   73.2228   -3.4892 P   0  0  2  0  0  0  0  0  0  0  0  0
   19.2081   74.4386   -2.4620 O   0  0  0  0  0  0  0  0  0  0  0  0
   17.6658   73.3705   -4.3063 O   0  0  0  0  0  0  0  0  0  0  0  0
   18.9951   71.9010   -2.5593 O   0  0  0  0  0  0  0  0  0  0  0  0
   19.1951   72.0647   -1.1673 C   0  0  0  0  0  0  0  0  0  0  0  0
   21.3251   71.0854   -1.6981 O   0  0  0  0  0  0  0  0  0  0  0  0
   21.5019   70.3517    1.2039 O   0  0  0  0  0  0  0  0  0  0  0  0
   23.0914   72.5622    1.0503 O   0  0  0  0  0  0  0  0  0  0  0  0
   20.9424   71.5178    0.5991 C   0  0  1  0  0  0  0  0  0  0  0  0
   22.0438   72.4352    0.1116 C   0  0  2  0  0  0  0  0  0  0  0  0
   20.2773   71.0977   -0.7045 C   0  0  1  0  0  0  0  0  0  0  0  0
   22.4855   71.7454   -1.1679 C   0  0  2  0  0  0  0  0  0  0  0  0
   21.9326   70.5951    2.0388 H   0  0  0  0  0  0  0  0  0  0  0  0
   22.7598   73.0073    1.8464 H   0  0  0  0  0  0  0  0  0  0  0  0
   24.2166   71.0480   -3.2876 O   0  0  0  0  0  0  0  0  0  0  0  0
   24.3337   75.3793   -4.8593 O   0  0  0  0  0  0  0  0  0  0  0  0
   22.9838   72.6710   -2.1455 N   0  0  0  0  0  0  0  0  0  0  0  0
   24.2741   73.2061   -4.0678 N   0  0  0  0  0  0  0  0  0  0  0  0
   23.8485   72.2182   -3.1699 C   0  0  0  0  0  0  0  0  0  0  0  0
   22.6147   74.0093   -2.0849 C   0  0  0  0  0  0  0  0  0  0  0  0
   23.0285   74.9392   -2.9480 C   0  0  0  0  0  0  0  0  0  0  0  0
   23.9348   74.5492   -4.0480 C   0  0  0  0  0  0  0  0  0  0  0  0
   24.8784   72.9152   -4.7885 H   0  0  0  0  0  0  0  0  0  0  0  0
   20.2794   73.1417   -4.3532 O   0  0  0  0  0  0  0  0  0  0  0  0
   20.5702   73.4654   -5.9103 P   0  0  2  0  0  0  0  0  0  0  0  0
   22.0226   72.7964   -6.1621 O   0  0  0  0  0  0  0  0  0  0  0  0
   20.4914   74.9229   -6.2614 O   0  0  0  0  0  0  0  0  0  0  0  0
   19.5421   72.5245   -6.7228 O   0  0  0  0  0  0  0  0  0  0  0  0
   18.8952   70.3551   -6.0268 O   0  0  0  0  0  0  0  0  0  0  0  0
   18.1784   70.1824  -10.0918 O   0  0  0  0  0  0  0  0  0  0  0  0
   20.5962   71.4628   -9.0675 O   0  0  0  0  0  0  0  0  0  0  0  0
   15.9629   70.4571   -8.2299 O   0  0  0  0  0  0  0  0  0  0  0  0
   18.2751   70.8052   -8.8109 C   0  0  2  0  0  0  0  0  0  0  0  0
   19.7050   70.6760   -8.2856 C   0  0  2  0  0  0  0  0  0  0  0  0
   17.2961   70.1020   -7.8681 C   0  0  1  0  0  0  0  0  0  0  0  0
   19.7944   71.1243   -6.8262 C   0  0  1  0  0  0  0  0  0  0  0  0
   17.5320   70.5079   -6.4161 C   0  0  1  0  0  0  0  0  0  0  0  0
   18.7919   70.6129  -10.7080 H   0  0  0  0  0  0  0  0  0  0  0  0
   20.5445   71.1838   -9.9948 H   0  0  0  0  0  0  0  0  0  0  0  0
   15.7998   70.2043   -9.1520 H   0  0  0  0  0  0  0  0  0  0  0  0
   16.7371   70.1274   -4.2425 O   0  0  0  0  0  0  0  0  0  0  0  0
   16.3490   68.5000   -5.7917 O   0  0  0  0  0  0  0  0  0  0  0  0
   16.8119   69.5882   -5.4845 C   0  0  0  0  0  0  0  0  0  0  0  0
  1  4  1  0
  1 24  1  0
  1  2  1  1
  1  3  2  0
 25 28  1  0
 25 24  1  0
 25 26  1  6
 25 27  2  0
  6 11  1  0
  6 12  1  0
 29 36  1  0
 29 37  1  0
  9  7  1  6
  7 13  1  0
 10  8  1  1
  8 14  1  0
  4  5  1  0
 36 28  1  6
 33 30  1  6
 30 38  1  0
 34 31  1  6
 31 39  1  0
 35 32  1  6
 32 40  1  0
 41 43  1  0
 15 19  2  0
 42 43  2  0
 16 22  2  0
 12 17  1  6
 17 19  1  0
 17 20  1  0
 18 19  1  0
 18 22  1  0
 18 23  1  0
  9 10  1  0
  9 11  1  0
 10 12  1  0
 11  5  1  6
 33 34  1  0
 33 35  1  0
 34 36  1  0
 35 37  1  0
 37 43  1  1
 20 21  2  0
 21 22  1  0
M  CHG  3   2  -1  26  -1  41  -1
M  END
>  <COMPND>  (198) 
    udp_gluA.pdb 

>  <AUTHOR>  (198) 
    GENERATED BY OPEN BABEL 3.1.1

>  <MASTER>  (198) 
        0    0    0    0    0    0    0    0   56    0   56    0

>  <minimizedAffinity>  (198) 
-7.62318

>  <CNNscore>  (198) 
0.4593022466

>  <CNNaffinity>  (198) 
4.0926485062

>  <CNN_VS>  (198) 
1.8797626495

>  <CNNaffinity_variance>  (198) 
0.5703983903

$$$$
199
     RDKit          3D

 43 45  0  0  0  0  0  0  0  0999 V2000
   22.6961   71.5310   -2.5762 P   0  0  2  0  0  0  0  0  0  0  0  0
   21.9938   72.9760   -2.7706 O   0  0  0  0  0  0  0  0  0  0  0  0
   24.0073   71.3632   -3.2863 O   0  0  0  0  0  0  0  0  0  0  0  0
   21.5370   70.4779   -2.9827 O   0  0  0  0  0  0  0  0  0  0  0  0
   20.4506   70.9371   -3.7659 C   0  0  0  0  0  0  0  0  0  0  0  0
   18.2288   71.7976   -3.4479 O   0  0  0  0  0  0  0  0  0  0  0  0
   17.6602   69.2600   -1.9550 O   0  0  0  0  0  0  0  0  0  0  0  0
   16.5391   68.7803   -4.3941 O   0  0  0  0  0  0  0  0  0  0  0  0
   18.4821   69.4677   -3.1039 C   0  0  1  0  0  0  0  0  0  0  0  0
   17.6223   69.6843   -4.3311 C   0  0  2  0  0  0  0  0  0  0  0  0
   19.1679   70.8186   -2.9528 C   0  0  1  0  0  0  0  0  0  0  0  0
   17.1725   71.1242   -4.1509 C   0  0  2  0  0  0  0  0  0  0  0  0
   17.2115   68.4027   -2.0288 H   0  0  0  0  0  0  0  0  0  0  0  0
   16.8774   67.8779   -4.5093 H   0  0  0  0  0  0  0  0  0  0  0  0
   14.8839   72.6674   -4.7485 O   0  0  0  0  0  0  0  0  0  0  0  0
   16.4147   73.6283   -8.9885 O   0  0  0  0  0  0  0  0  0  0  0  0
   16.9474   71.7888   -5.4033 N   0  0  0  0  0  0  0  0  0  0  0  0
   15.6481   73.1437   -6.8601 N   0  0  0  0  0  0  0  0  0  0  0  0
   15.7641   72.5389   -5.6016 C   0  0  0  0  0  0  0  0  0  0  0  0
   17.8925   71.6956   -6.4177 C   0  0  0  0  0  0  0  0  0  0  0  0
   17.7679   72.2778   -7.6120 C   0  0  0  0  0  0  0  0  0  0  0  0
   16.5606   73.0792   -7.9006 C   0  0  0  0  0  0  0  0  0  0  0  0
   14.8317   73.6696   -7.0224 H   0  0  0  0  0  0  0  0  0  0  0  0
   22.7767   71.3801   -0.9688 O   0  0  0  0  0  0  0  0  0  0  0  0
   21.7101   71.7538    0.1872 P   0  0  2  0  0  0  0  0  0  0  0  0
   20.6553   70.5274    0.1277 O   0  0  0  0  0  0  0  0  0  0  0  0
   21.0886   73.1120    0.0358 O   0  0  0  0  0  0  0  0  0  0  0  0
   22.5116   71.5347    1.5699 O   0  0  0  0  0  0  0  0  0  0  0  0
   23.3031   73.3115    2.9212 O   0  0  0  0  0  0  0  0  0  0  0  0
   25.7671   70.2069    4.0868 O   0  0  0  0  0  0  0  0  0  0  0  0
   25.1137   70.6003    1.2667 O   0  0  0  0  0  0  0  0  0  0  0  0
   23.5894   71.0672    5.8097 O   0  0  0  0  0  0  0  0  0  0  0  0
   24.5588   70.8067    3.6195 C   0  0  2  0  0  0  0  0  0  0  0  0
   24.8249   71.5337    2.3011 C   0  0  2  0  0  0  0  0  0  0  0  0
   24.0786   71.7949    4.6847 C   0  0  1  0  0  0  0  0  0  0  0  0
   23.6179   72.3771    1.8881 C   0  0  1  0  0  0  0  0  0  0  0  0
   22.9579   72.6846    4.1545 C   0  0  1  0  0  0  0  0  0  0  0  0
   26.0912   69.5748    3.4259 H   0  0  0  0  0  0  0  0  0  0  0  0
   25.8785   70.0615    1.5222 H   0  0  0  0  0  0  0  0  0  0  0  0
   24.2931   70.4968    6.1567 H   0  0  0  0  0  0  0  0  0  0  0  0
   22.0138   73.4615    6.1561 O   0  0  0  0  0  0  0  0  0  0  0  0
   23.1191   74.9838    4.8677 O   0  0  0  0  0  0  0  0  0  0  0  0
   22.7249   73.8446    5.0668 C   0  0  0  0  0  0  0  0  0  0  0  0
  1  4  1  0
  1 24  1  0
  1  2  1  1
  1  3  2  0
 25 28  1  0
 25 24  1  0
 25 26  1  1
 25 27  2  0
  6 11  1  0
  6 12  1  0
 29 36  1  0
 29 37  1  0
  9  7  1  1
  7 13  1  0
 10  8  1  1
  8 14  1  0
  4  5  1  0
 36 28  1  1
 33 30  1  1
 30 38  1  0
 34 31  1  6
 31 39  1  0
 35 32  1  1
 32 40  1  0
 41 43  1  0
 15 19  2  0
 42 43  2  0
 16 22  2  0
 12 17  1  6
 17 19  1  0
 17 20  1  0
 18 19  1  0
 18 22  1  0
 18 23  1  0
  9 10  1  0
  9 11  1  0
 10 12  1  0
 11  5  1  6
 33 34  1  0
 33 35  1  0
 34 36  1  0
 35 37  1  0
 37 43  1  1
 20 21  2  0
 21 22  1  0
M  CHG  3   2  -1  26  -1  41  -1
M  END
>  <COMPND>  (199) 
    udp_gluA.pdb 

>  <AUTHOR>  (199) 
    GENERATED BY OPEN BABEL 3.1.1

>  <MASTER>  (199) 
        0    0    0    0    0    0    0    0   56    0   56    0

>  <minimizedAffinity>  (199) 
-7.22737

>  <CNNscore>  (199) 
0.4202132225

>  <CNNaffinity>  (199) 
4.1258573532

>  <CNN_VS>  (199) 
1.7337398529

>  <CNNaffinity_variance>  (199) 
0.0951464772

$$$$
200
     RDKit          3D

 43 45  0  0  0  0  0  0  0  0999 V2000
   23.2716   73.1893   -3.6515 P   0  0  2  0  0  0  0  0  0  0  0  0
   24.1199   71.8143   -3.7451 O   0  0  0  0  0  0  0  0  0  0  0  0
   24.0542   74.4373   -3.9374 O   0  0  0  0  0  0  0  0  0  0  0  0
   22.5730   73.1163   -2.1939 O   0  0  0  0  0  0  0  0  0  0  0  0
   23.3653   72.7399   -1.0826 C   0  0  0  0  0  0  0  0  0  0  0  0
   23.7313   70.9718    0.5041 O   0  0  0  0  0  0  0  0  0  0  0  0
   20.7799   70.4674    0.3420 O   0  0  0  0  0  0  0  0  0  0  0  0
   21.0181   71.8684    2.6694 O   0  0  0  0  0  0  0  0  0  0  0  0
   21.4893   71.7053    0.2896 C   0  0  1  0  0  0  0  0  0  0  0  0
   21.9909   72.0809    1.6678 C   0  0  2  0  0  0  0  0  0  0  0  0
   22.7883   71.4706   -0.4692 C   0  0  1  0  0  0  0  0  0  0  0  0
   23.1979   71.1715    1.8228 C   0  0  2  0  0  0  0  0  0  0  0  0
   19.9460   70.5923    0.8223 H   0  0  0  0  0  0  0  0  0  0  0  0
   20.2706   72.4709    2.5270 H   0  0  0  0  0  0  0  0  0  0  0  0
   25.2374   69.6955    3.1028 O   0  0  0  0  0  0  0  0  0  0  0  0
   27.0475   73.4890    4.9942 O   0  0  0  0  0  0  0  0  0  0  0  0
   24.2152   71.7482    2.6555 N   0  0  0  0  0  0  0  0  0  0  0  0
   26.1364   71.5861    4.0444 N   0  0  0  0  0  0  0  0  0  0  0  0
   25.1937   70.9181    3.2518 C   0  0  0  0  0  0  0  0  0  0  0  0
   24.2380   73.1205    2.8730 C   0  0  0  0  0  0  0  0  0  0  0  0
   25.1429   73.7428    3.6310 C   0  0  0  0  0  0  0  0  0  0  0  0
   26.1995   72.9481    4.2909 C   0  0  0  0  0  0  0  0  0  0  0  0
   26.8265   71.0290    4.4717 H   0  0  0  0  0  0  0  0  0  0  0  0
   22.0366   72.9231   -4.6600 O   0  0  0  0  0  0  0  0  0  0  0  0
   20.7603   71.9384   -4.5384 P   0  0  2  0  0  0  0  0  0  0  0  0
   19.5953   72.9107   -3.9746 O   0  0  0  0  0  0  0  0  0  0  0  0
   21.0035   70.7154   -3.7023 O   0  0  0  0  0  0  0  0  0  0  0  0
   20.3326   71.6325   -6.0635 O   0  0  0  0  0  0  0  0  0  0  0  0
   18.0804   70.9014   -6.1123 O   0  0  0  0  0  0  0  0  0  0  0  0
   19.1382   70.6318  -10.0968 O   0  0  0  0  0  0  0  0  0  0  0  0
   20.9879   69.7581   -8.0112 O   0  0  0  0  0  0  0  0  0  0  0  0
   17.4606   72.8206   -9.1774 O   0  0  0  0  0  0  0  0  0  0  0  0
   19.1672   71.1684   -8.7742 C   0  0  2  0  0  0  0  0  0  0  0  0
   19.6209   70.0872   -7.7931 C   0  0  2  0  0  0  0  0  0  0  0  0
   17.7551   71.6446   -8.4260 C   0  0  1  0  0  0  0  0  0  0  0  0
   19.4451   70.5522   -6.3468 C   0  0  1  0  0  0  0  0  0  0  0  0
   17.6274   71.9699   -6.9406 C   0  0  1  0  0  0  0  0  0  0  0  0
   20.0251   70.3226  -10.3400 H   0  0  0  0  0  0  0  0  0  0  0  0
   21.1067   69.4624   -8.9271 H   0  0  0  0  0  0  0  0  0  0  0  0
   17.5384   72.6271  -10.1246 H   0  0  0  0  0  0  0  0  0  0  0  0
   15.9959   71.6753   -5.2814 O   0  0  0  0  0  0  0  0  0  0  0  0
   15.3111   72.5607   -7.2679 O   0  0  0  0  0  0  0  0  0  0  0  0
   16.1923   72.1119   -6.5502 C   0  0  0  0  0  0  0  0  0  0  0  0
  1  4  1  0
  1 24  1  0
  1  2  1  1
  1  3  2  0
 25 28  1  0
 25 24  1  0
 25 26  1  1
 25 27  2  0
  6 11  1  0
  6 12  1  0
 29 36  1  0
 29 37  1  0
  9  7  1  1
  7 13  1  0
 10  8  1  1
  8 14  1  0
  4  5  1  0
 36 28  1  6
 33 30  1  6
 30 38  1  0
 34 31  1  6
 31 39  1  0
 35 32  1  6
 32 40  1  0
 41 43  1  0
 15 19  2  0
 42 43  2  0
 16 22  2  0
 12 17  1  1
 17 19  1  0
 17 20  1  0
 18 19  1  0
 18 22  1  0
 18 23  1  0
  9 10  1  0
  9 11  1  0
 10 12  1  0
 11  5  1  1
 33 34  1  0
 33 35  1  0
 34 36  1  0
 35 37  1  0
 37 43  1  1
 20 21  2  0
 21 22  1  0
M  CHG  3   2  -1  26  -1  41  -1
M  END
