1
     RDKit          3D

 43 45  0  0  0  0  0  0  0  0999 V2000
   21.0370   72.7422   -4.2023 P   0  0  2  0  0  0  0  0  0  0  0  0
   20.0967   73.9031   -4.8232 O   0  0  0  0  0  0  0  0  0  0  0  0
   21.6357   71.8051   -5.2096 O   0  0  0  0  0  0  0  0  0  0  0  0
   20.1089   72.0557   -3.0686 O   0  0  0  0  0  0  0  0  0  0  0  0
   19.4665   70.8297   -3.3719 C   0  0  0  0  0  0  0  0  0  0  0  0
   17.6713   71.6797   -4.7242 O   0  0  0  0  0  0  0  0  0  0  0  0
   15.8391   70.0969   -2.9555 O   0  0  0  0  0  0  0  0  0  0  0  0
   16.0361   68.5191   -5.1710 O   0  0  0  0  0  0  0  0  0  0  0  0
   17.1514   69.7752   -3.4133 C   0  0  1  0  0  0  0  0  0  0  0  0
   17.1164   69.3806   -4.8750 C   0  0  2  0  0  0  0  0  0  0  0  0
   17.9641   71.0634   -3.4511 C   0  0  1  0  0  0  0  0  0  0  0  0
   16.9938   70.7297   -5.5628 C   0  0  2  0  0  0  0  0  0  0  0  0
   15.3014   69.2896   -2.9227 H   0  0  0  0  0  0  0  0  0  0  0  0
   16.1602   67.6746   -4.7104 H   0  0  0  0  0  0  0  0  0  0  0  0
   15.6458   70.0828   -7.9592 O   0  0  0  0  0  0  0  0  0  0  0  0
   19.4280   70.7967  -10.4943 O   0  0  0  0  0  0  0  0  0  0  0  0
   17.6019   70.7387   -6.8634 N   0  0  0  0  0  0  0  0  0  0  0  0
   17.5301   70.4390   -9.2195 N   0  0  0  0  0  0  0  0  0  0  0  0
   16.8371   70.3968   -8.0030 C   0  0  0  0  0  0  0  0  0  0  0  0
   18.9421   71.0841   -6.9993 C   0  0  0  0  0  0  0  0  0  0  0  0
   19.5885   71.1183   -8.1665 C   0  0  0  0  0  0  0  0  0  0  0  0
   18.8618   70.7747   -9.4058 C   0  0  0  0  0  0  0  0  0  0  0  0
   17.0177   70.2043  -10.0270 H   0  0  0  0  0  0  0  0  0  0  0  0
   22.1162   73.5747   -3.3332 O   0  0  0  0  0  0  0  0  0  0  0  0
   23.4039   73.0842   -2.4880 P   0  0  2  0  0  0  0  0  0  0  0  0
   24.3211   74.4143   -2.4040 O   0  0  0  0  0  0  0  0  0  0  0  0
   24.1006   71.8871   -3.0672 O   0  0  0  0  0  0  0  0  0  0  0  0
   22.8511   72.8747   -0.9862 O   0  0  0  0  0  0  0  0  0  0  0  0
   23.7550   70.9865    0.1248 O   0  0  0  0  0  0  0  0  0  0  0  0
   20.6413   71.8390    2.6995 O   0  0  0  0  0  0  0  0  0  0  0  0
   23.3411   72.3936    3.5067 O   0  0  0  0  0  0  0  0  0  0  0  0
   20.2748   72.1331   -0.1569 O   0  0  0  0  0  0  0  0  0  0  0  0
   21.6981   72.1462    1.7861 C   0  0  1  0  0  0  0  0  0  0  0  0
   23.0063   71.6062    2.3673 C   0  0  1  0  0  0  0  0  0  0  0  0
   21.3985   71.4931    0.4382 C   0  0  2  0  0  0  0  0  0  0  0  0
   24.1365   71.6589    1.3306 C   0  0  1  0  0  0  0  0  0  0  0  0
   22.6043   71.5575   -0.5011 C   0  0  1  0  0  0  0  0  0  0  0  0
   20.8251   72.2512    3.5573 H   0  0  0  0  0  0  0  0  0  0  0  0
   22.6190   72.3521    4.1534 H   0  0  0  0  0  0  0  0  0  0  0  0
   19.5182   72.0853    0.4473 H   0  0  0  0  0  0  0  0  0  0  0  0
   25.0502   70.0354    2.8266 O   0  0  0  0  0  0  0  0  0  0  0  0
   25.4083   70.9812    1.8359 C   0  0  0  0  0  0  0  0  0  0  0  0
   25.8498   69.5959    3.1573 H   0  0  0  0  0  0  0  0  0  0  0  0
 25 28  1  0
 25 24  1  0
 25 26  1  1
 25 27  2  0
  1  4  1  0
  1 24  1  0
  1  2  1  6
  1  3  2  0
  6 11  1  0
  6 12  1  0
 29 36  1  0
 29 37  1  0
  9  7  1  6
  7 13  1  0
 10  8  1  1
  8 14  1  0
 37 28  1  1
  4  5  1  0
 33 30  1  1
 30 38  1  0
 34 31  1  1
 31 39  1  0
 35 32  1  6
 32 40  1  0
 41 42  1  0
 41 43  1  0
 15 19  2  0
 16 22  2  0
 12 17  1  6
 17 19  1  0
 17 20  1  0
 18 19  1  0
 18 22  1  0
 18 23  1  0
  9 10  1  0
  9 11  1  0
 10 12  1  0
 11  5  1  6
 33 34  1  0
 33 35  1  0
 34 36  1  0
 35 37  1  0
 36 42  1  1
 20 21  2  0
 21 22  1  0
M  CHG  2   2  -1  26  -1
M  END
>  <COMPND>  (1) 
    8629 

>  <AUTHOR>  (1) 
    GENERATED BY OPEN BABEL 3.1.1

>  <MASTER>  (1) 
        0    0    0    0    0    0    0    0   58    0   58    0

>  <minimizedAffinity>  (1) 
-7.50099

>  <CNNscore>  (1) 
0.8796703219

>  <CNNaffinity>  (1) 
4.7345657349

>  <CNN_VS>  (1) 
4.1648569107

>  <CNNaffinity_variance>  (1) 
0.1527688354

$$$$
2
     RDKit          3D

 43 45  0  0  0  0  0  0  0  0999 V2000
   23.4950   72.2440   -3.0644 P   0  0  2  0  0  0  0  0  0  0  0  0
   24.3691   73.3786   -3.8169 O   0  0  0  0  0  0  0  0  0  0  0  0
   24.0804   70.8630   -3.1041 O   0  0  0  0  0  0  0  0  0  0  0  0
   22.0189   72.4003   -3.7083 O   0  0  0  0  0  0  0  0  0  0  0  0
   21.2743   71.2269   -3.9850 C   0  0  0  0  0  0  0  0  0  0  0  0
   19.1223   71.9167   -4.8018 O   0  0  0  0  0  0  0  0  0  0  0  0
   17.9820   70.5985   -2.3619 O   0  0  0  0  0  0  0  0  0  0  0  0
   17.5222   68.7450   -4.3087 O   0  0  0  0  0  0  0  0  0  0  0  0
   19.0941   70.2043   -3.1638 C   0  0  1  0  0  0  0  0  0  0  0  0
   18.6153   69.6243   -4.4783 C   0  0  2  0  0  0  0  0  0  0  0  0
   19.8163   71.4668   -3.6176 C   0  0  1  0  0  0  0  0  0  0  0  0
   18.2445   70.8744   -5.2579 C   0  0  2  0  0  0  0  0  0  0  0  0
   17.5052   69.8088   -2.0601 H   0  0  0  0  0  0  0  0  0  0  0  0
   17.8086   67.9658   -3.8073 H   0  0  0  0  0  0  0  0  0  0  0  0
   16.1725   70.1666   -7.0422 O   0  0  0  0  0  0  0  0  0  0  0  0
   19.0147   70.2613  -10.6690 O   0  0  0  0  0  0  0  0  0  0  0  0
   18.4150   70.7076   -6.6737 N   0  0  0  0  0  0  0  0  0  0  0  0
   17.5893   70.2145   -8.8466 N   0  0  0  0  0  0  0  0  0  0  0  0
   17.3099   70.3499   -7.4808 C   0  0  0  0  0  0  0  0  0  0  0  0
   19.6668   70.8987   -7.2483 C   0  0  0  0  0  0  0  0  0  0  0  0
   19.9170   70.7644   -8.5524 C   0  0  0  0  0  0  0  0  0  0  0  0
   18.8167   70.3925   -9.4651 C   0  0  0  0  0  0  0  0  0  0  0  0
   16.8348   69.9654   -9.4283 H   0  0  0  0  0  0  0  0  0  0  0  0
   23.3098   72.8537   -1.5788 O   0  0  0  0  0  0  0  0  0  0  0  0
   22.1551   72.6204   -0.4720 P   0  0  2  0  0  0  0  0  0  0  0  0
   21.8199   71.0438   -0.6121 O   0  0  0  0  0  0  0  0  0  0  0  0
   20.9649   73.5225   -0.6248 O   0  0  0  0  0  0  0  0  0  0  0  0
   22.9157   72.7509    0.9456 O   0  0  0  0  0  0  0  0  0  0  0  0
   24.5472   71.3339    1.9187 O   0  0  0  0  0  0  0  0  0  0  0  0
   22.5242   72.4569    5.3388 O   0  0  0  0  0  0  0  0  0  0  0  0
   25.1467   73.5121    4.8316 O   0  0  0  0  0  0  0  0  0  0  0  0
   21.0587   71.9553    2.8934 O   0  0  0  0  0  0  0  0  0  0  0  0
   23.0701   72.6375    4.0293 C   0  0  1  0  0  0  0  0  0  0  0  0
   24.5829   72.4227    4.1066 C   0  0  1  0  0  0  0  0  0  0  0  0
   22.4314   71.6268    3.0786 C   0  0  2  0  0  0  0  0  0  0  0  0
   25.2024   72.3358    2.7052 C   0  0  1  0  0  0  0  0  0  0  0  0
   23.1531   71.5852    1.7304 C   0  0  1  0  0  0  0  0  0  0  0  0
   22.9252   73.0960    5.9473 H   0  0  0  0  0  0  0  0  0  0  0  0
   24.7467   73.5561    5.7144 H   0  0  0  0  0  0  0  0  0  0  0  0
   20.6129   71.9782    3.7539 H   0  0  0  0  0  0  0  0  0  0  0  0
   26.8105   70.5841    2.4723 O   0  0  0  0  0  0  0  0  0  0  0  0
   26.6829   71.9651    2.7564 C   0  0  0  0  0  0  0  0  0  0  0  0
   27.7477   70.3339    2.5010 H   0  0  0  0  0  0  0  0  0  0  0  0
 25 28  1  0
 25 24  1  0
 25 26  1  6
 25 27  2  0
  1  4  1  0
  1 24  1  0
  1  2  1  6
  1  3  2  0
  6 11  1  0
  6 12  1  0
 29 36  1  0
 29 37  1  0
  9  7  1  1
  7 13  1  0
 10  8  1  1
  8 14  1  0
 37 28  1  1
  4  5  1  0
 33 30  1  1
 30 38  1  0
 34 31  1  1
 31 39  1  0
 35 32  1  6
 32 40  1  0
 41 42  1  0
 41 43  1  0
 15 19  2  0
 16 22  2  0
 12 17  1  6
 17 19  1  0
 17 20  1  0
 18 19  1  0
 18 22  1  0
 18 23  1  0
  9 10  1  0
  9 11  1  0
 10 12  1  0
 11  5  1  6
 33 34  1  0
 33 35  1  0
 34 36  1  0
 35 37  1  0
 36 42  1  1
 20 21  2  0
 21 22  1  0
M  CHG  2   2  -1  26  -1
M  END
>  <COMPND>  (2) 
    8629 

>  <AUTHOR>  (2) 
    GENERATED BY OPEN BABEL 3.1.1

>  <MASTER>  (2) 
        0    0    0    0    0    0    0    0   58    0   58    0

>  <minimizedAffinity>  (2) 
-7.89888

>  <CNNscore>  (2) 
0.8597118258

>  <CNNaffinity>  (2) 
4.6782169342

>  <CNN_VS>  (2) 
4.0219182968

>  <CNNaffinity_variance>  (2) 
0.0369865559

$$$$
3
     RDKit          3D

 43 45  0  0  0  0  0  0  0  0999 V2000
   22.9396   71.5282   -2.3582 P   0  0  2  0  0  0  0  0  0  0  0  0
   22.6219   73.0736   -2.7162 O   0  0  0  0  0  0  0  0  0  0  0  0
   24.1990   70.9830   -2.9650 O   0  0  0  0  0  0  0  0  0  0  0  0
   21.5764   70.7503   -2.7514 O   0  0  0  0  0  0  0  0  0  0  0  0
   20.9454   71.0703   -3.9791 C   0  0  0  0  0  0  0  0  0  0  0  0
   18.9073   71.9079   -4.9375 O   0  0  0  0  0  0  0  0  0  0  0  0
   17.5103   70.6411   -2.6063 O   0  0  0  0  0  0  0  0  0  0  0  0
   17.0746   68.8425   -4.6093 O   0  0  0  0  0  0  0  0  0  0  0  0
   18.6501   70.1836   -3.3323 C   0  0  1  0  0  0  0  0  0  0  0  0
   18.2315   69.6502   -4.6865 C   0  0  2  0  0  0  0  0  0  0  0  0
   19.4831   71.4010   -3.7136 C   0  0  1  0  0  0  0  0  0  0  0  0
   17.9996   70.9302   -5.4714 C   0  0  2  0  0  0  0  0  0  0  0  0
   16.9630   69.8811   -2.3516 H   0  0  0  0  0  0  0  0  0  0  0  0
   17.2731   68.0409   -4.1007 H   0  0  0  0  0  0  0  0  0  0  0  0
   16.1099   69.9913   -7.3490 O   0  0  0  0  0  0  0  0  0  0  0  0
   19.1151   70.3460  -10.8253 O   0  0  0  0  0  0  0  0  0  0  0  0
   18.2613   70.7678   -6.8738 N   0  0  0  0  0  0  0  0  0  0  0  0
   17.6077   70.1688   -9.0784 N   0  0  0  0  0  0  0  0  0  0  0  0
   17.2437   70.2881   -7.7311 C   0  0  0  0  0  0  0  0  0  0  0  0
   19.5152   71.0829   -7.3858 C   0  0  0  0  0  0  0  0  0  0  0  0
   19.8467   70.9623   -8.6730 C   0  0  0  0  0  0  0  0  0  0  0  0
   18.8410   70.4680   -9.6354 C   0  0  0  0  0  0  0  0  0  0  0  0
   16.9150   69.8362   -9.6943 H   0  0  0  0  0  0  0  0  0  0  0  0
   22.9115   71.5163   -0.7421 O   0  0  0  0  0  0  0  0  0  0  0  0
   21.7104   71.8034    0.3009 P   0  0  2  0  0  0  0  0  0  0  0  0
   20.7596   70.5044    0.1386 O   0  0  0  0  0  0  0  0  0  0  0  0
   21.0099   73.1140    0.0872 O   0  0  0  0  0  0  0  0  0  0  0  0
   22.3851   71.6352    1.7574 O   0  0  0  0  0  0  0  0  0  0  0  0
   23.2628   73.3785    3.1018 O   0  0  0  0  0  0  0  0  0  0  0  0
   25.7303   70.2998    4.3199 O   0  0  0  0  0  0  0  0  0  0  0  0
   23.6921   71.2704    6.0952 O   0  0  0  0  0  0  0  0  0  0  0  0
   24.9462   70.5085    1.5412 O   0  0  0  0  0  0  0  0  0  0  0  0
   24.5051   70.8905    3.8781 C   0  0  1  0  0  0  0  0  0  0  0  0
   24.0843   71.9454    4.9032 C   0  0  1  0  0  0  0  0  0  0  0  0
   24.7246   71.5296    2.5081 C   0  0  2  0  0  0  0  0  0  0  0  0
   22.9296   72.8050    4.3714 C   0  0  1  0  0  0  0  0  0  0  0  0
   23.5379   72.4022    2.0953 C   0  0  1  0  0  0  0  0  0  0  0  0
   25.5977   69.8918    5.1891 H   0  0  0  0  0  0  0  0  0  0  0  0
   24.4300   70.7308    6.4203 H   0  0  0  0  0  0  0  0  0  0  0  0
   25.7000   69.9633    1.8139 H   0  0  0  0  0  0  0  0  0  0  0  0
   21.6909   73.4989    6.2931 O   0  0  0  0  0  0  0  0  0  0  0  0
   22.5987   73.9627    5.3107 C   0  0  0  0  0  0  0  0  0  0  0  0
   21.4716   74.2251    6.8983 H   0  0  0  0  0  0  0  0  0  0  0  0
 25 28  1  0
 25 24  1  0
 25 26  1  6
 25 27  2  0
  1  4  1  0
  1 24  1  0
  1  2  1  6
  1  3  2  0
  6 11  1  0
  6 12  1  0
 29 36  1  0
 29 37  1  0
  9  7  1  1
  7 13  1  0
 10  8  1  1
  8 14  1  0
 37 28  1  1
  4  5  1  0
 33 30  1  1
 30 38  1  0
 34 31  1  1
 31 39  1  0
 35 32  1  6
 32 40  1  0
 41 42  1  0
 41 43  1  0
 15 19  2  0
 16 22  2  0
 12 17  1  6
 17 19  1  0
 17 20  1  0
 18 19  1  0
 18 22  1  0
 18 23  1  0
  9 10  1  0
  9 11  1  0
 10 12  1  0
 11  5  1  6
 33 34  1  0
 33 35  1  0
 34 36  1  0
 35 37  1  0
 36 42  1  1
 20 21  2  0
 21 22  1  0
M  CHG  2   2  -1  26  -1
M  END
>  <COMPND>  (3) 
    8629 

>  <AUTHOR>  (3) 
    GENERATED BY OPEN BABEL 3.1.1

>  <MASTER>  (3) 
        0    0    0    0    0    0    0    0   58    0   58    0

>  <minimizedAffinity>  (3) 
-8.40931

>  <CNNscore>  (3) 
0.8441120386

>  <CNNaffinity>  (3) 
4.6317586899

>  <CNN_VS>  (3) 
3.9097232819

>  <CNNaffinity_variance>  (3) 
0.1250911951

$$$$
4
     RDKit          3D

 43 45  0  0  0  0  0  0  0  0999 V2000
   20.6640   71.2779   -1.0198 P   0  0  2  0  0  0  0  0  0  0  0  0
   20.8764   70.5240    0.3958 O   0  0  0  0  0  0  0  0  0  0  0  0
   20.2895   72.7272   -0.9161 O   0  0  0  0  0  0  0  0  0  0  0  0
   19.6117   70.3349   -1.8081 O   0  0  0  0  0  0  0  0  0  0  0  0
   19.3093   70.6408   -3.1582 C   0  0  0  0  0  0  0  0  0  0  0  0
   17.5841   71.5896   -4.5355 O   0  0  0  0  0  0  0  0  0  0  0  0
   15.6558   69.9605   -2.9173 O   0  0  0  0  0  0  0  0  0  0  0  0
   15.9117   68.4868   -5.1975 O   0  0  0  0  0  0  0  0  0  0  0  0
   16.9792   69.6353   -3.3395 C   0  0  1  0  0  0  0  0  0  0  0  0
   16.9947   69.3117   -4.8189 C   0  0  2  0  0  0  0  0  0  0  0  0
   17.8155   70.9076   -3.2835 C   0  0  1  0  0  0  0  0  0  0  0  0
   16.9232   70.6942   -5.4446 C   0  0  2  0  0  0  0  0  0  0  0  0
   15.1030   69.1633   -2.9444 H   0  0  0  0  0  0  0  0  0  0  0  0
   16.0025   67.6189   -4.7740 H   0  0  0  0  0  0  0  0  0  0  0  0
   15.6771   70.1199   -7.9135 O   0  0  0  0  0  0  0  0  0  0  0  0
   19.5493   70.9525  -10.2702 O   0  0  0  0  0  0  0  0  0  0  0  0
   17.5820   70.7534   -6.7189 N   0  0  0  0  0  0  0  0  0  0  0  0
   17.6061   70.5351   -9.0849 N   0  0  0  0  0  0  0  0  0  0  0  0
   16.8661   70.4450   -7.8991 C   0  0  0  0  0  0  0  0  0  0  0  0
   18.9231   71.1143   -6.7895 C   0  0  0  0  0  0  0  0  0  0  0  0
   19.6147   71.1943   -7.9282 C   0  0  0  0  0  0  0  0  0  0  0  0
   18.9407   70.8881   -9.2065 C   0  0  0  0  0  0  0  0  0  0  0  0
   17.1282   70.3244   -9.9198 H   0  0  0  0  0  0  0  0  0  0  0  0
   22.0549   70.9962   -1.7939 O   0  0  0  0  0  0  0  0  0  0  0  0
   23.1674   72.0113   -2.3812 P   0  0  2  0  0  0  0  0  0  0  0  0
   24.2507   71.0210   -3.0619 O   0  0  0  0  0  0  0  0  0  0  0  0
   23.7424   72.9510   -1.3613 O   0  0  0  0  0  0  0  0  0  0  0  0
   22.4408   72.7380   -3.6258 O   0  0  0  0  0  0  0  0  0  0  0  0
   23.1269   74.1678   -5.3870 O   0  0  0  0  0  0  0  0  0  0  0  0
   19.7099   76.1647   -4.2089 O   0  0  0  0  0  0  0  0  0  0  0  0
   19.7199   74.7107   -6.6856 O   0  0  0  0  0  0  0  0  0  0  0  0
   21.4282   74.9474   -2.2227 O   0  0  0  0  0  0  0  0  0  0  0  0
   20.5298   75.0193   -4.4563 C   0  0  1  0  0  0  0  0  0  0  0  0
   20.8986   75.0051   -5.9411 C   0  0  1  0  0  0  0  0  0  0  0  0
   21.7856   75.1081   -3.5912 C   0  0  2  0  0  0  0  0  0  0  0  0
   21.9880   73.9640   -6.2314 C   0  0  1  0  0  0  0  0  0  0  0  0
   22.8246   74.0602   -3.9945 C   0  0  1  0  0  0  0  0  0  0  0  0
   18.9106   76.1143   -4.7548 H   0  0  0  0  0  0  0  0  0  0  0  0
   19.0398   75.3752   -6.4928 H   0  0  0  0  0  0  0  0  0  0  0  0
   20.7704   75.6167   -1.9797 H   0  0  0  0  0  0  0  0  0  0  0  0
   23.2005   72.8564   -7.9670 O   0  0  0  0  0  0  0  0  0  0  0  0
   22.4829   74.0411   -7.6741 C   0  0  0  0  0  0  0  0  0  0  0  0
   23.5213   72.8913   -8.8822 H   0  0  0  0  0  0  0  0  0  0  0  0
 25 28  1  0
 25 24  1  0
 25 26  1  6
 25 27  2  0
  1  4  1  0
  1 24  1  0
  1  2  1  1
  1  3  2  0
  6 11  1  0
  6 12  1  0
 29 36  1  0
 29 37  1  0
  9  7  1  6
  7 13  1  0
 10  8  1  1
  8 14  1  0
 37 28  1  6
  4  5  1  0
 33 30  1  6
 30 38  1  0
 34 31  1  6
 31 39  1  0
 35 32  1  1
 32 40  1  0
 41 42  1  0
 41 43  1  0
 15 19  2  0
 16 22  2  0
 12 17  1  6
 17 19  1  0
 17 20  1  0
 18 19  1  0
 18 22  1  0
 18 23  1  0
  9 10  1  0
  9 11  1  0
 10 12  1  0
 11  5  1  6
 33 34  1  0
 33 35  1  0
 34 36  1  0
 35 37  1  0
 36 42  1  6
 20 21  2  0
 21 22  1  0
M  CHG  2   2  -1  26  -1
M  END
>  <COMPND>  (4) 
    8629 

>  <AUTHOR>  (4) 
    GENERATED BY OPEN BABEL 3.1.1

>  <MASTER>  (4) 
        0    0    0    0    0    0    0    0   58    0   58    0

>  <minimizedAffinity>  (4) 
-7.78904

>  <CNNscore>  (4) 
0.8431298137

>  <CNNaffinity>  (4) 
4.5820817947

>  <CNN_VS>  (4) 
3.8632898331

>  <CNNaffinity_variance>  (4) 
0.3397886455

$$$$
5
     RDKit          3D

 43 45  0  0  0  0  0  0  0  0999 V2000
   20.7527   71.9719   -1.4969 P   0  0  2  0  0  0  0  0  0  0  0  0
   20.8287   73.2724   -2.4563 O   0  0  0  0  0  0  0  0  0  0  0  0
   21.5340   70.7840   -1.9765 O   0  0  0  0  0  0  0  0  0  0  0  0
   19.1657   71.7327   -1.2918 O   0  0  0  0  0  0  0  0  0  0  0  0
   18.2840   72.1172   -2.3322 C   0  0  0  0  0  0  0  0  0  0  0  0
   16.7708   71.0344   -3.8527 O   0  0  0  0  0  0  0  0  0  0  0  0
   16.5330   68.8764   -1.7845 O   0  0  0  0  0  0  0  0  0  0  0  0
   18.2646   67.7847   -3.5862 O   0  0  0  0  0  0  0  0  0  0  0  0
   17.6716   69.6545   -2.1497 C   0  0  1  0  0  0  0  0  0  0  0  0
   18.2172   69.1934   -3.4851 C   0  0  2  0  0  0  0  0  0  0  0  0
   17.1927   71.0646   -2.4716 C   0  0  1  0  0  0  0  0  0  0  0  0
   17.2328   69.8167   -4.4599 C   0  0  2  0  0  0  0  0  0  0  0  0
   16.8139   67.9716   -1.5741 H   0  0  0  0  0  0  0  0  0  0  0  0
   18.9047   67.4358   -2.9464 H   0  0  0  0  0  0  0  0  0  0  0  0
   15.9714   69.4551   -6.9612 O   0  0  0  0  0  0  0  0  0  0  0  0
   19.6459   71.0382   -9.2489 O   0  0  0  0  0  0  0  0  0  0  0  0
   17.8366   70.1265   -5.7252 N   0  0  0  0  0  0  0  0  0  0  0  0
   17.8020   70.2438   -8.0982 N   0  0  0  0  0  0  0  0  0  0  0  0
   17.1178   69.9068   -6.9233 C   0  0  0  0  0  0  0  0  0  0  0  0
   19.1272   70.6424   -5.7693 C   0  0  0  0  0  0  0  0  0  0  0  0
   19.7660   70.9575   -6.8980 C   0  0  0  0  0  0  0  0  0  0  0  0
   19.0853   70.7582   -8.1938 C   0  0  0  0  0  0  0  0  0  0  0  0
   17.3211   70.0989   -8.9453 H   0  0  0  0  0  0  0  0  0  0  0  0
   21.2214   72.5507   -0.0623 O   0  0  0  0  0  0  0  0  0  0  0  0
   21.3691   71.8291    1.3766 P   0  0  2  0  0  0  0  0  0  0  0  0
   21.4558   70.2588    0.9971 O   0  0  0  0  0  0  0  0  0  0  0  0
   20.2798   72.1714    2.3514 O   0  0  0  0  0  0  0  0  0  0  0  0
   22.8563   72.2108    1.8743 O   0  0  0  0  0  0  0  0  0  0  0  0
   23.9763   71.3543    3.7792 O   0  0  0  0  0  0  0  0  0  0  0  0
   25.6527   75.1264    3.6686 O   0  0  0  0  0  0  0  0  0  0  0  0
   27.2337   72.8496    2.9173 O   0  0  0  0  0  0  0  0  0  0  0  0
   22.8532   74.7709    3.0236 O   0  0  0  0  0  0  0  0  0  0  0  0
   25.1070   73.9263    3.1141 C   0  0  1  0  0  0  0  0  0  0  0  0
   25.9719   72.7502    3.5717 C   0  0  1  0  0  0  0  0  0  0  0  0
   23.6696   73.7590    3.6032 C   0  0  2  0  0  0  0  0  0  0  0  0
   25.3028   71.4091    3.2415 C   0  0  1  0  0  0  0  0  0  0  0  0
   23.1160   72.3734    3.2662 C   0  0  1  0  0  0  0  0  0  0  0  0
   26.5651   75.2388    3.3616 H   0  0  0  0  0  0  0  0  0  0  0  0
   27.6453   73.7010    3.1337 H   0  0  0  0  0  0  0  0  0  0  0  0
   23.2140   75.6432    3.2445 H   0  0  0  0  0  0  0  0  0  0  0  0
   26.9946   70.7196    4.7814 O   0  0  0  0  0  0  0  0  0  0  0  0
   26.0711   70.2269    3.8281 C   0  0  0  0  0  0  0  0  0  0  0  0
   27.4907   69.9781    5.1634 H   0  0  0  0  0  0  0  0  0  0  0  0
 25 28  1  0
 25 24  1  0
 25 26  1  6
 25 27  2  0
  1  4  1  0
  1 24  1  0
  1  2  1  6
  1  3  2  0
  6 11  1  0
  6 12  1  0
 29 36  1  0
 29 37  1  0
  9  7  1  6
  7 13  1  0
 10  8  1  1
  8 14  1  0
 37 28  1  6
  4  5  1  0
 33 30  1  1
 30 38  1  0
 34 31  1  6
 31 39  1  0
 35 32  1  6
 32 40  1  0
 41 42  1  0
 41 43  1  0
 15 19  2  0
 16 22  2  0
 12 17  1  6
 17 19  1  0
 17 20  1  0
 18 19  1  0
 18 22  1  0
 18 23  1  0
  9 10  1  0
  9 11  1  0
 10 12  1  0
 11  5  1  6
 33 34  1  0
 33 35  1  0
 34 36  1  0
 35 37  1  0
 36 42  1  1
 20 21  2  0
 21 22  1  0
M  CHG  2   2  -1  26  -1
M  END
>  <COMPND>  (5) 
    8629 

>  <AUTHOR>  (5) 
    GENERATED BY OPEN BABEL 3.1.1

>  <MASTER>  (5) 
        0    0    0    0    0    0    0    0   58    0   58    0

>  <minimizedAffinity>  (5) 
-6.77533

>  <CNNscore>  (5) 
0.7919968367

>  <CNNaffinity>  (5) 
4.4932913780

>  <CNN_VS>  (5) 
3.5586726665

>  <CNNaffinity_variance>  (5) 
0.0800299197

$$$$
6
     RDKit          3D

 43 45  0  0  0  0  0  0  0  0999 V2000
   20.9255   71.9899   -1.4131 P   0  0  2  0  0  0  0  0  0  0  0  0
   20.9979   73.3188   -2.3330 O   0  0  0  0  0  0  0  0  0  0  0  0
   21.7401   70.8312   -1.9083 O   0  0  0  0  0  0  0  0  0  0  0  0
   19.3392   71.7154   -1.2515 O   0  0  0  0  0  0  0  0  0  0  0  0
   18.4706   72.1395   -2.2876 C   0  0  0  0  0  0  0  0  0  0  0  0
   16.9219   71.1205   -3.8163 O   0  0  0  0  0  0  0  0  0  0  0  0
   16.6051   68.9595   -1.7620 O   0  0  0  0  0  0  0  0  0  0  0  0
   18.2993   67.8184   -3.5687 O   0  0  0  0  0  0  0  0  0  0  0  0
   17.7711   69.6990   -2.1211 C   0  0  1  0  0  0  0  0  0  0  0  0
   18.3017   69.2271   -3.4588 C   0  0  2  0  0  0  0  0  0  0  0  0
   17.3429   71.1272   -2.4346 C   0  0  1  0  0  0  0  0  0  0  0  0
   17.3412   69.8911   -4.4307 C   0  0  2  0  0  0  0  0  0  0  0  0
   16.8535   68.0440   -1.5570 H   0  0  0  0  0  0  0  0  0  0  0  0
   18.9257   67.4430   -2.9304 H   0  0  0  0  0  0  0  0  0  0  0  0
   16.0815   69.5611   -6.9372 O   0  0  0  0  0  0  0  0  0  0  0  0
   19.8016   71.0575   -9.2093 O   0  0  0  0  0  0  0  0  0  0  0  0
   17.9572   70.1871   -5.6934 N   0  0  0  0  0  0  0  0  0  0  0  0
   17.9348   70.3066   -8.0665 N   0  0  0  0  0  0  0  0  0  0  0  0
   17.2382   69.9853   -6.8945 C   0  0  0  0  0  0  0  0  0  0  0  0
   19.2599   70.6722   -5.7321 C   0  0  0  0  0  0  0  0  0  0  0  0
   19.9104   70.9726   -6.8581 C   0  0  0  0  0  0  0  0  0  0  0  0
   19.2304   70.7904   -8.1566 C   0  0  0  0  0  0  0  0  0  0  0  0
   17.4539   70.1737   -8.9155 H   0  0  0  0  0  0  0  0  0  0  0  0
   21.3505   72.5355    0.0479 O   0  0  0  0  0  0  0  0  0  0  0  0
   21.3669   71.8058    1.4902 P   0  0  2  0  0  0  0  0  0  0  0  0
   21.4316   70.2345    1.1102 O   0  0  0  0  0  0  0  0  0  0  0  0
   20.2191   72.1804    2.3824 O   0  0  0  0  0  0  0  0  0  0  0  0
   22.8240   72.1381    2.0996 O   0  0  0  0  0  0  0  0  0  0  0  0
   24.5046   73.5817    1.2582 O   0  0  0  0  0  0  0  0  0  0  0  0
   26.9101   70.6415    2.8766 O   0  0  0  0  0  0  0  0  0  0  0  0
   26.7269   73.1972    4.1740 O   0  0  0  0  0  0  0  0  0  0  0  0
   24.4466   69.9180    1.5398 O   0  0  0  0  0  0  0  0  0  0  0  0
   25.7623   71.4915    2.8025 C   0  0  1  0  0  0  0  0  0  0  0  0
   26.2372   72.9447    2.8599 C   0  0  1  0  0  0  0  0  0  0  0  0
   25.0230   71.2188    1.4939 C   0  0  2  0  0  0  0  0  0  0  0  0
   25.0973   73.9140    2.5192 C   0  0  1  0  0  0  0  0  0  0  0  0
   23.9427   72.2683    1.2262 C   0  0  1  0  0  0  0  0  0  0  0  0
   27.3838   70.8093    3.7055 H   0  0  0  0  0  0  0  0  0  0  0  0
   27.4459   72.5782    4.3769 H   0  0  0  0  0  0  0  0  0  0  0  0
   25.1406   69.2628    1.7095 H   0  0  0  0  0  0  0  0  0  0  0  0
   26.9902   75.3702    2.5907 O   0  0  0  0  0  0  0  0  0  0  0  0
   25.5853   75.3573    2.4162 C   0  0  0  0  0  0  0  0  0  0  0  0
   27.3149   76.2825    2.5273 H   0  0  0  0  0  0  0  0  0  0  0  0
 25 28  1  0
 25 24  1  0
 25 26  1  6
 25 27  2  0
  1  4  1  0
  1 24  1  0
  1  2  1  6
  1  3  2  0
  6 11  1  0
  6 12  1  0
 29 36  1  0
 29 37  1  0
  9  7  1  6
  7 13  1  0
 10  8  1  1
  8 14  1  0
 37 28  1  1
  4  5  1  0
 33 30  1  6
 30 38  1  0
 34 31  1  1
 31 39  1  0
 35 32  1  1
 32 40  1  0
 41 42  1  0
 41 43  1  0
 15 19  2  0
 16 22  2  0
 12 17  1  6
 17 19  1  0
 17 20  1  0
 18 19  1  0
 18 22  1  0
 18 23  1  0
  9 10  1  0
  9 11  1  0
 10 12  1  0
 11  5  1  6
 33 34  1  0
 33 35  1  0
 34 36  1  0
 35 37  1  0
 36 42  1  6
 20 21  2  0
 21 22  1  0
M  CHG  2   2  -1  26  -1
M  END
>  <COMPND>  (6) 
    8629 

>  <AUTHOR>  (6) 
    GENERATED BY OPEN BABEL 3.1.1

>  <MASTER>  (6) 
        0    0    0    0    0    0    0    0   58    0   58    0

>  <minimizedAffinity>  (6) 
-6.98150

>  <CNNscore>  (6) 
0.7795081139

>  <CNNaffinity>  (6) 
4.4825792313

>  <CNN_VS>  (6) 
3.4942069054

>  <CNNaffinity_variance>  (6) 
0.2389197648

$$$$
7
     RDKit          3D

 43 45  0  0  0  0  0  0  0  0999 V2000
   23.0284   73.3766   -4.0398 P   0  0  2  0  0  0  0  0  0  0  0  0
   23.3719   73.8470   -5.5491 O   0  0  0  0  0  0  0  0  0  0  0  0
   23.8662   72.2443   -3.5227 O   0  0  0  0  0  0  0  0  0  0  0  0
   21.4322   73.1133   -4.0687 O   0  0  0  0  0  0  0  0  0  0  0  0
   20.9625   71.7871   -3.9006 C   0  0  0  0  0  0  0  0  0  0  0  0
   18.7679   72.1485   -4.8098 O   0  0  0  0  0  0  0  0  0  0  0  0
   17.7318   70.7282   -2.3808 O   0  0  0  0  0  0  0  0  0  0  0  0
   17.6139   68.7917   -4.2972 O   0  0  0  0  0  0  0  0  0  0  0  0
   18.9186   70.4809   -3.1329 C   0  0  1  0  0  0  0  0  0  0  0  0
   18.5776   69.8139   -4.4491 C   0  0  2  0  0  0  0  0  0  0  0  0
   19.4722   71.8244   -3.5912 C   0  0  1  0  0  0  0  0  0  0  0  0
   18.0643   70.9837   -5.2715 C   0  0  2  0  0  0  0  0  0  0  0  0
   17.3601   69.8848   -2.0770 H   0  0  0  0  0  0  0  0  0  0  0  0
   17.9879   68.0707   -3.7671 H   0  0  0  0  0  0  0  0  0  0  0  0
   16.2473   69.7991   -7.0806 O   0  0  0  0  0  0  0  0  0  0  0  0
   19.1184   70.3918  -10.6369 O   0  0  0  0  0  0  0  0  0  0  0  0
   18.3111   70.8160   -6.6759 N   0  0  0  0  0  0  0  0  0  0  0  0
   17.6783   70.0953   -8.8499 N   0  0  0  0  0  0  0  0  0  0  0  0
   17.3333   70.2077   -7.4970 C   0  0  0  0  0  0  0  0  0  0  0  0
   19.5115   71.2527   -7.2255 C   0  0  0  0  0  0  0  0  0  0  0  0
   19.8257   71.1370   -8.5175 C   0  0  0  0  0  0  0  0  0  0  0  0
   18.8590   70.5128   -9.4436 C   0  0  0  0  0  0  0  0  0  0  0  0
   17.0126   69.6744   -9.4410 H   0  0  0  0  0  0  0  0  0  0  0  0
   23.1551   74.7482   -3.1938 O   0  0  0  0  0  0  0  0  0  0  0  0
   23.5050   75.0068   -1.6370 P   0  0  2  0  0  0  0  0  0  0  0  0
   22.6107   76.3029   -1.2660 O   0  0  0  0  0  0  0  0  0  0  0  0
   24.9709   75.1642   -1.3537 O   0  0  0  0  0  0  0  0  0  0  0  0
   22.7993   73.7861   -0.8515 O   0  0  0  0  0  0  0  0  0  0  0  0
   23.6590   73.5239    1.3413 O   0  0  0  0  0  0  0  0  0  0  0  0
   21.4414   70.0503    1.0823 O   0  0  0  0  0  0  0  0  0  0  0  0
   20.5178   72.2014    2.7459 O   0  0  0  0  0  0  0  0  0  0  0  0
   22.9013   71.0070   -1.2270 O   0  0  0  0  0  0  0  0  0  0  0  0
   21.7376   71.4282    0.8393 C   0  0  1  0  0  0  0  0  0  0  0  0
   21.8278   72.1444    2.1883 C   0  0  1  0  0  0  0  0  0  0  0  0
   23.0635   71.5287    0.0875 C   0  0  2  0  0  0  0  0  0  0  0  0
   22.4021   73.5584    2.0274 C   0  0  1  0  0  0  0  0  0  0  0  0
   23.5705   72.9707    0.0268 C   0  0  1  0  0  0  0  0  0  0  0  0
   20.6005   69.9794    1.5590 H   0  0  0  0  0  0  0  0  0  0  0  0
   20.1665   71.3022    2.8418 H   0  0  0  0  0  0  0  0  0  0  0  0
   22.5803   70.0937   -1.1750 H   0  0  0  0  0  0  0  0  0  0  0  0
   22.6895   73.2329    4.3769 O   0  0  0  0  0  0  0  0  0  0  0  0
   22.6480   74.2326    3.3754 C   0  0  0  0  0  0  0  0  0  0  0  0
   22.8457   73.6474    5.2404 H   0  0  0  0  0  0  0  0  0  0  0  0
 25 28  1  0
 25 24  1  0
 25 26  1  1
 25 27  2  0
  1  4  1  0
  1 24  1  0
  1  2  1  6
  1  3  2  0
  6 11  1  0
  6 12  1  0
 29 36  1  0
 29 37  1  0
  9  7  1  1
  7 13  1  0
 10  8  1  1
  8 14  1  0
 37 28  1  6
  4  5  1  0
 33 30  1  1
 30 38  1  0
 34 31  1  6
 31 39  1  0
 35 32  1  6
 32 40  1  0
 41 42  1  0
 41 43  1  0
 15 19  2  0
 16 22  2  0
 12 17  1  6
 17 19  1  0
 17 20  1  0
 18 19  1  0
 18 22  1  0
 18 23  1  0
  9 10  1  0
  9 11  1  0
 10 12  1  0
 11  5  1  6
 33 34  1  0
 33 35  1  0
 34 36  1  0
 35 37  1  0
 36 42  1  1
 20 21  2  0
 21 22  1  0
M  CHG  2   2  -1  26  -1
M  END
>  <COMPND>  (7) 
    8629 

>  <AUTHOR>  (7) 
    GENERATED BY OPEN BABEL 3.1.1

>  <MASTER>  (7) 
        0    0    0    0    0    0    0    0   58    0   58    0

>  <minimizedAffinity>  (7) 
-7.16575

>  <CNNscore>  (7) 
0.7734778523

>  <CNNaffinity>  (7) 
4.5508804321

>  <CNN_VS>  (7) 
3.5200052261

>  <CNNaffinity_variance>  (7) 
0.0372023508

$$$$
8
     RDKit          3D

 43 45  0  0  0  0  0  0  0  0999 V2000
   21.6850   72.7430   -5.4971 P   0  0  2  0  0  0  0  0  0  0  0  0
   21.1113   74.2224   -5.8128 O   0  0  0  0  0  0  0  0  0  0  0  0
   23.1389   72.5465   -5.8121 O   0  0  0  0  0  0  0  0  0  0  0  0
   20.6597   71.7563   -6.2672 O   0  0  0  0  0  0  0  0  0  0  0  0
   20.3349   72.0388   -7.6172 C   0  0  0  0  0  0  0  0  0  0  0  0
   19.1698   69.9871   -7.1626 O   0  0  0  0  0  0  0  0  0  0  0  0
   18.2700   70.0829  -10.0213 O   0  0  0  0  0  0  0  0  0  0  0  0
   16.0779   70.9913   -8.6774 O   0  0  0  0  0  0  0  0  0  0  0  0
   18.4664   71.1551   -9.1008 C   0  0  1  0  0  0  0  0  0  0  0  0
   17.3451   71.1868   -8.0834 C   0  0  2  0  0  0  0  0  0  0  0  0
   19.6726   70.8146   -8.2343 C   0  0  1  0  0  0  0  0  0  0  0  0
   17.7344   70.0530   -7.1500 C   0  0  2  0  0  0  0  0  0  0  0  0
   17.5050   70.2778  -10.5859 H   0  0  0  0  0  0  0  0  0  0  0  0
   15.8758   71.7386   -9.2617 H   0  0  0  0  0  0  0  0  0  0  0  0
   16.2484   68.1910   -5.6326 O   0  0  0  0  0  0  0  0  0  0  0  0
   16.0809   71.0138   -1.9933 O   0  0  0  0  0  0  0  0  0  0  0  0
   17.2896   70.2752   -5.8031 N   0  0  0  0  0  0  0  0  0  0  0  0
   16.1663   69.5980   -3.8217 N   0  0  0  0  0  0  0  0  0  0  0  0
   16.5485   69.2760   -5.1302 C   0  0  0  0  0  0  0  0  0  0  0  0
   17.5890   71.4730   -5.1631 C   0  0  0  0  0  0  0  0  0  0  0  0
   17.2161   71.7651   -3.9154 C   0  0  0  0  0  0  0  0  0  0  0  0
   16.4386   70.7750   -3.1426 C   0  0  0  0  0  0  0  0  0  0  0  0
   15.6488   68.9171   -3.3335 H   0  0  0  0  0  0  0  0  0  0  0  0
   21.2984   72.5273   -3.9425 O   0  0  0  0  0  0  0  0  0  0  0  0
   21.3632   71.2120   -3.0051 P   0  0  2  0  0  0  0  0  0  0  0  0
   22.9488   70.9070   -2.9028 O   0  0  0  0  0  0  0  0  0  0  0  0
   20.5419   70.0590   -3.5050 O   0  0  0  0  0  0  0  0  0  0  0  0
   20.9535   71.7374   -1.5351 O   0  0  0  0  0  0  0  0  0  0  0  0
   22.2988   73.4622   -0.6232 O   0  0  0  0  0  0  0  0  0  0  0  0
   20.4024   72.2118    2.8251 O   0  0  0  0  0  0  0  0  0  0  0  0
   19.6807   74.7275    1.6425 O   0  0  0  0  0  0  0  0  0  0  0  0
   21.2203   70.2688    0.8414 O   0  0  0  0  0  0  0  0  0  0  0  0
   20.5114   72.4949    1.4275 C   0  0  1  0  0  0  0  0  0  0  0  0
   20.8338   73.9814    1.2630 C   0  0  1  0  0  0  0  0  0  0  0  0
   21.6226   71.6343    0.8291 C   0  0  2  0  0  0  0  0  0  0  0  0
   21.2277   74.3060   -0.1843 C   0  0  1  0  0  0  0  0  0  0  0  0
   21.9710   72.0717   -0.5948 C   0  0  1  0  0  0  0  0  0  0  0  0
   19.6982   72.7546    3.2111 H   0  0  0  0  0  0  0  0  0  0  0  0
   19.4422   74.5130    2.5581 H   0  0  0  0  0  0  0  0  0  0  0  0
   21.0028   70.0041    1.7483 H   0  0  0  0  0  0  0  0  0  0  0  0
   22.1101   76.2250    0.9328 O   0  0  0  0  0  0  0  0  0  0  0  0
   21.7049   75.7485   -0.3373 C   0  0  0  0  0  0  0  0  0  0  0  0
   22.4166   77.1421    0.8507 H   0  0  0  0  0  0  0  0  0  0  0  0
 25 28  1  0
 25 24  1  0
 25 26  1  1
 25 27  2  0
  1  4  1  0
  1 24  1  0
  1  2  1  6
  1  3  2  0
  6 11  1  0
  6 12  1  0
 29 36  1  0
 29 37  1  0
  9  7  1  6
  7 13  1  0
 10  8  1  6
  8 14  1  0
 37 28  1  6
  4  5  1  0
 33 30  1  1
 30 38  1  0
 34 31  1  6
 31 39  1  0
 35 32  1  6
 32 40  1  0
 41 42  1  0
 41 43  1  0
 15 19  2  0
 16 22  2  0
 12 17  1  1
 17 19  1  0
 17 20  1  0
 18 19  1  0
 18 22  1  0
 18 23  1  0
  9 10  1  0
  9 11  1  0
 10 12  1  0
 11  5  1  1
 33 34  1  0
 33 35  1  0
 34 36  1  0
 35 37  1  0
 36 42  1  1
 20 21  2  0
 21 22  1  0
M  CHG  2   2  -1  26  -1
M  END
>  <COMPND>  (8) 
    8629 

>  <AUTHOR>  (8) 
    GENERATED BY OPEN BABEL 3.1.1

>  <MASTER>  (8) 
        0    0    0    0    0    0    0    0   58    0   58    0

>  <minimizedAffinity>  (8) 
-7.26583

>  <CNNscore>  (8) 
0.7241997719

>  <CNNaffinity>  (8) 
4.5910363197

>  <CNN_VS>  (8) 
3.3248274326

>  <CNNaffinity_variance>  (8) 
0.1520459056

$$$$
9
     RDKit          3D

 43 45  0  0  0  0  0  0  0  0999 V2000
   23.3565   72.1812   -3.4887 P   0  0  2  0  0  0  0  0  0  0  0  0
   24.0527   70.7535   -3.1815 O   0  0  0  0  0  0  0  0  0  0  0  0
   24.2031   73.1446   -4.2675 O   0  0  0  0  0  0  0  0  0  0  0  0
   22.8646   72.6942   -2.0352 O   0  0  0  0  0  0  0  0  0  0  0  0
   23.5332   72.2076   -0.8845 C   0  0  0  0  0  0  0  0  0  0  0  0
   23.2669   70.6566    0.9313 O   0  0  0  0  0  0  0  0  0  0  0  0
   20.4836   71.7390    1.2009 O   0  0  0  0  0  0  0  0  0  0  0  0
   21.8160   73.0192    3.2064 O   0  0  0  0  0  0  0  0  0  0  0  0
   21.6873   72.4214    0.8533 C   0  0  1  0  0  0  0  0  0  0  0  0
   22.5592   72.6064    2.0776 C   0  0  2  0  0  0  0  0  0  0  0  0
   22.5306   71.4809    0.0014 C   0  0  1  0  0  0  0  0  0  0  0  0
   23.1608   71.2219    2.2482 C   0  0  2  0  0  0  0  0  0  0  0  0
   19.9283   72.3200    1.7450 H   0  0  0  0  0  0  0  0  0  0  0  0
   21.4541   73.9052    3.0491 H   0  0  0  0  0  0  0  0  0  0  0  0
   23.6418   71.2809    5.0308 O   0  0  0  0  0  0  0  0  0  0  0  0
   28.2096   71.3746    4.4244 O   0  0  0  0  0  0  0  0  0  0  0  0
   24.4660   71.2615    2.8451 N   0  0  0  0  0  0  0  0  0  0  0  0
   25.9158   71.3273    4.7266 N   0  0  0  0  0  0  0  0  0  0  0  0
   24.5981   71.2899    4.2530 C   0  0  0  0  0  0  0  0  0  0  0  0
   25.5976   71.2716    2.0369 C   0  0  0  0  0  0  0  0  0  0  0  0
   26.8472   71.3087    2.5042 C   0  0  0  0  0  0  0  0  0  0  0  0
   27.0727   71.3401    3.9637 C   0  0  0  0  0  0  0  0  0  0  0  0
   26.0323   71.3480    5.7042 H   0  0  0  0  0  0  0  0  0  0  0  0
   21.9735   71.7628   -4.2135 O   0  0  0  0  0  0  0  0  0  0  0  0
   20.5482   72.5204   -4.2987 P   0  0  2  0  0  0  0  0  0  0  0  0
   20.9582   74.0854   -4.2819 O   0  0  0  0  0  0  0  0  0  0  0  0
   19.5753   72.1236   -3.2263 O   0  0  0  0  0  0  0  0  0  0  0  0
   20.0314   72.2505   -5.8037 O   0  0  0  0  0  0  0  0  0  0  0  0
   19.1678   70.0479   -5.9425 O   0  0  0  0  0  0  0  0  0  0  0  0
   18.9235   71.1047   -9.9268 O   0  0  0  0  0  0  0  0  0  0  0  0
   16.5232   70.9077   -8.3624 O   0  0  0  0  0  0  0  0  0  0  0  0
   21.1907   71.9591   -8.3426 O   0  0  0  0  0  0  0  0  0  0  0  0
   18.8732   71.3258   -8.5147 C   0  0  1  0  0  0  0  0  0  0  0  0
   17.7892   70.4208   -7.9259 C   0  0  1  0  0  0  0  0  0  0  0  0
   20.2362   70.9961   -7.9090 C   0  0  2  0  0  0  0  0  0  0  0  0
   17.8551   70.4027   -6.3928 C   0  0  1  0  0  0  0  0  0  0  0  0
   20.1804   70.9559   -6.3808 C   0  0  1  0  0  0  0  0  0  0  0  0
   18.0613   71.3127  -10.3176 H   0  0  0  0  0  0  0  0  0  0  0  0
   16.4948   70.9145   -9.3321 H   0  0  0  0  0  0  0  0  0  0  0  0
   21.2168   71.9747   -9.3116 H   0  0  0  0  0  0  0  0  0  0  0  0
   17.3732   69.0024   -4.5178 O   0  0  0  0  0  0  0  0  0  0  0  0
   16.8871   69.3865   -5.7907 C   0  0  0  0  0  0  0  0  0  0  0  0
   16.7670   68.3560   -4.1224 H   0  0  0  0  0  0  0  0  0  0  0  0
 25 28  1  0
 25 24  1  0
 25 26  1  6
 25 27  2  0
  1  4  1  0
  1 24  1  0
  1  2  1  1
  1  3  2  0
  6 11  1  0
  6 12  1  0
 29 36  1  0
 29 37  1  0
  9  7  1  1
  7 13  1  0
 10  8  1  1
  8 14  1  0
 37 28  1  6
  4  5  1  0
 33 30  1  6
 30 38  1  0
 34 31  1  1
 31 39  1  0
 35 32  1  1
 32 40  1  0
 41 42  1  0
 41 43  1  0
 15 19  2  0
 16 22  2  0
 12 17  1  6
 17 19  1  0
 17 20  1  0
 18 19  1  0
 18 22  1  0
 18 23  1  0
  9 10  1  0
  9 11  1  0
 10 12  1  0
 11  5  1  1
 33 34  1  0
 33 35  1  0
 34 36  1  0
 35 37  1  0
 36 42  1  6
 20 21  2  0
 21 22  1  0
M  CHG  2   2  -1  26  -1
M  END
>  <COMPND>  (9) 
    8629 

>  <AUTHOR>  (9) 
    GENERATED BY OPEN BABEL 3.1.1

>  <MASTER>  (9) 
        0    0    0    0    0    0    0    0   58    0   58    0

>  <minimizedAffinity>  (9) 
-7.85109

>  <CNNscore>  (9) 
0.5634904504

>  <CNNaffinity>  (9) 
4.2869100571

>  <CNN_VS>  (9) 
2.4156329632

>  <CNNaffinity_variance>  (9) 
0.1419129819

$$$$
10
     RDKit          3D

 43 45  0  0  0  0  0  0  0  0999 V2000
   23.2895   71.8567   -2.5878 P   0  0  2  0  0  0  0  0  0  0  0  0
   23.6784   73.4231   -2.4751 O   0  0  0  0  0  0  0  0  0  0  0  0
   24.3181   70.9950   -3.2592 O   0  0  0  0  0  0  0  0  0  0  0  0
   21.8253   71.8687   -3.2762 O   0  0  0  0  0  0  0  0  0  0  0  0
   21.5819   72.7822   -4.3317 C   0  0  0  0  0  0  0  0  0  0  0  0
   20.8361   70.8039   -5.4737 O   0  0  0  0  0  0  0  0  0  0  0  0
   21.4024   72.2857   -8.0182 O   0  0  0  0  0  0  0  0  0  0  0  0
   18.6949   72.5151   -7.7868 O   0  0  0  0  0  0  0  0  0  0  0  0
   20.8925   72.7798   -6.7808 C   0  0  1  0  0  0  0  0  0  0  0  0
   19.4486   72.3593   -6.6017 C   0  0  2  0  0  0  0  0  0  0  0  0
   21.5856   72.0255   -5.6530 C   0  0  1  0  0  0  0  0  0  0  0  0
   19.5931   70.9047   -6.1876 C   0  0  2  0  0  0  0  0  0  0  0  0
   20.9746   72.7528   -8.7536 H   0  0  0  0  0  0  0  0  0  0  0  0
   18.6315   73.4572   -8.0083 H   0  0  0  0  0  0  0  0  0  0  0  0
   17.1282   69.8736   -7.1037 O   0  0  0  0  0  0  0  0  0  0  0  0
   15.5735   69.2729   -2.8068 O   0  0  0  0  0  0  0  0  0  0  0  0
   18.5264   70.4709   -5.3301 N   0  0  0  0  0  0  0  0  0  0  0  0
   16.3562   69.5752   -4.9635 N   0  0  0  0  0  0  0  0  0  0  0  0
   17.3286   69.9697   -5.8912 C   0  0  0  0  0  0  0  0  0  0  0  0
   18.6738   70.5442   -3.9493 C   0  0  0  0  0  0  0  0  0  0  0  0
   17.7364   70.1651   -3.0782 C   0  0  0  0  0  0  0  0  0  0  0  0
   16.4551   69.6299   -3.5822 C   0  0  0  0  0  0  0  0  0  0  0  0
   15.5132   69.2232   -5.3313 H   0  0  0  0  0  0  0  0  0  0  0  0
   22.9677   71.4510   -1.0565 O   0  0  0  0  0  0  0  0  0  0  0  0
   21.7643   71.8927   -0.0718 P   0  0  2  0  0  0  0  0  0  0  0  0
   20.6879   70.6969   -0.2418 O   0  0  0  0  0  0  0  0  0  0  0  0
   21.2160   73.2631   -0.3463 O   0  0  0  0  0  0  0  0  0  0  0  0
   22.3603   71.6963    1.4152 O   0  0  0  0  0  0  0  0  0  0  0  0
   23.1801   73.3874    2.8590 O   0  0  0  0  0  0  0  0  0  0  0  0
   25.6087   70.2678    4.0510 O   0  0  0  0  0  0  0  0  0  0  0  0
   23.5007   71.1653    5.7828 O   0  0  0  0  0  0  0  0  0  0  0  0
   24.9313   70.5832    1.2544 O   0  0  0  0  0  0  0  0  0  0  0  0
   24.3995   70.8733    3.5855 C   0  0  1  0  0  0  0  0  0  0  0  0
   23.9363   71.8868    4.6338 C   0  0  1  0  0  0  0  0  0  0  0  0
   24.6695   71.5655    2.2509 C   0  0  2  0  0  0  0  0  0  0  0  0
   22.8001   72.7645    4.0916 C   0  0  1  0  0  0  0  0  0  0  0  0
   23.4968   72.4515    1.8268 C   0  0  1  0  0  0  0  0  0  0  0  0
   25.4441   69.8261    4.8980 H   0  0  0  0  0  0  0  0  0  0  0  0
   24.2272   70.6147    6.1149 H   0  0  0  0  0  0  0  0  0  0  0  0
   25.6758   70.0290    1.5345 H   0  0  0  0  0  0  0  0  0  0  0  0
   21.5657   73.3548    6.0503 O   0  0  0  0  0  0  0  0  0  0  0  0
   22.4297   73.8843    5.0617 C   0  0  0  0  0  0  0  0  0  0  0  0
   21.3218   74.0563    6.6750 H   0  0  0  0  0  0  0  0  0  0  0  0
 25 28  1  0
 25 24  1  0
 25 26  1  1
 25 27  2  0
  1  4  1  0
  1 24  1  0
  1  2  1  1
  1  3  2  0
  6 11  1  0
  6 12  1  0
 29 36  1  0
 29 37  1  0
  9  7  1  6
  7 13  1  0
 10  8  1  6
  8 14  1  0
 37 28  1  1
  4  5  1  0
 33 30  1  1
 30 38  1  0
 34 31  1  1
 31 39  1  0
 35 32  1  6
 32 40  1  0
 41 42  1  0
 41 43  1  0
 15 19  2  0
 16 22  2  0
 12 17  1  1
 17 19  1  0
 17 20  1  0
 18 19  1  0
 18 22  1  0
 18 23  1  0
  9 10  1  0
  9 11  1  0
 10 12  1  0
 11  5  1  1
 33 34  1  0
 33 35  1  0
 34 36  1  0
 35 37  1  0
 36 42  1  1
 20 21  2  0
 21 22  1  0
M  CHG  2   2  -1  26  -1
M  END
>  <COMPND>  (10) 
    8629 

>  <AUTHOR>  (10) 
    GENERATED BY OPEN BABEL 3.1.1

>  <MASTER>  (10) 
        0    0    0    0    0    0    0    0   58    0   58    0

>  <minimizedAffinity>  (10) 
-7.95277

>  <CNNscore>  (10) 
0.5546139479

>  <CNNaffinity>  (10) 
4.1670832634

>  <CNN_VS>  (10) 
2.3111224174

>  <CNNaffinity_variance>  (10) 
0.3136029541

$$$$
11
     RDKit          3D

 43 45  0  0  0  0  0  0  0  0999 V2000
   22.1640   73.2243   -6.8609 P   0  0  2  0  0  0  0  0  0  0  0  0
   21.0871   74.0861   -6.0153 O   0  0  0  0  0  0  0  0  0  0  0  0
   23.0540   74.0300   -7.7610 O   0  0  0  0  0  0  0  0  0  0  0  0
   21.2682   72.0910   -7.5897 O   0  0  0  0  0  0  0  0  0  0  0  0
   19.8625   72.1246   -7.4152 C   0  0  0  0  0  0  0  0  0  0  0  0
   18.6959   70.1242   -6.7740 O   0  0  0  0  0  0  0  0  0  0  0  0
   18.0264   69.8072   -9.6796 O   0  0  0  0  0  0  0  0  0  0  0  0
   15.7203   70.8327   -8.6467 O   0  0  0  0  0  0  0  0  0  0  0  0
   18.1324   70.9993   -8.9030 C   0  0  1  0  0  0  0  0  0  0  0  0
   16.9328   71.1398   -7.9892 C   0  0  2  0  0  0  0  0  0  0  0  0
   19.2702   70.8111   -7.9074 C   0  0  1  0  0  0  0  0  0  0  0  0
   17.2632   70.1540   -6.8815 C   0  0  2  0  0  0  0  0  0  0  0  0
   17.3063   69.9036  -10.3230 H   0  0  0  0  0  0  0  0  0  0  0  0
   15.5544   71.4881   -9.3422 H   0  0  0  0  0  0  0  0  0  0  0  0
   16.9526   68.4233   -4.6710 O   0  0  0  0  0  0  0  0  0  0  0  0
   15.1224   71.7656   -2.0785 O   0  0  0  0  0  0  0  0  0  0  0  0
   16.7087   70.5456   -5.6164 N   0  0  0  0  0  0  0  0  0  0  0  0
   16.0417   70.0890   -3.3819 N   0  0  0  0  0  0  0  0  0  0  0  0
   16.5958   69.5991   -4.5715 C   0  0  0  0  0  0  0  0  0  0  0  0
   16.2842   71.8554   -5.4215 C   0  0  0  0  0  0  0  0  0  0  0  0
   15.7568   72.3064   -4.2814 C   0  0  0  0  0  0  0  0  0  0  0  0
   15.6038   71.3814   -3.1399 C   0  0  0  0  0  0  0  0  0  0  0  0
   15.9529   69.4474   -2.6401 H   0  0  0  0  0  0  0  0  0  0  0  0
   22.9426   72.3910   -5.7154 O   0  0  0  0  0  0  0  0  0  0  0  0
   23.3611   72.7957   -4.2074 P   0  0  2  0  0  0  0  0  0  0  0  0
   23.8746   74.3221   -4.3619 O   0  0  0  0  0  0  0  0  0  0  0  0
   24.3580   71.8679   -3.5755 O   0  0  0  0  0  0  0  0  0  0  0  0
   21.9612   72.9149   -3.4131 O   0  0  0  0  0  0  0  0  0  0  0  0
   21.7827   71.0610   -1.9475 O   0  0  0  0  0  0  0  0  0  0  0  0
   18.0772   72.7671   -1.3077 O   0  0  0  0  0  0  0  0  0  0  0  0
   20.0927   72.9488    0.7300 O   0  0  0  0  0  0  0  0  0  0  0  0
   19.2159   72.7435   -3.9690 O   0  0  0  0  0  0  0  0  0  0  0  0
   19.4821   72.7653   -1.5752 C   0  0  1  0  0  0  0  0  0  0  0  0
   20.1929   72.0886   -0.4015 C   0  0  1  0  0  0  0  0  0  0  0  0
   19.7422   72.0028   -2.8731 C   0  0  2  0  0  0  0  0  0  0  0  0
   21.6654   71.8096   -0.7319 C   0  0  1  0  0  0  0  0  0  0  0  0
   21.2338   71.7350   -3.0816 C   0  0  1  0  0  0  0  0  0  0  0  0
   17.9052   73.2501   -0.4851 H   0  0  0  0  0  0  0  0  0  0  0  0
   19.1581   73.1174    0.9278 H   0  0  0  0  0  0  0  0  0  0  0  0
   18.2711   72.9063   -3.8251 H   0  0  0  0  0  0  0  0  0  0  0  0
   21.3598   70.3074    1.1008 O   0  0  0  0  0  0  0  0  0  0  0  0
   22.3525   70.9950    0.3618 C   0  0  0  0  0  0  0  0  0  0  0  0
   21.7826   69.7843    1.8003 H   0  0  0  0  0  0  0  0  0  0  0  0
 25 28  1  0
 25 24  1  0
 25 26  1  6
 25 27  2  0
  1  4  1  0
  1 24  1  0
  1  2  1  1
  1  3  2  0
  6 11  1  0
  6 12  1  0
 29 36  1  0
 29 37  1  0
  9  7  1  6
  7 13  1  0
 10  8  1  6
  8 14  1  0
 37 28  1  1
  4  5  1  0
 33 30  1  1
 30 38  1  0
 34 31  1  1
 31 39  1  0
 35 32  1  6
 32 40  1  0
 41 42  1  0
 41 43  1  0
 15 19  2  0
 16 22  2  0
 12 17  1  1
 17 19  1  0
 17 20  1  0
 18 19  1  0
 18 22  1  0
 18 23  1  0
  9 10  1  0
  9 11  1  0
 10 12  1  0
 11  5  1  1
 33 34  1  0
 33 35  1  0
 34 36  1  0
 35 37  1  0
 36 42  1  1
 20 21  2  0
 21 22  1  0
M  CHG  2   2  -1  26  -1
M  END
>  <COMPND>  (11) 
    8629 

>  <AUTHOR>  (11) 
    GENERATED BY OPEN BABEL 3.1.1

>  <MASTER>  (11) 
        0    0    0    0    0    0    0    0   58    0   58    0

>  <minimizedAffinity>  (11) 
-7.69792

>  <CNNscore>  (11) 
0.5292392969

>  <CNNaffinity>  (11) 
4.2475457191

>  <CNN_VS>  (11) 
2.2479681969

>  <CNNaffinity_variance>  (11) 
0.6766719818

$$$$
12
     RDKit          3D

 43 45  0  0  0  0  0  0  0  0999 V2000
   22.9798   71.8212   -2.2785 P   0  0  2  0  0  0  0  0  0  0  0  0
   24.1159   71.0052   -3.0915 O   0  0  0  0  0  0  0  0  0  0  0  0
   23.0976   73.3152   -2.3522 O   0  0  0  0  0  0  0  0  0  0  0  0
   23.0332   71.1847   -0.7920 O   0  0  0  0  0  0  0  0  0  0  0  0
   23.1495   72.0614    0.3151 C   0  0  0  0  0  0  0  0  0  0  0  0
   23.2048   70.8810    2.4073 O   0  0  0  0  0  0  0  0  0  0  0  0
   20.4709   72.0088    2.9018 O   0  0  0  0  0  0  0  0  0  0  0  0
   22.0653   73.6366    4.4000 O   0  0  0  0  0  0  0  0  0  0  0  0
   21.5893   72.6076    2.2492 C   0  0  1  0  0  0  0  0  0  0  0  0
   22.6351   73.0151    3.2660 C   0  0  2  0  0  0  0  0  0  0  0  0
   22.3138   71.5194    1.4666 C   0  0  1  0  0  0  0  0  0  0  0  0
   23.2895   71.6843    3.5957 C   0  0  2  0  0  0  0  0  0  0  0  0
   19.9922   72.6846    3.4079 H   0  0  0  0  0  0  0  0  0  0  0  0
   21.6618   74.4791    4.1386 H   0  0  0  0  0  0  0  0  0  0  0  0
   24.2044   72.0747    6.2393 O   0  0  0  0  0  0  0  0  0  0  0  0
   28.6079   72.2278    4.8876 O   0  0  0  0  0  0  0  0  0  0  0  0
   24.6698   71.8289    3.9633 N   0  0  0  0  0  0  0  0  0  0  0  0
   26.3963   72.1504    5.5641 N   0  0  0  0  0  0  0  0  0  0  0  0
   25.0231   72.0218    5.3192 C   0  0  0  0  0  0  0  0  0  0  0  0
   25.6566   71.7786    2.9847 C   0  0  0  0  0  0  0  0  0  0  0  0
   26.9615   71.9043    3.2346 C   0  0  0  0  0  0  0  0  0  0  0  0
   27.4150   72.1087    4.6255 C   0  0  0  0  0  0  0  0  0  0  0  0
   26.6660   72.2860    6.5015 H   0  0  0  0  0  0  0  0  0  0  0  0
   21.6032   71.2244   -2.8800 O   0  0  0  0  0  0  0  0  0  0  0  0
   20.0934   71.2503   -2.3031 P   0  0  2  0  0  0  0  0  0  0  0  0
   19.7494   72.8297   -2.2343 O   0  0  0  0  0  0  0  0  0  0  0  0
   19.9191   70.5214   -1.0023 O   0  0  0  0  0  0  0  0  0  0  0  0
   19.1844   70.6874   -3.5122 O   0  0  0  0  0  0  0  0  0  0  0  0
   17.5449   72.0464   -4.5524 O   0  0  0  0  0  0  0  0  0  0  0  0
   16.0114   68.3287   -5.4892 O   0  0  0  0  0  0  0  0  0  0  0  0
   17.2356   69.9168   -7.5453 O   0  0  0  0  0  0  0  0  0  0  0  0
   17.2186   68.7814   -2.8975 O   0  0  0  0  0  0  0  0  0  0  0  0
   17.0428   69.2890   -5.2454 C   0  0  1  0  0  0  0  0  0  0  0  0
   16.8904   70.4244   -6.2595 C   0  0  1  0  0  0  0  0  0  0  0  0
   16.9041   69.8193   -3.8196 C   0  0  2  0  0  0  0  0  0  0  0  0
   17.7876   71.6154   -5.8966 C   0  0  1  0  0  0  0  0  0  0  0  0
   17.8033   71.0332   -3.5785 C   0  0  1  0  0  0  0  0  0  0  0  0
   16.0940   67.9877   -6.3928 H   0  0  0  0  0  0  0  0  0  0  0  0
   16.6620   69.1650   -7.7621 H   0  0  0  0  0  0  0  0  0  0  0  0
   16.6424   68.0189   -3.0602 H   0  0  0  0  0  0  0  0  0  0  0  0
   18.1919   72.5958   -8.0377 O   0  0  0  0  0  0  0  0  0  0  0  0
   17.5357   72.8183   -6.8031 C   0  0  0  0  0  0  0  0  0  0  0  0
   18.0400   73.3533   -8.6250 H   0  0  0  0  0  0  0  0  0  0  0  0
 25 28  1  0
 25 24  1  0
 25 26  1  1
 25 27  2  0
  1  4  1  0
  1 24  1  0
  1  2  1  6
  1  3  2  0
  6 11  1  0
  6 12  1  0
 29 36  1  0
 29 37  1  0
  9  7  1  1
  7 13  1  0
 10  8  1  1
  8 14  1  0
 37 28  1  6
  4  5  1  0
 33 30  1  6
 30 38  1  0
 34 31  1  6
 31 39  1  0
 35 32  1  1
 32 40  1  0
 41 42  1  0
 41 43  1  0
 15 19  2  0
 16 22  2  0
 12 17  1  6
 17 19  1  0
 17 20  1  0
 18 19  1  0
 18 22  1  0
 18 23  1  0
  9 10  1  0
  9 11  1  0
 10 12  1  0
 11  5  1  6
 33 34  1  0
 33 35  1  0
 34 36  1  0
 35 37  1  0
 36 42  1  6
 20 21  2  0
 21 22  1  0
M  CHG  2   2  -1  26  -1
M  END
>  <COMPND>  (12) 
    8629 

>  <AUTHOR>  (12) 
    GENERATED BY OPEN BABEL 3.1.1

>  <MASTER>  (12) 
        0    0    0    0    0    0    0    0   58    0   58    0

>  <minimizedAffinity>  (12) 
-7.63830

>  <CNNscore>  (12) 
0.5065442920

>  <CNNaffinity>  (12) 
4.1722326279

>  <CNN_VS>  (12) 
2.1134207249

>  <CNNaffinity_variance>  (12) 
0.2165586054

$$$$
13
     RDKit          3D

 43 45  0  0  0  0  0  0  0  0999 V2000
   20.5920   72.0185   -2.0692 P   0  0  2  0  0  0  0  0  0  0  0  0
   20.9831   70.7591   -1.1319 O   0  0  0  0  0  0  0  0  0  0  0  0
   21.6703   72.4659   -3.0119 O   0  0  0  0  0  0  0  0  0  0  0  0
   20.0673   73.1343   -1.0215 O   0  0  0  0  0  0  0  0  0  0  0  0
   20.8900   73.4633    0.0843 C   0  0  0  0  0  0  0  0  0  0  0  0
   20.7479   72.0200    2.0001 O   0  0  0  0  0  0  0  0  0  0  0  0
   19.0924   74.1753    3.2671 O   0  0  0  0  0  0  0  0  0  0  0  0
   21.5380   74.5535    4.4126 O   0  0  0  0  0  0  0  0  0  0  0  0
   20.2121   74.2951    2.3912 C   0  0  1  0  0  0  0  0  0  0  0  0
   21.4937   73.9664    3.1281 C   0  0  2  0  0  0  0  0  0  0  0  0
   20.1330   73.1659    1.3714 C   0  0  1  0  0  0  0  0  0  0  0  0
   21.4468   72.4487    3.1802 C   0  0  2  0  0  0  0  0  0  0  0  0
   19.1210   74.8862    3.9272 H   0  0  0  0  0  0  0  0  0  0  0  0
   21.5668   75.5191    4.3261 H   0  0  0  0  0  0  0  0  0  0  0  0
   22.9949   72.0242    5.5042 O   0  0  0  0  0  0  0  0  0  0  0  0
   26.4580   70.1843    3.0829 O   0  0  0  0  0  0  0  0  0  0  0  0
   22.7564   71.8602    3.1862 N   0  0  0  0  0  0  0  0  0  0  0  0
   24.7179   71.1083    4.2967 N   0  0  0  0  0  0  0  0  0  0  0  0
   23.4496   71.6924    4.4075 C   0  0  0  0  0  0  0  0  0  0  0  0
   23.3400   71.4562    1.9904 C   0  0  0  0  0  0  0  0  0  0  0  0
   24.5509   70.9020    1.9016 C   0  0  0  0  0  0  0  0  0  0  0  0
   25.3415   70.6913    3.1314 C   0  0  0  0  0  0  0  0  0  0  0  0
   25.2196   70.9818    5.1346 H   0  0  0  0  0  0  0  0  0  0  0  0
   19.2305   71.5272   -2.7888 O   0  0  0  0  0  0  0  0  0  0  0  0
   18.8330   70.1075   -3.4518 P   0  0  2  0  0  0  0  0  0  0  0  0
   17.9664   69.3859   -2.2917 O   0  0  0  0  0  0  0  0  0  0  0  0
   20.0054   69.3058   -3.9383 O   0  0  0  0  0  0  0  0  0  0  0  0
   17.7554   70.4780   -4.5949 O   0  0  0  0  0  0  0  0  0  0  0  0
   19.1258   71.6634   -6.1224 O   0  0  0  0  0  0  0  0  0  0  0  0
   15.6701   71.4407   -8.3718 O   0  0  0  0  0  0  0  0  0  0  0  0
   17.9357   69.8282   -9.0897 O   0  0  0  0  0  0  0  0  0  0  0  0
   15.5080   71.8836   -5.5157 O   0  0  0  0  0  0  0  0  0  0  0  0
   16.6472   70.9786   -7.4352 C   0  0  1  0  0  0  0  0  0  0  0  0
   17.9971   70.8982   -8.1508 C   0  0  1  0  0  0  0  0  0  0  0  0
   16.7171   71.9562   -6.2635 C   0  0  2  0  0  0  0  0  0  0  0  0
   19.1402   70.6686   -7.1529 C   0  0  1  0  0  0  0  0  0  0  0  0
   17.9175   71.6696   -5.3597 C   0  0  1  0  0  0  0  0  0  0  0  0
   15.6204   70.8241   -9.1180 H   0  0  0  0  0  0  0  0  0  0  0  0
   17.2095   69.9852   -9.7136 H   0  0  0  0  0  0  0  0  0  0  0  0
   14.7557   72.0672   -6.0990 H   0  0  0  0  0  0  0  0  0  0  0  0
   20.4620   71.7344   -8.8340 O   0  0  0  0  0  0  0  0  0  0  0  0
   20.5095   70.7424   -7.8251 C   0  0  0  0  0  0  0  0  0  0  0  0
   21.3269   71.7927   -9.2703 H   0  0  0  0  0  0  0  0  0  0  0  0
 25 28  1  0
 25 24  1  0
 25 26  1  1
 25 27  2  0
  1  4  1  0
  1 24  1  0
  1  2  1  1
  1  3  2  0
  6 11  1  0
  6 12  1  0
 29 36  1  0
 29 37  1  0
  9  7  1  1
  7 13  1  0
 10  8  1  1
  8 14  1  0
 37 28  1  6
  4  5  1  0
 33 30  1  6
 30 38  1  0
 34 31  1  6
 31 39  1  0
 35 32  1  1
 32 40  1  0
 41 42  1  0
 41 43  1  0
 15 19  2  0
 16 22  2  0
 12 17  1  6
 17 19  1  0
 17 20  1  0
 18 19  1  0
 18 22  1  0
 18 23  1  0
  9 10  1  0
  9 11  1  0
 10 12  1  0
 11  5  1  6
 33 34  1  0
 33 35  1  0
 34 36  1  0
 35 37  1  0
 36 42  1  6
 20 21  2  0
 21 22  1  0
M  CHG  2   2  -1  26  -1
M  END
>  <COMPND>  (13) 
    8629 

>  <AUTHOR>  (13) 
    GENERATED BY OPEN BABEL 3.1.1

>  <MASTER>  (13) 
        0    0    0    0    0    0    0    0   58    0   58    0

>  <minimizedAffinity>  (13) 
-7.15095

>  <CNNscore>  (13) 
0.4901244044

>  <CNNaffinity>  (13) 
4.0083589554

>  <CNN_VS>  (13) 
1.9645946026

>  <CNNaffinity_variance>  (13) 
0.2453837097

$$$$
14
     RDKit          3D

 43 45  0  0  0  0  0  0  0  0999 V2000
   22.4565   72.9650   -4.3659 P   0  0  2  0  0  0  0  0  0  0  0  0
   23.4511   71.7091   -4.1398 O   0  0  0  0  0  0  0  0  0  0  0  0
   22.5177   73.5841   -5.7313 O   0  0  0  0  0  0  0  0  0  0  0  0
   22.7927   73.9541   -3.1303 O   0  0  0  0  0  0  0  0  0  0  0  0
   22.7218   73.4380   -1.8126 C   0  0  0  0  0  0  0  0  0  0  0  0
   22.5462   74.0510    0.5042 O   0  0  0  0  0  0  0  0  0  0  0  0
   23.4456   76.7828   -0.3438 O   0  0  0  0  0  0  0  0  0  0  0  0
   25.7283   75.6961    0.6784 O   0  0  0  0  0  0  0  0  0  0  0  0
   23.8420   75.5068   -0.8439 C   0  0  1  0  0  0  0  0  0  0  0  0
   24.7598   74.8170    0.1438 C   0  0  2  0  0  0  0  0  0  0  0  0
   22.6197   74.5974   -0.8309 C   0  0  1  0  0  0  0  0  0  0  0  0
   23.7786   74.3207    1.1921 C   0  0  2  0  0  0  0  0  0  0  0  0
   24.2098   77.3811   -0.3429 H   0  0  0  0  0  0  0  0  0  0  0  0
   26.3286   75.9837   -0.0271 H   0  0  0  0  0  0  0  0  0  0  0  0
   24.8616   74.2134    3.7986 O   0  0  0  0  0  0  0  0  0  0  0  0
   25.4645   69.6506    3.5578 O   0  0  0  0  0  0  0  0  0  0  0  0
   24.2263   73.1179    1.8356 N   0  0  0  0  0  0  0  0  0  0  0  0
   25.1608   71.9416    3.6766 N   0  0  0  0  0  0  0  0  0  0  0  0
   24.7553   73.1729    3.1462 C   0  0  0  0  0  0  0  0  0  0  0  0
   24.1384   71.9010    1.1682 C   0  0  0  0  0  0  0  0  0  0  0  0
   24.5307   70.7358    1.6876 C   0  0  0  0  0  0  0  0  0  0  0  0
   25.0948   70.7059    3.0524 C   0  0  0  0  0  0  0  0  0  0  0  0
   25.5329   71.9555    4.5883 H   0  0  0  0  0  0  0  0  0  0  0  0
   21.0116   72.3612   -3.9651 O   0  0  0  0  0  0  0  0  0  0  0  0
   19.5192   72.7976   -4.4067 P   0  0  2  0  0  0  0  0  0  0  0  0
   19.5919   74.4139   -4.4131 O   0  0  0  0  0  0  0  0  0  0  0  0
   18.4309   72.2301   -3.5421 O   0  0  0  0  0  0  0  0  0  0  0  0
   19.4178   72.3880   -5.9646 O   0  0  0  0  0  0  0  0  0  0  0  0
   18.7876   70.1037   -6.0014 O   0  0  0  0  0  0  0  0  0  0  0  0
   19.0967   70.7684  -10.0650 O   0  0  0  0  0  0  0  0  0  0  0  0
   16.5025   70.4625   -8.8716 O   0  0  0  0  0  0  0  0  0  0  0  0
   20.9931   71.9933   -8.2532 O   0  0  0  0  0  0  0  0  0  0  0  0
   18.7996   71.1085   -8.7080 C   0  0  1  0  0  0  0  0  0  0  0  0
   17.7197   70.1516   -8.1993 C   0  0  1  0  0  0  0  0  0  0  0  0
   20.0708   70.9785   -7.8710 C   0  0  2  0  0  0  0  0  0  0  0  0
   17.5386   70.2777   -6.6806 C   0  0  1  0  0  0  0  0  0  0  0  0
   19.7728   71.0696   -6.3734 C   0  0  1  0  0  0  0  0  0  0  0  0
   18.2938   70.8494  -10.6020 H   0  0  0  0  0  0  0  0  0  0  0  0
   16.6306   70.3795   -9.8297 H   0  0  0  0  0  0  0  0  0  0  0  0
   21.1738   71.9247   -9.2032 H   0  0  0  0  0  0  0  0  0  0  0  0
   17.0332   68.8322   -4.8465 O   0  0  0  0  0  0  0  0  0  0  0  0
   16.5805   69.2240   -6.1294 C   0  0  0  0  0  0  0  0  0  0  0  0
   16.4327   68.1620   -4.4831 H   0  0  0  0  0  0  0  0  0  0  0  0
 25 28  1  0
 25 24  1  0
 25 26  1  6
 25 27  2  0
  1  4  1  0
  1 24  1  0
  1  2  1  6
  1  3  2  0
  6 11  1  0
  6 12  1  0
 29 36  1  0
 29 37  1  0
  9  7  1  1
  7 13  1  0
 10  8  1  1
  8 14  1  0
 37 28  1  6
  4  5  1  0
 33 30  1  6
 30 38  1  0
 34 31  1  6
 31 39  1  0
 35 32  1  6
 32 40  1  0
 41 42  1  0
 41 43  1  0
 15 19  2  0
 16 22  2  0
 12 17  1  6
 17 19  1  0
 17 20  1  0
 18 19  1  0
 18 22  1  0
 18 23  1  0
  9 10  1  0
  9 11  1  0
 10 12  1  0
 11  5  1  6
 33 34  1  0
 33 35  1  0
 34 36  1  0
 35 37  1  0
 36 42  1  1
 20 21  2  0
 21 22  1  0
M  CHG  2   2  -1  26  -1
M  END
>  <COMPND>  (14) 
    8629 

>  <AUTHOR>  (14) 
    GENERATED BY OPEN BABEL 3.1.1

>  <MASTER>  (14) 
        0    0    0    0    0    0    0    0   58    0   58    0

>  <minimizedAffinity>  (14) 
-6.53090

>  <CNNscore>  (14) 
0.4674731493

>  <CNNaffinity>  (14) 
4.1321401596

>  <CNN_VS>  (14) 
1.9316645861

>  <CNNaffinity_variance>  (14) 
0.2057236135

$$$$
15
     RDKit          3D

 43 45  0  0  0  0  0  0  0  0999 V2000
   22.2348   71.4424    0.4596 P   0  0  2  0  0  0  0  0  0  0  0  0
   21.3255   72.7756    0.3454 O   0  0  0  0  0  0  0  0  0  0  0  0
   21.5891   70.2944    1.1784 O   0  0  0  0  0  0  0  0  0  0  0  0
   23.6260   71.9741    1.0918 O   0  0  0  0  0  0  0  0  0  0  0  0
   24.5856   71.0202    1.5129 C   0  0  0  0  0  0  0  0  0  0  0  0
   25.4912   72.9325    2.6516 O   0  0  0  0  0  0  0  0  0  0  0  0
   28.0807   71.4229    2.7338 O   0  0  0  0  0  0  0  0  0  0  0  0
   27.1037   71.0650    5.2546 O   0  0  0  0  0  0  0  0  0  0  0  0
   26.7463   70.9325    2.8533 C   0  0  1  0  0  0  0  0  0  0  0  0
   26.1762   71.2849    4.2114 C   0  0  2  0  0  0  0  0  0  0  0  0
   25.8619   71.7458    1.9164 C   0  0  1  0  0  0  0  0  0  0  0  0
   25.8305   72.7540    4.0365 C   0  0  2  0  0  0  0  0  0  0  0  0
   28.6643   70.9185    3.3229 H   0  0  0  0  0  0  0  0  0  0  0  0
   27.2912   70.1161    5.3260 H   0  0  0  0  0  0  0  0  0  0  0  0
   25.9883   73.3458    6.7938 O   0  0  0  0  0  0  0  0  0  0  0  0
   21.4811   74.2767    7.0387 O   0  0  0  0  0  0  0  0  0  0  0  0
   24.7138   73.1539    4.8454 N   0  0  0  0  0  0  0  0  0  0  0  0
   23.7440   73.8090    6.9134 N   0  0  0  0  0  0  0  0  0  0  0  0
   24.8999   73.4271    6.2206 C   0  0  0  0  0  0  0  0  0  0  0  0
   23.4514   73.2721    4.2743 C   0  0  0  0  0  0  0  0  0  0  0  0
   22.3589   73.6361    4.9490 C   0  0  0  0  0  0  0  0  0  0  0  0
   22.4671   73.9395    6.3907 C   0  0  0  0  0  0  0  0  0  0  0  0
   23.8494   74.0040    7.8729 H   0  0  0  0  0  0  0  0  0  0  0  0
   22.6277   71.1376   -1.0785 O   0  0  0  0  0  0  0  0  0  0  0  0
   23.1719   72.1116   -2.2482 P   0  0  2  0  0  0  0  0  0  0  0  0
   24.1406   71.1471   -3.1135 O   0  0  0  0  0  0  0  0  0  0  0  0
   23.8313   73.3644   -1.7485 O   0  0  0  0  0  0  0  0  0  0  0  0
   21.8920   72.3629   -3.1989 O   0  0  0  0  0  0  0  0  0  0  0  0
   20.3086   70.9245   -4.2188 O   0  0  0  0  0  0  0  0  0  0  0  0
   20.9503   73.5303   -7.3570 O   0  0  0  0  0  0  0  0  0  0  0  0
   18.4729   73.6383   -5.9082 O   0  0  0  0  0  0  0  0  0  0  0  0
   23.1634   72.7235   -5.6745 O   0  0  0  0  0  0  0  0  0  0  0  0
   20.8136   73.1522   -5.9845 C   0  0  1  0  0  0  0  0  0  0  0  0
   19.4116   72.5736   -5.7838 C   0  0  1  0  0  0  0  0  0  0  0  0
   21.8786   72.1111   -5.6451 C   0  0  2  0  0  0  0  0  0  0  0  0
   19.2804   71.9034   -4.4095 C   0  0  1  0  0  0  0  0  0  0  0  0
   21.6275   71.4710   -4.2786 C   0  0  1  0  0  0  0  0  0  0  0  0
   20.2772   74.1916   -7.5789 H   0  0  0  0  0  0  0  0  0  0  0  0
   18.5665   74.0533   -6.7801 H   0  0  0  0  0  0  0  0  0  0  0  0
   23.3103   73.1247   -6.5447 H   0  0  0  0  0  0  0  0  0  0  0  0
   17.3985   70.9564   -5.5368 O   0  0  0  0  0  0  0  0  0  0  0  0
   17.9434   71.1829   -4.2499 C   0  0  0  0  0  0  0  0  0  0  0  0
   16.5474   70.4981   -5.4508 H   0  0  0  0  0  0  0  0  0  0  0  0
 25 28  1  0
 25 24  1  0
 25 26  1  6
 25 27  2  0
  1  4  1  0
  1 24  1  0
  1  2  1  6
  1  3  2  0
  6 11  1  0
  6 12  1  0
 29 36  1  0
 29 37  1  0
  9  7  1  1
  7 13  1  0
 10  8  1  1
  8 14  1  0
 37 28  1  1
  4  5  1  0
 33 30  1  6
 30 38  1  0
 34 31  1  1
 31 39  1  0
 35 32  1  1
 32 40  1  0
 41 42  1  0
 41 43  1  0
 15 19  2  0
 16 22  2  0
 12 17  1  1
 17 19  1  0
 17 20  1  0
 18 19  1  0
 18 22  1  0
 18 23  1  0
  9 10  1  0
  9 11  1  0
 10 12  1  0
 11  5  1  1
 33 34  1  0
 33 35  1  0
 34 36  1  0
 35 37  1  0
 36 42  1  6
 20 21  2  0
 21 22  1  0
M  CHG  2   2  -1  26  -1
M  END
>  <COMPND>  (15) 
    8629 

>  <AUTHOR>  (15) 
    GENERATED BY OPEN BABEL 3.1.1

>  <MASTER>  (15) 
        0    0    0    0    0    0    0    0   58    0   58    0

>  <minimizedAffinity>  (15) 
-6.48584

>  <CNNscore>  (15) 
0.4651657343

>  <CNNaffinity>  (15) 
4.0385789871

>  <CNN_VS>  (15) 
1.8786085844

>  <CNNaffinity_variance>  (15) 
0.1416127980

$$$$
16
     RDKit          3D

 43 45  0  0  0  0  0  0  0  0999 V2000
   17.9700   73.4006   -1.6773 P   0  0  2  0  0  0  0  0  0  0  0  0
   17.6290   74.7675   -2.4727 O   0  0  0  0  0  0  0  0  0  0  0  0
   16.9352   72.9737   -0.6781 O   0  0  0  0  0  0  0  0  0  0  0  0
   19.4545   73.6552   -1.0862 O   0  0  0  0  0  0  0  0  0  0  0  0
   19.7563   73.1762    0.2127 C   0  0  0  0  0  0  0  0  0  0  0  0
   20.9390   71.6663   -1.2348 O   0  0  0  0  0  0  0  0  0  0  0  0
   21.7333   70.1976    1.2557 O   0  0  0  0  0  0  0  0  0  0  0  0
   23.9725   71.6431    0.6784 O   0  0  0  0  0  0  0  0  0  0  0  0
   21.5699   71.5996    1.0485 C   0  0  1  0  0  0  0  0  0  0  0  0
   22.7277   72.1505    0.2426 C   0  0  2  0  0  0  0  0  0  0  0  0
   20.3966   71.7997    0.0973 C   0  0  1  0  0  0  0  0  0  0  0  0
   22.3738   71.7015   -1.1650 C   0  0  2  0  0  0  0  0  0  0  0  0
   22.4769   70.0448    1.8604 H   0  0  0  0  0  0  0  0  0  0  0  0
   24.1524   71.9566    1.5784 H   0  0  0  0  0  0  0  0  0  0  0  0
   24.1883   70.9792   -3.2055 O   0  0  0  0  0  0  0  0  0  0  0  0
   24.2001   75.2425   -4.9565 O   0  0  0  0  0  0  0  0  0  0  0  0
   22.8675   72.6026   -2.1678 N   0  0  0  0  0  0  0  0  0  0  0  0
   24.1926   73.1025   -4.0758 N   0  0  0  0  0  0  0  0  0  0  0  0
   23.7767   72.1397   -3.1473 C   0  0  0  0  0  0  0  0  0  0  0  0
   22.4499   73.9291   -2.1735 C   0  0  0  0  0  0  0  0  0  0  0  0
   22.8569   74.8350   -3.0651 C   0  0  0  0  0  0  0  0  0  0  0  0
   23.8071   74.4329   -4.1222 C   0  0  0  0  0  0  0  0  0  0  0  0
   24.8263   72.8030   -4.7674 H   0  0  0  0  0  0  0  0  0  0  0  0
   18.2306   72.3413   -2.8702 O   0  0  0  0  0  0  0  0  0  0  0  0
   17.6742   70.8408   -3.0978 P   0  0  2  0  0  0  0  0  0  0  0  0
   16.0761   71.0046   -2.9062 O   0  0  0  0  0  0  0  0  0  0  0  0
   18.3024   69.8096   -2.2056 O   0  0  0  0  0  0  0  0  0  0  0  0
   17.8696   70.5677   -4.6765 O   0  0  0  0  0  0  0  0  0  0  0  0
   19.1232   71.7266   -6.3203 O   0  0  0  0  0  0  0  0  0  0  0  0
   15.8058   70.7593   -8.5809 O   0  0  0  0  0  0  0  0  0  0  0  0
   18.2872   69.3905   -9.0466 O   0  0  0  0  0  0  0  0  0  0  0  0
   15.4893   71.5306   -5.8088 O   0  0  0  0  0  0  0  0  0  0  0  0
   16.8027   70.5544   -7.5761 C   0  0  1  0  0  0  0  0  0  0  0  0
   18.1751   70.5681   -8.2522 C   0  0  1  0  0  0  0  0  0  0  0  0
   16.7031   71.6715   -6.5390 C   0  0  2  0  0  0  0  0  0  0  0  0
   19.3037   70.6217   -7.2138 C   0  0  1  0  0  0  0  0  0  0  0  0
   17.8993   71.6651   -5.5854 C   0  0  1  0  0  0  0  0  0  0  0  0
   15.8633   70.0531   -9.2423 H   0  0  0  0  0  0  0  0  0  0  0  0
   17.5685   69.3686   -9.6978 H   0  0  0  0  0  0  0  0  0  0  0  0
   14.7397   71.5363   -6.4236 H   0  0  0  0  0  0  0  0  0  0  0  0
   20.8626   72.1676   -8.1566 O   0  0  0  0  0  0  0  0  0  0  0  0
   20.6735   70.7949   -7.8664 C   0  0  0  0  0  0  0  0  0  0  0  0
   21.7306   72.2931   -8.5721 H   0  0  0  0  0  0  0  0  0  0  0  0
 25 28  1  0
 25 24  1  0
 25 26  1  6
 25 27  2  0
  1  4  1  0
  1 24  1  0
  1  2  1  6
  1  3  2  0
  6 11  1  0
  6 12  1  0
 29 36  1  0
 29 37  1  0
  9  7  1  6
  7 13  1  0
 10  8  1  1
  8 14  1  0
 37 28  1  6
  4  5  1  0
 33 30  1  6
 30 38  1  0
 34 31  1  1
 31 39  1  0
 35 32  1  1
 32 40  1  0
 41 42  1  0
 41 43  1  0
 15 19  2  0
 16 22  2  0
 12 17  1  6
 17 19  1  0
 17 20  1  0
 18 19  1  0
 18 22  1  0
 18 23  1  0
  9 10  1  0
  9 11  1  0
 10 12  1  0
 11  5  1  6
 33 34  1  0
 33 35  1  0
 34 36  1  0
 35 37  1  0
 36 42  1  6
 20 21  2  0
 21 22  1  0
M  CHG  2   2  -1  26  -1
M  END
>  <COMPND>  (16) 
    8629 

>  <AUTHOR>  (16) 
    GENERATED BY OPEN BABEL 3.1.1

>  <MASTER>  (16) 
        0    0    0    0    0    0    0    0   58    0   58    0

>  <minimizedAffinity>  (16) 
-7.25153

>  <CNNscore>  (16) 
0.4493471682

>  <CNNaffinity>  (16) 
3.8998615742

>  <CNN_VS>  (16) 
1.7523916960

>  <CNNaffinity_variance>  (16) 
0.8186664581

$$$$
17
     RDKit          3D

 43 45  0  0  0  0  0  0  0  0999 V2000
   21.8388   72.4353   -3.4157 P   0  0  2  0  0  0  0  0  0  0  0  0
   21.9186   74.0510   -3.4402 O   0  0  0  0  0  0  0  0  0  0  0  0
   22.7529   71.7409   -4.3821 O   0  0  0  0  0  0  0  0  0  0  0  0
   20.2613   72.1216   -3.5915 O   0  0  0  0  0  0  0  0  0  0  0  0
   19.8670   70.8004   -3.9182 C   0  0  0  0  0  0  0  0  0  0  0  0
   17.5763   71.4881   -3.6868 O   0  0  0  0  0  0  0  0  0  0  0  0
   17.0553   68.7389   -2.6094 O   0  0  0  0  0  0  0  0  0  0  0  0
   16.1698   68.5469   -5.1815 O   0  0  0  0  0  0  0  0  0  0  0  0
   17.9517   69.1488   -3.6407 C   0  0  1  0  0  0  0  0  0  0  0  0
   17.1832   69.4906   -4.9002 C   0  0  2  0  0  0  0  0  0  0  0  0
   18.5339   70.5005   -3.2466 C   0  0  1  0  0  0  0  0  0  0  0  0
   16.6266   70.8643   -4.5665 C   0  0  2  0  0  0  0  0  0  0  0  0
   16.6711   67.8776   -2.8386 H   0  0  0  0  0  0  0  0  0  0  0  0
   16.5742   67.6897   -5.3875 H   0  0  0  0  0  0  0  0  0  0  0  0
   14.6500   72.8630   -4.8423 O   0  0  0  0  0  0  0  0  0  0  0  0
   16.0845   73.9541   -9.0842 O   0  0  0  0  0  0  0  0  0  0  0  0
   16.4611   71.6860   -5.7322 N   0  0  0  0  0  0  0  0  0  0  0  0
   15.3660   73.4047   -6.9541 N   0  0  0  0  0  0  0  0  0  0  0  0
   15.4364   72.6602   -5.7698 C   0  0  0  0  0  0  0  0  0  0  0  0
   17.3094   71.5220   -6.8218 C   0  0  0  0  0  0  0  0  0  0  0  0
   17.2282   72.2392   -7.9445 C   0  0  0  0  0  0  0  0  0  0  0  0
   16.1850   73.2781   -8.0649 C   0  0  0  0  0  0  0  0  0  0  0  0
   14.6595   74.0891   -7.0032 H   0  0  0  0  0  0  0  0  0  0  0  0
   22.1087   72.0816   -1.8617 O   0  0  0  0  0  0  0  0  0  0  0  0
   21.1575   72.2163   -0.5617 P   0  0  2  0  0  0  0  0  0  0  0  0
   20.5243   70.7352   -0.4101 O   0  0  0  0  0  0  0  0  0  0  0  0
   20.1414   73.3176   -0.6541 O   0  0  0  0  0  0  0  0  0  0  0  0
   22.1796   72.3516    0.6801 O   0  0  0  0  0  0  0  0  0  0  0  0
   23.7051   70.7799    1.5849 O   0  0  0  0  0  0  0  0  0  0  0  0
   22.4929   72.6112    5.0817 O   0  0  0  0  0  0  0  0  0  0  0  0
   25.1263   73.1189    4.0544 O   0  0  0  0  0  0  0  0  0  0  0  0
   20.5751   72.1173    2.9704 O   0  0  0  0  0  0  0  0  0  0  0  0
   22.8318   72.5479    3.6937 C   0  0  1  0  0  0  0  0  0  0  0  0
   24.2822   72.0757    3.5752 C   0  0  1  0  0  0  0  0  0  0  0  0
   21.8893   71.5706    2.9938 C   0  0  2  0  0  0  0  0  0  0  0  0
   24.6346   71.7278    2.1227 C   0  0  1  0  0  0  0  0  0  0  0  0
   22.3574   71.2545    1.5722 C   0  0  1  0  0  0  0  0  0  0  0  0
   23.0874   73.2305    5.5319 H   0  0  0  0  0  0  0  0  0  0  0  0
   24.8931   73.3293    4.9723 H   0  0  0  0  0  0  0  0  0  0  0  0
   20.2902   72.3128    3.8762 H   0  0  0  0  0  0  0  0  0  0  0  0
   26.2944   70.3806    3.1899 O   0  0  0  0  0  0  0  0  0  0  0  0
   26.0245   71.1060    2.0046 C   0  0  0  0  0  0  0  0  0  0  0  0
   27.1758   69.9790    3.1288 H   0  0  0  0  0  0  0  0  0  0  0  0
 25 28  1  0
 25 24  1  0
 25 26  1  1
 25 27  2  0
  1  4  1  0
  1 24  1  0
  1  2  1  1
  1  3  2  0
  6 11  1  0
  6 12  1  0
 29 36  1  0
 29 37  1  0
  9  7  1  1
  7 13  1  0
 10  8  1  1
  8 14  1  0
 37 28  1  6
  4  5  1  0
 33 30  1  1
 30 38  1  0
 34 31  1  6
 31 39  1  0
 35 32  1  6
 32 40  1  0
 41 42  1  0
 41 43  1  0
 15 19  2  0
 16 22  2  0
 12 17  1  6
 17 19  1  0
 17 20  1  0
 18 19  1  0
 18 22  1  0
 18 23  1  0
  9 10  1  0
  9 11  1  0
 10 12  1  0
 11  5  1  6
 33 34  1  0
 33 35  1  0
 34 36  1  0
 35 37  1  0
 36 42  1  1
 20 21  2  0
 21 22  1  0
M  CHG  2   2  -1  26  -1
M  END
>  <COMPND>  (17) 
    8629 

>  <AUTHOR>  (17) 
    GENERATED BY OPEN BABEL 3.1.1

>  <MASTER>  (17) 
        0    0    0    0    0    0    0    0   58    0   58    0

>  <minimizedAffinity>  (17) 
-6.53993

>  <CNNscore>  (17) 
0.4214481413

>  <CNNaffinity>  (17) 
4.1046433449

>  <CNN_VS>  (17) 
1.7298942804

>  <CNNaffinity_variance>  (17) 
0.1254422963

$$$$
18
     RDKit          3D

 43 45  0  0  0  0  0  0  0  0999 V2000
   17.0615   70.0425   -3.1304 P   0  0  2  0  0  0  0  0  0  0  0  0
   17.4626   68.6918   -2.3353 O   0  0  0  0  0  0  0  0  0  0  0  0
   15.9057   70.8015   -2.5477 O   0  0  0  0  0  0  0  0  0  0  0  0
   16.8798   69.5524   -4.6616 O   0  0  0  0  0  0  0  0  0  0  0  0
   17.8158   69.9954   -5.6289 C   0  0  0  0  0  0  0  0  0  0  0  0
   15.9358   70.4017   -7.0692 O   0  0  0  0  0  0  0  0  0  0  0  0
   17.7729   69.7361   -9.3437 O   0  0  0  0  0  0  0  0  0  0  0  0
   17.7159   72.4618   -9.4038 O   0  0  0  0  0  0  0  0  0  0  0  0
   18.0571   70.4220   -8.1255 C   0  0  1  0  0  0  0  0  0  0  0  0
   17.4837   71.8232   -8.1649 C   0  0  2  0  0  0  0  0  0  0  0  0
   17.2353   69.7730   -7.0188 C   0  0  1  0  0  0  0  0  0  0  0  0
   16.0086   71.5673   -7.9065 C   0  0  2  0  0  0  0  0  0  0  0  0
   18.2866   70.1327  -10.0653 H   0  0  0  0  0  0  0  0  0  0  0  0
   18.6683   72.6026   -9.5217 H   0  0  0  0  0  0  0  0  0  0  0  0
   14.7962   73.7552   -9.2184 O   0  0  0  0  0  0  0  0  0  0  0  0
   13.5977   75.7207   -5.2256 O   0  0  0  0  0  0  0  0  0  0  0  0
   15.3719   72.6647   -7.2343 N   0  0  0  0  0  0  0  0  0  0  0  0
   14.2002   74.7320   -7.2292 N   0  0  0  0  0  0  0  0  0  0  0  0
   14.7942   73.7141   -7.9863 C   0  0  0  0  0  0  0  0  0  0  0  0
   15.3246   72.6928   -5.8448 C   0  0  0  0  0  0  0  0  0  0  0  0
   14.7555   73.6714   -5.1378 C   0  0  0  0  0  0  0  0  0  0  0  0
   14.1288   74.8055   -5.8471 C   0  0  0  0  0  0  0  0  0  0  0  0
   13.7916   75.4738   -7.7317 H   0  0  0  0  0  0  0  0  0  0  0  0
   18.4525   70.8648   -3.1747 O   0  0  0  0  0  0  0  0  0  0  0  0
   18.7786   72.4168   -2.8616 P   0  0  2  0  0  0  0  0  0  0  0  0
   18.4500   72.5539   -1.2834 O   0  0  0  0  0  0  0  0  0  0  0  0
   18.0396   73.3892   -3.7347 O   0  0  0  0  0  0  0  0  0  0  0  0
   20.3864   72.5230   -2.9540 O   0  0  0  0  0  0  0  0  0  0  0  0
   20.8030   71.5983   -5.0960 O   0  0  0  0  0  0  0  0  0  0  0  0
   24.6290   72.8344   -4.1555 O   0  0  0  0  0  0  0  0  0  0  0  0
   23.1225   74.2678   -6.1364 O   0  0  0  0  0  0  0  0  0  0  0  0
   22.9314   71.7031   -2.1019 O   0  0  0  0  0  0  0  0  0  0  0  0
   23.2010   72.9114   -4.1679 C   0  0  1  0  0  0  0  0  0  0  0  0
   22.7378   72.9952   -5.6237 C   0  0  1  0  0  0  0  0  0  0  0  0
   22.6281   71.6669   -3.4923 C   0  0  2  0  0  0  0  0  0  0  0  0
   21.2181   72.8123   -5.7329 C   0  0  1  0  0  0  0  0  0  0  0  0
   21.1170   71.5550   -3.7026 C   0  0  1  0  0  0  0  0  0  0  0  0
   24.9991   73.6219   -4.5827 H   0  0  0  0  0  0  0  0  0  0  0  0
   24.0842   74.3708   -6.0611 H   0  0  0  0  0  0  0  0  0  0  0  0
   23.8908   71.7737   -1.9820 H   0  0  0  0  0  0  0  0  0  0  0  0
   21.8969   72.6881   -8.0204 O   0  0  0  0  0  0  0  0  0  0  0  0
   20.7543   72.7349   -7.1859 C   0  0  0  0  0  0  0  0  0  0  0  0
   21.6171   72.6383   -8.9483 H   0  0  0  0  0  0  0  0  0  0  0  0
 25 28  1  0
 25 24  1  0
 25 26  1  1
 25 27  2  0
  1  4  1  0
  1 24  1  0
  1  2  1  1
  1  3  2  0
  6 11  1  0
  6 12  1  0
 29 36  1  0
 29 37  1  0
  9  7  1  6
  7 13  1  0
 10  8  1  6
  8 14  1  0
 37 28  1  1
  4  5  1  0
 33 30  1  6
 30 38  1  0
 34 31  1  1
 31 39  1  0
 35 32  1  1
 32 40  1  0
 41 42  1  0
 41 43  1  0
 15 19  2  0
 16 22  2  0
 12 17  1  1
 17 19  1  0
 17 20  1  0
 18 19  1  0
 18 22  1  0
 18 23  1  0
  9 10  1  0
  9 11  1  0
 10 12  1  0
 11  5  1  1
 33 34  1  0
 33 35  1  0
 34 36  1  0
 35 37  1  0
 36 42  1  6
 20 21  2  0
 21 22  1  0
M  CHG  2   2  -1  26  -1
M  END
>  <COMPND>  (18) 
    8629 

>  <AUTHOR>  (18) 
    GENERATED BY OPEN BABEL 3.1.1

>  <MASTER>  (18) 
        0    0    0    0    0    0    0    0   58    0   58    0

>  <minimizedAffinity>  (18) 
-7.03449

>  <CNNscore>  (18) 
0.4090468287

>  <CNNaffinity>  (18) 
3.9427695274

>  <CNN_VS>  (18) 
1.6127773523

>  <CNNaffinity_variance>  (18) 
0.8219761848

$$$$
19
     RDKit          3D

 43 45  0  0  0  0  0  0  0  0999 V2000
   20.8933   72.2915    0.4526 P   0  0  2  0  0  0  0  0  0  0  0  0
   21.2280   70.9368    1.2713 O   0  0  0  0  0  0  0  0  0  0  0  0
   19.6633   73.0199    0.9086 O   0  0  0  0  0  0  0  0  0  0  0  0
   20.8979   71.8210   -1.0954 O   0  0  0  0  0  0  0  0  0  0  0  0
   21.3028   72.7521   -2.0838 C   0  0  0  0  0  0  0  0  0  0  0  0
   21.6232   71.1611   -3.8558 O   0  0  0  0  0  0  0  0  0  0  0  0
   24.2666   72.4965   -4.3242 O   0  0  0  0  0  0  0  0  0  0  0  0
   22.7073   73.5580   -6.2935 O   0  0  0  0  0  0  0  0  0  0  0  0
   23.0218   73.0726   -3.9320 C   0  0  1  0  0  0  0  0  0  0  0  0
   22.0709   73.1217   -5.1097 C   0  0  2  0  0  0  0  0  0  0  0  0
   22.3232   72.0904   -2.9999 C   0  0  1  0  0  0  0  0  0  0  0  0
   21.6013   71.6794   -5.1958 C   0  0  2  0  0  0  0  0  0  0  0  0
   24.7313   73.1059   -4.9198 H   0  0  0  0  0  0  0  0  0  0  0  0
   22.9875   74.4807   -6.1889 H   0  0  0  0  0  0  0  0  0  0  0  0
   20.9019   70.1696   -7.4782 O   0  0  0  0  0  0  0  0  0  0  0  0
   16.4557   71.3245   -7.1055 O   0  0  0  0  0  0  0  0  0  0  0  0
   20.2682   71.5677   -5.7173 N   0  0  0  0  0  0  0  0  0  0  0  0
   18.6886   70.7458   -7.2907 N   0  0  0  0  0  0  0  0  0  0  0  0
   20.0240   70.7850   -6.8697 C   0  0  0  0  0  0  0  0  0  0  0  0
   19.2199   72.2295   -5.0872 C   0  0  0  0  0  0  0  0  0  0  0  0
   17.9523   72.1830   -5.5020 C   0  0  0  0  0  0  0  0  0  0  0  0
   17.6119   71.3872   -6.6990 C   0  0  0  0  0  0  0  0  0  0  0  0
   18.4946   70.2069   -8.0918 H   0  0  0  0  0  0  0  0  0  0  0  0
   22.2632   73.1402    0.5786 O   0  0  0  0  0  0  0  0  0  0  0  0
   23.8044   72.6609    0.6684 P   0  0  2  0  0  0  0  0  0  0  0  0
   24.6281   73.9684    0.1891 O   0  0  0  0  0  0  0  0  0  0  0  0
   24.1084   71.4163   -0.1141 O   0  0  0  0  0  0  0  0  0  0  0  0
   24.1052   72.5468    2.2500 O   0  0  0  0  0  0  0  0  0  0  0  0
   23.8496   74.3337    3.7857 O   0  0  0  0  0  0  0  0  0  0  0  0
   26.7793   72.1882    5.7515 O   0  0  0  0  0  0  0  0  0  0  0  0
   24.0986   72.2006    6.7819 O   0  0  0  0  0  0  0  0  0  0  0  0
   26.8394   72.4051    2.8656 O   0  0  0  0  0  0  0  0  0  0  0  0
   25.6150   72.3618    4.9393 C   0  0  1  0  0  0  0  0  0  0  0  0
   24.5563   73.0915    5.7684 C   0  0  1  0  0  0  0  0  0  0  0  0
   25.9863   73.1782    3.7028 C   0  0  2  0  0  0  0  0  0  0  0  0
   23.3840   73.5497    4.8904 C   0  0  1  0  0  0  0  0  0  0  0  0
   24.7456   73.6249    2.9274 C   0  0  1  0  0  0  0  0  0  0  0  0
   26.5505   71.6701    6.5382 H   0  0  0  0  0  0  0  0  0  0  0  0
   24.8485   71.9185    7.3288 H   0  0  0  0  0  0  0  0  0  0  0  0
   27.6212   72.1287    3.3679 H   0  0  0  0  0  0  0  0  0  0  0  0
   21.4122   73.5713    6.2396 O   0  0  0  0  0  0  0  0  0  0  0  0
   22.3931   74.4154    5.6656 C   0  0  0  0  0  0  0  0  0  0  0  0
   20.7748   74.1086    6.7364 H   0  0  0  0  0  0  0  0  0  0  0  0
 25 28  1  0
 25 24  1  0
 25 26  1  6
 25 27  2  0
  1  4  1  0
  1 24  1  0
  1  2  1  1
  1  3  2  0
  6 11  1  0
  6 12  1  0
 29 36  1  0
 29 37  1  0
  9  7  1  6
  7 13  1  0
 10  8  1  6
  8 14  1  0
 37 28  1  1
  4  5  1  0
 33 30  1  1
 30 38  1  0
 34 31  1  1
 31 39  1  0
 35 32  1  6
 32 40  1  0
 41 42  1  0
 41 43  1  0
 15 19  2  0
 16 22  2  0
 12 17  1  1
 17 19  1  0
 17 20  1  0
 18 19  1  0
 18 22  1  0
 18 23  1  0
  9 10  1  0
  9 11  1  0
 10 12  1  0
 11  5  1  1
 33 34  1  0
 33 35  1  0
 34 36  1  0
 35 37  1  0
 36 42  1  1
 20 21  2  0
 21 22  1  0
M  CHG  2   2  -1  26  -1
M  END
>  <COMPND>  (19) 
    8629 

>  <AUTHOR>  (19) 
    GENERATED BY OPEN BABEL 3.1.1

>  <MASTER>  (19) 
        0    0    0    0    0    0    0    0   58    0   58    0

>  <minimizedAffinity>  (19) 
-6.28330

>  <CNNscore>  (19) 
0.4016838074

>  <CNNaffinity>  (19) 
4.0290575027

>  <CNN_VS>  (19) 
1.6184071302

>  <CNNaffinity_variance>  (19) 
0.0905182585

$$$$
20
     RDKit          3D

 43 45  0  0  0  0  0  0  0  0999 V2000
   20.3351   71.2113   -1.6486 P   0  0  2  0  0  0  0  0  0  0  0  0
   19.1255   70.1380   -1.6969 O   0  0  0  0  0  0  0  0  0  0  0  0
   21.5499   70.8334   -2.4441 O   0  0  0  0  0  0  0  0  0  0  0  0
   20.5778   71.4520   -0.0671 O   0  0  0  0  0  0  0  0  0  0  0  0
   20.9815   72.7391    0.3668 C   0  0  0  0  0  0  0  0  0  0  0  0
   20.9646   72.0170    2.6585 O   0  0  0  0  0  0  0  0  0  0  0  0
   19.8261   74.7146    3.3046 O   0  0  0  0  0  0  0  0  0  0  0  0
   22.4522   75.0001    3.9817 O   0  0  0  0  0  0  0  0  0  0  0  0
   20.7963   74.3566    2.3218 C   0  0  1  0  0  0  0  0  0  0  0  0
   22.1266   74.0572    2.9809 C   0  0  2  0  0  0  0  0  0  0  0  0
   20.4094   72.9968    1.7540 C   0  0  1  0  0  0  0  0  0  0  0  0
   21.8936   72.6651    3.5427 C   0  0  2  0  0  0  0  0  0  0  0  0
   20.0518   75.5800    3.6814 H   0  0  0  0  0  0  0  0  0  0  0  0
   22.5908   75.8694    3.5744 H   0  0  0  0  0  0  0  0  0  0  0  0
   23.2035   71.9307    5.9349 O   0  0  0  0  0  0  0  0  0  0  0  0
   26.5171   69.6883    3.6474 O   0  0  0  0  0  0  0  0  0  0  0  0
   23.1002   71.8892    3.6015 N   0  0  0  0  0  0  0  0  0  0  0  0
   24.8523   70.8146    4.7940 N   0  0  0  0  0  0  0  0  0  0  0  0
   23.6779   71.5757    4.8539 C   0  0  0  0  0  0  0  0  0  0  0  0
   23.6980   71.4474    2.4262 C   0  0  0  0  0  0  0  0  0  0  0  0
   24.8186   70.7235    2.3861 C   0  0  0  0  0  0  0  0  0  0  0  0
   25.4856   70.3529    3.6509 C   0  0  0  0  0  0  0  0  0  0  0  0
   25.2727   70.5844    5.6542 H   0  0  0  0  0  0  0  0  0  0  0  0
   19.6224   72.5835   -2.1198 O   0  0  0  0  0  0  0  0  0  0  0  0
   19.2596   73.1395   -3.5936 P   0  0  2  0  0  0  0  0  0  0  0  0
   20.7040   73.2517   -4.3138 O   0  0  0  0  0  0  0  0  0  0  0  0
   18.4674   74.4148   -3.5924 O   0  0  0  0  0  0  0  0  0  0  0  0
   18.5322   71.9009   -4.3297 O   0  0  0  0  0  0  0  0  0  0  0  0
   16.6875   72.6068   -5.6395 O   0  0  0  0  0  0  0  0  0  0  0  0
   16.0791   68.5253   -5.7884 O   0  0  0  0  0  0  0  0  0  0  0  0
   17.0236   69.9042   -8.1239 O   0  0  0  0  0  0  0  0  0  0  0  0
   17.0142   69.7575   -3.3416 O   0  0  0  0  0  0  0  0  0  0  0  0
   16.8543   69.7263   -5.7447 C   0  0  1  0  0  0  0  0  0  0  0  0
   16.5053   70.5674   -6.9741 C   0  0  1  0  0  0  0  0  0  0  0  0
   16.5245   70.4869   -4.4617 C   0  0  2  0  0  0  0  0  0  0  0  0
   17.0919   71.9811   -6.8629 C   0  0  1  0  0  0  0  0  0  0  0  0
   17.1143   71.8983   -4.4743 C   0  0  1  0  0  0  0  0  0  0  0  0
   16.2842   68.0374   -6.6004 H   0  0  0  0  0  0  0  0  0  0  0  0
   16.6458   69.0126   -8.1821 H   0  0  0  0  0  0  0  0  0  0  0  0
   16.6332   68.8660   -3.3448 H   0  0  0  0  0  0  0  0  0  0  0  0
   17.4106   72.6075   -9.1465 O   0  0  0  0  0  0  0  0  0  0  0  0
   16.6253   72.8852   -8.0018 C   0  0  0  0  0  0  0  0  0  0  0  0
   17.1246   73.1754   -9.8796 H   0  0  0  0  0  0  0  0  0  0  0  0
 25 28  1  0
 25 24  1  0
 25 26  1  6
 25 27  2  0
  1  4  1  0
  1 24  1  0
  1  2  1  1
  1  3  2  0
  6 11  1  0
  6 12  1  0
 29 36  1  0
 29 37  1  0
  9  7  1  1
  7 13  1  0
 10  8  1  1
  8 14  1  0
 37 28  1  6
  4  5  1  0
 33 30  1  6
 30 38  1  0
 34 31  1  6
 31 39  1  0
 35 32  1  1
 32 40  1  0
 41 42  1  0
 41 43  1  0
 15 19  2  0
 16 22  2  0
 12 17  1  6
 17 19  1  0
 17 20  1  0
 18 19  1  0
 18 22  1  0
 18 23  1  0
  9 10  1  0
  9 11  1  0
 10 12  1  0
 11  5  1  6
 33 34  1  0
 33 35  1  0
 34 36  1  0
 35 37  1  0
 36 42  1  6
 20 21  2  0
 21 22  1  0
M  CHG  2   2  -1  26  -1
M  END
>  <COMPND>  (20) 
    8629 

>  <AUTHOR>  (20) 
    GENERATED BY OPEN BABEL 3.1.1

>  <MASTER>  (20) 
        0    0    0    0    0    0    0    0   58    0   58    0

>  <minimizedAffinity>  (20) 
-6.95949

>  <CNNscore>  (20) 
0.3805321157

>  <CNNaffinity>  (20) 
3.8238532543

>  <CNN_VS>  (20) 
1.4550989866

>  <CNNaffinity_variance>  (20) 
0.1332520396

$$$$
21
     RDKit          3D

 43 45  0  0  0  0  0  0  0  0999 V2000
   23.0488   71.5742   -2.4163 P   0  0  2  0  0  0  0  0  0  0  0  0
   22.9630   73.1851   -2.5391 O   0  0  0  0  0  0  0  0  0  0  0  0
   24.2630   70.9545   -3.0431 O   0  0  0  0  0  0  0  0  0  0  0  0
   21.6243   71.0645   -2.9899 O   0  0  0  0  0  0  0  0  0  0  0  0
   20.9337   71.8878   -3.9135 C   0  0  0  0  0  0  0  0  0  0  0  0
   18.7126   72.1538   -4.7908 O   0  0  0  0  0  0  0  0  0  0  0  0
   17.7718   70.7129   -2.3352 O   0  0  0  0  0  0  0  0  0  0  0  0
   17.7021   68.7578   -4.2350 O   0  0  0  0  0  0  0  0  0  0  0  0
   18.9559   70.5072   -3.1040 C   0  0  1  0  0  0  0  0  0  0  0  0
   18.6216   69.8165   -4.4097 C   0  0  2  0  0  0  0  0  0  0  0  0
   19.4480   71.8679   -3.5809 C   0  0  1  0  0  0  0  0  0  0  0  0
   18.0493   70.9581   -5.2326 C   0  0  2  0  0  0  0  0  0  0  0  0
   17.4389   69.8577   -2.0193 H   0  0  0  0  0  0  0  0  0  0  0  0
   18.1130   68.0566   -3.7055 H   0  0  0  0  0  0  0  0  0  0  0  0
   16.0266   70.4218   -7.1297 O   0  0  0  0  0  0  0  0  0  0  0  0
   19.0547   70.3272  -10.6029 O   0  0  0  0  0  0  0  0  0  0  0  0
   18.2809   70.7891   -6.6394 N   0  0  0  0  0  0  0  0  0  0  0  0
   17.5360   70.3753   -8.8576 N   0  0  0  0  0  0  0  0  0  0  0  0
   17.1960   70.5217   -7.5066 C   0  0  0  0  0  0  0  0  0  0  0  0
   19.5721   70.8890   -7.1460 C   0  0  0  0  0  0  0  0  0  0  0  0
   19.8797   70.7456   -8.4368 C   0  0  0  0  0  0  0  0  0  0  0  0
   18.8041   70.4645   -9.4095 C   0  0  0  0  0  0  0  0  0  0  0  0
   16.7964   70.1882   -9.4804 H   0  0  0  0  0  0  0  0  0  0  0  0
   22.9106   71.3232   -0.8254 O   0  0  0  0  0  0  0  0  0  0  0  0
   21.7331   71.7104    0.2121 P   0  0  2  0  0  0  0  0  0  0  0  0
   20.6746   70.4989    0.0410 O   0  0  0  0  0  0  0  0  0  0  0  0
   21.1498   73.0772   -0.0014 O   0  0  0  0  0  0  0  0  0  0  0  0
   22.3828   71.4810    1.6716 O   0  0  0  0  0  0  0  0  0  0  0  0
   23.0224   73.1744    3.2013 O   0  0  0  0  0  0  0  0  0  0  0  0
   25.7891   70.2840    4.2220 O   0  0  0  0  0  0  0  0  0  0  0  0
   23.6085   70.8513    6.0028 O   0  0  0  0  0  0  0  0  0  0  0  0
   25.0595   70.6686    1.4472 O   0  0  0  0  0  0  0  0  0  0  0  0
   24.5170   70.7757    3.7915 C   0  0  1  0  0  0  0  0  0  0  0  0
   23.9530   71.6756    4.8928 C   0  0  1  0  0  0  0  0  0  0  0  0
   24.6987   71.5624    2.4948 C   0  0  2  0  0  0  0  0  0  0  0  0
   22.7230   72.4497    4.3999 C   0  0  1  0  0  0  0  0  0  0  0  0
   23.4323   72.3345    2.1204 C   0  0  1  0  0  0  0  0  0  0  0  0
   25.6807   69.7831    5.0447 H   0  0  0  0  0  0  0  0  0  0  0  0
   24.3938   70.3677    6.3040 H   0  0  0  0  0  0  0  0  0  0  0  0
   25.8627   70.1862    1.6963 H   0  0  0  0  0  0  0  0  0  0  0  0
   23.1415   73.4705    6.5193 O   0  0  0  0  0  0  0  0  0  0  0  0
   22.2389   73.4693    5.4286 C   0  0  0  0  0  0  0  0  0  0  0  0
   22.8462   74.1151    7.1819 H   0  0  0  0  0  0  0  0  0  0  0  0
 25 28  1  0
 25 24  1  0
 25 26  1  6
 25 27  2  0
  1  4  1  0
  1 24  1  0
  1  2  1  1
  1  3  2  0
  6 11  1  0
  6 12  1  0
 29 36  1  0
 29 37  1  0
  9  7  1  1
  7 13  1  0
 10  8  1  1
  8 14  1  0
 37 28  1  1
  4  5  1  0
 33 30  1  1
 30 38  1  0
 34 31  1  1
 31 39  1  0
 35 32  1  6
 32 40  1  0
 41 42  1  0
 41 43  1  0
 15 19  2  0
 16 22  2  0
 12 17  1  6
 17 19  1  0
 17 20  1  0
 18 19  1  0
 18 22  1  0
 18 23  1  0
  9 10  1  0
  9 11  1  0
 10 12  1  0
 11  5  1  6
 33 34  1  0
 33 35  1  0
 34 36  1  0
 35 37  1  0
 36 42  1  1
 20 21  2  0
 21 22  1  0
M  CHG  2   2  -1  26  -1
M  END
>  <COMPND>  (21) 
    8629 

>  <AUTHOR>  (21) 
    GENERATED BY OPEN BABEL 3.1.1

>  <MASTER>  (21) 
        0    0    0    0    0    0    0    0   58    0   58    0

>  <minimizedAffinity>  (21) 
-8.29378

>  <CNNscore>  (21) 
0.8931879997

>  <CNNaffinity>  (21) 
4.6115980148

>  <CNN_VS>  (21) 
4.1190237999

>  <CNNaffinity_variance>  (21) 
0.0913678035

$$$$
22
     RDKit          3D

 43 45  0  0  0  0  0  0  0  0999 V2000
   20.4480   72.3893   -1.8570 P   0  0  2  0  0  0  0  0  0  0  0  0
   19.2188   72.7395   -0.8651 O   0  0  0  0  0  0  0  0  0  0  0  0
   20.5812   73.2955   -3.0455 O   0  0  0  0  0  0  0  0  0  0  0  0
   20.2431   70.8193   -2.1900 O   0  0  0  0  0  0  0  0  0  0  0  0
   19.6969   70.4604   -3.4473 C   0  0  0  0  0  0  0  0  0  0  0  0
   17.9547   71.5309   -4.7093 O   0  0  0  0  0  0  0  0  0  0  0  0
   16.0288   70.0478   -2.9537 O   0  0  0  0  0  0  0  0  0  0  0  0
   16.0203   68.5573   -5.2373 O   0  0  0  0  0  0  0  0  0  0  0  0
   17.2931   69.6269   -3.4632 C   0  0  1  0  0  0  0  0  0  0  0  0
   17.1837   69.3016   -4.9383 C   0  0  2  0  0  0  0  0  0  0  0  0
   18.2213   70.8351   -3.4719 C   0  0  1  0  0  0  0  0  0  0  0  0
   17.1699   70.6852   -5.5658 C   0  0  2  0  0  0  0  0  0  0  0  0
   15.4190   69.2929   -2.9382 H   0  0  0  0  0  0  0  0  0  0  0  0
   16.0768   67.6856   -4.8159 H   0  0  0  0  0  0  0  0  0  0  0  0
   15.7186   70.2041   -7.9407 O   0  0  0  0  0  0  0  0  0  0  0  0
   19.4711   70.7472  -10.5608 O   0  0  0  0  0  0  0  0  0  0  0  0
   17.7425   70.6951   -6.8824 N   0  0  0  0  0  0  0  0  0  0  0  0
   17.5882   70.4751   -9.2434 N   0  0  0  0  0  0  0  0  0  0  0  0
   16.9266   70.4402   -8.0093 C   0  0  0  0  0  0  0  0  0  0  0  0
   19.0986   70.9557   -7.0464 C   0  0  0  0  0  0  0  0  0  0  0  0
   19.7145   70.9841   -8.2301 C   0  0  0  0  0  0  0  0  0  0  0  0
   18.9338   70.7282   -9.4577 C   0  0  0  0  0  0  0  0  0  0  0  0
   17.0399   70.3001  -10.0425 H   0  0  0  0  0  0  0  0  0  0  0  0
   21.7253   72.3869   -0.8663 O   0  0  0  0  0  0  0  0  0  0  0  0
   23.3101   72.3216   -1.1778 P   0  0  2  0  0  0  0  0  0  0  0  0
   23.6331   73.7927   -1.7685 O   0  0  0  0  0  0  0  0  0  0  0  0
   23.7142   71.1903   -2.0782 O   0  0  0  0  0  0  0  0  0  0  0  0
   24.0116   72.3029    0.2757 O   0  0  0  0  0  0  0  0  0  0  0  0
   25.3395   70.7331    1.4542 O   0  0  0  0  0  0  0  0  0  0  0  0
   22.8398   71.9166    4.5205 O   0  0  0  0  0  0  0  0  0  0  0  0
   25.5812   72.7729    4.5152 O   0  0  0  0  0  0  0  0  0  0  0  0
   21.7900   71.6033    1.8411 O   0  0  0  0  0  0  0  0  0  0  0  0
   23.6174   72.0901    3.3327 C   0  0  1  0  0  0  0  0  0  0  0  0
   25.0736   71.7530    3.6593 C   0  0  1  0  0  0  0  0  0  0  0  0
   23.0814   71.1610    2.2451 C   0  0  2  0  0  0  0  0  0  0  0  0
   25.9197   71.6567    2.3826 C   0  0  1  0  0  0  0  0  0  0  0  0
   24.0220   71.1002    1.0403 C   0  0  1  0  0  0  0  0  0  0  0  0
   23.1747   72.5041    5.2149 H   0  0  0  0  0  0  0  0  0  0  0  0
   25.0378   72.8236    5.3173 H   0  0  0  0  0  0  0  0  0  0  0  0
   21.2040   71.6373    2.6126 H   0  0  0  0  0  0  0  0  0  0  0  0
   28.0870   72.2477    3.1966 O   0  0  0  0  0  0  0  0  0  0  0  0
   27.3372   71.1676    2.6715 C   0  0  0  0  0  0  0  0  0  0  0  0
   28.9914   71.9510    3.3856 H   0  0  0  0  0  0  0  0  0  0  0  0
 25 28  1  0
 25 24  1  0
 25 26  1  6
 25 27  2  0
  1  4  1  0
  1 24  1  0
  1  2  1  1
  1  3  2  0
  6 11  1  0
  6 12  1  0
 29 36  1  0
 29 37  1  0
  9  7  1  6
  7 13  1  0
 10  8  1  1
  8 14  1  0
 37 28  1  1
  4  5  1  0
 33 30  1  1
 30 38  1  0
 34 31  1  1
 31 39  1  0
 35 32  1  6
 32 40  1  0
 41 42  1  0
 41 43  1  0
 15 19  2  0
 16 22  2  0
 12 17  1  6
 17 19  1  0
 17 20  1  0
 18 19  1  0
 18 22  1  0
 18 23  1  0
  9 10  1  0
  9 11  1  0
 10 12  1  0
 11  5  1  6
 33 34  1  0
 33 35  1  0
 34 36  1  0
 35 37  1  0
 36 42  1  1
 20 21  2  0
 21 22  1  0
M  CHG  2   2  -1  26  -1
M  END
>  <COMPND>  (22) 
    8629 

>  <AUTHOR>  (22) 
    GENERATED BY OPEN BABEL 3.1.1

>  <MASTER>  (22) 
        0    0    0    0    0    0    0    0   58    0   58    0

>  <minimizedAffinity>  (22) 
-7.44231

>  <CNNscore>  (22) 
0.8590816855

>  <CNNaffinity>  (22) 
4.6907920837

>  <CNN_VS>  (22) 
4.0297737122

>  <CNNaffinity_variance>  (22) 
0.0711179152

$$$$
23
     RDKit          3D

 43 45  0  0  0  0  0  0  0  0999 V2000
   20.7074   71.5557   -1.5212 P   0  0  2  0  0  0  0  0  0  0  0  0
   21.4601   70.9024   -0.2469 O   0  0  0  0  0  0  0  0  0  0  0  0
   20.1349   72.9227   -1.2869 O   0  0  0  0  0  0  0  0  0  0  0  0
   19.6486   70.4184   -1.9720 O   0  0  0  0  0  0  0  0  0  0  0  0
   19.2329   70.3803   -3.3261 C   0  0  0  0  0  0  0  0  0  0  0  0
   17.4813   71.4210   -4.5999 O   0  0  0  0  0  0  0  0  0  0  0  0
   15.5799   69.7235   -3.0206 O   0  0  0  0  0  0  0  0  0  0  0  0
   15.7561   68.3763   -5.3850 O   0  0  0  0  0  0  0  0  0  0  0  0
   16.8874   69.4093   -3.4971 C   0  0  1  0  0  0  0  0  0  0  0  0
   16.8584   69.1682   -4.9919 C   0  0  2  0  0  0  0  0  0  0  0  0
   17.7394   70.6683   -3.3944 C   0  0  1  0  0  0  0  0  0  0  0  0
   16.7855   70.5840   -5.5381 C   0  0  2  0  0  0  0  0  0  0  0  0
   15.0175   68.9345   -3.0761 H   0  0  0  0  0  0  0  0  0  0  0  0
   15.8487   67.4854   -5.0128 H   0  0  0  0  0  0  0  0  0  0  0  0
   15.8038   72.1957   -7.6397 O   0  0  0  0  0  0  0  0  0  0  0  0
   19.2617   70.9788  -10.4332 O   0  0  0  0  0  0  0  0  0  0  0  0
   17.4096   70.7074   -6.8252 N   0  0  0  0  0  0  0  0  0  0  0  0
   17.5264   71.5886   -9.0289 N   0  0  0  0  0  0  0  0  0  0  0  0
   16.8351   71.5426   -7.8115 C   0  0  0  0  0  0  0  0  0  0  0  0
   18.5783   70.0051   -7.0988 C   0  0  0  0  0  0  0  0  0  0  0  0
   19.2246   70.0588   -8.2653 C   0  0  0  0  0  0  0  0  0  0  0  0
   18.6906   70.9083   -9.3493 C   0  0  0  0  0  0  0  0  0  0  0  0
   17.1445   72.1637   -9.7311 H   0  0  0  0  0  0  0  0  0  0  0  0
   21.8308   71.4867   -2.6815 O   0  0  0  0  0  0  0  0  0  0  0  0
   23.2695   72.2122   -2.8106 P   0  0  2  0  0  0  0  0  0  0  0  0
   24.2929   70.9746   -3.0067 O   0  0  0  0  0  0  0  0  0  0  0  0
   23.6068   73.1187   -1.6624 O   0  0  0  0  0  0  0  0  0  0  0  0
   23.2315   72.9417   -4.2499 O   0  0  0  0  0  0  0  0  0  0  0  0
   22.0787   74.8547   -5.0421 O   0  0  0  0  0  0  0  0  0  0  0  0
   21.6692   72.4200   -8.3520 O   0  0  0  0  0  0  0  0  0  0  0  0
   23.4659   74.6583   -8.4518 O   0  0  0  0  0  0  0  0  0  0  0  0
   21.4848   71.2872   -5.6945 O   0  0  0  0  0  0  0  0  0  0  0  0
   22.3326   72.9601   -7.2058 C   0  0  1  0  0  0  0  0  0  0  0  0
   22.5056   74.4655   -7.4170 C   0  0  1  0  0  0  0  0  0  0  0  0
   21.4868   72.6850   -5.9639 C   0  0  2  0  0  0  0  0  0  0  0  0
   22.9650   75.1567   -6.1261 C   0  0  1  0  0  0  0  0  0  0  0  0
   22.0003   73.4586   -4.7482 C   0  0  1  0  0  0  0  0  0  0  0  0
   22.2013   72.5908   -9.1440 H   0  0  0  0  0  0  0  0  0  0  0  0
   23.1641   74.2166   -9.2611 H   0  0  0  0  0  0  0  0  0  0  0  0
   21.1574   70.8088   -6.4715 H   0  0  0  0  0  0  0  0  0  0  0  0
   22.0344   77.0535   -7.2419 O   0  0  0  0  0  0  0  0  0  0  0  0
   22.9922   76.6768   -6.2698 C   0  0  0  0  0  0  0  0  0  0  0  0
   22.0403   78.0185   -7.3438 H   0  0  0  0  0  0  0  0  0  0  0  0
 25 28  1  0
 25 24  1  0
 25 26  1  6
 25 27  2  0
  1  4  1  0
  1 24  1  0
  1  2  1  1
  1  3  2  0
  6 11  1  0
  6 12  1  0
 29 36  1  0
 29 37  1  0
  9  7  1  6
  7 13  1  0
 10  8  1  1
  8 14  1  0
 37 28  1  6
  4  5  1  0
 33 30  1  6
 30 38  1  0
 34 31  1  6
 31 39  1  0
 35 32  1  1
 32 40  1  0
 41 42  1  0
 41 43  1  0
 15 19  2  0
 16 22  2  0
 12 17  1  6
 17 19  1  0
 17 20  1  0
 18 19  1  0
 18 22  1  0
 18 23  1  0
  9 10  1  0
  9 11  1  0
 10 12  1  0
 11  5  1  6
 33 34  1  0
 33 35  1  0
 34 36  1  0
 35 37  1  0
 36 42  1  6
 20 21  2  0
 21 22  1  0
M  CHG  2   2  -1  26  -1
M  END
>  <COMPND>  (23) 
    8629 

>  <AUTHOR>  (23) 
    GENERATED BY OPEN BABEL 3.1.1

>  <MASTER>  (23) 
        0    0    0    0    0    0    0    0   58    0   58    0

>  <minimizedAffinity>  (23) 
-7.32942

>  <CNNscore>  (23) 
0.8589380980

>  <CNNaffinity>  (23) 
4.6563081741

>  <CNN_VS>  (23) 
3.9994804859

>  <CNNaffinity_variance>  (23) 
0.5418336987

$$$$
24
     RDKit          3D

 43 45  0  0  0  0  0  0  0  0999 V2000
   21.3698   72.5120   -2.6499 P   0  0  2  0  0  0  0  0  0  0  0  0
   22.0050   71.0314   -2.5025 O   0  0  0  0  0  0  0  0  0  0  0  0
   21.8734   73.5193   -1.6584 O   0  0  0  0  0  0  0  0  0  0  0  0
   19.7728   72.2525   -2.6383 O   0  0  0  0  0  0  0  0  0  0  0  0
   18.9846   72.8422   -3.6575 C   0  0  0  0  0  0  0  0  0  0  0  0
   17.1032   72.1873   -5.0011 O   0  0  0  0  0  0  0  0  0  0  0  0
   16.3066   70.4380   -2.6998 O   0  0  0  0  0  0  0  0  0  0  0  0
   17.4613   68.6662   -4.4214 O   0  0  0  0  0  0  0  0  0  0  0  0
   17.6110   70.7536   -3.1839 C   0  0  1  0  0  0  0  0  0  0  0  0
   17.8858   70.0129   -4.4759 C   0  0  2  0  0  0  0  0  0  0  0  0
   17.6015   72.2056   -3.6455 C   0  0  1  0  0  0  0  0  0  0  0  0
   17.0986   70.8337   -5.4833 C   0  0  2  0  0  0  0  0  0  0  0  0
   16.2881   69.5154   -2.3989 H   0  0  0  0  0  0  0  0  0  0  0  0
   17.9919   68.1860   -3.7668 H   0  0  0  0  0  0  0  0  0  0  0  0
   15.6806   70.2481   -7.8548 O   0  0  0  0  0  0  0  0  0  0  0  0
   19.4557   70.7443  -10.4518 O   0  0  0  0  0  0  0  0  0  0  0  0
   17.6860   70.8033   -6.7930 N   0  0  0  0  0  0  0  0  0  0  0  0
   17.5614   70.4959   -9.1460 N   0  0  0  0  0  0  0  0  0  0  0  0
   16.8862   70.4972   -7.9187 C   0  0  0  0  0  0  0  0  0  0  0  0
   19.0405   71.0753   -6.9516 C   0  0  0  0  0  0  0  0  0  0  0  0
   19.6695   71.0687   -8.1287 C   0  0  0  0  0  0  0  0  0  0  0  0
   18.9061   70.7585   -9.3547 C   0  0  0  0  0  0  0  0  0  0  0  0
   17.0245   70.2849   -9.9441 H   0  0  0  0  0  0  0  0  0  0  0  0
   21.6665   72.8826   -4.1951 O   0  0  0  0  0  0  0  0  0  0  0  0
   23.0586   73.1220   -4.9809 P   0  0  2  0  0  0  0  0  0  0  0  0
   22.8946   72.2155   -6.3109 O   0  0  0  0  0  0  0  0  0  0  0  0
   24.2839   72.8150   -4.1695 O   0  0  0  0  0  0  0  0  0  0  0  0
   22.9717   74.6438   -5.5116 O   0  0  0  0  0  0  0  0  0  0  0  0
   21.1301   76.0938   -5.8612 O   0  0  0  0  0  0  0  0  0  0  0  0
   23.4022   77.1064   -9.1572 O   0  0  0  0  0  0  0  0  0  0  0  0
   23.1903   78.9457   -6.9618 O   0  0  0  0  0  0  0  0  0  0  0  0
   23.2701   74.3489   -8.2863 O   0  0  0  0  0  0  0  0  0  0  0  0
   23.1775   76.7066   -7.8025 C   0  0  1  0  0  0  0  0  0  0  0  0
   22.3590   77.7980   -7.1099 C   0  0  1  0  0  0  0  0  0  0  0  0
   22.4212   75.3794   -7.7927 C   0  0  2  0  0  0  0  0  0  0  0  0
   21.8518   77.3253   -5.7409 C   0  0  1  0  0  0  0  0  0  0  0  0
   21.9182   75.0264   -6.3918 C   0  0  1  0  0  0  0  0  0  0  0  0
   23.8825   77.9482   -9.1705 H   0  0  0  0  0  0  0  0  0  0  0  0
   23.5043   79.2337   -7.8334 H   0  0  0  0  0  0  0  0  0  0  0  0
   23.5817   74.5841   -9.1737 H   0  0  0  0  0  0  0  0  0  0  0  0
   21.6543   79.1779   -4.2449 O   0  0  0  0  0  0  0  0  0  0  0  0
   20.9034   78.3374   -5.1017 C   0  0  0  0  0  0  0  0  0  0  0  0
   21.0637   79.8274   -3.8313 H   0  0  0  0  0  0  0  0  0  0  0  0
 25 28  1  0
 25 24  1  0
 25 26  1  6
 25 27  2  0
  1  4  1  0
  1 24  1  0
  1  2  1  1
  1  3  2  0
  6 11  1  0
  6 12  1  0
 29 36  1  0
 29 37  1  0
  9  7  1  6
  7 13  1  0
 10  8  1  1
  8 14  1  0
 37 28  1  1
  4  5  1  0
 33 30  1  6
 30 38  1  0
 34 31  1  1
 31 39  1  0
 35 32  1  1
 32 40  1  0
 41 42  1  0
 41 43  1  0
 15 19  2  0
 16 22  2  0
 12 17  1  6
 17 19  1  0
 17 20  1  0
 18 19  1  0
 18 22  1  0
 18 23  1  0
  9 10  1  0
  9 11  1  0
 10 12  1  0
 11  5  1  6
 33 34  1  0
 33 35  1  0
 34 36  1  0
 35 37  1  0
 36 42  1  6
 20 21  2  0
 21 22  1  0
M  CHG  2   2  -1  26  -1
M  END
>  <COMPND>  (24) 
    8629 

>  <AUTHOR>  (24) 
    GENERATED BY OPEN BABEL 3.1.1

>  <MASTER>  (24) 
        0    0    0    0    0    0    0    0   58    0   58    0

>  <minimizedAffinity>  (24) 
-6.32269

>  <CNNscore>  (24) 
0.8493705988

>  <CNNaffinity>  (24) 
4.6403279305

>  <CNN_VS>  (24) 
3.9413580894

>  <CNNaffinity_variance>  (24) 
0.0381246060

$$$$
25
     RDKit          3D

 43 45  0  0  0  0  0  0  0  0999 V2000
   21.8125   72.5585   -5.4224 P   0  0  2  0  0  0  0  0  0  0  0  0
   21.1510   74.0170   -5.1931 O   0  0  0  0  0  0  0  0  0  0  0  0
   23.1067   72.5619   -6.1818 O   0  0  0  0  0  0  0  0  0  0  0  0
   20.6161   71.6879   -6.0770 O   0  0  0  0  0  0  0  0  0  0  0  0
   20.1887   72.0060   -7.3900 C   0  0  0  0  0  0  0  0  0  0  0  0
   18.9642   69.9861   -6.9491 O   0  0  0  0  0  0  0  0  0  0  0  0
   18.2270   70.0204   -9.8554 O   0  0  0  0  0  0  0  0  0  0  0  0
   15.9797   70.9994   -8.6606 O   0  0  0  0  0  0  0  0  0  0  0  0
   18.3906   71.1133   -8.9532 C   0  0  1  0  0  0  0  0  0  0  0  0
   17.2150   71.1901   -8.0015 C   0  0  2  0  0  0  0  0  0  0  0  0
   19.5404   70.7766   -8.0118 C   0  0  1  0  0  0  0  0  0  0  0  0
   17.5317   70.0754   -7.0190 C   0  0  2  0  0  0  0  0  0  0  0  0
   17.4983   70.2125  -10.4669 H   0  0  0  0  0  0  0  0  0  0  0  0
   15.8237   71.7340   -9.2743 H   0  0  0  0  0  0  0  0  0  0  0  0
   16.3045   68.1416   -5.3660 O   0  0  0  0  0  0  0  0  0  0  0  0
   15.5909   71.2064   -1.9986 O   0  0  0  0  0  0  0  0  0  0  0  0
   17.0164   70.3405   -5.7053 N   0  0  0  0  0  0  0  0  0  0  0  0
   15.9503   69.6692   -3.6906 N   0  0  0  0  0  0  0  0  0  0  0  0
   16.4179   69.2994   -4.9581 C   0  0  0  0  0  0  0  0  0  0  0  0
   17.1075   71.6210   -5.1706 C   0  0  0  0  0  0  0  0  0  0  0  0
   16.6556   71.9576   -3.9608 C   0  0  0  0  0  0  0  0  0  0  0  0
   16.0166   70.9284   -3.1155 C   0  0  0  0  0  0  0  0  0  0  0  0
   15.5292   68.9603   -3.1521 H   0  0  0  0  0  0  0  0  0  0  0  0
   21.9144   71.9656   -3.9221 O   0  0  0  0  0  0  0  0  0  0  0  0
   23.1057   72.0355   -2.8317 P   0  0  2  0  0  0  0  0  0  0  0  0
   23.6686   73.5437   -2.9933 O   0  0  0  0  0  0  0  0  0  0  0  0
   24.1471   70.9657   -2.9887 O   0  0  0  0  0  0  0  0  0  0  0  0
   22.3532   72.0321   -1.4038 O   0  0  0  0  0  0  0  0  0  0  0  0
   24.0585   72.1540    0.2374 O   0  0  0  0  0  0  0  0  0  0  0  0
   20.7656   71.9540    2.7209 O   0  0  0  0  0  0  0  0  0  0  0  0
   22.1902   74.4332    2.4518 O   0  0  0  0  0  0  0  0  0  0  0  0
   20.8375   70.3854    0.2891 O   0  0  0  0  0  0  0  0  0  0  0  0
   21.4922   72.3314    1.5483 C   0  0  1  0  0  0  0  0  0  0  0  0
   22.6872   73.1845    1.9784 C   0  0  1  0  0  0  0  0  0  0  0  0
   21.9637   71.0708    0.8260 C   0  0  2  0  0  0  0  0  0  0  0  0
   23.6596   73.4041    0.8117 C   0  0  1  0  0  0  0  0  0  0  0  0
   22.9646   71.3968   -0.2841 C   0  0  1  0  0  0  0  0  0  0  0  0
   20.4629   72.7499    3.1840 H   0  0  0  0  0  0  0  0  0  0  0  0
   21.5771   74.2804    3.1880 H   0  0  0  0  0  0  0  0  0  0  0  0
   20.2116   70.1844    1.0017 H   0  0  0  0  0  0  0  0  0  0  0  0
   25.1034   73.9115    2.6466 O   0  0  0  0  0  0  0  0  0  0  0  0
   24.9344   74.1177    1.2562 C   0  0  0  0  0  0  0  0  0  0  0  0
   25.9111   74.3598    2.9436 H   0  0  0  0  0  0  0  0  0  0  0  0
 25 28  1  0
 25 24  1  0
 25 26  1  6
 25 27  2  0
  1  4  1  0
  1 24  1  0
  1  2  1  1
  1  3  2  0
  6 11  1  0
  6 12  1  0
 29 36  1  0
 29 37  1  0
  9  7  1  6
  7 13  1  0
 10  8  1  6
  8 14  1  0
 37 28  1  6
  4  5  1  0
 33 30  1  1
 30 38  1  0
 34 31  1  6
 31 39  1  0
 35 32  1  6
 32 40  1  0
 41 42  1  0
 41 43  1  0
 15 19  2  0
 16 22  2  0
 12 17  1  1
 17 19  1  0
 17 20  1  0
 18 19  1  0
 18 22  1  0
 18 23  1  0
  9 10  1  0
  9 11  1  0
 10 12  1  0
 11  5  1  1
 33 34  1  0
 33 35  1  0
 34 36  1  0
 35 37  1  0
 36 42  1  1
 20 21  2  0
 21 22  1  0
M  CHG  2   2  -1  26  -1
M  END
>  <COMPND>  (25) 
    8629 

>  <AUTHOR>  (25) 
    GENERATED BY OPEN BABEL 3.1.1

>  <MASTER>  (25) 
        0    0    0    0    0    0    0    0   58    0   58    0

>  <minimizedAffinity>  (25) 
-7.97659

>  <CNNscore>  (25) 
0.8489937782

>  <CNNaffinity>  (25) 
4.6559681892

>  <CNN_VS>  (25) 
3.9528880119

>  <CNNaffinity_variance>  (25) 
0.1874827147

$$$$
26
     RDKit          3D

 43 45  0  0  0  0  0  0  0  0999 V2000
   22.4423   72.0154   -3.6506 P   0  0  2  0  0  0  0  0  0  0  0  0
   23.4692   72.5209   -4.7940 O   0  0  0  0  0  0  0  0  0  0  0  0
   23.0701   71.2279   -2.5383 O   0  0  0  0  0  0  0  0  0  0  0  0
   21.2801   71.2552   -4.4808 O   0  0  0  0  0  0  0  0  0  0  0  0
   20.4583   70.3254   -3.7966 C   0  0  0  0  0  0  0  0  0  0  0  0
   18.7226   71.5948   -4.8689 O   0  0  0  0  0  0  0  0  0  0  0  0
   16.8809   70.4917   -2.7755 O   0  0  0  0  0  0  0  0  0  0  0  0
   16.3249   68.9285   -4.9397 O   0  0  0  0  0  0  0  0  0  0  0  0
   17.9835   69.8644   -3.4283 C   0  0  1  0  0  0  0  0  0  0  0  0
   17.6142   69.5001   -4.8511 C   0  0  2  0  0  0  0  0  0  0  0  0
   19.0643   70.9172   -3.6398 C   0  0  1  0  0  0  0  0  0  0  0  0
   17.7079   70.8433   -5.5548 C   0  0  2  0  0  0  0  0  0  0  0  0
   16.1778   69.8388   -2.6293 H   0  0  0  0  0  0  0  0  0  0  0  0
   16.3165   68.0760   -4.4773 H   0  0  0  0  0  0  0  0  0  0  0  0
   15.9113   70.1836   -7.6321 O   0  0  0  0  0  0  0  0  0  0  0  0
   19.2379   70.3709  -10.8165 O   0  0  0  0  0  0  0  0  0  0  0  0
   18.0775   70.7134   -6.9360 N   0  0  0  0  0  0  0  0  0  0  0  0
   17.5691   70.2776   -9.2160 N   0  0  0  0  0  0  0  0  0  0  0  0
   17.0988   70.3776   -7.9004 C   0  0  0  0  0  0  0  0  0  0  0  0
   19.3975   70.9185   -7.3225 C   0  0  0  0  0  0  0  0  0  0  0  0
   19.8301   70.8181   -8.5811 C   0  0  0  0  0  0  0  0  0  0  0  0
   18.8711   70.4709   -9.6497 C   0  0  0  0  0  0  0  0  0  0  0  0
   16.9052   70.0443   -9.9049 H   0  0  0  0  0  0  0  0  0  0  0  0
   21.7188   73.3827   -3.1816 O   0  0  0  0  0  0  0  0  0  0  0  0
   22.2661   74.6277   -2.3079 P   0  0  2  0  0  0  0  0  0  0  0  0
   21.2737   75.8364   -2.7219 O   0  0  0  0  0  0  0  0  0  0  0  0
   23.7236   74.9267   -2.5086 O   0  0  0  0  0  0  0  0  0  0  0  0
   21.8601   74.2695   -0.7874 O   0  0  0  0  0  0  0  0  0  0  0  0
   21.3460   72.2120    0.2704 O   0  0  0  0  0  0  0  0  0  0  0  0
   18.5507   74.6223    2.1218 O   0  0  0  0  0  0  0  0  0  0  0  0
   20.8320   73.7009    3.6032 O   0  0  0  0  0  0  0  0  0  0  0  0
   19.1532   75.0024   -0.6839 O   0  0  0  0  0  0  0  0  0  0  0  0
   19.8137   74.3117    1.5270 C   0  0  1  0  0  0  0  0  0  0  0  0
   20.4571   73.1802    2.3310 C   0  0  1  0  0  0  0  0  0  0  0  0
   19.5909   73.8825    0.0780 C   0  0  2  0  0  0  0  0  0  0  0  0
   21.6832   72.6117    1.6039 C   0  0  1  0  0  0  0  0  0  0  0  0
   20.8591   73.2866   -0.5358 C   0  0  1  0  0  0  0  0  0  0  0  0
   18.6851   74.8960    3.0418 H   0  0  0  0  0  0  0  0  0  0  0  0
   20.0489   74.0571    4.0517 H   0  0  0  0  0  0  0  0  0  0  0  0
   18.3497   75.3704   -0.2853 H   0  0  0  0  0  0  0  0  0  0  0  0
   22.8840   70.5622    1.3459 O   0  0  0  0  0  0  0  0  0  0  0  0
   22.2467   71.3803    2.3097 C   0  0  0  0  0  0  0  0  0  0  0  0
   23.2477   69.7747    1.7809 H   0  0  0  0  0  0  0  0  0  0  0  0
 25 28  1  0
 25 24  1  0
 25 26  1  6
 25 27  2  0
  1  4  1  0
  1 24  1  0
  1  2  1  6
  1  3  2  0
  6 11  1  0
  6 12  1  0
 29 36  1  0
 29 37  1  0
  9  7  1  6
  7 13  1  0
 10  8  1  1
  8 14  1  0
 37 28  1  1
  4  5  1  0
 33 30  1  1
 30 38  1  0
 34 31  1  1
 31 39  1  0
 35 32  1  6
 32 40  1  0
 41 42  1  0
 41 43  1  0
 15 19  2  0
 16 22  2  0
 12 17  1  6
 17 19  1  0
 17 20  1  0
 18 19  1  0
 18 22  1  0
 18 23  1  0
  9 10  1  0
  9 11  1  0
 10 12  1  0
 11  5  1  6
 33 34  1  0
 33 35  1  0
 34 36  1  0
 35 37  1  0
 36 42  1  1
 20 21  2  0
 21 22  1  0
M  CHG  2   2  -1  26  -1
M  END
>  <COMPND>  (26) 
    8629 

>  <AUTHOR>  (26) 
    GENERATED BY OPEN BABEL 3.1.1

>  <MASTER>  (26) 
        0    0    0    0    0    0    0    0   58    0   58    0

>  <minimizedAffinity>  (26) 
-6.78207

>  <CNNscore>  (26) 
0.8470242023

>  <CNNaffinity>  (26) 
4.5978837013

>  <CNN_VS>  (26) 
3.8945188522

>  <CNNaffinity_variance>  (26) 
0.0109943766

$$$$
27
     RDKit          3D

 43 45  0  0  0  0  0  0  0  0999 V2000
   20.5562   72.5938   -1.6748 P   0  0  2  0  0  0  0  0  0  0  0  0
   19.3820   72.9505   -0.6205 O   0  0  0  0  0  0  0  0  0  0  0  0
   20.6771   73.5403   -2.8328 O   0  0  0  0  0  0  0  0  0  0  0  0
   20.2773   71.0468   -2.0580 O   0  0  0  0  0  0  0  0  0  0  0  0
   19.7571   70.7516   -3.3425 C   0  0  0  0  0  0  0  0  0  0  0  0
   17.9742   71.7266   -4.6248 O   0  0  0  0  0  0  0  0  0  0  0  0
   16.1066   70.2622   -2.7922 O   0  0  0  0  0  0  0  0  0  0  0  0
   16.1144   68.6852   -5.0170 O   0  0  0  0  0  0  0  0  0  0  0  0
   17.3764   69.8553   -3.2995 C   0  0  1  0  0  0  0  0  0  0  0  0
   17.2605   69.4707   -4.7597 C   0  0  2  0  0  0  0  0  0  0  0  0
   18.2719   71.0862   -3.3649 C   0  0  1  0  0  0  0  0  0  0  0  0
   17.2035   70.8282   -5.4395 C   0  0  2  0  0  0  0  0  0  0  0  0
   15.5173   69.4927   -2.7411 H   0  0  0  0  0  0  0  0  0  0  0  0
   16.1984   67.8321   -4.5632 H   0  0  0  0  0  0  0  0  0  0  0  0
   15.7575   70.1516   -7.7696 O   0  0  0  0  0  0  0  0  0  0  0  0
   19.4500   70.7616  -10.4593 O   0  0  0  0  0  0  0  0  0  0  0  0
   17.7620   70.8024   -6.7619 N   0  0  0  0  0  0  0  0  0  0  0  0
   17.5972   70.4560   -9.1070 N   0  0  0  0  0  0  0  0  0  0  0  0
   16.9503   70.4481   -7.8646 C   0  0  0  0  0  0  0  0  0  0  0  0
   19.1005   71.1265   -6.9553 C   0  0  0  0  0  0  0  0  0  0  0  0
   19.7026   71.1281   -8.1463 C   0  0  0  0  0  0  0  0  0  0  0  0
   18.9251   70.7695   -9.3501 C   0  0  0  0  0  0  0  0  0  0  0  0
   17.0516   70.2121   -9.8896 H   0  0  0  0  0  0  0  0  0  0  0  0
   21.8708   72.5050   -0.7385 O   0  0  0  0  0  0  0  0  0  0  0  0
   22.2532   71.4910    0.4610 P   0  0  2  0  0  0  0  0  0  0  0  0
   23.6419   70.8298   -0.0407 O   0  0  0  0  0  0  0  0  0  0  0  0
   21.1782   70.4969    0.7926 O   0  0  0  0  0  0  0  0  0  0  0  0
   22.6781   72.4506    1.6872 O   0  0  0  0  0  0  0  0  0  0  0  0
   22.3103   72.2832    4.0224 O   0  0  0  0  0  0  0  0  0  0  0  0
   21.7772   76.3517    3.5606 O   0  0  0  0  0  0  0  0  0  0  0  0
   24.1509   75.3695    4.8446 O   0  0  0  0  0  0  0  0  0  0  0  0
   20.7977   74.5282    1.5370 O   0  0  0  0  0  0  0  0  0  0  0  0
   22.3599   75.0747    3.2869 C   0  0  1  0  0  0  0  0  0  0  0  0
   23.0109   74.5593    4.5720 C   0  0  1  0  0  0  0  0  0  0  0  0
   21.2663   74.1174    2.8169 C   0  0  2  0  0  0  0  0  0  0  0  0
   23.4223   73.0874    4.4328 C   0  0  1  0  0  0  0  0  0  0  0  0
   21.7664   72.6728    2.7598 C   0  0  1  0  0  0  0  0  0  0  0  0
   22.4664   76.9645    3.8590 H   0  0  0  0  0  0  0  0  0  0  0  0
   23.8774   76.2964    4.9297 H   0  0  0  0  0  0  0  0  0  0  0  0
   20.4836   75.4440    1.5865 H   0  0  0  0  0  0  0  0  0  0  0  0
   23.4453   71.1834    5.8761 O   0  0  0  0  0  0  0  0  0  0  0  0
   23.9292   72.5081    5.7517 C   0  0  0  0  0  0  0  0  0  0  0  0
   23.7603   70.8019    6.7110 H   0  0  0  0  0  0  0  0  0  0  0  0
 25 28  1  0
 25 24  1  0
 25 26  1  6
 25 27  2  0
  1  4  1  0
  1 24  1  0
  1  2  1  1
  1  3  2  0
  6 11  1  0
  6 12  1  0
 29 36  1  0
 29 37  1  0
  9  7  1  6
  7 13  1  0
 10  8  1  1
  8 14  1  0
 37 28  1  6
  4  5  1  0
 33 30  1  1
 30 38  1  0
 34 31  1  6
 31 39  1  0
 35 32  1  6
 32 40  1  0
 41 42  1  0
 41 43  1  0
 15 19  2  0
 16 22  2  0
 12 17  1  6
 17 19  1  0
 17 20  1  0
 18 19  1  0
 18 22  1  0
 18 23  1  0
  9 10  1  0
  9 11  1  0
 10 12  1  0
 11  5  1  6
 33 34  1  0
 33 35  1  0
 34 36  1  0
 35 37  1  0
 36 42  1  1
 20 21  2  0
 21 22  1  0
M  CHG  2   2  -1  26  -1
M  END
>  <COMPND>  (27) 
    8629 

>  <AUTHOR>  (27) 
    GENERATED BY OPEN BABEL 3.1.1

>  <MASTER>  (27) 
        0    0    0    0    0    0    0    0   58    0   58    0

>  <minimizedAffinity>  (27) 
-7.04944

>  <CNNscore>  (27) 
0.8418982029

>  <CNNaffinity>  (27) 
4.4523649216

>  <CNN_VS>  (27) 
3.7484381199

>  <CNNaffinity_variance>  (27) 
0.0421908423

$$$$
28
     RDKit          3D

 43 45  0  0  0  0  0  0  0  0999 V2000
   23.0690   71.6543   -2.4177 P   0  0  2  0  0  0  0  0  0  0  0  0
   22.6784   73.1159   -2.9909 O   0  0  0  0  0  0  0  0  0  0  0  0
   24.2288   70.9938   -3.1033 O   0  0  0  0  0  0  0  0  0  0  0  0
   21.6731   70.8370   -2.4540 O   0  0  0  0  0  0  0  0  0  0  0  0
   20.9511   70.7858   -3.6722 C   0  0  0  0  0  0  0  0  0  0  0  0
   18.9418   71.7249   -4.5966 O   0  0  0  0  0  0  0  0  0  0  0  0
   17.4940   70.3550   -2.3565 O   0  0  0  0  0  0  0  0  0  0  0  0
   17.0380   68.6882   -4.4662 O   0  0  0  0  0  0  0  0  0  0  0  0
   18.6303   69.9153   -3.0986 C   0  0  1  0  0  0  0  0  0  0  0  0
   18.2133   69.4724   -4.4856 C   0  0  2  0  0  0  0  0  0  0  0  0
   19.4941   71.1337   -3.4000 C   0  0  1  0  0  0  0  0  0  0  0  0
   18.0178   70.8015   -5.1952 C   0  0  2  0  0  0  0  0  0  0  0  0
   16.9274   69.5940   -2.1519 H   0  0  0  0  0  0  0  0  0  0  0  0
   17.2135   67.8536   -4.0042 H   0  0  0  0  0  0  0  0  0  0  0  0
   16.1329   69.9958   -7.1384 O   0  0  0  0  0  0  0  0  0  0  0  0
   19.1722   70.5102  -10.5647 O   0  0  0  0  0  0  0  0  0  0  0  0
   18.2895   70.7162   -6.6024 N   0  0  0  0  0  0  0  0  0  0  0  0
   17.6477   70.2527   -8.8429 N   0  0  0  0  0  0  0  0  0  0  0  0
   17.2736   70.2994   -7.4939 C   0  0  0  0  0  0  0  0  0  0  0  0
   19.5516   71.0440   -7.0856 C   0  0  0  0  0  0  0  0  0  0  0  0
   19.8927   70.9930   -8.3749 C   0  0  0  0  0  0  0  0  0  0  0  0
   18.8893   70.5675   -9.3720 C   0  0  0  0  0  0  0  0  0  0  0  0
   16.9563   69.9648   -9.4823 H   0  0  0  0  0  0  0  0  0  0  0  0
   23.2880   71.9294   -0.8399 O   0  0  0  0  0  0  0  0  0  0  0  0
   23.3973   73.3112   -0.0084 P   0  0  2  0  0  0  0  0  0  0  0  0
   21.8637   73.8212    0.0670 O   0  0  0  0  0  0  0  0  0  0  0  0
   24.3534   74.3087   -0.5955 O   0  0  0  0  0  0  0  0  0  0  0  0
   23.7495   72.8542    1.4990 O   0  0  0  0  0  0  0  0  0  0  0  0
   23.8894   70.7174    2.5144 O   0  0  0  0  0  0  0  0  0  0  0  0
   22.1113   72.8011    5.6043 O   0  0  0  0  0  0  0  0  0  0  0  0
   24.8646   72.0144    5.8244 O   0  0  0  0  0  0  0  0  0  0  0  0
   21.3494   73.3499    2.8661 O   0  0  0  0  0  0  0  0  0  0  0  0
   22.9808   72.6243    4.4826 C   0  0  1  0  0  0  0  0  0  0  0  0
   23.9821   71.5183    4.8217 C   0  0  1  0  0  0  0  0  0  0  0  0
   22.1480   72.2397    3.2612 C   0  0  2  0  0  0  0  0  0  0  0  0
   24.7731   71.0873    3.5793 C   0  0  1  0  0  0  0  0  0  0  0  0
   23.0295   71.7802    2.0985 C   0  0  1  0  0  0  0  0  0  0  0  0
   22.6338   73.0459    6.3831 H   0  0  0  0  0  0  0  0  0  0  0  0
   24.3525   72.2835    6.6031 H   0  0  0  0  0  0  0  0  0  0  0  0
   20.7958   73.6311    3.6106 H   0  0  0  0  0  0  0  0  0  0  0  0
   26.8455   70.3301    4.4964 O   0  0  0  0  0  0  0  0  0  0  0  0
   25.6643   69.8792    3.8594 C   0  0  0  0  0  0  0  0  0  0  0  0
   27.4222   69.5718    4.6810 H   0  0  0  0  0  0  0  0  0  0  0  0
 25 28  1  0
 25 24  1  0
 25 26  1  1
 25 27  2  0
  1  4  1  0
  1 24  1  0
  1  2  1  6
  1  3  2  0
  6 11  1  0
  6 12  1  0
 29 36  1  0
 29 37  1  0
  9  7  1  1
  7 13  1  0
 10  8  1  1
  8 14  1  0
 37 28  1  1
  4  5  1  0
 33 30  1  1
 30 38  1  0
 34 31  1  1
 31 39  1  0
 35 32  1  6
 32 40  1  0
 41 42  1  0
 41 43  1  0
 15 19  2  0
 16 22  2  0
 12 17  1  6
 17 19  1  0
 17 20  1  0
 18 19  1  0
 18 22  1  0
 18 23  1  0
  9 10  1  0
  9 11  1  0
 10 12  1  0
 11  5  1  6
 33 34  1  0
 33 35  1  0
 34 36  1  0
 35 37  1  0
 36 42  1  1
 20 21  2  0
 21 22  1  0
M  CHG  2   2  -1  26  -1
M  END
>  <COMPND>  (28) 
    8629 

>  <AUTHOR>  (28) 
    GENERATED BY OPEN BABEL 3.1.1

>  <MASTER>  (28) 
        0    0    0    0    0    0    0    0   58    0   58    0

>  <minimizedAffinity>  (28) 
-8.15887

>  <CNNscore>  (28) 
0.7932898402

>  <CNNaffinity>  (28) 
4.5417699814

>  <CNN_VS>  (28) 
3.6029400826

>  <CNNaffinity_variance>  (28) 
0.0375937186

$$$$
29
     RDKit          3D

 43 45  0  0  0  0  0  0  0  0999 V2000
   20.0457   72.3505   -0.9454 P   0  0  2  0  0  0  0  0  0  0  0  0
   19.9608   70.7607   -1.2333 O   0  0  0  0  0  0  0  0  0  0  0  0
   18.7346   73.0083   -0.6297 O   0  0  0  0  0  0  0  0  0  0  0  0
   20.8342   72.9364   -2.2310 O   0  0  0  0  0  0  0  0  0  0  0  0
   20.2904   72.7082   -3.5195 C   0  0  0  0  0  0  0  0  0  0  0  0
   20.7032   70.9894   -5.1471 O   0  0  0  0  0  0  0  0  0  0  0  0
   23.2375   72.4605   -5.7827 O   0  0  0  0  0  0  0  0  0  0  0  0
   21.5817   73.2256   -7.8099 O   0  0  0  0  0  0  0  0  0  0  0  0
   21.9592   72.9802   -5.4206 C   0  0  1  0  0  0  0  0  0  0  0  0
   20.9930   72.8547   -6.5801 C   0  0  2  0  0  0  0  0  0  0  0  0
   21.3447   72.0399   -4.3913 C   0  0  1  0  0  0  0  0  0  0  0  0
   20.6276   71.3810   -6.5276 C   0  0  2  0  0  0  0  0  0  0  0  0
   23.6497   73.0445   -6.4391 H   0  0  0  0  0  0  0  0  0  0  0  0
   21.7959   74.1714   -7.7938 H   0  0  0  0  0  0  0  0  0  0  0  0
   19.9566   71.0639   -9.2529 O   0  0  0  0  0  0  0  0  0  0  0  0
   15.5007   70.4167   -8.2694 O   0  0  0  0  0  0  0  0  0  0  0  0
   19.2998   71.1283   -7.0120 N   0  0  0  0  0  0  0  0  0  0  0  0
   17.7384   70.7417   -8.7610 N   0  0  0  0  0  0  0  0  0  0  0  0
   19.0697   70.9860   -8.4002 C   0  0  0  0  0  0  0  0  0  0  0  0
   18.2429   71.0238   -6.1143 C   0  0  0  0  0  0  0  0  0  0  0  0
   16.9789   70.7919   -6.4746 C   0  0  0  0  0  0  0  0  0  0  0  0
   16.6531   70.6307   -7.9063 C   0  0  0  0  0  0  0  0  0  0  0  0
   17.5542   70.6394   -9.7229 H   0  0  0  0  0  0  0  0  0  0  0  0
   21.1483   72.4482    0.2326 O   0  0  0  0  0  0  0  0  0  0  0  0
   22.2596   71.3882    0.7371 P   0  0  2  0  0  0  0  0  0  0  0  0
   23.2148   71.2084   -0.5562 O   0  0  0  0  0  0  0  0  0  0  0  0
   21.6895   70.1053    1.2690 O   0  0  0  0  0  0  0  0  0  0  0  0
   23.1577   72.2109    1.7960 O   0  0  0  0  0  0  0  0  0  0  0  0
   23.8802   70.9204    3.6479 O   0  0  0  0  0  0  0  0  0  0  0  0
   24.8139   74.6855    5.0631 O   0  0  0  0  0  0  0  0  0  0  0  0
   26.9220   72.9156    4.2438 O   0  0  0  0  0  0  0  0  0  0  0  0
   22.3912   74.2782    3.5321 O   0  0  0  0  0  0  0  0  0  0  0  0
   24.6585   73.6685    4.0696 C   0  0  1  0  0  0  0  0  0  0  0  0
   25.5732   72.4977    4.4347 C   0  0  1  0  0  0  0  0  0  0  0  0
   23.1984   73.2205    4.0381 C   0  0  2  0  0  0  0  0  0  0  0  0
   25.2681   71.2662    3.5713 C   0  0  1  0  0  0  0  0  0  0  0  0
   23.0126   71.9600    3.1915 C   0  0  1  0  0  0  0  0  0  0  0  0
   25.7387   74.9747    5.0879 H   0  0  0  0  0  0  0  0  0  0  0  0
   27.1016   73.6942    4.7941 H   0  0  0  0  0  0  0  0  0  0  0  0
   22.5175   75.0702    4.0767 H   0  0  0  0  0  0  0  0  0  0  0  0
   27.3277   70.0677    3.3963 O   0  0  0  0  0  0  0  0  0  0  0  0
   26.0588   70.0405    4.0236 C   0  0  0  0  0  0  0  0  0  0  0  0
   27.8422   69.2936    3.6751 H   0  0  0  0  0  0  0  0  0  0  0  0
 25 28  1  0
 25 24  1  0
 25 26  1  6
 25 27  2  0
  1  4  1  0
  1 24  1  0
  1  2  1  6
  1  3  2  0
  6 11  1  0
  6 12  1  0
 29 36  1  0
 29 37  1  0
  9  7  1  6
  7 13  1  0
 10  8  1  6
  8 14  1  0
 37 28  1  6
  4  5  1  0
 33 30  1  1
 30 38  1  0
 34 31  1  6
 31 39  1  0
 35 32  1  6
 32 40  1  0
 41 42  1  0
 41 43  1  0
 15 19  2  0
 16 22  2  0
 12 17  1  1
 17 19  1  0
 17 20  1  0
 18 19  1  0
 18 22  1  0
 18 23  1  0
  9 10  1  0
  9 11  1  0
 10 12  1  0
 11  5  1  6
 33 34  1  0
 33 35  1  0
 34 36  1  0
 35 37  1  0
 36 42  1  1
 20 21  2  0
 21 22  1  0
M  CHG  2   2  -1  26  -1
M  END
>  <COMPND>  (29) 
    8629 

>  <AUTHOR>  (29) 
    GENERATED BY OPEN BABEL 3.1.1

>  <MASTER>  (29) 
        0    0    0    0    0    0    0    0   58    0   58    0

>  <minimizedAffinity>  (29) 
-7.35469

>  <CNNscore>  (29) 
0.7693948746

>  <CNNaffinity>  (29) 
4.3872213364

>  <CNN_VS>  (29) 
3.3755056858

>  <CNNaffinity_variance>  (29) 
0.0726371408

$$$$
30
     RDKit          3D

 43 45  0  0  0  0  0  0  0  0999 V2000
   21.5208   71.6660   -1.2373 P   0  0  2  0  0  0  0  0  0  0  0  0
   22.7537   70.9476   -1.9999 O   0  0  0  0  0  0  0  0  0  0  0  0
   20.4079   70.7473   -0.8265 O   0  0  0  0  0  0  0  0  0  0  0  0
   21.1039   72.8759   -2.2273 O   0  0  0  0  0  0  0  0  0  0  0  0
   20.4694   72.5579   -3.4537 C   0  0  0  0  0  0  0  0  0  0  0  0
   20.8609   70.9610   -5.2059 O   0  0  0  0  0  0  0  0  0  0  0  0
   23.3163   72.5551   -5.8546 O   0  0  0  0  0  0  0  0  0  0  0  0
   21.5465   73.3902   -7.7538 O   0  0  0  0  0  0  0  0  0  0  0  0
   22.0402   73.0068   -5.4042 C   0  0  1  0  0  0  0  0  0  0  0  0
   21.0264   72.9222   -6.5261 C   0  0  2  0  0  0  0  0  0  0  0  0
   21.5031   71.9827   -4.4122 C   0  0  1  0  0  0  0  0  0  0  0  0
   20.7101   71.4365   -6.5535 C   0  0  2  0  0  0  0  0  0  0  0  0
   23.6796   73.1933   -6.4891 H   0  0  0  0  0  0  0  0  0  0  0  0
   21.7315   74.3399   -7.6857 H   0  0  0  0  0  0  0  0  0  0  0  0
   19.9678   71.0369   -9.2493 O   0  0  0  0  0  0  0  0  0  0  0  0
   15.5395   70.4221   -8.1299 O   0  0  0  0  0  0  0  0  0  0  0  0
   19.3702   71.1698   -6.9949 N   0  0  0  0  0  0  0  0  0  0  0  0
   17.7635   70.7309   -8.6897 N   0  0  0  0  0  0  0  0  0  0  0  0
   19.1037   70.9854   -8.3717 C   0  0  0  0  0  0  0  0  0  0  0  0
   18.3372   71.0932   -6.0670 C   0  0  0  0  0  0  0  0  0  0  0  0
   17.0643   70.8511   -6.3868 C   0  0  0  0  0  0  0  0  0  0  0  0
   16.7010   70.6465   -7.8039 C   0  0  0  0  0  0  0  0  0  0  0  0
   17.5540   70.5995   -9.6430 H   0  0  0  0  0  0  0  0  0  0  0  0
   22.2474   72.4321   -0.0133 O   0  0  0  0  0  0  0  0  0  0  0  0
   21.7003   72.8576    1.4470 P   0  0  2  0  0  0  0  0  0  0  0  0
   20.7745   71.6023    1.8767 O   0  0  0  0  0  0  0  0  0  0  0  0
   20.9982   74.1842    1.4785 O   0  0  0  0  0  0  0  0  0  0  0  0
   22.9911   72.7609    2.4110 O   0  0  0  0  0  0  0  0  0  0  0  0
   25.2080   73.5966    2.3511 O   0  0  0  0  0  0  0  0  0  0  0  0
   25.9990   69.7095    3.4979 O   0  0  0  0  0  0  0  0  0  0  0  0
   26.2817   71.8364    5.4069 O   0  0  0  0  0  0  0  0  0  0  0  0
   23.9123   70.2486    1.5654 O   0  0  0  0  0  0  0  0  0  0  0  0
   25.2503   70.9270    3.4498 C   0  0  1  0  0  0  0  0  0  0  0  0
   26.1262   72.0510    4.0069 C   0  0  1  0  0  0  0  0  0  0  0  0
   24.8606   71.2166    2.0015 C   0  0  2  0  0  0  0  0  0  0  0  0
   25.4971   73.4258    3.7436 C   0  0  1  0  0  0  0  0  0  0  0  0
   24.2906   72.6271    1.8411 C   0  0  1  0  0  0  0  0  0  0  0  0
   26.2491   69.5196    4.4149 H   0  0  0  0  0  0  0  0  0  0  0  0
   26.6794   70.9647    5.5594 H   0  0  0  0  0  0  0  0  0  0  0  0
   24.2851   69.3601    1.6717 H   0  0  0  0  0  0  0  0  0  0  0  0
   26.2631   74.8091    5.5349 O   0  0  0  0  0  0  0  0  0  0  0  0
   26.4267   74.5673    4.1496 C   0  0  0  0  0  0  0  0  0  0  0  0
   26.8489   75.5331    5.8075 H   0  0  0  0  0  0  0  0  0  0  0  0
 25 28  1  0
 25 24  1  0
 25 26  1  1
 25 27  2  0
  1  4  1  0
  1 24  1  0
  1  2  1  6
  1  3  2  0
  6 11  1  0
  6 12  1  0
 29 36  1  0
 29 37  1  0
  9  7  1  6
  7 13  1  0
 10  8  1  6
  8 14  1  0
 37 28  1  1
  4  5  1  0
 33 30  1  6
 30 38  1  0
 34 31  1  1
 31 39  1  0
 35 32  1  1
 32 40  1  0
 41 42  1  0
 41 43  1  0
 15 19  2  0
 16 22  2  0
 12 17  1  1
 17 19  1  0
 17 20  1  0
 18 19  1  0
 18 22  1  0
 18 23  1  0
  9 10  1  0
  9 11  1  0
 10 12  1  0
 11  5  1  1
 33 34  1  0
 33 35  1  0
 34 36  1  0
 35 37  1  0
 36 42  1  6
 20 21  2  0
 21 22  1  0
M  CHG  2   2  -1  26  -1
M  END
>  <COMPND>  (30) 
    8629 

>  <AUTHOR>  (30) 
    GENERATED BY OPEN BABEL 3.1.1

>  <MASTER>  (30) 
        0    0    0    0    0    0    0    0   58    0   58    0

>  <minimizedAffinity>  (30) 
-7.15047

>  <CNNscore>  (30) 
0.7043686509

>  <CNNaffinity>  (30) 
4.3855223656

>  <CNN_VS>  (30) 
3.0890245438

>  <CNNaffinity_variance>  (30) 
0.1013847366

$$$$
31
     RDKit          3D

 43 45  0  0  0  0  0  0  0  0999 V2000
   20.2939   72.0656   -0.7643 P   0  0  2  0  0  0  0  0  0  0  0  0
   20.4669   70.5199   -0.3192 O   0  0  0  0  0  0  0  0  0  0  0  0
   18.8972   72.6033   -0.6575 O   0  0  0  0  0  0  0  0  0  0  0  0
   20.9577   72.1219   -2.2388 O   0  0  0  0  0  0  0  0  0  0  0  0
   20.3678   71.3570   -3.2755 C   0  0  0  0  0  0  0  0  0  0  0  0
   18.3039   71.9203   -4.3695 O   0  0  0  0  0  0  0  0  0  0  0  0
   16.9562   70.2423   -2.2818 O   0  0  0  0  0  0  0  0  0  0  0  0
   17.0140   68.5745   -4.4386 O   0  0  0  0  0  0  0  0  0  0  0  0
   18.2161   70.0462   -2.9219 C   0  0  1  0  0  0  0  0  0  0  0  0
   18.0142   69.5683   -4.3447 C   0  0  2  0  0  0  0  0  0  0  0  0
   18.8530   71.4141   -3.1332 C   0  0  1  0  0  0  0  0  0  0  0  0
   17.6300   70.8538   -5.0574 C   0  0  2  0  0  0  0  0  0  0  0  0
   16.5305   69.3823   -2.1360 H   0  0  0  0  0  0  0  0  0  0  0  0
   17.3055   67.7769   -3.9701 H   0  0  0  0  0  0  0  0  0  0  0  0
   15.8621   71.1609   -7.2387 O   0  0  0  0  0  0  0  0  0  0  0  0
   19.2941   70.8539  -10.2995 O   0  0  0  0  0  0  0  0  0  0  0  0
   18.0345   70.8583   -6.4349 N   0  0  0  0  0  0  0  0  0  0  0  0
   17.5725   71.0080   -8.7610 N   0  0  0  0  0  0  0  0  0  0  0  0
   17.0674   71.0184   -7.4545 C   0  0  0  0  0  0  0  0  0  0  0  0
   19.3772   70.7055   -6.7633 C   0  0  0  0  0  0  0  0  0  0  0  0
   19.8424   70.6965   -8.0143 C   0  0  0  0  0  0  0  0  0  0  0  0
   18.8976   70.8579   -9.1382 C   0  0  0  0  0  0  0  0  0  0  0  0
   16.9170   71.1175   -9.4877 H   0  0  0  0  0  0  0  0  0  0  0  0
   21.3818   72.8320    0.1534 O   0  0  0  0  0  0  0  0  0  0  0  0
   21.2762   73.4245    1.6537 P   0  0  2  0  0  0  0  0  0  0  0  0
   20.3519   72.3382    2.4174 O   0  0  0  0  0  0  0  0  0  0  0  0
   20.7626   74.8334    1.7242 O   0  0  0  0  0  0  0  0  0  0  0  0
   22.7496   73.2176    2.2792 O   0  0  0  0  0  0  0  0  0  0  0  0
   25.0266   73.4293    1.6571 O   0  0  0  0  0  0  0  0  0  0  0  0
   25.0678   69.5219    2.9919 O   0  0  0  0  0  0  0  0  0  0  0  0
   26.3140   71.5726    4.5699 O   0  0  0  0  0  0  0  0  0  0  0  0
   22.7880   70.5184    1.5124 O   0  0  0  0  0  0  0  0  0  0  0  0
   24.6575   70.8920    2.9844 C   0  0  1  0  0  0  0  0  0  0  0  0
   25.8922   71.7636    3.2223 C   0  0  1  0  0  0  0  0  0  0  0  0
   24.0232   71.2156    1.6330 C   0  0  2  0  0  0  0  0  0  0  0  0
   25.5830   73.2444    2.9640 C   0  0  1  0  0  0  0  0  0  0  0  0
   23.8026   72.7193    1.4582 C   0  0  1  0  0  0  0  0  0  0  0  0
   25.4710   69.3098    3.8474 H   0  0  0  0  0  0  0  0  0  0  0  0
   26.5055   70.6335    4.7199 H   0  0  0  0  0  0  0  0  0  0  0  0
   22.9411   69.5677    1.6247 H   0  0  0  0  0  0  0  0  0  0  0  0
   27.9720   73.2730    2.9365 O   0  0  0  0  0  0  0  0  0  0  0  0
   26.8369   74.1126    3.0419 C   0  0  0  0  0  0  0  0  0  0  0  0
   28.7776   73.8120    2.9842 H   0  0  0  0  0  0  0  0  0  0  0  0
 25 28  1  0
 25 24  1  0
 25 26  1  1
 25 27  2  0
  1  4  1  0
  1 24  1  0
  1  2  1  1
  1  3  2  0
  6 11  1  0
  6 12  1  0
 29 36  1  0
 29 37  1  0
  9  7  1  6
  7 13  1  0
 10  8  1  1
  8 14  1  0
 37 28  1  1
  4  5  1  0
 33 30  1  6
 30 38  1  0
 34 31  1  1
 31 39  1  0
 35 32  1  1
 32 40  1  0
 41 42  1  0
 41 43  1  0
 15 19  2  0
 16 22  2  0
 12 17  1  6
 17 19  1  0
 17 20  1  0
 18 19  1  0
 18 22  1  0
 18 23  1  0
  9 10  1  0
  9 11  1  0
 10 12  1  0
 11  5  1  6
 33 34  1  0
 33 35  1  0
 34 36  1  0
 35 37  1  0
 36 42  1  6
 20 21  2  0
 21 22  1  0
M  CHG  2   2  -1  26  -1
M  END
>  <COMPND>  (31) 
    8629 

>  <AUTHOR>  (31) 
    GENERATED BY OPEN BABEL 3.1.1

>  <MASTER>  (31) 
        0    0    0    0    0    0    0    0   58    0   58    0

>  <minimizedAffinity>  (31) 
-6.93247

>  <CNNscore>  (31) 
0.6896958947

>  <CNNaffinity>  (31) 
4.4472551346

>  <CNN_VS>  (31) 
3.0672535896

>  <CNNaffinity_variance>  (31) 
0.2021276951

$$$$
32
     RDKit          3D

 43 45  0  0  0  0  0  0  0  0999 V2000
   21.6078   73.6697   -4.7686 P   0  0  2  0  0  0  0  0  0  0  0  0
   20.7819   74.2038   -3.4841 O   0  0  0  0  0  0  0  0  0  0  0  0
   22.1210   74.7429   -5.6831 O   0  0  0  0  0  0  0  0  0  0  0  0
   20.6154   72.5855   -5.4451 O   0  0  0  0  0  0  0  0  0  0  0  0
   20.6614   72.4113   -6.8506 C   0  0  0  0  0  0  0  0  0  0  0  0
   19.4780   70.4516   -6.1207 O   0  0  0  0  0  0  0  0  0  0  0  0
   19.6788   69.5023   -8.9579 O   0  0  0  0  0  0  0  0  0  0  0  0
   17.1196   70.4342   -8.8227 O   0  0  0  0  0  0  0  0  0  0  0  0
   19.4916   70.8263   -8.4606 C   0  0  1  0  0  0  0  0  0  0  0  0
   18.0762   71.0013   -7.9510 C   0  0  2  0  0  0  0  0  0  0  0  0
   20.3095   70.9678   -7.1830 C   0  0  1  0  0  0  0  0  0  0  0  0
   18.1353   70.2938   -6.6078 C   0  0  2  0  0  0  0  0  0  0  0  0
   19.1662   69.3881   -9.7741 H   0  0  0  0  0  0  0  0  0  0  0  0
   17.1201   70.9187   -9.6629 H   0  0  0  0  0  0  0  0  0  0  0  0
   16.8784   68.8271   -4.5470 O   0  0  0  0  0  0  0  0  0  0  0  0
   14.6545   72.5556   -2.9999 O   0  0  0  0  0  0  0  0  0  0  0  0
   17.2234   70.8561   -5.6520 N   0  0  0  0  0  0  0  0  0  0  0  0
   15.7722   70.6848   -3.7782 N   0  0  0  0  0  0  0  0  0  0  0  0
   16.6461   70.0327   -4.6574 C   0  0  0  0  0  0  0  0  0  0  0  0
   16.9102   72.2099   -5.7064 C   0  0  0  0  0  0  0  0  0  0  0  0
   16.0739   72.8162   -4.8613 C   0  0  0  0  0  0  0  0  0  0  0  0
   15.4282   72.0272   -3.7924 C   0  0  0  0  0  0  0  0  0  0  0  0
   15.3578   70.1310   -3.0772 H   0  0  0  0  0  0  0  0  0  0  0  0
   22.7561   72.7462   -4.1042 O   0  0  0  0  0  0  0  0  0  0  0  0
   22.6586   71.5280   -3.0461 P   0  0  2  0  0  0  0  0  0  0  0  0
   24.1743   70.9652   -2.9875 O   0  0  0  0  0  0  0  0  0  0  0  0
   21.6269   70.4937   -3.3920 O   0  0  0  0  0  0  0  0  0  0  0  0
   22.4343   72.2448   -1.6175 O   0  0  0  0  0  0  0  0  0  0  0  0
   22.9547   74.4892   -1.0621 O   0  0  0  0  0  0  0  0  0  0  0  0
   23.5611   72.7386    2.6283 O   0  0  0  0  0  0  0  0  0  0  0  0
   21.2549   74.3976    2.2077 O   0  0  0  0  0  0  0  0  0  0  0  0
   24.3538   71.3420    0.2198 O   0  0  0  0  0  0  0  0  0  0  0  0
   22.9282   72.9148    1.3579 C   0  0  1  0  0  0  0  0  0  0  0  0
   22.3524   74.3311    1.3014 C   0  0  1  0  0  0  0  0  0  0  0  0
   23.9623   72.7102    0.2524 C   0  0  2  0  0  0  0  0  0  0  0  0
   21.8943   74.6865   -0.1195 C   0  0  1  0  0  0  0  0  0  0  0  0
   23.4220   73.1398   -1.1128 C   0  0  1  0  0  0  0  0  0  0  0  0
   22.9099   72.8667    3.3346 H   0  0  0  0  0  0  0  0  0  0  0  0
   21.5575   74.1706    3.1010 H   0  0  0  0  0  0  0  0  0  0  0  0
   24.6942   71.0824    1.0896 H   0  0  0  0  0  0  0  0  0  0  0  0
   21.3740   76.4843   -1.6049 O   0  0  0  0  0  0  0  0  0  0  0  0
   21.4628   76.1471   -0.2328 C   0  0  0  0  0  0  0  0  0  0  0  0
   21.1000   77.4111   -1.6924 H   0  0  0  0  0  0  0  0  0  0  0  0
 25 28  1  0
 25 24  1  0
 25 26  1  1
 25 27  2  0
  1  4  1  0
  1 24  1  0
  1  2  1  1
  1  3  2  0
  6 11  1  0
  6 12  1  0
 29 36  1  0
 29 37  1  0
  9  7  1  1
  7 13  1  0
 10  8  1  6
  8 14  1  0
 37 28  1  1
  4  5  1  0
 33 30  1  1
 30 38  1  0
 34 31  1  1
 31 39  1  0
 35 32  1  6
 32 40  1  0
 41 42  1  0
 41 43  1  0
 15 19  2  0
 16 22  2  0
 12 17  1  1
 17 19  1  0
 17 20  1  0
 18 19  1  0
 18 22  1  0
 18 23  1  0
  9 10  1  0
  9 11  1  0
 10 12  1  0
 11  5  1  1
 33 34  1  0
 33 35  1  0
 34 36  1  0
 35 37  1  0
 36 42  1  1
 20 21  2  0
 21 22  1  0
M  CHG  2   2  -1  26  -1
M  END
>  <COMPND>  (32) 
    8629 

>  <AUTHOR>  (32) 
    GENERATED BY OPEN BABEL 3.1.1

>  <MASTER>  (32) 
        0    0    0    0    0    0    0    0   58    0   58    0

>  <minimizedAffinity>  (32) 
-6.18167

>  <CNNscore>  (32) 
0.6875969768

>  <CNNaffinity>  (32) 
4.3628873825

>  <CNN_VS>  (32) 
2.9999082088

>  <CNNaffinity_variance>  (32) 
0.1042868495

$$$$
33
     RDKit          3D

 43 45  0  0  0  0  0  0  0  0999 V2000
   21.0323   71.7457   -0.1744 P   0  0  2  0  0  0  0  0  0  0  0  0
   22.0288   71.7561   -1.4489 O   0  0  0  0  0  0  0  0  0  0  0  0
   21.0316   70.4723    0.6193 O   0  0  0  0  0  0  0  0  0  0  0  0
   19.6046   72.1881   -0.7940 O   0  0  0  0  0  0  0  0  0  0  0  0
   19.3538   71.9317   -2.1648 C   0  0  0  0  0  0  0  0  0  0  0  0
   17.5287   71.4703   -3.6581 O   0  0  0  0  0  0  0  0  0  0  0  0
   16.7207   69.3375   -1.7115 O   0  0  0  0  0  0  0  0  0  0  0  0
   17.9713   67.9112   -3.6707 O   0  0  0  0  0  0  0  0  0  0  0  0
   18.0281   69.7613   -2.0942 C   0  0  1  0  0  0  0  0  0  0  0  0
   18.3586   69.2572   -3.4836 C   0  0  2  0  0  0  0  0  0  0  0  0
   17.9897   71.2699   -2.3040 C   0  0  1  0  0  0  0  0  0  0  0  0
   17.5758   70.2184   -4.3619 C   0  0  2  0  0  0  0  0  0  0  0  0
   16.7203   68.3771   -1.5716 H   0  0  0  0  0  0  0  0  0  0  0  0
   18.4975   67.3395   -3.0903 H   0  0  0  0  0  0  0  0  0  0  0  0
   16.3466   69.6678   -6.8447 O   0  0  0  0  0  0  0  0  0  0  0  0
   20.0620   71.0467   -9.1974 O   0  0  0  0  0  0  0  0  0  0  0  0
   18.1988   70.4245   -5.6389 N   0  0  0  0  0  0  0  0  0  0  0  0
   18.1975   70.3550   -8.0141 N   0  0  0  0  0  0  0  0  0  0  0  0
   17.4952   70.1150   -6.8262 C   0  0  0  0  0  0  0  0  0  0  0  0
   19.4932   70.9286   -5.7052 C   0  0  0  0  0  0  0  0  0  0  0  0
   20.1493   71.1505   -6.8460 C   0  0  0  0  0  0  0  0  0  0  0  0
   19.4852   70.8536   -8.1316 C   0  0  0  0  0  0  0  0  0  0  0  0
   17.7273   70.1464   -8.8539 H   0  0  0  0  0  0  0  0  0  0  0  0
   21.4898   73.0553    0.6554 O   0  0  0  0  0  0  0  0  0  0  0  0
   21.2290   73.4829    2.1923 P   0  0  2  0  0  0  0  0  0  0  0  0
   20.2807   72.2973    2.7515 O   0  0  0  0  0  0  0  0  0  0  0  0
   20.6597   74.8620    2.3593 O   0  0  0  0  0  0  0  0  0  0  0  0
   22.6473   73.2512    2.9270 O   0  0  0  0  0  0  0  0  0  0  0  0
   24.0229   71.3217    2.8978 O   0  0  0  0  0  0  0  0  0  0  0  0
   24.8083   72.6339    6.7335 O   0  0  0  0  0  0  0  0  0  0  0  0
   26.8181   72.9108    4.7007 O   0  0  0  0  0  0  0  0  0  0  0  0
   22.1302   72.8449    5.6551 O   0  0  0  0  0  0  0  0  0  0  0  0
   24.5173   72.7789    5.3407 C   0  0  1  0  0  0  0  0  0  0  0  0
   25.6442   72.1186    4.5440 C   0  0  1  0  0  0  0  0  0  0  0  0
   23.1794   72.1069    5.0378 C   0  0  2  0  0  0  0  0  0  0  0  0
   25.2756   71.9974    3.0593 C   0  0  1  0  0  0  0  0  0  0  0  0
   22.9327   71.9929    3.5323 C   0  0  1  0  0  0  0  0  0  0  0  0
   25.6564   73.0588    6.9326 H   0  0  0  0  0  0  0  0  0  0  0  0
   27.0397   72.9799    5.6427 H   0  0  0  0  0  0  0  0  0  0  0  0
   22.2978   72.9097    6.6078 H   0  0  0  0  0  0  0  0  0  0  0  0
   25.7227   70.7491    1.0716 O   0  0  0  0  0  0  0  0  0  0  0  0
   26.3162   71.2013    2.2748 C   0  0  0  0  0  0  0  0  0  0  0  0
   26.3736   70.2411    0.5617 H   0  0  0  0  0  0  0  0  0  0  0  0
 25 28  1  0
 25 24  1  0
 25 26  1  1
 25 27  2  0
  1  4  1  0
  1 24  1  0
  1  2  1  6
  1  3  2  0
  6 11  1  0
  6 12  1  0
 29 36  1  0
 29 37  1  0
  9  7  1  6
  7 13  1  0
 10  8  1  1
  8 14  1  0
 37 28  1  6
  4  5  1  0
 33 30  1  1
 30 38  1  0
 34 31  1  6
 31 39  1  0
 35 32  1  1
 32 40  1  0
 41 42  1  0
 41 43  1  0
 15 19  2  0
 16 22  2  0
 12 17  1  6
 17 19  1  0
 17 20  1  0
 18 19  1  0
 18 22  1  0
 18 23  1  0
  9 10  1  0
  9 11  1  0
 10 12  1  0
 11  5  1  6
 33 34  1  0
 33 35  1  0
 34 36  1  0
 35 37  1  0
 36 42  1  6
 20 21  2  0
 21 22  1  0
M  CHG  2   2  -1  26  -1
M  END
>  <COMPND>  (33) 
    8629 

>  <AUTHOR>  (33) 
    GENERATED BY OPEN BABEL 3.1.1

>  <MASTER>  (33) 
        0    0    0    0    0    0    0    0   58    0   58    0

>  <minimizedAffinity>  (33) 
-7.21443

>  <CNNscore>  (33) 
0.6772720814

>  <CNNaffinity>  (33) 
4.3323411942

>  <CNN_VS>  (33) 
2.9341738224

>  <CNNaffinity_variance>  (33) 
0.1019109339

$$$$
34
     RDKit          3D

 43 45  0  0  0  0  0  0  0  0999 V2000
   21.6444   72.5175   -5.5181 P   0  0  2  0  0  0  0  0  0  0  0  0
   20.9324   73.9699   -5.5512 O   0  0  0  0  0  0  0  0  0  0  0  0
   23.0047   72.4641   -6.1492 O   0  0  0  0  0  0  0  0  0  0  0  0
   20.5351   71.5265   -6.1547 O   0  0  0  0  0  0  0  0  0  0  0  0
   20.0474   71.8043   -7.4558 C   0  0  0  0  0  0  0  0  0  0  0  0
   18.6548   69.9400   -6.8565 O   0  0  0  0  0  0  0  0  0  0  0  0
   17.9381   69.7812   -9.7637 O   0  0  0  0  0  0  0  0  0  0  0  0
   15.7751   71.0452   -8.6865 O   0  0  0  0  0  0  0  0  0  0  0  0
   18.1886   70.9315   -8.9578 C   0  0  1  0  0  0  0  0  0  0  0  0
   17.0187   71.1891   -8.0311 C   0  0  2  0  0  0  0  0  0  0  0  0
   19.3010   70.5837   -7.9766 C   0  0  1  0  0  0  0  0  0  0  0  0
   17.2353   70.1422   -6.9517 C   0  0  2  0  0  0  0  0  0  0  0  0
   17.2313   69.9792  -10.3987 H   0  0  0  0  0  0  0  0  0  0  0  0
   15.6847   71.7338   -9.3636 H   0  0  0  0  0  0  0  0  0  0  0  0
   16.9199   68.4372   -4.7220 O   0  0  0  0  0  0  0  0  0  0  0  0
   15.3151   71.8672   -2.0951 O   0  0  0  0  0  0  0  0  0  0  0  0
   16.7375   70.5633   -5.6725 N   0  0  0  0  0  0  0  0  0  0  0  0
   16.1212   70.1465   -3.4158 N   0  0  0  0  0  0  0  0  0  0  0  0
   16.6168   69.6276   -4.6188 C   0  0  0  0  0  0  0  0  0  0  0  0
   16.3754   71.8910   -5.4727 C   0  0  0  0  0  0  0  0  0  0  0  0
   15.9033   72.3697   -4.3198 C   0  0  0  0  0  0  0  0  0  0  0  0
   15.7465   71.4576   -3.1684 C   0  0  0  0  0  0  0  0  0  0  0  0
   16.0282   69.5129   -2.6677 H   0  0  0  0  0  0  0  0  0  0  0  0
   21.6157   72.1343   -3.9480 O   0  0  0  0  0  0  0  0  0  0  0  0
   20.5911   71.2179   -3.0975 P   0  0  2  0  0  0  0  0  0  0  0  0
   20.9295   69.7180   -3.6008 O   0  0  0  0  0  0  0  0  0  0  0  0
   19.1491   71.6095   -3.2433 O   0  0  0  0  0  0  0  0  0  0  0  0
   21.1504   71.2761   -1.5846 O   0  0  0  0  0  0  0  0  0  0  0  0
   21.3058   73.0170    0.0159 O   0  0  0  0  0  0  0  0  0  0  0  0
   24.9623   71.2072    0.6524 O   0  0  0  0  0  0  0  0  0  0  0  0
   22.8762   70.9140    2.6044 O   0  0  0  0  0  0  0  0  0  0  0  0
   23.9152   71.4405   -2.0362 O   0  0  0  0  0  0  0  0  0  0  0  0
   23.5675   71.2518    0.3397 C   0  0  1  0  0  0  0  0  0  0  0  0
   22.8271   71.8546    1.5352 C   0  0  1  0  0  0  0  0  0  0  0  0
   23.3628   72.1096   -0.9076 C   0  0  2  0  0  0  0  0  0  0  0  0
   21.3709   72.1814    1.1775 C   0  0  1  0  0  0  0  0  0  0  0  0
   21.8832   72.4168   -1.1452 C   0  0  1  0  0  0  0  0  0  0  0  0
   25.0992   70.6637    1.4432 H   0  0  0  0  0  0  0  0  0  0  0  0
   23.8011   70.7159    2.8201 H   0  0  0  0  0  0  0  0  0  0  0  0
   24.8521   71.2519   -1.8735 H   0  0  0  0  0  0  0  0  0  0  0  0
   21.6365   73.4628    3.1766 O   0  0  0  0  0  0  0  0  0  0  0  0
   20.6588   72.9271    2.3040 C   0  0  0  0  0  0  0  0  0  0  0  0
   21.1978   73.9406    3.8984 H   0  0  0  0  0  0  0  0  0  0  0  0
 25 28  1  0
 25 24  1  0
 25 26  1  6
 25 27  2  0
  1  4  1  0
  1 24  1  0
  1  2  1  1
  1  3  2  0
  6 11  1  0
  6 12  1  0
 29 36  1  0
 29 37  1  0
  9  7  1  6
  7 13  1  0
 10  8  1  6
  8 14  1  0
 37 28  1  1
  4  5  1  0
 33 30  1  1
 30 38  1  0
 34 31  1  1
 31 39  1  0
 35 32  1  6
 32 40  1  0
 41 42  1  0
 41 43  1  0
 15 19  2  0
 16 22  2  0
 12 17  1  1
 17 19  1  0
 17 20  1  0
 18 19  1  0
 18 22  1  0
 18 23  1  0
  9 10  1  0
  9 11  1  0
 10 12  1  0
 11  5  1  1
 33 34  1  0
 33 35  1  0
 34 36  1  0
 35 37  1  0
 36 42  1  1
 20 21  2  0
 21 22  1  0
M  CHG  2   2  -1  26  -1
M  END
>  <COMPND>  (34) 
    8629 

>  <AUTHOR>  (34) 
    GENERATED BY OPEN BABEL 3.1.1

>  <MASTER>  (34) 
        0    0    0    0    0    0    0    0   58    0   58    0

>  <minimizedAffinity>  (34) 
-6.98657

>  <CNNscore>  (34) 
0.6673383117

>  <CNNaffinity>  (34) 
4.4582529068

>  <CNN_VS>  (34) 
2.9751629829

>  <CNNaffinity_variance>  (34) 
0.3321871459

$$$$
35
     RDKit          3D

 43 45  0  0  0  0  0  0  0  0999 V2000
   23.1850   71.7882   -2.4908 P   0  0  2  0  0  0  0  0  0  0  0  0
   23.5251   73.3324   -2.1487 O   0  0  0  0  0  0  0  0  0  0  0  0
   24.2668   71.0476   -3.2205 O   0  0  0  0  0  0  0  0  0  0  0  0
   21.7544   71.8630   -3.2429 O   0  0  0  0  0  0  0  0  0  0  0  0
   21.5929   72.7955   -4.2975 C   0  0  0  0  0  0  0  0  0  0  0  0
   20.8482   70.8258   -5.4550 O   0  0  0  0  0  0  0  0  0  0  0  0
   21.4159   72.3270   -7.9877 O   0  0  0  0  0  0  0  0  0  0  0  0
   18.7082   72.5542   -7.7563 O   0  0  0  0  0  0  0  0  0  0  0  0
   20.9051   72.8116   -6.7469 C   0  0  1  0  0  0  0  0  0  0  0  0
   19.4612   72.3895   -6.5720 C   0  0  2  0  0  0  0  0  0  0  0  0
   21.5977   72.0489   -5.6244 C   0  0  1  0  0  0  0  0  0  0  0  0
   19.6056   70.9319   -6.1689 C   0  0  2  0  0  0  0  0  0  0  0  0
   20.9885   72.7996   -8.7198 H   0  0  0  0  0  0  0  0  0  0  0  0
   18.6448   73.4979   -7.9708 H   0  0  0  0  0  0  0  0  0  0  0  0
   17.1308   69.9335   -7.0944 O   0  0  0  0  0  0  0  0  0  0  0  0
   15.5847   69.2723   -2.8033 O   0  0  0  0  0  0  0  0  0  0  0  0
   18.5384   70.4913   -5.3154 N   0  0  0  0  0  0  0  0  0  0  0  0
   16.3630   69.6050   -4.9570 N   0  0  0  0  0  0  0  0  0  0  0  0
   17.3355   70.0081   -5.8810 C   0  0  0  0  0  0  0  0  0  0  0  0
   18.6905   70.5406   -3.9340 C   0  0  0  0  0  0  0  0  0  0  0  0
   17.7530   70.1536   -3.0665 C   0  0  0  0  0  0  0  0  0  0  0  0
   16.4665   69.6359   -3.5753 C   0  0  0  0  0  0  0  0  0  0  0  0
   15.5165   69.2651   -5.3280 H   0  0  0  0  0  0  0  0  0  0  0  0
   22.8041   71.1713   -1.0460 O   0  0  0  0  0  0  0  0  0  0  0  0
   21.7696   71.6810    0.0866 P   0  0  2  0  0  0  0  0  0  0  0  0
   20.5875   70.5776    0.0330 O   0  0  0  0  0  0  0  0  0  0  0  0
   21.3043   73.0965   -0.0972 O   0  0  0  0  0  0  0  0  0  0  0  0
   22.5249   71.4015    1.4853 O   0  0  0  0  0  0  0  0  0  0  0  0
   23.1755   73.2392    2.8330 O   0  0  0  0  0  0  0  0  0  0  0  0
   25.7025   70.3615    4.3770 O   0  0  0  0  0  0  0  0  0  0  0  0
   23.4611   71.2615    5.9307 O   0  0  0  0  0  0  0  0  0  0  0  0
   25.1570   70.4296    1.5349 O   0  0  0  0  0  0  0  0  0  0  0  0
   24.4886   70.8601    3.8085 C   0  0  1  0  0  0  0  0  0  0  0  0
   23.9169   71.9200    4.7522 C   0  0  1  0  0  0  0  0  0  0  0  0
   24.7907   71.4661    2.4392 C   0  0  2  0  0  0  0  0  0  0  0  0
   22.7653   72.6882    4.0899 C   0  0  1  0  0  0  0  0  0  0  0  0
   23.5959   72.2493    1.8921 C   0  0  1  0  0  0  0  0  0  0  0  0
   25.5175   69.9749    5.2463 H   0  0  0  0  0  0  0  0  0  0  0  0
   24.1977   70.7798    6.3389 H   0  0  0  0  0  0  0  0  0  0  0  0
   25.9145   69.9415    1.8924 H   0  0  0  0  0  0  0  0  0  0  0  0
   21.5776   73.3300    6.0613 O   0  0  0  0  0  0  0  0  0  0  0  0
   22.2847   73.8534    4.9521 C   0  0  0  0  0  0  0  0  0  0  0  0
   21.2659   74.0603    6.6192 H   0  0  0  0  0  0  0  0  0  0  0  0
 25 28  1  0
 25 24  1  0
 25 26  1  1
 25 27  2  0
  1  4  1  0
  1 24  1  0
  1  2  1  1
  1  3  2  0
  6 11  1  0
  6 12  1  0
 29 36  1  0
 29 37  1  0
  9  7  1  6
  7 13  1  0
 10  8  1  6
  8 14  1  0
 37 28  1  1
  4  5  1  0
 33 30  1  1
 30 38  1  0
 34 31  1  1
 31 39  1  0
 35 32  1  6
 32 40  1  0
 41 42  1  0
 41 43  1  0
 15 19  2  0
 16 22  2  0
 12 17  1  1
 17 19  1  0
 17 20  1  0
 18 19  1  0
 18 22  1  0
 18 23  1  0
  9 10  1  0
  9 11  1  0
 10 12  1  0
 11  5  1  1
 33 34  1  0
 33 35  1  0
 34 36  1  0
 35 37  1  0
 36 42  1  1
 20 21  2  0
 21 22  1  0
M  CHG  2   2  -1  26  -1
M  END
>  <COMPND>  (35) 
    8629 

>  <AUTHOR>  (35) 
    GENERATED BY OPEN BABEL 3.1.1

>  <MASTER>  (35) 
        0    0    0    0    0    0    0    0   58    0   58    0

>  <minimizedAffinity>  (35) 
-8.08861

>  <CNNscore>  (35) 
0.5578170419

>  <CNNaffinity>  (35) 
4.1780381203

>  <CNN_VS>  (35) 
2.3305809498

>  <CNNaffinity_variance>  (35) 
0.3041288555

$$$$
36
     RDKit          3D

 43 45  0  0  0  0  0  0  0  0999 V2000
   22.0092   71.2707    0.4265 P   0  0  2  0  0  0  0  0  0  0  0  0
   21.9170   72.8687    0.6619 O   0  0  0  0  0  0  0  0  0  0  0  0
   20.6959   70.5907    0.1725 O   0  0  0  0  0  0  0  0  0  0  0  0
   22.8408   70.7367    1.7076 O   0  0  0  0  0  0  0  0  0  0  0  0
   23.6531   71.6556    2.4172 C   0  0  0  0  0  0  0  0  0  0  0  0
   24.3739   70.9603    4.6014 O   0  0  0  0  0  0  0  0  0  0  0  0
   22.3012   72.8403    5.6787 O   0  0  0  0  0  0  0  0  0  0  0  0
   24.6066   74.2680    5.9681 O   0  0  0  0  0  0  0  0  0  0  0  0
   23.1329   72.9778    4.5277 C   0  0  1  0  0  0  0  0  0  0  0  0
   24.5540   73.2989    4.9411 C   0  0  2  0  0  0  0  0  0  0  0  0
   23.2892   71.6008    3.8946 C   0  0  1  0  0  0  0  0  0  0  0  0
   25.0655   71.9411    5.3917 C   0  0  2  0  0  0  0  0  0  0  0  0
   22.1866   73.7071    6.1000 H   0  0  0  0  0  0  0  0  0  0  0  0
   24.2709   75.1138    5.6323 H   0  0  0  0  0  0  0  0  0  0  0  0
   27.0456   72.9793    7.1178 O   0  0  0  0  0  0  0  0  0  0  0  0
   30.4569   71.3118    4.5056 O   0  0  0  0  0  0  0  0  0  0  0  0
   26.4788   71.7928    5.1870 N   0  0  0  0  0  0  0  0  0  0  0  0
   28.7426   72.1480    5.8158 N   0  0  0  0  0  0  0  0  0  0  0  0
   27.3892   72.3532    6.1130 C   0  0  0  0  0  0  0  0  0  0  0  0
   26.9491   71.0976    4.0782 C   0  0  0  0  0  0  0  0  0  0  0  0
   28.2430   70.9119    3.8084 C   0  0  0  0  0  0  0  0  0  0  0  0
   29.2596   71.4655    4.7260 C   0  0  0  0  0  0  0  0  0  0  0  0
   29.3952   72.5299    6.4467 H   0  0  0  0  0  0  0  0  0  0  0  0
   23.0777   71.1420   -0.7796 O   0  0  0  0  0  0  0  0  0  0  0  0
   23.0633   71.7449   -2.2794 P   0  0  2  0  0  0  0  0  0  0  0  0
   24.2970   70.9832   -2.9973 O   0  0  0  0  0  0  0  0  0  0  0  0
   23.1401   73.2430   -2.3412 O   0  0  0  0  0  0  0  0  0  0  0  0
   21.7430   71.1142   -2.9605 O   0  0  0  0  0  0  0  0  0  0  0  0
   20.8561   72.7435   -4.4355 O   0  0  0  0  0  0  0  0  0  0  0  0
   17.9548   69.8339   -4.8449 O   0  0  0  0  0  0  0  0  0  0  0  0
   19.8048   70.3035   -6.9909 O   0  0  0  0  0  0  0  0  0  0  0  0
   19.1417   70.3349   -2.2527 O   0  0  0  0  0  0  0  0  0  0  0  0
   19.2817   70.3335   -4.6572 C   0  0  1  0  0  0  0  0  0  0  0  0
   19.6528   71.1790   -5.8771 C   0  0  1  0  0  0  0  0  0  0  0  0
   19.3216   71.1784   -3.3852 C   0  0  2  0  0  0  0  0  0  0  0  0
   20.9489   71.9639   -5.6336 C   0  0  1  0  0  0  0  0  0  0  0  0
   20.6335   71.9557   -3.2643 C   0  0  1  0  0  0  0  0  0  0  0  0
   17.9228   69.2961   -5.6507 H   0  0  0  0  0  0  0  0  0  0  0  0
   18.9796   69.8136   -7.1336 H   0  0  0  0  0  0  0  0  0  0  0  0
   18.3077   69.8486   -2.3410 H   0  0  0  0  0  0  0  0  0  0  0  0
   21.8034   72.1990   -7.8525 O   0  0  0  0  0  0  0  0  0  0  0  0
   21.2535   72.9329   -6.7739 C   0  0  0  0  0  0  0  0  0  0  0  0
   22.0020   72.8029   -8.5857 H   0  0  0  0  0  0  0  0  0  0  0  0
 25 28  1  0
 25 24  1  0
 25 26  1  6
 25 27  2  0
  1  4  1  0
  1 24  1  0
  1  2  1  1
  1  3  2  0
  6 11  1  0
  6 12  1  0
 29 36  1  0
 29 37  1  0
  9  7  1  1
  7 13  1  0
 10  8  1  1
  8 14  1  0
 37 28  1  6
  4  5  1  0
 33 30  1  6
 30 38  1  0
 34 31  1  6
 31 39  1  0
 35 32  1  1
 32 40  1  0
 41 42  1  0
 41 43  1  0
 15 19  2  0
 16 22  2  0
 12 17  1  6
 17 19  1  0
 17 20  1  0
 18 19  1  0
 18 22  1  0
 18 23  1  0
  9 10  1  0
  9 11  1  0
 10 12  1  0
 11  5  1  6
 33 34  1  0
 33 35  1  0
 34 36  1  0
 35 37  1  0
 36 42  1  6
 20 21  2  0
 21 22  1  0
M  CHG  2   2  -1  26  -1
M  END
>  <COMPND>  (36) 
    8629 

>  <AUTHOR>  (36) 
    GENERATED BY OPEN BABEL 3.1.1

>  <MASTER>  (36) 
        0    0    0    0    0    0    0    0   58    0   58    0

>  <minimizedAffinity>  (36) 
-7.45801

>  <CNNscore>  (36) 
0.5513617396

>  <CNNaffinity>  (36) 
4.1117162704

>  <CNN_VS>  (36) 
2.2670431137

>  <CNNaffinity_variance>  (36) 
0.0865718499

$$$$
37
     RDKit          3D

 43 45  0  0  0  0  0  0  0  0999 V2000
   21.2985   72.0124   -0.9968 P   0  0  2  0  0  0  0  0  0  0  0  0
   22.6295   71.2057   -0.5553 O   0  0  0  0  0  0  0  0  0  0  0  0
   21.5252   73.1134   -1.9907 O   0  0  0  0  0  0  0  0  0  0  0  0
   20.6319   72.4602    0.4079 O   0  0  0  0  0  0  0  0  0  0  0  0
   21.4104   73.2237    1.3127 C   0  0  0  0  0  0  0  0  0  0  0  0
   22.0220   71.7628    3.1198 O   0  0  0  0  0  0  0  0  0  0  0  0
   20.4364   73.5930    4.8881 O   0  0  0  0  0  0  0  0  0  0  0  0
   23.0035   74.3756    5.3720 O   0  0  0  0  0  0  0  0  0  0  0  0
   21.2466   73.9095    3.7573 C   0  0  1  0  0  0  0  0  0  0  0  0
   22.7142   73.7994    4.1146 C   0  0  2  0  0  0  0  0  0  0  0  0
   21.0833   72.7912    2.7354 C   0  0  1  0  0  0  0  0  0  0  0  0
   22.9309   72.2958    4.0968 C   0  0  2  0  0  0  0  0  0  0  0  0
   20.5239   74.2932    5.5545 H   0  0  0  0  0  0  0  0  0  0  0  0
   22.8503   75.3326    5.3323 H   0  0  0  0  0  0  0  0  0  0  0  0
   25.0804   72.0777    5.9161 O   0  0  0  0  0  0  0  0  0  0  0  0
   28.0344   70.9261    2.5711 O   0  0  0  0  0  0  0  0  0  0  0  0
   24.2723   71.9402    3.7286 N   0  0  0  0  0  0  0  0  0  0  0  0
   26.5495   71.5043    4.2491 N   0  0  0  0  0  0  0  0  0  0  0  0
   25.2787   71.8593    4.7192 C   0  0  0  0  0  0  0  0  0  0  0  0
   24.5788   71.6756    2.3982 C   0  0  0  0  0  0  0  0  0  0  0  0
   25.7960   71.3395    1.9661 C   0  0  0  0  0  0  0  0  0  0  0  0
   26.9040   71.2329    2.9371 C   0  0  0  0  0  0  0  0  0  0  0  0
   27.2665   71.4421    4.9212 H   0  0  0  0  0  0  0  0  0  0  0  0
   20.3137   70.8369   -1.5079 O   0  0  0  0  0  0  0  0  0  0  0  0
   18.8443   70.8997   -2.1786 P   0  0  2  0  0  0  0  0  0  0  0  0
   18.1302   72.1211   -1.3937 O   0  0  0  0  0  0  0  0  0  0  0  0
   18.0881   69.6038   -2.1264 O   0  0  0  0  0  0  0  0  0  0  0  0
   19.0990   71.4660   -3.6683 O   0  0  0  0  0  0  0  0  0  0  0  0
   18.6909   69.9431   -5.4378 O   0  0  0  0  0  0  0  0  0  0  0  0
   20.8667   72.7828   -7.5000 O   0  0  0  0  0  0  0  0  0  0  0  0
   18.0391   72.5605   -7.9504 O   0  0  0  0  0  0  0  0  0  0  0  0
   21.5956   72.0973   -4.7836 O   0  0  0  0  0  0  0  0  0  0  0  0
   19.9390   72.3115   -6.5189 C   0  0  1  0  0  0  0  0  0  0  0  0
   18.8022   71.5873   -7.2427 C   0  0  1  0  0  0  0  0  0  0  0  0
   20.6607   71.3613   -5.5652 C   0  0  2  0  0  0  0  0  0  0  0  0
   17.9107   70.8262   -6.2522 C   0  0  1  0  0  0  0  0  0  0  0  0
   19.6787   70.6189   -4.6571 C   0  0  1  0  0  0  0  0  0  0  0  0
   20.4149   73.3871   -8.1084 H   0  0  0  0  0  0  0  0  0  0  0  0
   18.6138   73.0342   -8.5721 H   0  0  0  0  0  0  0  0  0  0  0  0
   22.2117   72.5624   -5.3700 H   0  0  0  0  0  0  0  0  0  0  0  0
   16.1890   69.1894   -5.9964 O   0  0  0  0  0  0  0  0  0  0  0  0
   16.8659   69.9699   -6.9643 C   0  0  0  0  0  0  0  0  0  0  0  0
   15.5206   68.6395   -6.4352 H   0  0  0  0  0  0  0  0  0  0  0  0
 25 28  1  0
 25 24  1  0
 25 26  1  1
 25 27  2  0
  1  4  1  0
  1 24  1  0
  1  2  1  1
  1  3  2  0
  6 11  1  0
  6 12  1  0
 29 36  1  0
 29 37  1  0
  9  7  1  1
  7 13  1  0
 10  8  1  1
  8 14  1  0
 37 28  1  1
  4  5  1  0
 33 30  1  6
 30 38  1  0
 34 31  1  1
 31 39  1  0
 35 32  1  1
 32 40  1  0
 41 42  1  0
 41 43  1  0
 15 19  2  0
 16 22  2  0
 12 17  1  6
 17 19  1  0
 17 20  1  0
 18 19  1  0
 18 22  1  0
 18 23  1  0
  9 10  1  0
  9 11  1  0
 10 12  1  0
 11  5  1  6
 33 34  1  0
 33 35  1  0
 34 36  1  0
 35 37  1  0
 36 42  1  6
 20 21  2  0
 21 22  1  0
M  CHG  2   2  -1  26  -1
M  END
>  <COMPND>  (37) 
    8629 

>  <AUTHOR>  (37) 
    GENERATED BY OPEN BABEL 3.1.1

>  <MASTER>  (37) 
        0    0    0    0    0    0    0    0   58    0   58    0

>  <minimizedAffinity>  (37) 
-6.37654

>  <CNNscore>  (37) 
0.5372602344

>  <CNNaffinity>  (37) 
4.1143631935

>  <CNN_VS>  (37) 
2.2104837894

>  <CNNaffinity_variance>  (37) 
0.2119048387

$$$$
38
     RDKit          3D

 43 45  0  0  0  0  0  0  0  0999 V2000
   23.2577   71.7870   -2.2037 P   0  0  2  0  0  0  0  0  0  0  0  0
   24.2552   70.9475   -3.1616 O   0  0  0  0  0  0  0  0  0  0  0  0
   23.1021   73.2351   -2.5645 O   0  0  0  0  0  0  0  0  0  0  0  0
   23.8101   71.4899   -0.7122 O   0  0  0  0  0  0  0  0  0  0  0  0
   23.4922   72.4056    0.3214 C   0  0  0  0  0  0  0  0  0  0  0  0
   23.6950   70.6981    1.9998 O   0  0  0  0  0  0  0  0  0  0  0  0
   21.2818   71.9332    3.2810 O   0  0  0  0  0  0  0  0  0  0  0  0
   23.3258   72.9076    4.8006 O   0  0  0  0  0  0  0  0  0  0  0  0
   22.3617   72.5645    2.5951 C   0  0  1  0  0  0  0  0  0  0  0  0
   23.6057   72.5634    3.4590 C   0  0  2  0  0  0  0  0  0  0  0  0
   22.7759   71.6614    1.4400 C   0  0  1  0  0  0  0  0  0  0  0  0
   24.0903   71.1310    3.3117 C   0  0  2  0  0  0  0  0  0  0  0  0
   20.9998   72.4916    4.0231 H   0  0  0  0  0  0  0  0  0  0  0  0
   23.0213   73.8275    4.8418 H   0  0  0  0  0  0  0  0  0  0  0  0
   25.4491   68.7883    4.1135 O   0  0  0  0  0  0  0  0  0  0  0  0
   29.5658   70.8241    3.7278 O   0  0  0  0  0  0  0  0  0  0  0  0
   25.5169   71.0207    3.4291 N   0  0  0  0  0  0  0  0  0  0  0  0
   27.4978   69.8038    3.9206 N   0  0  0  0  0  0  0  0  0  0  0  0
   26.0994   69.7994    3.8408 C   0  0  0  0  0  0  0  0  0  0  0  0
   26.3230   72.1157    3.1371 C   0  0  0  0  0  0  0  0  0  0  0  0
   27.6550   72.1039    3.2195 C   0  0  0  0  0  0  0  0  0  0  0  0
   28.3424   70.8667    3.6422 C   0  0  0  0  0  0  0  0  0  0  0  0
   27.9256   68.9639    4.2058 H   0  0  0  0  0  0  0  0  0  0  0  0
   21.8895   70.9283   -2.2621 O   0  0  0  0  0  0  0  0  0  0  0  0
   20.3438   71.3845   -2.1372 P   0  0  2  0  0  0  0  0  0  0  0  0
   20.4370   72.8048   -1.3682 O   0  0  0  0  0  0  0  0  0  0  0  0
   19.4564   70.3751   -1.4681 O   0  0  0  0  0  0  0  0  0  0  0  0
   19.9070   71.7645   -3.6438 O   0  0  0  0  0  0  0  0  0  0  0  0
   19.0167   70.2768   -5.2596 O   0  0  0  0  0  0  0  0  0  0  0  0
   20.9552   72.9085   -7.7830 O   0  0  0  0  0  0  0  0  0  0  0  0
   18.0868   72.9322   -7.6414 O   0  0  0  0  0  0  0  0  0  0  0  0
   22.1656   72.1716   -5.2588 O   0  0  0  0  0  0  0  0  0  0  0  0
   20.2121   72.5235   -6.6232 C   0  0  1  0  0  0  0  0  0  0  0  0
   18.8938   71.8986   -7.0840 C   0  0  1  0  0  0  0  0  0  0  0  0
   21.0312   71.5172   -5.8170 C   0  0  2  0  0  0  0  0  0  0  0  0
   18.1636   71.2218   -5.9161 C   0  0  1  0  0  0  0  0  0  0  0  0
   20.1974   70.8665   -4.7118 C   0  0  1  0  0  0  0  0  0  0  0  0
   20.4408   73.5478   -8.2991 H   0  0  0  0  0  0  0  0  0  0  0  0
   18.5596   73.3518   -8.3774 H   0  0  0  0  0  0  0  0  0  0  0  0
   22.6853   72.5791   -5.9685 H   0  0  0  0  0  0  0  0  0  0  0  0
   15.8701   71.3821   -6.5667 O   0  0  0  0  0  0  0  0  0  0  0  0
   16.9260   70.4574   -6.3814 C   0  0  0  0  0  0  0  0  0  0  0  0
   15.0759   70.9098   -6.8632 H   0  0  0  0  0  0  0  0  0  0  0  0
 25 28  1  0
 25 24  1  0
 25 26  1  1
 25 27  2  0
  1  4  1  0
  1 24  1  0
  1  2  1  6
  1  3  2  0
  6 11  1  0
  6 12  1  0
 29 36  1  0
 29 37  1  0
  9  7  1  1
  7 13  1  0
 10  8  1  1
  8 14  1  0
 37 28  1  1
  4  5  1  0
 33 30  1  6
 30 38  1  0
 34 31  1  1
 31 39  1  0
 35 32  1  1
 32 40  1  0
 41 42  1  0
 41 43  1  0
 15 19  2  0
 16 22  2  0
 12 17  1  6
 17 19  1  0
 17 20  1  0
 18 19  1  0
 18 22  1  0
 18 23  1  0
  9 10  1  0
  9 11  1  0
 10 12  1  0
 11  5  1  6
 33 34  1  0
 33 35  1  0
 34 36  1  0
 35 37  1  0
 36 42  1  6
 20 21  2  0
 21 22  1  0
M  CHG  2   2  -1  26  -1
M  END
>  <COMPND>  (38) 
    8629 

>  <AUTHOR>  (38) 
    GENERATED BY OPEN BABEL 3.1.1

>  <MASTER>  (38) 
        0    0    0    0    0    0    0    0   58    0   58    0

>  <minimizedAffinity>  (38) 
-7.62167

>  <CNNscore>  (38) 
0.5251498222

>  <CNNaffinity>  (38) 
4.1798219681

>  <CNN_VS>  (38) 
2.1950328350

>  <CNNaffinity_variance>  (38) 
0.1939717233

$$$$
39
     RDKit          3D

 43 45  0  0  0  0  0  0  0  0999 V2000
   23.2298   73.7425   -3.6281 P   0  0  2  0  0  0  0  0  0  0  0  0
   24.3113   72.5801   -3.9390 O   0  0  0  0  0  0  0  0  0  0  0  0
   23.7598   75.1431   -3.7229 O   0  0  0  0  0  0  0  0  0  0  0  0
   22.6087   73.3219   -2.1945 O   0  0  0  0  0  0  0  0  0  0  0  0
   23.4861   72.8342   -1.1944 C   0  0  0  0  0  0  0  0  0  0  0  0
   23.8700   71.0089    0.3204 O   0  0  0  0  0  0  0  0  0  0  0  0
   20.9084   70.5503    0.2227 O   0  0  0  0  0  0  0  0  0  0  0  0
   21.2281   71.8682    2.5886 O   0  0  0  0  0  0  0  0  0  0  0  0
   21.6325   71.7792    0.1928 C   0  0  1  0  0  0  0  0  0  0  0  0
   22.1776   72.1018    1.5685 C   0  0  2  0  0  0  0  0  0  0  0  0
   22.9078   71.5529   -0.6095 C   0  0  1  0  0  0  0  0  0  0  0  0
   23.3746   71.1708    1.6595 C   0  0  2  0  0  0  0  0  0  0  0  0
   20.0894   70.6701    0.7295 H   0  0  0  0  0  0  0  0  0  0  0  0
   20.4863   72.4848    2.4876 H   0  0  0  0  0  0  0  0  0  0  0  0
   25.2274   69.6011    3.1022 O   0  0  0  0  0  0  0  0  0  0  0  0
   27.3513   73.3284    4.7868 O   0  0  0  0  0  0  0  0  0  0  0  0
   24.4225   71.7049    2.4829 N   0  0  0  0  0  0  0  0  0  0  0  0
   26.2835   71.4583    3.9397 N   0  0  0  0  0  0  0  0  0  0  0  0
   25.2992   70.8301    3.1661 C   0  0  0  0  0  0  0  0  0  0  0  0
   24.5732   73.0818    2.6064 C   0  0  0  0  0  0  0  0  0  0  0  0
   25.5163   73.6650    3.3491 C   0  0  0  0  0  0  0  0  0  0  0  0
   26.4730   72.8223    4.0952 C   0  0  0  0  0  0  0  0  0  0  0  0
   26.9055   70.8688    4.4250 H   0  0  0  0  0  0  0  0  0  0  0  0
   22.0292   73.4065   -4.6570 O   0  0  0  0  0  0  0  0  0  0  0  0
   20.7825   72.3846   -4.5362 P   0  0  2  0  0  0  0  0  0  0  0  0
   19.6562   73.2617   -3.7749 O   0  0  0  0  0  0  0  0  0  0  0  0
   21.1153   71.0849   -3.8626 O   0  0  0  0  0  0  0  0  0  0  0  0
   20.2304   72.2337   -6.0453 O   0  0  0  0  0  0  0  0  0  0  0  0
   18.9253   70.2555   -6.0583 O   0  0  0  0  0  0  0  0  0  0  0  0
   18.5221   71.3380  -10.0227 O   0  0  0  0  0  0  0  0  0  0  0  0
   16.2932   71.6392   -8.2369 O   0  0  0  0  0  0  0  0  0  0  0  0
   21.0571   71.7090   -8.6752 O   0  0  0  0  0  0  0  0  0  0  0  0
   18.6535   71.5654   -8.6169 C   0  0  1  0  0  0  0  0  0  0  0  0
   17.4688   70.9028   -7.9111 C   0  0  1  0  0  0  0  0  0  0  0  0
   19.9719   70.9629   -8.1348 C   0  0  2  0  0  0  0  0  0  0  0  0
   17.6760   70.8723   -6.3909 C   0  0  1  0  0  0  0  0  0  0  0  0
   20.0555   70.9358   -6.6076 C   0  0  1  0  0  0  0  0  0  0  0  0
   17.6873   71.7185  -10.3353 H   0  0  0  0  0  0  0  0  0  0  0  0
   16.1742   71.6513   -9.1996 H   0  0  0  0  0  0  0  0  0  0  0  0
   20.9930   71.7184   -9.6425 H   0  0  0  0  0  0  0  0  0  0  0  0
   16.0178   69.1654   -6.6045 O   0  0  0  0  0  0  0  0  0  0  0  0
   16.5829   70.0771   -5.6804 C   0  0  0  0  0  0  0  0  0  0  0  0
   15.3206   68.6521   -6.1661 H   0  0  0  0  0  0  0  0  0  0  0  0
 25 28  1  0
 25 24  1  0
 25 26  1  1
 25 27  2  0
  1  4  1  0
  1 24  1  0
  1  2  1  6
  1  3  2  0
  6 11  1  0
  6 12  1  0
 29 36  1  0
 29 37  1  0
  9  7  1  1
  7 13  1  0
 10  8  1  1
  8 14  1  0
 37 28  1  1
  4  5  1  0
 33 30  1  6
 30 38  1  0
 34 31  1  1
 31 39  1  0
 35 32  1  6
 32 40  1  0
 41 42  1  0
 41 43  1  0
 15 19  2  0
 16 22  2  0
 12 17  1  1
 17 19  1  0
 17 20  1  0
 18 19  1  0
 18 22  1  0
 18 23  1  0
  9 10  1  0
  9 11  1  0
 10 12  1  0
 11  5  1  1
 33 34  1  0
 33 35  1  0
 34 36  1  0
 35 37  1  0
 36 42  1  1
 20 21  2  0
 21 22  1  0
M  CHG  2   2  -1  26  -1
M  END
>  <COMPND>  (39) 
    8629 

>  <AUTHOR>  (39) 
    GENERATED BY OPEN BABEL 3.1.1

>  <MASTER>  (39) 
        0    0    0    0    0    0    0    0   58    0   58    0

>  <minimizedAffinity>  (39) 
-7.68729

>  <CNNscore>  (39) 
0.5089423060

>  <CNNaffinity>  (39) 
4.1805963516

>  <CNN_VS>  (39) 
2.1276824474

>  <CNNaffinity_variance>  (39) 
0.1104629636

$$$$
40
     RDKit          3D

 43 45  0  0  0  0  0  0  0  0999 V2000
   23.0354   71.9177   -2.9231 P   0  0  2  0  0  0  0  0  0  0  0  0
   24.2747   70.8931   -3.1009 O   0  0  0  0  0  0  0  0  0  0  0  0
   22.9495   72.9951   -3.9639 O   0  0  0  0  0  0  0  0  0  0  0  0
   23.1694   72.4276   -1.3934 O   0  0  0  0  0  0  0  0  0  0  0  0
   23.9199   71.6433   -0.4826 C   0  0  0  0  0  0  0  0  0  0  0  0
   23.7746   70.3992    1.5680 O   0  0  0  0  0  0  0  0  0  0  0  0
   20.9787   71.4588    1.7942 O   0  0  0  0  0  0  0  0  0  0  0  0
   22.3647   73.0689    3.5039 O   0  0  0  0  0  0  0  0  0  0  0  0
   22.1476   72.0988    1.2851 C   0  0  1  0  0  0  0  0  0  0  0  0
   23.0677   72.4942    2.4212 C   0  0  2  0  0  0  0  0  0  0  0  0
   22.9767   71.0497    0.5548 C   0  0  1  0  0  0  0  0  0  0  0  0
   23.7121   71.1664    2.7814 C   0  0  2  0  0  0  0  0  0  0  0  0
   20.4330   72.1091    2.2646 H   0  0  0  0  0  0  0  0  0  0  0  0
   21.9732   73.9113    3.2248 H   0  0  0  0  0  0  0  0  0  0  0  0
   24.3234   71.5292    5.5150 O   0  0  0  0  0  0  0  0  0  0  0  0
   28.8459   71.7684    4.6604 O   0  0  0  0  0  0  0  0  0  0  0  0
   25.0409   71.3257    3.3013 N   0  0  0  0  0  0  0  0  0  0  0  0
   26.5748   71.6478    5.0873 N   0  0  0  0  0  0  0  0  0  0  0  0
   25.2393   71.5027    4.6904 C   0  0  0  0  0  0  0  0  0  0  0  0
   26.1302   71.3052    2.4370 C   0  0  0  0  0  0  0  0  0  0  0  0
   27.3975   71.4463    2.8313 C   0  0  0  0  0  0  0  0  0  0  0  0
   27.6914   71.6358    4.2665 C   0  0  0  0  0  0  0  0  0  0  0  0
   26.7372   71.7728    6.0505 H   0  0  0  0  0  0  0  0  0  0  0  0
   21.7548   70.9329   -2.8670 O   0  0  0  0  0  0  0  0  0  0  0  0
   20.2477   71.1804   -2.3373 P   0  0  2  0  0  0  0  0  0  0  0  0
   20.0960   72.7904   -2.3890 O   0  0  0  0  0  0  0  0  0  0  0  0
   19.9601   70.5742   -0.9943 O   0  0  0  0  0  0  0  0  0  0  0  0
   19.3022   70.6433   -3.5300 O   0  0  0  0  0  0  0  0  0  0  0  0
   17.7004   72.0434   -4.5743 O   0  0  0  0  0  0  0  0  0  0  0  0
   16.0064   68.3701   -5.4036 O   0  0  0  0  0  0  0  0  0  0  0  0
   17.2578   69.8633   -7.5137 O   0  0  0  0  0  0  0  0  0  0  0  0
   17.2734   68.8307   -2.8419 O   0  0  0  0  0  0  0  0  0  0  0  0
   17.0787   69.2937   -5.1975 C   0  0  1  0  0  0  0  0  0  0  0  0
   16.9543   70.4120   -6.2342 C   0  0  1  0  0  0  0  0  0  0  0  0
   16.9848   69.8600   -3.7819 C   0  0  2  0  0  0  0  0  0  0  0  0
   17.9036   71.5740   -5.9123 C   0  0  1  0  0  0  0  0  0  0  0  0
   17.9349   71.0421   -3.5822 C   0  0  1  0  0  0  0  0  0  0  0  0
   16.0606   68.0065   -6.3004 H   0  0  0  0  0  0  0  0  0  0  0  0
   16.6516   69.1303   -7.7045 H   0  0  0  0  0  0  0  0  0  0  0  0
   16.6651   68.0883   -2.9785 H   0  0  0  0  0  0  0  0  0  0  0  0
   18.1785   72.4320   -8.1252 O   0  0  0  0  0  0  0  0  0  0  0  0
   17.6842   72.7660   -6.8413 C   0  0  0  0  0  0  0  0  0  0  0  0
   18.0453   73.1813   -8.7273 H   0  0  0  0  0  0  0  0  0  0  0  0
 25 28  1  0
 25 24  1  0
 25 26  1  1
 25 27  2  0
  1  4  1  0
  1 24  1  0
  1  2  1  6
  1  3  2  0
  6 11  1  0
  6 12  1  0
 29 36  1  0
 29 37  1  0
  9  7  1  1
  7 13  1  0
 10  8  1  1
  8 14  1  0
 37 28  1  6
  4  5  1  0
 33 30  1  6
 30 38  1  0
 34 31  1  6
 31 39  1  0
 35 32  1  1
 32 40  1  0
 41 42  1  0
 41 43  1  0
 15 19  2  0
 16 22  2  0
 12 17  1  6
 17 19  1  0
 17 20  1  0
 18 19  1  0
 18 22  1  0
 18 23  1  0
  9 10  1  0
  9 11  1  0
 10 12  1  0
 11  5  1  6
 33 34  1  0
 33 35  1  0
 34 36  1  0
 35 37  1  0
 36 42  1  6
 20 21  2  0
 21 22  1  0
M  CHG  2   2  -1  26  -1
M  END
>  <COMPND>  (40) 
    8629 

>  <AUTHOR>  (40) 
    GENERATED BY OPEN BABEL 3.1.1

>  <MASTER>  (40) 
        0    0    0    0    0    0    0    0   58    0   58    0

>  <minimizedAffinity>  (40) 
-7.68688

>  <CNNscore>  (40) 
0.5000934005

>  <CNNaffinity>  (40) 
4.1480021477

>  <CNN_VS>  (40) 
2.0743885040

>  <CNNaffinity_variance>  (40) 
0.1635774076

$$$$
41
     RDKit          3D

 43 45  0  0  0  0  0  0  0  0999 V2000
   22.6485   71.9456   -2.9580 P   0  0  2  0  0  0  0  0  0  0  0  0
   24.0128   72.0511   -3.8211 O   0  0  0  0  0  0  0  0  0  0  0  0
   22.7413   71.0916   -1.7278 O   0  0  0  0  0  0  0  0  0  0  0  0
   21.5360   71.4959   -4.0433 O   0  0  0  0  0  0  0  0  0  0  0  0
   20.6801   70.4124   -3.7250 C   0  0  0  0  0  0  0  0  0  0  0  0
   18.8518   71.6114   -4.7218 O   0  0  0  0  0  0  0  0  0  0  0  0
   17.1396   70.4156   -2.5702 O   0  0  0  0  0  0  0  0  0  0  0  0
   16.5714   68.8433   -4.7246 O   0  0  0  0  0  0  0  0  0  0  0  0
   18.2432   69.8413   -3.2685 C   0  0  1  0  0  0  0  0  0  0  0  0
   17.8370   69.4701   -4.6794 C   0  0  2  0  0  0  0  0  0  0  0  0
   19.2686   70.9417   -3.5117 C   0  0  1  0  0  0  0  0  0  0  0  0
   17.8457   70.8206   -5.3754 C   0  0  2  0  0  0  0  0  0  0  0  0
   16.4716   69.7317   -2.4031 H   0  0  0  0  0  0  0  0  0  0  0  0
   16.6174   67.9883   -4.2689 H   0  0  0  0  0  0  0  0  0  0  0  0
   15.9744   70.2266   -7.4060 O   0  0  0  0  0  0  0  0  0  0  0  0
   19.1976   70.4421  -10.6931 O   0  0  0  0  0  0  0  0  0  0  0  0
   18.1685   70.7157   -6.7704 N   0  0  0  0  0  0  0  0  0  0  0  0
   17.5808   70.3345   -9.0411 N   0  0  0  0  0  0  0  0  0  0  0  0
   17.1548   70.4121   -7.7090 C   0  0  0  0  0  0  0  0  0  0  0  0
   19.4777   70.9133   -7.1956 C   0  0  0  0  0  0  0  0  0  0  0  0
   19.8678   70.8346   -8.4695 C   0  0  0  0  0  0  0  0  0  0  0  0
   18.8703   70.5215   -9.5131 C   0  0  0  0  0  0  0  0  0  0  0  0
   16.8919   70.1238   -9.7125 H   0  0  0  0  0  0  0  0  0  0  0  0
   22.2762   73.4932   -2.6760 O   0  0  0  0  0  0  0  0  0  0  0  0
   21.5198   74.5874   -3.5945 P   0  0  2  0  0  0  0  0  0  0  0  0
   22.0291   75.9977   -2.9868 O   0  0  0  0  0  0  0  0  0  0  0  0
   20.0270   74.4325   -3.6327 O   0  0  0  0  0  0  0  0  0  0  0  0
   22.2405   74.4802   -5.0347 O   0  0  0  0  0  0  0  0  0  0  0  0
   20.8565   75.3190   -6.7660 O   0  0  0  0  0  0  0  0  0  0  0  0
   23.8358   73.6216   -9.0668 O   0  0  0  0  0  0  0  0  0  0  0  0
   23.6576   76.4807   -8.8619 O   0  0  0  0  0  0  0  0  0  0  0  0
   22.9454   72.2975   -6.6516 O   0  0  0  0  0  0  0  0  0  0  0  0
   23.2952   74.3064   -7.9336 C   0  0  1  0  0  0  0  0  0  0  0  0
   22.6313   75.5948   -8.4235 C   0  0  1  0  0  0  0  0  0  0  0  0
   22.2735   73.4032   -7.2453 C   0  0  2  0  0  0  0  0  0  0  0  0
   21.8010   76.2480   -7.3105 C   0  0  1  0  0  0  0  0  0  0  0  0
   21.4682   74.1632   -6.1898 C   0  0  1  0  0  0  0  0  0  0  0  0
   24.4856   74.1895   -9.5081 H   0  0  0  0  0  0  0  0  0  0  0  0
   24.1748   76.0560   -9.5643 H   0  0  0  0  0  0  0  0  0  0  0  0
   23.4512   71.8245   -7.3300 H   0  0  0  0  0  0  0  0  0  0  0  0
   20.7053   77.2394   -9.1881 O   0  0  0  0  0  0  0  0  0  0  0  0
   21.0043   77.4471   -7.8200 C   0  0  0  0  0  0  0  0  0  0  0  0
   20.1981   77.9946   -9.5259 H   0  0  0  0  0  0  0  0  0  0  0  0
 25 28  1  0
 25 24  1  0
 25 26  1  1
 25 27  2  0
  1  4  1  0
  1 24  1  0
  1  2  1  6
  1  3  2  0
  6 11  1  0
  6 12  1  0
 29 36  1  0
 29 37  1  0
  9  7  1  1
  7 13  1  0
 10  8  1  1
  8 14  1  0
 37 28  1  1
  4  5  1  0
 33 30  1  6
 30 38  1  0
 34 31  1  1
 31 39  1  0
 35 32  1  1
 32 40  1  0
 41 42  1  0
 41 43  1  0
 15 19  2  0
 16 22  2  0
 12 17  1  6
 17 19  1  0
 17 20  1  0
 18 19  1  0
 18 22  1  0
 18 23  1  0
  9 10  1  0
  9 11  1  0
 10 12  1  0
 11  5  1  6
 33 34  1  0
 33 35  1  0
 34 36  1  0
 35 37  1  0
 36 42  1  6
 20 21  2  0
 21 22  1  0
M  CHG  2   2  -1  26  -1
M  END
>  <COMPND>  (41) 
    8629 

>  <AUTHOR>  (41) 
    GENERATED BY OPEN BABEL 3.1.1

>  <MASTER>  (41) 
        0    0    0    0    0    0    0    0   58    0   58    0

>  <minimizedAffinity>  (41) 
-7.31228

>  <CNNscore>  (41) 
0.9367786050

>  <CNNaffinity>  (41) 
4.7312469482

>  <CNN_VS>  (41) 
4.4321308136

>  <CNNaffinity_variance>  (41) 
0.2110241354

$$$$
42
     RDKit          3D

 43 45  0  0  0  0  0  0  0  0999 V2000
   20.4500   73.3807   -3.5576 P   0  0  2  0  0  0  0  0  0  0  0  0
   20.3736   74.7981   -2.7813 O   0  0  0  0  0  0  0  0  0  0  0  0
   20.0790   73.4331   -5.0105 O   0  0  0  0  0  0  0  0  0  0  0  0
   19.5610   72.3873   -2.6407 O   0  0  0  0  0  0  0  0  0  0  0  0
   19.0574   71.1983   -3.2242 C   0  0  0  0  0  0  0  0  0  0  0  0
   17.3143   71.8931   -4.7251 O   0  0  0  0  0  0  0  0  0  0  0  0
   15.4589   70.2596   -3.0280 O   0  0  0  0  0  0  0  0  0  0  0  0
   15.9022   68.6260   -5.1661 O   0  0  0  0  0  0  0  0  0  0  0  0
   16.8166   70.0039   -3.3839 C   0  0  1  0  0  0  0  0  0  0  0  0
   16.9069   69.5608   -4.8292 C   0  0  2  0  0  0  0  0  0  0  0  0
   17.5531   71.3374   -3.4134 C   0  0  1  0  0  0  0  0  0  0  0  0
   16.7538   70.8769   -5.5725 C   0  0  2  0  0  0  0  0  0  0  0  0
   14.9685   69.4225   -3.0023 H   0  0  0  0  0  0  0  0  0  0  0  0
   16.0431   67.8059   -4.6677 H   0  0  0  0  0  0  0  0  0  0  0  0
   15.6408   71.7682   -8.0107 O   0  0  0  0  0  0  0  0  0  0  0  0
   19.5159   70.8448  -10.3284 O   0  0  0  0  0  0  0  0  0  0  0  0
   17.4496   70.8809   -6.8283 N   0  0  0  0  0  0  0  0  0  0  0  0
   17.5713   71.3079   -9.1627 N   0  0  0  0  0  0  0  0  0  0  0  0
   16.7997   71.3483   -7.9943 C   0  0  0  0  0  0  0  0  0  0  0  0
   18.7618   70.4252   -6.8949 C   0  0  0  0  0  0  0  0  0  0  0  0
   19.4834   70.3920   -8.0172 C   0  0  0  0  0  0  0  0  0  0  0  0
   18.8785   70.8627   -9.2799 C   0  0  0  0  0  0  0  0  0  0  0  0
   17.1392   71.6282   -9.9875 H   0  0  0  0  0  0  0  0  0  0  0  0
   21.9618   72.8880   -3.2666 O   0  0  0  0  0  0  0  0  0  0  0  0
   22.5404   71.4483   -2.8134 P   0  0  2  0  0  0  0  0  0  0  0  0
   24.1274   71.5794   -3.0995 O   0  0  0  0  0  0  0  0  0  0  0  0
   21.8836   70.2803   -3.4904 O   0  0  0  0  0  0  0  0  0  0  0  0
   22.4152   71.4458   -1.2043 O   0  0  0  0  0  0  0  0  0  0  0  0
   21.8317   73.4761   -0.1301 O   0  0  0  0  0  0  0  0  0  0  0  0
   23.4232   71.4545    3.0996 O   0  0  0  0  0  0  0  0  0  0  0  0
   20.5838   71.8532    2.9355 O   0  0  0  0  0  0  0  0  0  0  0  0
   24.6398   71.1871    0.4866 O   0  0  0  0  0  0  0  0  0  0  0  0
   22.7075   71.5854    1.8683 C   0  0  1  0  0  0  0  0  0  0  0  0
   21.5224   72.5248    2.0999 C   0  0  1  0  0  0  0  0  0  0  0  0
   23.6445   72.1540    0.8043 C   0  0  2  0  0  0  0  0  0  0  0  0
   20.8652   72.9252    0.7722 C   0  0  1  0  0  0  0  0  0  0  0  0
   22.8833   72.5655   -0.4571 C   0  0  1  0  0  0  0  0  0  0  0  0
   22.8340   71.0935    3.7793 H   0  0  0  0  0  0  0  0  0  0  0  0
   21.0115   71.6054    3.7702 H   0  0  0  0  0  0  0  0  0  0  0  0
   25.1148   70.9350    1.2933 H   0  0  0  0  0  0  0  0  0  0  0  0
   19.2212   74.2904   -0.2967 O   0  0  0  0  0  0  0  0  0  0  0  0
   19.7821   73.9840    0.9666 C   0  0  0  0  0  0  0  0  0  0  0  0
   18.5300   74.9628   -0.1884 H   0  0  0  0  0  0  0  0  0  0  0  0
 25 28  1  0
 25 24  1  0
 25 26  1  1
 25 27  2  0
  1  4  1  0
  1 24  1  0
  1  2  1  1
  1  3  2  0
  6 11  1  0
  6 12  1  0
 29 36  1  0
 29 37  1  0
  9  7  1  6
  7 13  1  0
 10  8  1  6
  8 14  1  0
 37 28  1  1
  4  5  1  0
 33 30  1  1
 30 38  1  0
 34 31  1  1
 31 39  1  0
 35 32  1  6
 32 40  1  0
 41 42  1  0
 41 43  1  0
 15 19  2  0
 16 22  2  0
 12 17  1  6
 17 19  1  0
 17 20  1  0
 18 19  1  0
 18 22  1  0
 18 23  1  0
  9 10  1  0
  9 11  1  0
 10 12  1  0
 11  5  1  6
 33 34  1  0
 33 35  1  0
 34 36  1  0
 35 37  1  0
 36 42  1  1
 20 21  2  0
 21 22  1  0
M  CHG  2   2  -1  26  -1
M  END
>  <COMPND>  (42) 
    8629 

>  <AUTHOR>  (42) 
    GENERATED BY OPEN BABEL 3.1.1

>  <MASTER>  (42) 
        0    0    0    0    0    0    0    0   58    0   58    0

>  <minimizedAffinity>  (42) 
-6.70221

>  <CNNscore>  (42) 
0.8740968108

>  <CNNaffinity>  (42) 
4.5846471786

>  <CNN_VS>  (42) 
4.0074253082

>  <CNNaffinity_variance>  (42) 
0.1168148518

$$$$
43
     RDKit          3D

 43 45  0  0  0  0  0  0  0  0999 V2000
   23.0579   71.5768   -2.4455 P   0  0  2  0  0  0  0  0  0  0  0  0
   23.0177   73.1844   -2.6234 O   0  0  0  0  0  0  0  0  0  0  0  0
   24.2684   70.9052   -3.0243 O   0  0  0  0  0  0  0  0  0  0  0  0
   21.6330   71.0852   -3.0336 O   0  0  0  0  0  0  0  0  0  0  0  0
   20.9581   71.9213   -3.9573 C   0  0  0  0  0  0  0  0  0  0  0  0
   18.7424   72.2094   -4.8415 O   0  0  0  0  0  0  0  0  0  0  0  0
   17.7771   70.8094   -2.3719 O   0  0  0  0  0  0  0  0  0  0  0  0
   17.6825   68.8346   -4.2501 O   0  0  0  0  0  0  0  0  0  0  0  0
   18.9593   70.5782   -3.1362 C   0  0  1  0  0  0  0  0  0  0  0  0
   18.6173   69.8780   -4.4348 C   0  0  2  0  0  0  0  0  0  0  0  0
   19.4718   71.9265   -3.6272 C   0  0  1  0  0  0  0  0  0  0  0  0
   18.0628   71.0186   -5.2712 C   0  0  2  0  0  0  0  0  0  0  0  0
   17.4315   69.9626   -2.0472 H   0  0  0  0  0  0  0  0  0  0  0  0
   18.0823   68.1335   -3.7122 H   0  0  0  0  0  0  0  0  0  0  0  0
   16.2346   69.7901   -7.0395 O   0  0  0  0  0  0  0  0  0  0  0  0
   19.0579   70.3505  -10.6390 O   0  0  0  0  0  0  0  0  0  0  0  0
   18.2942   70.8307   -6.6757 N   0  0  0  0  0  0  0  0  0  0  0  0
   17.6418   70.0703   -8.8304 N   0  0  0  0  0  0  0  0  0  0  0  0
   17.3120   70.2012   -7.4754 C   0  0  0  0  0  0  0  0  0  0  0  0
   19.4842   71.2687   -7.2466 C   0  0  0  0  0  0  0  0  0  0  0  0
   19.7840   71.1351   -8.5402 C   0  0  0  0  0  0  0  0  0  0  0  0
   18.8117   70.4882   -9.4447 C   0  0  0  0  0  0  0  0  0  0  0  0
   16.9728   69.6344   -9.4067 H   0  0  0  0  0  0  0  0  0  0  0  0
   22.8791   71.3830   -0.8507 O   0  0  0  0  0  0  0  0  0  0  0  0
   21.6688   71.7928    0.1394 P   0  0  2  0  0  0  0  0  0  0  0  0
   20.6370   70.5549   -0.0038 O   0  0  0  0  0  0  0  0  0  0  0  0
   21.0665   73.1375   -0.1488 O   0  0  0  0  0  0  0  0  0  0  0  0
   22.2853   71.6401    1.6231 O   0  0  0  0  0  0  0  0  0  0  0  0
   23.1147   73.3760    3.0071 O   0  0  0  0  0  0  0  0  0  0  0  0
   25.5716   70.3026    4.2597 O   0  0  0  0  0  0  0  0  0  0  0  0
   23.4805   71.2413    5.9901 O   0  0  0  0  0  0  0  0  0  0  0  0
   24.8592   70.5335    1.4635 O   0  0  0  0  0  0  0  0  0  0  0  0
   24.3541   70.8891    3.7915 C   0  0  1  0  0  0  0  0  0  0  0  0
   23.8989   71.9308    4.8155 C   0  0  1  0  0  0  0  0  0  0  0  0
   24.6049   71.5433    2.4341 C   0  0  2  0  0  0  0  0  0  0  0  0
   22.7524   72.7876    4.2618 C   0  0  1  0  0  0  0  0  0  0  0  0
   23.4232   72.4117    1.9987 C   0  0  1  0  0  0  0  0  0  0  0  0
   25.4191   69.8850    5.1211 H   0  0  0  0  0  0  0  0  0  0  0  0
   24.2134   70.7037    6.3293 H   0  0  0  0  0  0  0  0  0  0  0  0
   25.6095   69.9909    1.7506 H   0  0  0  0  0  0  0  0  0  0  0  0
   21.4385   73.4609    6.1405 O   0  0  0  0  0  0  0  0  0  0  0  0
   22.3886   73.9336    5.2034 C   0  0  0  0  0  0  0  0  0  0  0  0
   21.1978   74.1795    6.7466 H   0  0  0  0  0  0  0  0  0  0  0  0
 25 28  1  0
 25 24  1  0
 25 26  1  1
 25 27  2  0
  1  4  1  0
  1 24  1  0
  1  2  1  1
  1  3  2  0
  6 11  1  0
  6 12  1  0
 29 36  1  0
 29 37  1  0
  9  7  1  1
  7 13  1  0
 10  8  1  1
  8 14  1  0
 37 28  1  1
  4  5  1  0
 33 30  1  1
 30 38  1  0
 34 31  1  1
 31 39  1  0
 35 32  1  6
 32 40  1  0
 41 42  1  0
 41 43  1  0
 15 19  2  0
 16 22  2  0
 12 17  1  6
 17 19  1  0
 17 20  1  0
 18 19  1  0
 18 22  1  0
 18 23  1  0
  9 10  1  0
  9 11  1  0
 10 12  1  0
 11  5  1  6
 33 34  1  0
 33 35  1  0
 34 36  1  0
 35 37  1  0
 36 42  1  1
 20 21  2  0
 21 22  1  0
M  CHG  2   2  -1  26  -1
M  END
>  <COMPND>  (43) 
    8629 

>  <AUTHOR>  (43) 
    GENERATED BY OPEN BABEL 3.1.1

>  <MASTER>  (43) 
        0    0    0    0    0    0    0    0   58    0   58    0

>  <minimizedAffinity>  (43) 
-8.21003

>  <CNNscore>  (43) 
0.8667166829

>  <CNNaffinity>  (43) 
4.6067914963

>  <CNN_VS>  (43) 
3.9927830696

>  <CNNaffinity_variance>  (43) 
0.0975949988

$$$$
44
     RDKit          3D

 43 45  0  0  0  0  0  0  0  0999 V2000
   21.8113   72.5381   -5.4023 P   0  0  2  0  0  0  0  0  0  0  0  0
   20.9922   73.9057   -5.1262 O   0  0  0  0  0  0  0  0  0  0  0  0
   23.1228   72.7166   -6.1091 O   0  0  0  0  0  0  0  0  0  0  0  0
   20.7362   71.5849   -6.1463 O   0  0  0  0  0  0  0  0  0  0  0  0
   20.3117   71.9352   -7.4520 C   0  0  0  0  0  0  0  0  0  0  0  0
   19.0242   69.9521   -7.0236 O   0  0  0  0  0  0  0  0  0  0  0  0
   18.2419   70.0610   -9.9161 O   0  0  0  0  0  0  0  0  0  0  0  0
   16.0500   71.0976   -8.6682 O   0  0  0  0  0  0  0  0  0  0  0  0
   18.4584   71.1322   -8.9992 C   0  0  1  0  0  0  0  0  0  0  0  0
   17.3017   71.2340   -8.0269 C   0  0  2  0  0  0  0  0  0  0  0  0
   19.6106   70.7398   -8.0828 C   0  0  1  0  0  0  0  0  0  0  0  0
   17.5948   70.0926   -7.0680 C   0  0  2  0  0  0  0  0  0  0  0  0
   17.5106   70.2886  -10.5122 H   0  0  0  0  0  0  0  0  0  0  0  0
   15.9100   71.8475   -9.2673 H   0  0  0  0  0  0  0  0  0  0  0  0
   16.3334   68.1735   -5.4237 O   0  0  0  0  0  0  0  0  0  0  0  0
   15.7759   71.2063   -1.9984 O   0  0  0  0  0  0  0  0  0  0  0  0
   17.1104   70.3534   -5.7418 N   0  0  0  0  0  0  0  0  0  0  0  0
   16.0570   69.6851   -3.7194 N   0  0  0  0  0  0  0  0  0  0  0  0
   16.4911   69.3205   -5.0003 C   0  0  0  0  0  0  0  0  0  0  0  0
   17.2519   71.6217   -5.1893 C   0  0  0  0  0  0  0  0  0  0  0  0
   16.8314   71.9536   -3.9669 C   0  0  0  0  0  0  0  0  0  0  0  0
   16.1736   70.9323   -3.1265 C   0  0  0  0  0  0  0  0  0  0  0  0
   15.6222   68.9818   -3.1846 H   0  0  0  0  0  0  0  0  0  0  0  0
   21.9244   71.8787   -3.9308 O   0  0  0  0  0  0  0  0  0  0  0  0
   23.0880   71.9713   -2.8126 P   0  0  2  0  0  0  0  0  0  0  0  0
   23.5383   73.5241   -2.8734 O   0  0  0  0  0  0  0  0  0  0  0  0
   24.2097   70.9931   -3.0094 O   0  0  0  0  0  0  0  0  0  0  0  0
   22.3135   71.8264   -1.4040 O   0  0  0  0  0  0  0  0  0  0  0  0
   24.0699   72.2470    0.1305 O   0  0  0  0  0  0  0  0  0  0  0  0
   20.9059   72.0798    2.7786 O   0  0  0  0  0  0  0  0  0  0  0  0
   22.1240   74.6115    2.1828 O   0  0  0  0  0  0  0  0  0  0  0  0
   20.9988   70.2672    0.5235 O   0  0  0  0  0  0  0  0  0  0  0  0
   21.5531   72.3798    1.5390 C   0  0  1  0  0  0  0  0  0  0  0  0
   22.6956   73.3580    1.8189 C   0  0  1  0  0  0  0  0  0  0  0  0
   22.0901   71.0858    0.9303 C   0  0  2  0  0  0  0  0  0  0  0  0
   23.6000   73.5198    0.5897 C   0  0  1  0  0  0  0  0  0  0  0  0
   23.0169   71.3613   -0.2551 C   0  0  1  0  0  0  0  0  0  0  0  0
   20.5622   72.8972    3.1701 H   0  0  0  0  0  0  0  0  0  0  0  0
   21.5549   74.4953    2.9599 H   0  0  0  0  0  0  0  0  0  0  0  0
   20.4197   70.0998    1.2828 H   0  0  0  0  0  0  0  0  0  0  0  0
   25.0361   74.3777    2.2957 O   0  0  0  0  0  0  0  0  0  0  0  0
   24.8334   74.3671    0.8946 C   0  0  0  0  0  0  0  0  0  0  0  0
   25.8181   74.9131    2.5046 H   0  0  0  0  0  0  0  0  0  0  0  0
 25 28  1  0
 25 24  1  0
 25 26  1  1
 25 27  2  0
  1  4  1  0
  1 24  1  0
  1  2  1  1
  1  3  2  0
  6 11  1  0
  6 12  1  0
 29 36  1  0
 29 37  1  0
  9  7  1  6
  7 13  1  0
 10  8  1  6
  8 14  1  0
 37 28  1  6
  4  5  1  0
 33 30  1  1
 30 38  1  0
 34 31  1  6
 31 39  1  0
 35 32  1  6
 32 40  1  0
 41 42  1  0
 41 43  1  0
 15 19  2  0
 16 22  2  0
 12 17  1  1
 17 19  1  0
 17 20  1  0
 18 19  1  0
 18 22  1  0
 18 23  1  0
  9 10  1  0
  9 11  1  0
 10 12  1  0
 11  5  1  1
 33 34  1  0
 33 35  1  0
 34 36  1  0
 35 37  1  0
 36 42  1  1
 20 21  2  0
 21 22  1  0
M  CHG  2   2  -1  26  -1
M  END
>  <COMPND>  (44) 
    8629 

>  <AUTHOR>  (44) 
    GENERATED BY OPEN BABEL 3.1.1

>  <MASTER>  (44) 
        0    0    0    0    0    0    0    0   58    0   58    0

>  <minimizedAffinity>  (44) 
-7.93564

>  <CNNscore>  (44) 
0.8558989167

>  <CNNaffinity>  (44) 
4.6719756126

>  <CNN_VS>  (44) 
3.9987387657

>  <CNNaffinity_variance>  (44) 
0.1766894758

$$$$
45
     RDKit          3D

 43 45  0  0  0  0  0  0  0  0999 V2000
   23.0096   71.6263   -2.4341 P   0  0  2  0  0  0  0  0  0  0  0  0
   22.5619   73.0603   -3.0343 O   0  0  0  0  0  0  0  0  0  0  0  0
   24.2266   71.0239   -3.0726 O   0  0  0  0  0  0  0  0  0  0  0  0
   21.6615   70.7348   -2.5113 O   0  0  0  0  0  0  0  0  0  0  0  0
   20.9389   70.7061   -3.7298 C   0  0  0  0  0  0  0  0  0  0  0  0
   18.9763   71.7283   -4.6663 O   0  0  0  0  0  0  0  0  0  0  0  0
   17.4649   70.4534   -2.4122 O   0  0  0  0  0  0  0  0  0  0  0  0
   16.9315   68.7863   -4.5033 O   0  0  0  0  0  0  0  0  0  0  0  0
   18.5795   69.9523   -3.1483 C   0  0  1  0  0  0  0  0  0  0  0  0
   18.1425   69.5140   -4.5306 C   0  0  2  0  0  0  0  0  0  0  0  0
   19.4997   71.1252   -3.4627 C   0  0  1  0  0  0  0  0  0  0  0  0
   18.0100   70.8427   -5.2552 C   0  0  2  0  0  0  0  0  0  0  0  0
   16.8631   69.7223   -2.1995 H   0  0  0  0  0  0  0  0  0  0  0  0
   17.0674   67.9496   -4.0319 H   0  0  0  0  0  0  0  0  0  0  0  0
   16.1014   70.0607   -7.1850 O   0  0  0  0  0  0  0  0  0  0  0  0
   19.1503   70.4391  -10.6205 O   0  0  0  0  0  0  0  0  0  0  0  0
   18.2778   70.7288   -6.6612 N   0  0  0  0  0  0  0  0  0  0  0  0
   17.6210   70.2499   -8.8941 N   0  0  0  0  0  0  0  0  0  0  0  0
   17.2497   70.3272   -7.5457 C   0  0  0  0  0  0  0  0  0  0  0  0
   19.5480   71.0142   -7.1500 C   0  0  0  0  0  0  0  0  0  0  0  0
   19.8862   70.9344   -8.4386 C   0  0  0  0  0  0  0  0  0  0  0  0
   18.8704   70.5221   -9.4286 C   0  0  0  0  0  0  0  0  0  0  0  0
   16.9212   69.9718   -9.5287 H   0  0  0  0  0  0  0  0  0  0  0  0
   23.1578   71.9246   -0.8523 O   0  0  0  0  0  0  0  0  0  0  0  0
   23.3078   73.3164   -0.0440 P   0  0  2  0  0  0  0  0  0  0  0  0
   21.7872   73.8626    0.0398 O   0  0  0  0  0  0  0  0  0  0  0  0
   24.2799   74.2823   -0.6571 O   0  0  0  0  0  0  0  0  0  0  0  0
   23.6662   72.8750    1.4665 O   0  0  0  0  0  0  0  0  0  0  0  0
   23.8251   70.7467    2.4971 O   0  0  0  0  0  0  0  0  0  0  0  0
   22.0417   72.8399    5.5775 O   0  0  0  0  0  0  0  0  0  0  0  0
   24.8014   72.0750    5.7943 O   0  0  0  0  0  0  0  0  0  0  0  0
   21.2669   73.3631    2.8378 O   0  0  0  0  0  0  0  0  0  0  0  0
   22.9089   72.6613    4.4543 C   0  0  1  0  0  0  0  0  0  0  0  0
   23.9193   71.5652    4.7981 C   0  0  1  0  0  0  0  0  0  0  0  0
   22.0750   72.2617    3.2384 C   0  0  2  0  0  0  0  0  0  0  0  0
   24.7095   71.1309    3.5563 C   0  0  1  0  0  0  0  0  0  0  0  0
   22.9561   71.8001    2.0763 C   0  0  1  0  0  0  0  0  0  0  0  0
   22.5649   73.0943    6.3528 H   0  0  0  0  0  0  0  0  0  0  0  0
   24.2898   72.3461    6.5727 H   0  0  0  0  0  0  0  0  0  0  0  0
   20.7137   73.6457    3.5821 H   0  0  0  0  0  0  0  0  0  0  0  0
   26.7956   70.3970    4.4611 O   0  0  0  0  0  0  0  0  0  0  0  0
   25.6104   69.9314    3.8423 C   0  0  0  0  0  0  0  0  0  0  0  0
   27.3785   69.6443    4.6493 H   0  0  0  0  0  0  0  0  0  0  0  0
 25 28  1  0
 25 24  1  0
 25 26  1  1
 25 27  2  0
  1  4  1  0
  1 24  1  0
  1  2  1  6
  1  3  2  0
  6 11  1  0
  6 12  1  0
 29 36  1  0
 29 37  1  0
  9  7  1  1
  7 13  1  0
 10  8  1  1
  8 14  1  0
 37 28  1  1
  4  5  1  0
 33 30  1  1
 30 38  1  0
 34 31  1  1
 31 39  1  0
 35 32  1  6
 32 40  1  0
 41 42  1  0
 41 43  1  0
 15 19  2  0
 16 22  2  0
 12 17  1  6
 17 19  1  0
 17 20  1  0
 18 19  1  0
 18 22  1  0
 18 23  1  0
  9 10  1  0
  9 11  1  0
 10 12  1  0
 11  5  1  6
 33 34  1  0
 33 35  1  0
 34 36  1  0
 35 37  1  0
 36 42  1  1
 20 21  2  0
 21 22  1  0
M  CHG  2   2  -1  26  -1
M  END
>  <COMPND>  (45) 
    8629 

>  <AUTHOR>  (45) 
    GENERATED BY OPEN BABEL 3.1.1

>  <MASTER>  (45) 
        0    0    0    0    0    0    0    0   58    0   58    0

>  <minimizedAffinity>  (45) 
-8.16105

>  <CNNscore>  (45) 
0.8155589104

>  <CNNaffinity>  (45) 
4.5634136200

>  <CNN_VS>  (45) 
3.7217326164

>  <CNNaffinity_variance>  (45) 
0.0344300792

$$$$
46
     RDKit          3D

 43 45  0  0  0  0  0  0  0  0999 V2000
   20.2659   72.3095   -1.0973 P   0  0  2  0  0  0  0  0  0  0  0  0
   20.2920   70.7535   -0.6550 O   0  0  0  0  0  0  0  0  0  0  0  0
   19.0300   73.0611   -0.6984 O   0  0  0  0  0  0  0  0  0  0  0  0
   20.5815   72.2678   -2.6836 O   0  0  0  0  0  0  0  0  0  0  0  0
   19.9818   71.2498   -3.4658 C   0  0  0  0  0  0  0  0  0  0  0  0
   18.0626   71.9484   -4.7316 O   0  0  0  0  0  0  0  0  0  0  0  0
   16.4227   70.4450   -2.7212 O   0  0  0  0  0  0  0  0  0  0  0  0
   16.5072   68.7182   -4.8302 O   0  0  0  0  0  0  0  0  0  0  0  0
   17.7074   70.1291   -3.2552 C   0  0  1  0  0  0  0  0  0  0  0  0
   17.5766   69.6294   -4.6789 C   0  0  2  0  0  0  0  0  0  0  0  0
   18.4706   71.4340   -3.4450 C   0  0  1  0  0  0  0  0  0  0  0  0
   17.3570   70.9214   -5.4474 C   0  0  2  0  0  0  0  0  0  0  0  0
   15.9168   69.6271   -2.5910 H   0  0  0  0  0  0  0  0  0  0  0  0
   16.6941   67.9130   -4.3229 H   0  0  0  0  0  0  0  0  0  0  0  0
   15.8451   70.1020   -7.6881 O   0  0  0  0  0  0  0  0  0  0  0  0
   19.4124   70.7014  -10.5441 O   0  0  0  0  0  0  0  0  0  0  0  0
   17.8654   70.8543   -6.7884 N   0  0  0  0  0  0  0  0  0  0  0  0
   17.6225   70.4013   -9.1083 N   0  0  0  0  0  0  0  0  0  0  0  0
   17.0237   70.4287   -7.8424 C   0  0  0  0  0  0  0  0  0  0  0  0
   19.1850   71.2084   -7.0477 C   0  0  0  0  0  0  0  0  0  0  0  0
   19.7412   71.1756   -8.2605 C   0  0  0  0  0  0  0  0  0  0  0  0
   18.9300   70.7424   -9.4165 C   0  0  0  0  0  0  0  0  0  0  0  0
   17.0553   70.1077   -9.8579 H   0  0  0  0  0  0  0  0  0  0  0  0
   21.6378   72.8891   -0.4690 O   0  0  0  0  0  0  0  0  0  0  0  0
   23.1834   72.5627   -0.8118 P   0  0  2  0  0  0  0  0  0  0  0  0
   23.6544   73.8531   -1.6665 O   0  0  0  0  0  0  0  0  0  0  0  0
   23.3954   71.2488   -1.5066 O   0  0  0  0  0  0  0  0  0  0  0  0
   23.9538   72.7051    0.5993 O   0  0  0  0  0  0  0  0  0  0  0  0
   25.5718   71.5390    1.8794 O   0  0  0  0  0  0  0  0  0  0  0  0
   22.6376   71.9637    4.7536 O   0  0  0  0  0  0  0  0  0  0  0  0
   25.0379   73.5301    4.9354 O   0  0  0  0  0  0  0  0  0  0  0  0
   21.9014   71.4109    2.0092 O   0  0  0  0  0  0  0  0  0  0  0  0
   23.4199   72.3558    3.6224 C   0  0  1  0  0  0  0  0  0  0  0  0
   24.8865   72.4216    4.0531 C   0  0  1  0  0  0  0  0  0  0  0  0
   23.2328   71.3298    2.5063 C   0  0  2  0  0  0  0  0  0  0  0  0
   25.8139   72.5737    2.8399 C   0  0  1  0  0  0  0  0  0  0  0  0
   24.2363   71.5407    1.3711 C   0  0  1  0  0  0  0  0  0  0  0  0
   22.7516   72.6113    5.4658 H   0  0  0  0  0  0  0  0  0  0  0  0
   24.4466   73.4220    5.6969 H   0  0  0  0  0  0  0  0  0  0  0  0
   21.2757   71.2754    2.7372 H   0  0  0  0  0  0  0  0  0  0  0  0
   27.8146   71.2729    2.7198 O   0  0  0  0  0  0  0  0  0  0  0  0
   27.2873   72.4831    3.2313 C   0  0  0  0  0  0  0  0  0  0  0  0
   28.7518   71.2018    2.9610 H   0  0  0  0  0  0  0  0  0  0  0  0
 25 28  1  0
 25 24  1  0
 25 26  1  6
 25 27  2  0
  1  4  1  0
  1 24  1  0
  1  2  1  1
  1  3  2  0
  6 11  1  0
  6 12  1  0
 29 36  1  0
 29 37  1  0
  9  7  1  6
  7 13  1  0
 10  8  1  1
  8 14  1  0
 37 28  1  1
  4  5  1  0
 33 30  1  1
 30 38  1  0
 34 31  1  1
 31 39  1  0
 35 32  1  6
 32 40  1  0
 41 42  1  0
 41 43  1  0
 15 19  2  0
 16 22  2  0
 12 17  1  6
 17 19  1  0
 17 20  1  0
 18 19  1  0
 18 22  1  0
 18 23  1  0
  9 10  1  0
  9 11  1  0
 10 12  1  0
 11  5  1  6
 33 34  1  0
 33 35  1  0
 34 36  1  0
 35 37  1  0
 36 42  1  1
 20 21  2  0
 21 22  1  0
M  CHG  2   2  -1  26  -1
M  END
>  <COMPND>  (46) 
    8629 

>  <AUTHOR>  (46) 
    GENERATED BY OPEN BABEL 3.1.1

>  <MASTER>  (46) 
        0    0    0    0    0    0    0    0   58    0   58    0

>  <minimizedAffinity>  (46) 
-7.30744

>  <CNNscore>  (46) 
0.7922562361

>  <CNNaffinity>  (46) 
4.5749769211

>  <CNN_VS>  (46) 
3.6245539188

>  <CNNaffinity_variance>  (46) 
0.0753859729

$$$$
47
     RDKit          3D

 43 45  0  0  0  0  0  0  0  0999 V2000
   22.6525   72.5707   -3.8303 P   0  0  2  0  0  0  0  0  0  0  0  0
   22.0154   71.0935   -3.6597 O   0  0  0  0  0  0  0  0  0  0  0  0
   23.8725   72.6381   -4.7013 O   0  0  0  0  0  0  0  0  0  0  0  0
   22.8455   73.0885   -2.3095 O   0  0  0  0  0  0  0  0  0  0  0  0
   21.8304   72.8012   -1.3636 C   0  0  0  0  0  0  0  0  0  0  0  0
   23.6359   71.8564   -0.0903 O   0  0  0  0  0  0  0  0  0  0  0  0
   21.5637   70.1224    1.2097 O   0  0  0  0  0  0  0  0  0  0  0  0
   21.9773   72.0604    3.0831 O   0  0  0  0  0  0  0  0  0  0  0  0
   21.4639   71.4788    0.7789 C   0  0  1  0  0  0  0  0  0  0  0  0
   22.2137   72.3889    1.7292 C   0  0  2  0  0  0  0  0  0  0  0  0
   22.2719   71.6241   -0.5047 C   0  0  1  0  0  0  0  0  0  0  0  0
   23.6568   72.1570    1.3147 C   0  0  2  0  0  0  0  0  0  0  0  0
   21.0552   70.0050    2.0279 H   0  0  0  0  0  0  0  0  0  0  0  0
   21.0460   72.2250    3.2980 H   0  0  0  0  0  0  0  0  0  0  0  0
   25.4791   72.4365    3.4547 O   0  0  0  0  0  0  0  0  0  0  0  0
   26.7671   76.6330    2.0505 O   0  0  0  0  0  0  0  0  0  0  0  0
   24.4815   73.3120    1.5323 N   0  0  0  0  0  0  0  0  0  0  0  0
   26.1190   74.5257    2.7536 N   0  0  0  0  0  0  0  0  0  0  0  0
   25.3626   73.3525    2.6379 C   0  0  0  0  0  0  0  0  0  0  0  0
   24.4119   74.3884    0.6546 C   0  0  0  0  0  0  0  0  0  0  0  0
   25.1391   75.5005    0.7797 C   0  0  0  0  0  0  0  0  0  0  0  0
   26.0845   75.6232    1.9080 C   0  0  0  0  0  0  0  0  0  0  0  0
   26.7396   74.5766    3.5166 H   0  0  0  0  0  0  0  0  0  0  0  0
   21.4009   73.4478   -4.3566 O   0  0  0  0  0  0  0  0  0  0  0  0
   19.8593   73.0428   -4.6259 P   0  0  2  0  0  0  0  0  0  0  0  0
   19.0917   74.4667   -4.6005 O   0  0  0  0  0  0  0  0  0  0  0  0
   19.3129   72.0274   -3.6646 O   0  0  0  0  0  0  0  0  0  0  0  0
   19.8212   72.5868   -6.1737 O   0  0  0  0  0  0  0  0  0  0  0  0
   19.1554   70.3142   -6.0803 O   0  0  0  0  0  0  0  0  0  0  0  0
   19.3784   70.7685  -10.1785 O   0  0  0  0  0  0  0  0  0  0  0  0
   16.8087   70.5659   -8.9121 O   0  0  0  0  0  0  0  0  0  0  0  0
   21.3357   72.0515   -8.4748 O   0  0  0  0  0  0  0  0  0  0  0  0
   19.1187   71.1813   -8.8340 C   0  0  1  0  0  0  0  0  0  0  0  0
   18.0366   70.2691   -8.2528 C   0  0  1  0  0  0  0  0  0  0  0  0
   20.4072   71.0726   -8.0208 C   0  0  2  0  0  0  0  0  0  0  0  0
   17.8934   70.4745   -6.7388 C   0  0  1  0  0  0  0  0  0  0  0  0
   20.1461   71.2438   -6.5232 C   0  0  1  0  0  0  0  0  0  0  0  0
   18.5643   70.8356  -10.7003 H   0  0  0  0  0  0  0  0  0  0  0  0
   16.9128   70.4327   -9.8674 H   0  0  0  0  0  0  0  0  0  0  0  0
   21.4928   71.9323   -9.4240 H   0  0  0  0  0  0  0  0  0  0  0  0
   15.7123   69.5032   -6.8299 O   0  0  0  0  0  0  0  0  0  0  0  0
   16.9326   69.4657   -6.1131 C   0  0  0  0  0  0  0  0  0  0  0  0
   15.0911   68.8660   -6.4430 H   0  0  0  0  0  0  0  0  0  0  0  0
 25 28  1  0
 25 24  1  0
 25 26  1  6
 25 27  2  0
  1  4  1  0
  1 24  1  0
  1  2  1  1
  1  3  2  0
  6 11  1  0
  6 12  1  0
 29 36  1  0
 29 37  1  0
  9  7  1  1
  7 13  1  0
 10  8  1  1
  8 14  1  0
 37 28  1  6
  4  5  1  0
 33 30  1  6
 30 38  1  0
 34 31  1  6
 31 39  1  0
 35 32  1  6
 32 40  1  0
 41 42  1  0
 41 43  1  0
 15 19  2  0
 16 22  2  0
 12 17  1  6
 17 19  1  0
 17 20  1  0
 18 19  1  0
 18 22  1  0
 18 23  1  0
  9 10  1  0
  9 11  1  0
 10 12  1  0
 11  5  1  1
 33 34  1  0
 33 35  1  0
 34 36  1  0
 35 37  1  0
 36 42  1  1
 20 21  2  0
 21 22  1  0
M  CHG  2   2  -1  26  -1
M  END
>  <COMPND>  (47) 
    8629 

>  <AUTHOR>  (47) 
    GENERATED BY OPEN BABEL 3.1.1

>  <MASTER>  (47) 
        0    0    0    0    0    0    0    0   58    0   58    0

>  <minimizedAffinity>  (47) 
-7.31133

>  <CNNscore>  (47) 
0.7802548409

>  <CNNaffinity>  (47) 
4.2878046036

>  <CNN_VS>  (47) 
3.3455803394

>  <CNNaffinity_variance>  (47) 
0.1153271347

$$$$
48
     RDKit          3D

 43 45  0  0  0  0  0  0  0  0999 V2000
   20.4989   72.3969   -0.5495 P   0  0  2  0  0  0  0  0  0  0  0  0
   20.4142   70.7878   -0.6949 O   0  0  0  0  0  0  0  0  0  0  0  0
   19.3195   73.0354    0.1234 O   0  0  0  0  0  0  0  0  0  0  0  0
   20.8111   72.9068   -2.0529 O   0  0  0  0  0  0  0  0  0  0  0  0
   20.2036   72.2267   -3.1374 C   0  0  0  0  0  0  0  0  0  0  0  0
   20.6982   70.7682   -4.9819 O   0  0  0  0  0  0  0  0  0  0  0  0
   23.1647   72.4243   -5.3871 O   0  0  0  0  0  0  0  0  0  0  0  0
   21.4812   73.3863   -7.3047 O   0  0  0  0  0  0  0  0  0  0  0  0
   21.8632   72.8318   -4.9685 C   0  0  1  0  0  0  0  0  0  0  0  0
   20.9067   72.8239   -6.1426 C   0  0  2  0  0  0  0  0  0  0  0  0
   21.2894   71.7323   -4.0834 C   0  0  1  0  0  0  0  0  0  0  0  0
   20.6085   71.3421   -6.2962 C   0  0  2  0  0  0  0  0  0  0  0  0
   23.5517   73.1109   -5.9535 H   0  0  0  0  0  0  0  0  0  0  0  0
   21.6522   74.3295   -7.1570 H   0  0  0  0  0  0  0  0  0  0  0  0
   19.9979   71.1746   -9.0488 O   0  0  0  0  0  0  0  0  0  0  0  0
   15.5333   70.4090   -8.1990 O   0  0  0  0  0  0  0  0  0  0  0  0
   19.2949   71.0995   -6.8224 N   0  0  0  0  0  0  0  0  0  0  0  0
   17.7754   70.7933   -8.6234 N   0  0  0  0  0  0  0  0  0  0  0  0
   19.0952   71.0348   -8.2211 C   0  0  0  0  0  0  0  0  0  0  0  0
   18.2216   70.9282   -5.9548 C   0  0  0  0  0  0  0  0  0  0  0  0
   16.9689   70.6999   -6.3545 C   0  0  0  0  0  0  0  0  0  0  0  0
   16.6747   70.6176   -7.7998 C   0  0  0  0  0  0  0  0  0  0  0  0
   17.6123   70.7445   -9.5934 H   0  0  0  0  0  0  0  0  0  0  0  0
   21.9085   72.6195    0.2097 O   0  0  0  0  0  0  0  0  0  0  0  0
   23.4299   72.5345   -0.3299 P   0  0  2  0  0  0  0  0  0  0  0  0
   23.7037   74.0222   -0.9036 O   0  0  0  0  0  0  0  0  0  0  0  0
   23.6702   71.4341   -1.3225 O   0  0  0  0  0  0  0  0  0  0  0  0
   24.3321   72.4399    1.0050 O   0  0  0  0  0  0  0  0  0  0  0  0
   25.8308   70.7669    1.7610 O   0  0  0  0  0  0  0  0  0  0  0  0
   24.1348   71.8162    5.3768 O   0  0  0  0  0  0  0  0  0  0  0  0
   26.8349   72.6034    4.7954 O   0  0  0  0  0  0  0  0  0  0  0  0
   22.4961   71.6980    2.9934 O   0  0  0  0  0  0  0  0  0  0  0  0
   24.6303   72.0449    4.0548 C   0  0  1  0  0  0  0  0  0  0  0  0
   26.1086   71.6522    4.0221 C   0  0  1  0  0  0  0  0  0  0  0  0
   23.8275   71.1996    3.0677 C   0  0  2  0  0  0  0  0  0  0  0  0
   26.6404   71.6157    2.5830 C   0  0  1  0  0  0  0  0  0  0  0  0
   24.4689   71.1915    1.6789 C   0  0  1  0  0  0  0  0  0  0  0  0
   24.6400   72.3504    6.0084 H   0  0  0  0  0  0  0  0  0  0  0  0
   26.4889   72.6169    5.7017 H   0  0  0  0  0  0  0  0  0  0  0  0
   22.1011   71.6977    3.8788 H   0  0  0  0  0  0  0  0  0  0  0  0
   28.2887   70.2474    3.6411 O   0  0  0  0  0  0  0  0  0  0  0  0
   28.0668   71.0747    2.5140 C   0  0  0  0  0  0  0  0  0  0  0  0
   29.1927   69.8957    3.6104 H   0  0  0  0  0  0  0  0  0  0  0  0
 25 28  1  0
 25 24  1  0
 25 26  1  6
 25 27  2  0
  1  4  1  0
  1 24  1  0
  1  2  1  6
  1  3  2  0
  6 11  1  0
  6 12  1  0
 29 36  1  0
 29 37  1  0
  9  7  1  6
  7 13  1  0
 10  8  1  6
  8 14  1  0
 37 28  1  1
  4  5  1  0
 33 30  1  1
 30 38  1  0
 34 31  1  1
 31 39  1  0
 35 32  1  6
 32 40  1  0
 41 42  1  0
 41 43  1  0
 15 19  2  0
 16 22  2  0
 12 17  1  1
 17 19  1  0
 17 20  1  0
 18 19  1  0
 18 22  1  0
 18 23  1  0
  9 10  1  0
  9 11  1  0
 10 12  1  0
 11  5  1  1
 33 34  1  0
 33 35  1  0
 34 36  1  0
 35 37  1  0
 36 42  1  1
 20 21  2  0
 21 22  1  0
M  CHG  2   2  -1  26  -1
M  END
>  <COMPND>  (48) 
    8629 

>  <AUTHOR>  (48) 
    GENERATED BY OPEN BABEL 3.1.1

>  <MASTER>  (48) 
        0    0    0    0    0    0    0    0   58    0   58    0

>  <minimizedAffinity>  (48) 
-7.03592

>  <CNNscore>  (48) 
0.7730404139

>  <CNNaffinity>  (48) 
4.4852919579

>  <CNN_VS>  (48) 
3.4673118591

>  <CNNaffinity_variance>  (48) 
0.0617700890

$$$$
49
     RDKit          3D

 43 45  0  0  0  0  0  0  0  0999 V2000
   20.3735   74.1617   -2.8846 P   0  0  2  0  0  0  0  0  0  0  0  0
   19.2497   74.7451   -1.8775 O   0  0  0  0  0  0  0  0  0  0  0  0
   20.2292   74.5940   -4.3142 O   0  0  0  0  0  0  0  0  0  0  0  0
   20.3353   72.5649   -2.6262 O   0  0  0  0  0  0  0  0  0  0  0  0
   19.8741   71.7223   -3.6678 C   0  0  0  0  0  0  0  0  0  0  0  0
   17.8753   72.0431   -4.9622 O   0  0  0  0  0  0  0  0  0  0  0  0
   16.4646   70.4844   -2.8242 O   0  0  0  0  0  0  0  0  0  0  0  0
   16.7920   68.6283   -4.7951 O   0  0  0  0  0  0  0  0  0  0  0  0
   17.7810   70.3121   -3.3466 C   0  0  1  0  0  0  0  0  0  0  0  0
   17.7219   69.6900   -4.7261 C   0  0  2  0  0  0  0  0  0  0  0  0
   18.3520   71.6928   -3.6445 C   0  0  1  0  0  0  0  0  0  0  0  0
   17.3218   70.8746   -5.5891 C   0  0  2  0  0  0  0  0  0  0  0  0
   16.0794   69.6159   -2.6259 H   0  0  0  0  0  0  0  0  0  0  0  0
   17.0909   67.8992   -4.2295 H   0  0  0  0  0  0  0  0  0  0  0  0
   15.7529   70.2718   -7.8591 O   0  0  0  0  0  0  0  0  0  0  0  0
   19.3965   70.5204  -10.6704 O   0  0  0  0  0  0  0  0  0  0  0  0
   17.8346   70.7758   -6.9265 N   0  0  0  0  0  0  0  0  0  0  0  0
   17.5684   70.3963   -9.2571 N   0  0  0  0  0  0  0  0  0  0  0  0
   16.9623   70.4670   -7.9963 C   0  0  0  0  0  0  0  0  0  0  0  0
   19.1883   70.9845   -7.1669 C   0  0  0  0  0  0  0  0  0  0  0  0
   19.7508   70.9121   -8.3750 C   0  0  0  0  0  0  0  0  0  0  0  0
   18.9092   70.5943   -9.5466 C   0  0  0  0  0  0  0  0  0  0  0  0
   16.9803   70.1821  -10.0174 H   0  0  0  0  0  0  0  0  0  0  0  0
   21.7587   74.6104   -2.1826 O   0  0  0  0  0  0  0  0  0  0  0  0
   23.0695   73.7552   -1.7782 P   0  0  2  0  0  0  0  0  0  0  0  0
   24.2336   74.8759   -1.6986 O   0  0  0  0  0  0  0  0  0  0  0  0
   23.3705   72.6144   -2.7065 O   0  0  0  0  0  0  0  0  0  0  0  0
   22.8164   73.3206   -0.2445 O   0  0  0  0  0  0  0  0  0  0  0  0
   23.4575   71.2294    0.6679 O   0  0  0  0  0  0  0  0  0  0  0  0
   20.2681   72.0816    3.1482 O   0  0  0  0  0  0  0  0  0  0  0  0
   22.9459   72.2541    4.1717 O   0  0  0  0  0  0  0  0  0  0  0  0
   20.1300   72.7537    0.3360 O   0  0  0  0  0  0  0  0  0  0  0  0
   21.4101   72.3862    2.3429 C   0  0  1  0  0  0  0  0  0  0  0  0
   22.6176   71.6483    2.9245 C   0  0  1  0  0  0  0  0  0  0  0  0
   21.1439   71.9345    0.9082 C   0  0  2  0  0  0  0  0  0  0  0  0
   23.8168   71.7089    1.9689 C   0  0  1  0  0  0  0  0  0  0  0  0
   22.4124   71.9871    0.0549 C   0  0  1  0  0  0  0  0  0  0  0  0
   20.4304   72.3664    4.0604 H   0  0  0  0  0  0  0  0  0  0  0  0
   22.1801   72.2096    4.7657 H   0  0  0  0  0  0  0  0  0  0  0  0
   19.3322   72.7116    0.8852 H   0  0  0  0  0  0  0  0  0  0  0  0
   25.8161   70.5555    1.3513 O   0  0  0  0  0  0  0  0  0  0  0  0
   24.9803   70.8480    2.4560 C   0  0  0  0  0  0  0  0  0  0  0  0
   26.5613   70.0084    1.6464 H   0  0  0  0  0  0  0  0  0  0  0  0
 25 28  1  0
 25 24  1  0
 25 26  1  1
 25 27  2  0
  1  4  1  0
  1 24  1  0
  1  2  1  1
  1  3  2  0
  6 11  1  0
  6 12  1  0
 29 36  1  0
 29 37  1  0
  9  7  1  6
  7 13  1  0
 10  8  1  1
  8 14  1  0
 37 28  1  1
  4  5  1  0
 33 30  1  1
 30 38  1  0
 34 31  1  1
 31 39  1  0
 35 32  1  6
 32 40  1  0
 41 42  1  0
 41 43  1  0
 15 19  2  0
 16 22  2  0
 12 17  1  6
 17 19  1  0
 17 20  1  0
 18 19  1  0
 18 22  1  0
 18 23  1  0
  9 10  1  0
  9 11  1  0
 10 12  1  0
 11  5  1  6
 33 34  1  0
 33 35  1  0
 34 36  1  0
 35 37  1  0
 36 42  1  1
 20 21  2  0
 21 22  1  0
M  CHG  2   2  -1  26  -1
M  END
>  <COMPND>  (49) 
    8629 

>  <AUTHOR>  (49) 
    GENERATED BY OPEN BABEL 3.1.1

>  <MASTER>  (49) 
        0    0    0    0    0    0    0    0   58    0   58    0

>  <minimizedAffinity>  (49) 
-6.95050

>  <CNNscore>  (49) 
0.7596220970

>  <CNNaffinity>  (49) 
4.4948368073

>  <CNN_VS>  (49) 
3.4143774509

>  <CNNaffinity_variance>  (49) 
0.0203374922

$$$$
50
     RDKit          3D

 43 45  0  0  0  0  0  0  0  0999 V2000
   22.7575   71.9043   -2.8238 P   0  0  2  0  0  0  0  0  0  0  0  0
   22.0405   70.9050   -1.7728 O   0  0  0  0  0  0  0  0  0  0  0  0
   24.0504   71.4014   -3.3956 O   0  0  0  0  0  0  0  0  0  0  0  0
   22.8412   73.3104   -2.0275 O   0  0  0  0  0  0  0  0  0  0  0  0
   22.3368   73.3693   -0.7047 C   0  0  0  0  0  0  0  0  0  0  0  0
   23.0816   74.2619    1.3982 O   0  0  0  0  0  0  0  0  0  0  0  0
   25.2871   72.2349    1.2644 O   0  0  0  0  0  0  0  0  0  0  0  0
   23.5246   71.0821    2.9968 O   0  0  0  0  0  0  0  0  0  0  0  0
   23.9307   72.1219    0.8369 C   0  0  1  0  0  0  0  0  0  0  0  0
   23.0126   71.9796    2.0328 C   0  0  2  0  0  0  0  0  0  0  0  0
   23.5045   73.4692    0.2672 C   0  0  1  0  0  0  0  0  0  0  0  0
   22.9385   73.4080    2.5450 C   0  0  2  0  0  0  0  0  0  0  0  0
   25.5819   71.3864    1.6318 H   0  0  0  0  0  0  0  0  0  0  0  0
   23.5519   70.1874    2.6234 H   0  0  0  0  0  0  0  0  0  0  0  0
   22.4527   73.0884    5.3090 O   0  0  0  0  0  0  0  0  0  0  0  0
   18.0979   74.5403    4.8978 O   0  0  0  0  0  0  0  0  0  0  0  0
   21.6869   73.6954    3.1871 N   0  0  0  0  0  0  0  0  0  0  0  0
   20.2848   73.8118    5.1020 N   0  0  0  0  0  0  0  0  0  0  0  0
   21.5470   73.4998    4.5809 C   0  0  0  0  0  0  0  0  0  0  0  0
   20.6149   74.1659    2.4366 C   0  0  0  0  0  0  0  0  0  0  0  0
   19.4174   74.4575    2.9485 C   0  0  0  0  0  0  0  0  0  0  0  0
   19.1878   74.2811    4.3970 C   0  0  0  0  0  0  0  0  0  0  0  0
   20.1638   73.6830    6.0708 H   0  0  0  0  0  0  0  0  0  0  0  0
   21.5982   72.1746   -3.9173 O   0  0  0  0  0  0  0  0  0  0  0  0
   21.6131   73.0243   -5.2923 P   0  0  2  0  0  0  0  0  0  0  0  0
   22.8742   72.4071   -6.0963 O   0  0  0  0  0  0  0  0  0  0  0  0
   21.6718   74.5116   -5.0959 O   0  0  0  0  0  0  0  0  0  0  0  0
   20.3186   72.5077   -6.1060 O   0  0  0  0  0  0  0  0  0  0  0  0
   19.1977   70.4230   -5.9858 O   0  0  0  0  0  0  0  0  0  0  0  0
   18.7494   71.1816  -10.0200 O   0  0  0  0  0  0  0  0  0  0  0  0
   16.4796   71.4041   -8.2745 O   0  0  0  0  0  0  0  0  0  0  0  0
   21.2230   71.8760   -8.6863 O   0  0  0  0  0  0  0  0  0  0  0  0
   18.8416   71.5187   -8.6332 C   0  0  1  0  0  0  0  0  0  0  0  0
   17.7125   70.8026   -7.8894 C   0  0  1  0  0  0  0  0  0  0  0  0
   20.2027   71.0742   -8.1009 C   0  0  2  0  0  0  0  0  0  0  0  0
   17.9022   70.8985   -6.3696 C   0  0  1  0  0  0  0  0  0  0  0  0
   20.2688   71.1628   -6.5751 C   0  0  1  0  0  0  0  0  0  0  0  0
   17.8876   71.4615  -10.3642 H   0  0  0  0  0  0  0  0  0  0  0  0
   16.3723   71.3372   -9.2364 H   0  0  0  0  0  0  0  0  0  0  0  0
   21.1707   71.8112   -9.6522 H   0  0  0  0  0  0  0  0  0  0  0  0
   16.0950   69.3461   -6.5521 O   0  0  0  0  0  0  0  0  0  0  0  0
   16.8763   70.0592   -5.6111 C   0  0  0  0  0  0  0  0  0  0  0  0
   15.4379   68.8073   -6.0836 H   0  0  0  0  0  0  0  0  0  0  0  0
 25 28  1  0
 25 24  1  0
 25 26  1  6
 25 27  2  0
  1  4  1  0
  1 24  1  0
  1  2  1  1
  1  3  2  0
  6 11  1  0
  6 12  1  0
 29 36  1  0
 29 37  1  0
  9  7  1  1
  7 13  1  0
 10  8  1  1
  8 14  1  0
 37 28  1  6
  4  5  1  0
 33 30  1  6
 30 38  1  0
 34 31  1  1
 31 39  1  0
 35 32  1  6
 32 40  1  0
 41 42  1  0
 41 43  1  0
 15 19  2  0
 16 22  2  0
 12 17  1  6
 17 19  1  0
 17 20  1  0
 18 19  1  0
 18 22  1  0
 18 23  1  0
  9 10  1  0
  9 11  1  0
 10 12  1  0
 11  5  1  6
 33 34  1  0
 33 35  1  0
 34 36  1  0
 35 37  1  0
 36 42  1  1
 20 21  2  0
 21 22  1  0
M  CHG  2   2  -1  26  -1
M  END
>  <COMPND>  (50) 
    8629 

>  <AUTHOR>  (50) 
    GENERATED BY OPEN BABEL 3.1.1

>  <MASTER>  (50) 
        0    0    0    0    0    0    0    0   58    0   58    0

>  <minimizedAffinity>  (50) 
-6.93038

>  <CNNscore>  (50) 
0.6654812098

>  <CNNaffinity>  (50) 
4.3245005608

>  <CNN_VS>  (50) 
2.8778738976

>  <CNNaffinity_variance>  (50) 
0.0883083493

$$$$
51
     RDKit          3D

 43 45  0  0  0  0  0  0  0  0999 V2000
   23.1111   72.1302   -2.7095 P   0  0  2  0  0  0  0  0  0  0  0  0
   23.4270   73.6901   -2.4188 O   0  0  0  0  0  0  0  0  0  0  0  0
   24.1713   71.4023   -3.4825 O   0  0  0  0  0  0  0  0  0  0  0  0
   21.6399   72.1507   -3.3825 O   0  0  0  0  0  0  0  0  0  0  0  0
   21.4284   72.9677   -4.5208 C   0  0  0  0  0  0  0  0  0  0  0  0
   20.7957   70.8657   -5.4980 O   0  0  0  0  0  0  0  0  0  0  0  0
   21.3406   72.1490   -8.1527 O   0  0  0  0  0  0  0  0  0  0  0  0
   18.6216   72.2689   -7.9815 O   0  0  0  0  0  0  0  0  0  0  0  0
   20.7856   72.7227   -6.9702 C   0  0  1  0  0  0  0  0  0  0  0  0
   19.3595   72.2512   -6.7765 C   0  0  2  0  0  0  0  0  0  0  0  0
   21.4916   72.1016   -5.7714 C   0  0  1  0  0  0  0  0  0  0  0  0
   19.5629   70.8460   -6.2360 C   0  0  2  0  0  0  0  0  0  0  0  0
   20.9056   72.5306   -8.9319 H   0  0  0  0  0  0  0  0  0  0  0  0
   18.5191   73.1845   -8.2846 H   0  0  0  0  0  0  0  0  0  0  0  0
   17.1167   69.7322   -7.1042 O   0  0  0  0  0  0  0  0  0  0  0  0
   15.5628   69.3159   -2.7852 O   0  0  0  0  0  0  0  0  0  0  0  0
   18.5014   70.4372   -5.3599 N   0  0  0  0  0  0  0  0  0  0  0  0
   16.3451   69.5257   -4.9530 N   0  0  0  0  0  0  0  0  0  0  0  0
   17.3130   69.8903   -5.8975 C   0  0  0  0  0  0  0  0  0  0  0  0
   18.6449   70.5798   -3.9840 C   0  0  0  0  0  0  0  0  0  0  0  0
   17.7118   70.2283   -3.0968 C   0  0  0  0  0  0  0  0  0  0  0  0
   16.4403   69.6489   -3.5758 C   0  0  0  0  0  0  0  0  0  0  0  0
   15.5086   69.1427   -5.3044 H   0  0  0  0  0  0  0  0  0  0  0  0
   22.8271   71.5357   -1.2334 O   0  0  0  0  0  0  0  0  0  0  0  0
   21.6449   71.8428   -0.1746 P   0  0  2  0  0  0  0  0  0  0  0  0
   20.6170   70.6138   -0.3994 O   0  0  0  0  0  0  0  0  0  0  0  0
   21.0257   73.2026   -0.3211 O   0  0  0  0  0  0  0  0  0  0  0  0
   22.3071   71.5615    1.2701 O   0  0  0  0  0  0  0  0  0  0  0  0
   23.2064   73.5336    2.2286 O   0  0  0  0  0  0  0  0  0  0  0  0
   24.7393   70.7567    4.8724 O   0  0  0  0  0  0  0  0  0  0  0  0
   22.6037   72.4842    5.7106 O   0  0  0  0  0  0  0  0  0  0  0  0
   24.5955   70.1360    2.0486 O   0  0  0  0  0  0  0  0  0  0  0  0
   23.7661   71.3090    3.9819 C   0  0  1  0  0  0  0  0  0  0  0  0
   23.3530   72.6823    4.5150 C   0  0  1  0  0  0  0  0  0  0  0  0
   24.3792   71.4353    2.5885 C   0  0  2  0  0  0  0  0  0  0  0  0
   22.5171   73.4492    3.4814 C   0  0  1  0  0  0  0  0  0  0  0  0
   23.4907   72.2571    1.6528 C   0  0  1  0  0  0  0  0  0  0  0  0
   24.3562   70.6734    5.7588 H   0  0  0  0  0  0  0  0  0  0  0  0
   23.1427   71.9985    6.3547 H   0  0  0  0  0  0  0  0  0  0  0  0
   25.1595   69.6260    2.6500 H   0  0  0  0  0  0  0  0  0  0  0  0
   23.4510   75.4951    4.2883 O   0  0  0  0  0  0  0  0  0  0  0  0
   22.2275   74.8805    3.9284 C   0  0  0  0  0  0  0  0  0  0  0  0
   23.2822   76.4068    4.5746 H   0  0  0  0  0  0  0  0  0  0  0  0
 25 28  1  0
 25 24  1  0
 25 26  1  6
 25 27  2  0
  1  4  1  0
  1 24  1  0
  1  2  1  1
  1  3  2  0
  6 11  1  0
  6 12  1  0
 29 36  1  0
 29 37  1  0
  9  7  1  6
  7 13  1  0
 10  8  1  6
  8 14  1  0
 37 28  1  1
  4  5  1  0
 33 30  1  1
 30 38  1  0
 34 31  1  1
 31 39  1  0
 35 32  1  6
 32 40  1  0
 41 42  1  0
 41 43  1  0
 15 19  2  0
 16 22  2  0
 12 17  1  1
 17 19  1  0
 17 20  1  0
 18 19  1  0
 18 22  1  0
 18 23  1  0
  9 10  1  0
  9 11  1  0
 10 12  1  0
 11  5  1  1
 33 34  1  0
 33 35  1  0
 34 36  1  0
 35 37  1  0
 36 42  1  1
 20 21  2  0
 21 22  1  0
M  CHG  2   2  -1  26  -1
M  END
>  <COMPND>  (51) 
    8629 

>  <AUTHOR>  (51) 
    GENERATED BY OPEN BABEL 3.1.1

>  <MASTER>  (51) 
        0    0    0    0    0    0    0    0   58    0   58    0

>  <minimizedAffinity>  (51) 
-7.53973

>  <CNNscore>  (51) 
0.5732755661

>  <CNNaffinity>  (51) 
4.1723055840

>  <CNN_VS>  (51) 
2.3918807507

>  <CNNaffinity_variance>  (51) 
0.2950709462

$$$$
52
     RDKit          3D

 43 45  0  0  0  0  0  0  0  0999 V2000
   20.3086   71.4848   -2.4695 P   0  0  2  0  0  0  0  0  0  0  0  0
   20.7901   70.3183   -3.4819 O   0  0  0  0  0  0  0  0  0  0  0  0
   21.0926   72.7613   -2.5545 O   0  0  0  0  0  0  0  0  0  0  0  0
   20.2970   70.7623   -1.0219 O   0  0  0  0  0  0  0  0  0  0  0  0
   21.3866   70.9885   -0.1446 C   0  0  0  0  0  0  0  0  0  0  0  0
   21.5410   71.4348    2.2114 O   0  0  0  0  0  0  0  0  0  0  0  0
   20.4997   74.1728    1.5709 O   0  0  0  0  0  0  0  0  0  0  0  0
   23.1755   74.6084    1.8652 O   0  0  0  0  0  0  0  0  0  0  0  0
   21.3829   73.3442    0.8167 C   0  0  1  0  0  0  0  0  0  0  0  0
   22.7566   73.3230    1.4539 C   0  0  2  0  0  0  0  0  0  0  0  0
   20.9309   71.8992    0.9873 C   0  0  1  0  0  0  0  0  0  0  0  0
   22.5474   72.3746    2.6222 C   0  0  2  0  0  0  0  0  0  0  0  0
   20.7682   75.1007    1.4771 H   0  0  0  0  0  0  0  0  0  0  0  0
   23.2948   75.1743    1.0866 H   0  0  0  0  0  0  0  0  0  0  0  0
   24.3939   71.3563    0.7429 O   0  0  0  0  0  0  0  0  0  0  0  0
   27.0973   69.6377    4.0563 O   0  0  0  0  0  0  0  0  0  0  0  0
   23.7427   71.6573    2.9661 N   0  0  0  0  0  0  0  0  0  0  0  0
   25.7386   70.5015    2.3943 N   0  0  0  0  0  0  0  0  0  0  0  0
   24.6024   71.1874    1.9461 C   0  0  0  0  0  0  0  0  0  0  0  0
   24.0523   71.4266    4.3021 C   0  0  0  0  0  0  0  0  0  0  0  0
   25.1390   70.7697    4.7128 C   0  0  0  0  0  0  0  0  0  0  0  0
   26.0892   70.2458    3.7105 C   0  0  0  0  0  0  0  0  0  0  0  0
   26.3519   70.1646    1.7014 H   0  0  0  0  0  0  0  0  0  0  0  0
   18.7362   71.6370   -2.8121 O   0  0  0  0  0  0  0  0  0  0  0  0
   17.6150   70.5282   -3.1679 P   0  0  2  0  0  0  0  0  0  0  0  0
   16.2235   71.3040   -2.8864 O   0  0  0  0  0  0  0  0  0  0  0  0
   17.7668   69.2368   -2.4175 O   0  0  0  0  0  0  0  0  0  0  0  0
   17.6817   70.3805   -4.7737 O   0  0  0  0  0  0  0  0  0  0  0  0
   19.0445   71.5702   -6.3048 O   0  0  0  0  0  0  0  0  0  0  0  0
   15.6921   71.0630   -8.6616 O   0  0  0  0  0  0  0  0  0  0  0  0
   18.0643   69.5453   -9.2250 O   0  0  0  0  0  0  0  0  0  0  0  0
   15.3999   71.6211   -5.8363 O   0  0  0  0  0  0  0  0  0  0  0  0
   16.6562   70.6957   -7.6711 C   0  0  1  0  0  0  0  0  0  0  0  0
   18.0344   70.6572   -8.3344 C   0  0  1  0  0  0  0  0  0  0  0  0
   16.6307   71.7261   -6.5437 C   0  0  2  0  0  0  0  0  0  0  0  0
   19.1497   70.5335   -7.2876 C   0  0  1  0  0  0  0  0  0  0  0  0
   17.8098   71.5446   -5.5860 C   0  0  1  0  0  0  0  0  0  0  0  0
   15.7028   70.4125   -9.3802 H   0  0  0  0  0  0  0  0  0  0  0  0
   17.3549   69.6354   -9.8806 H   0  0  0  0  0  0  0  0  0  0  0  0
   14.6614   71.7381   -6.4535 H   0  0  0  0  0  0  0  0  0  0  0  0
   20.7657   72.0083   -8.2481 O   0  0  0  0  0  0  0  0  0  0  0  0
   20.5375   70.6516   -7.9138 C   0  0  0  0  0  0  0  0  0  0  0  0
   21.6455   72.0987   -8.6474 H   0  0  0  0  0  0  0  0  0  0  0  0
 25 28  1  0
 25 24  1  0
 25 26  1  6
 25 27  2  0
  1  4  1  0
  1 24  1  0
  1  2  1  6
  1  3  2  0
  6 11  1  0
  6 12  1  0
 29 36  1  0
 29 37  1  0
  9  7  1  1
  7 13  1  0
 10  8  1  1
  8 14  1  0
 37 28  1  6
  4  5  1  0
 33 30  1  6
 30 38  1  0
 34 31  1  6
 31 39  1  0
 35 32  1  1
 32 40  1  0
 41 42  1  0
 41 43  1  0
 15 19  2  0
 16 22  2  0
 12 17  1  6
 17 19  1  0
 17 20  1  0
 18 19  1  0
 18 22  1  0
 18 23  1  0
  9 10  1  0
  9 11  1  0
 10 12  1  0
 11  5  1  6
 33 34  1  0
 33 35  1  0
 34 36  1  0
 35 37  1  0
 36 42  1  6
 20 21  2  0
 21 22  1  0
M  CHG  2   2  -1  26  -1
M  END
>  <COMPND>  (52) 
    8629 

>  <AUTHOR>  (52) 
    GENERATED BY OPEN BABEL 3.1.1

>  <MASTER>  (52) 
        0    0    0    0    0    0    0    0   58    0   58    0

>  <minimizedAffinity>  (52) 
-7.58390

>  <CNNscore>  (52) 
0.5409837961

>  <CNNaffinity>  (52) 
4.2554945946

>  <CNN_VS>  (52) 
2.3021535873

>  <CNNaffinity_variance>  (52) 
0.0727843195

$$$$
53
     RDKit          3D

 43 45  0  0  0  0  0  0  0  0999 V2000
   22.0010   72.8104   -5.8523 P   0  0  2  0  0  0  0  0  0  0  0  0
   21.6014   74.3751   -5.9497 O   0  0  0  0  0  0  0  0  0  0  0  0
   23.1534   72.3954   -6.7190 O   0  0  0  0  0  0  0  0  0  0  0  0
   20.6059   72.0359   -6.1200 O   0  0  0  0  0  0  0  0  0  0  0  0
   19.9463   72.2393   -7.3574 C   0  0  0  0  0  0  0  0  0  0  0  0
   18.8244   70.2219   -6.6904 O   0  0  0  0  0  0  0  0  0  0  0  0
   18.1145   69.8820   -9.5837 O   0  0  0  0  0  0  0  0  0  0  0  0
   15.8078   70.8721   -8.5180 O   0  0  0  0  0  0  0  0  0  0  0  0
   18.2123   71.0787   -8.8133 C   0  0  1  0  0  0  0  0  0  0  0  0
   17.0252   71.2025   -7.8811 C   0  0  2  0  0  0  0  0  0  0  0  0
   19.3689   70.9140   -7.8353 C   0  0  1  0  0  0  0  0  0  0  0  0
   17.3899   70.2268   -6.7751 C   0  0  2  0  0  0  0  0  0  0  0  0
   17.3826   69.9635  -10.2159 H   0  0  0  0  0  0  0  0  0  0  0  0
   15.6197   71.5218   -9.2132 H   0  0  0  0  0  0  0  0  0  0  0  0
   17.0341   68.4709   -4.5915 O   0  0  0  0  0  0  0  0  0  0  0  0
   15.3040   71.8223   -1.9427 O   0  0  0  0  0  0  0  0  0  0  0  0
   16.8490   70.6139   -5.5028 N   0  0  0  0  0  0  0  0  0  0  0  0
   16.1731   70.1411   -3.2743 N   0  0  0  0  0  0  0  0  0  0  0  0
   16.7110   69.6546   -4.4727 C   0  0  0  0  0  0  0  0  0  0  0  0
   16.4621   71.9320   -5.2863 C   0  0  0  0  0  0  0  0  0  0  0  0
   15.9497   72.3796   -4.1382 C   0  0  0  0  0  0  0  0  0  0  0  0
   15.7724   71.4415   -3.0110 C   0  0  0  0  0  0  0  0  0  0  0  0
   16.0673   69.4907   -2.5425 H   0  0  0  0  0  0  0  0  0  0  0  0
   22.2385   72.5939   -4.2681 O   0  0  0  0  0  0  0  0  0  0  0  0
   23.5996   72.5190   -3.3992 P   0  0  2  0  0  0  0  0  0  0  0  0
   24.5748   73.5721   -4.1459 O   0  0  0  0  0  0  0  0  0  0  0  0
   24.1685   71.1362   -3.2648 O   0  0  0  0  0  0  0  0  0  0  0  0
   23.2293   73.2291   -1.9979 O   0  0  0  0  0  0  0  0  0  0  0  0
   20.9417   72.6416   -2.1935 O   0  0  0  0  0  0  0  0  0  0  0  0
   21.1824   72.9994    1.9132 O   0  0  0  0  0  0  0  0  0  0  0  0
   20.9520   70.3936    0.7281 O   0  0  0  0  0  0  0  0  0  0  0  0
   22.6280   74.8456    0.2158 O   0  0  0  0  0  0  0  0  0  0  0  0
   21.6570   72.6758    0.6035 C   0  0  1  0  0  0  0  0  0  0  0  0
   20.7375   71.6060    0.0110 C   0  0  1  0  0  0  0  0  0  0  0  0
   21.6408   73.9364   -0.2590 C   0  0  2  0  0  0  0  0  0  0  0  0
   21.0187   71.3999   -1.4835 C   0  0  1  0  0  0  0  0  0  0  0  0
   21.8826   73.6143   -1.7347 C   0  0  1  0  0  0  0  0  0  0  0  0
   21.1906   72.2033    2.4661 H   0  0  0  0  0  0  0  0  0  0  0  0
   20.7715   70.5375    1.6703 H   0  0  0  0  0  0  0  0  0  0  0  0
   22.4637   75.0418    1.1509 H   0  0  0  0  0  0  0  0  0  0  0  0
   18.8094   70.4959   -1.3808 O   0  0  0  0  0  0  0  0  0  0  0  0
   20.0098   70.4531   -2.1300 C   0  0  0  0  0  0  0  0  0  0  0  0
   18.1578   69.8983   -1.7808 H   0  0  0  0  0  0  0  0  0  0  0  0
 25 28  1  0
 25 24  1  0
 25 26  1  6
 25 27  2  0
  1  4  1  0
  1 24  1  0
  1  2  1  1
  1  3  2  0
  6 11  1  0
  6 12  1  0
 29 36  1  0
 29 37  1  0
  9  7  1  6
  7 13  1  0
 10  8  1  6
  8 14  1  0
 37 28  1  1
  4  5  1  0
 33 30  1  1
 30 38  1  0
 34 31  1  1
 31 39  1  0
 35 32  1  1
 32 40  1  0
 41 42  1  0
 41 43  1  0
 15 19  2  0
 16 22  2  0
 12 17  1  1
 17 19  1  0
 17 20  1  0
 18 19  1  0
 18 22  1  0
 18 23  1  0
  9 10  1  0
  9 11  1  0
 10 12  1  0
 11  5  1  1
 33 34  1  0
 33 35  1  0
 34 36  1  0
 35 37  1  0
 36 42  1  6
 20 21  2  0
 21 22  1  0
M  CHG  2   2  -1  26  -1
M  END
>  <COMPND>  (53) 
    8629 

>  <AUTHOR>  (53) 
    GENERATED BY OPEN BABEL 3.1.1

>  <MASTER>  (53) 
        0    0    0    0    0    0    0    0   58    0   58    0

>  <minimizedAffinity>  (53) 
-7.58011

>  <CNNscore>  (53) 
0.5274963379

>  <CNNaffinity>  (53) 
4.2491197586

>  <CNN_VS>  (53) 
2.2413949966

>  <CNNaffinity_variance>  (53) 
0.5196167231

$$$$
54
     RDKit          3D

 43 45  0  0  0  0  0  0  0  0999 V2000
   23.1378   72.4054   -2.9249 P   0  0  2  0  0  0  0  0  0  0  0  0
   23.4021   73.9926   -2.7568 O   0  0  0  0  0  0  0  0  0  0  0  0
   24.2011   71.6621   -3.6788 O   0  0  0  0  0  0  0  0  0  0  0  0
   21.6471   72.3237   -3.5485 O   0  0  0  0  0  0  0  0  0  0  0  0
   21.3644   73.0634   -4.7236 C   0  0  0  0  0  0  0  0  0  0  0  0
   20.7910   70.8964   -5.5892 O   0  0  0  0  0  0  0  0  0  0  0  0
   21.3033   72.0534   -8.3076 O   0  0  0  0  0  0  0  0  0  0  0  0
   18.5819   72.1069   -8.1421 O   0  0  0  0  0  0  0  0  0  0  0  0
   20.7313   72.6727   -7.1567 C   0  0  1  0  0  0  0  0  0  0  0  0
   19.3185   72.1728   -6.9380 C   0  0  2  0  0  0  0  0  0  0  0  0
   21.4528   72.1350   -5.9271 C   0  0  1  0  0  0  0  0  0  0  0  0
   19.5600   70.8040   -6.3247 C   0  0  2  0  0  0  0  0  0  0  0  0
   20.8588   72.3814   -9.1056 H   0  0  0  0  0  0  0  0  0  0  0  0
   18.4545   73.0022   -8.4928 H   0  0  0  0  0  0  0  0  0  0  0  0
   17.0878   69.7107   -7.1439 O   0  0  0  0  0  0  0  0  0  0  0  0
   15.6028   69.3403   -2.7966 O   0  0  0  0  0  0  0  0  0  0  0  0
   18.5092   70.4125   -5.4280 N   0  0  0  0  0  0  0  0  0  0  0  0
   16.3505   69.5270   -4.9786 N   0  0  0  0  0  0  0  0  0  0  0  0
   17.3062   69.8748   -5.9418 C   0  0  0  0  0  0  0  0  0  0  0  0
   18.6773   70.5629   -4.0558 C   0  0  0  0  0  0  0  0  0  0  0  0
   17.7557   70.2275   -3.1506 C   0  0  0  0  0  0  0  0  0  0  0  0
   16.4702   69.6585   -3.6042 C   0  0  0  0  0  0  0  0  0  0  0  0
   15.5042   69.1507   -5.3133 H   0  0  0  0  0  0  0  0  0  0  0  0
   22.9220   71.9095   -1.4016 O   0  0  0  0  0  0  0  0  0  0  0  0
   21.9041   72.4186   -0.2536 P   0  0  2  0  0  0  0  0  0  0  0  0
   20.9536   71.1333   -0.0041 O   0  0  0  0  0  0  0  0  0  0  0  0
   21.1643   73.6777   -0.6015 O   0  0  0  0  0  0  0  0  0  0  0  0
   22.8092   72.5210    1.0788 O   0  0  0  0  0  0  0  0  0  0  0  0
   24.2983   70.9958    2.1146 O   0  0  0  0  0  0  0  0  0  0  0  0
   22.5018   72.5583    5.4883 O   0  0  0  0  0  0  0  0  0  0  0  0
   25.2110   73.2770    4.8626 O   0  0  0  0  0  0  0  0  0  0  0  0
   20.9267   72.0670    3.1098 O   0  0  0  0  0  0  0  0  0  0  0  0
   23.0301   72.5911    4.1597 C   0  0  1  0  0  0  0  0  0  0  0  0
   24.5113   72.2131    4.2232 C   0  0  1  0  0  0  0  0  0  0  0  0
   22.2588   71.5990    3.2912 C   0  0  2  0  0  0  0  0  0  0  0  0
   25.0807   71.9666    2.8196 C   0  0  1  0  0  0  0  0  0  0  0  0
   22.9363   71.3893    1.9358 C   0  0  1  0  0  0  0  0  0  0  0  0
   22.9869   73.1863    6.0449 H   0  0  0  0  0  0  0  0  0  0  0  0
   24.8414   73.4228    5.7477 H   0  0  0  0  0  0  0  0  0  0  0  0
   20.5087   72.1955    3.9750 H   0  0  0  0  0  0  0  0  0  0  0  0
   26.4847   70.1159    3.3788 O   0  0  0  0  0  0  0  0  0  0  0  0
   26.5119   71.4360    2.8681 C   0  0  0  0  0  0  0  0  0  0  0  0
   27.3888   69.7652    3.4151 H   0  0  0  0  0  0  0  0  0  0  0  0
 25 28  1  0
 25 24  1  0
 25 26  1  1
 25 27  2  0
  1  4  1  0
  1 24  1  0
  1  2  1  1
  1  3  2  0
  6 11  1  0
  6 12  1  0
 29 36  1  0
 29 37  1  0
  9  7  1  6
  7 13  1  0
 10  8  1  6
  8 14  1  0
 37 28  1  6
  4  5  1  0
 33 30  1  1
 30 38  1  0
 34 31  1  6
 31 39  1  0
 35 32  1  6
 32 40  1  0
 41 42  1  0
 41 43  1  0
 15 19  2  0
 16 22  2  0
 12 17  1  1
 17 19  1  0
 17 20  1  0
 18 19  1  0
 18 22  1  0
 18 23  1  0
  9 10  1  0
  9 11  1  0
 10 12  1  0
 11  5  1  1
 33 34  1  0
 33 35  1  0
 34 36  1  0
 35 37  1  0
 36 42  1  1
 20 21  2  0
 21 22  1  0
M  CHG  2   2  -1  26  -1
M  END
>  <COMPND>  (54) 
    8629 

>  <AUTHOR>  (54) 
    GENERATED BY OPEN BABEL 3.1.1

>  <MASTER>  (54) 
        0    0    0    0    0    0    0    0   58    0   58    0

>  <minimizedAffinity>  (54) 
-7.47709

>  <CNNscore>  (54) 
0.5163583159

>  <CNNaffinity>  (54) 
4.1423625946

>  <CNN_VS>  (54) 
2.1389434338

>  <CNNaffinity_variance>  (54) 
0.2255981416

$$$$
55
     RDKit          3D

 43 45  0  0  0  0  0  0  0  0999 V2000
   22.9894   71.8880   -3.0459 P   0  0  2  0  0  0  0  0  0  0  0  0
   24.2410   70.8636   -3.0858 O   0  0  0  0  0  0  0  0  0  0  0  0
   22.9364   72.8683   -4.1807 O   0  0  0  0  0  0  0  0  0  0  0  0
   23.0621   72.5325   -1.5636 O   0  0  0  0  0  0  0  0  0  0  0  0
   23.8391   71.8750   -0.5779 C   0  0  0  0  0  0  0  0  0  0  0  0
   23.7195   70.4530    1.3554 O   0  0  0  0  0  0  0  0  0  0  0  0
   20.8818   71.3817    1.6311 O   0  0  0  0  0  0  0  0  0  0  0  0
   22.1841   72.8890    3.4935 O   0  0  0  0  0  0  0  0  0  0  0  0
   22.0304   72.1076    1.1963 C   0  0  1  0  0  0  0  0  0  0  0  0
   22.9214   72.4376    2.3757 C   0  0  2  0  0  0  0  0  0  0  0  0
   22.9082   71.1581    0.3905 C   0  0  1  0  0  0  0  0  0  0  0  0
   23.6133   71.1091    2.6294 C   0  0  2  0  0  0  0  0  0  0  0  0
   20.3058   71.9675    2.1478 H   0  0  0  0  0  0  0  0  0  0  0  0
   21.7631   73.7369    3.2823 H   0  0  0  0  0  0  0  0  0  0  0  0
   24.1768   71.2745    5.3922 O   0  0  0  0  0  0  0  0  0  0  0  0
   28.6980   71.7399    4.6286 O   0  0  0  0  0  0  0  0  0  0  0  0
   24.9288   71.2732    3.1805 N   0  0  0  0  0  0  0  0  0  0  0  0
   26.4276   71.5059    5.0097 N   0  0  0  0  0  0  0  0  0  0  0  0
   25.1033   71.3460    4.5822 C   0  0  0  0  0  0  0  0  0  0  0  0
   26.0289   71.3598    2.3342 C   0  0  0  0  0  0  0  0  0  0  0  0
   27.2851   71.5136    2.7577 C   0  0  0  0  0  0  0  0  0  0  0  0
   27.5540   71.5985    4.2077 C   0  0  0  0  0  0  0  0  0  0  0  0
   26.5733   71.5595    5.9822 H   0  0  0  0  0  0  0  0  0  0  0  0
   21.7138   70.8998   -2.9503 O   0  0  0  0  0  0  0  0  0  0  0  0
   20.2052   71.1610   -2.4318 P   0  0  2  0  0  0  0  0  0  0  0  0
   20.0698   72.7724   -2.4806 O   0  0  0  0  0  0  0  0  0  0  0  0
   19.9012   70.5543   -1.0926 O   0  0  0  0  0  0  0  0  0  0  0  0
   19.2637   70.6362   -3.6331 O   0  0  0  0  0  0  0  0  0  0  0  0
   17.6628   72.0411   -4.6724 O   0  0  0  0  0  0  0  0  0  0  0  0
   15.9717   68.3714   -5.5234 O   0  0  0  0  0  0  0  0  0  0  0  0
   17.2255   69.8761   -7.6238 O   0  0  0  0  0  0  0  0  0  0  0  0
   17.2347   68.8191   -2.9575 O   0  0  0  0  0  0  0  0  0  0  0  0
   17.0432   69.2944   -5.3109 C   0  0  1  0  0  0  0  0  0  0  0  0
   16.9198   70.4181   -6.3419 C   0  0  1  0  0  0  0  0  0  0  0  0
   16.9470   69.8531   -3.8925 C   0  0  2  0  0  0  0  0  0  0  0  0
   17.8681   71.5788   -6.0125 C   0  0  1  0  0  0  0  0  0  0  0  0
   17.8963   71.0346   -3.6852 C   0  0  1  0  0  0  0  0  0  0  0  0
   16.0273   68.0125   -6.4221 H   0  0  0  0  0  0  0  0  0  0  0  0
   16.6199   69.1439   -7.8194 H   0  0  0  0  0  0  0  0  0  0  0  0
   16.6269   68.0771   -3.0988 H   0  0  0  0  0  0  0  0  0  0  0  0
   18.1215   72.4388   -8.2272 O   0  0  0  0  0  0  0  0  0  0  0  0
   17.6496   72.7755   -6.9356 C   0  0  0  0  0  0  0  0  0  0  0  0
   17.9885   73.1911   -8.8257 H   0  0  0  0  0  0  0  0  0  0  0  0
 25 28  1  0
 25 24  1  0
 25 26  1  1
 25 27  2  0
  1  4  1  0
  1 24  1  0
  1  2  1  6
  1  3  2  0
  6 11  1  0
  6 12  1  0
 29 36  1  0
 29 37  1  0
  9  7  1  1
  7 13  1  0
 10  8  1  1
  8 14  1  0
 37 28  1  6
  4  5  1  0
 33 30  1  6
 30 38  1  0
 34 31  1  6
 31 39  1  0
 35 32  1  1
 32 40  1  0
 41 42  1  0
 41 43  1  0
 15 19  2  0
 16 22  2  0
 12 17  1  6
 17 19  1  0
 17 20  1  0
 18 19  1  0
 18 22  1  0
 18 23  1  0
  9 10  1  0
  9 11  1  0
 10 12  1  0
 11  5  1  6
 33 34  1  0
 33 35  1  0
 34 36  1  0
 35 37  1  0
 36 42  1  6
 20 21  2  0
 21 22  1  0
M  CHG  2   2  -1  26  -1
M  END
>  <COMPND>  (55) 
    8629 

>  <AUTHOR>  (55) 
    GENERATED BY OPEN BABEL 3.1.1

>  <MASTER>  (55) 
        0    0    0    0    0    0    0    0   58    0   58    0

>  <minimizedAffinity>  (55) 
-7.66695

>  <CNNscore>  (55) 
0.5095411539

>  <CNNaffinity>  (55) 
4.1290936470

>  <CNN_VS>  (55) 
2.1039431095

>  <CNNaffinity_variance>  (55) 
0.2060726881

$$$$
56
     RDKit          3D

 43 45  0  0  0  0  0  0  0  0999 V2000
   21.8623   72.5624   -5.7422 P   0  0  2  0  0  0  0  0  0  0  0  0
   21.2208   73.9275   -5.1571 O   0  0  0  0  0  0  0  0  0  0  0  0
   23.0013   72.7568   -6.6994 O   0  0  0  0  0  0  0  0  0  0  0  0
   20.5878   71.7517   -6.3221 O   0  0  0  0  0  0  0  0  0  0  0  0
   20.2755   71.8778   -7.6985 C   0  0  0  0  0  0  0  0  0  0  0  0
   18.9336   70.0185   -6.9800 O   0  0  0  0  0  0  0  0  0  0  0  0
   18.0568   69.7877   -9.8381 O   0  0  0  0  0  0  0  0  0  0  0  0
   15.9474   71.0616   -8.6702 O   0  0  0  0  0  0  0  0  0  0  0  0
   18.3427   70.9579   -9.0738 C   0  0  1  0  0  0  0  0  0  0  0  0
   17.2245   71.2290   -8.0891 C   0  0  2  0  0  0  0  0  0  0  0  0
   19.5110   70.6404   -8.1488 C   0  0  1  0  0  0  0  0  0  0  0  0
   17.5095   70.2088   -7.0000 C   0  0  2  0  0  0  0  0  0  0  0  0
   17.3140   69.9662  -10.4367 H   0  0  0  0  0  0  0  0  0  0  0  0
   15.8137   71.7337   -9.3566 H   0  0  0  0  0  0  0  0  0  0  0  0
   16.7082   68.4933   -4.9040 O   0  0  0  0  0  0  0  0  0  0  0  0
   15.8822   72.0362   -2.0743 O   0  0  0  0  0  0  0  0  0  0  0  0
   17.0805   70.6560   -5.7048 N   0  0  0  0  0  0  0  0  0  0  0  0
   16.2978   70.2588   -3.4967 N   0  0  0  0  0  0  0  0  0  0  0  0
   16.6980   69.7127   -4.7229 C   0  0  0  0  0  0  0  0  0  0  0  0
   17.0427   72.0164   -5.4189 C   0  0  0  0  0  0  0  0  0  0  0  0
   16.6573   72.5211   -4.2450 C   0  0  0  0  0  0  0  0  0  0  0  0
   16.2418   71.6032   -3.1647 C   0  0  0  0  0  0  0  0  0  0  0  0
   16.0264   69.6206   -2.7975 H   0  0  0  0  0  0  0  0  0  0  0  0
   22.2406   71.7363   -4.4053 O   0  0  0  0  0  0  0  0  0  0  0  0
   23.3069   72.0480   -3.2310 P   0  0  2  0  0  0  0  0  0  0  0  0
   23.9990   73.4280   -3.7149 O   0  0  0  0  0  0  0  0  0  0  0  0
   24.2735   70.9305   -2.9650 O   0  0  0  0  0  0  0  0  0  0  0  0
   22.4043   72.4682   -1.9606 O   0  0  0  0  0  0  0  0  0  0  0  0
   21.7939   71.2828   -0.0014 O   0  0  0  0  0  0  0  0  0  0  0  0
   18.2340   73.2482   -0.7195 O   0  0  0  0  0  0  0  0  0  0  0  0
   19.8961   74.0795    1.4702 O   0  0  0  0  0  0  0  0  0  0  0  0
   19.7847   72.2140   -2.9343 O   0  0  0  0  0  0  0  0  0  0  0  0
   19.6557   73.0943   -0.6960 C   0  0  1  0  0  0  0  0  0  0  0  0
   20.0893   72.8635    0.7529 C   0  0  1  0  0  0  0  0  0  0  0  0
   20.0432   71.9025   -1.5695 C   0  0  2  0  0  0  0  0  0  0  0  0
   21.5583   72.4261    0.8286 C   0  0  1  0  0  0  0  0  0  0  0  0
   21.5122   71.5191   -1.3823 C   0  0  1  0  0  0  0  0  0  0  0  0
   17.9814   74.0036   -0.1672 H   0  0  0  0  0  0  0  0  0  0  0  0
   18.9646   74.3449    1.4141 H   0  0  0  0  0  0  0  0  0  0  0  0
   18.8515   72.4547   -3.0397 H   0  0  0  0  0  0  0  0  0  0  0  0
   20.7971   71.9184    3.0359 O   0  0  0  0  0  0  0  0  0  0  0  0
   21.9673   72.0387    2.2481 C   0  0  0  0  0  0  0  0  0  0  0  0
   21.0420   71.6719    3.9419 H   0  0  0  0  0  0  0  0  0  0  0  0
 25 28  1  0
 25 24  1  0
 25 26  1  6
 25 27  2  0
  1  4  1  0
  1 24  1  0
  1  2  1  1
  1  3  2  0
  6 11  1  0
  6 12  1  0
 29 36  1  0
 29 37  1  0
  9  7  1  6
  7 13  1  0
 10  8  1  6
  8 14  1  0
 37 28  1  1
  4  5  1  0
 33 30  1  1
 30 38  1  0
 34 31  1  1
 31 39  1  0
 35 32  1  6
 32 40  1  0
 41 42  1  0
 41 43  1  0
 15 19  2  0
 16 22  2  0
 12 17  1  1
 17 19  1  0
 17 20  1  0
 18 19  1  0
 18 22  1  0
 18 23  1  0
  9 10  1  0
  9 11  1  0
 10 12  1  0
 11  5  1  1
 33 34  1  0
 33 35  1  0
 34 36  1  0
 35 37  1  0
 36 42  1  1
 20 21  2  0
 21 22  1  0
M  CHG  2   2  -1  26  -1
M  END
>  <COMPND>  (56) 
    8629 

>  <AUTHOR>  (56) 
    GENERATED BY OPEN BABEL 3.1.1

>  <MASTER>  (56) 
        0    0    0    0    0    0    0    0   58    0   58    0

>  <minimizedAffinity>  (56) 
-7.42505

>  <CNNscore>  (56) 
0.5032889843

>  <CNNaffinity>  (56) 
4.1735143661

>  <CNN_VS>  (56) 
2.1004838943

>  <CNNaffinity_variance>  (56) 
0.5912202001

$$$$
57
     RDKit          3D

 43 45  0  0  0  0  0  0  0  0999 V2000
   23.1829   71.8095   -2.2949 P   0  0  2  0  0  0  0  0  0  0  0  0
   23.6271   73.3533   -2.1031 O   0  0  0  0  0  0  0  0  0  0  0  0
   24.1573   70.9596   -3.0562 O   0  0  0  0  0  0  0  0  0  0  0  0
   21.6956   71.9086   -2.9242 O   0  0  0  0  0  0  0  0  0  0  0  0
   21.1506   70.7628   -3.5549 C   0  0  0  0  0  0  0  0  0  0  0  0
   18.9975   71.7134   -3.0709 O   0  0  0  0  0  0  0  0  0  0  0  0
   17.9986   68.8916   -2.8975 O   0  0  0  0  0  0  0  0  0  0  0  0
   17.1761   69.6618   -5.3808 O   0  0  0  0  0  0  0  0  0  0  0  0
   18.9825   69.4485   -3.7676 C   0  0  1  0  0  0  0  0  0  0  0  0
   18.3211   70.2888   -4.8399 C   0  0  2  0  0  0  0  0  0  0  0  0
   19.7657   70.4934   -2.9826 C   0  0  1  0  0  0  0  0  0  0  0  0
   17.9870   71.5619   -4.0811 C   0  0  2  0  0  0  0  0  0  0  0  0
   17.4858   68.2211   -3.3766 H   0  0  0  0  0  0  0  0  0  0  0  0
   17.4408   68.8573   -5.8535 H   0  0  0  0  0  0  0  0  0  0  0  0
   15.7687   72.4591   -5.5819 O   0  0  0  0  0  0  0  0  0  0  0  0
   18.1361   76.0241   -7.2930 O   0  0  0  0  0  0  0  0  0  0  0  0
   17.9957   72.7220   -4.9271 N   0  0  0  0  0  0  0  0  0  0  0  0
   16.9492   74.2336   -6.4325 N   0  0  0  0  0  0  0  0  0  0  0  0
   16.8288   73.0858   -5.6387 C   0  0  0  0  0  0  0  0  0  0  0  0
   19.1520   73.4855   -5.0443 C   0  0  0  0  0  0  0  0  0  0  0  0
   19.2509   74.5765   -5.8066 C   0  0  0  0  0  0  0  0  0  0  0  0
   18.0769   75.0250   -6.5829 C   0  0  0  0  0  0  0  0  0  0  0  0
   16.1491   74.5060   -6.9378 H   0  0  0  0  0  0  0  0  0  0  0  0
   22.9044   71.3206   -0.7795 O   0  0  0  0  0  0  0  0  0  0  0  0
   21.7532   71.7376    0.2758 P   0  0  2  0  0  0  0  0  0  0  0  0
   20.6971   70.5161    0.1748 O   0  0  0  0  0  0  0  0  0  0  0  0
   21.1568   73.0936    0.0320 O   0  0  0  0  0  0  0  0  0  0  0  0
   22.4434   71.5610    1.7241 O   0  0  0  0  0  0  0  0  0  0  0  0
   23.2740   73.3247    3.0718 O   0  0  0  0  0  0  0  0  0  0  0  0
   25.8002   70.3021    4.3100 O   0  0  0  0  0  0  0  0  0  0  0  0
   23.7298   71.2301    6.0708 O   0  0  0  0  0  0  0  0  0  0  0  0
   25.0298   70.4904    1.5260 O   0  0  0  0  0  0  0  0  0  0  0  0
   24.5653   70.8654    3.8594 C   0  0  1  0  0  0  0  0  0  0  0  0
   24.1149   71.9121    4.8804 C   0  0  1  0  0  0  0  0  0  0  0  0
   24.7796   71.5075    2.4901 C   0  0  2  0  0  0  0  0  0  0  0  0
   22.9451   72.7456    4.3400 C   0  0  1  0  0  0  0  0  0  0  0  0
   23.5769   72.3534    2.0684 C   0  0  1  0  0  0  0  0  0  0  0  0
   25.6709   69.8924    5.1788 H   0  0  0  0  0  0  0  0  0  0  0  0
   24.4772   70.7072    6.4014 H   0  0  0  0  0  0  0  0  0  0  0  0
   25.7936   69.9621    1.8043 H   0  0  0  0  0  0  0  0  0  0  0  0
   21.5450   73.4665    6.1369 O   0  0  0  0  0  0  0  0  0  0  0  0
   22.5829   73.8969    5.2756 C   0  0  0  0  0  0  0  0  0  0  0  0
   21.3043   74.1891    6.7383 H   0  0  0  0  0  0  0  0  0  0  0  0
 25 28  1  0
 25 24  1  0
 25 26  1  1
 25 27  2  0
  1  4  1  0
  1 24  1  0
  1  2  1  1
  1  3  2  0
  6 11  1  0
  6 12  1  0
 29 36  1  0
 29 37  1  0
  9  7  1  1
  7 13  1  0
 10  8  1  1
  8 14  1  0
 37 28  1  1
  4  5  1  0
 33 30  1  1
 30 38  1  0
 34 31  1  1
 31 39  1  0
 35 32  1  6
 32 40  1  0
 41 42  1  0
 41 43  1  0
 15 19  2  0
 16 22  2  0
 12 17  1  6
 17 19  1  0
 17 20  1  0
 18 19  1  0
 18 22  1  0
 18 23  1  0
  9 10  1  0
  9 11  1  0
 10 12  1  0
 11  5  1  6
 33 34  1  0
 33 35  1  0
 34 36  1  0
 35 37  1  0
 36 42  1  1
 20 21  2  0
 21 22  1  0
M  CHG  2   2  -1  26  -1
M  END
>  <COMPND>  (57) 
    8629 

>  <AUTHOR>  (57) 
    GENERATED BY OPEN BABEL 3.1.1

>  <MASTER>  (57) 
        0    0    0    0    0    0    0    0   58    0   58    0

>  <minimizedAffinity>  (57) 
-6.58191

>  <CNNscore>  (57) 
0.4925299287

>  <CNNaffinity>  (57) 
4.1623063087

>  <CNN_VS>  (57) 
2.0500605106

>  <CNNaffinity_variance>  (57) 
0.1487278491

$$$$
58
     RDKit          3D

 43 45  0  0  0  0  0  0  0  0999 V2000
   23.2746   73.2407   -0.3806 P   0  0  2  0  0  0  0  0  0  0  0  0
   21.9918   73.7013    0.4910 O   0  0  0  0  0  0  0  0  0  0  0  0
   24.1583   74.3598   -0.8476 O   0  0  0  0  0  0  0  0  0  0  0  0
   22.6404   72.3135   -1.5450 O   0  0  0  0  0  0  0  0  0  0  0  0
   21.9857   72.9455   -2.6312 C   0  0  0  0  0  0  0  0  0  0  0  0
   21.6794   71.0414   -4.0645 O   0  0  0  0  0  0  0  0  0  0  0  0
   22.9714   72.6861   -6.2131 O   0  0  0  0  0  0  0  0  0  0  0  0
   20.3210   72.8881   -6.8227 O   0  0  0  0  0  0  0  0  0  0  0  0
   22.0908   73.0974   -5.1687 C   0  0  1  0  0  0  0  0  0  0  0  0
   20.6732   72.6599   -5.4734 C   0  0  2  0  0  0  0  0  0  0  0  0
   22.4177   72.2754   -3.9283 C   0  0  1  0  0  0  0  0  0  0  0  0
   20.7173   71.1824   -5.1225 C   0  0  2  0  0  0  0  0  0  0  0  0
   22.7818   73.1976   -7.0158 H   0  0  0  0  0  0  0  0  0  0  0  0
   20.3067   73.8422   -6.9963 H   0  0  0  0  0  0  0  0  0  0  0  0
   18.5840   70.4552   -6.8249 O   0  0  0  0  0  0  0  0  0  0  0  0
   15.8929   69.3057   -3.2642 O   0  0  0  0  0  0  0  0  0  0  0  0
   19.4479   70.6896   -4.6672 N   0  0  0  0  0  0  0  0  0  0  0  0
   17.2458   69.8832   -5.0506 N   0  0  0  0  0  0  0  0  0  0  0  0
   18.4433   70.3537   -5.6044 C   0  0  0  0  0  0  0  0  0  0  0  0
   19.2095   70.5433   -3.3049 C   0  0  0  0  0  0  0  0  0  0  0  0
   18.0616   70.0944   -2.7929 C   0  0  0  0  0  0  0  0  0  0  0  0
   16.9604   69.7215   -3.7041 C   0  0  0  0  0  0  0  0  0  0  0  0
   16.5313   69.6434   -5.6845 H   0  0  0  0  0  0  0  0  0  0  0  0
   24.0023   72.1664    0.5834 O   0  0  0  0  0  0  0  0  0  0  0  0
   23.3920   71.0769    1.6098 P   0  0  2  0  0  0  0  0  0  0  0  0
   24.6355   70.0750    1.8699 O   0  0  0  0  0  0  0  0  0  0  0  0
   22.1443   70.4010    1.1197 O   0  0  0  0  0  0  0  0  0  0  0  0
   23.2168   71.8783    2.9997 O   0  0  0  0  0  0  0  0  0  0  0  0
   23.7414   74.1367    3.4907 O   0  0  0  0  0  0  0  0  0  0  0  0
   24.6479   72.4394    7.1443 O   0  0  0  0  0  0  0  0  0  0  0  0
   22.2909   74.0586    6.8788 O   0  0  0  0  0  0  0  0  0  0  0  0
   25.2814   71.0262    4.6986 O   0  0  0  0  0  0  0  0  0  0  0  0
   23.9196   72.5910    5.9228 C   0  0  1  0  0  0  0  0  0  0  0  0
   23.3189   73.9978    5.8940 C   0  0  1  0  0  0  0  0  0  0  0  0
   24.8718   72.3888    4.7456 C   0  0  2  0  0  0  0  0  0  0  0  0
   22.7510   74.3294    4.5074 C   0  0  1  0  0  0  0  0  0  0  0  0
   24.2250   72.7939    3.4198 C   0  0  1  0  0  0  0  0  0  0  0  0
   24.0490   72.5661    7.8957 H   0  0  0  0  0  0  0  0  0  0  0  0
   22.6626   73.8468    7.7495 H   0  0  0  0  0  0  0  0  0  0  0  0
   25.6896   70.7821    5.5434 H   0  0  0  0  0  0  0  0  0  0  0  0
   22.9324   76.5264    5.4289 O   0  0  0  0  0  0  0  0  0  0  0  0
   22.2893   75.7818    4.4109 C   0  0  0  0  0  0  0  0  0  0  0  0
   22.6483   77.4530    5.3795 H   0  0  0  0  0  0  0  0  0  0  0  0
 25 28  1  0
 25 24  1  0
 25 26  1  1
 25 27  2  0
  1  4  1  0
  1 24  1  0
  1  2  1  1
  1  3  2  0
  6 11  1  0
  6 12  1  0
 29 36  1  0
 29 37  1  0
  9  7  1  6
  7 13  1  0
 10  8  1  6
  8 14  1  0
 37 28  1  1
  4  5  1  0
 33 30  1  1
 30 38  1  0
 34 31  1  1
 31 39  1  0
 35 32  1  6
 32 40  1  0
 41 42  1  0
 41 43  1  0
 15 19  2  0
 16 22  2  0
 12 17  1  1
 17 19  1  0
 17 20  1  0
 18 19  1  0
 18 22  1  0
 18 23  1  0
  9 10  1  0
  9 11  1  0
 10 12  1  0
 11  5  1  1
 33 34  1  0
 33 35  1  0
 34 36  1  0
 35 37  1  0
 36 42  1  1
 20 21  2  0
 21 22  1  0
M  CHG  2   2  -1  26  -1
M  END
>  <COMPND>  (58) 
    8629 

>  <AUTHOR>  (58) 
    GENERATED BY OPEN BABEL 3.1.1

>  <MASTER>  (58) 
        0    0    0    0    0    0    0    0   58    0   58    0

>  <minimizedAffinity>  (58) 
-6.32935

>  <CNNscore>  (58) 
0.4670220613

>  <CNNaffinity>  (58) 
4.0796208382

>  <CNN_VS>  (58) 
1.9052729607

>  <CNNaffinity_variance>  (58) 
0.0457907841

$$$$
59
     RDKit          3D

 43 45  0  0  0  0  0  0  0  0999 V2000
   22.6095   71.8042   -1.6391 P   0  0  2  0  0  0  0  0  0  0  0  0
   23.3611   71.2437   -2.9576 O   0  0  0  0  0  0  0  0  0  0  0  0
   22.3635   73.2843   -1.6308 O   0  0  0  0  0  0  0  0  0  0  0  0
   23.4976   71.2325   -0.4133 O   0  0  0  0  0  0  0  0  0  0  0  0
   23.8144   72.1057    0.6567 C   0  0  0  0  0  0  0  0  0  0  0  0
   23.9474   70.6027    2.5268 O   0  0  0  0  0  0  0  0  0  0  0  0
   21.8633   72.3268    3.8211 O   0  0  0  0  0  0  0  0  0  0  0  0
   24.1610   73.1650    5.0272 O   0  0  0  0  0  0  0  0  0  0  0  0
   22.9462   72.7039    2.9722 C   0  0  1  0  0  0  0  0  0  0  0  0
   24.2575   72.6235    3.7256 C   0  0  2  0  0  0  0  0  0  0  0  0
   23.1173   71.6165    1.9188 C   0  0  1  0  0  0  0  0  0  0  0  0
   24.5255   71.1281    3.7329 C   0  0  2  0  0  0  0  0  0  0  0  0
   21.7346   73.0064    4.5019 H   0  0  0  0  0  0  0  0  0  0  0  0
   23.9902   74.1180    4.9692 H   0  0  0  0  0  0  0  0  0  0  0  0
   25.5978   68.5777    4.3018 O   0  0  0  0  0  0  0  0  0  0  0  0
   29.9236   70.0752    3.7669 O   0  0  0  0  0  0  0  0  0  0  0  0
   25.9284   70.8232    3.7488 N   0  0  0  0  0  0  0  0  0  0  0  0
   27.7508   69.3254    4.0348 N   0  0  0  0  0  0  0  0  0  0  0  0
   26.3625   69.5106    4.0475 C   0  0  0  0  0  0  0  0  0  0  0  0
   26.8574   71.8197    3.4701 C   0  0  0  0  0  0  0  0  0  0  0  0
   28.1780   71.6271    3.4634 C   0  0  0  0  0  0  0  0  0  0  0  0
   28.7144   70.2843    3.7651 C   0  0  0  0  0  0  0  0  0  0  0  0
   28.0765   68.4190    4.2403 H   0  0  0  0  0  0  0  0  0  0  0  0
   21.2716   70.8995   -1.5712 O   0  0  0  0  0  0  0  0  0  0  0  0
   19.7627   71.1968   -2.0692 P   0  0  2  0  0  0  0  0  0  0  0  0
   19.3145   72.4590   -1.1618 O   0  0  0  0  0  0  0  0  0  0  0  0
   18.8420   70.0141   -1.9830 O   0  0  0  0  0  0  0  0  0  0  0  0
   19.9349   71.8035   -3.5549 O   0  0  0  0  0  0  0  0  0  0  0  0
   18.9133   70.4221   -5.1872 O   0  0  0  0  0  0  0  0  0  0  0  0
   20.9309   73.0163   -7.6873 O   0  0  0  0  0  0  0  0  0  0  0  0
   18.0740   73.2014   -7.4588 O   0  0  0  0  0  0  0  0  0  0  0  0
   22.1669   72.1305   -5.2242 O   0  0  0  0  0  0  0  0  0  0  0  0
   20.1996   72.6381   -6.5179 C   0  0  1  0  0  0  0  0  0  0  0  0
   18.8343   72.1056   -6.9573 C   0  0  1  0  0  0  0  0  0  0  0  0
   20.9807   71.5610   -5.7674 C   0  0  2  0  0  0  0  0  0  0  0  0
   18.0990   71.4352   -5.7890 C   0  0  1  0  0  0  0  0  0  0  0  0
   20.1417   70.9248   -4.6577 C   0  0  1  0  0  0  0  0  0  0  0  0
   20.4406   73.7004   -8.1682 H   0  0  0  0  0  0  0  0  0  0  0  0
   18.5496   73.6161   -8.1957 H   0  0  0  0  0  0  0  0  0  0  0  0
   22.6894   72.5297   -5.9366 H   0  0  0  0  0  0  0  0  0  0  0  0
   16.3479   69.9228   -5.1930 O   0  0  0  0  0  0  0  0  0  0  0  0
   16.8060   70.7590   -6.2396 C   0  0  0  0  0  0  0  0  0  0  0  0
   15.5253   69.4860   -5.4656 H   0  0  0  0  0  0  0  0  0  0  0  0
 25 28  1  0
 25 24  1  0
 25 26  1  1
 25 27  2  0
  1  4  1  0
  1 24  1  0
  1  2  1  6
  1  3  2  0
  6 11  1  0
  6 12  1  0
 29 36  1  0
 29 37  1  0
  9  7  1  1
  7 13  1  0
 10  8  1  1
  8 14  1  0
 37 28  1  1
  4  5  1  0
 33 30  1  6
 30 38  1  0
 34 31  1  1
 31 39  1  0
 35 32  1  1
 32 40  1  0
 41 42  1  0
 41 43  1  0
 15 19  2  0
 16 22  2  0
 12 17  1  6
 17 19  1  0
 17 20  1  0
 18 19  1  0
 18 22  1  0
 18 23  1  0
  9 10  1  0
  9 11  1  0
 10 12  1  0
 11  5  1  6
 33 34  1  0
 33 35  1  0
 34 36  1  0
 35 37  1  0
 36 42  1  6
 20 21  2  0
 21 22  1  0
M  CHG  2   2  -1  26  -1
M  END
>  <COMPND>  (59) 
    8629 

>  <AUTHOR>  (59) 
    GENERATED BY OPEN BABEL 3.1.1

>  <MASTER>  (59) 
        0    0    0    0    0    0    0    0   58    0   58    0

>  <minimizedAffinity>  (59) 
-7.31998

>  <CNNscore>  (59) 
0.4659821391

>  <CNNaffinity>  (59) 
4.1471271515

>  <CNN_VS>  (59) 
1.9324871302

>  <CNNaffinity_variance>  (59) 
0.1286258847

$$$$
60
     RDKit          3D

 43 45  0  0  0  0  0  0  0  0999 V2000
   21.1593   71.4803   -1.6890 P   0  0  2  0  0  0  0  0  0  0  0  0
   20.0611   70.4783   -1.0508 O   0  0  0  0  0  0  0  0  0  0  0  0
   21.9719   70.8998   -2.8089 O   0  0  0  0  0  0  0  0  0  0  0  0
   21.9995   72.0021   -0.4085 O   0  0  0  0  0  0  0  0  0  0  0  0
   21.4952   73.1024    0.3283 C   0  0  0  0  0  0  0  0  0  0  0  0
   21.5043   71.4804    2.1011 O   0  0  0  0  0  0  0  0  0  0  0  0
   19.5151   73.2512    3.4788 O   0  0  0  0  0  0  0  0  0  0  0  0
   21.8431   73.8627    4.7605 O   0  0  0  0  0  0  0  0  0  0  0  0
   20.6323   73.6099    2.6673 C   0  0  1  0  0  0  0  0  0  0  0  0
   21.9244   73.3983    3.4284 C   0  0  2  0  0  0  0  0  0  0  0  0
   20.7496   72.5814    1.5493 C   0  0  1  0  0  0  0  0  0  0  0  0
   22.0965   71.8912    3.3442 C   0  0  2  0  0  0  0  0  0  0  0  0
   19.4197   73.8939    4.1998 H   0  0  0  0  0  0  0  0  0  0  0  0
   21.7342   74.8265    4.7609 H   0  0  0  0  0  0  0  0  0  0  0  0
   23.5392   71.2031    5.6730 O   0  0  0  0  0  0  0  0  0  0  0  0
   27.3877   70.3921    3.2704 O   0  0  0  0  0  0  0  0  0  0  0  0
   23.4768   71.4960    3.3562 N   0  0  0  0  0  0  0  0  0  0  0  0
   25.4542   70.7997    4.4748 N   0  0  0  0  0  0  0  0  0  0  0  0
   24.1079   71.1717    4.5797 C   0  0  0  0  0  0  0  0  0  0  0  0
   24.1899   71.4327    2.1640 C   0  0  0  0  0  0  0  0  0  0  0  0
   25.4736   71.0773    2.0811 C   0  0  0  0  0  0  0  0  0  0  0  0
   26.2068   70.7229    3.3135 C   0  0  0  0  0  0  0  0  0  0  0  0
   25.9147   70.5698    5.3144 H   0  0  0  0  0  0  0  0  0  0  0  0
   20.2785   72.7729   -2.0968 O   0  0  0  0  0  0  0  0  0  0  0  0
   18.8264   72.8899   -2.7974 P   0  0  2  0  0  0  0  0  0  0  0  0
   18.7715   74.4324   -3.2822 O   0  0  0  0  0  0  0  0  0  0  0  0
   17.6831   72.4765   -1.9166 O   0  0  0  0  0  0  0  0  0  0  0  0
   18.9614   72.0383   -4.1619 O   0  0  0  0  0  0  0  0  0  0  0  0
   19.9804   73.1042   -6.0172 O   0  0  0  0  0  0  0  0  0  0  0  0
   18.0819   70.0144   -7.9920 O   0  0  0  0  0  0  0  0  0  0  0  0
   20.9373   69.9610   -7.6887 O   0  0  0  0  0  0  0  0  0  0  0  0
   16.7733   71.3270   -5.7685 O   0  0  0  0  0  0  0  0  0  0  0  0
   18.7790   70.6346   -6.9082 C   0  0  1  0  0  0  0  0  0  0  0  0
   20.1389   71.1109   -7.4226 C   0  0  1  0  0  0  0  0  0  0  0  0
   17.9553   71.8141   -6.3946 C   0  0  2  0  0  0  0  0  0  0  0  0
   20.8327   72.0174   -6.3969 C   0  0  1  0  0  0  0  0  0  0  0  0
   18.7548   72.6787   -5.4182 C   0  0  1  0  0  0  0  0  0  0  0  0
   18.5993   69.2644   -8.3225 H   0  0  0  0  0  0  0  0  0  0  0  0
   20.4877   69.3969   -8.3374 H   0  0  0  0  0  0  0  0  0  0  0  0
   16.2760   70.7815   -6.3969 H   0  0  0  0  0  0  0  0  0  0  0  0
   22.0483   72.6143   -8.3655 O   0  0  0  0  0  0  0  0  0  0  0  0
   22.1168   72.6303   -6.9515 C   0  0  0  0  0  0  0  0  0  0  0  0
   22.8588   73.0017   -8.7323 H   0  0  0  0  0  0  0  0  0  0  0  0
 25 28  1  0
 25 24  1  0
 25 26  1  6
 25 27  2  0
  1  4  1  0
  1 24  1  0
  1  2  1  1
  1  3  2  0
  6 11  1  0
  6 12  1  0
 29 36  1  0
 29 37  1  0
  9  7  1  1
  7 13  1  0
 10  8  1  1
  8 14  1  0
 37 28  1  1
  4  5  1  0
 33 30  1  6
 30 38  1  0
 34 31  1  1
 31 39  1  0
 35 32  1  1
 32 40  1  0
 41 42  1  0
 41 43  1  0
 15 19  2  0
 16 22  2  0
 12 17  1  6
 17 19  1  0
 17 20  1  0
 18 19  1  0
 18 22  1  0
 18 23  1  0
  9 10  1  0
  9 11  1  0
 10 12  1  0
 11  5  1  6
 33 34  1  0
 33 35  1  0
 34 36  1  0
 35 37  1  0
 36 42  1  6
 20 21  2  0
 21 22  1  0
M  CHG  2   2  -1  26  -1
M  END
>  <COMPND>  (60) 
    8629 

>  <AUTHOR>  (60) 
    GENERATED BY OPEN BABEL 3.1.1

>  <MASTER>  (60) 
        0    0    0    0    0    0    0    0   58    0   58    0

>  <minimizedAffinity>  (60) 
-6.84943

>  <CNNscore>  (60) 
0.4542843103

>  <CNNaffinity>  (60) 
3.9364788532

>  <CNN_VS>  (60) 
1.7882806063

>  <CNNaffinity_variance>  (60) 
0.2608078718

$$$$
61
     RDKit          3D

 43 45  0  0  0  0  0  0  0  0999 V2000
   23.0933   71.7486   -2.7363 P   0  0  2  0  0  0  0  0  0  0  0  0
   23.3630   73.2990   -2.3612 O   0  0  0  0  0  0  0  0  0  0  0  0
   24.2946   70.9980   -3.2313 O   0  0  0  0  0  0  0  0  0  0  0  0
   21.8345   71.8078   -3.7512 O   0  0  0  0  0  0  0  0  0  0  0  0
   20.9642   70.6915   -3.8149 C   0  0  0  0  0  0  0  0  0  0  0  0
   19.0300   71.7615   -4.7570 O   0  0  0  0  0  0  0  0  0  0  0  0
   17.4894   70.5614   -2.4817 O   0  0  0  0  0  0  0  0  0  0  0  0
   16.8970   68.8857   -4.5499 O   0  0  0  0  0  0  0  0  0  0  0  0
   18.5852   70.0174   -3.2156 C   0  0  1  0  0  0  0  0  0  0  0  0
   18.1295   69.5756   -4.5906 C   0  0  2  0  0  0  0  0  0  0  0  0
   19.5396   71.1576   -3.5479 C   0  0  1  0  0  0  0  0  0  0  0  0
   18.0348   70.8986   -5.3313 C   0  0  2  0  0  0  0  0  0  0  0  0
   16.8663   69.8517   -2.2577 H   0  0  0  0  0  0  0  0  0  0  0  0
   17.0092   68.0511   -4.0685 H   0  0  0  0  0  0  0  0  0  0  0  0
   16.1108   70.0925   -7.2357 O   0  0  0  0  0  0  0  0  0  0  0  0
   19.1402   70.3971  -10.6956 O   0  0  0  0  0  0  0  0  0  0  0  0
   18.2934   70.7592   -6.7367 N   0  0  0  0  0  0  0  0  0  0  0  0
   17.6207   70.2450   -8.9569 N   0  0  0  0  0  0  0  0  0  0  0  0
   17.2581   70.3473   -7.6079 C   0  0  0  0  0  0  0  0  0  0  0  0
   19.5619   71.0301   -7.2381 C   0  0  0  0  0  0  0  0  0  0  0  0
   19.8918   70.9265   -8.5272 C   0  0  0  0  0  0  0  0  0  0  0  0
   18.8680   70.5020   -9.5037 C   0  0  0  0  0  0  0  0  0  0  0  0
   16.9158   69.9593   -9.5824 H   0  0  0  0  0  0  0  0  0  0  0  0
   22.4403   71.1552   -1.3819 O   0  0  0  0  0  0  0  0  0  0  0  0
   21.5378   71.8603   -0.2412 P   0  0  2  0  0  0  0  0  0  0  0  0
   20.6108   70.6496    0.2996 O   0  0  0  0  0  0  0  0  0  0  0  0
   20.7726   73.0612   -0.7169 O   0  0  0  0  0  0  0  0  0  0  0  0
   22.5657   72.1577    0.9671 O   0  0  0  0  0  0  0  0  0  0  0  0
   24.0342   70.8724    2.3117 O   0  0  0  0  0  0  0  0  0  0  0  0
   22.2375   73.1280    5.2672 O   0  0  0  0  0  0  0  0  0  0  0  0
   24.9569   73.6742    4.5224 O   0  0  0  0  0  0  0  0  0  0  0  0
   20.6690   72.1596    3.0353 O   0  0  0  0  0  0  0  0  0  0  0  0
   22.7725   72.8748    3.9653 C   0  0  1  0  0  0  0  0  0  0  0  0
   24.2495   72.5056    4.1172 C   0  0  1  0  0  0  0  0  0  0  0  0
   21.9954   71.7287    3.3205 C   0  0  2  0  0  0  0  0  0  0  0  0
   24.8231   71.9631    2.8012 C   0  0  1  0  0  0  0  0  0  0  0  0
   22.6772   71.2314    2.0445 C   0  0  1  0  0  0  0  0  0  0  0  0
   22.7263   73.8551    5.6819 H   0  0  0  0  0  0  0  0  0  0  0  0
   24.5846   74.0069    5.3542 H   0  0  0  0  0  0  0  0  0  0  0  0
   20.2481   72.4717    3.8510 H   0  0  0  0  0  0  0  0  0  0  0  0
   26.4264   71.0495    4.3189 O   0  0  0  0  0  0  0  0  0  0  0  0
   26.2486   71.4420    2.9704 C   0  0  0  0  0  0  0  0  0  0  0  0
   27.3293   70.7154    4.4414 H   0  0  0  0  0  0  0  0  0  0  0  0
 25 28  1  0
 25 24  1  0
 25 26  1  1
 25 27  2  0
  1  4  1  0
  1 24  1  0
  1  2  1  1
  1  3  2  0
  6 11  1  0
  6 12  1  0
 29 36  1  0
 29 37  1  0
  9  7  1  1
  7 13  1  0
 10  8  1  1
  8 14  1  0
 37 28  1  6
  4  5  1  0
 33 30  1  1
 30 38  1  0
 34 31  1  6
 31 39  1  0
 35 32  1  6
 32 40  1  0
 41 42  1  0
 41 43  1  0
 15 19  2  0
 16 22  2  0
 12 17  1  6
 17 19  1  0
 17 20  1  0
 18 19  1  0
 18 22  1  0
 18 23  1  0
  9 10  1  0
  9 11  1  0
 10 12  1  0
 11  5  1  6
 33 34  1  0
 33 35  1  0
 34 36  1  0
 35 37  1  0
 36 42  1  1
 20 21  2  0
 21 22  1  0
M  CHG  2   2  -1  26  -1
M  END
>  <COMPND>  (61) 
    8629 

>  <AUTHOR>  (61) 
    GENERATED BY OPEN BABEL 3.1.1

>  <MASTER>  (61) 
        0    0    0    0    0    0    0    0   58    0   58    0

>  <minimizedAffinity>  (61) 
-8.06441

>  <CNNscore>  (61) 
0.9274742603

>  <CNNaffinity>  (61) 
4.7569055557

>  <CNN_VS>  (61) 
4.4119076729

>  <CNNaffinity_variance>  (61) 
0.0274995919

$$$$
62
     RDKit          3D

 43 45  0  0  0  0  0  0  0  0999 V2000
   22.7803   72.2776   -4.0346 P   0  0  2  0  0  0  0  0  0  0  0  0
   23.3535   73.1222   -5.2899 O   0  0  0  0  0  0  0  0  0  0  0  0
   23.7873   71.4043   -3.3456 O   0  0  0  0  0  0  0  0  0  0  0  0
   21.4857   71.5167   -4.6371 O   0  0  0  0  0  0  0  0  0  0  0  0
   20.8049   70.5856   -3.8140 C   0  0  0  0  0  0  0  0  0  0  0  0
   18.9210   71.6950   -4.8110 O   0  0  0  0  0  0  0  0  0  0  0  0
   17.2838   70.4935   -2.6049 O   0  0  0  0  0  0  0  0  0  0  0  0
   16.7400   68.8496   -4.7116 O   0  0  0  0  0  0  0  0  0  0  0  0
   18.3967   69.9411   -3.3061 C   0  0  1  0  0  0  0  0  0  0  0  0
   17.9832   69.5212   -4.7013 C   0  0  2  0  0  0  0  0  0  0  0  0
   19.3788   71.0703   -3.5918 C   0  0  1  0  0  0  0  0  0  0  0  0
   17.9340   70.8536   -5.4297 C   0  0  2  0  0  0  0  0  0  0  0  0
   16.6429   69.7910   -2.4111 H   0  0  0  0  0  0  0  0  0  0  0  0
   16.8229   68.0082   -4.2362 H   0  0  0  0  0  0  0  0  0  0  0  0
   16.0970   69.9873   -7.3926 O   0  0  0  0  0  0  0  0  0  0  0  0
   19.2185   70.3996  -10.7582 O   0  0  0  0  0  0  0  0  0  0  0  0
   18.2398   70.7256   -6.8266 N   0  0  0  0  0  0  0  0  0  0  0  0
   17.6527   70.1935   -9.0668 N   0  0  0  0  0  0  0  0  0  0  0  0
   17.2459   70.2810   -7.7294 C   0  0  0  0  0  0  0  0  0  0  0  0
   19.5133   71.0397   -7.2889 C   0  0  0  0  0  0  0  0  0  0  0  0
   19.8856   70.9496   -8.5673 C   0  0  0  0  0  0  0  0  0  0  0  0
   18.9068   70.4930   -9.5750 C   0  0  0  0  0  0  0  0  0  0  0  0
   16.9771   69.8856   -9.7138 H   0  0  0  0  0  0  0  0  0  0  0  0
   22.1263   73.4199   -3.0962 O   0  0  0  0  0  0  0  0  0  0  0  0
   22.7809   74.3598   -1.9556 P   0  0  2  0  0  0  0  0  0  0  0  0
   22.1031   75.8030   -2.2301 O   0  0  0  0  0  0  0  0  0  0  0  0
   24.2822   74.3709   -1.9542 O   0  0  0  0  0  0  0  0  0  0  0  0
   22.1145   73.8522   -0.5760 O   0  0  0  0  0  0  0  0  0  0  0  0
   22.9415   71.6664   -0.1826 O   0  0  0  0  0  0  0  0  0  0  0  0
   20.3996   72.0026    3.0542 O   0  0  0  0  0  0  0  0  0  0  0  0
   23.2401   72.1037    3.4655 O   0  0  0  0  0  0  0  0  0  0  0  0
   19.6286   73.1071    0.4919 O   0  0  0  0  0  0  0  0  0  0  0  0
   21.3298   72.4707    2.0738 C   0  0  1  0  0  0  0  0  0  0  0  0
   22.6362   71.6924    2.2422 C   0  0  1  0  0  0  0  0  0  0  0  0
   20.7441   72.2433    0.6814 C   0  0  2  0  0  0  0  0  0  0  0  0
   23.5875   71.9456    1.0650 C   0  0  1  0  0  0  0  0  0  0  0  0
   21.7862   72.4748   -0.4143 C   0  0  1  0  0  0  0  0  0  0  0  0
   20.7652   72.1445    3.9406 H   0  0  0  0  0  0  0  0  0  0  0  0
   22.6289   71.9389    4.2007 H   0  0  0  0  0  0  0  0  0  0  0  0
   18.9761   72.9506    1.1916 H   0  0  0  0  0  0  0  0  0  0  0  0
   24.5453   69.9503    1.9650 O   0  0  0  0  0  0  0  0  0  0  0  0
   24.8294   71.0595    1.1324 C   0  0  0  0  0  0  0  0  0  0  0  0
   25.3267   69.3772    2.0170 H   0  0  0  0  0  0  0  0  0  0  0  0
 25 28  1  0
 25 24  1  0
 25 26  1  6
 25 27  2  0
  1  4  1  0
  1 24  1  0
  1  2  1  6
  1  3  2  0
  6 11  1  0
  6 12  1  0
 29 36  1  0
 29 37  1  0
  9  7  1  1
  7 13  1  0
 10  8  1  1
  8 14  1  0
 37 28  1  1
  4  5  1  0
 33 30  1  1
 30 38  1  0
 34 31  1  1
 31 39  1  0
 35 32  1  6
 32 40  1  0
 41 42  1  0
 41 43  1  0
 15 19  2  0
 16 22  2  0
 12 17  1  6
 17 19  1  0
 17 20  1  0
 18 19  1  0
 18 22  1  0
 18 23  1  0
  9 10  1  0
  9 11  1  0
 10 12  1  0
 11  5  1  6
 33 34  1  0
 33 35  1  0
 34 36  1  0
 35 37  1  0
 36 42  1  1
 20 21  2  0
 21 22  1  0
M  CHG  2   2  -1  26  -1
M  END
>  <COMPND>  (62) 
    8629 

>  <AUTHOR>  (62) 
    GENERATED BY OPEN BABEL 3.1.1

>  <MASTER>  (62) 
        0    0    0    0    0    0    0    0   58    0   58    0

>  <minimizedAffinity>  (62) 
-7.85690

>  <CNNscore>  (62) 
0.8766162992

>  <CNNaffinity>  (62) 
4.7365846634

>  <CNN_VS>  (62) 
4.1521673203

>  <CNNaffinity_variance>  (62) 
0.0721454471

$$$$
63
     RDKit          3D

 43 45  0  0  0  0  0  0  0  0999 V2000
   23.2006   71.8194   -2.4204 P   0  0  2  0  0  0  0  0  0  0  0  0
   23.7371   73.2779   -1.9709 O   0  0  0  0  0  0  0  0  0  0  0  0
   24.1746   71.0043   -3.2194 O   0  0  0  0  0  0  0  0  0  0  0  0
   21.7867   72.1312   -3.1427 O   0  0  0  0  0  0  0  0  0  0  0  0
   21.0314   71.0440   -3.6480 C   0  0  0  0  0  0  0  0  0  0  0  0
   18.9381   71.8062   -4.5487 O   0  0  0  0  0  0  0  0  0  0  0  0
   17.6437   70.3772   -2.2524 O   0  0  0  0  0  0  0  0  0  0  0  0
   17.2772   68.6358   -4.3188 O   0  0  0  0  0  0  0  0  0  0  0  0
   18.7961   70.0103   -3.0092 C   0  0  1  0  0  0  0  0  0  0  0  0
   18.3880   69.5073   -4.3781 C   0  0  2  0  0  0  0  0  0  0  0  0
   19.5573   71.2847   -3.3524 C   0  0  1  0  0  0  0  0  0  0  0  0
   18.0768   70.8020   -5.1096 C   0  0  2  0  0  0  0  0  0  0  0  0
   17.1416   69.5795   -2.0211 H   0  0  0  0  0  0  0  0  0  0  0  0
   17.5255   67.8272   -3.8442 H   0  0  0  0  0  0  0  0  0  0  0  0
   16.1952   69.8865   -7.0067 O   0  0  0  0  0  0  0  0  0  0  0  0
   19.1483   70.4821  -10.4947 O   0  0  0  0  0  0  0  0  0  0  0  0
   18.3272   70.7079   -6.5202 N   0  0  0  0  0  0  0  0  0  0  0  0
   17.6670   70.1840   -8.7419 N   0  0  0  0  0  0  0  0  0  0  0  0
   17.3150   70.2343   -7.3871 C   0  0  0  0  0  0  0  0  0  0  0  0
   19.5651   71.0832   -7.0308 C   0  0  0  0  0  0  0  0  0  0  0  0
   19.8854   71.0281   -8.3253 C   0  0  0  0  0  0  0  0  0  0  0  0
   18.8842   70.5447   -9.2979 C   0  0  0  0  0  0  0  0  0  0  0  0
   16.9778   69.8569   -9.3646 H   0  0  0  0  0  0  0  0  0  0  0  0
   22.7528   71.1491   -1.0193 O   0  0  0  0  0  0  0  0  0  0  0  0
   21.7370   71.6649    0.1275 P   0  0  2  0  0  0  0  0  0  0  0  0
   20.5617   70.5532    0.1094 O   0  0  0  0  0  0  0  0  0  0  0  0
   21.2585   73.0751   -0.0632 O   0  0  0  0  0  0  0  0  0  0  0  0
   22.5213   71.4065    1.5142 O   0  0  0  0  0  0  0  0  0  0  0  0
   23.2133   73.2463    2.8382 O   0  0  0  0  0  0  0  0  0  0  0  0
   25.7998   70.3756    4.2943 O   0  0  0  0  0  0  0  0  0  0  0  0
   23.6112   71.2703    5.9246 O   0  0  0  0  0  0  0  0  0  0  0  0
   25.1560   70.4414    1.4728 O   0  0  0  0  0  0  0  0  0  0  0  0
   24.5656   70.8709    3.7681 C   0  0  1  0  0  0  0  0  0  0  0  0
   24.0243   71.9296    4.7309 C   0  0  1  0  0  0  0  0  0  0  0  0
   24.8185   71.4773    2.3891 C   0  0  2  0  0  0  0  0  0  0  0  0
   22.8484   72.6947    4.1087 C   0  0  1  0  0  0  0  0  0  0  0  0
   23.6035   72.2572    1.8835 C   0  0  1  0  0  0  0  0  0  0  0  0
   25.6461   69.9888    5.1697 H   0  0  0  0  0  0  0  0  0  0  0  0
   24.3628   70.7907    6.3071 H   0  0  0  0  0  0  0  0  0  0  0  0
   25.9267   69.9554    1.8040 H   0  0  0  0  0  0  0  0  0  0  0  0
   21.5645   73.3499    6.0143 O   0  0  0  0  0  0  0  0  0  0  0  0
   22.3948   73.8589    4.9868 C   0  0  0  0  0  0  0  0  0  0  0  0
   21.2685   74.0797    6.5813 H   0  0  0  0  0  0  0  0  0  0  0  0
 25 28  1  0
 25 24  1  0
 25 26  1  1
 25 27  2  0
  1  4  1  0
  1 24  1  0
  1  2  1  1
  1  3  2  0
  6 11  1  0
  6 12  1  0
 29 36  1  0
 29 37  1  0
  9  7  1  1
  7 13  1  0
 10  8  1  1
  8 14  1  0
 37 28  1  1
  4  5  1  0
 33 30  1  1
 30 38  1  0
 34 31  1  1
 31 39  1  0
 35 32  1  6
 32 40  1  0
 41 42  1  0
 41 43  1  0
 15 19  2  0
 16 22  2  0
 12 17  1  6
 17 19  1  0
 17 20  1  0
 18 19  1  0
 18 22  1  0
 18 23  1  0
  9 10  1  0
  9 11  1  0
 10 12  1  0
 11  5  1  6
 33 34  1  0
 33 35  1  0
 34 36  1  0
 35 37  1  0
 36 42  1  1
 20 21  2  0
 21 22  1  0
M  CHG  2   2  -1  26  -1
M  END
>  <COMPND>  (63) 
    8629 

>  <AUTHOR>  (63) 
    GENERATED BY OPEN BABEL 3.1.1

>  <MASTER>  (63) 
        0    0    0    0    0    0    0    0   58    0   58    0

>  <minimizedAffinity>  (63) 
-8.38358

>  <CNNscore>  (63) 
0.8663163781

>  <CNNaffinity>  (63) 
4.7001624107

>  <CNN_VS>  (63) 
4.0718278885

>  <CNNaffinity_variance>  (63) 
0.1101948172

$$$$
64
     RDKit          3D

 43 45  0  0  0  0  0  0  0  0999 V2000
   21.8343   72.5130   -5.5146 P   0  0  2  0  0  0  0  0  0  0  0  0
   20.9592   73.8571   -5.3023 O   0  0  0  0  0  0  0  0  0  0  0  0
   23.1561   72.7182   -6.1945 O   0  0  0  0  0  0  0  0  0  0  0  0
   20.8140   71.4980   -6.2539 O   0  0  0  0  0  0  0  0  0  0  0  0
   20.2545   71.8873   -7.4962 C   0  0  0  0  0  0  0  0  0  0  0  0
   18.9752   69.9026   -7.0509 O   0  0  0  0  0  0  0  0  0  0  0  0
   18.1544   70.0110   -9.9328 O   0  0  0  0  0  0  0  0  0  0  0  0
   15.9780   71.0447   -8.6557 O   0  0  0  0  0  0  0  0  0  0  0  0
   18.3818   71.0823   -9.0186 C   0  0  1  0  0  0  0  0  0  0  0  0
   17.2380   71.1825   -8.0311 C   0  0  2  0  0  0  0  0  0  0  0  0
   19.5466   70.6912   -8.1177 C   0  0  1  0  0  0  0  0  0  0  0  0
   17.5452   70.0414   -7.0763 C   0  0  2  0  0  0  0  0  0  0  0  0
   17.4150   70.2378  -10.5191 H   0  0  0  0  0  0  0  0  0  0  0  0
   15.8292   71.7945   -9.2527 H   0  0  0  0  0  0  0  0  0  0  0  0
   16.2489   68.1387   -5.4400 O   0  0  0  0  0  0  0  0  0  0  0  0
   15.7956   71.1511   -1.9815 O   0  0  0  0  0  0  0  0  0  0  0  0
   17.0782   70.3014   -5.7438 N   0  0  0  0  0  0  0  0  0  0  0  0
   16.0244   69.6402   -3.7192 N   0  0  0  0  0  0  0  0  0  0  0  0
   16.4389   69.2772   -5.0071 C   0  0  0  0  0  0  0  0  0  0  0  0
   17.2561   71.5603   -5.1804 C   0  0  0  0  0  0  0  0  0  0  0  0
   16.8539   71.8907   -3.9515 C   0  0  0  0  0  0  0  0  0  0  0  0
   16.1773   70.8782   -3.1154 C   0  0  0  0  0  0  0  0  0  0  0  0
   15.5763   68.9428   -3.1876 H   0  0  0  0  0  0  0  0  0  0  0  0
   21.9336   71.9042   -4.0205 O   0  0  0  0  0  0  0  0  0  0  0  0
   23.1029   72.0046   -2.9089 P   0  0  2  0  0  0  0  0  0  0  0  0
   23.6315   73.5259   -3.0628 O   0  0  0  0  0  0  0  0  0  0  0  0
   24.1729   70.9604   -3.0452 O   0  0  0  0  0  0  0  0  0  0  0  0
   22.3250   71.9844   -1.4948 O   0  0  0  0  0  0  0  0  0  0  0  0
   24.0164   72.2472    0.1443 O   0  0  0  0  0  0  0  0  0  0  0  0
   20.7241   72.0118    2.6254 O   0  0  0  0  0  0  0  0  0  0  0  0
   22.0436   74.5357    2.2561 O   0  0  0  0  0  0  0  0  0  0  0  0
   20.8729   70.3471    0.2619 O   0  0  0  0  0  0  0  0  0  0  0  0
   21.4392   72.3703    1.4399 C   0  0  1  0  0  0  0  0  0  0  0  0
   22.5951   73.2906    1.8369 C   0  0  1  0  0  0  0  0  0  0  0  0
   21.9668   71.1016    0.7724 C   0  0  2  0  0  0  0  0  0  0  0  0
   23.5624   73.5023    0.6644 C   0  0  1  0  0  0  0  0  0  0  0  0
   22.9578   71.4231   -0.3478 C   0  0  1  0  0  0  0  0  0  0  0  0
   20.3860   72.8128    3.0539 H   0  0  0  0  0  0  0  0  0  0  0  0
   21.4343   74.3880    2.9964 H   0  0  0  0  0  0  0  0  0  0  0  0
   20.2530   70.1498    0.9806 H   0  0  0  0  0  0  0  0  0  0  0  0
   24.9849   74.1332    2.4776 O   0  0  0  0  0  0  0  0  0  0  0  0
   24.8039   74.2874    1.0819 C   0  0  0  0  0  0  0  0  0  0  0  0
   25.7718   74.6273    2.7575 H   0  0  0  0  0  0  0  0  0  0  0  0
 25 28  1  0
 25 24  1  0
 25 26  1  6
 25 27  2  0
  1  4  1  0
  1 24  1  0
  1  2  1  1
  1  3  2  0
  6 11  1  0
  6 12  1  0
 29 36  1  0
 29 37  1  0
  9  7  1  6
  7 13  1  0
 10  8  1  6
  8 14  1  0
 37 28  1  6
  4  5  1  0
 33 30  1  1
 30 38  1  0
 34 31  1  6
 31 39  1  0
 35 32  1  6
 32 40  1  0
 41 42  1  0
 41 43  1  0
 15 19  2  0
 16 22  2  0
 12 17  1  1
 17 19  1  0
 17 20  1  0
 18 19  1  0
 18 22  1  0
 18 23  1  0
  9 10  1  0
  9 11  1  0
 10 12  1  0
 11  5  1  1
 33 34  1  0
 33 35  1  0
 34 36  1  0
 35 37  1  0
 36 42  1  1
 20 21  2  0
 21 22  1  0
M  CHG  2   2  -1  26  -1
M  END
>  <COMPND>  (64) 
    8629 

>  <AUTHOR>  (64) 
    GENERATED BY OPEN BABEL 3.1.1

>  <MASTER>  (64) 
        0    0    0    0    0    0    0    0   58    0   58    0

>  <minimizedAffinity>  (64) 
-7.97082

>  <CNNscore>  (64) 
0.8525288701

>  <CNNaffinity>  (64) 
4.6708073616

>  <CNN_VS>  (64) 
3.9819982052

>  <CNNaffinity_variance>  (64) 
0.1867011040

$$$$
65
     RDKit          3D

 43 45  0  0  0  0  0  0  0  0999 V2000
   21.3483   73.7496   -2.2310 P   0  0  2  0  0  0  0  0  0  0  0  0
   21.4372   73.4080   -0.6521 O   0  0  0  0  0  0  0  0  0  0  0  0
   20.9485   75.1596   -2.5528 O   0  0  0  0  0  0  0  0  0  0  0  0
   20.3850   72.5932   -2.8249 O   0  0  0  0  0  0  0  0  0  0  0  0
   19.6973   72.8433   -4.0383 C   0  0  0  0  0  0  0  0  0  0  0  0
   17.6464   72.3779   -5.2007 O   0  0  0  0  0  0  0  0  0  0  0  0
   16.8155   70.8704   -2.7455 O   0  0  0  0  0  0  0  0  0  0  0  0
   17.5910   68.8747   -4.4343 O   0  0  0  0  0  0  0  0  0  0  0  0
   18.1071   70.9838   -3.3405 C   0  0  1  0  0  0  0  0  0  0  0  0
   18.1804   70.1480   -4.6014 C   0  0  2  0  0  0  0  0  0  0  0  0
   18.2489   72.3986   -3.8881 C   0  0  1  0  0  0  0  0  0  0  0  0
   17.4286   71.0142   -5.5977 C   0  0  2  0  0  0  0  0  0  0  0  0
   16.7017   69.9752   -2.3883 H   0  0  0  0  0  0  0  0  0  0  0  0
   18.1053   68.3619   -3.7915 H   0  0  0  0  0  0  0  0  0  0  0  0
   15.7757   70.3927   -7.8021 O   0  0  0  0  0  0  0  0  0  0  0  0
   19.3521   70.3630  -10.7090 O   0  0  0  0  0  0  0  0  0  0  0  0
   17.9014   70.8388   -6.9420 N   0  0  0  0  0  0  0  0  0  0  0  0
   17.5578   70.3786   -9.2478 N   0  0  0  0  0  0  0  0  0  0  0  0
   16.9886   70.5272   -7.9766 C   0  0  0  0  0  0  0  0  0  0  0  0
   19.2562   70.9761   -7.2236 C   0  0  0  0  0  0  0  0  0  0  0  0
   19.7832   70.8298   -8.4410 C   0  0  0  0  0  0  0  0  0  0  0  0
   18.8980   70.5038   -9.5777 C   0  0  0  0  0  0  0  0  0  0  0  0
   16.9411   70.1610   -9.9841 H   0  0  0  0  0  0  0  0  0  0  0  0
   22.8082   73.3228   -2.7780 O   0  0  0  0  0  0  0  0  0  0  0  0
   23.5470   73.6298   -4.1826 P   0  0  2  0  0  0  0  0  0  0  0  0
   23.2911   72.2813   -5.0390 O   0  0  0  0  0  0  0  0  0  0  0  0
   24.9924   74.0123   -4.0469 O   0  0  0  0  0  0  0  0  0  0  0  0
   22.6238   74.7461   -4.8943 O   0  0  0  0  0  0  0  0  0  0  0  0
   20.9539   74.6537   -6.5735 O   0  0  0  0  0  0  0  0  0  0  0  0
   22.9572   78.0421   -7.8209 O   0  0  0  0  0  0  0  0  0  0  0  0
   20.3617   78.2919   -6.6172 O   0  0  0  0  0  0  0  0  0  0  0  0
   24.4418   75.7968   -6.7560 O   0  0  0  0  0  0  0  0  0  0  0  0
   22.4305   77.1175   -6.8654 C   0  0  1  0  0  0  0  0  0  0  0  0
   20.9130   77.0508   -7.0486 C   0  0  1  0  0  0  0  0  0  0  0  0
   23.0609   75.7457   -7.0982 C   0  0  2  0  0  0  0  0  0  0  0  0
   20.3087   75.8901   -6.2469 C   0  0  1  0  0  0  0  0  0  0  0  0
   22.3546   74.6551   -6.2910 C   0  0  1  0  0  0  0  0  0  0  0  0
   22.5613   78.9153   -7.6782 H   0  0  0  0  0  0  0  0  0  0  0  0
   20.7519   79.0164   -7.1309 H   0  0  0  0  0  0  0  0  0  0  0  0
   24.8777   76.4908   -7.2739 H   0  0  0  0  0  0  0  0  0  0  0  0
   18.6171   74.3962   -7.0315 O   0  0  0  0  0  0  0  0  0  0  0  0
   18.8208   75.7075   -6.5381 C   0  0  0  0  0  0  0  0  0  0  0  0
   17.6744   74.2655   -7.2210 H   0  0  0  0  0  0  0  0  0  0  0  0
 25 28  1  0
 25 24  1  0
 25 26  1  6
 25 27  2  0
  1  4  1  0
  1 24  1  0
  1  2  1  1
  1  3  2  0
  6 11  1  0
  6 12  1  0
 29 36  1  0
 29 37  1  0
  9  7  1  6
  7 13  1  0
 10  8  1  1
  8 14  1  0
 37 28  1  1
  4  5  1  0
 33 30  1  6
 30 38  1  0
 34 31  1  1
 31 39  1  0
 35 32  1  1
 32 40  1  0
 41 42  1  0
 41 43  1  0
 15 19  2  0
 16 22  2  0
 12 17  1  6
 17 19  1  0
 17 20  1  0
 18 19  1  0
 18 22  1  0
 18 23  1  0
  9 10  1  0
  9 11  1  0
 10 12  1  0
 11  5  1  6
 33 34  1  0
 33 35  1  0
 34 36  1  0
 35 37  1  0
 36 42  1  6
 20 21  2  0
 21 22  1  0
M  CHG  2   2  -1  26  -1
M  END
>  <COMPND>  (65) 
    8629 

>  <AUTHOR>  (65) 
    GENERATED BY OPEN BABEL 3.1.1

>  <MASTER>  (65) 
        0    0    0    0    0    0    0    0   58    0   58    0

>  <minimizedAffinity>  (65) 
-6.15670

>  <CNNscore>  (65) 
0.8383588791

>  <CNNaffinity>  (65) 
4.4649844170

>  <CNN_VS>  (65) 
3.7432594299

>  <CNNaffinity_variance>  (65) 
0.0885233805

$$$$
66
     RDKit          3D

 43 45  0  0  0  0  0  0  0  0999 V2000
   21.6468   74.1782   -3.1646 P   0  0  2  0  0  0  0  0  0  0  0  0
   21.7158   74.6869   -1.6304 O   0  0  0  0  0  0  0  0  0  0  0  0
   21.8029   75.2557   -4.1972 O   0  0  0  0  0  0  0  0  0  0  0  0
   20.2679   73.3345   -3.2325 O   0  0  0  0  0  0  0  0  0  0  0  0
   19.4277   73.5018   -4.3612 C   0  0  0  0  0  0  0  0  0  0  0  0
   17.4666   72.5488   -5.3708 O   0  0  0  0  0  0  0  0  0  0  0  0
   17.0313   71.1454   -2.7570 O   0  0  0  0  0  0  0  0  0  0  0  0
   18.1196   69.1856   -4.3098 O   0  0  0  0  0  0  0  0  0  0  0  0
   18.2546   71.4468   -3.4265 C   0  0  1  0  0  0  0  0  0  0  0  0
   18.4443   70.5267   -4.6144 C   0  0  2  0  0  0  0  0  0  0  0  0
   18.0995   72.8055   -4.0981 C   0  0  1  0  0  0  0  0  0  0  0  0
   17.5039   71.1376   -5.6394 C   0  0  2  0  0  0  0  0  0  0  0  0
   17.1063   70.2820   -2.3200 H   0  0  0  0  0  0  0  0  0  0  0  0
   18.7461   68.8421   -3.6539 H   0  0  0  0  0  0  0  0  0  0  0  0
   15.8712   70.1873   -7.7391 O   0  0  0  0  0  0  0  0  0  0  0  0
   19.3384   70.3832  -10.7692 O   0  0  0  0  0  0  0  0  0  0  0  0
   17.9540   70.9313   -6.9871 N   0  0  0  0  0  0  0  0  0  0  0  0
   17.5989   70.2858   -9.2462 N   0  0  0  0  0  0  0  0  0  0  0  0
   17.0541   70.4497   -7.9662 C   0  0  0  0  0  0  0  0  0  0  0  0
   19.2743   71.2059   -7.3265 C   0  0  0  0  0  0  0  0  0  0  0  0
   19.7785   71.0430   -8.5514 C   0  0  0  0  0  0  0  0  0  0  0  0
   18.9046   70.5436   -9.6325 C   0  0  0  0  0  0  0  0  0  0  0  0
   16.9906   69.9510   -9.9445 H   0  0  0  0  0  0  0  0  0  0  0  0
   22.7802   73.0269   -3.2171 O   0  0  0  0  0  0  0  0  0  0  0  0
   22.8270   71.5524   -2.5563 P   0  0  2  0  0  0  0  0  0  0  0  0
   24.2795   70.9936   -2.9984 O   0  0  0  0  0  0  0  0  0  0  0  0
   21.6784   70.6672   -2.9449 O   0  0  0  0  0  0  0  0  0  0  0  0
   22.9586   71.8197   -0.9700 O   0  0  0  0  0  0  0  0  0  0  0  0
   23.1213   70.5535    1.0267 O   0  0  0  0  0  0  0  0  0  0  0  0
   20.0685   73.1122    2.1149 O   0  0  0  0  0  0  0  0  0  0  0  0
   22.6791   73.4501    3.2633 O   0  0  0  0  0  0  0  0  0  0  0  0
   20.1907   72.0762   -0.5853 O   0  0  0  0  0  0  0  0  0  0  0  0
   21.2820   72.7368    1.4577 C   0  0  1  0  0  0  0  0  0  0  0  0
   22.2882   72.2971    2.5231 C   0  0  1  0  0  0  0  0  0  0  0  0
   20.9913   71.5929    0.4880 C   0  0  2  0  0  0  0  0  0  0  0  0
   23.5145   71.6304    1.8853 C   0  0  1  0  0  0  0  0  0  0  0  0
   22.2794   70.9681   -0.0509 C   0  0  1  0  0  0  0  0  0  0  0  0
   20.2461   73.8385    2.7317 H   0  0  0  0  0  0  0  0  0  0  0  0
   21.8955   73.8619    3.6604 H   0  0  0  0  0  0  0  0  0  0  0  0
   19.3782   72.4690   -0.2311 H   0  0  0  0  0  0  0  0  0  0  0  0
   24.9826   69.8274    2.4355 O   0  0  0  0  0  0  0  0  0  0  0  0
   24.4566   71.0435    2.9341 C   0  0  0  0  0  0  0  0  0  0  0  0
   25.5843   69.4426    3.0924 H   0  0  0  0  0  0  0  0  0  0  0  0
 25 28  1  0
 25 24  1  0
 25 26  1  6
 25 27  2  0
  1  4  1  0
  1 24  1  0
  1  2  1  1
  1  3  2  0
  6 11  1  0
  6 12  1  0
 29 36  1  0
 29 37  1  0
  9  7  1  6
  7 13  1  0
 10  8  1  1
  8 14  1  0
 37 28  1  1
  4  5  1  0
 33 30  1  1
 30 38  1  0
 34 31  1  6
 31 39  1  0
 35 32  1  6
 32 40  1  0
 41 42  1  0
 41 43  1  0
 15 19  2  0
 16 22  2  0
 12 17  1  6
 17 19  1  0
 17 20  1  0
 18 19  1  0
 18 22  1  0
 18 23  1  0
  9 10  1  0
  9 11  1  0
 10 12  1  0
 11  5  1  6
 33 34  1  0
 33 35  1  0
 34 36  1  0
 35 37  1  0
 36 42  1  1
 20 21  2  0
 21 22  1  0
M  CHG  2   2  -1  26  -1
M  END
>  <COMPND>  (66) 
    8629 

>  <AUTHOR>  (66) 
    GENERATED BY OPEN BABEL 3.1.1

>  <MASTER>  (66) 
        0    0    0    0    0    0    0    0   58    0   58    0

>  <minimizedAffinity>  (66) 
-7.37032

>  <CNNscore>  (66) 
0.8248618245

>  <CNNaffinity>  (66) 
4.5461778641

>  <CNN_VS>  (66) 
3.7499685287

>  <CNNaffinity_variance>  (66) 
0.0178798549

$$$$
67
     RDKit          3D

 43 45  0  0  0  0  0  0  0  0999 V2000
   20.5816   71.3631   -2.7819 P   0  0  2  0  0  0  0  0  0  0  0  0
   20.0578   72.8355   -2.3633 O   0  0  0  0  0  0  0  0  0  0  0  0
   19.5014   70.3809   -3.1281 O   0  0  0  0  0  0  0  0  0  0  0  0
   21.5551   70.9359   -1.5622 O   0  0  0  0  0  0  0  0  0  0  0  0
   22.6396   71.7864   -1.2330 C   0  0  0  0  0  0  0  0  0  0  0  0
   24.3930   72.1326    0.3731 O   0  0  0  0  0  0  0  0  0  0  0  0
   22.5027   70.9942    2.4033 O   0  0  0  0  0  0  0  0  0  0  0  0
   22.3074   73.6775    2.8483 O   0  0  0  0  0  0  0  0  0  0  0  0
   22.2242   71.8241    1.2768 C   0  0  1  0  0  0  0  0  0  0  0  0
   22.6643   73.2471    1.5505 C   0  0  2  0  0  0  0  0  0  0  0  0
   23.1610   71.4129    0.1479 C   0  0  1  0  0  0  0  0  0  0  0  0
   24.1685   73.1541    1.3585 C   0  0  2  0  0  0  0  0  0  0  0  0
   21.9163   71.2379    3.1372 H   0  0  0  0  0  0  0  0  0  0  0  0
   21.3411   73.7206    2.9204 H   0  0  0  0  0  0  0  0  0  0  0  0
   26.0212   74.7100    2.8162 O   0  0  0  0  0  0  0  0  0  0  0  0
   26.2861   77.8642   -0.5338 O   0  0  0  0  0  0  0  0  0  0  0  0
   24.7382   74.3863    0.8910 N   0  0  0  0  0  0  0  0  0  0  0  0
   26.1517   76.2792    1.1469 N   0  0  0  0  0  0  0  0  0  0  0  0
   25.6589   75.0909    1.7011 C   0  0  0  0  0  0  0  0  0  0  0  0
   24.3833   74.8839   -0.3581 C   0  0  0  0  0  0  0  0  0  0  0  0
   24.8613   76.0193   -0.8716 C   0  0  0  0  0  0  0  0  0  0  0  0
   25.8285   76.8159   -0.0893 C   0  0  0  0  0  0  0  0  0  0  0  0
   26.7943   76.7871    1.6935 H   0  0  0  0  0  0  0  0  0  0  0  0
   21.6183   71.6739   -3.9825 O   0  0  0  0  0  0  0  0  0  0  0  0
   21.5595   72.7551   -5.1827 P   0  0  2  0  0  0  0  0  0  0  0  0
   22.8276   72.3555   -6.1046 O   0  0  0  0  0  0  0  0  0  0  0  0
   21.5537   74.1845   -4.7235 O   0  0  0  0  0  0  0  0  0  0  0  0
   20.2706   72.3276   -6.0549 O   0  0  0  0  0  0  0  0  0  0  0  0
   19.1053   70.2639   -6.0522 O   0  0  0  0  0  0  0  0  0  0  0  0
   18.6650   71.2651  -10.0340 O   0  0  0  0  0  0  0  0  0  0  0  0
   16.4042   71.4343   -8.2710 O   0  0  0  0  0  0  0  0  0  0  0  0
   21.1558   71.8277   -8.6705 O   0  0  0  0  0  0  0  0  0  0  0  0
   18.7674   71.5190   -8.6303 C   0  0  1  0  0  0  0  0  0  0  0  0
   17.6247   70.7852   -7.9256 C   0  0  1  0  0  0  0  0  0  0  0  0
   20.1197   71.0153   -8.1293 C   0  0  2  0  0  0  0  0  0  0  0  0
   17.8195   70.7885   -6.4034 C   0  0  1  0  0  0  0  0  0  0  0  0
   20.1909   71.0136   -6.6012 C   0  0  1  0  0  0  0  0  0  0  0  0
   17.8088   71.5830  -10.3586 H   0  0  0  0  0  0  0  0  0  0  0  0
   16.2935   71.4258   -9.2348 H   0  0  0  0  0  0  0  0  0  0  0  0
   21.1001   71.8203   -9.6384 H   0  0  0  0  0  0  0  0  0  0  0  0
   15.9686   69.3012   -6.6695 O   0  0  0  0  0  0  0  0  0  0  0  0
   16.7773   69.9288   -5.6916 C   0  0  0  0  0  0  0  0  0  0  0  0
   15.3008   68.7503   -6.2309 H   0  0  0  0  0  0  0  0  0  0  0  0
 25 28  1  0
 25 24  1  0
 25 26  1  6
 25 27  2  0
  1  4  1  0
  1 24  1  0
  1  2  1  1
  1  3  2  0
  6 11  1  0
  6 12  1  0
 29 36  1  0
 29 37  1  0
  9  7  1  1
  7 13  1  0
 10  8  1  1
  8 14  1  0
 37 28  1  1
  4  5  1  0
 33 30  1  6
 30 38  1  0
 34 31  1  1
 31 39  1  0
 35 32  1  6
 32 40  1  0
 41 42  1  0
 41 43  1  0
 15 19  2  0
 16 22  2  0
 12 17  1  6
 17 19  1  0
 17 20  1  0
 18 19  1  0
 18 22  1  0
 18 23  1  0
  9 10  1  0
  9 11  1  0
 10 12  1  0
 11  5  1  6
 33 34  1  0
 33 35  1  0
 34 36  1  0
 35 37  1  0
 36 42  1  1
 20 21  2  0
 21 22  1  0
M  CHG  2   2  -1  26  -1
M  END
>  <COMPND>  (67) 
    8629 

>  <AUTHOR>  (67) 
    GENERATED BY OPEN BABEL 3.1.1

>  <MASTER>  (67) 
        0    0    0    0    0    0    0    0   58    0   58    0

>  <minimizedAffinity>  (67) 
-6.59530

>  <CNNscore>  (67) 
0.7782129645

>  <CNNaffinity>  (67) 
4.3423247337

>  <CNN_VS>  (67) 
3.3792533875

>  <CNNaffinity_variance>  (67) 
0.0329810493

$$$$
68
     RDKit          3D

 43 45  0  0  0  0  0  0  0  0999 V2000
   20.8470   71.4852   -0.6437 P   0  0  2  0  0  0  0  0  0  0  0  0
   21.3566   70.8698   -2.0505 O   0  0  0  0  0  0  0  0  0  0  0  0
   20.8934   70.5357    0.5172 O   0  0  0  0  0  0  0  0  0  0  0  0
   19.3908   72.0979   -0.9926 O   0  0  0  0  0  0  0  0  0  0  0  0
   18.9559   72.0820   -2.3411 C   0  0  0  0  0  0  0  0  0  0  0  0
   17.2009   71.3325   -3.8011 O   0  0  0  0  0  0  0  0  0  0  0  0
   16.6590   69.2102   -1.7534 O   0  0  0  0  0  0  0  0  0  0  0  0
   18.0745   67.8572   -3.6515 O   0  0  0  0  0  0  0  0  0  0  0  0
   17.9050   69.7719   -2.1627 C   0  0  1  0  0  0  0  0  0  0  0  0
   18.2946   69.2477   -3.5290 C   0  0  2  0  0  0  0  0  0  0  0  0
   17.6828   71.2531   -2.4418 C   0  0  1  0  0  0  0  0  0  0  0  0
   17.4004   70.0642   -4.4465 C   0  0  2  0  0  0  0  0  0  0  0  0
   16.7759   68.2645   -1.5692 H   0  0  0  0  0  0  0  0  0  0  0  0
   18.6666   67.3816   -3.0482 H   0  0  0  0  0  0  0  0  0  0  0  0
   16.1010   69.5759   -6.9064 O   0  0  0  0  0  0  0  0  0  0  0  0
   19.7748   70.9463   -9.3285 O   0  0  0  0  0  0  0  0  0  0  0  0
   17.9938   70.2850   -5.7352 N   0  0  0  0  0  0  0  0  0  0  0  0
   17.9312   70.2588   -8.1104 N   0  0  0  0  0  0  0  0  0  0  0  0
   17.2559   70.0069   -6.9094 C   0  0  0  0  0  0  0  0  0  0  0  0
   19.2931   70.7723   -5.8255 C   0  0  0  0  0  0  0  0  0  0  0  0
   19.9232   71.0060   -6.9786 C   0  0  0  0  0  0  0  0  0  0  0  0
   19.2226   70.7417   -8.2519 C   0  0  0  0  0  0  0  0  0  0  0  0
   17.4370   70.0721   -8.9415 H   0  0  0  0  0  0  0  0  0  0  0  0
   21.7645   72.8048   -0.4706 O   0  0  0  0  0  0  0  0  0  0  0  0
   22.0376   73.7466    0.8144 P   0  0  2  0  0  0  0  0  0  0  0  0
   20.6119   73.7535    1.5792 O   0  0  0  0  0  0  0  0  0  0  0  0
   22.5657   75.1107    0.4764 O   0  0  0  0  0  0  0  0  0  0  0  0
   23.0054   72.8712    1.7642 O   0  0  0  0  0  0  0  0  0  0  0  0
   25.3299   73.3158    1.6390 O   0  0  0  0  0  0  0  0  0  0  0  0
   25.4633   69.6175    3.4706 O   0  0  0  0  0  0  0  0  0  0  0  0
   26.0792   71.9754    4.9902 O   0  0  0  0  0  0  0  0  0  0  0  0
   23.5065   70.1340    1.4010 O   0  0  0  0  0  0  0  0  0  0  0  0
   24.9253   70.9115    3.1853 C   0  0  1  0  0  0  0  0  0  0  0  0
   25.9704   71.9607    3.5695 C   0  0  1  0  0  0  0  0  0  0  0  0
   24.5982   70.9987    1.6958 C   0  0  2  0  0  0  0  0  0  0  0  0
   25.5777   73.3501    3.0494 C   0  0  1  0  0  0  0  0  0  0  0  0
   24.2689   72.4315    1.2728 C   0  0  1  0  0  0  0  0  0  0  0  0
   25.6727   69.5553    4.4150 H   0  0  0  0  0  0  0  0  0  0  0  0
   26.3272   71.0921    5.3058 H   0  0  0  0  0  0  0  0  0  0  0  0
   23.7274   69.2302    1.6732 H   0  0  0  0  0  0  0  0  0  0  0  0
   27.8244   73.7107    3.7782 O   0  0  0  0  0  0  0  0  0  0  0  0
   26.6797   74.3810    3.2837 C   0  0  0  0  0  0  0  0  0  0  0  0
   28.5342   74.3544    3.9317 H   0  0  0  0  0  0  0  0  0  0  0  0
 25 28  1  0
 25 24  1  0
 25 26  1  1
 25 27  2  0
  1  4  1  0
  1 24  1  0
  1  2  1  6
  1  3  2  0
  6 11  1  0
  6 12  1  0
 29 36  1  0
 29 37  1  0
  9  7  1  6
  7 13  1  0
 10  8  1  1
  8 14  1  0
 37 28  1  1
  4  5  1  0
 33 30  1  6
 30 38  1  0
 34 31  1  1
 31 39  1  0
 35 32  1  1
 32 40  1  0
 41 42  1  0
 41 43  1  0
 15 19  2  0
 16 22  2  0
 12 17  1  6
 17 19  1  0
 17 20  1  0
 18 19  1  0
 18 22  1  0
 18 23  1  0
  9 10  1  0
  9 11  1  0
 10 12  1  0
 11  5  1  6
 33 34  1  0
 33 35  1  0
 34 36  1  0
 35 37  1  0
 36 42  1  6
 20 21  2  0
 21 22  1  0
M  CHG  2   2  -1  26  -1
M  END
>  <COMPND>  (68) 
    8629 

>  <AUTHOR>  (68) 
    GENERATED BY OPEN BABEL 3.1.1

>  <MASTER>  (68) 
        0    0    0    0    0    0    0    0   58    0   58    0

>  <minimizedAffinity>  (68) 
-7.03035

>  <CNNscore>  (68) 
0.7388735414

>  <CNNaffinity>  (68) 
4.4195694923

>  <CNN_VS>  (68) 
3.2655029297

>  <CNNaffinity_variance>  (68) 
0.1390627027

$$$$
69
     RDKit          3D

 43 45  0  0  0  0  0  0  0  0999 V2000
   19.0340   74.1203    0.3673 P   0  0  2  0  0  0  0  0  0  0  0  0
   18.4481   74.6803    1.7676 O   0  0  0  0  0  0  0  0  0  0  0  0
   19.8773   75.0945   -0.4016 O   0  0  0  0  0  0  0  0  0  0  0  0
   17.7268   73.5604   -0.4045 O   0  0  0  0  0  0  0  0  0  0  0  0
   17.2017   74.3170   -1.4813 C   0  0  0  0  0  0  0  0  0  0  0  0
   17.5353   72.1717   -2.5110 O   0  0  0  0  0  0  0  0  0  0  0  0
   16.9841   73.5462   -5.1183 O   0  0  0  0  0  0  0  0  0  0  0  0
   14.6112   72.3137   -4.5828 O   0  0  0  0  0  0  0  0  0  0  0  0
   16.4031   73.7775   -3.8360 C   0  0  1  0  0  0  0  0  0  0  0  0
   15.4342   72.6662   -3.4896 C   0  0  2  0  0  0  0  0  0  0  0  0
   17.4916   73.5889   -2.7867 C   0  0  1  0  0  0  0  0  0  0  0  0
   16.3740   71.5451   -3.0799 C   0  0  2  0  0  0  0  0  0  0  0  0
   16.3079   73.6612   -5.8049 H   0  0  0  0  0  0  0  0  0  0  0  0
   14.0320   73.0592   -4.8053 H   0  0  0  0  0  0  0  0  0  0  0  0
   17.1629   68.8653   -2.6621 O   0  0  0  0  0  0  0  0  0  0  0  0
   14.0619   68.2840    0.6975 O   0  0  0  0  0  0  0  0  0  0  0  0
   15.7900   70.6706   -2.1024 N   0  0  0  0  0  0  0  0  0  0  0  0
   15.6183   68.5781   -0.9895 N   0  0  0  0  0  0  0  0  0  0  0  0
   16.2582   69.3422   -1.9738 C   0  0  0  0  0  0  0  0  0  0  0  0
   14.7651   71.1324   -1.2837 C   0  0  0  0  0  0  0  0  0  0  0  0
   14.1645   70.3907   -0.3507 C   0  0  0  0  0  0  0  0  0  0  0  0
   14.5944   68.9915   -0.1520 C   0  0  0  0  0  0  0  0  0  0  0  0
   15.9277   67.6494   -0.8821 H   0  0  0  0  0  0  0  0  0  0  0  0
   19.8018   72.7683    0.8093 O   0  0  0  0  0  0  0  0  0  0  0  0
   21.1742   72.1033    0.2732 P   0  0  2  0  0  0  0  0  0  0  0  0
   20.9867   70.5343    0.6206 O   0  0  0  0  0  0  0  0  0  0  0  0
   22.4196   72.7190    0.8421 O   0  0  0  0  0  0  0  0  0  0  0  0
   21.0645   72.1806   -1.3352 O   0  0  0  0  0  0  0  0  0  0  0  0
   20.7459   70.7927   -3.2297 O   0  0  0  0  0  0  0  0  0  0  0  0
   24.3213   72.5596   -4.3000 O   0  0  0  0  0  0  0  0  0  0  0  0
   21.9046   73.3148   -5.6556 O   0  0  0  0  0  0  0  0  0  0  0  0
   23.8410   71.8286   -1.5405 O   0  0  0  0  0  0  0  0  0  0  0  0
   23.0228   72.5036   -3.7030 C   0  0  1  0  0  0  0  0  0  0  0  0
   22.0048   72.1808   -4.7986 C   0  0  1  0  0  0  0  0  0  0  0  0
   23.0150   71.4206   -2.6258 C   0  0  2  0  0  0  0  0  0  0  0  0
   20.6338   71.8419   -4.1983 C   0  0  1  0  0  0  0  0  0  0  0  0
   21.5976   71.1257   -2.1317 C   0  0  1  0  0  0  0  0  0  0  0  0
   24.3332   73.2457   -4.9845 H   0  0  0  0  0  0  0  0  0  0  0  0
   22.7771   73.5185   -6.0276 H   0  0  0  0  0  0  0  0  0  0  0  0
   24.7355   72.0119   -1.8663 H   0  0  0  0  0  0  0  0  0  0  0  0
   20.2680   70.3494   -6.0280 O   0  0  0  0  0  0  0  0  0  0  0  0
   19.6465   71.3642   -5.2610 C   0  0  0  0  0  0  0  0  0  0  0  0
   19.6511   70.0356   -6.7083 H   0  0  0  0  0  0  0  0  0  0  0  0
 25 28  1  0
 25 24  1  0
 25 26  1  6
 25 27  2  0
  1  4  1  0
  1 24  1  0
  1  2  1  1
  1  3  2  0
  6 11  1  0
  6 12  1  0
 29 36  1  0
 29 37  1  0
  9  7  1  6
  7 13  1  0
 10  8  1  6
  8 14  1  0
 37 28  1  6
  4  5  1  0
 33 30  1  6
 30 38  1  0
 34 31  1  6
 31 39  1  0
 35 32  1  1
 32 40  1  0
 41 42  1  0
 41 43  1  0
 15 19  2  0
 16 22  2  0
 12 17  1  1
 17 19  1  0
 17 20  1  0
 18 19  1  0
 18 22  1  0
 18 23  1  0
  9 10  1  0
  9 11  1  0
 10 12  1  0
 11  5  1  1
 33 34  1  0
 33 35  1  0
 34 36  1  0
 35 37  1  0
 36 42  1  6
 20 21  2  0
 21 22  1  0
M  CHG  2   2  -1  26  -1
M  END
>  <COMPND>  (69) 
    8629 

>  <AUTHOR>  (69) 
    GENERATED BY OPEN BABEL 3.1.1

>  <MASTER>  (69) 
        0    0    0    0    0    0    0    0   58    0   58    0

>  <minimizedAffinity>  (69) 
-6.03534

>  <CNNscore>  (69) 
0.7312111259

>  <CNNaffinity>  (69) 
4.2402868271

>  <CNN_VS>  (69) 
3.1005449295

>  <CNNaffinity_variance>  (69) 
0.2144253254

$$$$
70
     RDKit          3D

 43 45  0  0  0  0  0  0  0  0999 V2000
   21.0858   73.4788   -1.2425 P   0  0  2  0  0  0  0  0  0  0  0  0
   19.6388   73.8550   -0.6244 O   0  0  0  0  0  0  0  0  0  0  0  0
   22.1237   74.5563   -1.1274 O   0  0  0  0  0  0  0  0  0  0  0  0
   20.7494   72.9849   -2.7461 O   0  0  0  0  0  0  0  0  0  0  0  0
   20.4128   71.6239   -2.9513 C   0  0  0  0  0  0  0  0  0  0  0  0
   18.2635   71.8210   -4.0075 O   0  0  0  0  0  0  0  0  0  0  0  0
   17.2377   70.0341   -1.8290 O   0  0  0  0  0  0  0  0  0  0  0  0
   17.5069   68.3160   -3.9296 O   0  0  0  0  0  0  0  0  0  0  0  0
   18.4986   70.0110   -2.4960 C   0  0  1  0  0  0  0  0  0  0  0  0
   18.3427   69.4549   -3.8960 C   0  0  2  0  0  0  0  0  0  0  0  0
   18.9109   71.4519   -2.7701 C   0  0  1  0  0  0  0  0  0  0  0  0
   17.7485   70.6383   -4.6407 C   0  0  2  0  0  0  0  0  0  0  0  0
   16.9537   69.1249   -1.6431 H   0  0  0  0  0  0  0  0  0  0  0  0
   17.9286   67.5909   -3.4426 H   0  0  0  0  0  0  0  0  0  0  0  0
   16.3288   69.3027   -6.6849 O   0  0  0  0  0  0  0  0  0  0  0  0
   19.2582   70.7665   -9.9278 O   0  0  0  0  0  0  0  0  0  0  0  0
   18.1177   70.6538   -6.0281 N   0  0  0  0  0  0  0  0  0  0  0  0
   17.7885   70.0328   -8.2980 N   0  0  0  0  0  0  0  0  0  0  0  0
   17.3376   69.9493   -6.9744 C   0  0  0  0  0  0  0  0  0  0  0  0
   19.2419   71.3623   -6.4381 C   0  0  0  0  0  0  0  0  0  0  0  0
   19.6592   71.4309   -7.7040 C   0  0  0  0  0  0  0  0  0  0  0  0
   18.9002   70.7228   -8.7549 C   0  0  0  0  0  0  0  0  0  0  0  0
   17.2609   69.5495   -8.9746 H   0  0  0  0  0  0  0  0  0  0  0  0
   21.4587   72.1016   -0.4827 O   0  0  0  0  0  0  0  0  0  0  0  0
   21.4292   71.7133    1.0862 P   0  0  2  0  0  0  0  0  0  0  0  0
   21.5806   70.1025    1.0726 O   0  0  0  0  0  0  0  0  0  0  0  0
   20.2207   72.2154    1.8218 O   0  0  0  0  0  0  0  0  0  0  0  0
   22.8364   72.2501    1.6664 O   0  0  0  0  0  0  0  0  0  0  0  0
   24.5423   73.3930    0.4830 O   0  0  0  0  0  0  0  0  0  0  0  0
   26.8826   71.3416    3.1970 O   0  0  0  0  0  0  0  0  0  0  0  0
   26.5278   74.1766    3.4884 O   0  0  0  0  0  0  0  0  0  0  0  0
   24.5563   70.0645    2.0409 O   0  0  0  0  0  0  0  0  0  0  0  0
   25.7231   72.0490    2.7491 C   0  0  1  0  0  0  0  0  0  0  0  0
   26.1540   73.4528    2.3194 C   0  0  1  0  0  0  0  0  0  0  0  0
   25.1006   71.2948    1.5756 C   0  0  2  0  0  0  0  0  0  0  0  0
   25.0210   74.1783    1.5812 C   0  0  1  0  0  0  0  0  0  0  0  0
   24.0190   72.1242    0.8811 C   0  0  1  0  0  0  0  0  0  0  0  0
   27.2824   71.8150    3.9424 H   0  0  0  0  0  0  0  0  0  0  0  0
   27.2435   73.7076    3.9456 H   0  0  0  0  0  0  0  0  0  0  0  0
   25.2508   69.5486    2.4782 H   0  0  0  0  0  0  0  0  0  0  0  0
   25.0093   75.6178   -0.3258 O   0  0  0  0  0  0  0  0  0  0  0  0
   25.4783   75.5171    1.0062 C   0  0  0  0  0  0  0  0  0  0  0  0
   25.2927   76.4652   -0.7045 H   0  0  0  0  0  0  0  0  0  0  0  0
 25 28  1  0
 25 24  1  0
 25 26  1  6
 25 27  2  0
  1  4  1  0
  1 24  1  0
  1  2  1  1
  1  3  2  0
  6 11  1  0
  6 12  1  0
 29 36  1  0
 29 37  1  0
  9  7  1  6
  7 13  1  0
 10  8  1  1
  8 14  1  0
 37 28  1  1
  4  5  1  0
 33 30  1  6
 30 38  1  0
 34 31  1  1
 31 39  1  0
 35 32  1  1
 32 40  1  0
 41 42  1  0
 41 43  1  0
 15 19  2  0
 16 22  2  0
 12 17  1  6
 17 19  1  0
 17 20  1  0
 18 19  1  0
 18 22  1  0
 18 23  1  0
  9 10  1  0
  9 11  1  0
 10 12  1  0
 11  5  1  6
 33 34  1  0
 33 35  1  0
 34 36  1  0
 35 37  1  0
 36 42  1  6
 20 21  2  0
 21 22  1  0
M  CHG  2   2  -1  26  -1
M  END
>  <COMPND>  (70) 
    8629 

>  <AUTHOR>  (70) 
    GENERATED BY OPEN BABEL 3.1.1

>  <MASTER>  (70) 
        0    0    0    0    0    0    0    0   58    0   58    0

>  <minimizedAffinity>  (70) 
-6.65452

>  <CNNscore>  (70) 
0.6725938916

>  <CNNaffinity>  (70) 
4.3462777138

>  <CNN_VS>  (70) 
2.9232797623

>  <CNNaffinity_variance>  (70) 
0.1951360255

$$$$
71
     RDKit          3D

 43 45  0  0  0  0  0  0  0  0999 V2000
   23.5002   71.9368   -3.2210 P   0  0  2  0  0  0  0  0  0  0  0  0
   24.1741   73.0727   -4.1555 O   0  0  0  0  0  0  0  0  0  0  0  0
   24.3723   70.7489   -2.9388 O   0  0  0  0  0  0  0  0  0  0  0  0
   22.0926   71.6172   -3.9521 O   0  0  0  0  0  0  0  0  0  0  0  0
   21.6412   72.4994   -4.9649 C   0  0  0  0  0  0  0  0  0  0  0  0
   20.7073   70.5349   -5.9859 O   0  0  0  0  0  0  0  0  0  0  0  0
   21.0687   71.9516   -8.6037 O   0  0  0  0  0  0  0  0  0  0  0  0
   18.4097   72.2940   -8.1047 O   0  0  0  0  0  0  0  0  0  0  0  0
   20.7067   72.4857   -7.3313 C   0  0  1  0  0  0  0  0  0  0  0  0
   19.2734   72.1269   -6.9989 C   0  0  2  0  0  0  0  0  0  0  0  0
   21.4813   71.7222   -6.2643 C   0  0  1  0  0  0  0  0  0  0  0  0
   19.4029   70.6745   -6.5724 C   0  0  2  0  0  0  0  0  0  0  0  0
   20.5867   72.4238   -9.3013 H   0  0  0  0  0  0  0  0  0  0  0  0
   18.3605   73.2343   -8.3376 H   0  0  0  0  0  0  0  0  0  0  0  0
   16.8035   69.7744   -7.2133 O   0  0  0  0  0  0  0  0  0  0  0  0
   15.6888   69.2586   -2.7711 O   0  0  0  0  0  0  0  0  0  0  0  0
   18.4130   70.2979   -5.6031 N   0  0  0  0  0  0  0  0  0  0  0  0
   16.2507   69.5182   -5.0009 N   0  0  0  0  0  0  0  0  0  0  0  0
   17.1374   69.8604   -6.0297 C   0  0  0  0  0  0  0  0  0  0  0  0
   18.7112   70.3640   -4.2465 C   0  0  0  0  0  0  0  0  0  0  0  0
   17.8540   70.0353   -3.2778 C   0  0  0  0  0  0  0  0  0  0  0  0
   16.4998   69.5682   -3.6385 C   0  0  0  0  0  0  0  0  0  0  0  0
   15.3559   69.2110   -5.2743 H   0  0  0  0  0  0  0  0  0  0  0  0
   23.0482   72.7664   -1.9094 O   0  0  0  0  0  0  0  0  0  0  0  0
   21.8064   72.5562   -0.8961 P   0  0  2  0  0  0  0  0  0  0  0  0
   21.3444   71.0330   -1.1863 O   0  0  0  0  0  0  0  0  0  0  0  0
   20.7125   73.5738   -1.0439 O   0  0  0  0  0  0  0  0  0  0  0  0
   22.4794   72.5057    0.5700 O   0  0  0  0  0  0  0  0  0  0  0  0
   23.0477   70.8689    2.1869 O   0  0  0  0  0  0  0  0  0  0  0  0
   21.0235   73.5230    4.6179 O   0  0  0  0  0  0  0  0  0  0  0  0
   23.8808   73.3132    4.8175 O   0  0  0  0  0  0  0  0  0  0  0  0
   20.0782   73.0186    1.9288 O   0  0  0  0  0  0  0  0  0  0  0  0
   21.8711   73.1361    3.5329 C   0  0  1  0  0  0  0  0  0  0  0  0
   23.0710   72.3804    4.1074 C   0  0  1  0  0  0  0  0  0  0  0  0
   21.0818   72.2441    2.5765 C   0  0  2  0  0  0  0  0  0  0  0  0
   23.8843   71.7046    2.9953 C   0  0  1  0  0  0  0  0  0  0  0  0
   21.9920   71.5825    1.5402 C   0  0  1  0  0  0  0  0  0  0  0  0
   21.5185   74.0899    5.2287 H   0  0  0  0  0  0  0  0  0  0  0  0
   23.3553   73.7332    5.5165 H   0  0  0  0  0  0  0  0  0  0  0  0
   19.5084   73.4319    2.5955 H   0  0  0  0  0  0  0  0  0  0  0  0
   25.1386   69.6911    2.7101 O   0  0  0  0  0  0  0  0  0  0  0  0
   24.9928   70.8167    3.5564 C   0  0  0  0  0  0  0  0  0  0  0  0
   25.8411   69.1171    3.0548 H   0  0  0  0  0  0  0  0  0  0  0  0
 25 28  1  0
 25 24  1  0
 25 26  1  6
 25 27  2  0
  1  4  1  0
  1 24  1  0
  1  2  1  6
  1  3  2  0
  6 11  1  0
  6 12  1  0
 29 36  1  0
 29 37  1  0
  9  7  1  6
  7 13  1  0
 10  8  1  6
  8 14  1  0
 37 28  1  6
  4  5  1  0
 33 30  1  1
 30 38  1  0
 34 31  1  6
 31 39  1  0
 35 32  1  6
 32 40  1  0
 41 42  1  0
 41 43  1  0
 15 19  2  0
 16 22  2  0
 12 17  1  1
 17 19  1  0
 17 20  1  0
 18 19  1  0
 18 22  1  0
 18 23  1  0
  9 10  1  0
  9 11  1  0
 10 12  1  0
 11  5  1  1
 33 34  1  0
 33 35  1  0
 34 36  1  0
 35 37  1  0
 36 42  1  1
 20 21  2  0
 21 22  1  0
M  CHG  2   2  -1  26  -1
M  END
>  <COMPND>  (71) 
    8629 

>  <AUTHOR>  (71) 
    GENERATED BY OPEN BABEL 3.1.1

>  <MASTER>  (71) 
        0    0    0    0    0    0    0    0   58    0   58    0

>  <minimizedAffinity>  (71) 
-7.89573

>  <CNNscore>  (71) 
0.6469117403

>  <CNNaffinity>  (71) 
4.3331356049

>  <CNN_VS>  (71) 
2.8031563759

>  <CNNaffinity_variance>  (71) 
0.2051464021

$$$$
72
     RDKit          3D

 43 45  0  0  0  0  0  0  0  0999 V2000
   23.3093   72.2967   -3.4405 P   0  0  2  0  0  0  0  0  0  0  0  0
   24.1033   70.8993   -3.2559 O   0  0  0  0  0  0  0  0  0  0  0  0
   24.1119   73.4053   -4.0555 O   0  0  0  0  0  0  0  0  0  0  0  0
   22.7064   72.5982   -1.9696 O   0  0  0  0  0  0  0  0  0  0  0  0
   23.4013   72.1012   -0.8392 C   0  0  0  0  0  0  0  0  0  0  0  0
   23.1342   70.6423    1.0513 O   0  0  0  0  0  0  0  0  0  0  0  0
   20.4233   71.8792    1.3859 O   0  0  0  0  0  0  0  0  0  0  0  0
   21.9029   73.1693    3.2787 O   0  0  0  0  0  0  0  0  0  0  0  0
   21.6441   72.4827    0.9608 C   0  0  1  0  0  0  0  0  0  0  0  0
   22.5755   72.6720    2.1398 C   0  0  2  0  0  0  0  0  0  0  0  0
   22.4017   71.4651    0.1171 C   0  0  1  0  0  0  0  0  0  0  0  0
   23.1130   71.2660    2.3457 C   0  0  2  0  0  0  0  0  0  0  0  0
   19.9218   72.5104    1.9262 H   0  0  0  0  0  0  0  0  0  0  0  0
   21.5800   74.0658    3.0979 H   0  0  0  0  0  0  0  0  0  0  0  0
   23.7121   71.2960    5.1058 O   0  0  0  0  0  0  0  0  0  0  0  0
   28.2511   71.2496    4.3076 O   0  0  0  0  0  0  0  0  0  0  0  0
   24.4427   71.2618    2.8872 N   0  0  0  0  0  0  0  0  0  0  0  0
   25.9717   71.2727    4.7061 N   0  0  0  0  0  0  0  0  0  0  0  0
   24.6347   71.2789    4.2884 C   0  0  0  0  0  0  0  0  0  0  0  0
   25.5391   71.2405    2.0320 C   0  0  0  0  0  0  0  0  0  0  0  0
   26.8078   71.2361    2.4463 C   0  0  0  0  0  0  0  0  0  0  0  0
   27.0953   71.2531    3.8952 C   0  0  0  0  0  0  0  0  0  0  0  0
   26.1298   71.2847    5.6781 H   0  0  0  0  0  0  0  0  0  0  0  0
   22.0022   71.8630   -4.2870 O   0  0  0  0  0  0  0  0  0  0  0  0
   20.5110   72.4853   -4.3304 P   0  0  2  0  0  0  0  0  0  0  0  0
   20.7716   74.0797   -4.2441 O   0  0  0  0  0  0  0  0  0  0  0  0
   19.5899   71.9502   -3.2725 O   0  0  0  0  0  0  0  0  0  0  0  0
   20.0082   72.2358   -5.8437 O   0  0  0  0  0  0  0  0  0  0  0  0
   19.1316   70.0409   -6.0184 O   0  0  0  0  0  0  0  0  0  0  0  0
   18.9413   71.1456   -9.9926 O   0  0  0  0  0  0  0  0  0  0  0  0
   16.5214   70.9466   -8.4588 O   0  0  0  0  0  0  0  0  0  0  0  0
   21.1953   71.9661   -8.3721 O   0  0  0  0  0  0  0  0  0  0  0  0
   18.8759   71.3506   -8.5787 C   0  0  1  0  0  0  0  0  0  0  0  0
   17.7790   70.4462   -8.0133 C   0  0  1  0  0  0  0  0  0  0  0  0
   20.2294   71.0046   -7.9609 C   0  0  2  0  0  0  0  0  0  0  0  0
   17.8267   70.4098   -6.4798 C   0  0  1  0  0  0  0  0  0  0  0  0
   20.1553   70.9470   -6.4341 C   0  0  1  0  0  0  0  0  0  0  0  0
   18.0851   71.3639  -10.3910 H   0  0  0  0  0  0  0  0  0  0  0  0
   16.5046   70.9649   -9.4286 H   0  0  0  0  0  0  0  0  0  0  0  0
   21.2329   71.9928   -9.3405 H   0  0  0  0  0  0  0  0  0  0  0  0
   16.2092   69.9725   -4.7765 O   0  0  0  0  0  0  0  0  0  0  0  0
   16.8450   69.3933   -5.9010 C   0  0  0  0  0  0  0  0  0  0  0  0
   15.5812   69.3370   -4.3978 H   0  0  0  0  0  0  0  0  0  0  0  0
 25 28  1  0
 25 24  1  0
 25 26  1  1
 25 27  2  0
  1  4  1  0
  1 24  1  0
  1  2  1  1
  1  3  2  0
  6 11  1  0
  6 12  1  0
 29 36  1  0
 29 37  1  0
  9  7  1  1
  7 13  1  0
 10  8  1  1
  8 14  1  0
 37 28  1  6
  4  5  1  0
 33 30  1  6
 30 38  1  0
 34 31  1  1
 31 39  1  0
 35 32  1  1
 32 40  1  0
 41 42  1  0
 41 43  1  0
 15 19  2  0
 16 22  2  0
 12 17  1  6
 17 19  1  0
 17 20  1  0
 18 19  1  0
 18 22  1  0
 18 23  1  0
  9 10  1  0
  9 11  1  0
 10 12  1  0
 11  5  1  6
 33 34  1  0
 33 35  1  0
 34 36  1  0
 35 37  1  0
 36 42  1  6
 20 21  2  0
 21 22  1  0
M  CHG  2   2  -1  26  -1
M  END
>  <COMPND>  (72) 
    8629 

>  <AUTHOR>  (72) 
    GENERATED BY OPEN BABEL 3.1.1

>  <MASTER>  (72) 
        0    0    0    0    0    0    0    0   58    0   58    0

>  <minimizedAffinity>  (72) 
-7.93039

>  <CNNscore>  (72) 
0.6163817048

>  <CNNaffinity>  (72) 
4.3176651001

>  <CNN_VS>  (72) 
2.6613297462

>  <CNNaffinity_variance>  (72) 
0.1454489678

$$$$
73
     RDKit          3D

 43 45  0  0  0  0  0  0  0  0999 V2000
   18.4337   73.5634   -2.4739 P   0  0  2  0  0  0  0  0  0  0  0  0
   19.0863   75.0090   -2.7927 O   0  0  0  0  0  0  0  0  0  0  0  0
   16.9393   73.5020   -2.5948 O   0  0  0  0  0  0  0  0  0  0  0  0
   19.0378   73.1757   -1.0239 O   0  0  0  0  0  0  0  0  0  0  0  0
   20.0836   73.9707   -0.4927 C   0  0  0  0  0  0  0  0  0  0  0  0
   22.2470   73.5599    0.4689 O   0  0  0  0  0  0  0  0  0  0  0  0
   22.3686   71.1438   -1.3027 O   0  0  0  0  0  0  0  0  0  0  0  0
   21.6932   70.0756    1.1138 O   0  0  0  0  0  0  0  0  0  0  0  0
   21.2475   71.7123   -0.6280 C   0  0  1  0  0  0  0  0  0  0  0  0
   21.3193   71.4135    0.8550 C   0  0  2  0  0  0  0  0  0  0  0  0
   21.4026   73.2278   -0.6550 C   0  0  1  0  0  0  0  0  0  0  0  0
   22.3607   72.4135    1.3278 C   0  0  2  0  0  0  0  0  0  0  0  0
   22.2916   70.1763   -1.2987 H   0  0  0  0  0  0  0  0  0  0  0  0
   20.9988   69.4782    0.7949 H   0  0  0  0  0  0  0  0  0  0  0  0
   23.6465   71.2648    3.5650 O   0  0  0  0  0  0  0  0  0  0  0  0
   21.4622   74.0746    6.4934 O   0  0  0  0  0  0  0  0  0  0  0  0
   22.1470   72.8258    2.6864 N   0  0  0  0  0  0  0  0  0  0  0  0
   22.5580   72.6649    5.0213 N   0  0  0  0  0  0  0  0  0  0  0  0
   22.8421   72.1830    3.7371 C   0  0  0  0  0  0  0  0  0  0  0  0
   21.2568   73.8569    2.9658 C   0  0  0  0  0  0  0  0  0  0  0  0
   20.9960   74.3039    4.1961 C   0  0  0  0  0  0  0  0  0  0  0  0
   21.6806   73.6861    5.3500 C   0  0  0  0  0  0  0  0  0  0  0  0
   23.0303   72.2319    5.7690 H   0  0  0  0  0  0  0  0  0  0  0  0
   19.2307   72.5760   -3.4754 O   0  0  0  0  0  0  0  0  0  0  0  0
   20.4351   72.8641   -4.5143 P   0  0  2  0  0  0  0  0  0  0  0  0
   21.5298   71.7345   -4.1357 O   0  0  0  0  0  0  0  0  0  0  0  0
   20.9581   74.2708   -4.4754 O   0  0  0  0  0  0  0  0  0  0  0  0
   19.8555   72.4054   -5.9491 O   0  0  0  0  0  0  0  0  0  0  0  0
   19.1489   70.1478   -6.0923 O   0  0  0  0  0  0  0  0  0  0  0  0
   19.3244   71.0410  -10.1200 O   0  0  0  0  0  0  0  0  0  0  0  0
   16.7689   70.7456   -8.8432 O   0  0  0  0  0  0  0  0  0  0  0  0
   21.3283   72.0977   -8.3179 O   0  0  0  0  0  0  0  0  0  0  0  0
   19.0908   71.3095   -8.7348 C   0  0  1  0  0  0  0  0  0  0  0  0
   17.9999   70.3581   -8.2392 C   0  0  1  0  0  0  0  0  0  0  0  0
   20.3881   71.0912   -7.9583 C   0  0  2  0  0  0  0  0  0  0  0  0
   17.8813   70.4001   -6.7097 C   0  0  1  0  0  0  0  0  0  0  0  0
   20.1506   71.1031   -6.4472 C   0  0  1  0  0  0  0  0  0  0  0  0
   18.5048   71.1782  -10.6187 H   0  0  0  0  0  0  0  0  0  0  0  0
   16.8575   70.7153   -9.8088 H   0  0  0  0  0  0  0  0  0  0  0  0
   21.4702   72.0797   -9.2768 H   0  0  0  0  0  0  0  0  0  0  0  0
   15.6810   69.4826   -6.8708 O   0  0  0  0  0  0  0  0  0  0  0  0
   16.9105   69.3458   -6.1823 C   0  0  0  0  0  0  0  0  0  0  0  0
   15.0534   68.8177   -6.5457 H   0  0  0  0  0  0  0  0  0  0  0  0
 25 28  1  0
 25 24  1  0
 25 26  1  1
 25 27  2  0
  1  4  1  0
  1 24  1  0
  1  2  1  6
  1  3  2  0
  6 11  1  0
  6 12  1  0
 29 36  1  0
 29 37  1  0
  9  7  1  6
  7 13  1  0
 10  8  1  6
  8 14  1  0
 37 28  1  6
  4  5  1  0
 33 30  1  6
 30 38  1  0
 34 31  1  6
 31 39  1  0
 35 32  1  1
 32 40  1  0
 41 42  1  0
 41 43  1  0
 15 19  2  0
 16 22  2  0
 12 17  1  1
 17 19  1  0
 17 20  1  0
 18 19  1  0
 18 22  1  0
 18 23  1  0
  9 10  1  0
  9 11  1  0
 10 12  1  0
 11  5  1  1
 33 34  1  0
 33 35  1  0
 34 36  1  0
 35 37  1  0
 36 42  1  1
 20 21  2  0
 21 22  1  0
M  CHG  2   2  -1  26  -1
M  END
>  <COMPND>  (73) 
    8629 

>  <AUTHOR>  (73) 
    GENERATED BY OPEN BABEL 3.1.1

>  <MASTER>  (73) 
        0    0    0    0    0    0    0    0   58    0   58    0

>  <minimizedAffinity>  (73) 
-6.82727

>  <CNNscore>  (73) 
0.5861340761

>  <CNNaffinity>  (73) 
3.9815487862

>  <CNN_VS>  (73) 
2.3337213993

>  <CNNaffinity_variance>  (73) 
0.1208676472

$$$$
74
     RDKit          3D

 43 45  0  0  0  0  0  0  0  0999 V2000
   21.2035   72.1281   -5.3014 P   0  0  2  0  0  0  0  0  0  0  0  0
   20.9996   70.8240   -4.3658 O   0  0  0  0  0  0  0  0  0  0  0  0
   20.2437   73.2516   -5.0406 O   0  0  0  0  0  0  0  0  0  0  0  0
   21.1954   71.5321   -6.8056 O   0  0  0  0  0  0  0  0  0  0  0  0
   20.1406   71.9051   -7.6750 C   0  0  0  0  0  0  0  0  0  0  0  0
   18.8700   69.9817   -6.9970 O   0  0  0  0  0  0  0  0  0  0  0  0
   18.0030   69.7781   -9.8602 O   0  0  0  0  0  0  0  0  0  0  0  0
   15.8466   70.9464   -8.6678 O   0  0  0  0  0  0  0  0  0  0  0  0
   18.2442   70.9419   -9.0712 C   0  0  1  0  0  0  0  0  0  0  0  0
   17.1164   71.1497   -8.0821 C   0  0  2  0  0  0  0  0  0  0  0  0
   19.4236   70.6495   -8.1520 C   0  0  1  0  0  0  0  0  0  0  0  0
   17.4396   70.1184   -7.0144 C   0  0  2  0  0  0  0  0  0  0  0  0
   17.2541   69.9409  -10.4557 H   0  0  0  0  0  0  0  0  0  0  0  0
   15.6877   71.6272   -9.3401 H   0  0  0  0  0  0  0  0  0  0  0  0
   16.6349   68.3321   -4.9798 O   0  0  0  0  0  0  0  0  0  0  0  0
   15.7471   71.7787   -2.0517 O   0  0  0  0  0  0  0  0  0  0  0  0
   16.9939   70.5217   -5.7105 N   0  0  0  0  0  0  0  0  0  0  0  0
   16.1937   70.0497   -3.5235 N   0  0  0  0  0  0  0  0  0  0  0  0
   16.6110   69.5451   -4.7617 C   0  0  0  0  0  0  0  0  0  0  0  0
   16.9400   71.8723   -5.3836 C   0  0  0  0  0  0  0  0  0  0  0  0
   16.5384   72.3371   -4.1988 C   0  0  0  0  0  0  0  0  0  0  0  0
   16.1215   71.3827   -3.1512 C   0  0  0  0  0  0  0  0  0  0  0  0
   15.9218   69.3878   -2.8468 H   0  0  0  0  0  0  0  0  0  0  0  0
   22.7583   72.5035   -5.0677 O   0  0  0  0  0  0  0  0  0  0  0  0
   23.4698   73.4343   -3.9539 P   0  0  2  0  0  0  0  0  0  0  0  0
   22.6709   74.8358   -4.0763 O   0  0  0  0  0  0  0  0  0  0  0  0
   24.9580   73.5540   -4.1115 O   0  0  0  0  0  0  0  0  0  0  0  0
   22.9944   72.8161   -2.5408 O   0  0  0  0  0  0  0  0  0  0  0  0
   20.7946   73.0730   -1.6974 O   0  0  0  0  0  0  0  0  0  0  0  0
   22.8114   72.5512    1.8679 O   0  0  0  0  0  0  0  0  0  0  0  0
   21.1390   70.4436    0.8632 O   0  0  0  0  0  0  0  0  0  0  0  0
   24.0203   74.0937   -0.2626 O   0  0  0  0  0  0  0  0  0  0  0  0
   22.5448   72.3402    0.4787 C   0  0  1  0  0  0  0  0  0  0  0  0
   21.1316   71.7701    0.3428 C   0  0  1  0  0  0  0  0  0  0  0  0
   22.6605   73.6723   -0.2598 C   0  0  2  0  0  0  0  0  0  0  0  0
   20.6741   71.7668   -1.1221 C   0  0  1  0  0  0  0  0  0  0  0  0
   22.1337   73.5716   -1.6924 C   0  0  1  0  0  0  0  0  0  0  0  0
   22.7400   71.7091    2.3425 H   0  0  0  0  0  0  0  0  0  0  0  0
   21.4302   70.4597    1.7885 H   0  0  0  0  0  0  0  0  0  0  0  0
   24.3419   74.1539    0.6500 H   0  0  0  0  0  0  0  0  0  0  0  0
   19.1554   70.1602   -2.0283 O   0  0  0  0  0  0  0  0  0  0  0  0
   19.2117   71.3502   -1.2636 C   0  0  0  0  0  0  0  0  0  0  0  0
   18.2306   69.8830   -2.1263 H   0  0  0  0  0  0  0  0  0  0  0  0
 25 28  1  0
 25 24  1  0
 25 26  1  6
 25 27  2  0
  1  4  1  0
  1 24  1  0
  1  2  1  1
  1  3  2  0
  6 11  1  0
  6 12  1  0
 29 36  1  0
 29 37  1  0
  9  7  1  6
  7 13  1  0
 10  8  1  6
  8 14  1  0
 37 28  1  6
  4  5  1  0
 33 30  1  1
 30 38  1  0
 34 31  1  6
 31 39  1  0
 35 32  1  6
 32 40  1  0
 41 42  1  0
 41 43  1  0
 15 19  2  0
 16 22  2  0
 12 17  1  1
 17 19  1  0
 17 20  1  0
 18 19  1  0
 18 22  1  0
 18 23  1  0
  9 10  1  0
  9 11  1  0
 10 12  1  0
 11  5  1  1
 33 34  1  0
 33 35  1  0
 34 36  1  0
 35 37  1  0
 36 42  1  1
 20 21  2  0
 21 22  1  0
M  CHG  2   2  -1  26  -1
M  END
>  <COMPND>  (74) 
    8629 

>  <AUTHOR>  (74) 
    GENERATED BY OPEN BABEL 3.1.1

>  <MASTER>  (74) 
        0    0    0    0    0    0    0    0   58    0   58    0

>  <minimizedAffinity>  (74) 
-7.10958

>  <CNNscore>  (74) 
0.5681291223

>  <CNNaffinity>  (74) 
4.3233780861

>  <CNN_VS>  (74) 
2.4562370777

>  <CNNaffinity_variance>  (74) 
0.4334286153

$$$$
75
     RDKit          3D

 43 45  0  0  0  0  0  0  0  0999 V2000
   23.2938   71.8657   -2.5579 P   0  0  2  0  0  0  0  0  0  0  0  0
   23.6983   73.4297   -2.4710 O   0  0  0  0  0  0  0  0  0  0  0  0
   24.3049   70.9861   -3.2328 O   0  0  0  0  0  0  0  0  0  0  0  0
   21.8199   71.8822   -3.2252 O   0  0  0  0  0  0  0  0  0  0  0  0
   21.5638   72.7974   -4.2761 C   0  0  0  0  0  0  0  0  0  0  0  0
   20.8291   70.8230   -5.4319 O   0  0  0  0  0  0  0  0  0  0  0  0
   21.4058   72.3186   -7.9659 O   0  0  0  0  0  0  0  0  0  0  0  0
   18.6965   72.5403   -7.7483 O   0  0  0  0  0  0  0  0  0  0  0  0
   20.8878   72.8054   -6.7289 C   0  0  1  0  0  0  0  0  0  0  0  0
   19.4441   72.3806   -6.5598 C   0  0  2  0  0  0  0  0  0  0  0  0
   21.5767   72.0473   -5.6010 C   0  0  1  0  0  0  0  0  0  0  0  0
   19.5898   70.9243   -6.1521 C   0  0  2  0  0  0  0  0  0  0  0  0
   20.9809   72.7883   -8.7013 H   0  0  0  0  0  0  0  0  0  0  0  0
   18.6320   73.4833   -7.9656 H   0  0  0  0  0  0  0  0  0  0  0  0
   17.1184   69.9263   -7.0868 O   0  0  0  0  0  0  0  0  0  0  0  0
   15.5565   69.2643   -2.8016 O   0  0  0  0  0  0  0  0  0  0  0  0
   18.5195   70.4836   -5.3026 N   0  0  0  0  0  0  0  0  0  0  0  0
   16.3428   69.5973   -4.9523 N   0  0  0  0  0  0  0  0  0  0  0  0
   17.3186   70.0006   -5.8727 C   0  0  0  0  0  0  0  0  0  0  0  0
   18.6666   70.5326   -3.9207 C   0  0  0  0  0  0  0  0  0  0  0  0
   17.7259   70.1455   -3.0567 C   0  0  0  0  0  0  0  0  0  0  0  0
   16.4412   69.6280   -3.5703 C   0  0  0  0  0  0  0  0  0  0  0  0
   15.4976   69.2576   -5.3265 H   0  0  0  0  0  0  0  0  0  0  0  0
   22.9907   71.4825   -1.0170 O   0  0  0  0  0  0  0  0  0  0  0  0
   21.7697   71.8944   -0.0412 P   0  0  2  0  0  0  0  0  0  0  0  0
   20.7194   70.6779   -0.2273 O   0  0  0  0  0  0  0  0  0  0  0  0
   21.1962   73.2548   -0.3136 O   0  0  0  0  0  0  0  0  0  0  0  0
   22.3559   71.7021    1.4503 O   0  0  0  0  0  0  0  0  0  0  0  0
   23.1761   73.3936    2.8934 O   0  0  0  0  0  0  0  0  0  0  0  0
   25.5864   70.2673    4.1046 O   0  0  0  0  0  0  0  0  0  0  0  0
   23.4742   71.1779    5.8243 O   0  0  0  0  0  0  0  0  0  0  0  0
   24.9231   70.5780    1.3041 O   0  0  0  0  0  0  0  0  0  0  0  0
   24.3818   70.8764    3.6320 C   0  0  1  0  0  0  0  0  0  0  0  0
   23.9179   71.8946    4.6755 C   0  0  1  0  0  0  0  0  0  0  0  0
   24.6607   71.5640    2.2968 C   0  0  2  0  0  0  0  0  0  0  0  0
   22.7879   72.7755    4.1259 C   0  0  1  0  0  0  0  0  0  0  0  0
   23.4936   72.4537    1.8650 C   0  0  1  0  0  0  0  0  0  0  0  0
   25.4161   69.8285    4.9519 H   0  0  0  0  0  0  0  0  0  0  0  0
   24.1969   70.6252    6.1612 H   0  0  0  0  0  0  0  0  0  0  0  0
   25.6640   70.0216    1.5891 H   0  0  0  0  0  0  0  0  0  0  0  0
   21.5598   73.3723    6.0866 O   0  0  0  0  0  0  0  0  0  0  0  0
   22.4176   73.8993    5.0913 C   0  0  0  0  0  0  0  0  0  0  0  0
   21.3161   74.0763    6.7084 H   0  0  0  0  0  0  0  0  0  0  0  0
 25 28  1  0
 25 24  1  0
 25 26  1  1
 25 27  2  0
  1  4  1  0
  1 24  1  0
  1  2  1  1
  1  3  2  0
  6 11  1  0
  6 12  1  0
 29 36  1  0
 29 37  1  0
  9  7  1  6
  7 13  1  0
 10  8  1  6
  8 14  1  0
 37 28  1  1
  4  5  1  0
 33 30  1  1
 30 38  1  0
 34 31  1  1
 31 39  1  0
 35 32  1  6
 32 40  1  0
 41 42  1  0
 41 43  1  0
 15 19  2  0
 16 22  2  0
 12 17  1  1
 17 19  1  0
 17 20  1  0
 18 19  1  0
 18 22  1  0
 18 23  1  0
  9 10  1  0
  9 11  1  0
 10 12  1  0
 11  5  1  1
 33 34  1  0
 33 35  1  0
 34 36  1  0
 35 37  1  0
 36 42  1  1
 20 21  2  0
 21 22  1  0
M  CHG  2   2  -1  26  -1
M  END
>  <COMPND>  (75) 
    8629 

>  <AUTHOR>  (75) 
    GENERATED BY OPEN BABEL 3.1.1

>  <MASTER>  (75) 
        0    0    0    0    0    0    0    0   58    0   58    0

>  <minimizedAffinity>  (75) 
-7.94345

>  <CNNscore>  (75) 
0.5547930002

>  <CNNaffinity>  (75) 
4.1643953323

>  <CNN_VS>  (75) 
2.3103773594

>  <CNNaffinity_variance>  (75) 
0.3084084690

$$$$
76
     RDKit          3D

 43 45  0  0  0  0  0  0  0  0999 V2000
   23.2376   73.2592   -4.0407 P   0  0  2  0  0  0  0  0  0  0  0  0
   23.9438   71.8109   -3.8951 O   0  0  0  0  0  0  0  0  0  0  0  0
   24.0513   74.2912   -4.7647 O   0  0  0  0  0  0  0  0  0  0  0  0
   22.8101   73.6368   -2.5266 O   0  0  0  0  0  0  0  0  0  0  0  0
   21.8471   74.6576   -2.3306 C   0  0  0  0  0  0  0  0  0  0  0  0
   21.0391   72.7955   -1.0448 O   0  0  0  0  0  0  0  0  0  0  0  0
   18.8392   74.6186   -0.1352 O   0  0  0  0  0  0  0  0  0  0  0  0
   20.5492   74.6446    1.9889 O   0  0  0  0  0  0  0  0  0  0  0  0
   20.2079   74.9197   -0.4026 C   0  0  1  0  0  0  0  0  0  0  0  0
   21.0897   74.3892    0.7085 C   0  0  2  0  0  0  0  0  0  0  0  0
   20.6507   74.0751   -1.5908 C   0  0  1  0  0  0  0  0  0  0  0  0
   21.1479   72.9062    0.3837 C   0  0  2  0  0  0  0  0  0  0  0  0
   18.5337   75.1464    0.6198 H   0  0  0  0  0  0  0  0  0  0  0  0
   20.5333   75.6012    2.1484 H   0  0  0  0  0  0  0  0  0  0  0  0
   21.4293   70.1859    1.0900 O   0  0  0  0  0  0  0  0  0  0  0  0
   25.9207   70.6947    1.9897 O   0  0  0  0  0  0  0  0  0  0  0  0
   22.3795   72.3009    0.8059 N   0  0  0  0  0  0  0  0  0  0  0  0
   23.6654   70.4414    1.5373 N   0  0  0  0  0  0  0  0  0  0  0  0
   22.4133   70.9268    1.1392 C   0  0  0  0  0  0  0  0  0  0  0  0
   23.5368   73.0678    0.8858 C   0  0  0  0  0  0  0  0  0  0  0  0
   24.7228   72.5901    1.2685 C   0  0  0  0  0  0  0  0  0  0  0  0
   24.8441   71.1640    1.6338 C   0  0  0  0  0  0  0  0  0  0  0  0
   23.7130   69.4869    1.7746 H   0  0  0  0  0  0  0  0  0  0  0  0
   21.8237   72.9054   -4.7399 O   0  0  0  0  0  0  0  0  0  0  0  0
   21.1792   73.3957   -6.1389 P   0  0  2  0  0  0  0  0  0  0  0  0
   22.2236   72.8413   -7.2431 O   0  0  0  0  0  0  0  0  0  0  0  0
   20.9242   74.8733   -6.2146 O   0  0  0  0  0  0  0  0  0  0  0  0
   19.8637   72.4795   -6.3259 O   0  0  0  0  0  0  0  0  0  0  0  0
   19.2897   70.3069   -5.5729 O   0  0  0  0  0  0  0  0  0  0  0  0
   17.7556   70.1049   -9.4013 O   0  0  0  0  0  0  0  0  0  0  0  0
   15.9647   70.2994   -7.1645 O   0  0  0  0  0  0  0  0  0  0  0  0
   20.2567   71.4802   -8.9186 O   0  0  0  0  0  0  0  0  0  0  0  0
   18.0926   70.7390   -8.1644 C   0  0  1  0  0  0  0  0  0  0  0  0
   17.3549   70.0138   -7.0372 C   0  0  1  0  0  0  0  0  0  0  0  0
   19.6039   70.6578   -7.9574 C   0  0  2  0  0  0  0  0  0  0  0  0
   17.8684   70.4607   -5.6618 C   0  0  1  0  0  0  0  0  0  0  0  0
   20.0034   71.0776   -6.5417 C   0  0  1  0  0  0  0  0  0  0  0  0
   16.7974   70.1534   -9.5390 H   0  0  0  0  0  0  0  0  0  0  0  0
   15.6532   70.0128   -8.0375 H   0  0  0  0  0  0  0  0  0  0  0  0
   19.9958   71.2042   -9.8106 H   0  0  0  0  0  0  0  0  0  0  0  0
   16.5597   68.5441   -5.0935 O   0  0  0  0  0  0  0  0  0  0  0  0
   17.2589   69.6379   -4.5288 C   0  0  0  0  0  0  0  0  0  0  0  0
   16.1667   68.0113   -4.3840 H   0  0  0  0  0  0  0  0  0  0  0  0
 25 28  1  0
 25 24  1  0
 25 26  1  6
 25 27  2  0
  1  4  1  0
  1 24  1  0
  1  2  1  1
  1  3  2  0
  6 11  1  0
  6 12  1  0
 29 36  1  0
 29 37  1  0
  9  7  1  1
  7 13  1  0
 10  8  1  1
  8 14  1  0
 37 28  1  1
  4  5  1  0
 33 30  1  6
 30 38  1  0
 34 31  1  1
 31 39  1  0
 35 32  1  6
 32 40  1  0
 41 42  1  0
 41 43  1  0
 15 19  2  0
 16 22  2  0
 12 17  1  6
 17 19  1  0
 17 20  1  0
 18 19  1  0
 18 22  1  0
 18 23  1  0
  9 10  1  0
  9 11  1  0
 10 12  1  0
 11  5  1  1
 33 34  1  0
 33 35  1  0
 34 36  1  0
 35 37  1  0
 36 42  1  1
 20 21  2  0
 21 22  1  0
M  CHG  2   2  -1  26  -1
M  END
>  <COMPND>  (76) 
    8629 

>  <AUTHOR>  (76) 
    GENERATED BY OPEN BABEL 3.1.1

>  <MASTER>  (76) 
        0    0    0    0    0    0    0    0   58    0   58    0

>  <minimizedAffinity>  (76) 
-7.59993

>  <CNNscore>  (76) 
0.5091912150

>  <CNNaffinity>  (76) 
4.3092164993

>  <CNN_VS>  (76) 
2.1942152977

>  <CNNaffinity_variance>  (76) 
0.0877474099

$$$$
77
     RDKit          3D

 43 45  0  0  0  0  0  0  0  0999 V2000
   21.8609   72.5916   -5.7449 P   0  0  2  0  0  0  0  0  0  0  0  0
   21.2374   73.9508   -5.1275 O   0  0  0  0  0  0  0  0  0  0  0  0
   22.9828   72.7950   -6.7203 O   0  0  0  0  0  0  0  0  0  0  0  0
   20.5717   71.7958   -6.3129 O   0  0  0  0  0  0  0  0  0  0  0  0
   20.2472   71.9269   -7.6859 C   0  0  0  0  0  0  0  0  0  0  0  0
   18.9416   70.0386   -6.9763 O   0  0  0  0  0  0  0  0  0  0  0  0
   18.0713   69.8030   -9.8360 O   0  0  0  0  0  0  0  0  0  0  0  0
   15.9365   71.0302   -8.6642 O   0  0  0  0  0  0  0  0  0  0  0  0
   18.3337   70.9753   -9.0665 C   0  0  1  0  0  0  0  0  0  0  0  0
   17.2097   71.2201   -8.0814 C   0  0  2  0  0  0  0  0  0  0  0  0
   19.5074   70.6768   -8.1421 C   0  0  1  0  0  0  0  0  0  0  0  0
   17.5140   70.2011   -6.9965 C   0  0  2  0  0  0  0  0  0  0  0  0
   17.3255   69.9694  -10.4344 H   0  0  0  0  0  0  0  0  0  0  0  0
   15.7901   71.7025   -9.3479 H   0  0  0  0  0  0  0  0  0  0  0  0
   16.7058   68.4626   -4.9223 O   0  0  0  0  0  0  0  0  0  0  0  0
   15.8501   71.9749   -2.0636 O   0  0  0  0  0  0  0  0  0  0  0  0
   17.0755   70.6342   -5.6998 N   0  0  0  0  0  0  0  0  0  0  0  0
   16.2806   70.2129   -3.5005 N   0  0  0  0  0  0  0  0  0  0  0  0
   16.6902   69.6800   -4.7294 C   0  0  0  0  0  0  0  0  0  0  0  0
   17.0312   71.9916   -5.4009 C   0  0  0  0  0  0  0  0  0  0  0  0
   16.6368   72.4835   -4.2246 C   0  0  0  0  0  0  0  0  0  0  0  0
   16.2179   71.5538   -3.1559 C   0  0  0  0  0  0  0  0  0  0  0  0
   16.0072   69.5669   -2.8092 H   0  0  0  0  0  0  0  0  0  0  0  0
   22.2600   71.7437   -4.4278 O   0  0  0  0  0  0  0  0  0  0  0  0
   23.3169   72.0548   -3.2449 P   0  0  2  0  0  0  0  0  0  0  0  0
   24.0199   73.4297   -3.7276 O   0  0  0  0  0  0  0  0  0  0  0  0
   24.2758   70.9338   -2.9659 O   0  0  0  0  0  0  0  0  0  0  0  0
   22.4047   72.4840   -1.9845 O   0  0  0  0  0  0  0  0  0  0  0  0
   21.8150   71.3127   -0.0105 O   0  0  0  0  0  0  0  0  0  0  0  0
   18.2333   73.2371   -0.7307 O   0  0  0  0  0  0  0  0  0  0  0  0
   19.8980   74.1062    1.4422 O   0  0  0  0  0  0  0  0  0  0  0  0
   19.7829   72.1952   -2.9426 O   0  0  0  0  0  0  0  0  0  0  0  0
   19.6565   73.0969   -0.7127 C   0  0  1  0  0  0  0  0  0  0  0  0
   20.0992   72.8849    0.7363 C   0  0  1  0  0  0  0  0  0  0  0  0
   20.0510   71.9001   -1.5760 C   0  0  2  0  0  0  0  0  0  0  0  0
   21.5727   72.4622    0.8092 C   0  0  1  0  0  0  0  0  0  0  0  0
   21.5245   71.5324   -1.3922 C   0  0  1  0  0  0  0  0  0  0  0  0
   17.9762   73.9957   -0.1848 H   0  0  0  0  0  0  0  0  0  0  0  0
   18.9638   74.3623    1.3881 H   0  0  0  0  0  0  0  0  0  0  0  0
   18.8470   72.4261   -3.0458 H   0  0  0  0  0  0  0  0  0  0  0  0
   20.8247   71.8901    3.0052 O   0  0  0  0  0  0  0  0  0  0  0  0
   21.9922   72.0930    2.2304 C   0  0  0  0  0  0  0  0  0  0  0  0
   21.0763   71.6542    3.9122 H   0  0  0  0  0  0  0  0  0  0  0  0
 25 28  1  0
 25 24  1  0
 25 26  1  6
 25 27  2  0
  1  4  1  0
  1 24  1  0
  1  2  1  1
  1  3  2  0
  6 11  1  0
  6 12  1  0
 29 36  1  0
 29 37  1  0
  9  7  1  6
  7 13  1  0
 10  8  1  6
  8 14  1  0
 37 28  1  1
  4  5  1  0
 33 30  1  1
 30 38  1  0
 34 31  1  1
 31 39  1  0
 35 32  1  6
 32 40  1  0
 41 42  1  0
 41 43  1  0
 15 19  2  0
 16 22  2  0
 12 17  1  1
 17 19  1  0
 17 20  1  0
 18 19  1  0
 18 22  1  0
 18 23  1  0
  9 10  1  0
  9 11  1  0
 10 12  1  0
 11  5  1  1
 33 34  1  0
 33 35  1  0
 34 36  1  0
 35 37  1  0
 36 42  1  1
 20 21  2  0
 21 22  1  0
M  CHG  2   2  -1  26  -1
M  END
>  <COMPND>  (77) 
    8629 

>  <AUTHOR>  (77) 
    GENERATED BY OPEN BABEL 3.1.1

>  <MASTER>  (77) 
        0    0    0    0    0    0    0    0   58    0   58    0

>  <minimizedAffinity>  (77) 
-7.40077

>  <CNNscore>  (77) 
0.5075452328

>  <CNNaffinity>  (77) 
4.1808938980

>  <CNN_VS>  (77) 
2.1219928265

>  <CNNaffinity_variance>  (77) 
0.5842419267

$$$$
78
     RDKit          3D

 43 45  0  0  0  0  0  0  0  0999 V2000
   23.0201   71.8693   -2.8914 P   0  0  2  0  0  0  0  0  0  0  0  0
   24.2566   70.8344   -3.0232 O   0  0  0  0  0  0  0  0  0  0  0  0
   22.9820   72.9473   -3.9344 O   0  0  0  0  0  0  0  0  0  0  0  0
   23.1013   72.3782   -1.3577 O   0  0  0  0  0  0  0  0  0  0  0  0
   23.7285   71.5427   -0.4004 C   0  0  0  0  0  0  0  0  0  0  0  0
   23.3917   70.5710    1.7713 O   0  0  0  0  0  0  0  0  0  0  0  0
   20.6072   71.6740    1.6267 O   0  0  0  0  0  0  0  0  0  0  0  0
   21.8783   73.4771    3.2297 O   0  0  0  0  0  0  0  0  0  0  0  0
   21.8259   72.2343    1.1407 C   0  0  1  0  0  0  0  0  0  0  0  0
   22.6569   72.7634    2.2910 C   0  0  2  0  0  0  0  0  0  0  0  0
   22.6922   71.0939    0.6208 C   0  0  1  0  0  0  0  0  0  0  0  0
   23.2443   71.4870    2.8686 C   0  0  2  0  0  0  0  0  0  0  0  0
   20.0372   72.3835    1.9638 H   0  0  0  0  0  0  0  0  0  0  0  0
   21.5270   74.2803    2.8147 H   0  0  0  0  0  0  0  0  0  0  0  0
   23.7662   71.2400    5.6335 O   0  0  0  0  0  0  0  0  0  0  0  0
   28.2098   72.3297    5.0783 O   0  0  0  0  0  0  0  0  0  0  0  0
   24.5287   71.7001    3.4739 N   0  0  0  0  0  0  0  0  0  0  0  0
   25.9784   71.7826    5.3548 N   0  0  0  0  0  0  0  0  0  0  0  0
   24.6841   71.5515    4.8718 C   0  0  0  0  0  0  0  0  0  0  0  0
   25.6174   72.0520    2.6834 C   0  0  0  0  0  0  0  0  0  0  0  0
   26.8449   72.2701    3.1597 C   0  0  0  0  0  0  0  0  0  0  0  0
   27.0924   72.1356    4.6097 C   0  0  0  0  0  0  0  0  0  0  0  0
   26.1104   71.6853    6.3258 H   0  0  0  0  0  0  0  0  0  0  0  0
   21.7301   70.8953   -2.8833 O   0  0  0  0  0  0  0  0  0  0  0  0
   20.2120   71.1483   -2.3891 P   0  0  2  0  0  0  0  0  0  0  0  0
   20.0855   72.7612   -2.3898 O   0  0  0  0  0  0  0  0  0  0  0  0
   19.8763   70.5014   -1.0765 O   0  0  0  0  0  0  0  0  0  0  0  0
   19.2941   70.6668   -3.6262 O   0  0  0  0  0  0  0  0  0  0  0  0
   17.7048   72.0596   -4.6990 O   0  0  0  0  0  0  0  0  0  0  0  0
   16.0011   68.3826   -5.4914 O   0  0  0  0  0  0  0  0  0  0  0  0
   17.2722   69.8431   -7.6126 O   0  0  0  0  0  0  0  0  0  0  0  0
   17.2535   68.8714   -2.9278 O   0  0  0  0  0  0  0  0  0  0  0  0
   17.0758   69.3045   -5.2905 C   0  0  1  0  0  0  0  0  0  0  0  0
   16.9626   70.4097   -6.3424 C   0  0  1  0  0  0  0  0  0  0  0  0
   16.9751   69.8895   -3.8830 C   0  0  2  0  0  0  0  0  0  0  0  0
   17.9146   71.5720   -6.0294 C   0  0  1  0  0  0  0  0  0  0  0  0
   17.9288   71.0703   -3.6925 C   0  0  1  0  0  0  0  0  0  0  0  0
   16.0595   68.0071   -6.3831 H   0  0  0  0  0  0  0  0  0  0  0  0
   16.6642   69.1102   -7.7978 H   0  0  0  0  0  0  0  0  0  0  0  0
   16.6430   68.1297   -3.0587 H   0  0  0  0  0  0  0  0  0  0  0  0
   18.1507   72.3782   -8.2662 O   0  0  0  0  0  0  0  0  0  0  0  0
   17.7061   72.7526   -6.9753 C   0  0  0  0  0  0  0  0  0  0  0  0
   18.0238   73.1199   -8.8789 H   0  0  0  0  0  0  0  0  0  0  0  0
 25 28  1  0
 25 24  1  0
 25 26  1  1
 25 27  2  0
  1  4  1  0
  1 24  1  0
  1  2  1  6
  1  3  2  0
  6 11  1  0
  6 12  1  0
 29 36  1  0
 29 37  1  0
  9  7  1  1
  7 13  1  0
 10  8  1  1
  8 14  1  0
 37 28  1  6
  4  5  1  0
 33 30  1  6
 30 38  1  0
 34 31  1  6
 31 39  1  0
 35 32  1  1
 32 40  1  0
 41 42  1  0
 41 43  1  0
 15 19  2  0
 16 22  2  0
 12 17  1  6
 17 19  1  0
 17 20  1  0
 18 19  1  0
 18 22  1  0
 18 23  1  0
  9 10  1  0
  9 11  1  0
 10 12  1  0
 11  5  1  6
 33 34  1  0
 33 35  1  0
 34 36  1  0
 35 37  1  0
 36 42  1  6
 20 21  2  0
 21 22  1  0
M  CHG  2   2  -1  26  -1
M  END
>  <COMPND>  (78) 
    8629 

>  <AUTHOR>  (78) 
    GENERATED BY OPEN BABEL 3.1.1

>  <MASTER>  (78) 
        0    0    0    0    0    0    0    0   58    0   58    0

>  <minimizedAffinity>  (78) 
-7.66263

>  <CNNscore>  (78) 
0.5033717752

>  <CNNaffinity>  (78) 
4.1545591354

>  <CNN_VS>  (78) 
2.0912878513

>  <CNNaffinity_variance>  (78) 
0.1177500114

$$$$
79
     RDKit          3D

 43 45  0  0  0  0  0  0  0  0999 V2000
   19.5588   71.1646   -1.8047 P   0  0  2  0  0  0  0  0  0  0  0  0
   18.6530   72.4944   -1.6351 O   0  0  0  0  0  0  0  0  0  0  0  0
   18.8197   69.9519   -2.2890 O   0  0  0  0  0  0  0  0  0  0  0  0
   20.2971   71.0124   -0.3731 O   0  0  0  0  0  0  0  0  0  0  0  0
   21.0636   72.1012    0.1115 C   0  0  0  0  0  0  0  0  0  0  0  0
   21.0271   71.7617    2.4900 O   0  0  0  0  0  0  0  0  0  0  0  0
   19.8535   74.5146    2.6766 O   0  0  0  0  0  0  0  0  0  0  0  0
   22.4684   74.9382    3.3241 O   0  0  0  0  0  0  0  0  0  0  0  0
   20.8388   74.0132    1.7749 C   0  0  1  0  0  0  0  0  0  0  0  0
   22.1642   73.8411    2.4871 C   0  0  2  0  0  0  0  0  0  0  0  0
   20.4726   72.5744    1.4325 C   0  0  1  0  0  0  0  0  0  0  0  0
   21.9389   72.5563    3.2660 C   0  0  2  0  0  0  0  0  0  0  0  0
   20.0659   75.4326    2.9095 H   0  0  0  0  0  0  0  0  0  0  0  0
   22.6029   75.7311    2.7820 H   0  0  0  0  0  0  0  0  0  0  0  0
   23.0987   72.0330    5.7877 O   0  0  0  0  0  0  0  0  0  0  0  0
   26.5978   69.7027    3.8990 O   0  0  0  0  0  0  0  0  0  0  0  0
   23.1526   71.8149    3.4625 N   0  0  0  0  0  0  0  0  0  0  0  0
   24.8400   70.8729    4.8452 N   0  0  0  0  0  0  0  0  0  0  0  0
   23.6507   71.6092    4.7702 C   0  0  0  0  0  0  0  0  0  0  0  0
   23.8356   71.3004    2.3658 C   0  0  0  0  0  0  0  0  0  0  0  0
   24.9692   70.6015    2.4543 C   0  0  0  0  0  0  0  0  0  0  0  0
   25.5566   70.3419    3.7845 C   0  0  0  0  0  0  0  0  0  0  0  0
   25.2059   70.7174    5.7462 H   0  0  0  0  0  0  0  0  0  0  0  0
   20.7512   71.6588   -2.7778 O   0  0  0  0  0  0  0  0  0  0  0  0
   20.7466   72.6880   -4.0243 P   0  0  2  0  0  0  0  0  0  0  0  0
   22.0350   72.2296   -4.8887 O   0  0  0  0  0  0  0  0  0  0  0  0
   20.7506   74.1358   -3.6269 O   0  0  0  0  0  0  0  0  0  0  0  0
   19.4776   72.2429   -4.9168 O   0  0  0  0  0  0  0  0  0  0  0  0
   18.6978   70.0677   -5.4431 O   0  0  0  0  0  0  0  0  0  0  0  0
   17.7821   71.9731   -8.9902 O   0  0  0  0  0  0  0  0  0  0  0  0
   15.6697   71.2414   -7.1872 O   0  0  0  0  0  0  0  0  0  0  0  0
   20.2325   72.6230   -7.5927 O   0  0  0  0  0  0  0  0  0  0  0  0
   17.9462   71.8655   -7.5735 C   0  0  1  0  0  0  0  0  0  0  0  0
   17.0085   70.7692   -7.0640 C   0  0  1  0  0  0  0  0  0  0  0  0
   19.4006   71.5154   -7.2646 C   0  0  2  0  0  0  0  0  0  0  0  0
   17.3165   70.4111   -5.6039 C   0  0  1  0  0  0  0  0  0  0  0  0
   19.5887   71.1274   -5.7969 C   0  0  1  0  0  0  0  0  0  0  0  0
   16.8608   72.1958   -9.1931 H   0  0  0  0  0  0  0  0  0  0  0  0
   15.4882   71.4644   -8.1138 H   0  0  0  0  0  0  0  0  0  0  0  0
   20.1044   72.8586   -8.5243 H   0  0  0  0  0  0  0  0  0  0  0  0
   15.8464   68.6387   -6.2411 O   0  0  0  0  0  0  0  0  0  0  0  0
   16.5002   69.2129   -5.1244 C   0  0  0  0  0  0  0  0  0  0  0  0
   15.3232   67.8746   -5.9511 H   0  0  0  0  0  0  0  0  0  0  0  0
 25 28  1  0
 25 24  1  0
 25 26  1  6
 25 27  2  0
  1  4  1  0
  1 24  1  0
  1  2  1  1
  1  3  2  0
  6 11  1  0
  6 12  1  0
 29 36  1  0
 29 37  1  0
  9  7  1  1
  7 13  1  0
 10  8  1  1
  8 14  1  0
 37 28  1  1
  4  5  1  0
 33 30  1  6
 30 38  1  0
 34 31  1  1
 31 39  1  0
 35 32  1  1
 32 40  1  0
 41 42  1  0
 41 43  1  0
 15 19  2  0
 16 22  2  0
 12 17  1  6
 17 19  1  0
 17 20  1  0
 18 19  1  0
 18 22  1  0
 18 23  1  0
  9 10  1  0
  9 11  1  0
 10 12  1  0
 11  5  1  6
 33 34  1  0
 33 35  1  0
 34 36  1  0
 35 37  1  0
 36 42  1  6
 20 21  2  0
 21 22  1  0
M  CHG  2   2  -1  26  -1
M  END
>  <COMPND>  (79) 
    8629 

>  <AUTHOR>  (79) 
    GENERATED BY OPEN BABEL 3.1.1

>  <MASTER>  (79) 
        0    0    0    0    0    0    0    0   58    0   58    0

>  <minimizedAffinity>  (79) 
-7.15882

>  <CNNscore>  (79) 
0.4757071137

>  <CNNaffinity>  (79) 
3.9010086060

>  <CNN_VS>  (79) 
1.8557375669

>  <CNNaffinity_variance>  (79) 
0.2166783065

$$$$
80
     RDKit          3D

 43 45  0  0  0  0  0  0  0  0999 V2000
   19.6556   70.8172   -2.6679 P   0  0  2  0  0  0  0  0  0  0  0  0
   19.6828   69.3700   -3.3905 O   0  0  0  0  0  0  0  0  0  0  0  0
   20.5331   71.8576   -3.2996 O   0  0  0  0  0  0  0  0  0  0  0  0
   19.9682   70.4825   -1.1161 O   0  0  0  0  0  0  0  0  0  0  0  0
   20.9091   71.2874   -0.4271 C   0  0  0  0  0  0  0  0  0  0  0  0
   20.1586   72.6583    1.3981 O   0  0  0  0  0  0  0  0  0  0  0  0
   20.1595   74.9330   -0.5555 O   0  0  0  0  0  0  0  0  0  0  0  0
   22.4829   75.3271    0.8167 O   0  0  0  0  0  0  0  0  0  0  0  0
   21.0556   73.8272   -0.4579 C   0  0  1  0  0  0  0  0  0  0  0  0
   21.9864   74.0074    0.7231 C   0  0  2  0  0  0  0  0  0  0  0  0
   20.2480   72.6039   -0.0425 C   0  0  1  0  0  0  0  0  0  0  0  0
   21.0888   73.6363    1.8913 C   0  0  2  0  0  0  0  0  0  0  0  0
   20.6525   75.7261   -0.8199 H   0  0  0  0  0  0  0  0  0  0  0  0
   23.0480   75.5152    0.0512 H   0  0  0  0  0  0  0  0  0  0  0  0
   20.5936   74.2155    4.6111 O   0  0  0  0  0  0  0  0  0  0  0  0
   23.9688   71.4075    6.0129 O   0  0  0  0  0  0  0  0  0  0  0  0
   21.8228   73.0704    2.9878 N   0  0  0  0  0  0  0  0  0  0  0  0
   22.2745   72.8167    5.3068 N   0  0  0  0  0  0  0  0  0  0  0  0
   21.4952   73.4280    4.3164 C   0  0  0  0  0  0  0  0  0  0  0  0
   22.8544   72.1712    2.7405 C   0  0  0  0  0  0  0  0  0  0  0  0
   23.5889   71.5980    3.6962 C   0  0  0  0  0  0  0  0  0  0  0  0
   23.3111   71.9179    5.1113 C   0  0  0  0  0  0  0  0  0  0  0  0
   22.0646   73.0511    6.2400 H   0  0  0  0  0  0  0  0  0  0  0  0
   18.0817   71.1852   -2.6503 O   0  0  0  0  0  0  0  0  0  0  0  0
   16.8092   70.4371   -3.3092 P   0  0  2  0  0  0  0  0  0  0  0  0
   15.6004   71.4870   -3.0770 O   0  0  0  0  0  0  0  0  0  0  0  0
   16.5507   69.0638   -2.7604 O   0  0  0  0  0  0  0  0  0  0  0  0
   17.0875   70.4808   -4.8984 O   0  0  0  0  0  0  0  0  0  0  0  0
   18.7791   71.5944   -6.1291 O   0  0  0  0  0  0  0  0  0  0  0  0
   15.6346   72.0533   -8.7658 O   0  0  0  0  0  0  0  0  0  0  0  0
   17.7487   70.2114   -9.3871 O   0  0  0  0  0  0  0  0  0  0  0  0
   15.1714   72.2608   -5.9159 O   0  0  0  0  0  0  0  0  0  0  0  0
   16.4189   71.3791   -7.7780 C   0  0  1  0  0  0  0  0  0  0  0  0
   17.8270   71.1755   -8.3408 C   0  0  1  0  0  0  0  0  0  0  0  0
   16.4644   72.2303   -6.5104 C   0  0  2  0  0  0  0  0  0  0  0  0
   18.7966   70.7021   -7.2495 C   0  0  1  0  0  0  0  0  0  0  0  0
   17.4950   71.7012   -5.5114 C   0  0  1  0  0  0  0  0  0  0  0  0
   15.6012   71.5178   -9.5730 H   0  0  0  0  0  0  0  0  0  0  0  0
   17.1329   70.5222  -10.0693 H   0  0  0  0  0  0  0  0  0  0  0  0
   14.5281   72.5978   -6.5581 H   0  0  0  0  0  0  0  0  0  0  0  0
   20.3862   71.5812   -8.8017 O   0  0  0  0  0  0  0  0  0  0  0  0
   20.2378   70.6440   -7.7510 C   0  0  0  0  0  0  0  0  0  0  0  0
   21.2988   71.5555   -9.1306 H   0  0  0  0  0  0  0  0  0  0  0  0
 25 28  1  0
 25 24  1  0
 25 26  1  6
 25 27  2  0
  1  4  1  0
  1 24  1  0
  1  2  1  6
  1  3  2  0
  6 11  1  0
  6 12  1  0
 29 36  1  0
 29 37  1  0
  9  7  1  1
  7 13  1  0
 10  8  1  1
  8 14  1  0
 37 28  1  6
  4  5  1  0
 33 30  1  6
 30 38  1  0
 34 31  1  6
 31 39  1  0
 35 32  1  1
 32 40  1  0
 41 42  1  0
 41 43  1  0
 15 19  2  0
 16 22  2  0
 12 17  1  1
 17 19  1  0
 17 20  1  0
 18 19  1  0
 18 22  1  0
 18 23  1  0
  9 10  1  0
  9 11  1  0
 10 12  1  0
 11  5  1  1
 33 34  1  0
 33 35  1  0
 34 36  1  0
 35 37  1  0
 36 42  1  6
 20 21  2  0
 21 22  1  0
M  CHG  2   2  -1  26  -1
M  END
>  <COMPND>  (80) 
    8629 

>  <AUTHOR>  (80) 
    GENERATED BY OPEN BABEL 3.1.1

>  <MASTER>  (80) 
        0    0    0    0    0    0    0    0   58    0   58    0

>  <minimizedAffinity>  (80) 
-7.00305

>  <CNNscore>  (80) 
0.4612430930

>  <CNNaffinity>  (80) 
3.9824626446

>  <CNN_VS>  (80) 
1.8368834257

>  <CNNaffinity_variance>  (80) 
0.0728488714

$$$$
81
     RDKit          3D

 43 45  0  0  0  0  0  0  0  0999 V2000
   22.9326   71.6887   -2.8613 P   0  0  2  0  0  0  0  0  0  0  0  0
   22.9858   73.2881   -2.6234 O   0  0  0  0  0  0  0  0  0  0  0  0
   24.2427   71.0595   -3.2345 O   0  0  0  0  0  0  0  0  0  0  0  0
   21.7309   71.4943   -3.9272 O   0  0  0  0  0  0  0  0  0  0  0  0
   20.8328   70.4138   -3.7440 C   0  0  0  0  0  0  0  0  0  0  0  0
   18.9919   71.6248   -4.7023 O   0  0  0  0  0  0  0  0  0  0  0  0
   17.3299   70.4853   -2.4819 O   0  0  0  0  0  0  0  0  0  0  0  0
   16.6735   68.8905   -4.5944 O   0  0  0  0  0  0  0  0  0  0  0  0
   18.4033   69.8849   -3.2049 C   0  0  1  0  0  0  0  0  0  0  0  0
   17.9487   69.4994   -4.5972 C   0  0  2  0  0  0  0  0  0  0  0  0
   19.4361   70.9666   -3.4957 C   0  0  1  0  0  0  0  0  0  0  0  0
   17.9551   70.8394   -5.3131 C   0  0  2  0  0  0  0  0  0  0  0  0
   16.6577   69.8136   -2.2844 H   0  0  0  0  0  0  0  0  0  0  0  0
   16.7214   68.0416   -4.1277 H   0  0  0  0  0  0  0  0  0  0  0  0
   16.0192   70.2162   -7.2731 O   0  0  0  0  0  0  0  0  0  0  0  0
   19.1374   70.3661  -10.6635 O   0  0  0  0  0  0  0  0  0  0  0  0
   18.2334   70.7097   -6.7156 N   0  0  0  0  0  0  0  0  0  0  0  0
   17.5733   70.2915   -8.9597 N   0  0  0  0  0  0  0  0  0  0  0  0
   17.1899   70.3931   -7.6163 C   0  0  0  0  0  0  0  0  0  0  0  0
   19.5290   70.8963   -7.1852 C   0  0  0  0  0  0  0  0  0  0  0  0
   19.8784   70.7946   -8.4693 C   0  0  0  0  0  0  0  0  0  0  0  0
   18.8477   70.4667   -9.4753 C   0  0  0  0  0  0  0  0  0  0  0  0
   16.8631   70.0714   -9.6053 H   0  0  0  0  0  0  0  0  0  0  0  0
   22.2896   71.1376   -1.4845 O   0  0  0  0  0  0  0  0  0  0  0  0
   21.3937   71.8773   -0.3605 P   0  0  2  0  0  0  0  0  0  0  0  0
   20.4382   70.6937    0.1905 O   0  0  0  0  0  0  0  0  0  0  0  0
   20.6568   73.0866   -0.8589 O   0  0  0  0  0  0  0  0  0  0  0  0
   22.4189   72.1709    0.8510 O   0  0  0  0  0  0  0  0  0  0  0  0
   23.9247   70.8395    2.1065 O   0  0  0  0  0  0  0  0  0  0  0  0
   22.2734   73.0460    5.1814 O   0  0  0  0  0  0  0  0  0  0  0  0
   24.9672   73.5799    4.3408 O   0  0  0  0  0  0  0  0  0  0  0  0
   20.6061   72.1459    2.9930 O   0  0  0  0  0  0  0  0  0  0  0  0
   22.7532   72.8170    3.8538 C   0  0  1  0  0  0  0  0  0  0  0  0
   24.2306   72.4286    3.9381 C   0  0  1  0  0  0  0  0  0  0  0  0
   21.9377   71.6943    3.2151 C   0  0  2  0  0  0  0  0  0  0  0  0
   24.7451   71.9102    2.5884 C   0  0  1  0  0  0  0  0  0  0  0  0
   22.5624   71.2191    1.9020 C   0  0  1  0  0  0  0  0  0  0  0  0
   22.7867   73.7581    5.5925 H   0  0  0  0  0  0  0  0  0  0  0  0
   24.6321   73.8975    5.1941 H   0  0  0  0  0  0  0  0  0  0  0  0
   20.2217   72.4437    3.8317 H   0  0  0  0  0  0  0  0  0  0  0  0
   26.3612   70.8454    3.9896 O   0  0  0  0  0  0  0  0  0  0  0  0
   26.1700   71.3701    2.6886 C   0  0  0  0  0  0  0  0  0  0  0  0
   27.2638   70.4977    4.0679 H   0  0  0  0  0  0  0  0  0  0  0  0
 25 28  1  0
 25 24  1  0
 25 26  1  1
 25 27  2  0
  1  4  1  0
  1 24  1  0
  1  2  1  1
  1  3  2  0
  6 11  1  0
  6 12  1  0
 29 36  1  0
 29 37  1  0
  9  7  1  1
  7 13  1  0
 10  8  1  1
  8 14  1  0
 37 28  1  6
  4  5  1  0
 33 30  1  1
 30 38  1  0
 34 31  1  6
 31 39  1  0
 35 32  1  6
 32 40  1  0
 41 42  1  0
 41 43  1  0
 15 19  2  0
 16 22  2  0
 12 17  1  6
 17 19  1  0
 17 20  1  0
 18 19  1  0
 18 22  1  0
 18 23  1  0
  9 10  1  0
  9 11  1  0
 10 12  1  0
 11  5  1  6
 33 34  1  0
 33 35  1  0
 34 36  1  0
 35 37  1  0
 36 42  1  1
 20 21  2  0
 21 22  1  0
M  CHG  2   2  -1  26  -1
M  END
>  <COMPND>  (81) 
    8629 

>  <AUTHOR>  (81) 
    GENERATED BY OPEN BABEL 3.1.1

>  <MASTER>  (81) 
        0    0    0    0    0    0    0    0   58    0   58    0

>  <minimizedAffinity>  (81) 
-8.06485

>  <CNNscore>  (81) 
0.9389253259

>  <CNNaffinity>  (81) 
4.8212709427

>  <CNN_VS>  (81) 
4.5268135071

>  <CNNaffinity_variance>  (81) 
0.0293416232

$$$$
82
     RDKit          3D

 43 45  0  0  0  0  0  0  0  0999 V2000
   22.7701   72.7940   -3.9478 P   0  0  2  0  0  0  0  0  0  0  0  0
   24.0311   71.8942   -3.4814 O   0  0  0  0  0  0  0  0  0  0  0  0
   22.1553   73.6327   -2.8660 O   0  0  0  0  0  0  0  0  0  0  0  0
   21.7795   71.7334   -4.6631 O   0  0  0  0  0  0  0  0  0  0  0  0
   21.1103   70.7816   -3.8544 C   0  0  0  0  0  0  0  0  0  0  0  0
   19.1731   71.8541   -4.7874 O   0  0  0  0  0  0  0  0  0  0  0  0
   17.6614   70.7393   -2.4501 O   0  0  0  0  0  0  0  0  0  0  0  0
   17.0039   69.0169   -4.4594 O   0  0  0  0  0  0  0  0  0  0  0  0
   18.7345   70.1594   -3.1901 C   0  0  1  0  0  0  0  0  0  0  0  0
   18.2451   69.6871   -4.5433 C   0  0  2  0  0  0  0  0  0  0  0  0
   19.6982   71.2759   -3.5723 C   0  0  1  0  0  0  0  0  0  0  0  0
   18.1543   70.9908   -5.3181 C   0  0  2  0  0  0  0  0  0  0  0  0
   17.0330   70.0453   -2.1945 H   0  0  0  0  0  0  0  0  0  0  0  0
   17.1138   68.1942   -3.9576 H   0  0  0  0  0  0  0  0  0  0  0  0
   16.1309   70.4120   -7.2019 O   0  0  0  0  0  0  0  0  0  0  0  0
   19.1472   70.3142  -10.6852 O   0  0  0  0  0  0  0  0  0  0  0  0
   18.3827   70.8094   -6.7239 N   0  0  0  0  0  0  0  0  0  0  0  0
   17.6344   70.3640   -8.9348 N   0  0  0  0  0  0  0  0  0  0  0  0
   17.2978   70.5209   -7.5842 C   0  0  0  0  0  0  0  0  0  0  0  0
   19.6709   70.9183   -7.2364 C   0  0  0  0  0  0  0  0  0  0  0  0
   19.9753   70.7646   -8.5268 C   0  0  0  0  0  0  0  0  0  0  0  0
   18.8994   70.4613   -9.4924 C   0  0  0  0  0  0  0  0  0  0  0  0
   16.8947   70.1620   -9.5528 H   0  0  0  0  0  0  0  0  0  0  0  0
   23.3643   73.6341   -5.1944 O   0  0  0  0  0  0  0  0  0  0  0  0
   22.6481   74.6505   -6.2274 P   0  0  2  0  0  0  0  0  0  0  0  0
   22.4069   75.9780   -5.3346 O   0  0  0  0  0  0  0  0  0  0  0  0
   21.4068   74.1019   -6.8694 O   0  0  0  0  0  0  0  0  0  0  0  0
   23.8118   75.0640   -7.2666 O   0  0  0  0  0  0  0  0  0  0  0  0
   23.5569   77.1701   -8.3230 O   0  0  0  0  0  0  0  0  0  0  0  0
   26.4160   75.5269  -10.8083 O   0  0  0  0  0  0  0  0  0  0  0  0
   27.1556   77.6185   -8.9845 O   0  0  0  0  0  0  0  0  0  0  0  0
   24.2883   73.8676   -9.7599 O   0  0  0  0  0  0  0  0  0  0  0  0
   25.7551   75.7679   -9.5631 C   0  0  1  0  0  0  0  0  0  0  0  0
   25.8052   77.2699   -9.2764 C   0  0  1  0  0  0  0  0  0  0  0  0
   24.3085   75.2878   -9.6646 C   0  0  2  0  0  0  0  0  0  0  0  0
   24.8915   77.6402   -8.1003 C   0  0  1  0  0  0  0  0  0  0  0  0
   23.4744   75.7510   -8.4689 C   0  0  1  0  0  0  0  0  0  0  0  0
   27.3352   75.8290  -10.7503 H   0  0  0  0  0  0  0  0  0  0  0  0
   27.7220   77.3791   -9.7348 H   0  0  0  0  0  0  0  0  0  0  0  0
   24.8195   73.5871  -10.5208 H   0  0  0  0  0  0  0  0  0  0  0  0
   23.7120   79.4273   -7.0402 O   0  0  0  0  0  0  0  0  0  0  0  0
   24.8042   79.1513   -7.8976 C   0  0  0  0  0  0  0  0  0  0  0  0
   23.6443   80.3854   -6.9019 H   0  0  0  0  0  0  0  0  0  0  0  0
 25 28  1  0
 25 24  1  0
 25 26  1  1
 25 27  2  0
  1  4  1  0
  1 24  1  0
  1  2  1  1
  1  3  2  0
  6 11  1  0
  6 12  1  0
 29 36  1  0
 29 37  1  0
  9  7  1  1
  7 13  1  0
 10  8  1  1
  8 14  1  0
 37 28  1  1
  4  5  1  0
 33 30  1  6
 30 38  1  0
 34 31  1  1
 31 39  1  0
 35 32  1  1
 32 40  1  0
 41 42  1  0
 41 43  1  0
 15 19  2  0
 16 22  2  0
 12 17  1  6
 17 19  1  0
 17 20  1  0
 18 19  1  0
 18 22  1  0
 18 23  1  0
  9 10  1  0
  9 11  1  0
 10 12  1  0
 11  5  1  6
 33 34  1  0
 33 35  1  0
 34 36  1  0
 35 37  1  0
 36 42  1  6
 20 21  2  0
 21 22  1  0
M  CHG  2   2  -1  26  -1
M  END
>  <COMPND>  (82) 
    8629 

>  <AUTHOR>  (82) 
    GENERATED BY OPEN BABEL 3.1.1

>  <MASTER>  (82) 
        0    0    0    0    0    0    0    0   58    0   58    0

>  <minimizedAffinity>  (82) 
-6.51317

>  <CNNscore>  (82) 
0.8761265874

>  <CNNaffinity>  (82) 
4.6768150330

>  <CNN_VS>  (82) 
4.0974822044

>  <CNNaffinity_variance>  (82) 
0.1548553705

$$$$
83
     RDKit          3D

 43 45  0  0  0  0  0  0  0  0999 V2000
   23.1786   71.7980   -2.4558 P   0  0  2  0  0  0  0  0  0  0  0  0
   23.6525   73.2682   -1.9749 O   0  0  0  0  0  0  0  0  0  0  0  0
   24.2100   71.0166   -3.2155 O   0  0  0  0  0  0  0  0  0  0  0  0
   21.7895   72.0742   -3.2381 O   0  0  0  0  0  0  0  0  0  0  0  0
   21.0187   70.9627   -3.6604 C   0  0  0  0  0  0  0  0  0  0  0  0
   18.9473   71.7813   -4.5620 O   0  0  0  0  0  0  0  0  0  0  0  0
   17.6119   70.3708   -2.2777 O   0  0  0  0  0  0  0  0  0  0  0  0
   17.2086   68.6512   -4.3555 O   0  0  0  0  0  0  0  0  0  0  0  0
   18.7571   69.9803   -3.0336 C   0  0  1  0  0  0  0  0  0  0  0  0
   18.3405   69.4956   -4.4067 C   0  0  2  0  0  0  0  0  0  0  0  0
   19.5502   71.2376   -3.3673 C   0  0  1  0  0  0  0  0  0  0  0  0
   18.0633   70.8018   -5.1312 C   0  0  2  0  0  0  0  0  0  0  0  0
   17.0897   69.5843   -2.0526 H   0  0  0  0  0  0  0  0  0  0  0  0
   17.4357   67.8339   -3.8851 H   0  0  0  0  0  0  0  0  0  0  0  0
   16.1829   69.8914   -7.0321 O   0  0  0  0  0  0  0  0  0  0  0  0
   19.1406   70.4904  -10.5156 O   0  0  0  0  0  0  0  0  0  0  0  0
   18.3152   70.7099   -6.5417 N   0  0  0  0  0  0  0  0  0  0  0  0
   17.6571   70.1906   -8.7651 N   0  0  0  0  0  0  0  0  0  0  0  0
   17.3035   70.2388   -7.4106 C   0  0  0  0  0  0  0  0  0  0  0  0
   19.5540   71.0850   -7.0502 C   0  0  0  0  0  0  0  0  0  0  0  0
   19.8757   71.0318   -8.3444 C   0  0  0  0  0  0  0  0  0  0  0  0
   18.8753   70.5511   -9.3190 C   0  0  0  0  0  0  0  0  0  0  0  0
   16.9682   69.8652   -9.3891 H   0  0  0  0  0  0  0  0  0  0  0  0
   22.6891   71.1056   -1.0796 O   0  0  0  0  0  0  0  0  0  0  0  0
   21.7031   71.6391    0.0850 P   0  0  2  0  0  0  0  0  0  0  0  0
   20.5006   70.5568    0.0777 O   0  0  0  0  0  0  0  0  0  0  0  0
   21.2569   73.0618   -0.0905 O   0  0  0  0  0  0  0  0  0  0  0  0
   22.5009   71.3530    1.4585 O   0  0  0  0  0  0  0  0  0  0  0  0
   23.1246   73.2150    2.7854 O   0  0  0  0  0  0  0  0  0  0  0  0
   25.6945   70.3924    4.3599 O   0  0  0  0  0  0  0  0  0  0  0  0
   23.4406   71.2763    5.9048 O   0  0  0  0  0  0  0  0  0  0  0  0
   25.1472   70.4208    1.5175 O   0  0  0  0  0  0  0  0  0  0  0  0
   24.4732   70.8666    3.7865 C   0  0  1  0  0  0  0  0  0  0  0  0
   23.8862   71.9283    4.7188 C   0  0  1  0  0  0  0  0  0  0  0  0
   24.7658   71.4618    2.4105 C   0  0  2  0  0  0  0  0  0  0  0  0
   22.7231   72.6720    4.0486 C   0  0  1  0  0  0  0  0  0  0  0  0
   23.5593   72.2210    1.8554 C   0  0  1  0  0  0  0  0  0  0  0  0
   25.5157   70.0128    5.2336 H   0  0  0  0  0  0  0  0  0  0  0  0
   24.1844   70.8101    6.3179 H   0  0  0  0  0  0  0  0  0  0  0  0
   25.9120   69.9481    1.8801 H   0  0  0  0  0  0  0  0  0  0  0  0
   21.5652   73.3175    6.0365 O   0  0  0  0  0  0  0  0  0  0  0  0
   22.2255   73.8394    4.8981 C   0  0  0  0  0  0  0  0  0  0  0  0
   21.2433   74.0493    6.5866 H   0  0  0  0  0  0  0  0  0  0  0  0
 25 28  1  0
 25 24  1  0
 25 26  1  1
 25 27  2  0
  1  4  1  0
  1 24  1  0
  1  2  1  1
  1  3  2  0
  6 11  1  0
  6 12  1  0
 29 36  1  0
 29 37  1  0
  9  7  1  1
  7 13  1  0
 10  8  1  1
  8 14  1  0
 37 28  1  1
  4  5  1  0
 33 30  1  1
 30 38  1  0
 34 31  1  1
 31 39  1  0
 35 32  1  6
 32 40  1  0
 41 42  1  0
 41 43  1  0
 15 19  2  0
 16 22  2  0
 12 17  1  6
 17 19  1  0
 17 20  1  0
 18 19  1  0
 18 22  1  0
 18 23  1  0
  9 10  1  0
  9 11  1  0
 10 12  1  0
 11  5  1  6
 33 34  1  0
 33 35  1  0
 34 36  1  0
 35 37  1  0
 36 42  1  1
 20 21  2  0
 21 22  1  0
M  CHG  2   2  -1  26  -1
M  END
>  <COMPND>  (83) 
    8629 

>  <AUTHOR>  (83) 
    GENERATED BY OPEN BABEL 3.1.1

>  <MASTER>  (83) 
        0    0    0    0    0    0    0    0   58    0   58    0

>  <minimizedAffinity>  (83) 
-8.42819

>  <CNNscore>  (83) 
0.8736435771

>  <CNNaffinity>  (83) 
4.7063179016

>  <CNN_VS>  (83) 
4.1116442680

>  <CNNaffinity_variance>  (83) 
0.1084867120

$$$$
84
     RDKit          3D

 43 45  0  0  0  0  0  0  0  0999 V2000
   20.2989   72.0571   -1.0254 P   0  0  2  0  0  0  0  0  0  0  0  0
   20.1657   70.4713   -0.7342 O   0  0  0  0  0  0  0  0  0  0  0  0
   19.3280   72.9226   -0.2773 O   0  0  0  0  0  0  0  0  0  0  0  0
   20.2357   72.1625   -2.6387 O   0  0  0  0  0  0  0  0  0  0  0  0
   19.6213   71.1099   -3.3614 C   0  0  0  0  0  0  0  0  0  0  0  0
   17.8098   71.9196   -4.7166 O   0  0  0  0  0  0  0  0  0  0  0  0
   15.9942   70.4463   -2.8394 O   0  0  0  0  0  0  0  0  0  0  0  0
   16.1264   68.7638   -4.9815 O   0  0  0  0  0  0  0  0  0  0  0  0
   17.2929   70.0859   -3.3073 C   0  0  1  0  0  0  0  0  0  0  0  0
   17.2232   69.6236   -4.7478 C   0  0  2  0  0  0  0  0  0  0  0  0
   18.1206   71.3599   -3.4218 C   0  0  1  0  0  0  0  0  0  0  0  0
   17.1035   70.9404   -5.4959 C   0  0  2  0  0  0  0  0  0  0  0  0
   15.4472   69.6487   -2.7580 H   0  0  0  0  0  0  0  0  0  0  0  0
   16.2493   67.9402   -4.4841 H   0  0  0  0  0  0  0  0  0  0  0  0
   15.7246   70.1093   -7.8166 O   0  0  0  0  0  0  0  0  0  0  0  0
   19.4364   70.7479  -10.4729 O   0  0  0  0  0  0  0  0  0  0  0  0
   17.6851   70.8802   -6.8072 N   0  0  0  0  0  0  0  0  0  0  0  0
   17.5738   70.4281   -9.1374 N   0  0  0  0  0  0  0  0  0  0  0  0
   16.9065   70.4478   -7.9060 C   0  0  0  0  0  0  0  0  0  0  0  0
   19.0133   71.2477   -6.9937 C   0  0  0  0  0  0  0  0  0  0  0  0
   19.6352   71.2221   -8.1743 C   0  0  0  0  0  0  0  0  0  0  0  0
   18.8927   70.7826   -9.3733 C   0  0  0  0  0  0  0  0  0  0  0  0
   17.0514   70.1300   -9.9171 H   0  0  0  0  0  0  0  0  0  0  0  0
   21.8542   72.3566   -0.7024 O   0  0  0  0  0  0  0  0  0  0  0  0
   22.6739   73.7478   -0.6263 P   0  0  2  0  0  0  0  0  0  0  0  0
   24.0662   73.3200    0.0781 O   0  0  0  0  0  0  0  0  0  0  0  0
   21.9412   74.8562    0.0727 O   0  0  0  0  0  0  0  0  0  0  0  0
   23.0734   74.0708   -2.1563 O   0  0  0  0  0  0  0  0  0  0  0  0
   23.3972   76.3808   -2.5755 O   0  0  0  0  0  0  0  0  0  0  0  0
   23.3198   75.0080   -6.4692 O   0  0  0  0  0  0  0  0  0  0  0  0
   25.8079   75.8600   -5.3153 O   0  0  0  0  0  0  0  0  0  0  0  0
   21.5401   73.8579   -4.4970 O   0  0  0  0  0  0  0  0  0  0  0  0
   23.6120   74.9440   -5.0706 C   0  0  1  0  0  0  0  0  0  0  0  0
   24.5377   76.1107   -4.7203 C   0  0  1  0  0  0  0  0  0  0  0  0
   22.3065   75.0383   -4.2831 C   0  0  2  0  0  0  0  0  0  0  0  0
   24.6811   76.2669   -3.2003 C   0  0  1  0  0  0  0  0  0  0  0  0
   22.5618   75.2412   -2.7885 C   0  0  1  0  0  0  0  0  0  0  0  0
   24.1445   74.9482   -6.9749 H   0  0  0  0  0  0  0  0  0  0  0  0
   25.7033   75.7629   -6.2749 H   0  0  0  0  0  0  0  0  0  0  0  0
   21.3850   73.7409   -5.4468 H   0  0  0  0  0  0  0  0  0  0  0  0
   26.8498   77.2518   -3.0116 O   0  0  0  0  0  0  0  0  0  0  0  0
   25.4718   77.5186   -2.8262 C   0  0  0  0  0  0  0  0  0  0  0  0
   27.3654   78.0399   -2.7776 H   0  0  0  0  0  0  0  0  0  0  0  0
 25 28  1  0
 25 24  1  0
 25 26  1  1
 25 27  2  0
  1  4  1  0
  1 24  1  0
  1  2  1  6
  1  3  2  0
  6 11  1  0
  6 12  1  0
 29 36  1  0
 29 37  1  0
  9  7  1  6
  7 13  1  0
 10  8  1  1
  8 14  1  0
 37 28  1  6
  4  5  1  0
 33 30  1  6
 30 38  1  0
 34 31  1  6
 31 39  1  0
 35 32  1  1
 32 40  1  0
 41 42  1  0
 41 43  1  0
 15 19  2  0
 16 22  2  0
 12 17  1  6
 17 19  1  0
 17 20  1  0
 18 19  1  0
 18 22  1  0
 18 23  1  0
  9 10  1  0
  9 11  1  0
 10 12  1  0
 11  5  1  6
 33 34  1  0
 33 35  1  0
 34 36  1  0
 35 37  1  0
 36 42  1  6
 20 21  2  0
 21 22  1  0
M  CHG  2   2  -1  26  -1
M  END
>  <COMPND>  (84) 
    8629 

>  <AUTHOR>  (84) 
    GENERATED BY OPEN BABEL 3.1.1

>  <MASTER>  (84) 
        0    0    0    0    0    0    0    0   58    0   58    0

>  <minimizedAffinity>  (84) 
-6.15621

>  <CNNscore>  (84) 
0.8702734113

>  <CNNaffinity>  (84) 
4.6451363564

>  <CNN_VS>  (84) 
4.0425386429

>  <CNNaffinity_variance>  (84) 
0.1566122919

$$$$
85
     RDKit          3D

 43 45  0  0  0  0  0  0  0  0999 V2000
   20.2745   72.1505   -1.2728 P   0  0  2  0  0  0  0  0  0  0  0  0
   20.4472   70.6489   -0.6959 O   0  0  0  0  0  0  0  0  0  0  0  0
   19.1876   72.9571   -0.6252 O   0  0  0  0  0  0  0  0  0  0  0  0
   20.1353   71.9389   -2.8709 O   0  0  0  0  0  0  0  0  0  0  0  0
   19.4865   70.7716   -3.3444 C   0  0  0  0  0  0  0  0  0  0  0  0
   17.7234   71.6704   -4.7073 O   0  0  0  0  0  0  0  0  0  0  0  0
   15.8402   70.1146   -2.9684 O   0  0  0  0  0  0  0  0  0  0  0  0
   16.0246   68.5494   -5.1939 O   0  0  0  0  0  0  0  0  0  0  0  0
   17.1497   69.7680   -3.4160 C   0  0  1  0  0  0  0  0  0  0  0  0
   17.1204   69.3850   -4.8810 C   0  0  2  0  0  0  0  0  0  0  0  0
   17.9903   71.0385   -3.4361 C   0  0  1  0  0  0  0  0  0  0  0  0
   17.0337   70.7415   -5.5596 C   0  0  2  0  0  0  0  0  0  0  0  0
   15.2848   69.3189   -2.9469 H   0  0  0  0  0  0  0  0  0  0  0  0
   16.1260   67.6990   -4.7386 H   0  0  0  0  0  0  0  0  0  0  0  0
   15.6747   70.2343   -7.9832 O   0  0  0  0  0  0  0  0  0  0  0  0
   19.5178   70.7876  -10.4663 O   0  0  0  0  0  0  0  0  0  0  0  0
   17.6545   70.7470   -6.8541 N   0  0  0  0  0  0  0  0  0  0  0  0
   17.5894   70.5104   -9.2176 N   0  0  0  0  0  0  0  0  0  0  0  0
   16.8827   70.4788   -8.0086 C   0  0  0  0  0  0  0  0  0  0  0  0
   19.0139   71.0165   -6.9696 C   0  0  0  0  0  0  0  0  0  0  0  0
   19.6730   71.0415   -8.1299 C   0  0  0  0  0  0  0  0  0  0  0  0
   18.9402   70.7720   -9.3838 C   0  0  0  0  0  0  0  0  0  0  0  0
   17.0723   70.3261  -10.0353 H   0  0  0  0  0  0  0  0  0  0  0  0
   21.7581   72.7728   -1.1166 O   0  0  0  0  0  0  0  0  0  0  0  0
   22.2588   74.3045   -0.9892 P   0  0  2  0  0  0  0  0  0  0  0  0
   23.7593   74.1567   -0.4024 O   0  0  0  0  0  0  0  0  0  0  0  0
   21.3567   75.1805   -0.1691 O   0  0  0  0  0  0  0  0  0  0  0  0
   22.4635   74.7954   -2.5130 O   0  0  0  0  0  0  0  0  0  0  0  0
   22.3241   73.5779   -4.5414 O   0  0  0  0  0  0  0  0  0  0  0  0
   25.4237   76.1270   -5.5137 O   0  0  0  0  0  0  0  0  0  0  0  0
   22.8385   76.5206   -6.7011 O   0  0  0  0  0  0  0  0  0  0  0  0
   25.2407   75.0299   -2.8412 O   0  0  0  0  0  0  0  0  0  0  0  0
   24.1943   75.7500   -4.8877 C   0  0  1  0  0  0  0  0  0  0  0  0
   23.2033   75.3464   -5.9812 C   0  0  1  0  0  0  0  0  0  0  0  0
   24.4549   74.5807   -3.9399 C   0  0  2  0  0  0  0  0  0  0  0  0
   21.9583   74.6789   -5.3816 C   0  0  1  0  0  0  0  0  0  0  0  0
   23.1504   73.9579   -3.4393 C   0  0  1  0  0  0  0  0  0  0  0  0
   25.2653   76.8694   -6.1165 H   0  0  0  0  0  0  0  0  0  0  0  0
   23.6337   76.9327   -7.0742 H   0  0  0  0  0  0  0  0  0  0  0  0
   26.0637   75.4217   -3.1712 H   0  0  0  0  0  0  0  0  0  0  0  0
   20.3164   75.2070   -7.0350 O   0  0  0  0  0  0  0  0  0  0  0  0
   21.0294   74.1271   -6.4608 C   0  0  0  0  0  0  0  0  0  0  0  0
   19.7213   74.8708   -7.7239 H   0  0  0  0  0  0  0  0  0  0  0  0
 25 28  1  0
 25 24  1  0
 25 26  1  1
 25 27  2  0
  1  4  1  0
  1 24  1  0
  1  2  1  1
  1  3  2  0
  6 11  1  0
  6 12  1  0
 29 36  1  0
 29 37  1  0
  9  7  1  6
  7 13  1  0
 10  8  1  1
  8 14  1  0
 37 28  1  1
  4  5  1  0
 33 30  1  6
 30 38  1  0
 34 31  1  1
 31 39  1  0
 35 32  1  1
 32 40  1  0
 41 42  1  0
 41 43  1  0
 15 19  2  0
 16 22  2  0
 12 17  1  6
 17 19  1  0
 17 20  1  0
 18 19  1  0
 18 22  1  0
 18 23  1  0
  9 10  1  0
  9 11  1  0
 10 12  1  0
 11  5  1  6
 33 34  1  0
 33 35  1  0
 34 36  1  0
 35 37  1  0
 36 42  1  6
 20 21  2  0
 21 22  1  0
M  CHG  2   2  -1  26  -1
M  END
>  <COMPND>  (85) 
    8629 

>  <AUTHOR>  (85) 
    GENERATED BY OPEN BABEL 3.1.1

>  <MASTER>  (85) 
        0    0    0    0    0    0    0    0   58    0   58    0

>  <minimizedAffinity>  (85) 
-6.40422

>  <CNNscore>  (85) 
0.8592533469

>  <CNNaffinity>  (85) 
4.5112853050

>  <CNN_VS>  (85) 
3.8763370514

>  <CNNaffinity_variance>  (85) 
0.2059702128

$$$$
86
     RDKit          3D

 43 45  0  0  0  0  0  0  0  0999 V2000
   23.1571   72.0557   -3.5627 P   0  0  2  0  0  0  0  0  0  0  0  0
   23.7957   73.1266   -4.5937 O   0  0  0  0  0  0  0  0  0  0  0  0
   24.1036   70.9942   -3.0845 O   0  0  0  0  0  0  0  0  0  0  0  0
   21.8327   71.5245   -4.3254 O   0  0  0  0  0  0  0  0  0  0  0  0
   21.0768   70.4874   -3.7246 C   0  0  0  0  0  0  0  0  0  0  0  0
   19.1696   71.6503   -4.6101 O   0  0  0  0  0  0  0  0  0  0  0  0
   17.6258   70.4734   -2.3249 O   0  0  0  0  0  0  0  0  0  0  0  0
   16.9267   68.8589   -4.4085 O   0  0  0  0  0  0  0  0  0  0  0  0
   18.6845   69.8988   -3.0894 C   0  0  1  0  0  0  0  0  0  0  0  0
   18.1850   69.4996   -4.4622 C   0  0  2  0  0  0  0  0  0  0  0  0
   19.6775   71.0055   -3.4216 C   0  0  1  0  0  0  0  0  0  0  0  0
   18.1295   70.8381   -5.1788 C   0  0  2  0  0  0  0  0  0  0  0  0
   16.9790   69.7854   -2.1004 H   0  0  0  0  0  0  0  0  0  0  0  0
   17.0143   68.0123   -3.9434 H   0  0  0  0  0  0  0  0  0  0  0  0
   16.1419   70.1278   -7.0558 O   0  0  0  0  0  0  0  0  0  0  0  0
   19.1104   70.3870  -10.5718 O   0  0  0  0  0  0  0  0  0  0  0  0
   18.3553   70.7129   -6.5912 N   0  0  0  0  0  0  0  0  0  0  0  0
   17.6216   70.2576   -8.8050 N   0  0  0  0  0  0  0  0  0  0  0  0
   17.2895   70.3501   -7.4473 C   0  0  0  0  0  0  0  0  0  0  0  0
   19.6220   70.9494   -7.1141 C   0  0  0  0  0  0  0  0  0  0  0  0
   19.9225   70.8557   -8.4111 C   0  0  0  0  0  0  0  0  0  0  0  0
   18.8657   70.4815   -9.3730 C   0  0  0  0  0  0  0  0  0  0  0  0
   16.8951   70.0058   -9.4202 H   0  0  0  0  0  0  0  0  0  0  0  0
   22.5515   72.9934   -2.3935 O   0  0  0  0  0  0  0  0  0  0  0  0
   23.2369   74.1549   -1.5024 P   0  0  2  0  0  0  0  0  0  0  0  0
   22.0354   75.2173   -1.2899 O   0  0  0  0  0  0  0  0  0  0  0  0
   24.4812   74.7397   -2.1054 O   0  0  0  0  0  0  0  0  0  0  0  0
   23.4493   73.4838   -0.0499 O   0  0  0  0  0  0  0  0  0  0  0  0
   24.0806   71.4090    0.9057 O   0  0  0  0  0  0  0  0  0  0  0  0
   20.5078   71.9908    2.8926 O   0  0  0  0  0  0  0  0  0  0  0  0
   22.9857   72.2950    4.3124 O   0  0  0  0  0  0  0  0  0  0  0  0
   20.7486   72.7373    0.1062 O   0  0  0  0  0  0  0  0  0  0  0  0
   21.7352   72.3882    2.2756 C   0  0  1  0  0  0  0  0  0  0  0  0
   22.8874   71.7081    3.0177 C   0  0  1  0  0  0  0  0  0  0  0  0
   21.7163   71.9644    0.8081 C   0  0  2  0  0  0  0  0  0  0  0  0
   24.2096   71.8702    2.2557 C   0  0  1  0  0  0  0  0  0  0  0  0
   23.0921   72.1197    0.1576 C   0  0  1  0  0  0  0  0  0  0  0  0
   20.5132   72.2573    3.8245 H   0  0  0  0  0  0  0  0  0  0  0  0
   22.1442   72.1862    4.7828 H   0  0  0  0  0  0  0  0  0  0  0  0
   19.8821   72.6303    0.5275 H   0  0  0  0  0  0  0  0  0  0  0  0
   25.0839   69.6899    2.6926 O   0  0  0  0  0  0  0  0  0  0  0  0
   25.3404   71.0674    2.8952 C   0  0  0  0  0  0  0  0  0  0  0  0
   25.7958   69.1667    3.0941 H   0  0  0  0  0  0  0  0  0  0  0  0
 25 28  1  0
 25 24  1  0
 25 26  1  1
 25 27  2  0
  1  4  1  0
  1 24  1  0
  1  2  1  6
  1  3  2  0
  6 11  1  0
  6 12  1  0
 29 36  1  0
 29 37  1  0
  9  7  1  1
  7 13  1  0
 10  8  1  1
  8 14  1  0
 37 28  1  1
  4  5  1  0
 33 30  1  1
 30 38  1  0
 34 31  1  1
 31 39  1  0
 35 32  1  6
 32 40  1  0
 41 42  1  0
 41 43  1  0
 15 19  2  0
 16 22  2  0
 12 17  1  6
 17 19  1  0
 17 20  1  0
 18 19  1  0
 18 22  1  0
 18 23  1  0
  9 10  1  0
  9 11  1  0
 10 12  1  0
 11  5  1  6
 33 34  1  0
 33 35  1  0
 34 36  1  0
 35 37  1  0
 36 42  1  1
 20 21  2  0
 21 22  1  0
M  CHG  2   2  -1  26  -1
M  END
>  <COMPND>  (86) 
    8629 

>  <AUTHOR>  (86) 
    GENERATED BY OPEN BABEL 3.1.1

>  <MASTER>  (86) 
        0    0    0    0    0    0    0    0   58    0   58    0

>  <minimizedAffinity>  (86) 
-7.93953

>  <CNNscore>  (86) 
0.8442129493

>  <CNNaffinity>  (86) 
4.7209219933

>  <CNN_VS>  (86) 
3.9854633808

>  <CNNaffinity_variance>  (86) 
0.0355574563

$$$$
87
     RDKit          3D

 43 45  0  0  0  0  0  0  0  0999 V2000
   21.1897   71.5165   -1.3395 P   0  0  2  0  0  0  0  0  0  0  0  0
   22.2439   70.9632   -2.4349 O   0  0  0  0  0  0  0  0  0  0  0  0
   20.6910   70.4902   -0.3650 O   0  0  0  0  0  0  0  0  0  0  0  0
   20.0549   72.2508   -2.2288 O   0  0  0  0  0  0  0  0  0  0  0  0
   19.5776   71.5954   -3.3909 C   0  0  0  0  0  0  0  0  0  0  0  0
   17.7215   72.1943   -4.7945 O   0  0  0  0  0  0  0  0  0  0  0  0
   15.9955   70.7637   -2.8033 O   0  0  0  0  0  0  0  0  0  0  0  0
   16.2245   68.9352   -4.8135 O   0  0  0  0  0  0  0  0  0  0  0  0
   17.3127   70.4451   -3.2490 C   0  0  1  0  0  0  0  0  0  0  0  0
   17.2695   69.8723   -4.6503 C   0  0  2  0  0  0  0  0  0  0  0  0
   18.0649   71.7527   -3.4629 C   0  0  1  0  0  0  0  0  0  0  0  0
   17.0731   71.1200   -5.4947 C   0  0  2  0  0  0  0  0  0  0  0  0
   15.4958   69.9442   -2.6596 H   0  0  0  0  0  0  0  0  0  0  0  0
   16.3953   68.1600   -4.2562 H   0  0  0  0  0  0  0  0  0  0  0  0
   15.7145   70.1222   -7.7611 O   0  0  0  0  0  0  0  0  0  0  0  0
   19.4128   70.6846  -10.4531 O   0  0  0  0  0  0  0  0  0  0  0  0
   17.6568   70.9950   -6.8005 N   0  0  0  0  0  0  0  0  0  0  0  0
   17.5570   70.4032   -9.0997 N   0  0  0  0  0  0  0  0  0  0  0  0
   16.8887   70.4810   -7.8711 C   0  0  0  0  0  0  0  0  0  0  0  0
   18.9765   71.3803   -7.0094 C   0  0  0  0  0  0  0  0  0  0  0  0
   19.5996   71.2985   -8.1868 C   0  0  0  0  0  0  0  0  0  0  0  0
   18.8678   70.7723   -9.3571 C   0  0  0  0  0  0  0  0  0  0  0  0
   17.0418   70.0477   -9.8599 H   0  0  0  0  0  0  0  0  0  0  0  0
   21.9813   72.7547   -0.6663 O   0  0  0  0  0  0  0  0  0  0  0  0
   21.7108   73.5685    0.7039 P   0  0  2  0  0  0  0  0  0  0  0  0
   20.3723   72.8739    1.2899 O   0  0  0  0  0  0  0  0  0  0  0  0
   21.6098   75.0559    0.5264 O   0  0  0  0  0  0  0  0  0  0  0  0
   22.8872   73.0922    1.7010 O   0  0  0  0  0  0  0  0  0  0  0  0
   25.2221   73.4679    1.5467 O   0  0  0  0  0  0  0  0  0  0  0  0
   25.2703   69.6910    3.2152 O   0  0  0  0  0  0  0  0  0  0  0  0
   25.9920   71.9599    4.8212 O   0  0  0  0  0  0  0  0  0  0  0  0
   23.2916   70.3589    1.2106 O   0  0  0  0  0  0  0  0  0  0  0  0
   24.7693   71.0126    2.9968 C   0  0  1  0  0  0  0  0  0  0  0  0
   25.8553   72.0105    3.4038 C   0  0  1  0  0  0  0  0  0  0  0  0
   24.4165   71.1749    1.5194 C   0  0  2  0  0  0  0  0  0  0  0  0
   25.4982   73.4329    2.9518 C   0  0  1  0  0  0  0  0  0  0  0  0
   24.1260   72.6344    1.1651 C   0  0  1  0  0  0  0  0  0  0  0  0
   25.4958   69.5812    4.1514 H   0  0  0  0  0  0  0  0  0  0  0  0
   26.2171   71.0563    5.0935 H   0  0  0  0  0  0  0  0  0  0  0  0
   23.4882   69.4375    1.4391 H   0  0  0  0  0  0  0  0  0  0  0  0
   26.8110   74.5506    4.6059 O   0  0  0  0  0  0  0  0  0  0  0  0
   26.6375   74.4172    3.2072 C   0  0  0  0  0  0  0  0  0  0  0  0
   27.5332   75.1740    4.7835 H   0  0  0  0  0  0  0  0  0  0  0  0
 25 28  1  0
 25 24  1  0
 25 26  1  1
 25 27  2  0
  1  4  1  0
  1 24  1  0
  1  2  1  6
  1  3  2  0
  6 11  1  0
  6 12  1  0
 29 36  1  0
 29 37  1  0
  9  7  1  6
  7 13  1  0
 10  8  1  1
  8 14  1  0
 37 28  1  1
  4  5  1  0
 33 30  1  6
 30 38  1  0
 34 31  1  1
 31 39  1  0
 35 32  1  1
 32 40  1  0
 41 42  1  0
 41 43  1  0
 15 19  2  0
 16 22  2  0
 12 17  1  6
 17 19  1  0
 17 20  1  0
 18 19  1  0
 18 22  1  0
 18 23  1  0
  9 10  1  0
  9 11  1  0
 10 12  1  0
 11  5  1  6
 33 34  1  0
 33 35  1  0
 34 36  1  0
 35 37  1  0
 36 42  1  6
 20 21  2  0
 21 22  1  0
M  CHG  2   2  -1  26  -1
M  END
>  <COMPND>  (87) 
    8629 

>  <AUTHOR>  (87) 
    GENERATED BY OPEN BABEL 3.1.1

>  <MASTER>  (87) 
        0    0    0    0    0    0    0    0   58    0   58    0

>  <minimizedAffinity>  (87) 
-7.29425

>  <CNNscore>  (87) 
0.8078251481

>  <CNNaffinity>  (87) 
4.5707230568

>  <CNN_VS>  (87) 
3.6923451424

>  <CNNaffinity_variance>  (87) 
0.0865209699

$$$$
88
     RDKit          3D

 43 45  0  0  0  0  0  0  0  0999 V2000
   23.4809   71.9493   -3.2234 P   0  0  2  0  0  0  0  0  0  0  0  0
   24.1687   73.0865   -4.1460 O   0  0  0  0  0  0  0  0  0  0  0  0
   24.3361   70.7451   -2.9588 O   0  0  0  0  0  0  0  0  0  0  0  0
   22.0664   71.6598   -3.9536 O   0  0  0  0  0  0  0  0  0  0  0  0
   21.6469   72.5350   -4.9861 C   0  0  0  0  0  0  0  0  0  0  0  0
   20.7219   70.5556   -5.9863 O   0  0  0  0  0  0  0  0  0  0  0  0
   21.0878   71.9418   -8.6198 O   0  0  0  0  0  0  0  0  0  0  0  0
   18.4262   72.2824   -8.1336 O   0  0  0  0  0  0  0  0  0  0  0  0
   20.7202   72.4901   -7.3551 C   0  0  1  0  0  0  0  0  0  0  0  0
   19.2868   72.1312   -7.0230 C   0  0  2  0  0  0  0  0  0  0  0  0
   21.4935   71.7417   -6.2766 C   0  0  1  0  0  0  0  0  0  0  0  0
   19.4191   70.6844   -6.5787 C   0  0  2  0  0  0  0  0  0  0  0  0
   20.6068   72.4042   -9.3246 H   0  0  0  0  0  0  0  0  0  0  0  0
   18.3751   73.2197   -8.3779 H   0  0  0  0  0  0  0  0  0  0  0  0
   16.8164   69.7917   -7.2166 O   0  0  0  0  0  0  0  0  0  0  0  0
   15.6971   69.3024   -2.7726 O   0  0  0  0  0  0  0  0  0  0  0  0
   18.4271   70.3166   -5.6082 N   0  0  0  0  0  0  0  0  0  0  0  0
   16.2613   69.5486   -5.0034 N   0  0  0  0  0  0  0  0  0  0  0  0
   17.1500   69.8822   -6.0333 C   0  0  0  0  0  0  0  0  0  0  0  0
   18.7248   70.3882   -4.2516 C   0  0  0  0  0  0  0  0  0  0  0  0
   17.8657   70.0677   -3.2819 C   0  0  0  0  0  0  0  0  0  0  0  0
   16.5098   69.6044   -3.6411 C   0  0  0  0  0  0  0  0  0  0  0  0
   15.3654   69.2437   -5.2758 H   0  0  0  0  0  0  0  0  0  0  0  0
   23.0456   72.7692   -1.9001 O   0  0  0  0  0  0  0  0  0  0  0  0
   21.7976   72.5720   -0.8918 P   0  0  2  0  0  0  0  0  0  0  0  0
   21.3194   71.0546   -1.1856 O   0  0  0  0  0  0  0  0  0  0  0  0
   20.7161   73.6023   -1.0424 O   0  0  0  0  0  0  0  0  0  0  0  0
   22.4645   72.5121    0.5768 O   0  0  0  0  0  0  0  0  0  0  0  0
   23.0068   70.8725    2.1998 O   0  0  0  0  0  0  0  0  0  0  0  0
   20.9876   73.5467    4.6127 O   0  0  0  0  0  0  0  0  0  0  0  0
   23.8415   73.3127    4.8336 O   0  0  0  0  0  0  0  0  0  0  0  0
   20.0578   73.0472    1.9172 O   0  0  0  0  0  0  0  0  0  0  0  0
   21.8398   73.1513    3.5344 C   0  0  1  0  0  0  0  0  0  0  0  0
   23.0289   72.3860    4.1186 C   0  0  1  0  0  0  0  0  0  0  0  0
   21.0499   72.2649    2.5732 C   0  0  2  0  0  0  0  0  0  0  0  0
   23.8445   71.7019    3.0133 C   0  0  1  0  0  0  0  0  0  0  0  0
   21.9620   71.5942    1.5444 C   0  0  1  0  0  0  0  0  0  0  0  0
   21.4830   74.1102    5.2264 H   0  0  0  0  0  0  0  0  0  0  0  0
   23.3144   73.7381    5.5282 H   0  0  0  0  0  0  0  0  0  0  0  0
   19.4868   73.4662    2.5792 H   0  0  0  0  0  0  0  0  0  0  0  0
   25.1576   69.7329    2.6848 O   0  0  0  0  0  0  0  0  0  0  0  0
   24.9413   70.8052    3.5836 C   0  0  0  0  0  0  0  0  0  0  0  0
   25.8534   69.1540    3.0347 H   0  0  0  0  0  0  0  0  0  0  0  0
 25 28  1  0
 25 24  1  0
 25 26  1  6
 25 27  2  0
  1  4  1  0
  1 24  1  0
  1  2  1  6
  1  3  2  0
  6 11  1  0
  6 12  1  0
 29 36  1  0
 29 37  1  0
  9  7  1  6
  7 13  1  0
 10  8  1  6
  8 14  1  0
 37 28  1  6
  4  5  1  0
 33 30  1  1
 30 38  1  0
 34 31  1  6
 31 39  1  0
 35 32  1  6
 32 40  1  0
 41 42  1  0
 41 43  1  0
 15 19  2  0
 16 22  2  0
 12 17  1  1
 17 19  1  0
 17 20  1  0
 18 19  1  0
 18 22  1  0
 18 23  1  0
  9 10  1  0
  9 11  1  0
 10 12  1  0
 11  5  1  1
 33 34  1  0
 33 35  1  0
 34 36  1  0
 35 37  1  0
 36 42  1  1
 20 21  2  0
 21 22  1  0
M  CHG  2   2  -1  26  -1
M  END
>  <COMPND>  (88) 
    8629 

>  <AUTHOR>  (88) 
    GENERATED BY OPEN BABEL 3.1.1

>  <MASTER>  (88) 
        0    0    0    0    0    0    0    0   58    0   58    0

>  <minimizedAffinity>  (88) 
-7.89267

>  <CNNscore>  (88) 
0.6372070312

>  <CNNaffinity>  (88) 
4.3168458939

>  <CNN_VS>  (88) 
2.7507245541

>  <CNNaffinity_variance>  (88) 
0.2132283002

$$$$
89
     RDKit          3D

 43 45  0  0  0  0  0  0  0  0999 V2000
   20.4505   71.2762   -1.4898 P   0  0  2  0  0  0  0  0  0  0  0  0
   20.9058   70.6563   -0.0665 O   0  0  0  0  0  0  0  0  0  0  0  0
   19.8281   72.6396   -1.4172 O   0  0  0  0  0  0  0  0  0  0  0  0
   19.5289   70.1170   -2.1415 O   0  0  0  0  0  0  0  0  0  0  0  0
   19.1750   70.2237   -3.5094 C   0  0  0  0  0  0  0  0  0  0  0  0
   17.5080   71.3611   -4.8137 O   0  0  0  0  0  0  0  0  0  0  0  0
   15.4889   69.7317   -3.3106 O   0  0  0  0  0  0  0  0  0  0  0  0
   15.6676   68.4100   -5.6892 O   0  0  0  0  0  0  0  0  0  0  0  0
   16.7932   69.3641   -3.7569 C   0  0  1  0  0  0  0  0  0  0  0  0
   16.7938   69.1449   -5.2554 C   0  0  2  0  0  0  0  0  0  0  0  0
   17.6986   70.5810   -3.6131 C   0  0  1  0  0  0  0  0  0  0  0  0
   16.8005   70.5699   -5.7823 C   0  0  2  0  0  0  0  0  0  0  0  0
   14.8927   68.9703   -3.3927 H   0  0  0  0  0  0  0  0  0  0  0  0
   15.7092   67.5109   -5.3279 H   0  0  0  0  0  0  0  0  0  0  0  0
   16.4084   72.6899   -7.6071 O   0  0  0  0  0  0  0  0  0  0  0  0
   19.4003   70.8944  -10.6181 O   0  0  0  0  0  0  0  0  0  0  0  0
   17.4643   70.6818   -7.0504 N   0  0  0  0  0  0  0  0  0  0  0  0
   17.8986   71.7942   -9.1048 N   0  0  0  0  0  0  0  0  0  0  0  0
   17.1960   71.7857   -7.8930 C   0  0  0  0  0  0  0  0  0  0  0  0
   18.3702   69.7041   -7.4470 C   0  0  0  0  0  0  0  0  0  0  0  0
   19.0311   69.7263   -8.6064 C   0  0  0  0  0  0  0  0  0  0  0  0
   18.8080   70.8454   -9.5444 C   0  0  0  0  0  0  0  0  0  0  0  0
   17.7274   72.5535   -9.7081 H   0  0  0  0  0  0  0  0  0  0  0  0
   21.8048   71.2010   -2.3690 O   0  0  0  0  0  0  0  0  0  0  0  0
   22.9419   72.3113   -2.6642 P   0  0  2  0  0  0  0  0  0  0  0  0
   24.0786   71.4767   -3.4571 O   0  0  0  0  0  0  0  0  0  0  0  0
   23.4382   73.0244   -1.4398 O   0  0  0  0  0  0  0  0  0  0  0  0
   22.2904   73.2761   -3.7820 O   0  0  0  0  0  0  0  0  0  0  0  0
   20.1036   73.2606   -4.6955 O   0  0  0  0  0  0  0  0  0  0  0  0
   22.2164   74.3840   -8.0607 O   0  0  0  0  0  0  0  0  0  0  0  0
   20.5866   76.3171   -6.6987 O   0  0  0  0  0  0  0  0  0  0  0  0
   23.3286   72.4226   -6.2455 O   0  0  0  0  0  0  0  0  0  0  0  0
   21.9247   74.3350   -6.6615 C   0  0  1  0  0  0  0  0  0  0  0  0
   20.5267   74.9168   -6.4423 C   0  0  1  0  0  0  0  0  0  0  0  0
   21.9828   72.8832   -6.1901 C   0  0  2  0  0  0  0  0  0  0  0  0
   20.0362   74.6560   -5.0118 C   0  0  1  0  0  0  0  0  0  0  0  0
   21.4267   72.7265   -4.7736 C   0  0  1  0  0  0  0  0  0  0  0  0
   22.1816   75.3032   -8.3663 H   0  0  0  0  0  0  0  0  0  0  0  0
   20.8982   76.4681   -7.6050 H   0  0  0  0  0  0  0  0  0  0  0  0
   23.6690   72.5267   -7.1472 H   0  0  0  0  0  0  0  0  0  0  0  0
   17.8576   74.7602   -5.9873 O   0  0  0  0  0  0  0  0  0  0  0  0
   18.5843   75.0878   -4.8174 C   0  0  0  0  0  0  0  0  0  0  0  0
   16.9316   75.0290   -5.8779 H   0  0  0  0  0  0  0  0  0  0  0  0
 25 28  1  0
 25 24  1  0
 25 26  1  6
 25 27  2  0
  1  4  1  0
  1 24  1  0
  1  2  1  1
  1  3  2  0
  6 11  1  0
  6 12  1  0
 29 36  1  0
 29 37  1  0
  9  7  1  6
  7 13  1  0
 10  8  1  6
  8 14  1  0
 37 28  1  1
  4  5  1  0
 33 30  1  6
 30 38  1  0
 34 31  1  1
 31 39  1  0
 35 32  1  1
 32 40  1  0
 41 42  1  0
 41 43  1  0
 15 19  2  0
 16 22  2  0
 12 17  1  6
 17 19  1  0
 17 20  1  0
 18 19  1  0
 18 22  1  0
 18 23  1  0
  9 10  1  0
  9 11  1  0
 10 12  1  0
 11  5  1  6
 33 34  1  0
 33 35  1  0
 34 36  1  0
 35 37  1  0
 36 42  1  6
 20 21  2  0
 21 22  1  0
M  CHG  2   2  -1  26  -1
M  END
>  <COMPND>  (89) 
    8629 

>  <AUTHOR>  (89) 
    GENERATED BY OPEN BABEL 3.1.1

>  <MASTER>  (89) 
        0    0    0    0    0    0    0    0   58    0   58    0

>  <minimizedAffinity>  (89) 
-7.24482

>  <CNNscore>  (89) 
0.5980839133

>  <CNNaffinity>  (89) 
4.2690153122

>  <CNN_VS>  (89) 
2.5532293320

>  <CNNaffinity_variance>  (89) 
1.0260956287

$$$$
90
     RDKit          3D

 43 45  0  0  0  0  0  0  0  0999 V2000
   20.0756   73.7806   -1.1169 P   0  0  2  0  0  0  0  0  0  0  0  0
   18.8474   73.2666   -0.1978 O   0  0  0  0  0  0  0  0  0  0  0  0
   20.1697   75.2699   -1.2739 O   0  0  0  0  0  0  0  0  0  0  0  0
   19.9131   72.9383   -2.4888 O   0  0  0  0  0  0  0  0  0  0  0  0
   20.3855   73.5128   -3.6948 C   0  0  0  0  0  0  0  0  0  0  0  0
   20.7981   71.4162   -4.7939 O   0  0  0  0  0  0  0  0  0  0  0  0
   23.4357   72.5806   -5.6172 O   0  0  0  0  0  0  0  0  0  0  0  0
   21.9353   72.8500   -7.8784 O   0  0  0  0  0  0  0  0  0  0  0  0
   22.1679   73.2215   -5.4869 C   0  0  1  0  0  0  0  0  0  0  0  0
   21.2616   72.8330   -6.6364 C   0  0  2  0  0  0  0  0  0  0  0  0
   21.4503   72.6038   -4.2932 C   0  0  1  0  0  0  0  0  0  0  0  0
   20.8187   71.4375   -6.2306 C   0  0  2  0  0  0  0  0  0  0  0  0
   23.9128   72.9587   -6.3731 H   0  0  0  0  0  0  0  0  0  0  0  0
   22.1966   73.7593   -8.0922 H   0  0  0  0  0  0  0  0  0  0  0  0
   20.3115   69.7529   -8.4403 O   0  0  0  0  0  0  0  0  0  0  0  0
   15.7511   70.2711   -8.0218 O   0  0  0  0  0  0  0  0  0  0  0  0
   19.5083   71.1147   -6.7206 N   0  0  0  0  0  0  0  0  0  0  0  0
   18.0412   70.0122   -8.2300 N   0  0  0  0  0  0  0  0  0  0  0  0
   19.3629   70.2596   -7.8377 C   0  0  0  0  0  0  0  0  0  0  0  0
   18.3847   71.6437   -6.0948 C   0  0  0  0  0  0  0  0  0  0  0  0
   17.1311   71.3990   -6.4820 C   0  0  0  0  0  0  0  0  0  0  0  0
   16.8919   70.5154   -7.6413 C   0  0  0  0  0  0  0  0  0  0  0  0
   17.9154   69.4195   -9.0063 H   0  0  0  0  0  0  0  0  0  0  0  0
   21.3629   73.0950   -0.4199 O   0  0  0  0  0  0  0  0  0  0  0  0
   21.7408   71.5411   -0.1845 P   0  0  2  0  0  0  0  0  0  0  0  0
   23.0383   71.3278   -1.1272 O   0  0  0  0  0  0  0  0  0  0  0  0
   20.6146   70.5860   -0.4557 O   0  0  0  0  0  0  0  0  0  0  0  0
   22.3176   71.4846    1.3218 O   0  0  0  0  0  0  0  0  0  0  0  0
   22.9965   73.3066    2.6769 O   0  0  0  0  0  0  0  0  0  0  0  0
   25.6294   70.4407    4.0572 O   0  0  0  0  0  0  0  0  0  0  0  0
   23.4421   71.2754    5.7207 O   0  0  0  0  0  0  0  0  0  0  0  0
   24.9639   70.5539    1.2423 O   0  0  0  0  0  0  0  0  0  0  0  0
   24.3852   70.9306    3.5498 C   0  0  1  0  0  0  0  0  0  0  0  0
   23.8379   71.9632    4.5372 C   0  0  1  0  0  0  0  0  0  0  0  0
   24.6203   71.5672    2.1813 C   0  0  2  0  0  0  0  0  0  0  0  0
   22.6480   72.7255    3.9389 C   0  0  1  0  0  0  0  0  0  0  0  0
   23.3918   72.3415    1.7001 C   0  0  1  0  0  0  0  0  0  0  0  0
   25.4871   70.0348    4.9259 H   0  0  0  0  0  0  0  0  0  0  0  0
   24.2024   70.7978    6.0882 H   0  0  0  0  0  0  0  0  0  0  0  0
   25.7430   70.0713    1.5583 H   0  0  0  0  0  0  0  0  0  0  0  0
   21.5138   73.3117    5.9585 O   0  0  0  0  0  0  0  0  0  0  0  0
   22.1865   73.8663    4.8431 C   0  0  0  0  0  0  0  0  0  0  0  0
   21.2147   74.0263    6.5430 H   0  0  0  0  0  0  0  0  0  0  0  0
 25 28  1  0
 25 24  1  0
 25 26  1  6
 25 27  2  0
  1  4  1  0
  1 24  1  0
  1  2  1  1
  1  3  2  0
  6 11  1  0
  6 12  1  0
 29 36  1  0
 29 37  1  0
  9  7  1  6
  7 13  1  0
 10  8  1  6
  8 14  1  0
 37 28  1  1
  4  5  1  0
 33 30  1  1
 30 38  1  0
 34 31  1  1
 31 39  1  0
 35 32  1  6
 32 40  1  0
 41 42  1  0
 41 43  1  0
 15 19  2  0
 16 22  2  0
 12 17  1  6
 17 19  1  0
 17 20  1  0
 18 19  1  0
 18 22  1  0
 18 23  1  0
  9 10  1  0
  9 11  1  0
 10 12  1  0
 11  5  1  6
 33 34  1  0
 33 35  1  0
 34 36  1  0
 35 37  1  0
 36 42  1  1
 20 21  2  0
 21 22  1  0
M  CHG  2   2  -1  26  -1
M  END
>  <COMPND>  (90) 
    8629 

>  <AUTHOR>  (90) 
    GENERATED BY OPEN BABEL 3.1.1

>  <MASTER>  (90) 
        0    0    0    0    0    0    0    0   58    0   58    0

>  <minimizedAffinity>  (90) 
-7.23718

>  <CNNscore>  (90) 
0.5664042234

>  <CNNaffinity>  (90) 
4.2595372200

>  <CNN_VS>  (90) 
2.4126198292

>  <CNNaffinity_variance>  (90) 
0.0778546929

$$$$
91
     RDKit          3D

 43 45  0  0  0  0  0  0  0  0999 V2000
   20.7502   71.3570   -2.0199 P   0  0  2  0  0  0  0  0  0  0  0  0
   19.9866   70.7033   -0.7522 O   0  0  0  0  0  0  0  0  0  0  0  0
   22.1068   70.7839   -2.3071 O   0  0  0  0  0  0  0  0  0  0  0  0
   20.7078   72.9467   -1.7213 O   0  0  0  0  0  0  0  0  0  0  0  0
   21.3896   73.4388   -0.5808 C   0  0  0  0  0  0  0  0  0  0  0  0
   20.2368   73.7953    1.4972 O   0  0  0  0  0  0  0  0  0  0  0  0
   19.9799   76.6594    0.6477 O   0  0  0  0  0  0  0  0  0  0  0  0
   22.0578   76.7467    2.4116 O   0  0  0  0  0  0  0  0  0  0  0  0
   21.0565   75.7480    0.4339 C   0  0  1  0  0  0  0  0  0  0  0  0
   21.8293   75.5364    1.7190 C   0  0  2  0  0  0  0  0  0  0  0  0
   20.4608   74.3671    0.1898 C   0  0  1  0  0  0  0  0  0  0  0  0
   20.9189   74.5891    2.4818 C   0  0  2  0  0  0  0  0  0  0  0  0
   20.3357   77.5485    0.8055 H   0  0  0  0  0  0  0  0  0  0  0  0
   22.6421   77.3149    1.8859 H   0  0  0  0  0  0  0  0  0  0  0  0
   20.7847   74.6897    5.3013 O   0  0  0  0  0  0  0  0  0  0  0  0
   23.7590   71.1978    5.7501 O   0  0  0  0  0  0  0  0  0  0  0  0
   21.6474   73.7178    3.3601 N   0  0  0  0  0  0  0  0  0  0  0  0
   22.2656   72.9508    5.5225 N   0  0  0  0  0  0  0  0  0  0  0  0
   21.5102   73.8519    4.7614 C   0  0  0  0  0  0  0  0  0  0  0  0
   22.4863   72.7434    2.8304 C   0  0  0  0  0  0  0  0  0  0  0  0
   23.2009   71.8926    3.5699 C   0  0  0  0  0  0  0  0  0  0  0  0
   23.1144   71.9659    5.0427 C   0  0  0  0  0  0  0  0  0  0  0  0
   22.1863   73.0258    6.5012 H   0  0  0  0  0  0  0  0  0  0  0  0
   19.6792   71.1838   -3.2182 O   0  0  0  0  0  0  0  0  0  0  0  0
   18.1617   70.6267   -3.2134 P   0  0  2  0  0  0  0  0  0  0  0  0
   17.3257   71.8331   -2.5328 O   0  0  0  0  0  0  0  0  0  0  0  0
   17.9961   69.2982   -2.5340 O   0  0  0  0  0  0  0  0  0  0  0  0
   17.7149   70.6452   -4.7642 O   0  0  0  0  0  0  0  0  0  0  0  0
   19.0460   71.8399   -6.3189 O   0  0  0  0  0  0  0  0  0  0  0  0
   15.5360   71.6250   -8.4834 O   0  0  0  0  0  0  0  0  0  0  0  0
   17.7847   70.0187   -9.2653 O   0  0  0  0  0  0  0  0  0  0  0  0
   15.4440   72.0531   -5.6220 O   0  0  0  0  0  0  0  0  0  0  0  0
   16.5364   71.1591   -7.5736 C   0  0  1  0  0  0  0  0  0  0  0  0
   17.8683   71.0840   -8.3227 C   0  0  1  0  0  0  0  0  0  0  0  0
   16.6342   72.1308   -6.3990 C   0  0  2  0  0  0  0  0  0  0  0  0
   19.0359   70.8505   -7.3546 C   0  0  1  0  0  0  0  0  0  0  0  0
   17.8569   71.8410   -5.5265 C   0  0  1  0  0  0  0  0  0  0  0  0
   15.4685   71.0121   -9.2313 H   0  0  0  0  0  0  0  0  0  0  0  0
   17.0432   70.1781   -9.8703 H   0  0  0  0  0  0  0  0  0  0  0  0
   14.6773   72.2389   -6.1856 H   0  0  0  0  0  0  0  0  0  0  0  0
   21.0436   69.6827   -7.9153 O   0  0  0  0  0  0  0  0  0  0  0  0
   20.3881   70.9292   -8.0599 C   0  0  0  0  0  0  0  0  0  0  0  0
   21.9056   69.7180   -8.3596 H   0  0  0  0  0  0  0  0  0  0  0  0
 25 28  1  0
 25 24  1  0
 25 26  1  1
 25 27  2  0
  1  4  1  0
  1 24  1  0
  1  2  1  1
  1  3  2  0
  6 11  1  0
  6 12  1  0
 29 36  1  0
 29 37  1  0
  9  7  1  1
  7 13  1  0
 10  8  1  1
  8 14  1  0
 37 28  1  6
  4  5  1  0
 33 30  1  6
 30 38  1  0
 34 31  1  6
 31 39  1  0
 35 32  1  1
 32 40  1  0
 41 42  1  0
 41 43  1  0
 15 19  2  0
 16 22  2  0
 12 17  1  1
 17 19  1  0
 17 20  1  0
 18 19  1  0
 18 22  1  0
 18 23  1  0
  9 10  1  0
  9 11  1  0
 10 12  1  0
 11  5  1  6
 33 34  1  0
 33 35  1  0
 34 36  1  0
 35 37  1  0
 36 42  1  6
 20 21  2  0
 21 22  1  0
M  CHG  2   2  -1  26  -1
M  END
>  <COMPND>  (91) 
    8629 

>  <AUTHOR>  (91) 
    GENERATED BY OPEN BABEL 3.1.1

>  <MASTER>  (91) 
        0    0    0    0    0    0    0    0   58    0   58    0

>  <minimizedAffinity>  (91) 
-6.63823

>  <CNNscore>  (91) 
0.5629742146

>  <CNNaffinity>  (91) 
4.1407499313

>  <CNN_VS>  (91) 
2.3311355114

>  <CNNaffinity_variance>  (91) 
0.0389405042

$$$$
92
     RDKit          3D

 43 45  0  0  0  0  0  0  0  0999 V2000
   22.8007   73.9778    1.8221 P   0  0  2  0  0  0  0  0  0  0  0  0
   24.2461   73.3013    2.0880 O   0  0  0  0  0  0  0  0  0  0  0  0
   22.8146   75.1596    0.8976 O   0  0  0  0  0  0  0  0  0  0  0  0
   22.2221   74.2545    3.3075 O   0  0  0  0  0  0  0  0  0  0  0  0
   22.1151   73.1636    4.2055 C   0  0  0  0  0  0  0  0  0  0  0  0
   23.4802   72.5952    6.0994 O   0  0  0  0  0  0  0  0  0  0  0  0
   23.3166   75.4934    6.8507 O   0  0  0  0  0  0  0  0  0  0  0  0
   25.7848   75.3148    5.7051 O   0  0  0  0  0  0  0  0  0  0  0  0
   23.3938   74.9001    5.5556 C   0  0  1  0  0  0  0  0  0  0  0  0
   24.7964   74.3932    5.2922 C   0  0  2  0  0  0  0  0  0  0  0  0
   22.5883   73.6071    5.5830 C   0  0  1  0  0  0  0  0  0  0  0  0
   24.8232   73.1064    6.0995 C   0  0  2  0  0  0  0  0  0  0  0  0
   23.8234   76.3211    6.8577 H   0  0  0  0  0  0  0  0  0  0  0  0
   25.7270   76.1162    5.1618 H   0  0  0  0  0  0  0  0  0  0  0  0
   27.6106   72.9984    6.5427 O   0  0  0  0  0  0  0  0  0  0  0  0
   28.0778   69.2801    3.8600 O   0  0  0  0  0  0  0  0  0  0  0  0
   25.6975   72.1205    5.5296 N   0  0  0  0  0  0  0  0  0  0  0  0
   27.8410   71.1469    5.2067 N   0  0  0  0  0  0  0  0  0  0  0  0
   27.0824   72.1555    5.8146 C   0  0  0  0  0  0  0  0  0  0  0  0
   25.1800   71.1327    4.6987 C   0  0  0  0  0  0  0  0  0  0  0  0
   25.9170   70.1789    4.1258 C   0  0  0  0  0  0  0  0  0  0  0  0
   27.3731   70.1442    4.3722 C   0  0  0  0  0  0  0  0  0  0  0  0
   28.8084   71.1516    5.3906 H   0  0  0  0  0  0  0  0  0  0  0  0
   21.9056   72.7332    1.3095 O   0  0  0  0  0  0  0  0  0  0  0  0
   22.2884   71.4551    0.3969 P   0  0  2  0  0  0  0  0  0  0  0  0
   20.9540   70.5423    0.4584 O   0  0  0  0  0  0  0  0  0  0  0  0
   23.5424   70.7482    0.8231 O   0  0  0  0  0  0  0  0  0  0  0  0
   22.3225   72.0262   -1.1123 O   0  0  0  0  0  0  0  0  0  0  0  0
   20.5504   71.4866   -2.5905 O   0  0  0  0  0  0  0  0  0  0  0  0
   23.4304   72.5214   -5.3629 O   0  0  0  0  0  0  0  0  0  0  0  0
   21.2124   74.2852   -4.8967 O   0  0  0  0  0  0  0  0  0  0  0  0
   24.1794   71.0579   -2.9803 O   0  0  0  0  0  0  0  0  0  0  0  0
   22.7284   72.6063   -4.1197 C   0  0  1  0  0  0  0  0  0  0  0  0
   21.2662   72.9447   -4.4168 C   0  0  1  0  0  0  0  0  0  0  0  0
   22.8335   71.2660   -3.3945 C   0  0  2  0  0  0  0  0  0  0  0  0
   20.3961   72.7910   -3.1621 C   0  0  1  0  0  0  0  0  0  0  0  0
   21.8919   71.1998   -2.1907 C   0  0  1  0  0  0  0  0  0  0  0  0
   23.3680   73.3694   -5.8281 H   0  0  0  0  0  0  0  0  0  0  0  0
   21.7663   74.3689   -5.6888 H   0  0  0  0  0  0  0  0  0  0  0  0
   24.7654   71.1019   -3.7513 H   0  0  0  0  0  0  0  0  0  0  0  0
   18.6443   74.3536   -3.6075 O   0  0  0  0  0  0  0  0  0  0  0  0
   18.9111   72.9700   -3.4704 C   0  0  0  0  0  0  0  0  0  0  0  0
   17.7028   74.4828   -3.8043 H   0  0  0  0  0  0  0  0  0  0  0  0
 25 28  1  0
 25 24  1  0
 25 26  1  6
 25 27  2  0
  1  4  1  0
  1 24  1  0
  1  2  1  1
  1  3  2  0
  6 11  1  0
  6 12  1  0
 29 36  1  0
 29 37  1  0
  9  7  1  1
  7 13  1  0
 10  8  1  1
  8 14  1  0
 37 28  1  1
  4  5  1  0
 33 30  1  6
 30 38  1  0
 34 31  1  1
 31 39  1  0
 35 32  1  1
 32 40  1  0
 41 42  1  0
 41 43  1  0
 15 19  2  0
 16 22  2  0
 12 17  1  6
 17 19  1  0
 17 20  1  0
 18 19  1  0
 18 22  1  0
 18 23  1  0
  9 10  1  0
  9 11  1  0
 10 12  1  0
 11  5  1  6
 33 34  1  0
 33 35  1  0
 34 36  1  0
 35 37  1  0
 36 42  1  6
 20 21  2  0
 21 22  1  0
M  CHG  2   2  -1  26  -1
M  END
>  <COMPND>  (92) 
    8629 

>  <AUTHOR>  (92) 
    GENERATED BY OPEN BABEL 3.1.1

>  <MASTER>  (92) 
        0    0    0    0    0    0    0    0   58    0   58    0

>  <minimizedAffinity>  (92) 
-6.47982

>  <CNNscore>  (92) 
0.5334077477

>  <CNNaffinity>  (92) 
3.9532661438

>  <CNN_VS>  (92) 
2.1087028980

>  <CNNaffinity_variance>  (92) 
0.2153396606

$$$$
93
     RDKit          3D

 43 45  0  0  0  0  0  0  0  0999 V2000
   20.2739   74.3491   -3.3163 P   0  0  2  0  0  0  0  0  0  0  0  0
   19.5506   75.6728   -3.9011 O   0  0  0  0  0  0  0  0  0  0  0  0
   19.3466   73.2226   -2.9660 O   0  0  0  0  0  0  0  0  0  0  0  0
   21.1881   74.9092   -2.1045 O   0  0  0  0  0  0  0  0  0  0  0  0
   21.0875   74.2841   -0.8369 C   0  0  0  0  0  0  0  0  0  0  0  0
   22.8563   73.5300    0.6041 O   0  0  0  0  0  0  0  0  0  0  0  0
   22.8876   71.0312   -1.0530 O   0  0  0  0  0  0  0  0  0  0  0  0
   21.4921   70.2599    1.1593 O   0  0  0  0  0  0  0  0  0  0  0  0
   21.7801   71.8421   -0.6642 C   0  0  1  0  0  0  0  0  0  0  0  0
   21.4587   71.6261    0.7999 C   0  0  2  0  0  0  0  0  0  0  0  0
   22.2351   73.2961   -0.6788 C   0  0  1  0  0  0  0  0  0  0  0  0
   22.5457   72.4374    1.4842 C   0  0  2  0  0  0  0  0  0  0  0  0
   22.6212   70.0980   -1.0515 H   0  0  0  0  0  0  0  0  0  0  0  0
   20.7819   69.7867    0.6984 H   0  0  0  0  0  0  0  0  0  0  0  0
   23.4599   71.5058    3.9890 O   0  0  0  0  0  0  0  0  0  0  0  0
   20.8449   74.5346    6.2757 O   0  0  0  0  0  0  0  0  0  0  0  0
   22.1206   72.9648    2.7502 N   0  0  0  0  0  0  0  0  0  0  0  0
   22.1572   73.0148    5.1256 N   0  0  0  0  0  0  0  0  0  0  0  0
   22.6399   72.4254    3.9501 C   0  0  0  0  0  0  0  0  0  0  0  0
   21.1991   74.0053    2.7932 C   0  0  0  0  0  0  0  0  0  0  0  0
   20.7479   74.5554    3.9224 C   0  0  0  0  0  0  0  0  0  0  0  0
   21.2405   74.0499    5.2201 C   0  0  0  0  0  0  0  0  0  0  0  0
   22.5047   72.6550    5.9739 H   0  0  0  0  0  0  0  0  0  0  0  0
   21.3616   73.9947   -4.4583 O   0  0  0  0  0  0  0  0  0  0  0  0
   21.7038   72.6011   -5.2024 P   0  0  2  0  0  0  0  0  0  0  0  0
   21.8209   71.5471   -3.9805 O   0  0  0  0  0  0  0  0  0  0  0  0
   22.9139   72.6580   -6.0892 O   0  0  0  0  0  0  0  0  0  0  0  0
   20.3375   72.1963   -5.9603 O   0  0  0  0  0  0  0  0  0  0  0  0
   19.1204   70.1641   -6.0319 O   0  0  0  0  0  0  0  0  0  0  0  0
   18.6543   71.3511   -9.9593 O   0  0  0  0  0  0  0  0  0  0  0  0
   16.4215   71.4981   -8.1591 O   0  0  0  0  0  0  0  0  0  0  0  0
   21.1759   71.7909   -8.6075 O   0  0  0  0  0  0  0  0  0  0  0  0
   18.7812   71.5400   -8.5474 C   0  0  1  0  0  0  0  0  0  0  0  0
   17.6294   70.8043   -7.8596 C   0  0  1  0  0  0  0  0  0  0  0  0
   20.1266   70.9813   -8.0879 C   0  0  2  0  0  0  0  0  0  0  0  0
   17.8439   70.7354   -6.3416 C   0  0  1  0  0  0  0  0  0  0  0  0
   20.2175   70.9102   -6.5625 C   0  0  1  0  0  0  0  0  0  0  0  0
   17.8023   71.7041  -10.2576 H   0  0  0  0  0  0  0  0  0  0  0  0
   16.2982   71.5350   -9.1207 H   0  0  0  0  0  0  0  0  0  0  0  0
   21.1076   71.8277   -9.5738 H   0  0  0  0  0  0  0  0  0  0  0  0
   15.9554   69.3040   -6.6471 O   0  0  0  0  0  0  0  0  0  0  0  0
   16.7896   69.8711   -5.6537 C   0  0  0  0  0  0  0  0  0  0  0  0
   15.2796   68.7509   -6.2238 H   0  0  0  0  0  0  0  0  0  0  0  0
 25 28  1  0
 25 24  1  0
 25 26  1  1
 25 27  2  0
  1  4  1  0
  1 24  1  0
  1  2  1  6
  1  3  2  0
  6 11  1  0
  6 12  1  0
 29 36  1  0
 29 37  1  0
  9  7  1  1
  7 13  1  0
 10  8  1  1
  8 14  1  0
 37 28  1  1
  4  5  1  0
 33 30  1  6
 30 38  1  0
 34 31  1  1
 31 39  1  0
 35 32  1  1
 32 40  1  0
 41 42  1  0
 41 43  1  0
 15 19  2  0
 16 22  2  0
 12 17  1  1
 17 19  1  0
 17 20  1  0
 18 19  1  0
 18 22  1  0
 18 23  1  0
  9 10  1  0
  9 11  1  0
 10 12  1  0
 11  5  1  1
 33 34  1  0
 33 35  1  0
 34 36  1  0
 35 37  1  0
 36 42  1  1
 20 21  2  0
 21 22  1  0
M  CHG  2   2  -1  26  -1
M  END
>  <COMPND>  (93) 
    8629 

>  <AUTHOR>  (93) 
    GENERATED BY OPEN BABEL 3.1.1

>  <MASTER>  (93) 
        0    0    0    0    0    0    0    0   58    0   58    0

>  <minimizedAffinity>  (93) 
-6.93422

>  <CNNscore>  (93) 
0.5093300343

>  <CNNaffinity>  (93) 
3.9716248512

>  <CNN_VS>  (93) 
2.0228679180

>  <CNNaffinity_variance>  (93) 
0.0956378058

$$$$
94
     RDKit          3D

 43 45  0  0  0  0  0  0  0  0999 V2000
   23.0683   71.8970   -2.3986 P   0  0  2  0  0  0  0  0  0  0  0  0
   24.2490   70.9814   -3.0191 O   0  0  0  0  0  0  0  0  0  0  0  0
   23.3269   73.3746   -2.4343 O   0  0  0  0  0  0  0  0  0  0  0  0
   22.8158   71.2632   -0.9315 O   0  0  0  0  0  0  0  0  0  0  0  0
   23.5140   71.8133    0.1720 C   0  0  0  0  0  0  0  0  0  0  0  0
   23.6653   70.4904    2.1723 O   0  0  0  0  0  0  0  0  0  0  0  0
   21.4767   72.2265    3.2619 O   0  0  0  0  0  0  0  0  0  0  0  0
   23.7050   73.2723    4.4356 O   0  0  0  0  0  0  0  0  0  0  0  0
   22.5631   72.5753    2.4054 C   0  0  1  0  0  0  0  0  0  0  0  0
   23.8574   72.6219    3.1904 C   0  0  2  0  0  0  0  0  0  0  0  0
   22.8075   71.4073    1.4581 C   0  0  1  0  0  0  0  0  0  0  0  0
   24.1897   71.1469    3.3380 C   0  0  2  0  0  0  0  0  0  0  0  0
   21.3017   72.9574    3.8759 H   0  0  0  0  0  0  0  0  0  0  0  0
   23.4945   74.2076    4.2884 H   0  0  0  0  0  0  0  0  0  0  0  0
   25.3635   68.8461    4.4810 O   0  0  0  0  0  0  0  0  0  0  0  0
   29.6256   70.3406    3.5633 O   0  0  0  0  0  0  0  0  0  0  0  0
   25.6037   70.9086    3.4108 N   0  0  0  0  0  0  0  0  0  0  0  0
   27.4847   69.5920    4.0230 N   0  0  0  0  0  0  0  0  0  0  0  0
   26.0901   69.7213    4.0060 C   0  0  0  0  0  0  0  0  0  0  0  0
   26.4919   71.8463    2.8954 C   0  0  0  0  0  0  0  0  0  0  0  0
   27.8192   71.7086    2.9205 C   0  0  0  0  0  0  0  0  0  0  0  0
   28.4090   70.4966    3.5248 C   0  0  0  0  0  0  0  0  0  0  0  0
   27.8465   68.7730    4.4330 H   0  0  0  0  0  0  0  0  0  0  0  0
   21.7654   71.4218   -3.2289 O   0  0  0  0  0  0  0  0  0  0  0  0
   20.1886   71.6311   -2.9409 P   0  0  2  0  0  0  0  0  0  0  0  0
   20.1151   73.1374   -2.3553 O   0  0  0  0  0  0  0  0  0  0  0  0
   19.5828   70.5886   -2.0463 O   0  0  0  0  0  0  0  0  0  0  0  0
   19.5156   71.7295   -4.4046 O   0  0  0  0  0  0  0  0  0  0  0  0
   18.3425   70.1923   -5.7748 O   0  0  0  0  0  0  0  0  0  0  0  0
   20.7187   71.9607   -8.6518 O   0  0  0  0  0  0  0  0  0  0  0  0
   17.9085   72.5484   -8.5764 O   0  0  0  0  0  0  0  0  0  0  0  0
   21.7934   71.4324   -6.0164 O   0  0  0  0  0  0  0  0  0  0  0  0
   19.9282   71.9183   -7.4607 C   0  0  1  0  0  0  0  0  0  0  0  0
   18.5105   71.4867   -7.8412 C   0  0  1  0  0  0  0  0  0  0  0  0
   20.5498   70.9216   -6.4843 C   0  0  2  0  0  0  0  0  0  0  0  0
   17.6773   71.1607   -6.5943 C   0  0  1  0  0  0  0  0  0  0  0  0
   19.6192   70.6301   -5.3057 C   0  0  1  0  0  0  0  0  0  0  0  0
   20.3296   72.5922   -9.2759 H   0  0  0  0  0  0  0  0  0  0  0  0
   18.4446   72.7448   -9.3608 H   0  0  0  0  0  0  0  0  0  0  0  0
   22.3737   71.6125   -6.7719 H   0  0  0  0  0  0  0  0  0  0  0  0
   16.2563   70.4000   -8.3581 O   0  0  0  0  0  0  0  0  0  0  0  0
   16.3125   70.5780   -6.9548 C   0  0  0  0  0  0  0  0  0  0  0  0
   15.3933   70.0294   -8.6021 H   0  0  0  0  0  0  0  0  0  0  0  0
 25 28  1  0
 25 24  1  0
 25 26  1  1
 25 27  2  0
  1  4  1  0
  1 24  1  0
  1  2  1  6
  1  3  2  0
  6 11  1  0
  6 12  1  0
 29 36  1  0
 29 37  1  0
  9  7  1  1
  7 13  1  0
 10  8  1  1
  8 14  1  0
 37 28  1  6
  4  5  1  0
 33 30  1  6
 30 38  1  0
 34 31  1  1
 31 39  1  0
 35 32  1  1
 32 40  1  0
 41 42  1  0
 41 43  1  0
 15 19  2  0
 16 22  2  0
 12 17  1  6
 17 19  1  0
 17 20  1  0
 18 19  1  0
 18 22  1  0
 18 23  1  0
  9 10  1  0
  9 11  1  0
 10 12  1  0
 11  5  1  6
 33 34  1  0
 33 35  1  0
 34 36  1  0
 35 37  1  0
 36 42  1  6
 20 21  2  0
 21 22  1  0
M  CHG  2   2  -1  26  -1
M  END
>  <COMPND>  (94) 
    8629 

>  <AUTHOR>  (94) 
    GENERATED BY OPEN BABEL 3.1.1

>  <MASTER>  (94) 
        0    0    0    0    0    0    0    0   58    0   58    0

>  <minimizedAffinity>  (94) 
-7.62545

>  <CNNscore>  (94) 
0.5052226782

>  <CNNaffinity>  (94) 
4.1564893723

>  <CNN_VS>  (94) 
2.0999526978

>  <CNNaffinity_variance>  (94) 
0.1259452403

$$$$
95
     RDKit          3D

 43 45  0  0  0  0  0  0  0  0999 V2000
   21.8652   72.5503   -5.7464 P   0  0  2  0  0  0  0  0  0  0  0  0
   21.2282   73.9291   -5.1892 O   0  0  0  0  0  0  0  0  0  0  0  0
   23.0155   72.7212   -6.6947 O   0  0  0  0  0  0  0  0  0  0  0  0
   20.5905   71.7402   -6.3269 O   0  0  0  0  0  0  0  0  0  0  0  0
   20.2672   71.8819   -7.6992 C   0  0  0  0  0  0  0  0  0  0  0  0
   18.9237   70.0192   -6.9925 O   0  0  0  0  0  0  0  0  0  0  0  0
   18.0411   69.8120   -9.8506 O   0  0  0  0  0  0  0  0  0  0  0  0
   15.9359   71.0801   -8.6688 O   0  0  0  0  0  0  0  0  0  0  0  0
   18.3303   70.9758   -9.0778 C   0  0  1  0  0  0  0  0  0  0  0  0
   17.2144   71.2410   -8.0888 C   0  0  2  0  0  0  0  0  0  0  0  0
   19.4999   70.6493   -8.1575 C   0  0  1  0  0  0  0  0  0  0  0  0
   17.4999   70.2119   -7.0082 C   0  0  2  0  0  0  0  0  0  0  0  0
   17.2974   69.9962  -10.4464 H   0  0  0  0  0  0  0  0  0  0  0  0
   15.8020   71.7577   -9.3497 H   0  0  0  0  0  0  0  0  0  0  0  0
   16.6891   68.4821   -4.9278 O   0  0  0  0  0  0  0  0  0  0  0  0
   15.8855   72.0036   -2.0652 O   0  0  0  0  0  0  0  0  0  0  0  0
   17.0741   70.6498   -5.7088 N   0  0  0  0  0  0  0  0  0  0  0  0
   16.2898   70.2369   -3.5041 N   0  0  0  0  0  0  0  0  0  0  0  0
   16.6863   69.6997   -4.7354 C   0  0  0  0  0  0  0  0  0  0  0  0
   17.0445   72.0077   -5.4104 C   0  0  0  0  0  0  0  0  0  0  0  0
   16.6627   72.5038   -4.2317 C   0  0  0  0  0  0  0  0  0  0  0  0
   16.2421   71.5785   -3.1598 C   0  0  0  0  0  0  0  0  0  0  0  0
   16.0150   69.5939   -2.8107 H   0  0  0  0  0  0  0  0  0  0  0  0
   22.2235   71.7424   -4.3930 O   0  0  0  0  0  0  0  0  0  0  0  0
   23.2948   72.0534   -3.2231 P   0  0  2  0  0  0  0  0  0  0  0  0
   23.9714   73.4436   -3.6996 O   0  0  0  0  0  0  0  0  0  0  0  0
   24.2730   70.9422   -2.9732 O   0  0  0  0  0  0  0  0  0  0  0  0
   22.3971   72.4547   -1.9432 O   0  0  0  0  0  0  0  0  0  0  0  0
   21.7439   71.2356   -0.0186 O   0  0  0  0  0  0  0  0  0  0  0  0
   18.2270   73.2789   -0.7305 O   0  0  0  0  0  0  0  0  0  0  0  0
   19.8780   74.0309    1.4959 O   0  0  0  0  0  0  0  0  0  0  0  0
   19.7847   72.2685   -2.9513 O   0  0  0  0  0  0  0  0  0  0  0  0
   19.6454   73.0997   -0.6949 C   0  0  1  0  0  0  0  0  0  0  0  0
   20.0584   72.8284    0.7531 C   0  0  1  0  0  0  0  0  0  0  0  0
   20.0223   71.9216   -1.5912 C   0  0  2  0  0  0  0  0  0  0  0  0
   21.5187   72.3637    0.8349 C   0  0  1  0  0  0  0  0  0  0  0  0
   21.4822   71.5083   -1.3967 C   0  0  1  0  0  0  0  0  0  0  0  0
   17.9811   74.0258   -0.1637 H   0  0  0  0  0  0  0  0  0  0  0  0
   18.9520   74.3138    1.4357 H   0  0  0  0  0  0  0  0  0  0  0  0
   18.8571   72.5279   -3.0614 H   0  0  0  0  0  0  0  0  0  0  0  0
   20.7434   71.9614    3.0588 O   0  0  0  0  0  0  0  0  0  0  0  0
   21.9047   71.9369    2.2494 C   0  0  0  0  0  0  0  0  0  0  0  0
   20.9738   71.6916    3.9621 H   0  0  0  0  0  0  0  0  0  0  0  0
 25 28  1  0
 25 24  1  0
 25 26  1  6
 25 27  2  0
  1  4  1  0
  1 24  1  0
  1  2  1  1
  1  3  2  0
  6 11  1  0
  6 12  1  0
 29 36  1  0
 29 37  1  0
  9  7  1  6
  7 13  1  0
 10  8  1  6
  8 14  1  0
 37 28  1  1
  4  5  1  0
 33 30  1  1
 30 38  1  0
 34 31  1  1
 31 39  1  0
 35 32  1  6
 32 40  1  0
 41 42  1  0
 41 43  1  0
 15 19  2  0
 16 22  2  0
 12 17  1  1
 17 19  1  0
 17 20  1  0
 18 19  1  0
 18 22  1  0
 18 23  1  0
  9 10  1  0
  9 11  1  0
 10 12  1  0
 11  5  1  1
 33 34  1  0
 33 35  1  0
 34 36  1  0
 35 37  1  0
 36 42  1  1
 20 21  2  0
 21 22  1  0
M  CHG  2   2  -1  26  -1
M  END
>  <COMPND>  (95) 
    8629 

>  <AUTHOR>  (95) 
    GENERATED BY OPEN BABEL 3.1.1

>  <MASTER>  (95) 
        0    0    0    0    0    0    0    0   58    0   58    0

>  <minimizedAffinity>  (95) 
-7.45795

>  <CNNscore>  (95) 
0.5033089519

>  <CNNaffinity>  (95) 
4.1720013618

>  <CNN_VS>  (95) 
2.0998055935

>  <CNNaffinity_variance>  (95) 
0.5903843641

$$$$
96
     RDKit          3D

 43 45  0  0  0  0  0  0  0  0999 V2000
   22.7112   72.4988   -0.5987 P   0  0  2  0  0  0  0  0  0  0  0  0
   21.7668   73.7534   -0.2097 O   0  0  0  0  0  0  0  0  0  0  0  0
   21.9987   71.1842   -0.7244 O   0  0  0  0  0  0  0  0  0  0  0  0
   23.8992   72.5520    0.4985 O   0  0  0  0  0  0  0  0  0  0  0  0
   24.3350   71.3368    1.0826 C   0  0  0  0  0  0  0  0  0  0  0  0
   24.6085   70.5320    3.3301 O   0  0  0  0  0  0  0  0  0  0  0  0
   22.2561   72.2531    4.0334 O   0  0  0  0  0  0  0  0  0  0  0  0
   24.3666   73.7514    4.8921 O   0  0  0  0  0  0  0  0  0  0  0  0
   23.3059   72.4981    3.0989 C   0  0  1  0  0  0  0  0  0  0  0  0
   24.5866   72.8491    3.8270 C   0  0  2  0  0  0  0  0  0  0  0  0
   23.6672   71.1722    2.4410 C   0  0  1  0  0  0  0  0  0  0  0  0
   25.0617   71.4870    4.3034 C   0  0  2  0  0  0  0  0  0  0  0  0
   22.0079   73.0857    4.4662 H   0  0  0  0  0  0  0  0  0  0  0  0
   24.0658   74.6027    4.5379 H   0  0  0  0  0  0  0  0  0  0  0  0
   26.5696   72.4983    6.4671 O   0  0  0  0  0  0  0  0  0  0  0  0
   30.5437   71.1345    4.5731 O   0  0  0  0  0  0  0  0  0  0  0  0
   26.4920   71.4094    4.4018 N   0  0  0  0  0  0  0  0  0  0  0  0
   28.5472   71.8183    5.5224 N   0  0  0  0  0  0  0  0  0  0  0  0
   27.1526   71.9493    5.5299 C   0  0  0  0  0  0  0  0  0  0  0  0
   27.2246   70.8030    3.3872 C   0  0  0  0  0  0  0  0  0  0  0  0
   28.5542   70.6873    3.3945 C   0  0  0  0  0  0  0  0  0  0  0  0
   29.3205   71.2252    4.5370 C   0  0  0  0  0  0  0  0  0  0  0  0
   29.0287   72.1874    6.2980 H   0  0  0  0  0  0  0  0  0  0  0  0
   23.4424   72.9996   -1.9505 O   0  0  0  0  0  0  0  0  0  0  0  0
   23.6042   72.2916   -3.3946 P   0  0  2  0  0  0  0  0  0  0  0  0
   24.2900   70.8706   -3.0365 O   0  0  0  0  0  0  0  0  0  0  0  0
   24.3628   73.1094   -4.3994 O   0  0  0  0  0  0  0  0  0  0  0  0
   22.0979   71.9172   -3.8371 O   0  0  0  0  0  0  0  0  0  0  0  0
   21.2324   72.7819   -5.8669 O   0  0  0  0  0  0  0  0  0  0  0  0
   17.6793   71.8930   -3.9600 O   0  0  0  0  0  0  0  0  0  0  0  0
   18.5561   70.2634   -6.1563 O   0  0  0  0  0  0  0  0  0  0  0  0
   19.8994   72.9710   -2.4474 O   0  0  0  0  0  0  0  0  0  0  0  0
   19.0524   71.7027   -4.3116 C   0  0  1  0  0  0  0  0  0  0  0  0
   19.1385   71.5218   -5.8284 C   0  0  1  0  0  0  0  0  0  0  0  0
   19.8549   72.9250   -3.8695 C   0  0  2  0  0  0  0  0  0  0  0  0
   20.5940   71.5791   -6.3113 C   0  0  1  0  0  0  0  0  0  0  0  0
   21.2725   72.9080   -4.4441 C   0  0  1  0  0  0  0  0  0  0  0  0
   17.1643   71.1202   -4.2376 H   0  0  0  0  0  0  0  0  0  0  0  0
   17.6374   70.2401   -5.8454 H   0  0  0  0  0  0  0  0  0  0  0  0
   18.9960   72.9817   -2.0959 H   0  0  0  0  0  0  0  0  0  0  0  0
   21.7394   72.4260   -8.2296 O   0  0  0  0  0  0  0  0  0  0  0  0
   20.6922   71.5589   -7.8352 C   0  0  0  0  0  0  0  0  0  0  0  0
   21.8138   72.4231   -9.1971 H   0  0  0  0  0  0  0  0  0  0  0  0
 25 28  1  0
 25 24  1  0
 25 26  1  1
 25 27  2  0
  1  4  1  0
  1 24  1  0
  1  2  1  1
  1  3  2  0
  6 11  1  0
  6 12  1  0
 29 36  1  0
 29 37  1  0
  9  7  1  1
  7 13  1  0
 10  8  1  1
  8 14  1  0
 37 28  1  1
  4  5  1  0
 33 30  1  6
 30 38  1  0
 34 31  1  1
 31 39  1  0
 35 32  1  1
 32 40  1  0
 41 42  1  0
 41 43  1  0
 15 19  2  0
 16 22  2  0
 12 17  1  6
 17 19  1  0
 17 20  1  0
 18 19  1  0
 18 22  1  0
 18 23  1  0
  9 10  1  0
  9 11  1  0
 10 12  1  0
 11  5  1  6
 33 34  1  0
 33 35  1  0
 34 36  1  0
 35 37  1  0
 36 42  1  6
 20 21  2  0
 21 22  1  0
M  CHG  2   2  -1  26  -1
M  END
>  <COMPND>  (96) 
    8629 

>  <AUTHOR>  (96) 
    GENERATED BY OPEN BABEL 3.1.1

>  <MASTER>  (96) 
        0    0    0    0    0    0    0    0   58    0   58    0

>  <minimizedAffinity>  (96) 
-7.35081

>  <CNNscore>  (96) 
0.5005563498

>  <CNNaffinity>  (96) 
4.1302213669

>  <CNN_VS>  (96) 
2.0674085617

>  <CNNaffinity_variance>  (96) 
0.1243648380

$$$$
97
     RDKit          3D

 43 45  0  0  0  0  0  0  0  0999 V2000
   22.7636   73.9175    1.8450 P   0  0  2  0  0  0  0  0  0  0  0  0
   24.2321   73.2705    2.0507 O   0  0  0  0  0  0  0  0  0  0  0  0
   22.7182   75.1102    0.9356 O   0  0  0  0  0  0  0  0  0  0  0  0
   22.2328   74.1636    3.3535 O   0  0  0  0  0  0  0  0  0  0  0  0
   22.1365   73.0515    4.2262 C   0  0  0  0  0  0  0  0  0  0  0  0
   23.4982   72.4647    6.1171 O   0  0  0  0  0  0  0  0  0  0  0  0
   23.2759   75.3415    6.9329 O   0  0  0  0  0  0  0  0  0  0  0  0
   25.7552   75.2341    5.8023 O   0  0  0  0  0  0  0  0  0  0  0  0
   23.3734   74.7795    5.6252 C   0  0  1  0  0  0  0  0  0  0  0  0
   24.7869   74.3044    5.3611 C   0  0  2  0  0  0  0  0  0  0  0  0
   22.5915   73.4718    5.6171 C   0  0  1  0  0  0  0  0  0  0  0  0
   24.8315   73.0002    6.1391 C   0  0  2  0  0  0  0  0  0  0  0  0
   23.7674   76.1779    6.9626 H   0  0  0  0  0  0  0  0  0  0  0  0
   25.6866   76.0466    5.2770 H   0  0  0  0  0  0  0  0  0  0  0  0
   27.6168   72.9314    6.6027 O   0  0  0  0  0  0  0  0  0  0  0  0
   28.1719   69.2860    3.8378 O   0  0  0  0  0  0  0  0  0  0  0  0
   25.7278   72.0436    5.5536 N   0  0  0  0  0  0  0  0  0  0  0  0
   27.8909   71.1162    5.2258 N   0  0  0  0  0  0  0  0  0  0  0  0
   27.1096   72.0965    5.8507 C   0  0  0  0  0  0  0  0  0  0  0  0
   25.2347   71.0666    4.6955 C   0  0  0  0  0  0  0  0  0  0  0  0
   25.9932   70.1398    4.1066 C   0  0  0  0  0  0  0  0  0  0  0  0
   27.4477   70.1252    4.3643 C   0  0  0  0  0  0  0  0  0  0  0  0
   28.8566   71.1338    5.4177 H   0  0  0  0  0  0  0  0  0  0  0  0
   21.8782   72.6593    1.3490 O   0  0  0  0  0  0  0  0  0  0  0  0
   22.3071   71.2792    0.6250 P   0  0  2  0  0  0  0  0  0  0  0  0
   20.9326   70.4259    0.6090 O   0  0  0  0  0  0  0  0  0  0  0  0
   23.4643   70.5772    1.2746 O   0  0  0  0  0  0  0  0  0  0  0  0
   22.5521   71.6861   -0.9175 O   0  0  0  0  0  0  0  0  0  0  0  0
   22.5194   73.7855   -2.0166 O   0  0  0  0  0  0  0  0  0  0  0  0
   20.7224   71.4842   -4.9364 O   0  0  0  0  0  0  0  0  0  0  0  0
   23.4118   72.4157   -5.3205 O   0  0  0  0  0  0  0  0  0  0  0  0
   20.1234   71.0020   -2.1457 O   0  0  0  0  0  0  0  0  0  0  0  0
   21.6319   71.7540   -3.8662 C   0  0  1  0  0  0  0  0  0  0  0  0
   22.5500   72.9005   -4.2946 C   0  0  1  0  0  0  0  0  0  0  0  0
   20.8365   72.1390   -2.6202 C   0  0  2  0  0  0  0  0  0  0  0  0
   23.3721   73.4243   -3.1093 C   0  0  1  0  0  0  0  0  0  0  0  0
   21.7434   72.6932   -1.5200 C   0  0  1  0  0  0  0  0  0  0  0  0
   21.2211   71.2386   -5.7305 H   0  0  0  0  0  0  0  0  0  0  0  0
   22.8802   72.0875   -6.0628 H   0  0  0  0  0  0  0  0  0  0  0  0
   19.5528   70.6607   -2.8512 H   0  0  0  0  0  0  0  0  0  0  0  0
   25.3519   74.2603   -4.1536 O   0  0  0  0  0  0  0  0  0  0  0  0
   24.1772   74.6687   -3.4772 C   0  0  0  0  0  0  0  0  0  0  0  0
   25.8741   75.0420   -4.3942 H   0  0  0  0  0  0  0  0  0  0  0  0
 25 28  1  0
 25 24  1  0
 25 26  1  6
 25 27  2  0
  1  4  1  0
  1 24  1  0
  1  2  1  1
  1  3  2  0
  6 11  1  0
  6 12  1  0
 29 36  1  0
 29 37  1  0
  9  7  1  1
  7 13  1  0
 10  8  1  1
  8 14  1  0
 37 28  1  6
  4  5  1  0
 33 30  1  6
 30 38  1  0
 34 31  1  6
 31 39  1  0
 35 32  1  1
 32 40  1  0
 41 42  1  0
 41 43  1  0
 15 19  2  0
 16 22  2  0
 12 17  1  6
 17 19  1  0
 17 20  1  0
 18 19  1  0
 18 22  1  0
 18 23  1  0
  9 10  1  0
  9 11  1  0
 10 12  1  0
 11  5  1  6
 33 34  1  0
 33 35  1  0
 34 36  1  0
 35 37  1  0
 36 42  1  6
 20 21  2  0
 21 22  1  0
M  CHG  2   2  -1  26  -1
M  END
>  <COMPND>  (97) 
    8629 

>  <AUTHOR>  (97) 
    GENERATED BY OPEN BABEL 3.1.1

>  <MASTER>  (97) 
        0    0    0    0    0    0    0    0   58    0   58    0

>  <minimizedAffinity>  (97) 
-6.51308

>  <CNNscore>  (97) 
0.4919552505

>  <CNNaffinity>  (97) 
3.8754951954

>  <CNN_VS>  (97) 
1.9065701962

>  <CNNaffinity_variance>  (97) 
0.2509836853

$$$$
98
     RDKit          3D

 43 45  0  0  0  0  0  0  0  0999 V2000
   22.4035   73.7844   -3.8628 P   0  0  2  0  0  0  0  0  0  0  0  0
   23.8076   73.8459   -4.6641 O   0  0  0  0  0  0  0  0  0  0  0  0
   21.9347   75.0956   -3.3040 O   0  0  0  0  0  0  0  0  0  0  0  0
   22.6238   72.5992   -2.7836 O   0  0  0  0  0  0  0  0  0  0  0  0
   21.5703   72.2988   -1.8849 C   0  0  0  0  0  0  0  0  0  0  0  0
   23.4269   71.6976   -0.4830 O   0  0  0  0  0  0  0  0  0  0  0  0
   21.4568   70.1097    1.1258 O   0  0  0  0  0  0  0  0  0  0  0  0
   21.7606   72.3700    2.6209 O   0  0  0  0  0  0  0  0  0  0  0  0
   21.2801   71.3602    0.4620 C   0  0  1  0  0  0  0  0  0  0  0  0
   21.9775   72.4651    1.2278 C   0  0  2  0  0  0  0  0  0  0  0  0
   22.0781   71.3197   -0.8353 C   0  0  1  0  0  0  0  0  0  0  0  0
   23.4313   72.2440    0.8461 C   0  0  2  0  0  0  0  0  0  0  0  0
   20.9561   70.1116    1.9572 H   0  0  0  0  0  0  0  0  0  0  0  0
   20.8214   72.5181    2.8129 H   0  0  0  0  0  0  0  0  0  0  0  0
   24.9067   73.2051    3.0545 O   0  0  0  0  0  0  0  0  0  0  0  0
   26.2999   76.9352    0.7336 O   0  0  0  0  0  0  0  0  0  0  0  0
   24.1892   73.4634    0.8464 N   0  0  0  0  0  0  0  0  0  0  0  0
   25.5993   75.0616    1.8970 N   0  0  0  0  0  0  0  0  0  0  0  0
   24.8940   73.8565    2.0080 C   0  0  0  0  0  0  0  0  0  0  0  0
   24.2286   74.2552   -0.2961 C   0  0  0  0  0  0  0  0  0  0  0  0
   24.9048   75.4024   -0.3852 C   0  0  0  0  0  0  0  0  0  0  0  0
   25.6681   75.8845    0.7840 C   0  0  0  0  0  0  0  0  0  0  0  0
   26.0976   75.3556    2.6940 H   0  0  0  0  0  0  0  0  0  0  0  0
   21.4002   73.1143   -4.9386 O   0  0  0  0  0  0  0  0  0  0  0  0
   21.0511   73.5235   -6.4630 P   0  0  2  0  0  0  0  0  0  0  0  0
   22.2631   72.8670   -7.3102 O   0  0  0  0  0  0  0  0  0  0  0  0
   20.8725   74.9984   -6.6787 O   0  0  0  0  0  0  0  0  0  0  0  0
   19.7601   72.6312   -6.8401 O   0  0  0  0  0  0  0  0  0  0  0  0
   18.9870   70.5203   -6.0898 O   0  0  0  0  0  0  0  0  0  0  0  0
   18.1510   70.1364  -10.1153 O   0  0  0  0  0  0  0  0  0  0  0  0
   15.9993   70.5031   -8.2489 O   0  0  0  0  0  0  0  0  0  0  0  0
   20.5726   71.4752   -9.2646 O   0  0  0  0  0  0  0  0  0  0  0  0
   18.2847   70.8320   -8.8728 C   0  0  1  0  0  0  0  0  0  0  0  0
   17.3340   70.1912   -7.8597 C   0  0  1  0  0  0  0  0  0  0  0  0
   19.7315   70.7257   -8.3944 C   0  0  2  0  0  0  0  0  0  0  0  0
   17.6102   70.7037   -6.4398 C   0  0  1  0  0  0  0  0  0  0  0  0
   19.8875   71.2162   -6.9538 C   0  0  1  0  0  0  0  0  0  0  0  0
   17.2348   70.2005  -10.4248 H   0  0  0  0  0  0  0  0  0  0  0  0
   15.8380   70.1745   -9.1474 H   0  0  0  0  0  0  0  0  0  0  0  0
   20.4649   71.1548  -10.1733 H   0  0  0  0  0  0  0  0  0  0  0  0
   16.1469   68.8624   -6.0187 O   0  0  0  0  0  0  0  0  0  0  0  0
   16.7813   69.9626   -5.3930 C   0  0  0  0  0  0  0  0  0  0  0  0
   15.6159   68.3812   -5.3643 H   0  0  0  0  0  0  0  0  0  0  0  0
 25 28  1  0
 25 24  1  0
 25 26  1  6
 25 27  2  0
  1  4  1  0
  1 24  1  0
  1  2  1  6
  1  3  2  0
  6 11  1  0
  6 12  1  0
 29 36  1  0
 29 37  1  0
  9  7  1  1
  7 13  1  0
 10  8  1  1
  8 14  1  0
 37 28  1  6
  4  5  1  0
 33 30  1  6
 30 38  1  0
 34 31  1  6
 31 39  1  0
 35 32  1  6
 32 40  1  0
 41 42  1  0
 41 43  1  0
 15 19  2  0
 16 22  2  0
 12 17  1  6
 17 19  1  0
 17 20  1  0
 18 19  1  0
 18 22  1  0
 18 23  1  0
  9 10  1  0
  9 11  1  0
 10 12  1  0
 11  5  1  6
 33 34  1  0
 33 35  1  0
 34 36  1  0
 35 37  1  0
 36 42  1  1
 20 21  2  0
 21 22  1  0
M  CHG  2   2  -1  26  -1
M  END
>  <COMPND>  (98) 
    8629 

>  <AUTHOR>  (98) 
    GENERATED BY OPEN BABEL 3.1.1

>  <MASTER>  (98) 
        0    0    0    0    0    0    0    0   58    0   58    0

>  <minimizedAffinity>  (98) 
-7.01698

>  <CNNscore>  (98) 
0.4844308496

>  <CNNaffinity>  (98) 
4.0698876381

>  <CNN_VS>  (98) 
1.9715790749

>  <CNNaffinity_variance>  (98) 
0.2956618667

$$$$
99
     RDKit          3D

 43 45  0  0  0  0  0  0  0  0999 V2000
   23.4926   73.6870   -4.0273 P   0  0  2  0  0  0  0  0  0  0  0  0
   24.3306   72.3031   -4.0276 O   0  0  0  0  0  0  0  0  0  0  0  0
   24.1965   74.8543   -4.6544 O   0  0  0  0  0  0  0  0  0  0  0  0
   23.0574   73.8772   -2.4806 O   0  0  0  0  0  0  0  0  0  0  0  0
   22.1328   74.9018   -2.1595 C   0  0  0  0  0  0  0  0  0  0  0  0
   21.2402   72.9532   -1.0732 O   0  0  0  0  0  0  0  0  0  0  0  0
   18.9908   74.7176   -0.1690 O   0  0  0  0  0  0  0  0  0  0  0  0
   20.5616   74.5702    2.0553 O   0  0  0  0  0  0  0  0  0  0  0  0
   20.3743   75.0284   -0.3251 C   0  0  1  0  0  0  0  0  0  0  0  0
   21.1822   74.4088    0.7961 C   0  0  2  0  0  0  0  0  0  0  0  0
   20.8903   74.2733   -1.5437 C   0  0  1  0  0  0  0  0  0  0  0  0
   21.2578   72.9544    0.3636 C   0  0  2  0  0  0  0  0  0  0  0  0
   18.6388   75.1887    0.6031 H   0  0  0  0  0  0  0  0  0  0  0  0
   20.5377   75.5120    2.2858 H   0  0  0  0  0  0  0  0  0  0  0  0
   21.4313   70.2300    1.0883 O   0  0  0  0  0  0  0  0  0  0  0  0
   25.9164   70.5918    2.0854 O   0  0  0  0  0  0  0  0  0  0  0  0
   22.4586   72.3102    0.8158 N   0  0  0  0  0  0  0  0  0  0  0  0
   23.6644   70.4123    1.5840 N   0  0  0  0  0  0  0  0  0  0  0  0
   22.4385   70.9375    1.1560 C   0  0  0  0  0  0  0  0  0  0  0  0
   23.6391   73.0381    0.9179 C   0  0  0  0  0  0  0  0  0  0  0  0
   24.7995   72.5226    1.3291 C   0  0  0  0  0  0  0  0  0  0  0  0
   24.8644   71.0952    1.7035 C   0  0  0  0  0  0  0  0  0  0  0  0
   23.6744   69.4580    1.8267 H   0  0  0  0  0  0  0  0  0  0  0  0
   22.1057   73.2722   -4.7466 O   0  0  0  0  0  0  0  0  0  0  0  0
   21.6661   73.3022   -6.3019 P   0  0  2  0  0  0  0  0  0  0  0  0
   22.7434   72.3253   -7.0108 O   0  0  0  0  0  0  0  0  0  0  0  0
   21.5949   74.6796   -6.8948 O   0  0  0  0  0  0  0  0  0  0  0  0
   20.2776   72.4808   -6.3498 O   0  0  0  0  0  0  0  0  0  0  0  0
   19.6588   70.3508   -5.5149 O   0  0  0  0  0  0  0  0  0  0  0  0
   17.6521   70.2539   -9.1225 O   0  0  0  0  0  0  0  0  0  0  0  0
   16.1690   70.5658   -6.6829 O   0  0  0  0  0  0  0  0  0  0  0  0
   20.2792   71.4591   -8.9634 O   0  0  0  0  0  0  0  0  0  0  0  0
   18.1810   70.8633   -7.9417 C   0  0  1  0  0  0  0  0  0  0  0  0
   17.5423   70.1882   -6.7263 C   0  0  1  0  0  0  0  0  0  0  0  0
   19.6975   70.6814   -7.9226 C   0  0  2  0  0  0  0  0  0  0  0  0
   18.2507   70.5991   -5.4285 C   0  0  1  0  0  0  0  0  0  0  0  0
   20.2963   71.0728   -6.5704 C   0  0  1  0  0  0  0  0  0  0  0  0
   16.6895   70.3662   -9.1410 H   0  0  0  0  0  0  0  0  0  0  0  0
   15.7334   70.3012   -7.5084 H   0  0  0  0  0  0  0  0  0  0  0  0
   19.8921   71.2016   -9.8142 H   0  0  0  0  0  0  0  0  0  0  0  0
   16.9513   68.7346   -4.6906 O   0  0  0  0  0  0  0  0  0  0  0  0
   17.7333   69.8180   -4.2225 C   0  0  0  0  0  0  0  0  0  0  0  0
   16.6155   68.2283   -3.9339 H   0  0  0  0  0  0  0  0  0  0  0  0
 25 28  1  0
 25 24  1  0
 25 26  1  6
 25 27  2  0
  1  4  1  0
  1 24  1  0
  1  2  1  1
  1  3  2  0
  6 11  1  0
  6 12  1  0
 29 36  1  0
 29 37  1  0
  9  7  1  1
  7 13  1  0
 10  8  1  1
  8 14  1  0
 37 28  1  1
  4  5  1  0
 33 30  1  6
 30 38  1  0
 34 31  1  1
 31 39  1  0
 35 32  1  6
 32 40  1  0
 41 42  1  0
 41 43  1  0
 15 19  2  0
 16 22  2  0
 12 17  1  6
 17 19  1  0
 17 20  1  0
 18 19  1  0
 18 22  1  0
 18 23  1  0
  9 10  1  0
  9 11  1  0
 10 12  1  0
 11  5  1  1
 33 34  1  0
 33 35  1  0
 34 36  1  0
 35 37  1  0
 36 42  1  1
 20 21  2  0
 21 22  1  0
M  CHG  2   2  -1  26  -1
M  END
>  <COMPND>  (99) 
    8629 

>  <AUTHOR>  (99) 
    GENERATED BY OPEN BABEL 3.1.1

>  <MASTER>  (99) 
        0    0    0    0    0    0    0    0   58    0   58    0

>  <minimizedAffinity>  (99) 
-7.49124

>  <CNNscore>  (99) 
0.4620454907

>  <CNNaffinity>  (99) 
4.2570080757

>  <CNN_VS>  (99) 
1.9669313431

>  <CNNaffinity_variance>  (99) 
0.1019333974

$$$$
100
     RDKit          3D

 43 45  0  0  0  0  0  0  0  0999 V2000
   23.0394   71.9049   -2.9584 P   0  0  2  0  0  0  0  0  0  0  0  0
   24.2734   70.8693   -3.1064 O   0  0  0  0  0  0  0  0  0  0  0  0
   22.9918   72.9867   -3.9970 O   0  0  0  0  0  0  0  0  0  0  0  0
   23.1366   72.4081   -1.4237 O   0  0  0  0  0  0  0  0  0  0  0  0
   23.9847   71.7036   -0.5336 C   0  0  0  0  0  0  0  0  0  0  0  0
   24.0187   70.3725    1.4666 O   0  0  0  0  0  0  0  0  0  0  0  0
   21.2058   71.3094    1.9140 O   0  0  0  0  0  0  0  0  0  0  0  0
   22.6384   72.9030    3.6007 O   0  0  0  0  0  0  0  0  0  0  0  0
   22.3147   72.0158    1.3603 C   0  0  1  0  0  0  0  0  0  0  0  0
   23.2909   72.4012    2.4521 C   0  0  2  0  0  0  0  0  0  0  0  0
   23.1333   71.0312    0.5347 C   0  0  1  0  0  0  0  0  0  0  0  0
   24.0063   71.0867    2.7134 C   0  0  2  0  0  0  0  0  0  0  0  0
   20.6678   71.9178    2.4455 H   0  0  0  0  0  0  0  0  0  0  0  0
   22.1985   73.7396    3.3833 H   0  0  0  0  0  0  0  0  0  0  0  0
   25.5631   69.1058    3.9902 O   0  0  0  0  0  0  0  0  0  0  0  0
   29.1839   71.9326    4.3646 O   0  0  0  0  0  0  0  0  0  0  0  0
   25.3591   71.2778    3.1548 N   0  0  0  0  0  0  0  0  0  0  0  0
   27.3648   70.5149    4.1754 N   0  0  0  0  0  0  0  0  0  0  0  0
   26.0522   70.2188    3.7862 C   0  0  0  0  0  0  0  0  0  0  0  0
   25.9850   72.5043    2.9600 C   0  0  0  0  0  0  0  0  0  0  0  0
   27.2368   72.7709    3.3382 C   0  0  0  0  0  0  0  0  0  0  0  0
   28.0304   71.7185    4.0050 C   0  0  0  0  0  0  0  0  0  0  0  0
   27.8670   69.7923    4.6176 H   0  0  0  0  0  0  0  0  0  0  0  0
   21.7485   70.9321   -2.9406 O   0  0  0  0  0  0  0  0  0  0  0  0
   20.2612   71.1525   -2.3472 P   0  0  2  0  0  0  0  0  0  0  0  0
   20.0493   72.7523   -2.4619 O   0  0  0  0  0  0  0  0  0  0  0  0
   20.0614   70.5988   -0.9661 O   0  0  0  0  0  0  0  0  0  0  0  0
   19.2786   70.5299   -3.4660 O   0  0  0  0  0  0  0  0  0  0  0  0
   17.7223   71.9672   -4.5284 O   0  0  0  0  0  0  0  0  0  0  0  0
   15.9520   68.3347   -5.3778 O   0  0  0  0  0  0  0  0  0  0  0  0
   17.2623   69.7979   -7.4731 O   0  0  0  0  0  0  0  0  0  0  0  0
   17.2000   68.7655   -2.8017 O   0  0  0  0  0  0  0  0  0  0  0  0
   17.0433   69.2328   -5.1593 C   0  0  1  0  0  0  0  0  0  0  0  0
   16.9570   70.3537   -6.1971 C   0  0  1  0  0  0  0  0  0  0  0  0
   16.9464   69.8012   -3.7448 C   0  0  2  0  0  0  0  0  0  0  0  0
   17.9297   71.4931   -5.8640 C   0  0  1  0  0  0  0  0  0  0  0  0
   17.9217   70.9607   -3.5339 C   0  0  1  0  0  0  0  0  0  0  0  0
   16.0079   67.9699   -6.2741 H   0  0  0  0  0  0  0  0  0  0  0  0
   16.6412   69.0793   -7.6711 H   0  0  0  0  0  0  0  0  0  0  0  0
   16.5759   68.0376   -2.9454 H   0  0  0  0  0  0  0  0  0  0  0  0
   18.4074   72.4117   -8.0174 O   0  0  0  0  0  0  0  0  0  0  0  0
   17.7491   72.6898   -6.7953 C   0  0  0  0  0  0  0  0  0  0  0  0
   18.3006   73.1646   -8.6202 H   0  0  0  0  0  0  0  0  0  0  0  0
 25 28  1  0
 25 24  1  0
 25 26  1  1
 25 27  2  0
  1  4  1  0
  1 24  1  0
  1  2  1  6
  1  3  2  0
  6 11  1  0
  6 12  1  0
 29 36  1  0
 29 37  1  0
  9  7  1  1
  7 13  1  0
 10  8  1  1
  8 14  1  0
 37 28  1  6
  4  5  1  0
 33 30  1  6
 30 38  1  0
 34 31  1  6
 31 39  1  0
 35 32  1  1
 32 40  1  0
 41 42  1  0
 41 43  1  0
 15 19  2  0
 16 22  2  0
 12 17  1  6
 17 19  1  0
 17 20  1  0
 18 19  1  0
 18 22  1  0
 18 23  1  0
  9 10  1  0
  9 11  1  0
 10 12  1  0
 11  5  1  6
 33 34  1  0
 33 35  1  0
 34 36  1  0
 35 37  1  0
 36 42  1  6
 20 21  2  0
 21 22  1  0
M  CHG  2   2  -1  26  -1
M  END
>  <COMPND>  (100) 
    8629 

>  <AUTHOR>  (100) 
    GENERATED BY OPEN BABEL 3.1.1

>  <MASTER>  (100) 
        0    0    0    0    0    0    0    0   58    0   58    0

>  <minimizedAffinity>  (100) 
-7.82372

>  <CNNscore>  (100) 
0.4566355050

>  <CNNaffinity>  (100) 
4.1655116081

>  <CNN_VS>  (100) 
1.9021204710

>  <CNNaffinity_variance>  (100) 
0.0957636908

$$$$
101
     RDKit          3D

 43 45  0  0  0  0  0  0  0  0999 V2000
   22.9208   72.1071   -3.1497 P   0  0  2  0  0  0  0  0  0  0  0  0
   24.1969   72.3325   -4.1183 O   0  0  0  0  0  0  0  0  0  0  0  0
   23.1819   71.2492   -1.9468 O   0  0  0  0  0  0  0  0  0  0  0  0
   21.7623   71.5815   -4.1495 O   0  0  0  0  0  0  0  0  0  0  0  0
   20.9385   70.5094   -3.7255 C   0  0  0  0  0  0  0  0  0  0  0  0
   19.0643   71.6858   -4.6622 O   0  0  0  0  0  0  0  0  0  0  0  0
   17.4507   70.5194   -2.4201 O   0  0  0  0  0  0  0  0  0  0  0  0
   16.7972   68.9103   -4.5225 O   0  0  0  0  0  0  0  0  0  0  0  0
   18.5257   69.9376   -3.1557 C   0  0  1  0  0  0  0  0  0  0  0  0
   18.0610   69.5421   -4.5418 C   0  0  2  0  0  0  0  0  0  0  0  0
   19.5352   71.0373   -3.4605 C   0  0  1  0  0  0  0  0  0  0  0  0
   18.0344   70.8810   -5.2592 C   0  0  2  0  0  0  0  0  0  0  0  0
   16.7933   69.8360   -2.2136 H   0  0  0  0  0  0  0  0  0  0  0  0
   16.8662   68.0630   -4.0555 H   0  0  0  0  0  0  0  0  0  0  0  0
   16.0859   70.2201   -7.1943 O   0  0  0  0  0  0  0  0  0  0  0  0
   19.1586   70.4220  -10.6234 O   0  0  0  0  0  0  0  0  0  0  0  0
   18.2975   70.7545   -6.6650 N   0  0  0  0  0  0  0  0  0  0  0  0
   17.6174   70.3214   -8.9002 N   0  0  0  0  0  0  0  0  0  0  0  0
   17.2488   70.4177   -7.5523 C   0  0  0  0  0  0  0  0  0  0  0  0
   19.5836   70.9640   -7.1508 C   0  0  0  0  0  0  0  0  0  0  0  0
   19.9189   70.8669   -8.4390 C   0  0  0  0  0  0  0  0  0  0  0  0
   18.8819   70.5189   -9.4318 C   0  0  0  0  0  0  0  0  0  0  0  0
   16.9033   70.0874   -9.5367 H   0  0  0  0  0  0  0  0  0  0  0  0
   22.4509   73.6161   -2.8106 O   0  0  0  0  0  0  0  0  0  0  0  0
   21.6853   74.7176   -3.7127 P   0  0  2  0  0  0  0  0  0  0  0  0
   22.2128   76.1230   -3.1092 O   0  0  0  0  0  0  0  0  0  0  0  0
   20.1912   74.5712   -3.7260 O   0  0  0  0  0  0  0  0  0  0  0  0
   22.3808   74.6109   -5.1652 O   0  0  0  0  0  0  0  0  0  0  0  0
   21.0292   75.4979   -6.8982 O   0  0  0  0  0  0  0  0  0  0  0  0
   23.8989   73.6177   -9.1962 O   0  0  0  0  0  0  0  0  0  0  0  0
   23.8711   76.4846   -9.0286 O   0  0  0  0  0  0  0  0  0  0  0  0
   22.9591   72.3736   -6.7573 O   0  0  0  0  0  0  0  0  0  0  0  0
   23.4032   74.3445   -8.0686 C   0  0  1  0  0  0  0  0  0  0  0  0
   22.8035   75.6592   -8.5713 C   0  0  1  0  0  0  0  0  0  0  0  0
   22.3411   73.5048   -7.3613 C   0  0  2  0  0  0  0  0  0  0  0  0
   22.0166   76.3693   -7.4615 C   0  0  1  0  0  0  0  0  0  0  0  0
   21.5844   74.3195   -6.3107 C   0  0  1  0  0  0  0  0  0  0  0  0
   24.5741   74.1452   -9.6495 H   0  0  0  0  0  0  0  0  0  0  0  0
   24.3602   76.0244   -9.7288 H   0  0  0  0  0  0  0  0  0  0  0  0
   23.4345   71.8660   -7.4327 H   0  0  0  0  0  0  0  0  0  0  0  0
   22.2027   78.6705   -8.0769 O   0  0  0  0  0  0  0  0  0  0  0  0
   21.2795   77.6014   -7.9817 C   0  0  0  0  0  0  0  0  0  0  0  0
   21.7476   79.4615   -8.4070 H   0  0  0  0  0  0  0  0  0  0  0  0
 25 28  1  0
 25 24  1  0
 25 26  1  1
 25 27  2  0
  1  4  1  0
  1 24  1  0
  1  2  1  6
  1  3  2  0
  6 11  1  0
  6 12  1  0
 29 36  1  0
 29 37  1  0
  9  7  1  1
  7 13  1  0
 10  8  1  1
  8 14  1  0
 37 28  1  1
  4  5  1  0
 33 30  1  6
 30 38  1  0
 34 31  1  1
 31 39  1  0
 35 32  1  1
 32 40  1  0
 41 42  1  0
 41 43  1  0
 15 19  2  0
 16 22  2  0
 12 17  1  6
 17 19  1  0
 17 20  1  0
 18 19  1  0
 18 22  1  0
 18 23  1  0
  9 10  1  0
  9 11  1  0
 10 12  1  0
 11  5  1  6
 33 34  1  0
 33 35  1  0
 34 36  1  0
 35 37  1  0
 36 42  1  6
 20 21  2  0
 21 22  1  0
M  CHG  2   2  -1  26  -1
M  END
>  <COMPND>  (101) 
    8629 

>  <AUTHOR>  (101) 
    GENERATED BY OPEN BABEL 3.1.1

>  <MASTER>  (101) 
        0    0    0    0    0    0    0    0   58    0   58    0

>  <minimizedAffinity>  (101) 
-7.14743

>  <CNNscore>  (101) 
0.9228807092

>  <CNNaffinity>  (101) 
4.7004232407

>  <CNN_VS>  (101) 
4.3379297256

>  <CNNaffinity_variance>  (101) 
0.1807461381

$$$$
102
     RDKit          3D

 43 45  0  0  0  0  0  0  0  0999 V2000
   22.7617   71.8083   -3.2113 P   0  0  2  0  0  0  0  0  0  0  0  0
   24.1909   71.0614   -3.0808 O   0  0  0  0  0  0  0  0  0  0  0  0
   22.6589   73.1126   -2.4767 O   0  0  0  0  0  0  0  0  0  0  0  0
   21.6902   70.6742   -2.7828 O   0  0  0  0  0  0  0  0  0  0  0  0
   20.7890   70.1906   -3.7635 C   0  0  0  0  0  0  0  0  0  0  0  0
   18.9982   71.4968   -4.6913 O   0  0  0  0  0  0  0  0  0  0  0  0
   17.2814   70.3413   -2.5215 O   0  0  0  0  0  0  0  0  0  0  0  0
   16.5858   68.8429   -4.6912 O   0  0  0  0  0  0  0  0  0  0  0  0
   18.3386   69.7288   -3.2579 C   0  0  1  0  0  0  0  0  0  0  0  0
   17.8813   69.4068   -4.6653 C   0  0  2  0  0  0  0  0  0  0  0  0
   19.4104   70.7831   -3.5051 C   0  0  1  0  0  0  0  0  0  0  0  0
   17.9394   70.7692   -5.3350 C   0  0  2  0  0  0  0  0  0  0  0  0
   16.5849   69.6872   -2.3512 H   0  0  0  0  0  0  0  0  0  0  0  0
   16.6009   67.9775   -4.2534 H   0  0  0  0  0  0  0  0  0  0  0  0
   16.0082   70.2168   -7.3207 O   0  0  0  0  0  0  0  0  0  0  0  0
   19.1435   70.4399  -10.6913 O   0  0  0  0  0  0  0  0  0  0  0  0
   18.2233   70.6775   -6.7394 N   0  0  0  0  0  0  0  0  0  0  0  0
   17.5709   70.3285   -8.9974 N   0  0  0  0  0  0  0  0  0  0  0  0
   17.1818   70.3946   -7.6535 C   0  0  0  0  0  0  0  0  0  0  0  0
   19.5225   70.8676   -7.1975 C   0  0  0  0  0  0  0  0  0  0  0  0
   19.8773   70.8000   -8.4824 C   0  0  0  0  0  0  0  0  0  0  0  0
   18.8490   70.5087   -9.5021 C   0  0  0  0  0  0  0  0  0  0  0  0
   16.8621   70.1322   -9.6523 H   0  0  0  0  0  0  0  0  0  0  0  0
   22.5540   71.9187   -4.8105 O   0  0  0  0  0  0  0  0  0  0  0  0
   22.4131   73.2073   -5.7762 P   0  0  2  0  0  0  0  0  0  0  0  0
   21.0247   73.8830   -5.2931 O   0  0  0  0  0  0  0  0  0  0  0  0
   22.4688   72.8870   -7.2419 O   0  0  0  0  0  0  0  0  0  0  0  0
   23.5593   74.2246   -5.2699 O   0  0  0  0  0  0  0  0  0  0  0  0
   23.2495   76.1304   -3.8957 O   0  0  0  0  0  0  0  0  0  0  0  0
   26.4723   77.4386   -6.1212 O   0  0  0  0  0  0  0  0  0  0  0  0
   26.8504   76.7160   -3.3674 O   0  0  0  0  0  0  0  0  0  0  0  0
   24.3854   75.8778   -7.3816 O   0  0  0  0  0  0  0  0  0  0  0  0
   25.6687   76.4762   -5.4331 C   0  0  1  0  0  0  0  0  0  0  0  0
   25.5695   76.8959   -3.9652 C   0  0  1  0  0  0  0  0  0  0  0  0
   24.2831   76.4328   -6.0746 C   0  0  2  0  0  0  0  0  0  0  0  0
   24.5123   76.0679   -3.2225 C   0  0  1  0  0  0  0  0  0  0  0  0
   23.2953   75.6246   -5.2313 C   0  0  1  0  0  0  0  0  0  0  0  0
   27.3537   77.4707   -5.7190 H   0  0  0  0  0  0  0  0  0  0  0  0
   27.5089   77.2438   -3.8461 H   0  0  0  0  0  0  0  0  0  0  0  0
   25.0134   76.3985   -7.9055 H   0  0  0  0  0  0  0  0  0  0  0  0
   25.3021   76.0481   -0.9675 O   0  0  0  0  0  0  0  0  0  0  0  0
   24.2849   76.5743   -1.7998 C   0  0  0  0  0  0  0  0  0  0  0  0
   25.1704   76.3623   -0.0589 H   0  0  0  0  0  0  0  0  0  0  0  0
 25 28  1  0
 25 24  1  0
 25 26  1  6
 25 27  2  0
  1  4  1  0
  1 24  1  0
  1  2  1  6
  1  3  2  0
  6 11  1  0
  6 12  1  0
 29 36  1  0
 29 37  1  0
  9  7  1  1
  7 13  1  0
 10  8  1  1
  8 14  1  0
 37 28  1  1
  4  5  1  0
 33 30  1  6
 30 38  1  0
 34 31  1  1
 31 39  1  0
 35 32  1  6
 32 40  1  0
 41 42  1  0
 41 43  1  0
 15 19  2  0
 16 22  2  0
 12 17  1  6
 17 19  1  0
 17 20  1  0
 18 19  1  0
 18 22  1  0
 18 23  1  0
  9 10  1  0
  9 11  1  0
 10 12  1  0
 11  5  1  6
 33 34  1  0
 33 35  1  0
 34 36  1  0
 35 37  1  0
 36 42  1  1
 20 21  2  0
 21 22  1  0
M  CHG  2   2  -1  26  -1
M  END
>  <COMPND>  (102) 
    8629 

>  <AUTHOR>  (102) 
    GENERATED BY OPEN BABEL 3.1.1

>  <MASTER>  (102) 
        0    0    0    0    0    0    0    0   58    0   58    0

>  <minimizedAffinity>  (102) 
-6.93660

>  <CNNscore>  (102) 
0.9209141135

>  <CNNaffinity>  (102) 
4.6783041954

>  <CNN_VS>  (102) 
4.3083162308

>  <CNNaffinity_variance>  (102) 
0.1881031692

$$$$
103
     RDKit          3D

 43 45  0  0  0  0  0  0  0  0999 V2000
   22.8357   71.7863   -2.9565 P   0  0  2  0  0  0  0  0  0  0  0  0
   24.2265   70.9602   -2.9346 O   0  0  0  0  0  0  0  0  0  0  0  0
   22.7794   72.9576   -2.0204 O   0  0  0  0  0  0  0  0  0  0  0  0
   21.7058   70.6506   -2.7296 O   0  0  0  0  0  0  0  0  0  0  0  0
   20.8645   70.3072   -3.8168 C   0  0  0  0  0  0  0  0  0  0  0  0
   19.0066   71.5257   -4.7317 O   0  0  0  0  0  0  0  0  0  0  0  0
   17.3671   70.3060   -2.5373 O   0  0  0  0  0  0  0  0  0  0  0  0
   16.7171   68.7654   -4.6915 O   0  0  0  0  0  0  0  0  0  0  0  0
   18.4431   69.7378   -3.2821 C   0  0  1  0  0  0  0  0  0  0  0  0
   17.9858   69.3874   -4.6827 C   0  0  2  0  0  0  0  0  0  0  0  0
   19.4633   70.8381   -3.5465 C   0  0  1  0  0  0  0  0  0  0  0  0
   17.9750   70.7473   -5.3600 C   0  0  2  0  0  0  0  0  0  0  0  0
   16.7029   69.6220   -2.3561 H   0  0  0  0  0  0  0  0  0  0  0  0
   16.7760   67.9041   -4.2495 H   0  0  0  0  0  0  0  0  0  0  0  0
   16.0499   70.0962   -7.3216 O   0  0  0  0  0  0  0  0  0  0  0  0
   19.1356   70.4425  -10.7275 O   0  0  0  0  0  0  0  0  0  0  0  0
   18.2478   70.6606   -6.7669 N   0  0  0  0  0  0  0  0  0  0  0  0
   17.5879   70.2693   -9.0159 N   0  0  0  0  0  0  0  0  0  0  0  0
   17.2106   70.3253   -7.6681 C   0  0  0  0  0  0  0  0  0  0  0  0
   19.5320   70.9070   -7.2403 C   0  0  0  0  0  0  0  0  0  0  0  0
   19.8757   70.8483   -8.5286 C   0  0  0  0  0  0  0  0  0  0  0  0
   18.8510   70.5047   -9.5354 C   0  0  0  0  0  0  0  0  0  0  0  0
   16.8818   70.0372   -9.6619 H   0  0  0  0  0  0  0  0  0  0  0  0
   22.6621   72.1645   -4.5185 O   0  0  0  0  0  0  0  0  0  0  0  0
   22.4833   73.5943   -5.2510 P   0  0  2  0  0  0  0  0  0  0  0  0
   20.8934   73.8721   -5.1395 O   0  0  0  0  0  0  0  0  0  0  0  0
   23.0233   73.6402   -6.6511 O   0  0  0  0  0  0  0  0  0  0  0  0
   23.1549   74.6581   -4.2399 O   0  0  0  0  0  0  0  0  0  0  0  0
   24.8426   75.7139   -5.5258 O   0  0  0  0  0  0  0  0  0  0  0  0
   25.3202   77.7829   -1.9843 O   0  0  0  0  0  0  0  0  0  0  0  0
   24.1324   79.0968   -4.2451 O   0  0  0  0  0  0  0  0  0  0  0  0
   24.7258   74.9503   -1.9329 O   0  0  0  0  0  0  0  0  0  0  0  0
   24.5882   77.1018   -3.0069 C   0  0  1  0  0  0  0  0  0  0  0  0
   24.8055   77.8436   -4.3272 C   0  0  1  0  0  0  0  0  0  0  0  0
   25.0932   75.6637   -3.1087 C   0  0  2  0  0  0  0  0  0  0  0  0
   24.2745   77.0288   -5.5144 C   0  0  1  0  0  0  0  0  0  0  0  0
   24.5437   74.9587   -4.3501 C   0  0  1  0  0  0  0  0  0  0  0  0
   25.0040   78.6965   -1.9142 H   0  0  0  0  0  0  0  0  0  0  0  0
   24.4767   79.6012   -3.4912 H   0  0  0  0  0  0  0  0  0  0  0  0
   25.0798   75.4065   -1.1542 H   0  0  0  0  0  0  0  0  0  0  0  0
   25.6934   78.5786   -6.6517 O   0  0  0  0  0  0  0  0  0  0  0  0
   24.6213   77.6762   -6.8532 C   0  0  0  0  0  0  0  0  0  0  0  0
   25.9251   78.9980   -7.4956 H   0  0  0  0  0  0  0  0  0  0  0  0
 25 28  1  0
 25 24  1  0
 25 26  1  6
 25 27  2  0
  1  4  1  0
  1 24  1  0
  1  2  1  6
  1  3  2  0
  6 11  1  0
  6 12  1  0
 29 36  1  0
 29 37  1  0
  9  7  1  1
  7 13  1  0
 10  8  1  1
  8 14  1  0
 37 28  1  1
  4  5  1  0
 33 30  1  1
 30 38  1  0
 34 31  1  1
 31 39  1  0
 35 32  1  1
 32 40  1  0
 41 42  1  0
 41 43  1  0
 15 19  2  0
 16 22  2  0
 12 17  1  6
 17 19  1  0
 17 20  1  0
 18 19  1  0
 18 22  1  0
 18 23  1  0
  9 10  1  0
  9 11  1  0
 10 12  1  0
 11  5  1  6
 33 34  1  0
 33 35  1  0
 34 36  1  0
 35 37  1  0
 36 42  1  6
 20 21  2  0
 21 22  1  0
M  CHG  2   2  -1  26  -1
M  END
>  <COMPND>  (103) 
    8629 

>  <AUTHOR>  (103) 
    GENERATED BY OPEN BABEL 3.1.1

>  <MASTER>  (103) 
        0    0    0    0    0    0    0    0   58    0   58    0

>  <minimizedAffinity>  (103) 
-6.61492

>  <CNNscore>  (103) 
0.9205002189

>  <CNNaffinity>  (103) 
4.6337447166

>  <CNN_VS>  (103) 
4.2653632164

>  <CNNaffinity_variance>  (103) 
0.1177854985

$$$$
104
     RDKit          3D

 43 45  0  0  0  0  0  0  0  0999 V2000
   23.0041   71.9420   -2.8255 P   0  0  2  0  0  0  0  0  0  0  0  0
   23.2114   73.4091   -3.4751 O   0  0  0  0  0  0  0  0  0  0  0  0
   24.1372   70.9840   -3.0491 O   0  0  0  0  0  0  0  0  0  0  0  0
   21.5625   71.4686   -3.3872 O   0  0  0  0  0  0  0  0  0  0  0  0
   20.8344   72.3582   -4.2157 C   0  0  0  0  0  0  0  0  0  0  0  0
   18.6005   72.4060   -5.0995 O   0  0  0  0  0  0  0  0  0  0  0  0
   17.7651   71.0596   -2.5539 O   0  0  0  0  0  0  0  0  0  0  0  0
   17.8391   68.9878   -4.3257 O   0  0  0  0  0  0  0  0  0  0  0  0
   18.9615   70.8919   -3.3127 C   0  0  1  0  0  0  0  0  0  0  0  0
   18.6794   70.0972   -4.5707 C   0  0  2  0  0  0  0  0  0  0  0  0
   19.3539   72.2517   -3.8768 C   0  0  1  0  0  0  0  0  0  0  0  0
   18.0262   71.1397   -5.4621 C   0  0  2  0  0  0  0  0  0  0  0  0
   17.4950   70.2042   -2.1832 H   0  0  0  0  0  0  0  0  0  0  0  0
   18.2994   68.3533   -3.7544 H   0  0  0  0  0  0  0  0  0  0  0  0
   16.0195   70.5163   -7.3495 O   0  0  0  0  0  0  0  0  0  0  0  0
   19.0803   70.2344  -10.7836 O   0  0  0  0  0  0  0  0  0  0  0  0
   18.2705   70.8989   -6.8562 N   0  0  0  0  0  0  0  0  0  0  0  0
   17.5451   70.3766   -9.0579 N   0  0  0  0  0  0  0  0  0  0  0  0
   17.1929   70.5924   -7.7195 C   0  0  0  0  0  0  0  0  0  0  0  0
   19.5670   70.9680   -7.3546 C   0  0  0  0  0  0  0  0  0  0  0  0
   19.8863   70.7583   -8.6334 C   0  0  0  0  0  0  0  0  0  0  0  0
   18.8189   70.4328   -9.6011 C   0  0  0  0  0  0  0  0  0  0  0  0
   16.8108   70.1612   -9.6777 H   0  0  0  0  0  0  0  0  0  0  0  0
   22.6986   72.2719   -1.2728 O   0  0  0  0  0  0  0  0  0  0  0  0
   23.6950   72.5364   -0.0278 P   0  0  2  0  0  0  0  0  0  0  0  0
   24.4432   73.9113   -0.4370 O   0  0  0  0  0  0  0  0  0  0  0  0
   24.6207   71.3935    0.2731 O   0  0  0  0  0  0  0  0  0  0  0  0
   22.7229   72.9490    1.1928 O   0  0  0  0  0  0  0  0  0  0  0  0
   23.0741   71.1501    2.6952 O   0  0  0  0  0  0  0  0  0  0  0  0
   20.7097   73.5511    5.0818 O   0  0  0  0  0  0  0  0  0  0  0  0
   23.5130   73.3037    5.6546 O   0  0  0  0  0  0  0  0  0  0  0  0
   20.1519   73.3337    2.2497 O   0  0  0  0  0  0  0  0  0  0  0  0
   21.7031   73.2732    4.0913 C   0  0  1  0  0  0  0  0  0  0  0  0
   22.8175   72.4546    4.7461 C   0  0  1  0  0  0  0  0  0  0  0  0
   21.0619   72.4900    2.9472 C   0  0  2  0  0  0  0  0  0  0  0  0
   23.7832   71.8923    3.6942 C   0  0  1  0  0  0  0  0  0  0  0  0
   22.1128   71.9334    1.9850 C   0  0  1  0  0  0  0  0  0  0  0  0
   21.1102   74.0486    5.8109 H   0  0  0  0  0  0  0  0  0  0  0  0
   22.8919   73.6524    6.3133 H   0  0  0  0  0  0  0  0  0  0  0  0
   19.4916   73.6794    2.8696 H   0  0  0  0  0  0  0  0  0  0  0  0
   25.8424   71.7172    4.8932 O   0  0  0  0  0  0  0  0  0  0  0  0
   24.8101   70.9441    4.3094 C   0  0  0  0  0  0  0  0  0  0  0  0
   26.5032   71.1269    5.2890 H   0  0  0  0  0  0  0  0  0  0  0  0
 25 28  1  0
 25 24  1  0
 25 26  1  6
 25 27  2  0
  1  4  1  0
  1 24  1  0
  1  2  1  6
  1  3  2  0
  6 11  1  0
  6 12  1  0
 29 36  1  0
 29 37  1  0
  9  7  1  1
  7 13  1  0
 10  8  1  1
  8 14  1  0
 37 28  1  1
  4  5  1  0
 33 30  1  1
 30 38  1  0
 34 31  1  1
 31 39  1  0
 35 32  1  6
 32 40  1  0
 41 42  1  0
 41 43  1  0
 15 19  2  0
 16 22  2  0
 12 17  1  6
 17 19  1  0
 17 20  1  0
 18 19  1  0
 18 22  1  0
 18 23  1  0
  9 10  1  0
  9 11  1  0
 10 12  1  0
 11  5  1  6
 33 34  1  0
 33 35  1  0
 34 36  1  0
 35 37  1  0
 36 42  1  1
 20 21  2  0
 21 22  1  0
M  CHG  2   2  -1  26  -1
M  END
>  <COMPND>  (104) 
    8629 

>  <AUTHOR>  (104) 
    GENERATED BY OPEN BABEL 3.1.1

>  <MASTER>  (104) 
        0    0    0    0    0    0    0    0   58    0   58    0

>  <minimizedAffinity>  (104) 
-7.17900

>  <CNNscore>  (104) 
0.8855356574

>  <CNNaffinity>  (104) 
4.6314935684

>  <CNN_VS>  (104) 
4.1013526917

>  <CNNaffinity_variance>  (104) 
0.0554494672

$$$$
105
     RDKit          3D

 43 45  0  0  0  0  0  0  0  0999 V2000
   23.2023   71.8064   -2.4117 P   0  0  2  0  0  0  0  0  0  0  0  0
   23.6781   73.2723   -1.9199 O   0  0  0  0  0  0  0  0  0  0  0  0
   24.2384   71.0226   -3.1625 O   0  0  0  0  0  0  0  0  0  0  0  0
   21.8237   72.0926   -3.2088 O   0  0  0  0  0  0  0  0  0  0  0  0
   21.0522   70.9866   -3.6440 C   0  0  0  0  0  0  0  0  0  0  0  0
   18.9699   71.7868   -4.5371 O   0  0  0  0  0  0  0  0  0  0  0  0
   17.6588   70.3893   -2.2308 O   0  0  0  0  0  0  0  0  0  0  0  0
   17.2490   68.6498   -4.2906 O   0  0  0  0  0  0  0  0  0  0  0  0
   18.8003   69.9981   -2.9919 C   0  0  1  0  0  0  0  0  0  0  0  0
   18.3761   69.4994   -4.3575 C   0  0  2  0  0  0  0  0  0  0  0  0
   19.5844   71.2566   -3.3423 C   0  0  1  0  0  0  0  0  0  0  0  0
   18.0866   70.7980   -5.0911 C   0  0  2  0  0  0  0  0  0  0  0  0
   17.1425   69.6021   -1.9949 H   0  0  0  0  0  0  0  0  0  0  0  0
   17.4838   67.8378   -3.8149 H   0  0  0  0  0  0  0  0  0  0  0  0
   16.2023   69.8467   -6.9679 O   0  0  0  0  0  0  0  0  0  0  0  0
   19.1250   70.4464  -10.4807 O   0  0  0  0  0  0  0  0  0  0  0  0
   18.3285   70.6952   -6.5026 N   0  0  0  0  0  0  0  0  0  0  0  0
   17.6591   70.1462   -8.7155 N   0  0  0  0  0  0  0  0  0  0  0  0
   17.3157   70.2036   -7.3588 C   0  0  0  0  0  0  0  0  0  0  0  0
   19.5587   71.0799   -7.0247 C   0  0  0  0  0  0  0  0  0  0  0  0
   19.8708   71.0178   -8.3209 C   0  0  0  0  0  0  0  0  0  0  0  0
   18.8684   70.5156   -9.2827 C   0  0  0  0  0  0  0  0  0  0  0  0
   16.9692   69.8066   -9.3308 H   0  0  0  0  0  0  0  0  0  0  0  0
   22.6935   71.1114   -1.0438 O   0  0  0  0  0  0  0  0  0  0  0  0
   21.7125   71.6534    0.1210 P   0  0  2  0  0  0  0  0  0  0  0  0
   20.5174   70.5629    0.1368 O   0  0  0  0  0  0  0  0  0  0  0  0
   21.2552   73.0706   -0.0695 O   0  0  0  0  0  0  0  0  0  0  0  0
   22.5223   71.3905    1.4922 O   0  0  0  0  0  0  0  0  0  0  0  0
   23.2212   73.2335    2.8080 O   0  0  0  0  0  0  0  0  0  0  0  0
   25.8370   70.3747    4.2346 O   0  0  0  0  0  0  0  0  0  0  0  0
   23.6633   71.2597    5.8898 O   0  0  0  0  0  0  0  0  0  0  0  0
   25.1608   70.4373    1.4207 O   0  0  0  0  0  0  0  0  0  0  0  0
   24.5947   70.8644    3.7225 C   0  0  1  0  0  0  0  0  0  0  0  0
   24.0597   71.9207    4.6914 C   0  0  1  0  0  0  0  0  0  0  0  0
   24.8291   71.4717    2.3407 C   0  0  2  0  0  0  0  0  0  0  0  0
   22.8733   72.6804    4.0827 C   0  0  1  0  0  0  0  0  0  0  0  0
   23.6049   72.2461    1.8490 C   0  0  1  0  0  0  0  0  0  0  0  0
   25.6951   69.9872    5.1117 H   0  0  0  0  0  0  0  0  0  0  0  0
   24.4213   70.7835    6.2637 H   0  0  0  0  0  0  0  0  0  0  0  0
   25.9374   69.9548    1.7431 H   0  0  0  0  0  0  0  0  0  0  0  0
   21.5012   73.3517    5.9200 O   0  0  0  0  0  0  0  0  0  0  0  0
   22.4247   73.8427    4.9658 C   0  0  0  0  0  0  0  0  0  0  0  0
   21.2072   74.0804    6.4893 H   0  0  0  0  0  0  0  0  0  0  0  0
 25 28  1  0
 25 24  1  0
 25 26  1  1
 25 27  2  0
  1  4  1  0
  1 24  1  0
  1  2  1  1
  1  3  2  0
  6 11  1  0
  6 12  1  0
 29 36  1  0
 29 37  1  0
  9  7  1  1
  7 13  1  0
 10  8  1  1
  8 14  1  0
 37 28  1  1
  4  5  1  0
 33 30  1  1
 30 38  1  0
 34 31  1  1
 31 39  1  0
 35 32  1  6
 32 40  1  0
 41 42  1  0
 41 43  1  0
 15 19  2  0
 16 22  2  0
 12 17  1  6
 17 19  1  0
 17 20  1  0
 18 19  1  0
 18 22  1  0
 18 23  1  0
  9 10  1  0
  9 11  1  0
 10 12  1  0
 11  5  1  6
 33 34  1  0
 33 35  1  0
 34 36  1  0
 35 37  1  0
 36 42  1  1
 20 21  2  0
 21 22  1  0
M  CHG  2   2  -1  26  -1
M  END
>  <COMPND>  (105) 
    8629 

>  <AUTHOR>  (105) 
    GENERATED BY OPEN BABEL 3.1.1

>  <MASTER>  (105) 
        0    0    0    0    0    0    0    0   58    0   58    0

>  <minimizedAffinity>  (105) 
-8.38802

>  <CNNscore>  (105) 
0.8699375391

>  <CNNaffinity>  (105) 
4.7048082352

>  <CNN_VS>  (105) 
4.0928893089

>  <CNNaffinity_variance>  (105) 
0.1090769991

$$$$
106
     RDKit          3D

 43 45  0  0  0  0  0  0  0  0999 V2000
   22.6874   72.4745   -4.4671 P   0  0  2  0  0  0  0  0  0  0  0  0
   22.9318   72.3859   -6.0639 O   0  0  0  0  0  0  0  0  0  0  0  0
   23.4389   71.4619   -3.6539 O   0  0  0  0  0  0  0  0  0  0  0  0
   21.0767   72.4399   -4.3181 O   0  0  0  0  0  0  0  0  0  0  0  0
   20.4748   71.2900   -3.7497 C   0  0  0  0  0  0  0  0  0  0  0  0
   18.4817   72.0042   -4.8861 O   0  0  0  0  0  0  0  0  0  0  0  0
   16.9647   70.6462   -2.6848 O   0  0  0  0  0  0  0  0  0  0  0  0
   16.8188   68.8311   -4.7147 O   0  0  0  0  0  0  0  0  0  0  0  0
   18.1901   70.2620   -3.3064 C   0  0  1  0  0  0  0  0  0  0  0  0
   17.9263   69.7085   -4.6911 C   0  0  2  0  0  0  0  0  0  0  0  0
   18.9772   71.5295   -3.6151 C   0  0  1  0  0  0  0  0  0  0  0  0
   17.6864   70.9745   -5.4961 C   0  0  2  0  0  0  0  0  0  0  0  0
   16.4448   69.8532   -2.4779 H   0  0  0  0  0  0  0  0  0  0  0  0
   17.0205   68.0414   -4.1889 H   0  0  0  0  0  0  0  0  0  0  0  0
   15.9888   70.0513   -7.5561 O   0  0  0  0  0  0  0  0  0  0  0  0
   19.3060   70.4714  -10.7280 O   0  0  0  0  0  0  0  0  0  0  0  0
   18.0803   70.8331   -6.8695 N   0  0  0  0  0  0  0  0  0  0  0  0
   17.6418   70.2614   -9.1338 N   0  0  0  0  0  0  0  0  0  0  0  0
   17.1515   70.3598   -7.8254 C   0  0  0  0  0  0  0  0  0  0  0  0
   19.3747   71.1625   -7.2566 C   0  0  0  0  0  0  0  0  0  0  0  0
   19.8270   71.0617   -8.5082 C   0  0  0  0  0  0  0  0  0  0  0  0
   18.9201   70.5753   -9.5678 C   0  0  0  0  0  0  0  0  0  0  0  0
   17.0127   69.9335   -9.8168 H   0  0  0  0  0  0  0  0  0  0  0  0
   23.0507   74.0128   -4.1286 O   0  0  0  0  0  0  0  0  0  0  0  0
   22.6182   75.3903   -4.8554 P   0  0  2  0  0  0  0  0  0  0  0  0
   22.9425   76.5162   -3.7397 O   0  0  0  0  0  0  0  0  0  0  0  0
   21.2028   75.4041   -5.3558 O   0  0  0  0  0  0  0  0  0  0  0  0
   23.7342   75.6166   -5.9992 O   0  0  0  0  0  0  0  0  0  0  0  0
   24.4192   77.4024   -7.3986 O   0  0  0  0  0  0  0  0  0  0  0  0
   24.2284   74.3911  -10.2175 O   0  0  0  0  0  0  0  0  0  0  0  0
   26.7885   75.3666   -9.3558 O   0  0  0  0  0  0  0  0  0  0  0  0
   22.2449   74.5272   -8.1135 O   0  0  0  0  0  0  0  0  0  0  0  0
   24.4726   74.9522   -8.9249 C   0  0  1  0  0  0  0  0  0  0  0  0
   25.5575   76.0220   -9.0636 C   0  0  1  0  0  0  0  0  0  0  0  0
   23.1779   75.5651   -8.3941 C   0  0  2  0  0  0  0  0  0  0  0  0
   25.6855   76.8512   -7.7786 C   0  0  1  0  0  0  0  0  0  0  0  0
   23.4243   76.4092   -7.1424 C   0  0  1  0  0  0  0  0  0  0  0  0
   25.0464   73.9999  -10.5600 H   0  0  0  0  0  0  0  0  0  0  0  0
   26.6940   74.8463  -10.1692 H   0  0  0  0  0  0  0  0  0  0  0  0
   22.0973   74.0002   -8.9138 H   0  0  0  0  0  0  0  0  0  0  0  0
   27.6233   77.9560   -6.9224 O   0  0  0  0  0  0  0  0  0  0  0  0
   26.6495   78.0233   -7.9479 C   0  0  0  0  0  0  0  0  0  0  0  0
   28.2440   78.6958   -7.0177 H   0  0  0  0  0  0  0  0  0  0  0  0
 25 28  1  0
 25 24  1  0
 25 26  1  1
 25 27  2  0
  1  4  1  0
  1 24  1  0
  1  2  1  6
  1  3  2  0
  6 11  1  0
  6 12  1  0
 29 36  1  0
 29 37  1  0
  9  7  1  6
  7 13  1  0
 10  8  1  1
  8 14  1  0
 37 28  1  1
  4  5  1  0
 33 30  1  6
 30 38  1  0
 34 31  1  1
 31 39  1  0
 35 32  1  1
 32 40  1  0
 41 42  1  0
 41 43  1  0
 15 19  2  0
 16 22  2  0
 12 17  1  6
 17 19  1  0
 17 20  1  0
 18 19  1  0
 18 22  1  0
 18 23  1  0
  9 10  1  0
  9 11  1  0
 10 12  1  0
 11  5  1  6
 33 34  1  0
 33 35  1  0
 34 36  1  0
 35 37  1  0
 36 42  1  6
 20 21  2  0
 21 22  1  0
M  CHG  2   2  -1  26  -1
M  END
>  <COMPND>  (106) 
    8629 

>  <AUTHOR>  (106) 
    GENERATED BY OPEN BABEL 3.1.1

>  <MASTER>  (106) 
        0    0    0    0    0    0    0    0   58    0   58    0

>  <minimizedAffinity>  (106) 
-6.76319

>  <CNNscore>  (106) 
0.8400136232

>  <CNNaffinity>  (106) 
4.6833634377

>  <CNN_VS>  (106) 
3.9340891838

>  <CNNaffinity_variance>  (106) 
0.0974751711

$$$$
107
     RDKit          3D

 43 45  0  0  0  0  0  0  0  0999 V2000
   21.2967   73.3267   -2.6398 P   0  0  2  0  0  0  0  0  0  0  0  0
   22.3660   72.5964   -1.6699 O   0  0  0  0  0  0  0  0  0  0  0  0
   21.2032   74.8150   -2.4733 O   0  0  0  0  0  0  0  0  0  0  0  0
   19.9249   72.5047   -2.3942 O   0  0  0  0  0  0  0  0  0  0  0  0
   19.4594   71.6444   -3.4194 C   0  0  0  0  0  0  0  0  0  0  0  0
   17.6238   72.2049   -4.8652 O   0  0  0  0  0  0  0  0  0  0  0  0
   15.8816   70.7458   -2.9091 O   0  0  0  0  0  0  0  0  0  0  0  0
   16.1899   68.9178   -4.9092 O   0  0  0  0  0  0  0  0  0  0  0  0
   17.2142   70.4514   -3.3248 C   0  0  1  0  0  0  0  0  0  0  0  0
   17.2130   69.8750   -4.7253 C   0  0  2  0  0  0  0  0  0  0  0  0
   17.9460   71.7726   -3.5252 C   0  0  1  0  0  0  0  0  0  0  0  0
   17.0117   71.1169   -5.5769 C   0  0  2  0  0  0  0  0  0  0  0  0
   15.3946   69.9172   -2.7744 H   0  0  0  0  0  0  0  0  0  0  0  0
   16.3630   68.1471   -4.3463 H   0  0  0  0  0  0  0  0  0  0  0  0
   15.7038   70.1461   -7.8844 O   0  0  0  0  0  0  0  0  0  0  0  0
   19.4695   70.7130  -10.4805 O   0  0  0  0  0  0  0  0  0  0  0  0
   17.6264   71.0004   -6.8691 N   0  0  0  0  0  0  0  0  0  0  0  0
   17.5798   70.4293   -9.1752 N   0  0  0  0  0  0  0  0  0  0  0  0
   16.8821   70.4998   -7.9627 C   0  0  0  0  0  0  0  0  0  0  0  0
   18.9527   71.3807   -7.0424 C   0  0  0  0  0  0  0  0  0  0  0  0
   19.6039   71.3061   -8.2050 C   0  0  0  0  0  0  0  0  0  0  0  0
   18.8983   70.7939   -9.3974 C   0  0  0  0  0  0  0  0  0  0  0  0
   17.0816   70.0832   -9.9509 H   0  0  0  0  0  0  0  0  0  0  0  0
   21.7520   72.8419   -4.1131 O   0  0  0  0  0  0  0  0  0  0  0  0
   23.1444   73.0352   -4.9111 P   0  0  2  0  0  0  0  0  0  0  0  0
   22.8846   72.2557   -6.3048 O   0  0  0  0  0  0  0  0  0  0  0  0
   24.3558   72.5684   -4.1570 O   0  0  0  0  0  0  0  0  0  0  0  0
   23.1696   74.5973   -5.3162 O   0  0  0  0  0  0  0  0  0  0  0  0
   21.3483   76.0931   -5.5657 O   0  0  0  0  0  0  0  0  0  0  0  0
   23.8349   77.5851   -8.5053 O   0  0  0  0  0  0  0  0  0  0  0  0
   23.4634   79.0690   -6.0747 O   0  0  0  0  0  0  0  0  0  0  0  0
   23.6586   74.7277   -8.0764 O   0  0  0  0  0  0  0  0  0  0  0  0
   23.5203   76.9844   -7.2461 C   0  0  1  0  0  0  0  0  0  0  0  0
   22.6505   77.9615   -6.4527 C   0  0  1  0  0  0  0  0  0  0  0  0
   22.7723   75.6752   -7.4906 C   0  0  2  0  0  0  0  0  0  0  0  0
   22.0533   77.2881   -5.2098 C   0  0  1  0  0  0  0  0  0  0  0  0
   22.1766   75.1151   -6.1977 C   0  0  1  0  0  0  0  0  0  0  0  0
   24.3104   78.4166   -8.3572 H   0  0  0  0  0  0  0  0  0  0  0  0
   23.8347   79.4850   -6.8686 H   0  0  0  0  0  0  0  0  0  0  0  0
   24.0288   75.0940   -8.8941 H   0  0  0  0  0  0  0  0  0  0  0  0
   20.9425   77.7606   -3.1478 O   0  0  0  0  0  0  0  0  0  0  0  0
   21.0580   78.1956   -4.4901 C   0  0  0  0  0  0  0  0  0  0  0  0
   20.3124   78.3293   -2.6774 H   0  0  0  0  0  0  0  0  0  0  0  0
 25 28  1  0
 25 24  1  0
 25 26  1  6
 25 27  2  0
  1  4  1  0
  1 24  1  0
  1  2  1  1
  1  3  2  0
  6 11  1  0
  6 12  1  0
 29 36  1  0
 29 37  1  0
  9  7  1  6
  7 13  1  0
 10  8  1  1
  8 14  1  0
 37 28  1  1
  4  5  1  0
 33 30  1  6
 30 38  1  0
 34 31  1  1
 31 39  1  0
 35 32  1  1
 32 40  1  0
 41 42  1  0
 41 43  1  0
 15 19  2  0
 16 22  2  0
 12 17  1  6
 17 19  1  0
 17 20  1  0
 18 19  1  0
 18 22  1  0
 18 23  1  0
  9 10  1  0
  9 11  1  0
 10 12  1  0
 11  5  1  6
 33 34  1  0
 33 35  1  0
 34 36  1  0
 35 37  1  0
 36 42  1  6
 20 21  2  0
 21 22  1  0
M  CHG  2   2  -1  26  -1
M  END
>  <COMPND>  (107) 
    8629 

>  <AUTHOR>  (107) 
    GENERATED BY OPEN BABEL 3.1.1

>  <MASTER>  (107) 
        0    0    0    0    0    0    0    0   58    0   58    0

>  <minimizedAffinity>  (107) 
-6.28197

>  <CNNscore>  (107) 
0.8309273124

>  <CNNaffinity>  (107) 
4.6290893555

>  <CNN_VS>  (107) 
3.8464367390

>  <CNNaffinity_variance>  (107) 
0.0366024897

$$$$
108
     RDKit          3D

 43 45  0  0  0  0  0  0  0  0999 V2000
   22.7535   71.5253   -2.3481 P   0  0  2  0  0  0  0  0  0  0  0  0
   22.3098   73.0800   -2.4055 O   0  0  0  0  0  0  0  0  0  0  0  0
   23.8808   71.1536   -3.2661 O   0  0  0  0  0  0  0  0  0  0  0  0
   21.3695   70.7179   -2.5722 O   0  0  0  0  0  0  0  0  0  0  0  0
   20.7334   70.8039   -3.8355 C   0  0  0  0  0  0  0  0  0  0  0  0
   18.7916   71.7771   -4.8632 O   0  0  0  0  0  0  0  0  0  0  0  0
   17.2147   70.5033   -2.6537 O   0  0  0  0  0  0  0  0  0  0  0  0
   16.7958   68.7997   -4.7415 O   0  0  0  0  0  0  0  0  0  0  0  0
   18.3668   70.0137   -3.3381 C   0  0  1  0  0  0  0  0  0  0  0  0
   17.9935   69.5495   -4.7305 C   0  0  2  0  0  0  0  0  0  0  0  0
   19.2774   71.1995   -3.6316 C   0  0  1  0  0  0  0  0  0  0  0  0
   17.8659   70.8660   -5.4779 C   0  0  2  0  0  0  0  0  0  0  0  0
   16.6182   69.7639   -2.4552 H   0  0  0  0  0  0  0  0  0  0  0  0
   16.9279   67.9719   -4.2537 H   0  0  0  0  0  0  0  0  0  0  0  0
   16.0673   69.9686   -7.4623 O   0  0  0  0  0  0  0  0  0  0  0  0
   19.2263   70.4176  -10.7881 O   0  0  0  0  0  0  0  0  0  0  0  0
   18.1918   70.7391   -6.8704 N   0  0  0  0  0  0  0  0  0  0  0  0
   17.6417   70.1931   -9.1167 N   0  0  0  0  0  0  0  0  0  0  0  0
   17.2162   70.2780   -7.7849 C   0  0  0  0  0  0  0  0  0  0  0  0
   19.4665   71.0704   -7.3168 C   0  0  0  0  0  0  0  0  0  0  0  0
   19.8567   70.9825   -8.5901 C   0  0  0  0  0  0  0  0  0  0  0  0
   18.8978   70.5094   -9.6093 C   0  0  0  0  0  0  0  0  0  0  0  0
   16.9790   69.8739   -9.7715 H   0  0  0  0  0  0  0  0  0  0  0  0
   23.0598   71.2925   -0.7781 O   0  0  0  0  0  0  0  0  0  0  0  0
   22.2104   71.6877    0.5392 P   0  0  2  0  0  0  0  0  0  0  0  0
   21.7000   70.2565    1.0948 O   0  0  0  0  0  0  0  0  0  0  0  0
   21.1135   72.6817    0.2887 O   0  0  0  0  0  0  0  0  0  0  0  0
   23.3178   72.1693    1.6101 O   0  0  0  0  0  0  0  0  0  0  0  0
   23.8053   70.8939    3.5472 O   0  0  0  0  0  0  0  0  0  0  0  0
   25.0533   74.6022    4.8672 O   0  0  0  0  0  0  0  0  0  0  0  0
   27.0043   72.5918    4.2347 O   0  0  0  0  0  0  0  0  0  0  0  0
   22.6832   74.3781    3.2205 O   0  0  0  0  0  0  0  0  0  0  0  0
   24.8437   73.5639    3.9063 C   0  0  1  0  0  0  0  0  0  0  0  0
   25.6112   72.3228    4.3661 C   0  0  1  0  0  0  0  0  0  0  0  0
   23.3485   73.2666    3.8107 C   0  0  2  0  0  0  0  0  0  0  0  0
   25.2239   71.0924    3.5348 C   0  0  1  0  0  0  0  0  0  0  0  0
   23.0757   71.9959    3.0038 C   0  0  1  0  0  0  0  0  0  0  0  0
   26.0007   74.7961    4.9324 H   0  0  0  0  0  0  0  0  0  0  0  0
   27.2357   73.3712    4.7640 H   0  0  0  0  0  0  0  0  0  0  0  0
   22.8634   75.1761    3.7406 H   0  0  0  0  0  0  0  0  0  0  0  0
   27.2179   69.7846    3.6845 O   0  0  0  0  0  0  0  0  0  0  0  0
   25.8579   69.8132    4.0769 C   0  0  0  0  0  0  0  0  0  0  0  0
   27.6344   68.9760    4.0229 H   0  0  0  0  0  0  0  0  0  0  0  0
 25 28  1  0
 25 24  1  0
 25 26  1  1
 25 27  2  0
  1  4  1  0
  1 24  1  0
  1  2  1  1
  1  3  2  0
  6 11  1  0
  6 12  1  0
 29 36  1  0
 29 37  1  0
  9  7  1  1
  7 13  1  0
 10  8  1  1
  8 14  1  0
 37 28  1  6
  4  5  1  0
 33 30  1  1
 30 38  1  0
 34 31  1  6
 31 39  1  0
 35 32  1  6
 32 40  1  0
 41 42  1  0
 41 43  1  0
 15 19  2  0
 16 22  2  0
 12 17  1  6
 17 19  1  0
 17 20  1  0
 18 19  1  0
 18 22  1  0
 18 23  1  0
  9 10  1  0
  9 11  1  0
 10 12  1  0
 11  5  1  6
 33 34  1  0
 33 35  1  0
 34 36  1  0
 35 37  1  0
 36 42  1  1
 20 21  2  0
 21 22  1  0
M  CHG  2   2  -1  26  -1
M  END
>  <COMPND>  (108) 
    8629 

>  <AUTHOR>  (108) 
    GENERATED BY OPEN BABEL 3.1.1

>  <MASTER>  (108) 
        0    0    0    0    0    0    0    0   58    0   58    0

>  <minimizedAffinity>  (108) 
-8.02225

>  <CNNscore>  (108) 
0.8271697164

>  <CNNaffinity>  (108) 
4.5968837738

>  <CNN_VS>  (108) 
3.8024029732

>  <CNNaffinity_variance>  (108) 
0.0907140821

$$$$
109
     RDKit          3D

 43 45  0  0  0  0  0  0  0  0999 V2000
   22.8527   73.2422   -4.2576 P   0  0  2  0  0  0  0  0  0  0  0  0
   22.8043   74.5999   -5.1361 O   0  0  0  0  0  0  0  0  0  0  0  0
   24.1745   72.5322   -4.2604 O   0  0  0  0  0  0  0  0  0  0  0  0
   21.5929   72.3837   -4.7997 O   0  0  0  0  0  0  0  0  0  0  0  0
   21.0874   71.3384   -3.9875 C   0  0  0  0  0  0  0  0  0  0  0  0
   18.9870   72.0512   -4.9115 O   0  0  0  0  0  0  0  0  0  0  0  0
   17.7143   70.7871   -2.5088 O   0  0  0  0  0  0  0  0  0  0  0  0
   17.3125   68.9135   -4.4491 O   0  0  0  0  0  0  0  0  0  0  0  0
   18.8550   70.3633   -3.2534 C   0  0  1  0  0  0  0  0  0  0  0  0
   18.4269   69.7723   -4.5804 C   0  0  2  0  0  0  0  0  0  0  0  0
   19.6185   71.6072   -3.6906 C   0  0  1  0  0  0  0  0  0  0  0  0
   18.1133   71.0170   -5.3931 C   0  0  2  0  0  0  0  0  0  0  0  0
   17.2109   70.0097   -2.2183 H   0  0  0  0  0  0  0  0  0  0  0  0
   17.5625   68.1370   -3.9245 H   0  0  0  0  0  0  0  0  0  0  0  0
   16.2006   69.9946   -7.2026 O   0  0  0  0  0  0  0  0  0  0  0  0
   19.1147   70.3304  -10.7574 O   0  0  0  0  0  0  0  0  0  0  0  0
   18.3453   70.8271   -6.7972 N   0  0  0  0  0  0  0  0  0  0  0  0
   17.6531   70.1628   -8.9712 N   0  0  0  0  0  0  0  0  0  0  0  0
   17.3185   70.3061   -7.6186 C   0  0  0  0  0  0  0  0  0  0  0  0
   19.5797   71.1564   -7.3464 C   0  0  0  0  0  0  0  0  0  0  0  0
   19.8834   71.0125   -8.6381 C   0  0  0  0  0  0  0  0  0  0  0  0
   18.8662   70.4746   -9.5644 C   0  0  0  0  0  0  0  0  0  0  0  0
   16.9534   69.8013   -9.5624 H   0  0  0  0  0  0  0  0  0  0  0  0
   22.3566   73.7346   -2.8000 O   0  0  0  0  0  0  0  0  0  0  0  0
   23.0466   74.7207   -1.7210 P   0  0  2  0  0  0  0  0  0  0  0  0
   22.2684   76.1210   -1.9473 O   0  0  0  0  0  0  0  0  0  0  0  0
   24.5401   74.8158   -1.8412 O   0  0  0  0  0  0  0  0  0  0  0  0
   22.5232   74.1902   -0.2894 O   0  0  0  0  0  0  0  0  0  0  0  0
   23.4029   73.7956    1.8755 O   0  0  0  0  0  0  0  0  0  0  0  0
   21.5270   70.1698    1.2546 O   0  0  0  0  0  0  0  0  0  0  0  0
   20.4015   72.0488    3.1122 O   0  0  0  0  0  0  0  0  0  0  0  0
   22.8901   71.4840   -0.9350 O   0  0  0  0  0  0  0  0  0  0  0  0
   21.6905   71.5868    1.1511 C   0  0  1  0  0  0  0  0  0  0  0  0
   21.7113   72.1717    2.5647 C   0  0  1  0  0  0  0  0  0  0  0  0
   23.0012   71.8864    0.4260 C   0  0  2  0  0  0  0  0  0  0  0  0
   22.1481   73.6428    2.5491 C   0  0  1  0  0  0  0  0  0  0  0  0
   23.3683   73.3689    0.5122 C   0  0  1  0  0  0  0  0  0  0  0  0
   20.6964   69.9728    1.7137 H   0  0  0  0  0  0  0  0  0  0  0  0
   20.1376   71.1153    3.1158 H   0  0  0  0  0  0  0  0  0  0  0  0
   22.6577   70.5437   -0.9761 H   0  0  0  0  0  0  0  0  0  0  0  0
   21.0493   74.4873    4.4955 O   0  0  0  0  0  0  0  0  0  0  0  0
   22.3279   74.2009    3.9592 C   0  0  0  0  0  0  0  0  0  0  0  0
   21.1481   74.8431    5.3930 H   0  0  0  0  0  0  0  0  0  0  0  0
 25 28  1  0
 25 24  1  0
 25 26  1  6
 25 27  2  0
  1  4  1  0
  1 24  1  0
  1  2  1  6
  1  3  2  0
  6 11  1  0
  6 12  1  0
 29 36  1  0
 29 37  1  0
  9  7  1  1
  7 13  1  0
 10  8  1  1
  8 14  1  0
 37 28  1  6
  4  5  1  0
 33 30  1  1
 30 38  1  0
 34 31  1  6
 31 39  1  0
 35 32  1  6
 32 40  1  0
 41 42  1  0
 41 43  1  0
 15 19  2  0
 16 22  2  0
 12 17  1  6
 17 19  1  0
 17 20  1  0
 18 19  1  0
 18 22  1  0
 18 23  1  0
  9 10  1  0
  9 11  1  0
 10 12  1  0
 11  5  1  6
 33 34  1  0
 33 35  1  0
 34 36  1  0
 35 37  1  0
 36 42  1  1
 20 21  2  0
 21 22  1  0
M  CHG  2   2  -1  26  -1
M  END
>  <COMPND>  (109) 
    8629 

>  <AUTHOR>  (109) 
    GENERATED BY OPEN BABEL 3.1.1

>  <MASTER>  (109) 
        0    0    0    0    0    0    0    0   58    0   58    0

>  <minimizedAffinity>  (109) 
-7.44686

>  <CNNscore>  (109) 
0.8125538230

>  <CNNaffinity>  (109) 
4.5868020058

>  <CNN_VS>  (109) 
3.7270236015

>  <CNNaffinity_variance>  (109) 
0.0375234969

$$$$
110
     RDKit          3D

 43 45  0  0  0  0  0  0  0  0999 V2000
   21.4013   72.3822   -4.6858 P   0  0  2  0  0  0  0  0  0  0  0  0
   20.7124   73.8436   -4.6013 O   0  0  0  0  0  0  0  0  0  0  0  0
   22.4678   72.2438   -5.7322 O   0  0  0  0  0  0  0  0  0  0  0  0
   20.1473   71.3689   -4.8223 O   0  0  0  0  0  0  0  0  0  0  0  0
   19.5394   70.8822   -3.6385 C   0  0  0  0  0  0  0  0  0  0  0  0
   17.7542   71.7917   -4.9651 O   0  0  0  0  0  0  0  0  0  0  0  0
   15.8962   70.2667   -3.1727 O   0  0  0  0  0  0  0  0  0  0  0  0
   16.0114   68.6864   -5.3921 O   0  0  0  0  0  0  0  0  0  0  0  0
   17.1910   69.9033   -3.6489 C   0  0  1  0  0  0  0  0  0  0  0  0
   17.1230   69.5120   -5.1103 C   0  0  2  0  0  0  0  0  0  0  0  0
   18.0444   71.1646   -3.6967 C   0  0  1  0  0  0  0  0  0  0  0  0
   17.0348   70.8653   -5.7951 C   0  0  2  0  0  0  0  0  0  0  0  0
   15.3331   69.4772   -3.1332 H   0  0  0  0  0  0  0  0  0  0  0  0
   16.1144   67.8377   -4.9341 H   0  0  0  0  0  0  0  0  0  0  0  0
   16.4987   72.7808   -7.8005 O   0  0  0  0  0  0  0  0  0  0  0  0
   19.3555   70.7303  -10.7797 O   0  0  0  0  0  0  0  0  0  0  0  0
   17.6249   70.8563   -7.1040 N   0  0  0  0  0  0  0  0  0  0  0  0
   17.9217   71.7583   -9.2822 N   0  0  0  0  0  0  0  0  0  0  0  0
   17.2877   71.8638   -8.0376 C   0  0  0  0  0  0  0  0  0  0  0  0
   18.5274   69.8566   -7.4504 C   0  0  0  0  0  0  0  0  0  0  0  0
   19.1223   69.7695   -8.6419 C   0  0  0  0  0  0  0  0  0  0  0  0
   18.8247   70.7830   -9.6745 C   0  0  0  0  0  0  0  0  0  0  0  0
   17.7018   72.4491   -9.9488 H   0  0  0  0  0  0  0  0  0  0  0  0
   21.9081   72.1311   -3.1714 O   0  0  0  0  0  0  0  0  0  0  0  0
   23.3919   72.1560   -2.5307 P   0  0  2  0  0  0  0  0  0  0  0  0
   23.9653   73.6010   -2.9787 O   0  0  0  0  0  0  0  0  0  0  0  0
   24.2553   70.9954   -2.9327 O   0  0  0  0  0  0  0  0  0  0  0  0
   23.1481   72.2892   -0.9408 O   0  0  0  0  0  0  0  0  0  0  0  0
   24.1344   70.9205    0.7237 O   0  0  0  0  0  0  0  0  0  0  0  0
   20.6032   71.8583    2.6477 O   0  0  0  0  0  0  0  0  0  0  0  0
   23.0623   73.0430    3.5405 O   0  0  0  0  0  0  0  0  0  0  0  0
   20.6054   71.3586   -0.2036 O   0  0  0  0  0  0  0  0  0  0  0  0
   21.7264   72.0987    1.7957 C   0  0  1  0  0  0  0  0  0  0  0  0
   23.0009   71.9497    2.6288 C   0  0  1  0  0  0  0  0  0  0  0  0
   21.7106   71.0868    0.6515 C   0  0  2  0  0  0  0  0  0  0  0  0
   24.2480   71.9289    1.7347 C   0  0  1  0  0  0  0  0  0  0  0  0
   23.0164   71.1143   -0.1449 C   0  0  1  0  0  0  0  0  0  0  0  0
   20.6070   72.4978    3.3761 H   0  0  0  0  0  0  0  0  0  0  0  0
   22.2689   73.0450    4.0988 H   0  0  0  0  0  0  0  0  0  0  0  0
   19.7849   71.3380    0.3123 H   0  0  0  0  0  0  0  0  0  0  0  0
   26.3562   70.8045    1.7365 O   0  0  0  0  0  0  0  0  0  0  0  0
   25.5161   71.6235    2.5288 C   0  0  0  0  0  0  0  0  0  0  0  0
   27.1675   70.6022    2.2291 H   0  0  0  0  0  0  0  0  0  0  0  0
 25 28  1  0
 25 24  1  0
 25 26  1  6
 25 27  2  0
  1  4  1  0
  1 24  1  0
  1  2  1  1
  1  3  2  0
  6 11  1  0
  6 12  1  0
 29 36  1  0
 29 37  1  0
  9  7  1  6
  7 13  1  0
 10  8  1  1
  8 14  1  0
 37 28  1  1
  4  5  1  0
 33 30  1  1
 30 38  1  0
 34 31  1  1
 31 39  1  0
 35 32  1  6
 32 40  1  0
 41 42  1  0
 41 43  1  0
 15 19  2  0
 16 22  2  0
 12 17  1  6
 17 19  1  0
 17 20  1  0
 18 19  1  0
 18 22  1  0
 18 23  1  0
  9 10  1  0
  9 11  1  0
 10 12  1  0
 11  5  1  6
 33 34  1  0
 33 35  1  0
 34 36  1  0
 35 37  1  0
 36 42  1  1
 20 21  2  0
 21 22  1  0
M  CHG  2   2  -1  26  -1
M  END
>  <COMPND>  (110) 
    8629 

>  <AUTHOR>  (110) 
    GENERATED BY OPEN BABEL 3.1.1

>  <MASTER>  (110) 
        0    0    0    0    0    0    0    0   58    0   58    0

>  <minimizedAffinity>  (110) 
-7.76388

>  <CNNscore>  (110) 
0.8019399643

>  <CNNaffinity>  (110) 
4.6088571548

>  <CNN_VS>  (110) 
3.6960268021

>  <CNNaffinity_variance>  (110) 
0.0723814517

$$$$
111
     RDKit          3D

 43 45  0  0  0  0  0  0  0  0999 V2000
   22.7725   71.7474   -2.7223 P   0  0  2  0  0  0  0  0  0  0  0  0
   22.0079   70.8594   -1.6069 O   0  0  0  0  0  0  0  0  0  0  0  0
   24.0760   71.1787   -3.2007 O   0  0  0  0  0  0  0  0  0  0  0  0
   22.8501   73.2212   -2.0591 O   0  0  0  0  0  0  0  0  0  0  0  0
   22.1574   73.4536   -0.8450 C   0  0  0  0  0  0  0  0  0  0  0  0
   22.2411   74.8952    1.0756 O   0  0  0  0  0  0  0  0  0  0  0  0
   24.0379   76.6551   -0.5569 O   0  0  0  0  0  0  0  0  0  0  0  0
   25.8015   75.3250    1.0421 O   0  0  0  0  0  0  0  0  0  0  0  0
   23.9502   75.2313   -0.5311 C   0  0  1  0  0  0  0  0  0  0  0  0
   24.5775   74.6888    0.7361 C   0  0  2  0  0  0  0  0  0  0  0  0
   22.4854   74.8547   -0.3475 C   0  0  1  0  0  0  0  0  0  0  0  0
   23.4982   74.9706    1.7675 C   0  0  2  0  0  0  0  0  0  0  0  0
   24.9643   76.9197   -0.6737 H   0  0  0  0  0  0  0  0  0  0  0  0
   26.4553   75.1152    0.3570 H   0  0  0  0  0  0  0  0  0  0  0  0
   25.1082   75.1644    4.0802 O   0  0  0  0  0  0  0  0  0  0  0  0
   23.4219   71.2377    5.8060 O   0  0  0  0  0  0  0  0  0  0  0  0
   23.4997   74.0131    2.8374 N   0  0  0  0  0  0  0  0  0  0  0  0
   24.2671   73.2092    4.9377 N   0  0  0  0  0  0  0  0  0  0  0  0
   24.3469   74.2031    3.9540 C   0  0  0  0  0  0  0  0  0  0  0  0
   22.6675   72.9008    2.7732 C   0  0  0  0  0  0  0  0  0  0  0  0
   22.6042   71.9614    3.7191 C   0  0  0  0  0  0  0  0  0  0  0  0
   23.4570   72.0848    4.9189 C   0  0  0  0  0  0  0  0  0  0  0  0
   24.8485   73.3203    5.7247 H   0  0  0  0  0  0  0  0  0  0  0  0
   21.6531   71.9260   -3.8747 O   0  0  0  0  0  0  0  0  0  0  0  0
   21.6341   72.8477   -5.2025 P   0  0  2  0  0  0  0  0  0  0  0  0
   22.8708   72.2713   -6.0719 O   0  0  0  0  0  0  0  0  0  0  0  0
   21.7035   74.3223   -4.9290 O   0  0  0  0  0  0  0  0  0  0  0  0
   20.3162   72.3779   -6.0071 O   0  0  0  0  0  0  0  0  0  0  0  0
   19.1539   70.3127   -5.9838 O   0  0  0  0  0  0  0  0  0  0  0  0
   18.7495   71.2524   -9.9844 O   0  0  0  0  0  0  0  0  0  0  0  0
   16.4720   71.4449   -8.2453 O   0  0  0  0  0  0  0  0  0  0  0  0
   21.2266   71.8396   -8.6064 O   0  0  0  0  0  0  0  0  0  0  0  0
   18.8384   71.5278   -8.5838 C   0  0  1  0  0  0  0  0  0  0  0  0
   17.6902   70.8030   -7.8787 C   0  0  1  0  0  0  0  0  0  0  0  0
   20.1866   71.0340   -8.0625 C   0  0  2  0  0  0  0  0  0  0  0  0
   17.8708   70.8299   -6.3550 C   0  0  1  0  0  0  0  0  0  0  0  0
   20.2435   71.0556   -6.5340 C   0  0  1  0  0  0  0  0  0  0  0  0
   17.8959   71.5639  -10.3217 H   0  0  0  0  0  0  0  0  0  0  0  0
   16.3704   71.4215   -9.2098 H   0  0  0  0  0  0  0  0  0  0  0  0
   21.1799   71.8173   -9.5745 H   0  0  0  0  0  0  0  0  0  0  0  0
   16.0253   69.3348   -6.6156 O   0  0  0  0  0  0  0  0  0  0  0  0
   16.8232   69.9794   -5.6398 C   0  0  0  0  0  0  0  0  0  0  0  0
   15.3542   68.7897   -6.1749 H   0  0  0  0  0  0  0  0  0  0  0  0
 25 28  1  0
 25 24  1  0
 25 26  1  6
 25 27  2  0
  1  4  1  0
  1 24  1  0
  1  2  1  1
  1  3  2  0
  6 11  1  0
  6 12  1  0
 29 36  1  0
 29 37  1  0
  9  7  1  1
  7 13  1  0
 10  8  1  1
  8 14  1  0
 37 28  1  1
  4  5  1  0
 33 30  1  6
 30 38  1  0
 34 31  1  1
 31 39  1  0
 35 32  1  6
 32 40  1  0
 41 42  1  0
 41 43  1  0
 15 19  2  0
 16 22  2  0
 12 17  1  1
 17 19  1  0
 17 20  1  0
 18 19  1  0
 18 22  1  0
 18 23  1  0
  9 10  1  0
  9 11  1  0
 10 12  1  0
 11  5  1  1
 33 34  1  0
 33 35  1  0
 34 36  1  0
 35 37  1  0
 36 42  1  1
 20 21  2  0
 21 22  1  0
M  CHG  2   2  -1  26  -1
M  END
>  <COMPND>  (111) 
    8629 

>  <AUTHOR>  (111) 
    GENERATED BY OPEN BABEL 3.1.1

>  <MASTER>  (111) 
        0    0    0    0    0    0    0    0   58    0   58    0

>  <minimizedAffinity>  (111) 
-7.03724

>  <CNNscore>  (111) 
0.7356232405

>  <CNNaffinity>  (111) 
4.3050723076

>  <CNN_VS>  (111) 
3.1669111252

>  <CNNaffinity_variance>  (111) 
0.0741137192

$$$$
112
     RDKit          3D

 43 45  0  0  0  0  0  0  0  0999 V2000
   23.3205   71.9088   -3.0398 P   0  0  2  0  0  0  0  0  0  0  0  0
   23.5817   73.2879   -2.2353 O   0  0  0  0  0  0  0  0  0  0  0  0
   24.4067   70.8822   -2.9071 O   0  0  0  0  0  0  0  0  0  0  0  0
   22.9936   72.3949   -4.5480 O   0  0  0  0  0  0  0  0  0  0  0  0
   21.6385   72.4698   -4.9555 C   0  0  0  0  0  0  0  0  0  0  0  0
   20.6787   70.5136   -5.9683 O   0  0  0  0  0  0  0  0  0  0  0  0
   21.0532   71.9170   -8.5915 O   0  0  0  0  0  0  0  0  0  0  0  0
   18.3995   72.2940   -8.0893 O   0  0  0  0  0  0  0  0  0  0  0  0
   20.7000   72.4598   -7.3203 C   0  0  1  0  0  0  0  0  0  0  0  0
   19.2629   72.1199   -6.9844 C   0  0  2  0  0  0  0  0  0  0  0  0
   21.4669   71.6903   -6.2521 C   0  0  1  0  0  0  0  0  0  0  0  0
   19.3752   70.6674   -6.5533 C   0  0  2  0  0  0  0  0  0  0  0  0
   20.5760   72.3928   -9.2899 H   0  0  0  0  0  0  0  0  0  0  0  0
   18.3616   73.2340   -8.3253 H   0  0  0  0  0  0  0  0  0  0  0  0
   16.7684   69.7838   -7.1871 O   0  0  0  0  0  0  0  0  0  0  0  0
   15.6500   69.3111   -2.7411 O   0  0  0  0  0  0  0  0  0  0  0  0
   18.3823   70.3064   -5.5811 N   0  0  0  0  0  0  0  0  0  0  0  0
   16.2137   69.5490   -4.9729 N   0  0  0  0  0  0  0  0  0  0  0  0
   17.1031   69.8761   -6.0043 C   0  0  0  0  0  0  0  0  0  0  0  0
   18.6812   70.3804   -4.2250 C   0  0  0  0  0  0  0  0  0  0  0  0
   17.8213   70.0661   -3.2538 C   0  0  0  0  0  0  0  0  0  0  0  0
   16.4634   69.6074   -3.6109 C   0  0  0  0  0  0  0  0  0  0  0  0
   15.3164   69.2470   -5.2439 H   0  0  0  0  0  0  0  0  0  0  0  0
   21.8762   71.4351   -2.4897 O   0  0  0  0  0  0  0  0  0  0  0  0
   21.0371   71.8870   -1.1841 P   0  0  2  0  0  0  0  0  0  0  0  0
   20.0931   70.6068   -0.8883 O   0  0  0  0  0  0  0  0  0  0  0  0
   20.2929   73.1805   -1.3482 O   0  0  0  0  0  0  0  0  0  0  0  0
   22.1161   71.8838    0.0162 O   0  0  0  0  0  0  0  0  0  0  0  0
   22.9268   70.5787    1.8207 O   0  0  0  0  0  0  0  0  0  0  0  0
   21.6381   73.8884    3.9269 O   0  0  0  0  0  0  0  0  0  0  0  0
   24.4532   73.4257    3.5965 O   0  0  0  0  0  0  0  0  0  0  0  0
   20.1023   72.9250    1.6701 O   0  0  0  0  0  0  0  0  0  0  0  0
   22.2051   73.1918    2.8139 C   0  0  1  0  0  0  0  0  0  0  0  0
   23.4553   72.4538    3.2966 C   0  0  1  0  0  0  0  0  0  0  0  0
   21.1761   72.2049    2.2659 C   0  0  2  0  0  0  0  0  0  0  0  0
   23.9664   71.4744    2.2313 C   0  0  1  0  0  0  0  0  0  0  0  0
   21.7989   71.2453    1.2503 C   0  0  1  0  0  0  0  0  0  0  0  0
   22.2862   74.5170    4.2792 H   0  0  0  0  0  0  0  0  0  0  0  0
   24.1177   74.0381    4.2700 H   0  0  0  0  0  0  0  0  0  0  0  0
   19.7163   73.5287    2.3232 H   0  0  0  0  0  0  0  0  0  0  0  0
   25.0118   70.5254    4.1588 O   0  0  0  0  0  0  0  0  0  0  0  0
   25.1170   70.6146    2.7498 C   0  0  0  0  0  0  0  0  0  0  0  0
   25.7376   69.9807    4.5028 H   0  0  0  0  0  0  0  0  0  0  0  0
 25 28  1  0
 25 24  1  0
 25 26  1  1
 25 27  2  0
  1  4  1  0
  1 24  1  0
  1  2  1  1
  1  3  2  0
  6 11  1  0
  6 12  1  0
 29 36  1  0
 29 37  1  0
  9  7  1  6
  7 13  1  0
 10  8  1  6
  8 14  1  0
 37 28  1  6
  4  5  1  0
 33 30  1  1
 30 38  1  0
 34 31  1  6
 31 39  1  0
 35 32  1  6
 32 40  1  0
 41 42  1  0
 41 43  1  0
 15 19  2  0
 16 22  2  0
 12 17  1  1
 17 19  1  0
 17 20  1  0
 18 19  1  0
 18 22  1  0
 18 23  1  0
  9 10  1  0
  9 11  1  0
 10 12  1  0
 11  5  1  1
 33 34  1  0
 33 35  1  0
 34 36  1  0
 35 37  1  0
 36 42  1  1
 20 21  2  0
 21 22  1  0
M  CHG  2   2  -1  26  -1
M  END
>  <COMPND>  (112) 
    8629 

>  <AUTHOR>  (112) 
    GENERATED BY OPEN BABEL 3.1.1

>  <MASTER>  (112) 
        0    0    0    0    0    0    0    0   58    0   58    0

>  <minimizedAffinity>  (112) 
-7.52008

>  <CNNscore>  (112) 
0.7249174714

>  <CNNaffinity>  (112) 
4.4057874680

>  <CNN_VS>  (112) 
3.1938323975

>  <CNNaffinity_variance>  (112) 
0.2001684159

$$$$
113
     RDKit          3D

 43 45  0  0  0  0  0  0  0  0999 V2000
   21.7817   72.5516   -1.4333 P   0  0  2  0  0  0  0  0  0  0  0  0
   21.3322   74.0382   -1.8866 O   0  0  0  0  0  0  0  0  0  0  0  0
   23.2619   72.3061   -1.4445 O   0  0  0  0  0  0  0  0  0  0  0  0
   20.9003   71.5752   -2.3754 O   0  0  0  0  0  0  0  0  0  0  0  0
   20.4814   72.0544   -3.6414 C   0  0  0  0  0  0  0  0  0  0  0  0
   20.7918   70.6580   -5.5721 O   0  0  0  0  0  0  0  0  0  0  0  0
   23.2227   72.3160   -6.1485 O   0  0  0  0  0  0  0  0  0  0  0  0
   21.3761   73.3508   -7.8677 O   0  0  0  0  0  0  0  0  0  0  0  0
   21.9687   72.7147   -5.5972 C   0  0  1  0  0  0  0  0  0  0  0  0
   20.9075   72.7514   -6.6770 C   0  0  2  0  0  0  0  0  0  0  0  0
   21.4710   71.5880   -4.7003 C   0  0  1  0  0  0  0  0  0  0  0  0
   20.5851   71.2771   -6.8522 C   0  0  2  0  0  0  0  0  0  0  0  0
   23.5607   73.0200   -6.7248 H   0  0  0  0  0  0  0  0  0  0  0  0
   21.5672   74.2877   -7.7048 H   0  0  0  0  0  0  0  0  0  0  0  0
   19.8209   69.7085   -9.0733 O   0  0  0  0  0  0  0  0  0  0  0  0
   15.3435   70.5099   -8.3309 O   0  0  0  0  0  0  0  0  0  0  0  0
   19.2265   71.0585   -7.2620 N   0  0  0  0  0  0  0  0  0  0  0  0
   17.5921   70.1086   -8.7017 N   0  0  0  0  0  0  0  0  0  0  0  0
   18.9505   70.2547   -8.3925 C   0  0  0  0  0  0  0  0  0  0  0  0
   18.1848   71.6378   -6.5455 C   0  0  0  0  0  0  0  0  0  0  0  0
   16.8949   71.4898   -6.8542 C   0  0  0  0  0  0  0  0  0  0  0  0
   16.5207   70.6651   -8.0212 C   0  0  0  0  0  0  0  0  0  0  0  0
   17.3758   69.5532   -9.4856 H   0  0  0  0  0  0  0  0  0  0  0  0
   21.0833   72.3866    0.0151 O   0  0  0  0  0  0  0  0  0  0  0  0
   21.5413   72.8974    1.4788 P   0  0  2  0  0  0  0  0  0  0  0  0
   20.3950   72.3040    2.4543 O   0  0  0  0  0  0  0  0  0  0  0  0
   21.7325   74.3830    1.5801 O   0  0  0  0  0  0  0  0  0  0  0  0
   22.8577   72.0286    1.8212 O   0  0  0  0  0  0  0  0  0  0  0  0
   23.5926   73.4057    3.6046 O   0  0  0  0  0  0  0  0  0  0  0  0
   25.8306   70.0307    4.4117 O   0  0  0  0  0  0  0  0  0  0  0  0
   23.6047   70.6935    6.1011 O   0  0  0  0  0  0  0  0  0  0  0  0
   25.4043   70.8592    1.6710 O   0  0  0  0  0  0  0  0  0  0  0  0
   24.6814   70.7563    3.9663 C   0  0  1  0  0  0  0  0  0  0  0  0
   24.1554   71.5876    5.1380 C   0  0  1  0  0  0  0  0  0  0  0  0
   25.0825   71.6608    2.8025 C   0  0  2  0  0  0  0  0  0  0  0  0
   23.0925   72.5916    4.6718 C   0  0  1  0  0  0  0  0  0  0  0  0
   23.9732   72.6537    2.4506 C   0  0  1  0  0  0  0  0  0  0  0  0
   25.5826   69.4540    5.1503 H   0  0  0  0  0  0  0  0  0  0  0  0
   24.2859   70.0646    6.3869 H   0  0  0  0  0  0  0  0  0  0  0  0
   26.1078   70.2351    1.9066 H   0  0  0  0  0  0  0  0  0  0  0  0
   23.5802   73.3987    6.8672 O   0  0  0  0  0  0  0  0  0  0  0  0
   22.6683   73.5375    5.7932 C   0  0  0  0  0  0  0  0  0  0  0  0
   23.3229   73.9950    7.5882 H   0  0  0  0  0  0  0  0  0  0  0  0
 25 28  1  0
 25 24  1  0
 25 26  1  1
 25 27  2  0
  1  4  1  0
  1 24  1  0
  1  2  1  6
  1  3  2  0
  6 11  1  0
  6 12  1  0
 29 36  1  0
 29 37  1  0
  9  7  1  6
  7 13  1  0
 10  8  1  6
  8 14  1  0
 37 28  1  1
  4  5  1  0
 33 30  1  1
 30 38  1  0
 34 31  1  1
 31 39  1  0
 35 32  1  6
 32 40  1  0
 41 42  1  0
 41 43  1  0
 15 19  2  0
 16 22  2  0
 12 17  1  1
 17 19  1  0
 17 20  1  0
 18 19  1  0
 18 22  1  0
 18 23  1  0
  9 10  1  0
  9 11  1  0
 10 12  1  0
 11  5  1  1
 33 34  1  0
 33 35  1  0
 34 36  1  0
 35 37  1  0
 36 42  1  1
 20 21  2  0
 21 22  1  0
M  CHG  2   2  -1  26  -1
M  END
>  <COMPND>  (113) 
    8629 

>  <AUTHOR>  (113) 
    GENERATED BY OPEN BABEL 3.1.1

>  <MASTER>  (113) 
        0    0    0    0    0    0    0    0   58    0   58    0

>  <minimizedAffinity>  (113) 
-7.05659

>  <CNNscore>  (113) 
0.6917729378

>  <CNNaffinity>  (113) 
4.2086868286

>  <CNN_VS>  (113) 
2.9114556313

>  <CNNaffinity_variance>  (113) 
0.1412229687

$$$$
114
     RDKit          3D

 43 45  0  0  0  0  0  0  0  0999 V2000
   21.4630   72.6107   -1.3265 P   0  0  2  0  0  0  0  0  0  0  0  0
   21.7686   74.1979   -1.3972 O   0  0  0  0  0  0  0  0  0  0  0  0
   22.6607   71.7259   -1.5111 O   0  0  0  0  0  0  0  0  0  0  0  0
   20.2622   72.3987   -2.3900 O   0  0  0  0  0  0  0  0  0  0  0  0
   20.3791   72.9957   -3.6697 C   0  0  0  0  0  0  0  0  0  0  0  0
   20.7578   71.1435   -5.1529 O   0  0  0  0  0  0  0  0  0  0  0  0
   23.3306   72.4981   -5.8855 O   0  0  0  0  0  0  0  0  0  0  0  0
   21.7044   73.1392   -7.9786 O   0  0  0  0  0  0  0  0  0  0  0  0
   22.0636   73.0755   -5.5748 C   0  0  1  0  0  0  0  0  0  0  0  0
   21.1005   72.8815   -6.7273 C   0  0  2  0  0  0  0  0  0  0  0  0
   21.4211   72.2351   -4.4784 C   0  0  1  0  0  0  0  0  0  0  0  0
   20.6988   71.4258   -6.5607 C   0  0  2  0  0  0  0  0  0  0  0  0
   23.7603   73.0180   -6.5834 H   0  0  0  0  0  0  0  0  0  0  0  0
   21.9416   74.0779   -8.0361 H   0  0  0  0  0  0  0  0  0  0  0  0
   20.0592   69.5790   -8.5997 O   0  0  0  0  0  0  0  0  0  0  0  0
   15.5577   70.5182   -8.2910 O   0  0  0  0  0  0  0  0  0  0  0  0
   19.3677   71.1675   -7.0327 N   0  0  0  0  0  0  0  0  0  0  0  0
   17.8183   70.0480   -8.4442 N   0  0  0  0  0  0  0  0  0  0  0  0
   19.1547   70.2210   -8.0619 C   0  0  0  0  0  0  0  0  0  0  0  0
   18.2907   71.8487   -6.4761 C   0  0  0  0  0  0  0  0  0  0  0  0
   17.0224   71.6732   -6.8529 C   0  0  0  0  0  0  0  0  0  0  0  0
   16.7136   70.7021   -7.9223 C   0  0  0  0  0  0  0  0  0  0  0  0
   17.6458   69.3939   -9.1599 H   0  0  0  0  0  0  0  0  0  0  0  0
   20.7189   72.4469    0.0991 O   0  0  0  0  0  0  0  0  0  0  0  0
   21.2465   71.8627    1.5109 P   0  0  2  0  0  0  0  0  0  0  0  0
   21.5119   70.2994    1.1897 O   0  0  0  0  0  0  0  0  0  0  0  0
   20.3175   72.1087    2.6644 O   0  0  0  0  0  0  0  0  0  0  0  0
   22.7193   72.4976    1.6911 O   0  0  0  0  0  0  0  0  0  0  0  0
   23.2617   72.9676    3.9497 O   0  0  0  0  0  0  0  0  0  0  0  0
   26.3606   74.9708    2.0965 O   0  0  0  0  0  0  0  0  0  0  0  0
   26.8919   72.5182    3.4931 O   0  0  0  0  0  0  0  0  0  0  0  0
   23.7129   75.0084    0.9269 O   0  0  0  0  0  0  0  0  0  0  0  0
   25.3996   73.9246    2.2618 C   0  0  1  0  0  0  0  0  0  0  0  0
   25.6659   73.2362    3.6019 C   0  0  1  0  0  0  0  0  0  0  0  0
   23.9963   74.5273    2.2364 C   0  0  2  0  0  0  0  0  0  0  0  0
   24.5206   72.2847    3.9732 C   0  0  1  0  0  0  0  0  0  0  0  0
   22.9374   73.5115    2.6687 C   0  0  1  0  0  0  0  0  0  0  0  0
   27.2539   74.5948    2.1112 H   0  0  0  0  0  0  0  0  0  0  0  0
   27.6068   73.1304    3.2578 H   0  0  0  0  0  0  0  0  0  0  0  0
   24.3901   75.6508    0.6651 H   0  0  0  0  0  0  0  0  0  0  0  0
   23.4413   71.1912    5.8030 O   0  0  0  0  0  0  0  0  0  0  0  0
   24.6888   71.7074    5.3769 C   0  0  0  0  0  0  0  0  0  0  0  0
   23.5333   70.8201    6.6950 H   0  0  0  0  0  0  0  0  0  0  0  0
 25 28  1  0
 25 24  1  0
 25 26  1  6
 25 27  2  0
  1  4  1  0
  1 24  1  0
  1  2  1  1
  1  3  2  0
  6 11  1  0
  6 12  1  0
 29 36  1  0
 29 37  1  0
  9  7  1  6
  7 13  1  0
 10  8  1  6
  8 14  1  0
 37 28  1  6
  4  5  1  0
 33 30  1  1
 30 38  1  0
 34 31  1  6
 31 39  1  0
 35 32  1  6
 32 40  1  0
 41 42  1  0
 41 43  1  0
 15 19  2  0
 16 22  2  0
 12 17  1  1
 17 19  1  0
 17 20  1  0
 18 19  1  0
 18 22  1  0
 18 23  1  0
  9 10  1  0
  9 11  1  0
 10 12  1  0
 11  5  1  6
 33 34  1  0
 33 35  1  0
 34 36  1  0
 35 37  1  0
 36 42  1  1
 20 21  2  0
 21 22  1  0
M  CHG  2   2  -1  26  -1
M  END
>  <COMPND>  (114) 
    8629 

>  <AUTHOR>  (114) 
    GENERATED BY OPEN BABEL 3.1.1

>  <MASTER>  (114) 
        0    0    0    0    0    0    0    0   58    0   58    0

>  <minimizedAffinity>  (114) 
-7.11324

>  <CNNscore>  (114) 
0.6095910668

>  <CNNaffinity>  (114) 
4.1918540001

>  <CNN_VS>  (114) 
2.5553166866

>  <CNNaffinity_variance>  (114) 
0.1087998971

$$$$
115
     RDKit          3D

 43 45  0  0  0  0  0  0  0  0999 V2000
   21.5584   74.2908   -1.9191 P   0  0  2  0  0  0  0  0  0  0  0  0
   20.3799   73.3842   -1.2816 O   0  0  0  0  0  0  0  0  0  0  0  0
   21.9415   75.4939   -1.1084 O   0  0  0  0  0  0  0  0  0  0  0  0
   21.0460   74.5918   -3.4241 O   0  0  0  0  0  0  0  0  0  0  0  0
   20.3431   73.5739   -4.1152 C   0  0  0  0  0  0  0  0  0  0  0  0
   20.6201   71.4061   -5.1141 O   0  0  0  0  0  0  0  0  0  0  0  0
   23.2961   72.3851   -6.0478 O   0  0  0  0  0  0  0  0  0  0  0  0
   21.7613   72.6217   -8.2895 O   0  0  0  0  0  0  0  0  0  0  0  0
   22.0669   73.0988   -5.9251 C   0  0  1  0  0  0  0  0  0  0  0  0
   21.1158   72.7026   -7.0351 C   0  0  2  0  0  0  0  0  0  0  0  0
   21.3449   72.5805   -4.6876 C   0  0  1  0  0  0  0  0  0  0  0  0
   20.6094   71.3548   -6.5501 C   0  0  2  0  0  0  0  0  0  0  0  0
   23.7752   72.6991   -6.8313 H   0  0  0  0  0  0  0  0  0  0  0  0
   22.0651   73.5039   -8.5545 H   0  0  0  0  0  0  0  0  0  0  0  0
   19.9768   69.8828   -8.8762 O   0  0  0  0  0  0  0  0  0  0  0  0
   15.4478   70.3590   -8.1672 O   0  0  0  0  0  0  0  0  0  0  0  0
   19.2732   71.0787   -6.9969 N   0  0  0  0  0  0  0  0  0  0  0  0
   17.7222   70.1209   -8.5212 N   0  0  0  0  0  0  0  0  0  0  0  0
   19.0642   70.3311   -8.1792 C   0  0  0  0  0  0  0  0  0  0  0  0
   18.1872   71.5471   -6.2654 C   0  0  0  0  0  0  0  0  0  0  0  0
   16.9136   71.3392   -6.6057 C   0  0  0  0  0  0  0  0  0  0  0  0
   16.6084   70.5670   -7.8275 C   0  0  0  0  0  0  0  0  0  0  0  0
   17.5523   69.6029   -9.3413 H   0  0  0  0  0  0  0  0  0  0  0  0
   22.7527   73.2259   -2.1481 O   0  0  0  0  0  0  0  0  0  0  0  0
   22.9216   71.6971   -1.6509 P   0  0  2  0  0  0  0  0  0  0  0  0
   24.1882   71.1665   -2.5062 O   0  0  0  0  0  0  0  0  0  0  0  0
   21.6824   70.8621   -1.7966 O   0  0  0  0  0  0  0  0  0  0  0  0
   23.4727   71.8179   -0.1387 O   0  0  0  0  0  0  0  0  0  0  0  0
   24.3659   70.3931    1.5312 O   0  0  0  0  0  0  0  0  0  0  0  0
   21.4741   72.3059    3.7738 O   0  0  0  0  0  0  0  0  0  0  0  0
   24.2440   72.9339    4.1992 O   0  0  0  0  0  0  0  0  0  0  0  0
   20.9284   71.5890    1.0228 O   0  0  0  0  0  0  0  0  0  0  0  0
   22.4791   72.1989    2.7620 C   0  0  1  0  0  0  0  0  0  0  0  0
   23.7987   71.8167    3.4353 C   0  0  1  0  0  0  0  0  0  0  0  0
   22.0606   71.1304    1.7537 C   0  0  2  0  0  0  0  0  0  0  0  0
   24.8574   71.4238    2.3961 C   0  0  1  0  0  0  0  0  0  0  0  0
   23.2017   70.7782    0.7977 C   0  0  1  0  0  0  0  0  0  0  0  0
   21.7334   72.9831    4.4170 H   0  0  0  0  0  0  0  0  0  0  0  0
   23.5663   73.1721    4.8512 H   0  0  0  0  0  0  0  0  0  0  0  0
   20.2130   71.8084    1.6392 H   0  0  0  0  0  0  0  0  0  0  0  0
   25.8376   69.6364    3.6424 O   0  0  0  0  0  0  0  0  0  0  0  0
   26.1295   70.8886    3.0498 C   0  0  0  0  0  0  0  0  0  0  0  0
   26.6383   69.2836    4.0622 H   0  0  0  0  0  0  0  0  0  0  0  0
 25 28  1  0
 25 24  1  0
 25 26  1  6
 25 27  2  0
  1  4  1  0
  1 24  1  0
  1  2  1  1
  1  3  2  0
  6 11  1  0
  6 12  1  0
 29 36  1  0
 29 37  1  0
  9  7  1  6
  7 13  1  0
 10  8  1  6
  8 14  1  0
 37 28  1  1
  4  5  1  0
 33 30  1  1
 30 38  1  0
 34 31  1  6
 31 39  1  0
 35 32  1  6
 32 40  1  0
 41 42  1  0
 41 43  1  0
 15 19  2  0
 16 22  2  0
 12 17  1  6
 17 19  1  0
 17 20  1  0
 18 19  1  0
 18 22  1  0
 18 23  1  0
  9 10  1  0
  9 11  1  0
 10 12  1  0
 11  5  1  6
 33 34  1  0
 33 35  1  0
 34 36  1  0
 35 37  1  0
 36 42  1  1
 20 21  2  0
 21 22  1  0
M  CHG  2   2  -1  26  -1
M  END
>  <COMPND>  (115) 
    8629 

>  <AUTHOR>  (115) 
    GENERATED BY OPEN BABEL 3.1.1

>  <MASTER>  (115) 
        0    0    0    0    0    0    0    0   58    0   58    0

>  <minimizedAffinity>  (115) 
-7.51344

>  <CNNscore>  (115) 
0.5815952420

>  <CNNaffinity>  (115) 
4.3824710846

>  <CNN_VS>  (115) 
2.5488243103

>  <CNNaffinity_variance>  (115) 
0.0513198562

$$$$
116
     RDKit          3D

 43 45  0  0  0  0  0  0  0  0999 V2000
   21.9037   72.4190   -5.7455 P   0  0  2  0  0  0  0  0  0  0  0  0
   21.0401   73.7268   -5.3440 O   0  0  0  0  0  0  0  0  0  0  0  0
   23.1262   72.6954   -6.5705 O   0  0  0  0  0  0  0  0  0  0  0  0
   20.8156   71.4249   -6.4130 O   0  0  0  0  0  0  0  0  0  0  0  0
   20.2836   71.7596   -7.6830 C   0  0  0  0  0  0  0  0  0  0  0  0
   18.9192   69.8709   -7.0956 O   0  0  0  0  0  0  0  0  0  0  0  0
   18.0132   69.8737   -9.9540 O   0  0  0  0  0  0  0  0  0  0  0  0
   15.9346   71.0855   -8.6704 O   0  0  0  0  0  0  0  0  0  0  0  0
   18.3243   70.9773   -9.1051 C   0  0  1  0  0  0  0  0  0  0  0  0
   17.2193   71.1886   -8.0911 C   0  0  2  0  0  0  0  0  0  0  0  0
   19.4957   70.5721   -8.2191 C   0  0  1  0  0  0  0  0  0  0  0  0
   17.4981   70.0835   -7.0865 C   0  0  2  0  0  0  0  0  0  0  0  0
   17.2679   70.1088  -10.5295 H   0  0  0  0  0  0  0  0  0  0  0  0
   15.8053   71.8103   -9.3018 H   0  0  0  0  0  0  0  0  0  0  0  0
   16.4750   68.2533   -5.1940 O   0  0  0  0  0  0  0  0  0  0  0  0
   15.9552   71.5496   -2.0150 O   0  0  0  0  0  0  0  0  0  0  0  0
   17.0879   70.4362   -5.7565 N   0  0  0  0  0  0  0  0  0  0  0  0
   16.2172   69.8960   -3.6126 N   0  0  0  0  0  0  0  0  0  0  0  0
   16.5870   69.4414   -4.8848 C   0  0  0  0  0  0  0  0  0  0  0  0
   17.1846   71.7558   -5.3285 C   0  0  0  0  0  0  0  0  0  0  0  0
   16.8265   72.1733   -4.1125 C   0  0  0  0  0  0  0  0  0  0  0  0
   16.2932   71.1969   -3.1408 C   0  0  0  0  0  0  0  0  0  0  0  0
   15.8651   69.2207   -2.9883 H   0  0  0  0  0  0  0  0  0  0  0  0
   22.1998   71.7259   -4.3155 O   0  0  0  0  0  0  0  0  0  0  0  0
   23.3138   72.0490   -3.1896 P   0  0  2  0  0  0  0  0  0  0  0  0
   23.9405   73.4573   -3.6811 O   0  0  0  0  0  0  0  0  0  0  0  0
   24.3245   70.9566   -2.9926 O   0  0  0  0  0  0  0  0  0  0  0  0
   22.4638   72.4200   -1.8686 O   0  0  0  0  0  0  0  0  0  0  0  0
   21.8741   71.2533    0.1082 O   0  0  0  0  0  0  0  0  0  0  0  0
   18.2406   73.0336   -0.7162 O   0  0  0  0  0  0  0  0  0  0  0  0
   19.8234   73.9922    1.4802 O   0  0  0  0  0  0  0  0  0  0  0  0
   19.8764   72.0214   -2.8793 O   0  0  0  0  0  0  0  0  0  0  0  0
   19.6672   72.9467   -0.6654 C   0  0  1  0  0  0  0  0  0  0  0  0
   20.0852   72.7702    0.7958 C   0  0  1  0  0  0  0  0  0  0  0  0
   20.1248   71.7542   -1.5033 C   0  0  2  0  0  0  0  0  0  0  0  0
   21.5713   72.4035    0.9064 C   0  0  1  0  0  0  0  0  0  0  0  0
   21.6064   71.4440   -1.2825 C   0  0  1  0  0  0  0  0  0  0  0  0
   17.9436   73.7891   -0.1865 H   0  0  0  0  0  0  0  0  0  0  0  0
   18.8818   74.2126    1.4022 H   0  0  0  0  0  0  0  0  0  0  0  0
   18.9352   72.2160   -3.0060 H   0  0  0  0  0  0  0  0  0  0  0  0
   20.7984   71.9833    3.1279 O   0  0  0  0  0  0  0  0  0  0  0  0
   21.9724   72.0687    2.3414 C   0  0  0  0  0  0  0  0  0  0  0  0
   21.0383   71.7704    4.0438 H   0  0  0  0  0  0  0  0  0  0  0  0
 25 28  1  0
 25 24  1  0
 25 26  1  6
 25 27  2  0
  1  4  1  0
  1 24  1  0
  1  2  1  1
  1  3  2  0
  6 11  1  0
  6 12  1  0
 29 36  1  0
 29 37  1  0
  9  7  1  6
  7 13  1  0
 10  8  1  6
  8 14  1  0
 37 28  1  1
  4  5  1  0
 33 30  1  1
 30 38  1  0
 34 31  1  1
 31 39  1  0
 35 32  1  6
 32 40  1  0
 41 42  1  0
 41 43  1  0
 15 19  2  0
 16 22  2  0
 12 17  1  1
 17 19  1  0
 17 20  1  0
 18 19  1  0
 18 22  1  0
 18 23  1  0
  9 10  1  0
  9 11  1  0
 10 12  1  0
 11  5  1  1
 33 34  1  0
 33 35  1  0
 34 36  1  0
 35 37  1  0
 36 42  1  1
 20 21  2  0
 21 22  1  0
M  CHG  2   2  -1  26  -1
M  END
>  <COMPND>  (116) 
    8629 

>  <AUTHOR>  (116) 
    GENERATED BY OPEN BABEL 3.1.1

>  <MASTER>  (116) 
        0    0    0    0    0    0    0    0   58    0   58    0

>  <minimizedAffinity>  (116) 
-7.62431

>  <CNNscore>  (116) 
0.5696094632

>  <CNNaffinity>  (116) 
4.2599182129

>  <CNN_VS>  (116) 
2.4264898300

>  <CNNaffinity_variance>  (116) 
0.5361248255

$$$$
117
     RDKit          3D

 43 45  0  0  0  0  0  0  0  0999 V2000
   21.1937   71.5342   -0.9302 P   0  0  2  0  0  0  0  0  0  0  0  0
   20.8516   70.5040    0.2695 O   0  0  0  0  0  0  0  0  0  0  0  0
   22.0397   70.9661   -2.0315 O   0  0  0  0  0  0  0  0  0  0  0  0
   21.8037   72.8261   -0.1706 O   0  0  0  0  0  0  0  0  0  0  0  0
   22.3339   72.6564    1.1324 C   0  0  0  0  0  0  0  0  0  0  0  0
   24.4878   73.2232    2.0343 O   0  0  0  0  0  0  0  0  0  0  0  0
   25.4942   70.7349    0.6978 O   0  0  0  0  0  0  0  0  0  0  0  0
   25.2191   69.9457    3.2936 O   0  0  0  0  0  0  0  0  0  0  0  0
   24.2352   70.9766    1.3238 C   0  0  1  0  0  0  0  0  0  0  0  0
   24.3913   70.9929    2.8301 C   0  0  2  0  0  0  0  0  0  0  0  0
   23.8340   72.4168    1.0300 C   0  0  1  0  0  0  0  0  0  0  0  0
   24.9963   72.3658    3.0693 C   0  0  2  0  0  0  0  0  0  0  0  0
   25.7711   69.8210    0.8712 H   0  0  0  0  0  0  0  0  0  0  0  0
   24.7908   69.0932    3.1187 H   0  0  0  0  0  0  0  0  0  0  0  0
   26.3701   71.8378    5.4801 O   0  0  0  0  0  0  0  0  0  0  0  0
   23.5057   74.5076    7.9108 O   0  0  0  0  0  0  0  0  0  0  0  0
   24.6314   72.9100    4.3468 N   0  0  0  0  0  0  0  0  0  0  0  0
   24.9428   73.1677    6.6884 N   0  0  0  0  0  0  0  0  0  0  0  0
   25.3869   72.5813    5.4964 C   0  0  0  0  0  0  0  0  0  0  0  0
   23.5355   73.7598    4.4506 C   0  0  0  0  0  0  0  0  0  0  0  0
   23.1243   74.3098    5.5950 C   0  0  0  0  0  0  0  0  0  0  0  0
   23.8589   74.0174    6.8427 C   0  0  0  0  0  0  0  0  0  0  0  0
   25.4536   72.9527    7.5024 H   0  0  0  0  0  0  0  0  0  0  0  0
   19.7331   72.0444   -1.3987 O   0  0  0  0  0  0  0  0  0  0  0  0
   18.5557   71.2912   -2.2107 P   0  0  2  0  0  0  0  0  0  0  0  0
   17.2300   72.1209   -1.7966 O   0  0  0  0  0  0  0  0  0  0  0  0
   18.4712   69.8160   -1.9449 O   0  0  0  0  0  0  0  0  0  0  0  0
   18.8129   71.6787   -3.7563 O   0  0  0  0  0  0  0  0  0  0  0  0
   18.3609   70.0584   -5.4257 O   0  0  0  0  0  0  0  0  0  0  0  0
   20.8689   72.5372   -7.5741 O   0  0  0  0  0  0  0  0  0  0  0  0
   18.0575   72.5119   -8.1600 O   0  0  0  0  0  0  0  0  0  0  0  0
   21.4050   72.0127   -4.7782 O   0  0  0  0  0  0  0  0  0  0  0  0
   19.8581   72.2230   -6.6124 C   0  0  1  0  0  0  0  0  0  0  0  0
   18.6994   71.5390   -7.3405 C   0  0  1  0  0  0  0  0  0  0  0  0
   20.4490   71.2959   -5.5519 C   0  0  2  0  0  0  0  0  0  0  0  0
   17.6994   70.9347   -6.3456 C   0  0  1  0  0  0  0  0  0  0  0  0
   19.3645   70.7110   -4.6454 C   0  0  1  0  0  0  0  0  0  0  0  0
   20.5004   73.1261   -8.2500 H   0  0  0  0  0  0  0  0  0  0  0  0
   18.6999   72.8860   -8.7834 H   0  0  0  0  0  0  0  0  0  0  0  0
   22.0863   72.3777   -5.3634 H   0  0  0  0  0  0  0  0  0  0  0  0
   16.1351   69.1404   -6.1398 O   0  0  0  0  0  0  0  0  0  0  0  0
   16.6203   70.1129   -7.0471 C   0  0  0  0  0  0  0  0  0  0  0  0
   15.4473   68.6100   -6.5726 H   0  0  0  0  0  0  0  0  0  0  0  0
 25 28  1  0
 25 24  1  0
 25 26  1  1
 25 27  2  0
  1  4  1  0
  1 24  1  0
  1  2  1  1
  1  3  2  0
  6 11  1  0
  6 12  1  0
 29 36  1  0
 29 37  1  0
  9  7  1  6
  7 13  1  0
 10  8  1  6
  8 14  1  0
 37 28  1  6
  4  5  1  0
 33 30  1  6
 30 38  1  0
 34 31  1  1
 31 39  1  0
 35 32  1  1
 32 40  1  0
 41 42  1  0
 41 43  1  0
 15 19  2  0
 16 22  2  0
 12 17  1  1
 17 19  1  0
 17 20  1  0
 18 19  1  0
 18 22  1  0
 18 23  1  0
  9 10  1  0
  9 11  1  0
 10 12  1  0
 11  5  1  1
 33 34  1  0
 33 35  1  0
 34 36  1  0
 35 37  1  0
 36 42  1  6
 20 21  2  0
 21 22  1  0
M  CHG  2   2  -1  26  -1
M  END
>  <COMPND>  (117) 
    8629 

>  <AUTHOR>  (117) 
    GENERATED BY OPEN BABEL 3.1.1

>  <MASTER>  (117) 
        0    0    0    0    0    0    0    0   58    0   58    0

>  <minimizedAffinity>  (117) 
-6.90481

>  <CNNscore>  (117) 
0.5471666455

>  <CNNaffinity>  (117) 
4.0799307823

>  <CNN_VS>  (117) 
2.2324020863

>  <CNNaffinity_variance>  (117) 
0.0744469687

$$$$
118
     RDKit          3D

 43 45  0  0  0  0  0  0  0  0999 V2000
   23.3190   71.9067   -2.5245 P   0  0  2  0  0  0  0  0  0  0  0  0
   23.7626   73.4624   -2.5091 O   0  0  0  0  0  0  0  0  0  0  0  0
   24.2896   70.9774   -3.1921 O   0  0  0  0  0  0  0  0  0  0  0  0
   21.8277   71.9342   -3.1517 O   0  0  0  0  0  0  0  0  0  0  0  0
   21.5527   72.8448   -4.2019 C   0  0  0  0  0  0  0  0  0  0  0  0
   20.8472   70.8670   -5.3700 O   0  0  0  0  0  0  0  0  0  0  0  0
   21.4425   72.3720   -7.8942 O   0  0  0  0  0  0  0  0  0  0  0  0
   18.7292   72.5723   -7.7086 O   0  0  0  0  0  0  0  0  0  0  0  0
   20.9061   72.8523   -6.6626 C   0  0  1  0  0  0  0  0  0  0  0  0
   19.4637   72.4160   -6.5116 C   0  0  2  0  0  0  0  0  0  0  0  0
   21.5872   72.0974   -5.5279 C   0  0  1  0  0  0  0  0  0  0  0  0
   19.6159   70.9602   -6.1049 C   0  0  2  0  0  0  0  0  0  0  0  0
   21.0229   72.8398   -8.6338 H   0  0  0  0  0  0  0  0  0  0  0  0
   18.6600   73.5153   -7.9249 H   0  0  0  0  0  0  0  0  0  0  0  0
   17.1752   69.9173   -7.0709 O   0  0  0  0  0  0  0  0  0  0  0  0
   15.5551   69.2640   -2.8060 O   0  0  0  0  0  0  0  0  0  0  0  0
   18.5389   70.5096   -5.2691 N   0  0  0  0  0  0  0  0  0  0  0  0
   16.3706   69.5927   -4.9465 N   0  0  0  0  0  0  0  0  0  0  0  0
   17.3548   70.0039   -5.8544 C   0  0  0  0  0  0  0  0  0  0  0  0
   18.6630   70.5713   -3.8854 C   0  0  0  0  0  0  0  0  0  0  0  0
   17.7146   70.1764   -3.0334 C   0  0  0  0  0  0  0  0  0  0  0  0
   16.4463   69.6354   -3.5634 C   0  0  0  0  0  0  0  0  0  0  0  0
   15.5368   69.2372   -5.3315 H   0  0  0  0  0  0  0  0  0  0  0  0
   23.0503   71.5898   -0.9623 O   0  0  0  0  0  0  0  0  0  0  0  0
   21.8003   71.9554   -0.0048 P   0  0  2  0  0  0  0  0  0  0  0  0
   20.7871   70.7138   -0.2271 O   0  0  0  0  0  0  0  0  0  0  0  0
   21.1954   73.3035   -0.2702 O   0  0  0  0  0  0  0  0  0  0  0  0
   22.3633   71.7585    1.4950 O   0  0  0  0  0  0  0  0  0  0  0  0
   23.2034   73.4196    2.9618 O   0  0  0  0  0  0  0  0  0  0  0  0
   25.5713   70.2460    4.1334 O   0  0  0  0  0  0  0  0  0  0  0  0
   23.4688   71.1607    5.8629 O   0  0  0  0  0  0  0  0  0  0  0  0
   24.9158   70.6032    1.3366 O   0  0  0  0  0  0  0  0  0  0  0  0
   24.3753   70.8771    3.6677 C   0  0  1  0  0  0  0  0  0  0  0  0
   23.9233   71.8870    4.7244 C   0  0  1  0  0  0  0  0  0  0  0  0
   24.6650   71.5790    2.3423 C   0  0  2  0  0  0  0  0  0  0  0  0
   22.8056   72.7899    4.1854 C   0  0  1  0  0  0  0  0  0  0  0  0
   23.5101   72.4896    1.9212 C   0  0  1  0  0  0  0  0  0  0  0  0
   25.3941   69.7980    4.9745 H   0  0  0  0  0  0  0  0  0  0  0  0
   24.1838   70.5942    6.1931 H   0  0  0  0  0  0  0  0  0  0  0  0
   25.6491   70.0333    1.6149 H   0  0  0  0  0  0  0  0  0  0  0  0
   21.4832   73.4118    6.0757 O   0  0  0  0  0  0  0  0  0  0  0  0
   22.4487   73.9053    5.1655 C   0  0  0  0  0  0  0  0  0  0  0  0
   21.2467   74.1108    6.7059 H   0  0  0  0  0  0  0  0  0  0  0  0
 25 28  1  0
 25 24  1  0
 25 26  1  6
 25 27  2  0
  1  4  1  0
  1 24  1  0
  1  2  1  1
  1  3  2  0
  6 11  1  0
  6 12  1  0
 29 36  1  0
 29 37  1  0
  9  7  1  6
  7 13  1  0
 10  8  1  6
  8 14  1  0
 37 28  1  1
  4  5  1  0
 33 30  1  1
 30 38  1  0
 34 31  1  1
 31 39  1  0
 35 32  1  6
 32 40  1  0
 41 42  1  0
 41 43  1  0
 15 19  2  0
 16 22  2  0
 12 17  1  1
 17 19  1  0
 17 20  1  0
 18 19  1  0
 18 22  1  0
 18 23  1  0
  9 10  1  0
  9 11  1  0
 10 12  1  0
 11  5  1  1
 33 34  1  0
 33 35  1  0
 34 36  1  0
 35 37  1  0
 36 42  1  1
 20 21  2  0
 21 22  1  0
M  CHG  2   2  -1  26  -1
M  END
>  <COMPND>  (118) 
    8629 

>  <AUTHOR>  (118) 
    GENERATED BY OPEN BABEL 3.1.1

>  <MASTER>  (118) 
        0    0    0    0    0    0    0    0   58    0   58    0

>  <minimizedAffinity>  (118) 
-7.86967

>  <CNNscore>  (118) 
0.5461096764

>  <CNNaffinity>  (118) 
4.1429772377

>  <CNN_VS>  (118) 
2.2625200748

>  <CNNaffinity_variance>  (118) 
0.3008653522

$$$$
119
     RDKit          3D

 43 45  0  0  0  0  0  0  0  0999 V2000
   22.4994   72.3973   -0.7175 P   0  0  2  0  0  0  0  0  0  0  0  0
   21.4428   73.5388   -0.2726 O   0  0  0  0  0  0  0  0  0  0  0  0
   21.9162   71.0252   -0.8866 O   0  0  0  0  0  0  0  0  0  0  0  0
   23.6904   72.5253    0.3702 O   0  0  0  0  0  0  0  0  0  0  0  0
   24.1558   71.3471    1.0050 C   0  0  0  0  0  0  0  0  0  0  0  0
   24.4098   70.5838    3.2692 O   0  0  0  0  0  0  0  0  0  0  0  0
   22.0694   72.3395    3.9257 O   0  0  0  0  0  0  0  0  0  0  0  0
   24.1888   73.8352    4.7669 O   0  0  0  0  0  0  0  0  0  0  0  0
   23.1264   72.5567    2.9926 C   0  0  1  0  0  0  0  0  0  0  0  0
   24.4064   72.9103    3.7208 C   0  0  2  0  0  0  0  0  0  0  0  0
   23.4793   71.2150    2.3626 C   0  0  1  0  0  0  0  0  0  0  0  0
   24.8665   71.5536    4.2263 C   0  0  2  0  0  0  0  0  0  0  0  0
   21.8265   73.1825    4.3408 H   0  0  0  0  0  0  0  0  0  0  0  0
   23.8977   74.6821    4.3945 H   0  0  0  0  0  0  0  0  0  0  0  0
   26.3606   72.4830    6.4358 O   0  0  0  0  0  0  0  0  0  0  0  0
   30.3441   71.1629    4.5305 O   0  0  0  0  0  0  0  0  0  0  0  0
   26.2955   71.4651    4.3342 N   0  0  0  0  0  0  0  0  0  0  0  0
   28.3428   71.8248    5.4854 N   0  0  0  0  0  0  0  0  0  0  0  0
   26.9489   71.9629    5.4855 C   0  0  0  0  0  0  0  0  0  0  0  0
   27.0337   70.8895    3.3058 C   0  0  0  0  0  0  0  0  0  0  0  0
   28.3626   70.7665    3.3205 C   0  0  0  0  0  0  0  0  0  0  0  0
   29.1217   71.2613    4.4871 C   0  0  0  0  0  0  0  0  0  0  0  0
   28.8195   72.1648    6.2772 H   0  0  0  0  0  0  0  0  0  0  0  0
   23.1615   73.0165   -2.0558 O   0  0  0  0  0  0  0  0  0  0  0  0
   23.6239   72.3120   -3.4352 P   0  0  2  0  0  0  0  0  0  0  0  0
   24.3090   70.9338   -2.9363 O   0  0  0  0  0  0  0  0  0  0  0  0
   24.5080   73.1666   -4.2964 O   0  0  0  0  0  0  0  0  0  0  0  0
   22.2471   71.8510   -4.1400 O   0  0  0  0  0  0  0  0  0  0  0  0
   21.7886   73.7179   -5.5261 O   0  0  0  0  0  0  0  0  0  0  0  0
   18.7890   71.1885   -6.8127 O   0  0  0  0  0  0  0  0  0  0  0  0
   21.0411   71.7008   -8.5196 O   0  0  0  0  0  0  0  0  0  0  0  0
   19.5045   71.2711   -4.0090 O   0  0  0  0  0  0  0  0  0  0  0  0
   20.0931   71.5239   -6.3308 C   0  0  1  0  0  0  0  0  0  0  0  0
   20.7543   72.4574   -7.3468 C   0  0  1  0  0  0  0  0  0  0  0  0
   19.9619   72.2127   -4.9737 C   0  0  2  0  0  0  0  0  0  0  0  0
   22.0411   73.0717   -6.7792 C   0  0  1  0  0  0  0  0  0  0  0  0
   21.2866   72.8315   -4.5240 C   0  0  1  0  0  0  0  0  0  0  0  0
   18.8653   70.7504   -7.6739 H   0  0  0  0  0  0  0  0  0  0  0  0
   20.2204   71.3181   -8.8677 H   0  0  0  0  0  0  0  0  0  0  0  0
   18.6652   70.8867   -4.3051 H   0  0  0  0  0  0  0  0  0  0  0  0
   23.4424   73.4714   -8.6727 O   0  0  0  0  0  0  0  0  0  0  0  0
   22.6323   74.1253   -7.7133 C   0  0  0  0  0  0  0  0  0  0  0  0
   23.8252   74.1296   -9.2743 H   0  0  0  0  0  0  0  0  0  0  0  0
 25 28  1  0
 25 24  1  0
 25 26  1  1
 25 27  2  0
  1  4  1  0
  1 24  1  0
  1  2  1  1
  1  3  2  0
  6 11  1  0
  6 12  1  0
 29 36  1  0
 29 37  1  0
  9  7  1  1
  7 13  1  0
 10  8  1  1
  8 14  1  0
 37 28  1  6
  4  5  1  0
 33 30  1  6
 30 38  1  0
 34 31  1  6
 31 39  1  0
 35 32  1  1
 32 40  1  0
 41 42  1  0
 41 43  1  0
 15 19  2  0
 16 22  2  0
 12 17  1  6
 17 19  1  0
 17 20  1  0
 18 19  1  0
 18 22  1  0
 18 23  1  0
  9 10  1  0
  9 11  1  0
 10 12  1  0
 11  5  1  6
 33 34  1  0
 33 35  1  0
 34 36  1  0
 35 37  1  0
 36 42  1  6
 20 21  2  0
 21 22  1  0
M  CHG  2   2  -1  26  -1
M  END
>  <COMPND>  (119) 
    8629 

>  <AUTHOR>  (119) 
    GENERATED BY OPEN BABEL 3.1.1

>  <MASTER>  (119) 
        0    0    0    0    0    0    0    0   58    0   58    0

>  <minimizedAffinity>  (119) 
-7.57605

>  <CNNscore>  (119) 
0.5352457166

>  <CNNaffinity>  (119) 
4.0825729370

>  <CNN_VS>  (119) 
2.1851797104

>  <CNNaffinity_variance>  (119) 
0.1231791973

$$$$
120
     RDKit          3D

 43 45  0  0  0  0  0  0  0  0999 V2000
   22.1433   73.2021   -4.9953 P   0  0  2  0  0  0  0  0  0  0  0  0
   21.8860   74.7926   -4.8488 O   0  0  0  0  0  0  0  0  0  0  0  0
   23.3954   72.8278   -5.7324 O   0  0  0  0  0  0  0  0  0  0  0  0
   20.7626   72.6417   -5.6259 O   0  0  0  0  0  0  0  0  0  0  0  0
   20.7090   72.3898   -7.0193 C   0  0  0  0  0  0  0  0  0  0  0  0
   19.5554   70.4662   -6.1574 O   0  0  0  0  0  0  0  0  0  0  0  0
   19.8167   69.3086   -8.9110 O   0  0  0  0  0  0  0  0  0  0  0  0
   17.2372   70.1928   -8.8803 O   0  0  0  0  0  0  0  0  0  0  0  0
   19.5952   70.6622   -8.5187 C   0  0  1  0  0  0  0  0  0  0  0  0
   18.1694   70.8450   -8.0421 C   0  0  2  0  0  0  0  0  0  0  0  0
   20.3915   70.9180   -7.2451 C   0  0  1  0  0  0  0  0  0  0  0  0
   18.2234   70.2430   -6.6482 C   0  0  2  0  0  0  0  0  0  0  0  0
   19.3184   69.1217   -9.7226 H   0  0  0  0  0  0  0  0  0  0  0  0
   17.2400   70.6120   -9.7549 H   0  0  0  0  0  0  0  0  0  0  0  0
   16.8597   68.8763   -4.5866 O   0  0  0  0  0  0  0  0  0  0  0  0
   14.6507   72.6989   -3.2639 O   0  0  0  0  0  0  0  0  0  0  0  0
   17.2865   70.8567   -5.7499 N   0  0  0  0  0  0  0  0  0  0  0  0
   15.7610   70.7808   -3.9296 N   0  0  0  0  0  0  0  0  0  0  0  0
   16.6553   70.0810   -4.7497 C   0  0  0  0  0  0  0  0  0  0  0  0
   17.0021   72.2130   -5.8655 C   0  0  0  0  0  0  0  0  0  0  0  0
   16.1458   72.8651   -5.0764 C   0  0  0  0  0  0  0  0  0  0  0  0
   15.4440   72.1278   -4.0058 C   0  0  0  0  0  0  0  0  0  0  0  0
   15.3092   70.2609   -3.2258 H   0  0  0  0  0  0  0  0  0  0  0  0
   22.0818   72.6816   -3.4661 O   0  0  0  0  0  0  0  0  0  0  0  0
   22.3362   71.2165   -2.8324 P   0  0  2  0  0  0  0  0  0  0  0  0
   23.9402   71.0370   -2.9449 O   0  0  0  0  0  0  0  0  0  0  0  0
   21.5433   70.1192   -3.4813 O   0  0  0  0  0  0  0  0  0  0  0  0
   22.0564   71.4002   -1.2535 O   0  0  0  0  0  0  0  0  0  0  0  0
   21.5369   73.4636   -0.2100 O   0  0  0  0  0  0  0  0  0  0  0  0
   23.3322   71.5465    2.9763 O   0  0  0  0  0  0  0  0  0  0  0  0
   20.4873   71.9392    2.9780 O   0  0  0  0  0  0  0  0  0  0  0  0
   24.3832   71.1960    0.3019 O   0  0  0  0  0  0  0  0  0  0  0  0
   22.5405   71.6378    1.7888 C   0  0  1  0  0  0  0  0  0  0  0  0
   21.3702   72.5840    2.0642 C   0  0  1  0  0  0  0  0  0  0  0  0
   23.4077   72.1724    0.6505 C   0  0  2  0  0  0  0  0  0  0  0  0
   20.6301   72.9416    0.7683 C   0  0  1  0  0  0  0  0  0  0  0  0
   22.5679   72.5433   -0.5731 C   0  0  1  0  0  0  0  0  0  0  0  0
   22.7876   71.2072    3.7028 H   0  0  0  0  0  0  0  0  0  0  0  0
   20.9671   71.7183    3.7918 H   0  0  0  0  0  0  0  0  0  0  0  0
   24.9084   70.9699    1.0848 H   0  0  0  0  0  0  0  0  0  0  0  0
   20.1784   75.2788    0.9743 O   0  0  0  0  0  0  0  0  0  0  0  0
   19.5590   74.0059    0.9964 C   0  0  0  0  0  0  0  0  0  0  0  0
   19.5085   75.9662    1.1179 H   0  0  0  0  0  0  0  0  0  0  0  0
 25 28  1  0
 25 24  1  0
 25 26  1  1
 25 27  2  0
  1  4  1  0
  1 24  1  0
  1  2  1  1
  1  3  2  0
  6 11  1  0
  6 12  1  0
 29 36  1  0
 29 37  1  0
  9  7  1  1
  7 13  1  0
 10  8  1  6
  8 14  1  0
 37 28  1  1
  4  5  1  0
 33 30  1  1
 30 38  1  0
 34 31  1  1
 31 39  1  0
 35 32  1  6
 32 40  1  0
 41 42  1  0
 41 43  1  0
 15 19  2  0
 16 22  2  0
 12 17  1  1
 17 19  1  0
 17 20  1  0
 18 19  1  0
 18 22  1  0
 18 23  1  0
  9 10  1  0
  9 11  1  0
 10 12  1  0
 11  5  1  1
 33 34  1  0
 33 35  1  0
 34 36  1  0
 35 37  1  0
 36 42  1  1
 20 21  2  0
 21 22  1  0
M  CHG  2   2  -1  26  -1
M  END
>  <COMPND>  (120) 
    8629 

>  <AUTHOR>  (120) 
    GENERATED BY OPEN BABEL 3.1.1

>  <MASTER>  (120) 
        0    0    0    0    0    0    0    0   58    0   58    0

>  <minimizedAffinity>  (120) 
-7.13390

>  <CNNscore>  (120) 
0.5134642720

>  <CNNaffinity>  (120) 
4.3007488251

>  <CNN_VS>  (120) 
2.2082808018

>  <CNNaffinity_variance>  (120) 
0.1927287132

$$$$
121
     RDKit          3D

 43 45  0  0  0  0  0  0  0  0999 V2000
   22.7775   71.6320   -2.6624 P   0  0  2  0  0  0  0  0  0  0  0  0
   24.1832   70.9704   -3.1137 O   0  0  0  0  0  0  0  0  0  0  0  0
   22.2908   71.2209   -1.3039 O   0  0  0  0  0  0  0  0  0  0  0  0
   21.7810   71.3050   -3.8944 O   0  0  0  0  0  0  0  0  0  0  0  0
   20.8452   70.2514   -3.7459 C   0  0  0  0  0  0  0  0  0  0  0  0
   19.0484   71.5472   -4.6765 O   0  0  0  0  0  0  0  0  0  0  0  0
   17.3440   70.4107   -2.4869 O   0  0  0  0  0  0  0  0  0  0  0  0
   16.6386   68.8912   -4.6387 O   0  0  0  0  0  0  0  0  0  0  0  0
   18.3980   69.7922   -3.2230 C   0  0  1  0  0  0  0  0  0  0  0  0
   17.9336   69.4565   -4.6249 C   0  0  2  0  0  0  0  0  0  0  0  0
   19.4675   70.8451   -3.4859 C   0  0  1  0  0  0  0  0  0  0  0  0
   17.9869   70.8126   -5.3077 C   0  0  2  0  0  0  0  0  0  0  0  0
   16.6491   69.7576   -2.3068 H   0  0  0  0  0  0  0  0  0  0  0  0
   16.6568   68.0300   -4.1928 H   0  0  0  0  0  0  0  0  0  0  0  0
   16.0512   70.2118   -7.2749 O   0  0  0  0  0  0  0  0  0  0  0  0
   19.1631   70.4351  -10.6672 O   0  0  0  0  0  0  0  0  0  0  0  0
   18.2636   70.7078   -6.7127 N   0  0  0  0  0  0  0  0  0  0  0  0
   17.6022   70.3236   -8.9624 N   0  0  0  0  0  0  0  0  0  0  0  0
   17.2204   70.4007   -7.6169 C   0  0  0  0  0  0  0  0  0  0  0  0
   19.5574   70.9092   -7.1811 C   0  0  0  0  0  0  0  0  0  0  0  0
   19.9054   70.8309   -8.4672 C   0  0  0  0  0  0  0  0  0  0  0  0
   18.8748   70.5143   -9.4770 C   0  0  0  0  0  0  0  0  0  0  0  0
   16.8921   70.1105   -9.6106 H   0  0  0  0  0  0  0  0  0  0  0  0
   23.0519   73.2164   -2.8276 O   0  0  0  0  0  0  0  0  0  0  0  0
   22.0842   74.4162   -3.3146 P   0  0  2  0  0  0  0  0  0  0  0  0
   22.6616   75.7033   -2.5225 O   0  0  0  0  0  0  0  0  0  0  0  0
   20.6224   74.1566   -3.0920 O   0  0  0  0  0  0  0  0  0  0  0  0
   22.4915   74.6695   -4.8557 O   0  0  0  0  0  0  0  0  0  0  0  0
   20.9230   75.3844   -6.4821 O   0  0  0  0  0  0  0  0  0  0  0  0
   23.6524   73.5332   -8.9667 O   0  0  0  0  0  0  0  0  0  0  0  0
   23.4736   76.3994   -8.9423 O   0  0  0  0  0  0  0  0  0  0  0  0
   23.0371   72.3800   -6.3839 O   0  0  0  0  0  0  0  0  0  0  0  0
   23.2308   74.2948   -7.8321 C   0  0  1  0  0  0  0  0  0  0  0  0
   22.5076   75.5454   -8.3359 C   0  0  1  0  0  0  0  0  0  0  0  0
   22.2962   73.4410   -6.9771 C   0  0  2  0  0  0  0  0  0  0  0  0
   21.7959   76.2740   -7.1879 C   0  0  1  0  0  0  0  0  0  0  0  0
   21.6025   74.2722   -5.8963 C   0  0  1  0  0  0  0  0  0  0  0  0
   24.2465   74.0694   -9.5136 H   0  0  0  0  0  0  0  0  0  0  0  0
   23.9160   75.9272   -9.6652 H   0  0  0  0  0  0  0  0  0  0  0  0
   23.4712   71.8612   -7.0784 H   0  0  0  0  0  0  0  0  0  0  0  0
   20.6130   77.1965   -9.0477 O   0  0  0  0  0  0  0  0  0  0  0  0
   20.9393   77.4340   -7.6907 C   0  0  0  0  0  0  0  0  0  0  0  0
   20.0676   77.9267   -9.3810 H   0  0  0  0  0  0  0  0  0  0  0  0
 25 28  1  0
 25 24  1  0
 25 26  1  1
 25 27  2  0
  1  4  1  0
  1 24  1  0
  1  2  1  6
  1  3  2  0
  6 11  1  0
  6 12  1  0
 29 36  1  0
 29 37  1  0
  9  7  1  1
  7 13  1  0
 10  8  1  1
  8 14  1  0
 37 28  1  1
  4  5  1  0
 33 30  1  6
 30 38  1  0
 34 31  1  1
 31 39  1  0
 35 32  1  1
 32 40  1  0
 41 42  1  0
 41 43  1  0
 15 19  2  0
 16 22  2  0
 12 17  1  6
 17 19  1  0
 17 20  1  0
 18 19  1  0
 18 22  1  0
 18 23  1  0
  9 10  1  0
  9 11  1  0
 10 12  1  0
 11  5  1  6
 33 34  1  0
 33 35  1  0
 34 36  1  0
 35 37  1  0
 36 42  1  6
 20 21  2  0
 21 22  1  0
M  CHG  2   2  -1  26  -1
M  END
>  <COMPND>  (121) 
    8629 

>  <AUTHOR>  (121) 
    GENERATED BY OPEN BABEL 3.1.1

>  <MASTER>  (121) 
        0    0    0    0    0    0    0    0   58    0   58    0

>  <minimizedAffinity>  (121) 
-7.47389

>  <CNNscore>  (121) 
0.9340235591

>  <CNNaffinity>  (121) 
4.7413144112

>  <CNN_VS>  (121) 
4.4284992218

>  <CNNaffinity_variance>  (121) 
0.2435779572

$$$$
122
     RDKit          3D

 43 45  0  0  0  0  0  0  0  0999 V2000
   22.7201   72.1841   -2.5426 P   0  0  2  0  0  0  0  0  0  0  0  0
   23.2758   73.6361   -2.0952 O   0  0  0  0  0  0  0  0  0  0  0  0
   23.4959   71.5196   -3.6416 O   0  0  0  0  0  0  0  0  0  0  0  0
   21.1527   72.4451   -2.8476 O   0  0  0  0  0  0  0  0  0  0  0  0
   20.5215   71.6712   -3.8528 C   0  0  0  0  0  0  0  0  0  0  0  0
   18.4510   72.1554   -4.9720 O   0  0  0  0  0  0  0  0  0  0  0  0
   17.1034   70.7796   -2.6738 O   0  0  0  0  0  0  0  0  0  0  0  0
   17.0751   68.8628   -4.6133 O   0  0  0  0  0  0  0  0  0  0  0  0
   18.3446   70.4729   -3.3066 C   0  0  1  0  0  0  0  0  0  0  0  0
   18.1020   69.8325   -4.6574 C   0  0  2  0  0  0  0  0  0  0  0  0
   19.0118   71.7870   -3.6929 C   0  0  1  0  0  0  0  0  0  0  0  0
   17.7364   71.0328   -5.5140 C   0  0  2  0  0  0  0  0  0  0  0  0
   16.6589   69.9557   -2.4177 H   0  0  0  0  0  0  0  0  0  0  0  0
   17.3555   68.1198   -4.0565 H   0  0  0  0  0  0  0  0  0  0  0  0
   16.0411   69.9797   -7.5128 O   0  0  0  0  0  0  0  0  0  0  0  0
   19.2892   70.4134  -10.7537 O   0  0  0  0  0  0  0  0  0  0  0  0
   18.1131   70.8598   -6.8886 N   0  0  0  0  0  0  0  0  0  0  0  0
   17.6597   70.1967   -9.1250 N   0  0  0  0  0  0  0  0  0  0  0  0
   17.1872   70.3212   -7.8122 C   0  0  0  0  0  0  0  0  0  0  0  0
   19.3881   71.2228   -7.3087 C   0  0  0  0  0  0  0  0  0  0  0  0
   19.8237   71.0965   -8.5639 C   0  0  0  0  0  0  0  0  0  0  0  0
   18.9183   70.5421   -9.5911 C   0  0  0  0  0  0  0  0  0  0  0  0
   17.0322   69.8234   -9.7857 H   0  0  0  0  0  0  0  0  0  0  0  0
   22.6875   71.3628   -1.1507 O   0  0  0  0  0  0  0  0  0  0  0  0
   21.5472   71.2513   -0.0103 P   0  0  2  0  0  0  0  0  0  0  0  0
   22.2920   70.4509    1.1822 O   0  0  0  0  0  0  0  0  0  0  0  0
   20.2692   70.6172   -0.4779 O   0  0  0  0  0  0  0  0  0  0  0  0
   21.3815   72.7558    0.5500 O   0  0  0  0  0  0  0  0  0  0  0  0
   22.8405   74.3689    1.4912 O   0  0  0  0  0  0  0  0  0  0  0  0
   19.6741   74.7314    4.1168 O   0  0  0  0  0  0  0  0  0  0  0  0
   20.1753   76.8139    2.2037 O   0  0  0  0  0  0  0  0  0  0  0  0
   20.4245   72.1228    3.1110 O   0  0  0  0  0  0  0  0  0  0  0  0
   20.2957   74.5135    2.8474 C   0  0  1  0  0  0  0  0  0  0  0  0
   21.0977   75.7649    2.4849 C   0  0  1  0  0  0  0  0  0  0  0  0
   21.2132   73.2960    2.9433 C   0  0  2  0  0  0  0  0  0  0  0  0
   22.0035   75.5106    1.2725 C   0  0  1  0  0  0  0  0  0  0  0  0
   22.1058   73.1626    1.7081 C   0  0  1  0  0  0  0  0  0  0  0  0
   19.0898   75.5029    4.0626 H   0  0  0  0  0  0  0  0  0  0  0  0
   19.6091   76.9642    2.9770 H   0  0  0  0  0  0  0  0  0  0  0  0
   19.8642   72.2196    3.8963 H   0  0  0  0  0  0  0  0  0  0  0  0
   23.1115   77.4165    2.1937 O   0  0  0  0  0  0  0  0  0  0  0  0
   22.9273   76.6935    0.9906 C   0  0  0  0  0  0  0  0  0  0  0  0
   23.6977   78.1722    2.0296 H   0  0  0  0  0  0  0  0  0  0  0  0
 25 28  1  0
 25 24  1  0
 25 26  1  1
 25 27  2  0
  1  4  1  0
  1 24  1  0
  1  2  1  1
  1  3  2  0
  6 11  1  0
  6 12  1  0
 29 36  1  0
 29 37  1  0
  9  7  1  6
  7 13  1  0
 10  8  1  1
  8 14  1  0
 37 28  1  6
  4  5  1  0
 33 30  1  1
 30 38  1  0
 34 31  1  6
 31 39  1  0
 35 32  1  6
 32 40  1  0
 41 42  1  0
 41 43  1  0
 15 19  2  0
 16 22  2  0
 12 17  1  6
 17 19  1  0
 17 20  1  0
 18 19  1  0
 18 22  1  0
 18 23  1  0
  9 10  1  0
  9 11  1  0
 10 12  1  0
 11  5  1  6
 33 34  1  0
 33 35  1  0
 34 36  1  0
 35 37  1  0
 36 42  1  1
 20 21  2  0
 21 22  1  0
M  CHG  2   2  -1  26  -1
M  END
>  <COMPND>  (122) 
    8629 

>  <AUTHOR>  (122) 
    GENERATED BY OPEN BABEL 3.1.1

>  <MASTER>  (122) 
        0    0    0    0    0    0    0    0   58    0   58    0

>  <minimizedAffinity>  (122) 
-6.88243

>  <CNNscore>  (122) 
0.9160893559

>  <CNNaffinity>  (122) 
4.7617883682

>  <CNN_VS>  (122) 
4.3622236252

>  <CNNaffinity_variance>  (122) 
0.0988159776

$$$$
123
     RDKit          3D

 43 45  0  0  0  0  0  0  0  0999 V2000
   22.4696   71.5219   -2.8399 P   0  0  2  0  0  0  0  0  0  0  0  0
   23.9002   70.8255   -3.1329 O   0  0  0  0  0  0  0  0  0  0  0  0
   21.9486   71.3372   -1.4449 O   0  0  0  0  0  0  0  0  0  0  0  0
   21.5176   70.9671   -4.0247 O   0  0  0  0  0  0  0  0  0  0  0  0
   20.5381   69.9942   -3.7053 C   0  0  0  0  0  0  0  0  0  0  0  0
   18.8918   71.4426   -4.6880 O   0  0  0  0  0  0  0  0  0  0  0  0
   17.0048   70.4036   -2.6022 O   0  0  0  0  0  0  0  0  0  0  0  0
   16.2852   68.9825   -4.8156 O   0  0  0  0  0  0  0  0  0  0  0  0
   18.0411   69.7180   -3.3032 C   0  0  1  0  0  0  0  0  0  0  0  0
   17.6179   69.4446   -4.7314 C   0  0  2  0  0  0  0  0  0  0  0  0
   19.1996   70.6887   -3.4950 C   0  0  1  0  0  0  0  0  0  0  0  0
   17.8074   70.8044   -5.3819 C   0  0  2  0  0  0  0  0  0  0  0  0
   16.2540   69.8036   -2.4676 H   0  0  0  0  0  0  0  0  0  0  0  0
   16.2162   68.1146   -4.3880 H   0  0  0  0  0  0  0  0  0  0  0  0
   15.9266   70.3754   -7.4451 O   0  0  0  0  0  0  0  0  0  0  0  0
   19.1990   70.4330  -10.6899 O   0  0  0  0  0  0  0  0  0  0  0  0
   18.1403   70.7035   -6.7749 N   0  0  0  0  0  0  0  0  0  0  0  0
   17.5575   70.4046   -9.0591 N   0  0  0  0  0  0  0  0  0  0  0  0
   17.1206   70.4863   -7.7308 C   0  0  0  0  0  0  0  0  0  0  0  0
   19.4652   70.8201   -7.1810 C   0  0  0  0  0  0  0  0  0  0  0  0
   19.8654   70.7386   -8.4516 C   0  0  0  0  0  0  0  0  0  0  0  0
   18.8627   70.5128   -9.5125 C   0  0  0  0  0  0  0  0  0  0  0  0
   16.8647   70.2532   -9.7424 H   0  0  0  0  0  0  0  0  0  0  0  0
   22.7205   73.0609   -3.2660 O   0  0  0  0  0  0  0  0  0  0  0  0
   23.5335   73.6992   -4.5088 P   0  0  2  0  0  0  0  0  0  0  0  0
   23.3535   72.5942   -5.6767 O   0  0  0  0  0  0  0  0  0  0  0  0
   24.9611   74.0447   -4.1978 O   0  0  0  0  0  0  0  0  0  0  0  0
   22.6320   74.9493   -4.9879 O   0  0  0  0  0  0  0  0  0  0  0  0
   20.4082   75.5216   -4.4015 O   0  0  0  0  0  0  0  0  0  0  0  0
   20.3886   76.7520   -8.3431 O   0  0  0  0  0  0  0  0  0  0  0  0
   20.4168   78.7135   -6.2455 O   0  0  0  0  0  0  0  0  0  0  0  0
   21.7895   74.3325   -7.5927 O   0  0  0  0  0  0  0  0  0  0  0  0
   20.9592   76.5276   -7.0510 C   0  0  1  0  0  0  0  0  0  0  0  0
   20.1554   77.3301   -6.0260 C   0  0  1  0  0  0  0  0  0  0  0  0
   20.8999   75.0351   -6.7315 C   0  0  2  0  0  0  0  0  0  0  0  0
   20.5353   76.9355   -4.5924 C   0  0  1  0  0  0  0  0  0  0  0  0
   21.2480   74.7564   -5.2682 C   0  0  1  0  0  0  0  0  0  0  0  0
   20.4236   77.6978   -8.5523 H   0  0  0  0  0  0  0  0  0  0  0  0
   20.1731   78.9496   -7.1544 H   0  0  0  0  0  0  0  0  0  0  0  0
   21.5585   74.5169   -8.5160 H   0  0  0  0  0  0  0  0  0  0  0  0
   18.4297   77.9909   -4.1903 O   0  0  0  0  0  0  0  0  0  0  0  0
   19.6366   77.6080   -3.5569 C   0  0  0  0  0  0  0  0  0  0  0  0
   17.8477   78.4200   -3.5432 H   0  0  0  0  0  0  0  0  0  0  0  0
 25 28  1  0
 25 24  1  0
 25 26  1  6
 25 27  2  0
  1  4  1  0
  1 24  1  0
  1  2  1  1
  1  3  2  0
  6 11  1  0
  6 12  1  0
 29 36  1  0
 29 37  1  0
  9  7  1  1
  7 13  1  0
 10  8  1  1
  8 14  1  0
 37 28  1  6
  4  5  1  0
 33 30  1  6
 30 38  1  0
 34 31  1  1
 31 39  1  0
 35 32  1  6
 32 40  1  0
 41 42  1  0
 41 43  1  0
 15 19  2  0
 16 22  2  0
 12 17  1  6
 17 19  1  0
 17 20  1  0
 18 19  1  0
 18 22  1  0
 18 23  1  0
  9 10  1  0
  9 11  1  0
 10 12  1  0
 11  5  1  6
 33 34  1  0
 33 35  1  0
 34 36  1  0
 35 37  1  0
 36 42  1  1
 20 21  2  0
 21 22  1  0
M  CHG  2   2  -1  26  -1
M  END
>  <COMPND>  (123) 
    8629 

>  <AUTHOR>  (123) 
    GENERATED BY OPEN BABEL 3.1.1

>  <MASTER>  (123) 
        0    0    0    0    0    0    0    0   58    0   58    0

>  <minimizedAffinity>  (123) 
-6.98410

>  <CNNscore>  (123) 
0.9037868381

>  <CNNaffinity>  (123) 
4.6038756371

>  <CNN_VS>  (123) 
4.1609220505

>  <CNNaffinity_variance>  (123) 
0.2710449696

$$$$
124
     RDKit          3D

 43 45  0  0  0  0  0  0  0  0999 V2000
   21.9322   71.6992   -2.2962 P   0  0  2  0  0  0  0  0  0  0  0  0
   23.2556   71.2046   -3.0845 O   0  0  0  0  0  0  0  0  0  0  0  0
   21.6202   70.9375   -1.0416 O   0  0  0  0  0  0  0  0  0  0  0  0
   20.7779   71.6886   -3.4300 O   0  0  0  0  0  0  0  0  0  0  0  0
   19.9546   70.5412   -3.5459 C   0  0  0  0  0  0  0  0  0  0  0  0
   18.1922   71.6341   -4.7598 O   0  0  0  0  0  0  0  0  0  0  0  0
   16.3034   70.2924   -2.8565 O   0  0  0  0  0  0  0  0  0  0  0  0
   16.1224   68.7226   -5.0790 O   0  0  0  0  0  0  0  0  0  0  0  0
   17.5233   69.8037   -3.4116 C   0  0  1  0  0  0  0  0  0  0  0  0
   17.3268   69.4304   -4.8661 C   0  0  2  0  0  0  0  0  0  0  0  0
   18.4949   70.9730   -3.5118 C   0  0  1  0  0  0  0  0  0  0  0  0
   17.3335   70.7900   -5.5440 C   0  0  2  0  0  0  0  0  0  0  0  0
   15.6670   69.5633   -2.7824 H   0  0  0  0  0  0  0  0  0  0  0  0
   16.1673   67.8649   -4.6282 H   0  0  0  0  0  0  0  0  0  0  0  0
   15.7489   70.2659   -7.8227 O   0  0  0  0  0  0  0  0  0  0  0  0
   19.3784   70.5825  -10.6454 O   0  0  0  0  0  0  0  0  0  0  0  0
   17.8384   70.7300   -6.8867 N   0  0  0  0  0  0  0  0  0  0  0  0
   17.5574   70.4242   -9.2264 N   0  0  0  0  0  0  0  0  0  0  0  0
   16.9586   70.4590   -7.9605 C   0  0  0  0  0  0  0  0  0  0  0  0
   19.1918   70.9390   -7.1282 C   0  0  0  0  0  0  0  0  0  0  0  0
   19.7473   70.9011   -8.3411 C   0  0  0  0  0  0  0  0  0  0  0  0
   18.8976   70.6241   -9.5172 C   0  0  0  0  0  0  0  0  0  0  0  0
   16.9640   70.2367   -9.9896 H   0  0  0  0  0  0  0  0  0  0  0  0
   22.2093   73.2762   -2.0745 O   0  0  0  0  0  0  0  0  0  0  0  0
   21.3069   74.5716   -2.4217 P   0  0  2  0  0  0  0  0  0  0  0  0
   22.0650   75.7710   -1.6443 O   0  0  0  0  0  0  0  0  0  0  0  0
   19.8556   74.4237   -2.0669 O   0  0  0  0  0  0  0  0  0  0  0  0
   21.5875   74.8577   -3.9851 O   0  0  0  0  0  0  0  0  0  0  0  0
   23.0613   73.7891   -5.5026 O   0  0  0  0  0  0  0  0  0  0  0  0
   23.4323   77.6753   -6.8484 O   0  0  0  0  0  0  0  0  0  0  0  0
   21.9788   75.7624   -8.4221 O   0  0  0  0  0  0  0  0  0  0  0  0
   23.2139   77.1444   -4.0111 O   0  0  0  0  0  0  0  0  0  0  0  0
   22.7476   76.5470   -6.2974 C   0  0  1  0  0  0  0  0  0  0  0  0
   22.8043   75.4071   -7.3163 C   0  0  1  0  0  0  0  0  0  0  0  0
   23.4298   76.1371   -4.9936 C   0  0  2  0  0  0  0  0  0  0  0  0
   22.3284   74.0862   -6.6969 C   0  0  1  0  0  0  0  0  0  0  0  0
   22.9187   74.7864   -4.4891 C   0  0  1  0  0  0  0  0  0  0  0  0
   23.0038   77.9409   -7.6763 H   0  0  0  0  0  0  0  0  0  0  0  0
   22.2897   76.5984   -8.8038 H   0  0  0  0  0  0  0  0  0  0  0  0
   23.5420   77.9945   -4.3423 H   0  0  0  0  0  0  0  0  0  0  0  0
   23.4317   73.2924   -8.6619 O   0  0  0  0  0  0  0  0  0  0  0  0
   22.5247   72.9059   -7.6459 C   0  0  0  0  0  0  0  0  0  0  0  0
   23.5665   72.5508   -9.2732 H   0  0  0  0  0  0  0  0  0  0  0  0
 25 28  1  0
 25 24  1  0
 25 26  1  1
 25 27  2  0
  1  4  1  0
  1 24  1  0
  1  2  1  6
  1  3  2  0
  6 11  1  0
  6 12  1  0
 29 36  1  0
 29 37  1  0
  9  7  1  6
  7 13  1  0
 10  8  1  1
  8 14  1  0
 37 28  1  6
  4  5  1  0
 33 30  1  6
 30 38  1  0
 34 31  1  6
 31 39  1  0
 35 32  1  1
 32 40  1  0
 41 42  1  0
 41 43  1  0
 15 19  2  0
 16 22  2  0
 12 17  1  6
 17 19  1  0
 17 20  1  0
 18 19  1  0
 18 22  1  0
 18 23  1  0
  9 10  1  0
  9 11  1  0
 10 12  1  0
 11  5  1  6
 33 34  1  0
 33 35  1  0
 34 36  1  0
 35 37  1  0
 36 42  1  6
 20 21  2  0
 21 22  1  0
M  CHG  2   2  -1  26  -1
M  END
>  <COMPND>  (124) 
    8629 

>  <AUTHOR>  (124) 
    GENERATED BY OPEN BABEL 3.1.1

>  <MASTER>  (124) 
        0    0    0    0    0    0    0    0   58    0   58    0

>  <minimizedAffinity>  (124) 
-6.99333

>  <CNNscore>  (124) 
0.8997415304

>  <CNNaffinity>  (124) 
4.6447410583

>  <CNN_VS>  (124) 
4.1790666580

>  <CNNaffinity_variance>  (124) 
0.4277103543

$$$$
125
     RDKit          3D

 43 45  0  0  0  0  0  0  0  0999 V2000
   22.2094   71.5249   -2.3865 P   0  0  2  0  0  0  0  0  0  0  0  0
   23.6212   70.8770   -2.8387 O   0  0  0  0  0  0  0  0  0  0  0  0
   21.6649   71.0127   -1.0855 O   0  0  0  0  0  0  0  0  0  0  0  0
   21.2560   71.3181   -3.6773 O   0  0  0  0  0  0  0  0  0  0  0  0
   20.3287   70.2468   -3.6682 C   0  0  0  0  0  0  0  0  0  0  0  0
   18.6013   71.5215   -4.7475 O   0  0  0  0  0  0  0  0  0  0  0  0
   16.7225   70.3223   -2.7417 O   0  0  0  0  0  0  0  0  0  0  0  0
   16.2523   68.8203   -4.9687 O   0  0  0  0  0  0  0  0  0  0  0  0
   17.8530   69.7342   -3.3832 C   0  0  1  0  0  0  0  0  0  0  0  0
   17.5287   69.4096   -4.8265 C   0  0  2  0  0  0  0  0  0  0  0  0
   18.9210   70.8106   -3.5315 C   0  0  1  0  0  0  0  0  0  0  0  0
   17.6185   70.7759   -5.4846 C   0  0  2  0  0  0  0  0  0  0  0  0
   16.0270   69.6537   -2.6357 H   0  0  0  0  0  0  0  0  0  0  0  0
   16.2459   67.9534   -4.5337 H   0  0  0  0  0  0  0  0  0  0  0  0
   15.9010   70.1064   -7.6247 O   0  0  0  0  0  0  0  0  0  0  0  0
   19.2980   70.4994  -10.7145 O   0  0  0  0  0  0  0  0  0  0  0  0
   18.0276   70.6962   -6.8585 N   0  0  0  0  0  0  0  0  0  0  0  0
   17.5938   70.3028   -9.1614 N   0  0  0  0  0  0  0  0  0  0  0  0
   17.0869   70.3506   -7.8566 C   0  0  0  0  0  0  0  0  0  0  0  0
   19.3485   70.9596   -7.2047 C   0  0  0  0  0  0  0  0  0  0  0  0
   19.8163   70.9085   -8.4536 C   0  0  0  0  0  0  0  0  0  0  0  0
   18.8984   70.5549   -9.5556 C   0  0  0  0  0  0  0  0  0  0  0  0
   16.9567   70.0638   -9.8733 H   0  0  0  0  0  0  0  0  0  0  0  0
   22.5138   73.1123   -2.4101 O   0  0  0  0  0  0  0  0  0  0  0  0
   22.6380   74.1873   -1.2093 P   0  0  2  0  0  0  0  0  0  0  0  0
   23.4219   75.4238   -1.8979 O   0  0  0  0  0  0  0  0  0  0  0  0
   23.2937   73.6519    0.0306 O   0  0  0  0  0  0  0  0  0  0  0  0
   21.1339   74.7298   -0.9895 O   0  0  0  0  0  0  0  0  0  0  0  0
   19.1347   73.9830   -2.0199 O   0  0  0  0  0  0  0  0  0  0  0  0
   18.2222   77.9920   -1.6380 O   0  0  0  0  0  0  0  0  0  0  0  0
   16.9200   76.0737    0.0568 O   0  0  0  0  0  0  0  0  0  0  0  0
   20.9134   77.1835   -2.3334 O   0  0  0  0  0  0  0  0  0  0  0  0
   18.8073   76.7462   -1.2496 C   0  0  1  0  0  0  0  0  0  0  0  0
   17.6854   75.7181   -1.0912 C   0  0  1  0  0  0  0  0  0  0  0  0
   19.7958   76.3018   -2.3260 C   0  0  2  0  0  0  0  0  0  0  0  0
   18.2512   74.2998   -0.9379 C   0  0  1  0  0  0  0  0  0  0  0  0
   20.2591   74.8604   -2.1071 C   0  0  1  0  0  0  0  0  0  0  0  0
   17.5939   78.2800   -0.9584 H   0  0  0  0  0  0  0  0  0  0  0  0
   16.5689   76.9715   -0.0525 H   0  0  0  0  0  0  0  0  0  0  0  0
   20.6069   78.0926   -2.4731 H   0  0  0  0  0  0  0  0  0  0  0  0
   16.5309   73.2360   -2.2099 O   0  0  0  0  0  0  0  0  0  0  0  0
   17.1500   73.2418   -0.9367 C   0  0  0  0  0  0  0  0  0  0  0  0
   15.8280   72.5671   -2.2240 H   0  0  0  0  0  0  0  0  0  0  0  0
 25 28  1  0
 25 24  1  0
 25 26  1  6
 25 27  2  0
  1  4  1  0
  1 24  1  0
  1  2  1  6
  1  3  2  0
  6 11  1  0
  6 12  1  0
 29 36  1  0
 29 37  1  0
  9  7  1  1
  7 13  1  0
 10  8  1  1
  8 14  1  0
 37 28  1  1
  4  5  1  0
 33 30  1  6
 30 38  1  0
 34 31  1  1
 31 39  1  0
 35 32  1  1
 32 40  1  0
 41 42  1  0
 41 43  1  0
 15 19  2  0
 16 22  2  0
 12 17  1  6
 17 19  1  0
 17 20  1  0
 18 19  1  0
 18 22  1  0
 18 23  1  0
  9 10  1  0
  9 11  1  0
 10 12  1  0
 11  5  1  6
 33 34  1  0
 33 35  1  0
 34 36  1  0
 35 37  1  0
 36 42  1  6
 20 21  2  0
 21 22  1  0
M  CHG  2   2  -1  26  -1
M  END
>  <COMPND>  (125) 
    8629 

>  <AUTHOR>  (125) 
    GENERATED BY OPEN BABEL 3.1.1

>  <MASTER>  (125) 
        0    0    0    0    0    0    0    0   58    0   58    0

>  <minimizedAffinity>  (125) 
-5.83410

>  <CNNscore>  (125) 
0.8921248913

>  <CNNaffinity>  (125) 
4.6983017921

>  <CNN_VS>  (125) 
4.1914720535

>  <CNNaffinity_variance>  (125) 
0.0381656624

$$$$
126
     RDKit          3D

 43 45  0  0  0  0  0  0  0  0999 V2000
   23.1935   71.8522   -2.4225 P   0  0  2  0  0  0  0  0  0  0  0  0
   23.7035   73.2976   -1.9048 O   0  0  0  0  0  0  0  0  0  0  0  0
   24.2002   71.0714   -3.2150 O   0  0  0  0  0  0  0  0  0  0  0  0
   21.8028   72.1801   -3.1817 O   0  0  0  0  0  0  0  0  0  0  0  0
   21.0410   71.1005   -3.6935 C   0  0  0  0  0  0  0  0  0  0  0  0
   18.9479   71.8576   -4.5987 O   0  0  0  0  0  0  0  0  0  0  0  0
   17.6547   70.4597   -2.2826 O   0  0  0  0  0  0  0  0  0  0  0  0
   17.2788   68.6948   -4.3271 O   0  0  0  0  0  0  0  0  0  0  0  0
   18.8044   70.0806   -3.0374 C   0  0  1  0  0  0  0  0  0  0  0  0
   18.3918   69.5624   -4.3993 C   0  0  2  0  0  0  0  0  0  0  0  0
   19.5683   71.3487   -3.3976 C   0  0  1  0  0  0  0  0  0  0  0  0
   18.0826   70.8491   -5.1456 C   0  0  2  0  0  0  0  0  0  0  0  0
   17.1509   69.6663   -2.0406 H   0  0  0  0  0  0  0  0  0  0  0  0
   17.5259   67.8912   -3.8435 H   0  0  0  0  0  0  0  0  0  0  0  0
   16.2079   69.8783   -7.0221 O   0  0  0  0  0  0  0  0  0  0  0  0
   19.1404   70.4638  -10.5291 O   0  0  0  0  0  0  0  0  0  0  0  0
   18.3296   70.7374   -6.5555 N   0  0  0  0  0  0  0  0  0  0  0  0
   17.6695   70.1708   -8.7668 N   0  0  0  0  0  0  0  0  0  0  0  0
   17.3214   70.2364   -7.4116 C   0  0  0  0  0  0  0  0  0  0  0  0
   19.5602   71.1228   -7.0762 C   0  0  0  0  0  0  0  0  0  0  0  0
   19.8769   71.0527   -8.3708 C   0  0  0  0  0  0  0  0  0  0  0  0
   18.8795   70.5405   -9.3325 C   0  0  0  0  0  0  0  0  0  0  0  0
   16.9830   69.8245   -9.3820 H   0  0  0  0  0  0  0  0  0  0  0  0
   22.7030   71.1310   -1.0614 O   0  0  0  0  0  0  0  0  0  0  0  0
   21.7327   71.6479    0.1236 P   0  0  2  0  0  0  0  0  0  0  0  0
   20.5303   70.5655    0.1173 O   0  0  0  0  0  0  0  0  0  0  0  0
   21.2840   73.0728   -0.0259 O   0  0  0  0  0  0  0  0  0  0  0  0
   22.5488   71.3427    1.4822 O   0  0  0  0  0  0  0  0  0  0  0  0
   23.0398   73.1477    2.9373 O   0  0  0  0  0  0  0  0  0  0  0  0
   25.8486   70.4351    4.2799 O   0  0  0  0  0  0  0  0  0  0  0  0
   23.5527   71.0196    5.9032 O   0  0  0  0  0  0  0  0  0  0  0  0
   25.2617   70.6255    1.4517 O   0  0  0  0  0  0  0  0  0  0  0  0
   24.5855   70.8495    3.7526 C   0  0  1  0  0  0  0  0  0  0  0  0
   23.9284   71.7898    4.7649 C   0  0  1  0  0  0  0  0  0  0  0  0
   24.8106   71.5647    2.4217 C   0  0  2  0  0  0  0  0  0  0  0  0
   22.7004   72.4838    4.1603 C   0  0  1  0  0  0  0  0  0  0  0  0
   23.5398   72.2623    1.9334 C   0  0  1  0  0  0  0  0  0  0  0  0
   25.7127   69.9798    5.1248 H   0  0  0  0  0  0  0  0  0  0  0  0
   24.3370   70.5863    6.2751 H   0  0  0  0  0  0  0  0  0  0  0  0
   26.0667   70.1909    1.7725 H   0  0  0  0  0  0  0  0  0  0  0  0
   23.1252   73.9176    6.0239 O   0  0  0  0  0  0  0  0  0  0  0  0
   22.1228   73.5425    5.0972 C   0  0  0  0  0  0  0  0  0  0  0  0
   22.7718   74.5912    6.6265 H   0  0  0  0  0  0  0  0  0  0  0  0
 25 28  1  0
 25 24  1  0
 25 26  1  1
 25 27  2  0
  1  4  1  0
  1 24  1  0
  1  2  1  1
  1  3  2  0
  6 11  1  0
  6 12  1  0
 29 36  1  0
 29 37  1  0
  9  7  1  1
  7 13  1  0
 10  8  1  1
  8 14  1  0
 37 28  1  1
  4  5  1  0
 33 30  1  1
 30 38  1  0
 34 31  1  1
 31 39  1  0
 35 32  1  6
 32 40  1  0
 41 42  1  0
 41 43  1  0
 15 19  2  0
 16 22  2  0
 12 17  1  6
 17 19  1  0
 17 20  1  0
 18 19  1  0
 18 22  1  0
 18 23  1  0
  9 10  1  0
  9 11  1  0
 10 12  1  0
 11  5  1  6
 33 34  1  0
 33 35  1  0
 34 36  1  0
 35 37  1  0
 36 42  1  1
 20 21  2  0
 21 22  1  0
M  CHG  2   2  -1  26  -1
M  END
>  <COMPND>  (126) 
    8629 

>  <AUTHOR>  (126) 
    GENERATED BY OPEN BABEL 3.1.1

>  <MASTER>  (126) 
        0    0    0    0    0    0    0    0   58    0   58    0

>  <minimizedAffinity>  (126) 
-8.25332

>  <CNNscore>  (126) 
0.8856371045

>  <CNNaffinity>  (126) 
4.6793251038

>  <CNN_VS>  (126) 
4.1441841125

>  <CNNaffinity_variance>  (126) 
0.0979379639

$$$$
127
     RDKit          3D

 43 45  0  0  0  0  0  0  0  0999 V2000
   20.5923   71.2983   -1.3443 P   0  0  2  0  0  0  0  0  0  0  0  0
   21.1785   70.5974   -0.0092 O   0  0  0  0  0  0  0  0  0  0  0  0
   20.0906   72.6999   -1.1562 O   0  0  0  0  0  0  0  0  0  0  0  0
   19.5084   70.2326   -1.8985 O   0  0  0  0  0  0  0  0  0  0  0  0
   19.1804   70.2565   -3.2768 C   0  0  0  0  0  0  0  0  0  0  0  0
   17.5669   71.3735   -4.6635 O   0  0  0  0  0  0  0  0  0  0  0  0
   15.4823   69.8349   -3.1541 O   0  0  0  0  0  0  0  0  0  0  0  0
   15.6962   68.4239   -5.4779 O   0  0  0  0  0  0  0  0  0  0  0  0
   16.7904   69.4291   -3.5534 C   0  0  1  0  0  0  0  0  0  0  0  0
   16.8243   69.1550   -5.0425 C   0  0  2  0  0  0  0  0  0  0  0  0
   17.7136   70.6349   -3.4309 C   0  0  1  0  0  0  0  0  0  0  0  0
   16.8695   70.5593   -5.6204 C   0  0  2  0  0  0  0  0  0  0  0  0
   14.8748   69.0812   -3.2236 H   0  0  0  0  0  0  0  0  0  0  0  0
   15.7128   67.5380   -5.0833 H   0  0  0  0  0  0  0  0  0  0  0  0
   15.6263   70.3450   -8.1475 O   0  0  0  0  0  0  0  0  0  0  0  0
   19.6435   70.7789  -10.3644 O   0  0  0  0  0  0  0  0  0  0  0  0
   17.5665   70.6134   -6.8745 N   0  0  0  0  0  0  0  0  0  0  0  0
   17.6275   70.5614   -9.2493 N   0  0  0  0  0  0  0  0  0  0  0  0
   16.8484   70.4946   -8.0872 C   0  0  0  0  0  0  0  0  0  0  0  0
   18.9466   70.7827   -6.8935 C   0  0  0  0  0  0  0  0  0  0  0  0
   19.6750   70.8430   -8.0102 C   0  0  0  0  0  0  0  0  0  0  0  0
   19.0016   70.7274   -9.3198 C   0  0  0  0  0  0  0  0  0  0  0  0
   17.1488   70.4807  -10.1061 H   0  0  0  0  0  0  0  0  0  0  0  0
   21.8122   71.1558   -2.3952 O   0  0  0  0  0  0  0  0  0  0  0  0
   23.1477   72.0436   -2.5981 P   0  0  2  0  0  0  0  0  0  0  0  0
   24.2492   70.9552   -3.0666 O   0  0  0  0  0  0  0  0  0  0  0  0
   23.5431   72.8450   -1.3918 O   0  0  0  0  0  0  0  0  0  0  0  0
   22.8564   72.9235   -3.9195 O   0  0  0  0  0  0  0  0  0  0  0  0
   20.5455   73.3262   -4.2573 O   0  0  0  0  0  0  0  0  0  0  0  0
   21.9830   74.6366   -7.8998 O   0  0  0  0  0  0  0  0  0  0  0  0
   21.0441   76.5497   -5.9746 O   0  0  0  0  0  0  0  0  0  0  0  0
   23.1496   72.3054   -6.6411 O   0  0  0  0  0  0  0  0  0  0  0  0
   22.0161   74.4250   -6.4857 C   0  0  1  0  0  0  0  0  0  0  0  0
   20.8189   75.1471   -5.8646 C   0  0  1  0  0  0  0  0  0  0  0  0
   21.9451   72.9254   -6.2036 C   0  0  2  0  0  0  0  0  0  0  0  0
   20.6341   74.7493   -4.3939 C   0  0  1  0  0  0  0  0  0  0  0  0
   21.7110   72.6404   -4.7190 C   0  0  1  0  0  0  0  0  0  0  0  0
   22.0283   75.5868   -8.0857 H   0  0  0  0  0  0  0  0  0  0  0  0
   21.1596   76.7876   -6.9080 H   0  0  0  0  0  0  0  0  0  0  0  0
   23.2862   72.4930   -7.5824 H   0  0  0  0  0  0  0  0  0  0  0  0
   18.6313   74.2912   -3.1741 O   0  0  0  0  0  0  0  0  0  0  0  0
   19.3551   75.3349   -3.7995 C   0  0  0  0  0  0  0  0  0  0  0  0
   17.8148   74.6493   -2.7909 H   0  0  0  0  0  0  0  0  0  0  0  0
 25 28  1  0
 25 24  1  0
 25 26  1  6
 25 27  2  0
  1  4  1  0
  1 24  1  0
  1  2  1  1
  1  3  2  0
  6 11  1  0
  6 12  1  0
 29 36  1  0
 29 37  1  0
  9  7  1  6
  7 13  1  0
 10  8  1  6
  8 14  1  0
 37 28  1  1
  4  5  1  0
 33 30  1  6
 30 38  1  0
 34 31  1  1
 31 39  1  0
 35 32  1  1
 32 40  1  0
 41 42  1  0
 41 43  1  0
 15 19  2  0
 16 22  2  0
 12 17  1  6
 17 19  1  0
 17 20  1  0
 18 19  1  0
 18 22  1  0
 18 23  1  0
  9 10  1  0
  9 11  1  0
 10 12  1  0
 11  5  1  6
 33 34  1  0
 33 35  1  0
 34 36  1  0
 35 37  1  0
 36 42  1  6
 20 21  2  0
 21 22  1  0
M  CHG  2   2  -1  26  -1
M  END
>  <COMPND>  (127) 
    8629 

>  <AUTHOR>  (127) 
    GENERATED BY OPEN BABEL 3.1.1

>  <MASTER>  (127) 
        0    0    0    0    0    0    0    0   58    0   58    0

>  <minimizedAffinity>  (127) 
-7.80693

>  <CNNscore>  (127) 
0.8772943616

>  <CNNaffinity>  (127) 
4.5763854980

>  <CNN_VS>  (127) 
4.0148372650

>  <CNNaffinity_variance>  (127) 
0.6937204003

$$$$
128
     RDKit          3D

 43 45  0  0  0  0  0  0  0  0999 V2000
   20.3503   73.4790   -3.0576 P   0  0  2  0  0  0  0  0  0  0  0  0
   20.0369   73.0967   -1.5171 O   0  0  0  0  0  0  0  0  0  0  0  0
   20.0521   74.9013   -3.4309 O   0  0  0  0  0  0  0  0  0  0  0  0
   19.5616   72.3496   -3.9063 O   0  0  0  0  0  0  0  0  0  0  0  0
   18.9811   71.2617   -3.2081 C   0  0  0  0  0  0  0  0  0  0  0  0
   17.1839   71.8671   -4.6837 O   0  0  0  0  0  0  0  0  0  0  0  0
   15.4483   70.1042   -2.9894 O   0  0  0  0  0  0  0  0  0  0  0  0
   15.9678   68.5258   -5.1516 O   0  0  0  0  0  0  0  0  0  0  0  0
   16.8152   69.9356   -3.3612 C   0  0  1  0  0  0  0  0  0  0  0  0
   16.9174   69.5158   -4.8128 C   0  0  2  0  0  0  0  0  0  0  0  0
   17.4693   71.3115   -3.3813 C   0  0  1  0  0  0  0  0  0  0  0  0
   16.6773   70.8289   -5.5382 C   0  0  2  0  0  0  0  0  0  0  0  0
   15.0097   69.2387   -2.9694 H   0  0  0  0  0  0  0  0  0  0  0  0
   16.1632   67.7100   -4.6647 H   0  0  0  0  0  0  0  0  0  0  0  0
   15.7164   72.2127   -7.8052 O   0  0  0  0  0  0  0  0  0  0  0  0
   19.3755   70.9929  -10.3280 O   0  0  0  0  0  0  0  0  0  0  0  0
   17.3587   70.8898   -6.8004 N   0  0  0  0  0  0  0  0  0  0  0  0
   17.5392   71.6044   -9.0595 N   0  0  0  0  0  0  0  0  0  0  0  0
   16.7900   71.6110   -7.8760 C   0  0  0  0  0  0  0  0  0  0  0  0
   18.5773   70.2395   -6.9622 C   0  0  0  0  0  0  0  0  0  0  0  0
   19.2786   70.2418   -8.0977 C   0  0  0  0  0  0  0  0  0  0  0  0
   18.7543   70.9720   -9.2699 C   0  0  0  0  0  0  0  0  0  0  0  0
   17.1623   72.1000   -9.8225 H   0  0  0  0  0  0  0  0  0  0  0  0
   21.8987   73.0484   -3.2311 O   0  0  0  0  0  0  0  0  0  0  0  0
   22.7266   71.7976   -2.6286 P   0  0  2  0  0  0  0  0  0  0  0  0
   24.1612   71.9116   -3.3679 O   0  0  0  0  0  0  0  0  0  0  0  0
   22.0462   70.4702   -2.7985 O   0  0  0  0  0  0  0  0  0  0  0  0
   23.0245   72.2052   -1.0956 O   0  0  0  0  0  0  0  0  0  0  0  0
   24.3732   71.4160    0.6862 O   0  0  0  0  0  0  0  0  0  0  0  0
   20.7851   71.7982    2.6938 O   0  0  0  0  0  0  0  0  0  0  0  0
   22.9025   73.6699    3.2053 O   0  0  0  0  0  0  0  0  0  0  0  0
   20.8170   70.8346   -0.0357 O   0  0  0  0  0  0  0  0  0  0  0  0
   21.7851   72.1507    1.7341 C   0  0  1  0  0  0  0  0  0  0  0  0
   23.0836   72.4545    2.4840 C   0  0  1  0  0  0  0  0  0  0  0  0
   21.9827   70.9844    0.7676 C   0  0  2  0  0  0  0  0  0  0  0  0
   24.2669   72.5796    1.5148 C   0  0  1  0  0  0  0  0  0  0  0  0
   23.2141   71.1864   -0.1172 C   0  0  1  0  0  0  0  0  0  0  0  0
   20.6545   72.5348    3.3102 H   0  0  0  0  0  0  0  0  0  0  0  0
   22.1521   73.5777    3.8133 H   0  0  0  0  0  0  0  0  0  0  0  0
   20.0446   70.7072    0.5361 H   0  0  0  0  0  0  0  0  0  0  0  0
   25.8124   74.0987    2.5211 O   0  0  0  0  0  0  0  0  0  0  0  0
   25.5966   72.7257    2.2514 C   0  0  0  0  0  0  0  0  0  0  0  0
   26.6551   74.2068    2.9900 H   0  0  0  0  0  0  0  0  0  0  0  0
 25 28  1  0
 25 24  1  0
 25 26  1  6
 25 27  2  0
  1  4  1  0
  1 24  1  0
  1  2  1  1
  1  3  2  0
  6 11  1  0
  6 12  1  0
 29 36  1  0
 29 37  1  0
  9  7  1  6
  7 13  1  0
 10  8  1  6
  8 14  1  0
 37 28  1  6
  4  5  1  0
 33 30  1  1
 30 38  1  0
 34 31  1  6
 31 39  1  0
 35 32  1  6
 32 40  1  0
 41 42  1  0
 41 43  1  0
 15 19  2  0
 16 22  2  0
 12 17  1  6
 17 19  1  0
 17 20  1  0
 18 19  1  0
 18 22  1  0
 18 23  1  0
  9 10  1  0
  9 11  1  0
 10 12  1  0
 11  5  1  6
 33 34  1  0
 33 35  1  0
 34 36  1  0
 35 37  1  0
 36 42  1  1
 20 21  2  0
 21 22  1  0
M  CHG  2   2  -1  26  -1
M  END
>  <COMPND>  (128) 
    8629 

>  <AUTHOR>  (128) 
    GENERATED BY OPEN BABEL 3.1.1

>  <MASTER>  (128) 
        0    0    0    0    0    0    0    0   58    0   58    0

>  <minimizedAffinity>  (128) 
-7.01541

>  <CNNscore>  (128) 
0.8668361306

>  <CNNaffinity>  (128) 
4.6265401840

>  <CNN_VS>  (128) 
4.0104522705

>  <CNNaffinity_variance>  (128) 
0.0768721327

$$$$
129
     RDKit          3D

 43 45  0  0  0  0  0  0  0  0999 V2000
   22.9828   71.8121   -2.6439 P   0  0  2  0  0  0  0  0  0  0  0  0
   23.2790   73.3716   -2.3315 O   0  0  0  0  0  0  0  0  0  0  0  0
   24.1408   71.0495   -3.2174 O   0  0  0  0  0  0  0  0  0  0  0  0
   21.6444   71.8454   -3.5524 O   0  0  0  0  0  0  0  0  0  0  0  0
   20.8636   70.6669   -3.6494 C   0  0  0  0  0  0  0  0  0  0  0  0
   18.8747   71.6294   -4.5938 O   0  0  0  0  0  0  0  0  0  0  0  0
   17.3823   70.2320   -2.4005 O   0  0  0  0  0  0  0  0  0  0  0  0
   16.9556   68.6000   -4.5431 O   0  0  0  0  0  0  0  0  0  0  0  0
   18.5294   69.7985   -3.1295 C   0  0  1  0  0  0  0  0  0  0  0  0
   18.1346   69.3789   -4.5301 C   0  0  2  0  0  0  0  0  0  0  0  0
   19.4036   71.0173   -3.3971 C   0  0  1  0  0  0  0  0  0  0  0  0
   17.9572   70.7196   -5.2224 C   0  0  2  0  0  0  0  0  0  0  0  0
   16.8089   69.4706   -2.2175 H   0  0  0  0  0  0  0  0  0  0  0  0
   17.1194   67.7576   -4.0912 H   0  0  0  0  0  0  0  0  0  0  0  0
   16.1102   69.9283   -7.2074 O   0  0  0  0  0  0  0  0  0  0  0  0
   19.2029   70.5066  -10.5752 O   0  0  0  0  0  0  0  0  0  0  0  0
   18.2529   70.6546   -6.6259 N   0  0  0  0  0  0  0  0  0  0  0  0
   17.6516   70.2171   -8.8827 N   0  0  0  0  0  0  0  0  0  0  0  0
   17.2547   70.2436   -7.5397 C   0  0  0  0  0  0  0  0  0  0  0  0
   19.5208   70.9965   -7.0835 C   0  0  0  0  0  0  0  0  0  0  0  0
   19.8838   70.9647   -8.3674 C   0  0  0  0  0  0  0  0  0  0  0  0
   18.8999   70.5464   -9.3867 C   0  0  0  0  0  0  0  0  0  0  0  0
   16.9728   69.9335   -9.5374 H   0  0  0  0  0  0  0  0  0  0  0  0
   22.4454   71.2530   -1.2256 O   0  0  0  0  0  0  0  0  0  0  0  0
   21.4827   71.9262   -0.1151 P   0  0  2  0  0  0  0  0  0  0  0  0
   21.0146   70.6650    0.7837 O   0  0  0  0  0  0  0  0  0  0  0  0
   20.3527   72.7321   -0.6875 O   0  0  0  0  0  0  0  0  0  0  0  0
   22.4816   72.7593    0.8404 O   0  0  0  0  0  0  0  0  0  0  0  0
   24.7134   73.4940    0.5312 O   0  0  0  0  0  0  0  0  0  0  0  0
   24.9187   72.4181    4.5125 O   0  0  0  0  0  0  0  0  0  0  0  0
   24.9297   75.1984    3.7926 O   0  0  0  0  0  0  0  0  0  0  0  0
   23.3698   70.8187    2.6626 O   0  0  0  0  0  0  0  0  0  0  0  0
   24.2977   72.9377    3.3336 C   0  0  1  0  0  0  0  0  0  0  0  0
   25.1109   74.1417    2.8541 C   0  0  1  0  0  0  0  0  0  0  0  0
   24.2684   71.8481    2.2634 C   0  0  2  0  0  0  0  0  0  0  0  0
   24.6671   74.5881    1.4545 C   0  0  1  0  0  0  0  0  0  0  0  0
   23.8614   72.4074    0.8989 C   0  0  1  0  0  0  0  0  0  0  0  0
   24.9401   73.1049    5.1962 H   0  0  0  0  0  0  0  0  0  0  0  0
   25.2133   74.9034    4.6723 H   0  0  0  0  0  0  0  0  0  0  0  0
   23.6383   70.4727    3.5275 H   0  0  0  0  0  0  0  0  0  0  0  0
   24.9326   76.2519   -0.2396 O   0  0  0  0  0  0  0  0  0  0  0  0
   25.5678   75.6853    0.8917 C   0  0  0  0  0  0  0  0  0  0  0  0
   25.4944   76.9521   -0.6082 H   0  0  0  0  0  0  0  0  0  0  0  0
 25 28  1  0
 25 24  1  0
 25 26  1  1
 25 27  2  0
  1  4  1  0
  1 24  1  0
  1  2  1  1
  1  3  2  0
  6 11  1  0
  6 12  1  0
 29 36  1  0
 29 37  1  0
  9  7  1  1
  7 13  1  0
 10  8  1  1
  8 14  1  0
 37 28  1  1
  4  5  1  0
 33 30  1  1
 30 38  1  0
 34 31  1  1
 31 39  1  0
 35 32  1  1
 32 40  1  0
 41 42  1  0
 41 43  1  0
 15 19  2  0
 16 22  2  0
 12 17  1  6
 17 19  1  0
 17 20  1  0
 18 19  1  0
 18 22  1  0
 18 23  1  0
  9 10  1  0
  9 11  1  0
 10 12  1  0
 11  5  1  6
 33 34  1  0
 33 35  1  0
 34 36  1  0
 35 37  1  0
 36 42  1  6
 20 21  2  0
 21 22  1  0
M  CHG  2   2  -1  26  -1
M  END
>  <COMPND>  (129) 
    8629 

>  <AUTHOR>  (129) 
    GENERATED BY OPEN BABEL 3.1.1

>  <MASTER>  (129) 
        0    0    0    0    0    0    0    0   58    0   58    0

>  <minimizedAffinity>  (129) 
-7.36100

>  <CNNscore>  (129) 
0.8593485951

>  <CNNaffinity>  (129) 
4.7656869888

>  <CNN_VS>  (129) 
4.0953865051

>  <CNNaffinity_variance>  (129) 
0.0502295010

$$$$
130
     RDKit          3D

 43 45  0  0  0  0  0  0  0  0999 V2000
   23.0888   71.7601   -2.5266 P   0  0  2  0  0  0  0  0  0  0  0  0
   23.5004   73.2318   -1.9953 O   0  0  0  0  0  0  0  0  0  0  0  0
   24.1893   71.0018   -3.2087 O   0  0  0  0  0  0  0  0  0  0  0  0
   21.7626   72.0247   -3.4149 O   0  0  0  0  0  0  0  0  0  0  0  0
   20.9575   70.9155   -3.7748 C   0  0  0  0  0  0  0  0  0  0  0  0
   18.9315   71.8037   -4.7129 O   0  0  0  0  0  0  0  0  0  0  0  0
   17.5137   70.4811   -2.4258 O   0  0  0  0  0  0  0  0  0  0  0  0
   17.0655   68.7494   -4.4842 O   0  0  0  0  0  0  0  0  0  0  0  0
   18.6509   70.0340   -3.1621 C   0  0  1  0  0  0  0  0  0  0  0  0
   18.2311   69.5468   -4.5333 C   0  0  2  0  0  0  0  0  0  0  0  0
   19.4980   71.2535   -3.5035 C   0  0  1  0  0  0  0  0  0  0  0  0
   18.0153   70.8525   -5.2792 C   0  0  2  0  0  0  0  0  0  0  0  0
   16.9576   69.7195   -2.1961 H   0  0  0  0  0  0  0  0  0  0  0  0
   17.2539   67.9305   -3.9998 H   0  0  0  0  0  0  0  0  0  0  0  0
   16.1398   69.9361   -7.1820 O   0  0  0  0  0  0  0  0  0  0  0  0
   19.1409   70.4236  -10.6456 O   0  0  0  0  0  0  0  0  0  0  0  0
   18.2797   70.7304   -6.6851 N   0  0  0  0  0  0  0  0  0  0  0  0
   17.6356   70.1797   -8.9051 N   0  0  0  0  0  0  0  0  0  0  0  0
   17.2694   70.2588   -7.5554 C   0  0  0  0  0  0  0  0  0  0  0  0
   19.5292   71.0765   -7.1878 C   0  0  0  0  0  0  0  0  0  0  0  0
   19.8629   70.9941   -8.4775 C   0  0  0  0  0  0  0  0  0  0  0  0
   18.8647   70.5108   -9.4531 C   0  0  0  0  0  0  0  0  0  0  0  0
   16.9479   69.8535   -9.5299 H   0  0  0  0  0  0  0  0  0  0  0  0
   22.5015   71.0461   -1.2006 O   0  0  0  0  0  0  0  0  0  0  0  0
   21.9172   71.6708    0.1710 P   0  0  2  0  0  0  0  0  0  0  0  0
   21.0852   70.4411    0.8139 O   0  0  0  0  0  0  0  0  0  0  0  0
   21.1183   72.9280   -0.0166 O   0  0  0  0  0  0  0  0  0  0  0  0
   23.2069   71.8345    1.1274 O   0  0  0  0  0  0  0  0  0  0  0  0
   23.7156   71.0544    3.3067 O   0  0  0  0  0  0  0  0  0  0  0  0
   25.2595   74.8733    3.5957 O   0  0  0  0  0  0  0  0  0  0  0  0
   27.0457   72.6307    3.4269 O   0  0  0  0  0  0  0  0  0  0  0  0
   22.7966   74.4175    2.1445 O   0  0  0  0  0  0  0  0  0  0  0  0
   24.9355   73.6452    2.9383 C   0  0  1  0  0  0  0  0  0  0  0  0
   25.6475   72.5065    3.6713 C   0  0  1  0  0  0  0  0  0  0  0  0
   23.4217   73.4441    2.9742 C   0  0  2  0  0  0  0  0  0  0  0  0
   25.1411   71.1386    3.1944 C   0  0  1  0  0  0  0  0  0  0  0  0
   23.0283   72.0351    2.5271 C   0  0  1  0  0  0  0  0  0  0  0  0
   26.2193   75.0072    3.5760 H   0  0  0  0  0  0  0  0  0  0  0  0
   27.3527   73.4989    3.7321 H   0  0  0  0  0  0  0  0  0  0  0  0
   23.0533   75.3051    2.4380 H   0  0  0  0  0  0  0  0  0  0  0  0
   27.0605   69.7787    3.6132 O   0  0  0  0  0  0  0  0  0  0  0  0
   25.7220   69.9936    4.0213 C   0  0  0  0  0  0  0  0  0  0  0  0
   27.4433   69.0528    4.1313 H   0  0  0  0  0  0  0  0  0  0  0  0
 25 28  1  0
 25 24  1  0
 25 26  1  1
 25 27  2  0
  1  4  1  0
  1 24  1  0
  1  2  1  1
  1  3  2  0
  6 11  1  0
  6 12  1  0
 29 36  1  0
 29 37  1  0
  9  7  1  1
  7 13  1  0
 10  8  1  1
  8 14  1  0
 37 28  1  6
  4  5  1  0
 33 30  1  1
 30 38  1  0
 34 31  1  6
 31 39  1  0
 35 32  1  6
 32 40  1  0
 41 42  1  0
 41 43  1  0
 15 19  2  0
 16 22  2  0
 12 17  1  6
 17 19  1  0
 17 20  1  0
 18 19  1  0
 18 22  1  0
 18 23  1  0
  9 10  1  0
  9 11  1  0
 10 12  1  0
 11  5  1  6
 33 34  1  0
 33 35  1  0
 34 36  1  0
 35 37  1  0
 36 42  1  1
 20 21  2  0
 21 22  1  0
M  CHG  2   2  -1  26  -1
M  END
>  <COMPND>  (130) 
    8629 

>  <AUTHOR>  (130) 
    GENERATED BY OPEN BABEL 3.1.1

>  <MASTER>  (130) 
        0    0    0    0    0    0    0    0   58    0   58    0

>  <minimizedAffinity>  (130) 
-8.02378

>  <CNNscore>  (130) 
0.8520453572

>  <CNNaffinity>  (130) 
4.6831245422

>  <CNN_VS>  (130) 
3.9902346134

>  <CNNaffinity_variance>  (130) 
0.0878936499

$$$$
131
     RDKit          3D

 43 45  0  0  0  0  0  0  0  0999 V2000
   21.9398   72.5519   -5.5517 P   0  0  2  0  0  0  0  0  0  0  0  0
   21.3100   74.0284   -5.3495 O   0  0  0  0  0  0  0  0  0  0  0  0
   23.2120   72.5089   -6.3460 O   0  0  0  0  0  0  0  0  0  0  0  0
   20.7108   71.6834   -6.1459 O   0  0  0  0  0  0  0  0  0  0  0  0
   20.2094   72.0118   -7.4299 C   0  0  0  0  0  0  0  0  0  0  0  0
   18.9971   69.9892   -6.9683 O   0  0  0  0  0  0  0  0  0  0  0  0
   18.2359   70.0051   -9.8685 O   0  0  0  0  0  0  0  0  0  0  0  0
   15.9943   70.9810   -8.6603 O   0  0  0  0  0  0  0  0  0  0  0  0
   18.4023   71.1035   -8.9734 C   0  0  1  0  0  0  0  0  0  0  0  0
   17.2343   71.1804   -8.0125 C   0  0  2  0  0  0  0  0  0  0  0  0
   19.5612   70.7766   -8.0399 C   0  0  1  0  0  0  0  0  0  0  0  0
   17.5637   70.0722   -7.0268 C   0  0  2  0  0  0  0  0  0  0  0  0
   17.5013   70.1909  -10.4750 H   0  0  0  0  0  0  0  0  0  0  0  0
   15.8302   71.7118   -9.2766 H   0  0  0  0  0  0  0  0  0  0  0  0
   16.3479   68.1447   -5.3582 O   0  0  0  0  0  0  0  0  0  0  0  0
   15.6602   71.2214   -1.9963 O   0  0  0  0  0  0  0  0  0  0  0  0
   17.0582   70.3421   -5.7103 N   0  0  0  0  0  0  0  0  0  0  0  0
   16.0066   69.6782   -3.6855 N   0  0  0  0  0  0  0  0  0  0  0  0
   16.4648   69.3038   -4.9551 C   0  0  0  0  0  0  0  0  0  0  0  0
   17.1537   71.6244   -5.1807 C   0  0  0  0  0  0  0  0  0  0  0  0
   16.7107   71.9653   -3.9688 C   0  0  0  0  0  0  0  0  0  0  0  0
   16.0776   70.9393   -3.1153 C   0  0  0  0  0  0  0  0  0  0  0  0
   15.5892   68.9714   -3.1415 H   0  0  0  0  0  0  0  0  0  0  0  0
   22.0735   72.0033   -4.0371 O   0  0  0  0  0  0  0  0  0  0  0  0
   23.3108   72.0464   -2.9978 P   0  0  2  0  0  0  0  0  0  0  0  0
   24.0140   73.4681   -3.3168 O   0  0  0  0  0  0  0  0  0  0  0  0
   24.2328   70.8651   -3.0894 O   0  0  0  0  0  0  0  0  0  0  0  0
   22.6228   72.2473   -1.5516 O   0  0  0  0  0  0  0  0  0  0  0  0
   24.0731   71.8113    0.2713 O   0  0  0  0  0  0  0  0  0  0  0  0
   20.4788   71.9268    2.3007 O   0  0  0  0  0  0  0  0  0  0  0  0
   22.3420   74.0926    2.5925 O   0  0  0  0  0  0  0  0  0  0  0  0
   20.6162   70.7162   -0.3252 O   0  0  0  0  0  0  0  0  0  0  0  0
   21.4191   72.3091    1.2932 C   0  0  1  0  0  0  0  0  0  0  0  0
   22.6728   72.8462    1.9864 C   0  0  1  0  0  0  0  0  0  0  0  0
   21.7582   71.0895    0.4382 C   0  0  2  0  0  0  0  0  0  0  0  0
   23.8239   73.0264    0.9877 C   0  0  1  0  0  0  0  0  0  0  0  0
   22.9478   71.3599   -0.4848 C   0  0  1  0  0  0  0  0  0  0  0  0
   20.2589   72.6968    2.8468 H   0  0  0  0  0  0  0  0  0  0  0  0
   21.6136   73.9650    3.2204 H   0  0  0  0  0  0  0  0  0  0  0  0
   19.8702   70.5475    0.2705 H   0  0  0  0  0  0  0  0  0  0  0  0
   24.9930   73.1536    3.0676 O   0  0  0  0  0  0  0  0  0  0  0  0
   25.1287   73.4105    1.6820 C   0  0  0  0  0  0  0  0  0  0  0  0
   25.8161   73.3930    3.5224 H   0  0  0  0  0  0  0  0  0  0  0  0
 25 28  1  0
 25 24  1  0
 25 26  1  6
 25 27  2  0
  1  4  1  0
  1 24  1  0
  1  2  1  1
  1  3  2  0
  6 11  1  0
  6 12  1  0
 29 36  1  0
 29 37  1  0
  9  7  1  6
  7 13  1  0
 10  8  1  6
  8 14  1  0
 37 28  1  6
  4  5  1  0
 33 30  1  1
 30 38  1  0
 34 31  1  6
 31 39  1  0
 35 32  1  6
 32 40  1  0
 41 42  1  0
 41 43  1  0
 15 19  2  0
 16 22  2  0
 12 17  1  1
 17 19  1  0
 17 20  1  0
 18 19  1  0
 18 22  1  0
 18 23  1  0
  9 10  1  0
  9 11  1  0
 10 12  1  0
 11  5  1  1
 33 34  1  0
 33 35  1  0
 34 36  1  0
 35 37  1  0
 36 42  1  1
 20 21  2  0
 21 22  1  0
M  CHG  2   2  -1  26  -1
M  END
>  <COMPND>  (131) 
    8629 

>  <AUTHOR>  (131) 
    GENERATED BY OPEN BABEL 3.1.1

>  <MASTER>  (131) 
        0    0    0    0    0    0    0    0   58    0   58    0

>  <minimizedAffinity>  (131) 
-7.91107

>  <CNNscore>  (131) 
0.8041511774

>  <CNNaffinity>  (131) 
4.6446065903

>  <CNN_VS>  (131) 
3.7349658012

>  <CNNaffinity_variance>  (131) 
0.1703316718

$$$$
132
     RDKit          3D

 43 45  0  0  0  0  0  0  0  0999 V2000
   21.8517   72.5880   -5.5041 P   0  0  2  0  0  0  0  0  0  0  0  0
   21.2337   74.0566   -5.2237 O   0  0  0  0  0  0  0  0  0  0  0  0
   23.1063   72.5749   -6.3271 O   0  0  0  0  0  0  0  0  0  0  0  0
   20.6059   71.7512   -6.1088 O   0  0  0  0  0  0  0  0  0  0  0  0
   20.1601   72.0547   -7.4192 C   0  0  0  0  0  0  0  0  0  0  0  0
   18.9781   70.0150   -6.9541 O   0  0  0  0  0  0  0  0  0  0  0  0
   18.2019   70.0240   -9.8503 O   0  0  0  0  0  0  0  0  0  0  0  0
   15.9534   70.9675   -8.6295 O   0  0  0  0  0  0  0  0  0  0  0  0
   18.3578   71.1235   -8.9547 C   0  0  1  0  0  0  0  0  0  0  0  0
   17.1937   71.1831   -7.9877 C   0  0  2  0  0  0  0  0  0  0  0  0
   19.5258   70.8114   -8.0275 C   0  0  1  0  0  0  0  0  0  0  0  0
   17.5434   70.0784   -7.0051 C   0  0  2  0  0  0  0  0  0  0  0  0
   17.4618   70.2005  -10.4528 H   0  0  0  0  0  0  0  0  0  0  0  0
   15.7760   71.6967   -9.2440 H   0  0  0  0  0  0  0  0  0  0  0  0
   16.2961   68.1493   -5.3617 O   0  0  0  0  0  0  0  0  0  0  0  0
   15.6534   71.1941   -1.9621 O   0  0  0  0  0  0  0  0  0  0  0  0
   17.0410   70.3396   -5.6858 N   0  0  0  0  0  0  0  0  0  0  0  0
   15.9773   69.6669   -3.6702 N   0  0  0  0  0  0  0  0  0  0  0  0
   16.4307   69.3013   -4.9441 C   0  0  0  0  0  0  0  0  0  0  0  0
   17.1560   71.6135   -5.1401 C   0  0  0  0  0  0  0  0  0  0  0  0
   16.7173   71.9462   -3.9243 C   0  0  0  0  0  0  0  0  0  0  0  0
   16.0674   70.9196   -3.0842 C   0  0  0  0  0  0  0  0  0  0  0  0
   15.5484   68.9600   -3.1354 H   0  0  0  0  0  0  0  0  0  0  0  0
   22.0155   71.9728   -4.0183 O   0  0  0  0  0  0  0  0  0  0  0  0
   23.2396   72.0519   -2.9656 P   0  0  2  0  0  0  0  0  0  0  0  0
   23.8817   73.5090   -3.2519 O   0  0  0  0  0  0  0  0  0  0  0  0
   24.2143   70.9146   -3.0686 O   0  0  0  0  0  0  0  0  0  0  0  0
   22.5295   72.1957   -1.5233 O   0  0  0  0  0  0  0  0  0  0  0  0
   22.2153   73.9765    0.0085 O   0  0  0  0  0  0  0  0  0  0  0  0
   23.3042   71.0071    2.6632 O   0  0  0  0  0  0  0  0  0  0  0  0
   20.5739   71.8928    2.5683 O   0  0  0  0  0  0  0  0  0  0  0  0
   24.5968   71.1785    0.0788 O   0  0  0  0  0  0  0  0  0  0  0  0
   22.6819   71.5446    1.4931 C   0  0  1  0  0  0  0  0  0  0  0  0
   21.6474   72.5821    1.9338 C   0  0  1  0  0  0  0  0  0  0  0  0
   23.7495   72.1905    0.6120 C   0  0  2  0  0  0  0  0  0  0  0  0
   21.1296   73.3912    0.7369 C   0  0  1  0  0  0  0  0  0  0  0  0
   23.1274   73.0114   -0.5191 C   0  0  1  0  0  0  0  0  0  0  0  0
   22.6318   70.5951    3.2268 H   0  0  0  0  0  0  0  0  0  0  0  0
   20.9143   71.3855    3.3219 H   0  0  0  0  0  0  0  0  0  0  0  0
   24.9846   70.6662    0.8047 H   0  0  0  0  0  0  0  0  0  0  0  0
   18.9028   74.0289    1.3228 O   0  0  0  0  0  0  0  0  0  0  0  0
   20.2162   74.5351    1.1719 C   0  0  0  0  0  0  0  0  0  0  0  0
   18.3104   74.7458    1.5998 H   0  0  0  0  0  0  0  0  0  0  0  0
 25 28  1  0
 25 24  1  0
 25 26  1  6
 25 27  2  0
  1  4  1  0
  1 24  1  0
  1  2  1  1
  1  3  2  0
  6 11  1  0
  6 12  1  0
 29 36  1  0
 29 37  1  0
  9  7  1  6
  7 13  1  0
 10  8  1  6
  8 14  1  0
 37 28  1  6
  4  5  1  0
 33 30  1  1
 30 38  1  0
 34 31  1  6
 31 39  1  0
 35 32  1  6
 32 40  1  0
 41 42  1  0
 41 43  1  0
 15 19  2  0
 16 22  2  0
 12 17  1  1
 17 19  1  0
 17 20  1  0
 18 19  1  0
 18 22  1  0
 18 23  1  0
  9 10  1  0
  9 11  1  0
 10 12  1  0
 11  5  1  1
 33 34  1  0
 33 35  1  0
 34 36  1  0
 35 37  1  0
 36 42  1  1
 20 21  2  0
 21 22  1  0
M  CHG  2   2  -1  26  -1
M  END
>  <COMPND>  (132) 
    8629 

>  <AUTHOR>  (132) 
    GENERATED BY OPEN BABEL 3.1.1

>  <MASTER>  (132) 
        0    0    0    0    0    0    0    0   58    0   58    0

>  <minimizedAffinity>  (132) 
-7.68227

>  <CNNscore>  (132) 
0.7947361469

>  <CNNaffinity>  (132) 
4.6311407089

>  <CNN_VS>  (132) 
3.6805348396

>  <CNNaffinity_variance>  (132) 
0.2409234792

$$$$
133
     RDKit          3D

 43 45  0  0  0  0  0  0  0  0999 V2000
   22.3191   71.5774   -1.3925 P   0  0  2  0  0  0  0  0  0  0  0  0
   21.8985   73.1287   -1.2074 O   0  0  0  0  0  0  0  0  0  0  0  0
   23.5664   71.3504   -2.1951 O   0  0  0  0  0  0  0  0  0  0  0  0
   20.9778   70.8770   -1.9652 O   0  0  0  0  0  0  0  0  0  0  0  0
   20.3908   71.4023   -3.1430 C   0  0  0  0  0  0  0  0  0  0  0  0
   18.2944   71.8676   -4.2212 O   0  0  0  0  0  0  0  0  0  0  0  0
   17.0317   70.2079   -2.0667 O   0  0  0  0  0  0  0  0  0  0  0  0
   17.1128   68.4817   -4.1763 O   0  0  0  0  0  0  0  0  0  0  0  0
   18.2880   70.0340   -2.7200 C   0  0  1  0  0  0  0  0  0  0  0  0
   18.0815   69.5092   -4.1256 C   0  0  2  0  0  0  0  0  0  0  0  0
   18.8771   71.4149   -2.9795 C   0  0  1  0  0  0  0  0  0  0  0  0
   17.6457   70.7608   -4.8684 C   0  0  2  0  0  0  0  0  0  0  0  0
   16.6362   69.3393   -1.8903 H   0  0  0  0  0  0  0  0  0  0  0  0
   17.4366   67.7075   -3.6899 H   0  0  0  0  0  0  0  0  0  0  0  0
   16.1587   69.5100   -6.9184 O   0  0  0  0  0  0  0  0  0  0  0  0
   19.2185   70.7385  -10.1386 O   0  0  0  0  0  0  0  0  0  0  0  0
   18.0302   70.7387   -6.2515 N   0  0  0  0  0  0  0  0  0  0  0  0
   17.6834   70.1229   -8.5201 N   0  0  0  0  0  0  0  0  0  0  0  0
   17.2133   70.0822   -7.2013 C   0  0  0  0  0  0  0  0  0  0  0  0
   19.2056   71.3635   -6.6540 C   0  0  0  0  0  0  0  0  0  0  0  0
   19.6405   71.3921   -7.9154 C   0  0  0  0  0  0  0  0  0  0  0  0
   18.8454   70.7298   -8.9695 C   0  0  0  0  0  0  0  0  0  0  0  0
   17.1308   69.6718   -9.1991 H   0  0  0  0  0  0  0  0  0  0  0  0
   22.3904   71.0362    0.1290 O   0  0  0  0  0  0  0  0  0  0  0  0
   23.5408   71.1828    1.2551 P   0  0  2  0  0  0  0  0  0  0  0  0
   24.5086   72.3293    0.6498 O   0  0  0  0  0  0  0  0  0  0  0  0
   24.2393   69.8974    1.5922 O   0  0  0  0  0  0  0  0  0  0  0  0
   22.8023   71.8902    2.5038 O   0  0  0  0  0  0  0  0  0  0  0  0
   21.9774   74.1118    2.4748 O   0  0  0  0  0  0  0  0  0  0  0  0
   22.7084   73.7322    6.5211 O   0  0  0  0  0  0  0  0  0  0  0  0
   20.0005   73.7449    5.5644 O   0  0  0  0  0  0  0  0  0  0  0  0
   24.5356   72.5582    4.6073 O   0  0  0  0  0  0  0  0  0  0  0  0
   22.3219   73.2838    5.2191 C   0  0  1  0  0  0  0  0  0  0  0  0
   21.1198   74.1134    4.7635 C   0  0  1  0  0  0  0  0  0  0  0  0
   23.4961   73.4664    4.2593 C   0  0  2  0  0  0  0  0  0  0  0  0
   20.8149   73.8773    3.2781 C   0  0  1  0  0  0  0  0  0  0  0  0
   23.0739   73.2567    2.8040 C   0  0  1  0  0  0  0  0  0  0  0  0
   21.9674   73.6185    7.1355 H   0  0  0  0  0  0  0  0  0  0  0  0
   20.2063   73.8984    6.5000 H   0  0  0  0  0  0  0  0  0  0  0  0
   24.7941   72.7012    5.5306 H   0  0  0  0  0  0  0  0  0  0  0  0
   19.6324   75.9225    3.6352 O   0  0  0  0  0  0  0  0  0  0  0  0
   19.7213   74.8106    2.7633 C   0  0  0  0  0  0  0  0  0  0  0  0
   18.9404   76.5254    3.3198 H   0  0  0  0  0  0  0  0  0  0  0  0
 25 28  1  0
 25 24  1  0
 25 26  1  6
 25 27  2  0
  1  4  1  0
  1 24  1  0
  1  2  1  1
  1  3  2  0
  6 11  1  0
  6 12  1  0
 29 36  1  0
 29 37  1  0
  9  7  1  6
  7 13  1  0
 10  8  1  1
  8 14  1  0
 37 28  1  1
  4  5  1  0
 33 30  1  1
 30 38  1  0
 34 31  1  1
 31 39  1  0
 35 32  1  1
 32 40  1  0
 41 42  1  0
 41 43  1  0
 15 19  2  0
 16 22  2  0
 12 17  1  6
 17 19  1  0
 17 20  1  0
 18 19  1  0
 18 22  1  0
 18 23  1  0
  9 10  1  0
  9 11  1  0
 10 12  1  0
 11  5  1  6
 33 34  1  0
 33 35  1  0
 34 36  1  0
 35 37  1  0
 36 42  1  6
 20 21  2  0
 21 22  1  0
M  CHG  2   2  -1  26  -1
M  END
>  <COMPND>  (133) 
    8629 

>  <AUTHOR>  (133) 
    GENERATED BY OPEN BABEL 3.1.1

>  <MASTER>  (133) 
        0    0    0    0    0    0    0    0   58    0   58    0

>  <minimizedAffinity>  (133) 
-6.73359

>  <CNNscore>  (133) 
0.7904673815

>  <CNNaffinity>  (133) 
4.4552874565

>  <CNN_VS>  (133) 
3.5217595100

>  <CNNaffinity_variance>  (133) 
0.0436496101

$$$$
134
     RDKit          3D

 43 45  0  0  0  0  0  0  0  0999 V2000
   20.6873   71.2605   -3.0551 P   0  0  2  0  0  0  0  0  0  0  0  0
   22.0615   71.1628   -3.9032 O   0  0  0  0  0  0  0  0  0  0  0  0
   19.9393   72.5523   -3.2068 O   0  0  0  0  0  0  0  0  0  0  0  0
   21.1336   70.8800   -1.5471 O   0  0  0  0  0  0  0  0  0  0  0  0
   20.3445   71.3520   -0.4690 C   0  0  0  0  0  0  0  0  0  0  0  0
   22.5260   71.8066    0.4301 O   0  0  0  0  0  0  0  0  0  0  0  0
   21.1845   71.9639    3.1071 O   0  0  0  0  0  0  0  0  0  0  0  0
   21.5054   74.5905    2.4478 O   0  0  0  0  0  0  0  0  0  0  0  0
   20.7024   72.3802    1.8306 C   0  0  1  0  0  0  0  0  0  0  0  0
   21.3975   73.6535    1.3956 C   0  0  2  0  0  0  0  0  0  0  0  0
   21.1951   71.3786    0.7935 C   0  0  1  0  0  0  0  0  0  0  0  0
   22.7486   73.1333    0.9351 C   0  0  2  0  0  0  0  0  0  0  0  0
   20.8822   72.5882    3.7860 H   0  0  0  0  0  0  0  0  0  0  0  0
   20.6200   74.8914    2.7051 H   0  0  0  0  0  0  0  0  0  0  0  0
   25.1576   74.5874    1.1808 O   0  0  0  0  0  0  0  0  0  0  0  0
   24.8423   76.1919   -3.1282 O   0  0  0  0  0  0  0  0  0  0  0  0
   23.3195   73.9392   -0.1070 N   0  0  0  0  0  0  0  0  0  0  0  0
   24.9987   75.3850   -0.9650 N   0  0  0  0  0  0  0  0  0  0  0  0
   24.5328   74.6300    0.1190 C   0  0  0  0  0  0  0  0  0  0  0  0
   22.6778   74.0382   -1.3367 C   0  0  0  0  0  0  0  0  0  0  0  0
   23.1345   74.7635   -2.3598 C   0  0  0  0  0  0  0  0  0  0  0  0
   24.3963   75.5160   -2.2062 C   0  0  0  0  0  0  0  0  0  0  0  0
   25.8422   75.8752   -0.8306 H   0  0  0  0  0  0  0  0  0  0  0  0
   19.8707   69.9501   -3.5339 O   0  0  0  0  0  0  0  0  0  0  0  0
   18.2828   69.6562   -3.6055 P   0  0  2  0  0  0  0  0  0  0  0  0
   17.6406   70.8810   -2.7660 O   0  0  0  0  0  0  0  0  0  0  0  0
   17.8864   68.2939   -3.1148 O   0  0  0  0  0  0  0  0  0  0  0  0
   17.8804   69.9580   -5.1392 O   0  0  0  0  0  0  0  0  0  0  0  0
   19.1585   71.4866   -6.4222 O   0  0  0  0  0  0  0  0  0  0  0  0
   15.6446   71.5832   -8.5888 O   0  0  0  0  0  0  0  0  0  0  0  0
   17.9436   70.2476   -9.6746 O   0  0  0  0  0  0  0  0  0  0  0  0
   15.5557   71.4267   -5.6997 O   0  0  0  0  0  0  0  0  0  0  0  0
   16.6666   70.9810   -7.7898 C   0  0  1  0  0  0  0  0  0  0  0  0
   17.9955   71.1050   -8.5377 C   0  0  1  0  0  0  0  0  0  0  0  0
   16.7375   71.7009   -6.4445 C   0  0  2  0  0  0  0  0  0  0  0  0
   19.1768   70.7246   -7.6350 C   0  0  1  0  0  0  0  0  0  0  0  0
   17.9752   71.2864   -5.6467 C   0  0  1  0  0  0  0  0  0  0  0  0
   15.5940   71.1304   -9.4443 H   0  0  0  0  0  0  0  0  0  0  0  0
   17.1931   70.4981  -10.2360 H   0  0  0  0  0  0  0  0  0  0  0  0
   14.7794   71.6938   -6.2153 H   0  0  0  0  0  0  0  0  0  0  0  0
   21.4458   71.4039   -7.3199 O   0  0  0  0  0  0  0  0  0  0  0  0
   20.5208   70.9914   -8.3092 C   0  0  0  0  0  0  0  0  0  0  0  0
   22.3060   71.5770   -7.7345 H   0  0  0  0  0  0  0  0  0  0  0  0
 25 28  1  0
 25 24  1  0
 25 26  1  1
 25 27  2  0
  1  4  1  0
  1 24  1  0
  1  2  1  6
  1  3  2  0
  6 11  1  0
  6 12  1  0
 29 36  1  0
 29 37  1  0
  9  7  1  1
  7 13  1  0
 10  8  1  1
  8 14  1  0
 37 28  1  6
  4  5  1  0
 33 30  1  6
 30 38  1  0
 34 31  1  6
 31 39  1  0
 35 32  1  1
 32 40  1  0
 41 42  1  0
 41 43  1  0
 15 19  2  0
 16 22  2  0
 12 17  1  6
 17 19  1  0
 17 20  1  0
 18 19  1  0
 18 22  1  0
 18 23  1  0
  9 10  1  0
  9 11  1  0
 10 12  1  0
 11  5  1  6
 33 34  1  0
 33 35  1  0
 34 36  1  0
 35 37  1  0
 36 42  1  6
 20 21  2  0
 21 22  1  0
M  CHG  2   2  -1  26  -1
M  END
>  <COMPND>  (134) 
    8629 

>  <AUTHOR>  (134) 
    GENERATED BY OPEN BABEL 3.1.1

>  <MASTER>  (134) 
        0    0    0    0    0    0    0    0   58    0   58    0

>  <minimizedAffinity>  (134) 
-6.61639

>  <CNNscore>  (134) 
0.6834535003

>  <CNNaffinity>  (134) 
4.3085556030

>  <CNN_VS>  (134) 
2.9446973801

>  <CNNaffinity_variance>  (134) 
0.0095006395

$$$$
135
     RDKit          3D

 43 45  0  0  0  0  0  0  0  0999 V2000
   22.2808   73.0815   -6.1490 P   0  0  2  0  0  0  0  0  0  0  0  0
   21.3130   74.0592   -5.2976 O   0  0  0  0  0  0  0  0  0  0  0  0
   23.0542   73.7531   -7.2454 O   0  0  0  0  0  0  0  0  0  0  0  0
   21.3050   71.8773   -6.6133 O   0  0  0  0  0  0  0  0  0  0  0  0
   20.1936   72.1866   -7.4360 C   0  0  0  0  0  0  0  0  0  0  0  0
   19.1339   70.0902   -6.9301 O   0  0  0  0  0  0  0  0  0  0  0  0
   18.3598   69.9966   -9.8254 O   0  0  0  0  0  0  0  0  0  0  0  0
   16.0590   70.8294   -8.6217 O   0  0  0  0  0  0  0  0  0  0  0  0
   18.4501   71.1207   -8.9516 C   0  0  1  0  0  0  0  0  0  0  0  0
   17.2841   71.1304   -7.9852 C   0  0  2  0  0  0  0  0  0  0  0  0
   19.6341   70.8963   -8.0193 C   0  0  1  0  0  0  0  0  0  0  0  0
   17.6980   70.0678   -6.9814 C   0  0  2  0  0  0  0  0  0  0  0  0
   17.6108   70.1171  -10.4307 H   0  0  0  0  0  0  0  0  0  0  0  0
   15.8392   71.5346   -9.2502 H   0  0  0  0  0  0  0  0  0  0  0  0
   16.2661   68.1877   -5.4345 O   0  0  0  0  0  0  0  0  0  0  0  0
   15.7589   71.1646   -1.9528 O   0  0  0  0  0  0  0  0  0  0  0  0
   17.1804   70.3247   -5.6670 N   0  0  0  0  0  0  0  0  0  0  0  0
   16.0149   69.6714   -3.7021 N   0  0  0  0  0  0  0  0  0  0  0  0
   16.4745   69.3127   -4.9757 C   0  0  0  0  0  0  0  0  0  0  0  0
   17.3749   71.5687   -5.0766 C   0  0  0  0  0  0  0  0  0  0  0  0
   16.9291   71.8953   -3.8618 C   0  0  0  0  0  0  0  0  0  0  0  0
   16.1818   70.8948   -3.0727 C   0  0  0  0  0  0  0  0  0  0  0  0
   15.5200   68.9824   -3.2019 H   0  0  0  0  0  0  0  0  0  0  0  0
   23.1936   72.3901   -5.0080 O   0  0  0  0  0  0  0  0  0  0  0  0
   22.7957   71.7194   -3.5921 P   0  0  2  0  0  0  0  0  0  0  0  0
   24.1726   71.0169   -3.1144 O   0  0  0  0  0  0  0  0  0  0  0  0
   21.6180   70.7908   -3.6604 O   0  0  0  0  0  0  0  0  0  0  0  0
   22.6055   72.9683   -2.5877 O   0  0  0  0  0  0  0  0  0  0  0  0
   21.2949   72.2317   -0.7556 O   0  0  0  0  0  0  0  0  0  0  0  0
   21.6430   76.2228    0.2447 O   0  0  0  0  0  0  0  0  0  0  0  0
   23.0989   74.2529    1.7441 O   0  0  0  0  0  0  0  0  0  0  0  0
   21.3022   75.4528   -2.5248 O   0  0  0  0  0  0  0  0  0  0  0  0
   22.0782   74.9723   -0.2959 C   0  0  1  0  0  0  0  0  0  0  0  0
   22.0579   73.9319    0.8257 C   0  0  1  0  0  0  0  0  0  0  0  0
   21.1364   74.5624   -1.4265 C   0  0  2  0  0  0  0  0  0  0  0  0
   22.2535   72.5147    0.2703 C   0  0  1  0  0  0  0  0  0  0  0  0
   21.3825   73.1197   -1.8717 C   0  0  1  0  0  0  0  0  0  0  0  0
   22.2372   76.4889    0.9628 H   0  0  0  0  0  0  0  0  0  0  0  0
   22.9639   75.1504    2.0870 H   0  0  0  0  0  0  0  0  0  0  0  0
   21.1434   76.3626   -2.2302 H   0  0  0  0  0  0  0  0  0  0  0  0
   21.1261   70.5041    0.8990 O   0  0  0  0  0  0  0  0  0  0  0  0
   22.0797   71.4484    1.3496 C   0  0  0  0  0  0  0  0  0  0  0  0
   21.0055   69.8191    1.5757 H   0  0  0  0  0  0  0  0  0  0  0  0
 25 28  1  0
 25 24  1  0
 25 26  1  1
 25 27  2  0
  1  4  1  0
  1 24  1  0
  1  2  1  1
  1  3  2  0
  6 11  1  0
  6 12  1  0
 29 36  1  0
 29 37  1  0
  9  7  1  6
  7 13  1  0
 10  8  1  6
  8 14  1  0
 37 28  1  1
  4  5  1  0
 33 30  1  1
 30 38  1  0
 34 31  1  1
 31 39  1  0
 35 32  1  6
 32 40  1  0
 41 42  1  0
 41 43  1  0
 15 19  2  0
 16 22  2  0
 12 17  1  1
 17 19  1  0
 17 20  1  0
 18 19  1  0
 18 22  1  0
 18 23  1  0
  9 10  1  0
  9 11  1  0
 10 12  1  0
 11  5  1  1
 33 34  1  0
 33 35  1  0
 34 36  1  0
 35 37  1  0
 36 42  1  1
 20 21  2  0
 21 22  1  0
M  CHG  2   2  -1  26  -1
M  END
>  <COMPND>  (135) 
    8629 

>  <AUTHOR>  (135) 
    GENERATED BY OPEN BABEL 3.1.1

>  <MASTER>  (135) 
        0    0    0    0    0    0    0    0   58    0   58    0

>  <minimizedAffinity>  (135) 
-7.32281

>  <CNNscore>  (135) 
0.6745902300

>  <CNNaffinity>  (135) 
4.4124975204

>  <CNN_VS>  (135) 
2.9766278267

>  <CNNaffinity_variance>  (135) 
0.3912006617

$$$$
136
     RDKit          3D

 43 45  0  0  0  0  0  0  0  0999 V2000
   23.1608   71.7775   -2.5223 P   0  0  2  0  0  0  0  0  0  0  0  0
   23.4855   73.3235   -2.1733 O   0  0  0  0  0  0  0  0  0  0  0  0
   24.2668   71.0387   -3.2169 O   0  0  0  0  0  0  0  0  0  0  0  0
   21.7537   71.8462   -3.3181 O   0  0  0  0  0  0  0  0  0  0  0  0
   21.6191   72.7815   -4.3740 C   0  0  0  0  0  0  0  0  0  0  0  0
   20.8588   70.8123   -5.5220 O   0  0  0  0  0  0  0  0  0  0  0  0
   21.4033   72.3103   -8.0618 O   0  0  0  0  0  0  0  0  0  0  0  0
   18.6986   72.5428   -7.8028 O   0  0  0  0  0  0  0  0  0  0  0  0
   20.9062   72.7969   -6.8163 C   0  0  1  0  0  0  0  0  0  0  0  0
   19.4634   72.3777   -6.6261 C   0  0  2  0  0  0  0  0  0  0  0  0
   21.6088   72.0338   -5.7003 C   0  0  1  0  0  0  0  0  0  0  0  0
   19.6092   70.9201   -6.2232 C   0  0  2  0  0  0  0  0  0  0  0  0
   20.9693   72.7831   -8.7899 H   0  0  0  0  0  0  0  0  0  0  0  0
   18.6347   73.4865   -8.0174 H   0  0  0  0  0  0  0  0  0  0  0  0
   17.1220   69.9283   -7.1223 O   0  0  0  0  0  0  0  0  0  0  0  0
   15.6200   69.2710   -2.8150 O   0  0  0  0  0  0  0  0  0  0  0  0
   18.5500   70.4823   -5.3585 N   0  0  0  0  0  0  0  0  0  0  0  0
   16.3762   69.6016   -4.9769 N   0  0  0  0  0  0  0  0  0  0  0  0
   17.3398   70.0022   -5.9112 C   0  0  0  0  0  0  0  0  0  0  0  0
   18.7169   70.5311   -3.9787 C   0  0  0  0  0  0  0  0  0  0  0  0
   17.7877   70.1466   -3.1013 C   0  0  0  0  0  0  0  0  0  0  0  0
   16.4945   69.6323   -3.5964 C   0  0  0  0  0  0  0  0  0  0  0  0
   15.5249   69.2640   -5.3389 H   0  0  0  0  0  0  0  0  0  0  0  0
   22.7377   71.1623   -1.0886 O   0  0  0  0  0  0  0  0  0  0  0  0
   21.6920   71.6893    0.0258 P   0  0  2  0  0  0  0  0  0  0  0  0
   20.5300   70.5638    0.0058 O   0  0  0  0  0  0  0  0  0  0  0  0
   21.2019   73.0896   -0.2038 O   0  0  0  0  0  0  0  0  0  0  0  0
   22.4496   71.4682    1.4337 O   0  0  0  0  0  0  0  0  0  0  0  0
   23.2044   73.1098    2.9673 O   0  0  0  0  0  0  0  0  0  0  0  0
   26.1546   70.2759    3.5293 O   0  0  0  0  0  0  0  0  0  0  0  0
   24.1705   70.6804    5.5659 O   0  0  0  0  0  0  0  0  0  0  0  0
   25.1079   70.7637    0.8749 O   0  0  0  0  0  0  0  0  0  0  0  0
   24.8279   70.7413    3.2670 C   0  0  1  0  0  0  0  0  0  0  0  0
   24.3635   71.5677    4.4679 C   0  0  1  0  0  0  0  0  0  0  0  0
   24.8395   71.5939    1.9997 C   0  0  2  0  0  0  0  0  0  0  0  0
   23.0630   72.3194    4.1534 C   0  0  1  0  0  0  0  0  0  0  0  0
   23.5162   72.3368    1.8066 C   0  0  1  0  0  0  0  0  0  0  0  0
   26.1541   69.7334    4.3325 H   0  0  0  0  0  0  0  0  0  0  0  0
   24.9989   70.2117    5.7539 H   0  0  0  0  0  0  0  0  0  0  0  0
   25.9482   70.2993    1.0091 H   0  0  0  0  0  0  0  0  0  0  0  0
   21.2671   73.4796    5.2199 O   0  0  0  0  0  0  0  0  0  0  0  0
   22.6662   73.2716    5.2794 C   0  0  0  0  0  0  0  0  0  0  0  0
   21.0001   74.0836    5.9310 H   0  0  0  0  0  0  0  0  0  0  0  0
 25 28  1  0
 25 24  1  0
 25 26  1  1
 25 27  2  0
  1  4  1  0
  1 24  1  0
  1  2  1  1
  1  3  2  0
  6 11  1  0
  6 12  1  0
 29 36  1  0
 29 37  1  0
  9  7  1  6
  7 13  1  0
 10  8  1  6
  8 14  1  0
 37 28  1  1
  4  5  1  0
 33 30  1  1
 30 38  1  0
 34 31  1  1
 31 39  1  0
 35 32  1  6
 32 40  1  0
 41 42  1  0
 41 43  1  0
 15 19  2  0
 16 22  2  0
 12 17  1  1
 17 19  1  0
 17 20  1  0
 18 19  1  0
 18 22  1  0
 18 23  1  0
  9 10  1  0
  9 11  1  0
 10 12  1  0
 11  5  1  1
 33 34  1  0
 33 35  1  0
 34 36  1  0
 35 37  1  0
 36 42  1  1
 20 21  2  0
 21 22  1  0
M  CHG  2   2  -1  26  -1
M  END
>  <COMPND>  (136) 
    8629 

>  <AUTHOR>  (136) 
    GENERATED BY OPEN BABEL 3.1.1

>  <MASTER>  (136) 
        0    0    0    0    0    0    0    0   58    0   58    0

>  <minimizedAffinity>  (136) 
-7.86492

>  <CNNscore>  (136) 
0.5979177356

>  <CNNaffinity>  (136) 
4.2404518127

>  <CNN_VS>  (136) 
2.5354413986

>  <CNNaffinity_variance>  (136) 
0.2380353212

$$$$
137
     RDKit          3D

 43 45  0  0  0  0  0  0  0  0999 V2000
   20.3697   73.6237   -1.0670 P   0  0  2  0  0  0  0  0  0  0  0  0
   19.7433   72.1542   -0.8109 O   0  0  0  0  0  0  0  0  0  0  0  0
   19.4292   74.7659   -0.8172 O   0  0  0  0  0  0  0  0  0  0  0  0
   20.9803   73.5305   -2.5624 O   0  0  0  0  0  0  0  0  0  0  0  0
   20.3411   72.6842   -3.5022 C   0  0  0  0  0  0  0  0  0  0  0  0
   20.7631   71.0011   -5.1644 O   0  0  0  0  0  0  0  0  0  0  0  0
   23.2804   72.5086   -5.7821 O   0  0  0  0  0  0  0  0  0  0  0  0
   21.6086   73.2965   -7.7872 O   0  0  0  0  0  0  0  0  0  0  0  0
   21.9988   73.0089   -5.4047 C   0  0  1  0  0  0  0  0  0  0  0  0
   21.0288   72.8964   -6.5623 C   0  0  2  0  0  0  0  0  0  0  0  0
   21.3979   72.0430   -4.3911 C   0  0  1  0  0  0  0  0  0  0  0  0
   20.6778   71.4185   -6.5367 C   0  0  2  0  0  0  0  0  0  0  0  0
   23.6842   73.1091   -6.4289 H   0  0  0  0  0  0  0  0  0  0  0  0
   21.8137   74.2439   -7.7538 H   0  0  0  0  0  0  0  0  0  0  0  0
   20.0584   69.6119   -8.6177 O   0  0  0  0  0  0  0  0  0  0  0  0
   15.5500   70.5176   -8.3098 O   0  0  0  0  0  0  0  0  0  0  0  0
   19.3504   71.1624   -7.0203 N   0  0  0  0  0  0  0  0  0  0  0  0
   17.8141   70.0642   -8.4626 N   0  0  0  0  0  0  0  0  0  0  0  0
   19.1476   70.2369   -8.0705 C   0  0  0  0  0  0  0  0  0  0  0  0
   18.2668   71.8251   -6.4543 C   0  0  0  0  0  0  0  0  0  0  0  0
   17.0013   71.6502   -6.8405 C   0  0  0  0  0  0  0  0  0  0  0  0
   16.7031   70.7004   -7.9319 C   0  0  0  0  0  0  0  0  0  0  0  0
   17.6487   69.4245   -9.1928 H   0  0  0  0  0  0  0  0  0  0  0  0
   21.6903   73.6234   -0.1347 O   0  0  0  0  0  0  0  0  0  0  0  0
   23.1193   72.8907   -0.3186 P   0  0  2  0  0  0  0  0  0  0  0  0
   24.0746   74.0738   -0.8711 O   0  0  0  0  0  0  0  0  0  0  0  0
   23.0772   71.6702   -1.1917 O   0  0  0  0  0  0  0  0  0  0  0  0
   23.6357   72.6191    1.1863 O   0  0  0  0  0  0  0  0  0  0  0  0
   24.3251   70.6027    2.2234 O   0  0  0  0  0  0  0  0  0  0  0  0
   22.4316   72.3816    5.4329 O   0  0  0  0  0  0  0  0  0  0  0  0
   25.2980   72.2072    5.3964 O   0  0  0  0  0  0  0  0  0  0  0  0
   21.3212   72.6472    2.7728 O   0  0  0  0  0  0  0  0  0  0  0  0
   23.2120   72.3493    4.2348 C   0  0  1  0  0  0  0  0  0  0  0  0
   24.4547   71.4956    4.4948 C   0  0  1  0  0  0  0  0  0  0  0  0
   22.3729   71.7486    3.1086 C   0  0  2  0  0  0  0  0  0  0  0  0
   25.2025   71.1937    3.1891 C   0  0  1  0  0  0  0  0  0  0  0  0
   23.2221   71.4412    1.8739 C   0  0  1  0  0  0  0  0  0  0  0  0
   22.9584   72.7624    6.1519 H   0  0  0  0  0  0  0  0  0  0  0  0
   24.8137   72.3919    6.2165 H   0  0  0  0  0  0  0  0  0  0  0  0
   20.7908   72.8336    3.5626 H   0  0  0  0  0  0  0  0  0  0  0  0
   25.9019   69.1629    4.2358 O   0  0  0  0  0  0  0  0  0  0  0  0
   26.3547   70.2146    3.4032 C   0  0  0  0  0  0  0  0  0  0  0  0
   26.6247   68.5318    4.3804 H   0  0  0  0  0  0  0  0  0  0  0  0
 25 28  1  0
 25 24  1  0
 25 26  1  6
 25 27  2  0
  1  4  1  0
  1 24  1  0
  1  2  1  1
  1  3  2  0
  6 11  1  0
  6 12  1  0
 29 36  1  0
 29 37  1  0
  9  7  1  6
  7 13  1  0
 10  8  1  6
  8 14  1  0
 37 28  1  1
  4  5  1  0
 33 30  1  1
 30 38  1  0
 34 31  1  1
 31 39  1  0
 35 32  1  6
 32 40  1  0
 41 42  1  0
 41 43  1  0
 15 19  2  0
 16 22  2  0
 12 17  1  1
 17 19  1  0
 17 20  1  0
 18 19  1  0
 18 22  1  0
 18 23  1  0
  9 10  1  0
  9 11  1  0
 10 12  1  0
 11  5  1  6
 33 34  1  0
 33 35  1  0
 34 36  1  0
 35 37  1  0
 36 42  1  1
 20 21  2  0
 21 22  1  0
M  CHG  2   2  -1  26  -1
M  END
>  <COMPND>  (137) 
    8629 

>  <AUTHOR>  (137) 
    GENERATED BY OPEN BABEL 3.1.1

>  <MASTER>  (137) 
        0    0    0    0    0    0    0    0   58    0   58    0

>  <minimizedAffinity>  (137) 
-6.98123

>  <CNNscore>  (137) 
0.5416985154

>  <CNNaffinity>  (137) 
4.2308883667

>  <CNN_VS>  (137) 
2.2918660641

>  <CNNaffinity_variance>  (137) 
0.0429636426

$$$$
138
     RDKit          3D

 43 45  0  0  0  0  0  0  0  0999 V2000
   23.2882   72.1175   -2.7978 P   0  0  2  0  0  0  0  0  0  0  0  0
   23.8089   73.5900   -3.2197 O   0  0  0  0  0  0  0  0  0  0  0  0
   24.2153   70.9920   -3.1516 O   0  0  0  0  0  0  0  0  0  0  0  0
   21.8041   72.0325   -3.4366 O   0  0  0  0  0  0  0  0  0  0  0  0
   21.4953   72.8632   -4.5422 C   0  0  0  0  0  0  0  0  0  0  0  0
   20.8034   70.8016   -5.5644 O   0  0  0  0  0  0  0  0  0  0  0  0
   21.3535   72.1372   -8.1921 O   0  0  0  0  0  0  0  0  0  0  0  0
   18.6399   72.3167   -7.9906 O   0  0  0  0  0  0  0  0  0  0  0  0
   20.8235   72.6942   -6.9904 C   0  0  1  0  0  0  0  0  0  0  0  0
   19.3885   72.2518   -6.7939 C   0  0  2  0  0  0  0  0  0  0  0  0
   21.5259   72.0272   -5.8143 C   0  0  1  0  0  0  0  0  0  0  0  0
   19.5636   70.8292   -6.2902 C   0  0  2  0  0  0  0  0  0  0  0  0
   20.9203   72.5481   -8.9572 H   0  0  0  0  0  0  0  0  0  0  0  0
   18.5563   73.2418   -8.2701 H   0  0  0  0  0  0  0  0  0  0  0  0
   17.0900   69.7792   -7.1603 O   0  0  0  0  0  0  0  0  0  0  0  0
   15.5608   69.3095   -2.8379 O   0  0  0  0  0  0  0  0  0  0  0  0
   18.5011   70.4239   -5.4137 N   0  0  0  0  0  0  0  0  0  0  0  0
   16.3307   69.5460   -5.0074 N   0  0  0  0  0  0  0  0  0  0  0  0
   17.2984   69.9102   -5.9523 C   0  0  0  0  0  0  0  0  0  0  0  0
   18.6575   70.5372   -4.0366 C   0  0  0  0  0  0  0  0  0  0  0  0
   17.7245   70.1866   -3.1489 C   0  0  0  0  0  0  0  0  0  0  0  0
   16.4386   69.6408   -3.6289 C   0  0  0  0  0  0  0  0  0  0  0  0
   15.4844   69.1859   -5.3595 H   0  0  0  0  0  0  0  0  0  0  0  0
   22.9945   72.2752   -1.2161 O   0  0  0  0  0  0  0  0  0  0  0  0
   21.8327   73.0752   -0.4267 P   0  0  2  0  0  0  0  0  0  0  0  0
   20.6817   71.9559   -0.2265 O   0  0  0  0  0  0  0  0  0  0  0  0
   21.3679   74.3247   -1.1171 O   0  0  0  0  0  0  0  0  0  0  0  0
   22.4326   73.3122    1.0527 O   0  0  0  0  0  0  0  0  0  0  0  0
   24.4020   72.3421    1.9456 O   0  0  0  0  0  0  0  0  0  0  0  0
   22.2072   72.7008    5.4249 O   0  0  0  0  0  0  0  0  0  0  0  0
   24.4385   74.4506    4.9691 O   0  0  0  0  0  0  0  0  0  0  0  0
   20.8918   71.9460    2.9592 O   0  0  0  0  0  0  0  0  0  0  0  0
   22.6625   73.0885    4.1257 C   0  0  1  0  0  0  0  0  0  0  0  0
   24.1782   73.2875    4.1883 C   0  0  1  0  0  0  0  0  0  0  0  0
   22.3051   71.9923    3.1238 C   0  0  2  0  0  0  0  0  0  0  0  0
   24.7750   73.4427    2.7830 C   0  0  1  0  0  0  0  0  0  0  0  0
   22.9890   72.2160    1.7739 C   0  0  1  0  0  0  0  0  0  0  0  0
   22.4307   73.3929    6.0657 H   0  0  0  0  0  0  0  0  0  0  0  0
   24.0560   74.3399    5.8538 H   0  0  0  0  0  0  0  0  0  0  0  0
   20.4706   71.8037    3.8207 H   0  0  0  0  0  0  0  0  0  0  0  0
   26.7672   72.3788    3.5628 O   0  0  0  0  0  0  0  0  0  0  0  0
   26.3013   73.4844    2.8113 C   0  0  0  0  0  0  0  0  0  0  0  0
   27.7372   72.3922    3.5891 H   0  0  0  0  0  0  0  0  0  0  0  0
 25 28  1  0
 25 24  1  0
 25 26  1  1
 25 27  2  0
  1  4  1  0
  1 24  1  0
  1  2  1  6
  1  3  2  0
  6 11  1  0
  6 12  1  0
 29 36  1  0
 29 37  1  0
  9  7  1  6
  7 13  1  0
 10  8  1  6
  8 14  1  0
 37 28  1  1
  4  5  1  0
 33 30  1  1
 30 38  1  0
 34 31  1  1
 31 39  1  0
 35 32  1  6
 32 40  1  0
 41 42  1  0
 41 43  1  0
 15 19  2  0
 16 22  2  0
 12 17  1  1
 17 19  1  0
 17 20  1  0
 18 19  1  0
 18 22  1  0
 18 23  1  0
  9 10  1  0
  9 11  1  0
 10 12  1  0
 11  5  1  1
 33 34  1  0
 33 35  1  0
 34 36  1  0
 35 37  1  0
 36 42  1  1
 20 21  2  0
 21 22  1  0
M  CHG  2   2  -1  26  -1
M  END
>  <COMPND>  (138) 
    8629 

>  <AUTHOR>  (138) 
    GENERATED BY OPEN BABEL 3.1.1

>  <MASTER>  (138) 
        0    0    0    0    0    0    0    0   58    0   58    0

>  <minimizedAffinity>  (138) 
-7.26987

>  <CNNscore>  (138) 
0.5127184987

>  <CNNaffinity>  (138) 
4.0839195251

>  <CNN_VS>  (138) 
2.0939011574

>  <CNNaffinity_variance>  (138) 
0.2624832690

$$$$
139
     RDKit          3D

 43 45  0  0  0  0  0  0  0  0999 V2000
   23.0425   71.9032   -2.9831 P   0  0  2  0  0  0  0  0  0  0  0  0
   24.2443   70.8210   -3.0283 O   0  0  0  0  0  0  0  0  0  0  0  0
   23.1376   72.9989   -4.0038 O   0  0  0  0  0  0  0  0  0  0  0  0
   23.0098   72.3830   -1.4382 O   0  0  0  0  0  0  0  0  0  0  0  0
   23.6336   71.5658   -0.4631 C   0  0  0  0  0  0  0  0  0  0  0  0
   23.2739   70.5838    1.7002 O   0  0  0  0  0  0  0  0  0  0  0  0
   20.4845   71.6694    1.5221 O   0  0  0  0  0  0  0  0  0  0  0  0
   21.7222   73.4745    3.1488 O   0  0  0  0  0  0  0  0  0  0  0  0
   21.7060   72.2393    1.0547 C   0  0  1  0  0  0  0  0  0  0  0  0
   22.5180   72.7694    2.2181 C   0  0  2  0  0  0  0  0  0  0  0  0
   22.5866   71.1065    0.5423 C   0  0  1  0  0  0  0  0  0  0  0  0
   23.1058   71.4946    2.7989 C   0  0  2  0  0  0  0  0  0  0  0  0
   19.9054   72.3739    1.8541 H   0  0  0  0  0  0  0  0  0  0  0  0
   21.3714   74.2770    2.7321 H   0  0  0  0  0  0  0  0  0  0  0  0
   23.5840   71.2748    5.5739 O   0  0  0  0  0  0  0  0  0  0  0  0
   28.0360   72.3590    5.0783 O   0  0  0  0  0  0  0  0  0  0  0  0
   24.3805   71.7136    3.4222 N   0  0  0  0  0  0  0  0  0  0  0  0
   25.8004   71.8147    5.3249 N   0  0  0  0  0  0  0  0  0  0  0  0
   24.5138   71.5788    4.8238 C   0  0  0  0  0  0  0  0  0  0  0  0
   25.4816   72.0577    2.6456 C   0  0  0  0  0  0  0  0  0  0  0  0
   26.7015   72.2805    3.1390 C   0  0  0  0  0  0  0  0  0  0  0  0
   26.9261   72.1603    4.5940 C   0  0  0  0  0  0  0  0  0  0  0  0
   25.9170   71.7269    6.2987 H   0  0  0  0  0  0  0  0  0  0  0  0
   21.7196   70.9824   -3.1057 O   0  0  0  0  0  0  0  0  0  0  0  0
   20.2034   71.2304   -2.6032 P   0  0  2  0  0  0  0  0  0  0  0  0
   20.0982   72.8429   -2.5226 O   0  0  0  0  0  0  0  0  0  0  0  0
   19.8549   70.5225   -1.3259 O   0  0  0  0  0  0  0  0  0  0  0  0
   19.2831   70.8245   -3.8654 O   0  0  0  0  0  0  0  0  0  0  0  0
   17.5884   72.1140   -4.9054 O   0  0  0  0  0  0  0  0  0  0  0  0
   15.9891   68.3484   -5.4650 O   0  0  0  0  0  0  0  0  0  0  0  0
   17.0923   69.7676   -7.7049 O   0  0  0  0  0  0  0  0  0  0  0  0
   17.3517   68.9855   -2.9918 O   0  0  0  0  0  0  0  0  0  0  0  0
   17.0364   69.3163   -5.3567 C   0  0  1  0  0  0  0  0  0  0  0  0
   16.8269   70.3733   -6.4428 C   0  0  1  0  0  0  0  0  0  0  0  0
   16.9856   69.9535   -3.9693 C   0  0  2  0  0  0  0  0  0  0  0  0
   17.7482   71.5811   -6.2254 C   0  0  1  0  0  0  0  0  0  0  0  0
   17.9017   71.1750   -3.8750 C   0  0  1  0  0  0  0  0  0  0  0  0
   16.0160   67.9397   -6.3435 H   0  0  0  0  0  0  0  0  0  0  0  0
   16.5043   69.0061   -7.8295 H   0  0  0  0  0  0  0  0  0  0  0  0
   16.7643   68.2175   -3.0617 H   0  0  0  0  0  0  0  0  0  0  0  0
   18.0207   72.3915   -8.4565 O   0  0  0  0  0  0  0  0  0  0  0  0
   17.4461   72.7143   -7.2035 C   0  0  0  0  0  0  0  0  0  0  0  0
   17.8361   73.1038   -9.0893 H   0  0  0  0  0  0  0  0  0  0  0  0
 25 28  1  0
 25 24  1  0
 25 26  1  1
 25 27  2  0
  1  4  1  0
  1 24  1  0
  1  2  1  1
  1  3  2  0
  6 11  1  0
  6 12  1  0
 29 36  1  0
 29 37  1  0
  9  7  1  1
  7 13  1  0
 10  8  1  1
  8 14  1  0
 37 28  1  6
  4  5  1  0
 33 30  1  1
 30 38  1  0
 34 31  1  6
 31 39  1  0
 35 32  1  1
 32 40  1  0
 41 42  1  0
 41 43  1  0
 15 19  2  0
 16 22  2  0
 12 17  1  6
 17 19  1  0
 17 20  1  0
 18 19  1  0
 18 22  1  0
 18 23  1  0
  9 10  1  0
  9 11  1  0
 10 12  1  0
 11  5  1  6
 33 34  1  0
 33 35  1  0
 34 36  1  0
 35 37  1  0
 36 42  1  6
 20 21  2  0
 21 22  1  0
M  CHG  2   2  -1  26  -1
M  END
>  <COMPND>  (139) 
    8629 

>  <AUTHOR>  (139) 
    GENERATED BY OPEN BABEL 3.1.1

>  <MASTER>  (139) 
        0    0    0    0    0    0    0    0   58    0   58    0

>  <minimizedAffinity>  (139) 
-7.62002

>  <CNNscore>  (139) 
0.4900632501

>  <CNNaffinity>  (139) 
4.1357226372

>  <CNN_VS>  (139) 
2.0267655849

>  <CNNaffinity_variance>  (139) 
0.1203715652

$$$$
140
     RDKit          3D

 43 45  0  0  0  0  0  0  0  0999 V2000
   22.7640   73.6625   -3.4891 P   0  0  2  0  0  0  0  0  0  0  0  0
   24.1073   73.7170   -4.3891 O   0  0  0  0  0  0  0  0  0  0  0  0
   22.3948   74.9551   -2.8226 O   0  0  0  0  0  0  0  0  0  0  0  0
   23.0107   72.4069   -2.4989 O   0  0  0  0  0  0  0  0  0  0  0  0
   22.0132   72.0940   -1.5424 C   0  0  0  0  0  0  0  0  0  0  0  0
   23.0276   73.0459    0.4168 O   0  0  0  0  0  0  0  0  0  0  0  0
   22.5896   70.3771    1.7117 O   0  0  0  0  0  0  0  0  0  0  0  0
   20.5378   71.8679    2.7138 O   0  0  0  0  0  0  0  0  0  0  0  0
   21.7679   71.0707    0.7741 C   0  0  1  0  0  0  0  0  0  0  0  0
   21.0587   72.2256    1.4499 C   0  0  2  0  0  0  0  0  0  0  0  0
   22.6826   71.7906   -0.2090 C   0  0  1  0  0  0  0  0  0  0  0  0
   22.1651   73.2623    1.5457 C   0  0  2  0  0  0  0  0  0  0  0  0
   22.0276   69.9092    2.3498 H   0  0  0  0  0  0  0  0  0  0  0  0
   19.8376   71.2065    2.5997 H   0  0  0  0  0  0  0  0  0  0  0  0
   22.5917   75.1989    3.5570 O   0  0  0  0  0  0  0  0  0  0  0  0
   20.1867   78.3858    1.2547 O   0  0  0  0  0  0  0  0  0  0  0  0
   21.6622   74.6062    1.4975 N   0  0  0  0  0  0  0  0  0  0  0  0
   21.3940   76.7842    2.4089 N   0  0  0  0  0  0  0  0  0  0  0  0
   21.9322   75.4998    2.5600 C   0  0  0  0  0  0  0  0  0  0  0  0
   20.9107   75.0261    0.4053 C   0  0  0  0  0  0  0  0  0  0  0  0
   20.4035   76.2539    0.2770 C   0  0  0  0  0  0  0  0  0  0  0  0
   20.6397   77.2487    1.3431 C   0  0  0  0  0  0  0  0  0  0  0  0
   21.5689   77.4238    3.1370 H   0  0  0  0  0  0  0  0  0  0  0  0
   21.6566   73.0981   -4.5226 O   0  0  0  0  0  0  0  0  0  0  0  0
   21.5050   73.2828   -6.1213 P   0  0  2  0  0  0  0  0  0  0  0  0
   22.7018   72.3706   -6.7154 O   0  0  0  0  0  0  0  0  0  0  0  0
   21.5292   74.7119   -6.5806 O   0  0  0  0  0  0  0  0  0  0  0  0
   20.1558   72.4817   -6.4989 O   0  0  0  0  0  0  0  0  0  0  0  0
   19.2345   70.3312   -6.1204 O   0  0  0  0  0  0  0  0  0  0  0  0
   18.6526   70.5895  -10.2003 O   0  0  0  0  0  0  0  0  0  0  0  0
   16.4006   70.8009   -8.4306 O   0  0  0  0  0  0  0  0  0  0  0  0
   21.0727   71.6489   -9.0170 O   0  0  0  0  0  0  0  0  0  0  0  0
   18.7358   71.0868   -8.8620 C   0  0  1  0  0  0  0  0  0  0  0  0
   17.6899   70.3598   -8.0144 C   0  0  1  0  0  0  0  0  0  0  0  0
   20.1405   70.8292   -8.3201 C   0  0  2  0  0  0  0  0  0  0  0  0
   17.8945   70.6421   -6.5199 C   0  0  1  0  0  0  0  0  0  0  0  0
   20.2229   71.0937   -6.8157 C   0  0  1  0  0  0  0  0  0  0  0  0
   17.7632   70.7504  -10.5504 H   0  0  0  0  0  0  0  0  0  0  0  0
   16.2844   70.6173   -9.3761 H   0  0  0  0  0  0  0  0  0  0  0  0
   21.0110   71.4718   -9.9682 H   0  0  0  0  0  0  0  0  0  0  0  0
   15.9501   69.2545   -6.4690 O   0  0  0  0  0  0  0  0  0  0  0  0
   16.9630   69.8042   -5.6468 C   0  0  0  0  0  0  0  0  0  0  0  0
   15.3499   68.7183   -5.9269 H   0  0  0  0  0  0  0  0  0  0  0  0
 25 28  1  0
 25 24  1  0
 25 26  1  6
 25 27  2  0
  1  4  1  0
  1 24  1  0
  1  2  1  6
  1  3  2  0
  6 11  1  0
  6 12  1  0
 29 36  1  0
 29 37  1  0
  9  7  1  1
  7 13  1  0
 10  8  1  1
  8 14  1  0
 37 28  1  6
  4  5  1  0
 33 30  1  6
 30 38  1  0
 34 31  1  6
 31 39  1  0
 35 32  1  6
 32 40  1  0
 41 42  1  0
 41 43  1  0
 15 19  2  0
 16 22  2  0
 12 17  1  6
 17 19  1  0
 17 20  1  0
 18 19  1  0
 18 22  1  0
 18 23  1  0
  9 10  1  0
  9 11  1  0
 10 12  1  0
 11  5  1  6
 33 34  1  0
 33 35  1  0
 34 36  1  0
 35 37  1  0
 36 42  1  1
 20 21  2  0
 21 22  1  0
M  CHG  2   2  -1  26  -1
M  END
>  <COMPND>  (140) 
    8629 

>  <AUTHOR>  (140) 
    GENERATED BY OPEN BABEL 3.1.1

>  <MASTER>  (140) 
        0    0    0    0    0    0    0    0   58    0   58    0

>  <minimizedAffinity>  (140) 
-6.66435

>  <CNNscore>  (140) 
0.4798119962

>  <CNNaffinity>  (140) 
4.1972818375

>  <CNN_VS>  (140) 
2.0139062405

>  <CNNaffinity_variance>  (140) 
0.2814165354

$$$$
141
     RDKit          3D

 43 45  0  0  0  0  0  0  0  0999 V2000
   22.9973   71.6887   -3.2286 P   0  0  2  0  0  0  0  0  0  0  0  0
   22.6659   72.1138   -4.7541 O   0  0  0  0  0  0  0  0  0  0  0  0
   24.2893   70.9485   -3.0434 O   0  0  0  0  0  0  0  0  0  0  0  0
   21.6650   70.9086   -2.7446 O   0  0  0  0  0  0  0  0  0  0  0  0
   20.7928   70.3841   -3.7306 C   0  0  0  0  0  0  0  0  0  0  0  0
   18.9494   71.5924   -4.6875 O   0  0  0  0  0  0  0  0  0  0  0  0
   17.2784   70.4057   -2.4989 O   0  0  0  0  0  0  0  0  0  0  0  0
   16.6552   68.8361   -4.6401 O   0  0  0  0  0  0  0  0  0  0  0  0
   18.3635   69.8256   -3.2210 C   0  0  1  0  0  0  0  0  0  0  0  0
   17.9247   69.4564   -4.6227 C   0  0  2  0  0  0  0  0  0  0  0  0
   19.3890   70.9207   -3.4867 C   0  0  1  0  0  0  0  0  0  0  0  0
   17.9253   70.8068   -5.3189 C   0  0  2  0  0  0  0  0  0  0  0  0
   16.6107   69.7252   -2.3172 H   0  0  0  0  0  0  0  0  0  0  0  0
   16.7068   67.9810   -4.1854 H   0  0  0  0  0  0  0  0  0  0  0  0
   16.0188   70.1634   -7.3012 O   0  0  0  0  0  0  0  0  0  0  0  0
   19.1585   70.4239  -10.6651 O   0  0  0  0  0  0  0  0  0  0  0  0
   18.2170   70.7001   -6.7207 N   0  0  0  0  0  0  0  0  0  0  0  0
   17.5836   70.2938   -8.9746 N   0  0  0  0  0  0  0  0  0  0  0  0
   17.1878   70.3707   -7.6332 C   0  0  0  0  0  0  0  0  0  0  0  0
   19.5116   70.9214   -7.1779 C   0  0  0  0  0  0  0  0  0  0  0  0
   19.8729   70.8429   -8.4602 C   0  0  0  0  0  0  0  0  0  0  0  0
   18.8576   70.5038   -9.4781 C   0  0  0  0  0  0  0  0  0  0  0  0
   16.8835   70.0653   -9.6283 H   0  0  0  0  0  0  0  0  0  0  0  0
   22.9060   73.0923   -2.4322 O   0  0  0  0  0  0  0  0  0  0  0  0
   22.0292   74.4199   -2.7179 P   0  0  2  0  0  0  0  0  0  0  0  0
   22.3423   75.3546   -1.4350 O   0  0  0  0  0  0  0  0  0  0  0  0
   20.5697   74.1553   -2.9498 O   0  0  0  0  0  0  0  0  0  0  0  0
   22.7802   75.1490   -3.9464 O   0  0  0  0  0  0  0  0  0  0  0  0
   24.7951   76.3223   -3.5219 O   0  0  0  0  0  0  0  0  0  0  0  0
   23.7498   78.0823   -7.1080 O   0  0  0  0  0  0  0  0  0  0  0  0
   25.9453   76.2329   -7.0230 O   0  0  0  0  0  0  0  0  0  0  0  0
   21.7027   77.4349   -5.1665 O   0  0  0  0  0  0  0  0  0  0  0  0
   23.8550   77.0144   -6.1625 C   0  0  1  0  0  0  0  0  0  0  0  0
   25.3372   76.7866   -5.8594 C   0  0  1  0  0  0  0  0  0  0  0  0
   23.0989   77.3969   -4.8915 C   0  0  2  0  0  0  0  0  0  0  0  0
   25.5193   75.8446   -4.6616 C   0  0  1  0  0  0  0  0  0  0  0  0
   23.3877   76.4229   -3.7478 C   0  0  1  0  0  0  0  0  0  0  0  0
   24.2274   77.8456   -7.9176 H   0  0  0  0  0  0  0  0  0  0  0  0
   25.8228   76.8371   -7.7720 H   0  0  0  0  0  0  0  0  0  0  0  0
   21.5329   78.0552   -5.8919 H   0  0  0  0  0  0  0  0  0  0  0  0
   27.5895   74.7036   -5.0096 O   0  0  0  0  0  0  0  0  0  0  0  0
   26.9833   75.7279   -4.2431 C   0  0  0  0  0  0  0  0  0  0  0  0
   28.5218   74.6183   -4.7543 H   0  0  0  0  0  0  0  0  0  0  0  0
 25 28  1  0
 25 24  1  0
 25 26  1  1
 25 27  2  0
  1  4  1  0
  1 24  1  0
  1  2  1  6
  1  3  2  0
  6 11  1  0
  6 12  1  0
 29 36  1  0
 29 37  1  0
  9  7  1  1
  7 13  1  0
 10  8  1  1
  8 14  1  0
 37 28  1  6
  4  5  1  0
 33 30  1  6
 30 38  1  0
 34 31  1  6
 31 39  1  0
 35 32  1  6
 32 40  1  0
 41 42  1  0
 41 43  1  0
 15 19  2  0
 16 22  2  0
 12 17  1  6
 17 19  1  0
 17 20  1  0
 18 19  1  0
 18 22  1  0
 18 23  1  0
  9 10  1  0
  9 11  1  0
 10 12  1  0
 11  5  1  6
 33 34  1  0
 33 35  1  0
 34 36  1  0
 35 37  1  0
 36 42  1  1
 20 21  2  0
 21 22  1  0
M  CHG  2   2  -1  26  -1
M  END
>  <COMPND>  (141) 
    8629 

>  <AUTHOR>  (141) 
    GENERATED BY OPEN BABEL 3.1.1

>  <MASTER>  (141) 
        0    0    0    0    0    0    0    0   58    0   58    0

>  <minimizedAffinity>  (141) 
-6.88286

>  <CNNscore>  (141) 
0.9400014877

>  <CNNaffinity>  (141) 
4.8186903000

>  <CNN_VS>  (141) 
4.5295758247

>  <CNNaffinity_variance>  (141) 
0.1890101880

$$$$
142
     RDKit          3D

 43 45  0  0  0  0  0  0  0  0999 V2000
   22.5020   71.6335   -2.5839 P   0  0  2  0  0  0  0  0  0  0  0  0
   22.5029   73.2465   -2.4592 O   0  0  0  0  0  0  0  0  0  0  0  0
   23.8454   71.0171   -2.8425 O   0  0  0  0  0  0  0  0  0  0  0  0
   21.3644   71.3303   -3.6938 O   0  0  0  0  0  0  0  0  0  0  0  0
   20.7113   72.4268   -4.3095 C   0  0  0  0  0  0  0  0  0  0  0  0
   18.5204   72.4718   -5.2952 O   0  0  0  0  0  0  0  0  0  0  0  0
   17.5639   71.1596   -2.7745 O   0  0  0  0  0  0  0  0  0  0  0  0
   17.7103   69.0660   -4.5158 O   0  0  0  0  0  0  0  0  0  0  0  0
   18.7931   70.9784   -3.4756 C   0  0  1  0  0  0  0  0  0  0  0  0
   18.5655   70.1693   -4.7354 C   0  0  2  0  0  0  0  0  0  0  0  0
   19.2164   72.3298   -4.0375 C   0  0  1  0  0  0  0  0  0  0  0  0
   17.9580   71.2032   -5.6683 C   0  0  2  0  0  0  0  0  0  0  0  0
   17.2736   70.3099   -2.4062 H   0  0  0  0  0  0  0  0  0  0  0  0
   18.1414   68.4370   -3.9164 H   0  0  0  0  0  0  0  0  0  0  0  0
   16.1059   70.2126   -7.5568 O   0  0  0  0  0  0  0  0  0  0  0  0
   19.2474   70.2473  -10.9288 O   0  0  0  0  0  0  0  0  0  0  0  0
   18.2649   70.9444   -7.0468 N   0  0  0  0  0  0  0  0  0  0  0  0
   17.6716   70.2308   -9.2343 N   0  0  0  0  0  0  0  0  0  0  0  0
   17.2629   70.4466   -7.9120 C   0  0  0  0  0  0  0  0  0  0  0  0
   19.5473   71.1845   -7.5281 C   0  0  0  0  0  0  0  0  0  0  0  0
   19.9213   70.9723   -8.7916 C   0  0  0  0  0  0  0  0  0  0  0  0
   18.9345   70.4528   -9.7602 C   0  0  0  0  0  0  0  0  0  0  0  0
   16.9904   69.8838   -9.8551 H   0  0  0  0  0  0  0  0  0  0  0  0
   21.7999   71.1629   -1.2061 O   0  0  0  0  0  0  0  0  0  0  0  0
   22.3080   71.2450    0.3263 P   0  0  2  0  0  0  0  0  0  0  0  0
   23.9096   71.4187    0.1773 O   0  0  0  0  0  0  0  0  0  0  0  0
   21.8877   70.0816    1.1771 O   0  0  0  0  0  0  0  0  0  0  0  0
   21.7894   72.6800    0.8523 O   0  0  0  0  0  0  0  0  0  0  0  0
   20.2444   73.0750    2.6054 O   0  0  0  0  0  0  0  0  0  0  0  0
   19.3834   76.3341    0.2205 O   0  0  0  0  0  0  0  0  0  0  0  0
   20.8004   76.7182    2.6889 O   0  0  0  0  0  0  0  0  0  0  0  0
   19.9802   73.7745   -0.9927 O   0  0  0  0  0  0  0  0  0  0  0  0
   20.2231   75.3430    0.8190 C   0  0  1  0  0  0  0  0  0  0  0  0
   20.1450   75.5024    2.3386 C   0  0  1  0  0  0  0  0  0  0  0  0
   19.7376   73.9572    0.3980 C   0  0  2  0  0  0  0  0  0  0  0  0
   20.8028   74.3152    3.0547 C   0  0  1  0  0  0  0  0  0  0  0  0
   20.4191   72.8507    1.2050 C   0  0  1  0  0  0  0  0  0  0  0  0
   19.6866   77.2164    0.4834 H   0  0  0  0  0  0  0  0  0  0  0  0
   20.3757   77.4598    2.2297 H   0  0  0  0  0  0  0  0  0  0  0  0
   19.5433   74.4810   -1.4926 H   0  0  0  0  0  0  0  0  0  0  0  0
   21.5844   75.2262    5.1206 O   0  0  0  0  0  0  0  0  0  0  0  0
   20.5983   74.3746    4.5669 C   0  0  0  0  0  0  0  0  0  0  0  0
   21.4664   75.2739    6.0826 H   0  0  0  0  0  0  0  0  0  0  0  0
 25 28  1  0
 25 24  1  0
 25 26  1  6
 25 27  2  0
  1  4  1  0
  1 24  1  0
  1  2  1  1
  1  3  2  0
  6 11  1  0
  6 12  1  0
 29 36  1  0
 29 37  1  0
  9  7  1  6
  7 13  1  0
 10  8  1  1
  8 14  1  0
 37 28  1  1
  4  5  1  0
 33 30  1  6
 30 38  1  0
 34 31  1  6
 31 39  1  0
 35 32  1  6
 32 40  1  0
 41 42  1  0
 41 43  1  0
 15 19  2  0
 16 22  2  0
 12 17  1  6
 17 19  1  0
 17 20  1  0
 18 19  1  0
 18 22  1  0
 18 23  1  0
  9 10  1  0
  9 11  1  0
 10 12  1  0
 11  5  1  6
 33 34  1  0
 33 35  1  0
 34 36  1  0
 35 37  1  0
 36 42  1  1
 20 21  2  0
 21 22  1  0
M  CHG  2   2  -1  26  -1
M  END
>  <COMPND>  (142) 
    8629 

>  <AUTHOR>  (142) 
    GENERATED BY OPEN BABEL 3.1.1

>  <MASTER>  (142) 
        0    0    0    0    0    0    0    0   58    0   58    0

>  <minimizedAffinity>  (142) 
-6.44297

>  <CNNscore>  (142) 
0.8981497288

>  <CNNaffinity>  (142) 
4.5864386559

>  <CNN_VS>  (142) 
4.1193084717

>  <CNNaffinity_variance>  (142) 
0.0367885418

$$$$
143
     RDKit          3D

 43 45  0  0  0  0  0  0  0  0999 V2000
   22.9165   71.6460   -2.6393 P   0  0  2  0  0  0  0  0  0  0  0  0
   23.0329   73.2074   -2.2319 O   0  0  0  0  0  0  0  0  0  0  0  0
   24.2029   71.0065   -3.0724 O   0  0  0  0  0  0  0  0  0  0  0  0
   21.7167   71.6162   -3.7245 O   0  0  0  0  0  0  0  0  0  0  0  0
   20.8217   70.5176   -3.7128 C   0  0  0  0  0  0  0  0  0  0  0  0
   18.9515   71.6797   -4.6750 O   0  0  0  0  0  0  0  0  0  0  0  0
   17.3138   70.4900   -2.4629 O   0  0  0  0  0  0  0  0  0  0  0  0
   16.7089   68.8824   -4.5811 O   0  0  0  0  0  0  0  0  0  0  0  0
   18.4058   69.9210   -3.1834 C   0  0  1  0  0  0  0  0  0  0  0  0
   17.9668   69.5262   -4.5781 C   0  0  2  0  0  0  0  0  0  0  0  0
   19.4095   71.0313   -3.4682 C   0  0  1  0  0  0  0  0  0  0  0  0
   17.9389   70.8674   -5.2911 C   0  0  2  0  0  0  0  0  0  0  0  0
   16.6597   69.7996   -2.2692 H   0  0  0  0  0  0  0  0  0  0  0  0
   16.7786   68.0341   -4.1160 H   0  0  0  0  0  0  0  0  0  0  0  0
   16.0316   70.1777   -7.2569 O   0  0  0  0  0  0  0  0  0  0  0  0
   19.1521   70.4396  -10.6385 O   0  0  0  0  0  0  0  0  0  0  0  0
   18.2255   70.7486   -6.6929 N   0  0  0  0  0  0  0  0  0  0  0  0
   17.5869   70.3089   -8.9391 N   0  0  0  0  0  0  0  0  0  0  0  0
   17.1963   70.3959   -7.5967 C   0  0  0  0  0  0  0  0  0  0  0  0
   19.5150   70.9810   -7.1588 C   0  0  0  0  0  0  0  0  0  0  0  0
   19.8714   70.8926   -8.4419 C   0  0  0  0  0  0  0  0  0  0  0  0
   18.8558   70.5292   -9.4510 C   0  0  0  0  0  0  0  0  0  0  0  0
   16.8867   70.0642   -9.5868 H   0  0  0  0  0  0  0  0  0  0  0  0
   22.2403   70.9786   -1.3316 O   0  0  0  0  0  0  0  0  0  0  0  0
   21.6384   71.6480    0.0110 P   0  0  2  0  0  0  0  0  0  0  0  0
   21.1121   70.3735    0.8573 O   0  0  0  0  0  0  0  0  0  0  0  0
   20.5954   72.6984   -0.2395 O   0  0  0  0  0  0  0  0  0  0  0  0
   22.9321   72.1702    0.8225 O   0  0  0  0  0  0  0  0  0  0  0  0
   22.4924   73.2330    2.8946 O   0  0  0  0  0  0  0  0  0  0  0  0
   26.3945   74.4634    2.3369 O   0  0  0  0  0  0  0  0  0  0  0  0
   25.8033   72.4839    4.3319 O   0  0  0  0  0  0  0  0  0  0  0  0
   24.5932   74.3054    0.0764 O   0  0  0  0  0  0  0  0  0  0  0  0
   25.2896   73.5587    2.2578 C   0  0  1  0  0  0  0  0  0  0  0  0
   24.8067   73.2661    3.6798 C   0  0  1  0  0  0  0  0  0  0  0  0
   24.1760   74.2017    1.4334 C   0  0  2  0  0  0  0  0  0  0  0  0
   23.4656   72.5202    3.6669 C   0  0  1  0  0  0  0  0  0  0  0  0
   22.8723   73.4070    1.5281 C   0  0  1  0  0  0  0  0  0  0  0  0
   27.1053   74.0609    2.8586 H   0  0  0  0  0  0  0  0  0  0  0  0
   26.6452   72.9660    4.3328 H   0  0  0  0  0  0  0  0  0  0  0  0
   25.4192   74.8108    0.0298 H   0  0  0  0  0  0  0  0  0  0  0  0
   23.4692   71.2111    5.6657 O   0  0  0  0  0  0  0  0  0  0  0  0
   22.8883   72.3572    5.0713 C   0  0  0  0  0  0  0  0  0  0  0  0
   23.1113   71.0950    6.5602 H   0  0  0  0  0  0  0  0  0  0  0  0
 25 28  1  0
 25 24  1  0
 25 26  1  1
 25 27  2  0
  1  4  1  0
  1 24  1  0
  1  2  1  1
  1  3  2  0
  6 11  1  0
  6 12  1  0
 29 36  1  0
 29 37  1  0
  9  7  1  1
  7 13  1  0
 10  8  1  1
  8 14  1  0
 37 28  1  1
  4  5  1  0
 33 30  1  1
 30 38  1  0
 34 31  1  6
 31 39  1  0
 35 32  1  6
 32 40  1  0
 41 42  1  0
 41 43  1  0
 15 19  2  0
 16 22  2  0
 12 17  1  6
 17 19  1  0
 17 20  1  0
 18 19  1  0
 18 22  1  0
 18 23  1  0
  9 10  1  0
  9 11  1  0
 10 12  1  0
 11  5  1  6
 33 34  1  0
 33 35  1  0
 34 36  1  0
 35 37  1  0
 36 42  1  1
 20 21  2  0
 21 22  1  0
M  CHG  2   2  -1  26  -1
M  END
>  <COMPND>  (143) 
    8629 

>  <AUTHOR>  (143) 
    GENERATED BY OPEN BABEL 3.1.1

>  <MASTER>  (143) 
        0    0    0    0    0    0    0    0   58    0   58    0

>  <minimizedAffinity>  (143) 
-7.96847

>  <CNNscore>  (143) 
0.8961426616

>  <CNNaffinity>  (143) 
4.7430696487

>  <CNN_VS>  (143) 
4.2504668236

>  <CNNaffinity_variance>  (143) 
0.0395072177

$$$$
144
     RDKit          3D

 43 45  0  0  0  0  0  0  0  0999 V2000
   23.1775   71.7490   -2.4457 P   0  0  2  0  0  0  0  0  0  0  0  0
   23.6390   73.2412   -2.0242 O   0  0  0  0  0  0  0  0  0  0  0  0
   24.2274   70.9338   -3.1418 O   0  0  0  0  0  0  0  0  0  0  0  0
   21.8078   71.9854   -3.2738 O   0  0  0  0  0  0  0  0  0  0  0  0
   21.0280   70.8564   -3.6274 C   0  0  0  0  0  0  0  0  0  0  0  0
   18.9781   71.7333   -4.5233 O   0  0  0  0  0  0  0  0  0  0  0  0
   17.6026   70.3050   -2.2742 O   0  0  0  0  0  0  0  0  0  0  0  0
   17.1770   68.6348   -4.3875 O   0  0  0  0  0  0  0  0  0  0  0  0
   18.7440   69.9068   -3.0317 C   0  0  1  0  0  0  0  0  0  0  0  0
   18.3256   69.4574   -4.4162 C   0  0  2  0  0  0  0  0  0  0  0  0
   19.5635   71.1545   -3.3365 C   0  0  1  0  0  0  0  0  0  0  0  0
   18.0781   70.7828   -5.1162 C   0  0  2  0  0  0  0  0  0  0  0  0
   17.0638   69.5247   -2.0672 H   0  0  0  0  0  0  0  0  0  0  0  0
   17.3854   67.8041   -3.9321 H   0  0  0  0  0  0  0  0  0  0  0  0
   16.2081   69.8966   -7.0387 O   0  0  0  0  0  0  0  0  0  0  0  0
   19.1779   70.5584  -10.5004 O   0  0  0  0  0  0  0  0  0  0  0  0
   18.3359   70.7137   -6.5269 N   0  0  0  0  0  0  0  0  0  0  0  0
   17.6883   70.2270   -8.7608 N   0  0  0  0  0  0  0  0  0  0  0  0
   17.3292   70.2531   -7.4072 C   0  0  0  0  0  0  0  0  0  0  0  0
   19.5756   71.1003   -7.0246 C   0  0  0  0  0  0  0  0  0  0  0  0
   19.9027   71.0682   -8.3181 C   0  0  0  0  0  0  0  0  0  0  0  0
   18.9076   70.5997   -9.3041 C   0  0  0  0  0  0  0  0  0  0  0  0
   17.0029   69.9094   -9.3926 H   0  0  0  0  0  0  0  0  0  0  0  0
   22.6548   71.1224   -1.0503 O   0  0  0  0  0  0  0  0  0  0  0  0
   21.5973   71.6841    0.0355 P   0  0  2  0  0  0  0  0  0  0  0  0
   20.4362   70.5575    0.0399 O   0  0  0  0  0  0  0  0  0  0  0  0
   21.1086   73.0759   -0.2443 O   0  0  0  0  0  0  0  0  0  0  0  0
   22.3401   71.5094    1.4577 O   0  0  0  0  0  0  0  0  0  0  0  0
   23.1221   73.3114    2.7834 O   0  0  0  0  0  0  0  0  0  0  0  0
   25.7677   70.3898    4.0148 O   0  0  0  0  0  0  0  0  0  0  0  0
   23.6849   71.2569    5.7919 O   0  0  0  0  0  0  0  0  0  0  0  0
   24.9607   70.5297    1.2383 O   0  0  0  0  0  0  0  0  0  0  0  0
   24.5086   70.9055    3.5741 C   0  0  1  0  0  0  0  0  0  0  0  0
   24.0324   71.9432    4.5925 C   0  0  1  0  0  0  0  0  0  0  0  0
   24.6850   71.5445    2.1979 C   0  0  2  0  0  0  0  0  0  0  0  0
   22.8279   72.7306    4.0593 C   0  0  1  0  0  0  0  0  0  0  0  0
   23.4484   72.3440    1.7836 C   0  0  1  0  0  0  0  0  0  0  0  0
   25.6625   69.9823    4.8879 H   0  0  0  0  0  0  0  0  0  0  0  0
   24.4539   70.7633    6.1179 H   0  0  0  0  0  0  0  0  0  0  0  0
   25.7458   70.0310    1.5118 H   0  0  0  0  0  0  0  0  0  0  0  0
   21.6671   73.3452    6.0552 O   0  0  0  0  0  0  0  0  0  0  0  0
   22.4352   73.8753    4.9907 C   0  0  0  0  0  0  0  0  0  0  0  0
   21.4103   74.0624    6.6563 H   0  0  0  0  0  0  0  0  0  0  0  0
 25 28  1  0
 25 24  1  0
 25 26  1  1
 25 27  2  0
  1  4  1  0
  1 24  1  0
  1  2  1  1
  1  3  2  0
  6 11  1  0
  6 12  1  0
 29 36  1  0
 29 37  1  0
  9  7  1  1
  7 13  1  0
 10  8  1  1
  8 14  1  0
 37 28  1  1
  4  5  1  0
 33 30  1  1
 30 38  1  0
 34 31  1  1
 31 39  1  0
 35 32  1  6
 32 40  1  0
 41 42  1  0
 41 43  1  0
 15 19  2  0
 16 22  2  0
 12 17  1  6
 17 19  1  0
 17 20  1  0
 18 19  1  0
 18 22  1  0
 18 23  1  0
  9 10  1  0
  9 11  1  0
 10 12  1  0
 11  5  1  6
 33 34  1  0
 33 35  1  0
 34 36  1  0
 35 37  1  0
 36 42  1  1
 20 21  2  0
 21 22  1  0
M  CHG  2   2  -1  26  -1
M  END
>  <COMPND>  (144) 
    8629 

>  <AUTHOR>  (144) 
    GENERATED BY OPEN BABEL 3.1.1

>  <MASTER>  (144) 
        0    0    0    0    0    0    0    0   58    0   58    0

>  <minimizedAffinity>  (144) 
-8.30446

>  <CNNscore>  (144) 
0.8755063415

>  <CNNaffinity>  (144) 
4.7196993828

>  <CNN_VS>  (144) 
4.1321268082

>  <CNNaffinity_variance>  (144) 
0.1029079556

$$$$
145
     RDKit          3D

 43 45  0  0  0  0  0  0  0  0999 V2000
   20.1659   72.2037   -1.1928 P   0  0  2  0  0  0  0  0  0  0  0  0
   20.3543   70.6895   -0.6550 O   0  0  0  0  0  0  0  0  0  0  0  0
   18.9323   72.9020   -0.7009 O   0  0  0  0  0  0  0  0  0  0  0  0
   20.3016   72.0651   -2.7991 O   0  0  0  0  0  0  0  0  0  0  0  0
   19.6620   70.9752   -3.4401 C   0  0  0  0  0  0  0  0  0  0  0  0
   17.8468   71.8161   -4.7711 O   0  0  0  0  0  0  0  0  0  0  0  0
   16.0339   70.3324   -2.8995 O   0  0  0  0  0  0  0  0  0  0  0  0
   16.1373   68.6769   -5.0641 O   0  0  0  0  0  0  0  0  0  0  0  0
   17.3263   69.9683   -3.3818 C   0  0  1  0  0  0  0  0  0  0  0  0
   17.2424   69.5253   -4.8276 C   0  0  2  0  0  0  0  0  0  0  0  0
   18.1629   71.2373   -3.4860 C   0  0  1  0  0  0  0  0  0  0  0  0
   17.1273   70.8526   -5.5577 C   0  0  2  0  0  0  0  0  0  0  0  0
   15.4815   69.5380   -2.8243 H   0  0  0  0  0  0  0  0  0  0  0  0
   16.2576   67.8461   -4.5784 H   0  0  0  0  0  0  0  0  0  0  0  0
   15.6978   70.1623   -7.8939 O   0  0  0  0  0  0  0  0  0  0  0  0
   19.4230   70.7019  -10.5533 O   0  0  0  0  0  0  0  0  0  0  0  0
   17.6987   70.8050   -6.8740 N   0  0  0  0  0  0  0  0  0  0  0  0
   17.5538   70.4317   -9.2162 N   0  0  0  0  0  0  0  0  0  0  0  0
   16.8944   70.4455   -7.9804 C   0  0  0  0  0  0  0  0  0  0  0  0
   19.0423   71.1131   -7.0577 C   0  0  0  0  0  0  0  0  0  0  0  0
   19.6563   71.0940   -8.2426 C   0  0  0  0  0  0  0  0  0  0  0  0
   18.8872   70.7287   -9.4497 C   0  0  0  0  0  0  0  0  0  0  0  0
   17.0135   70.1838  -10.0013 H   0  0  0  0  0  0  0  0  0  0  0  0
   21.5549   72.9147   -0.7708 O   0  0  0  0  0  0  0  0  0  0  0  0
   23.0894   72.5218   -1.0933 P   0  0  2  0  0  0  0  0  0  0  0  0
   23.6914   73.8773   -1.7397 O   0  0  0  0  0  0  0  0  0  0  0  0
   23.2442   71.3027   -1.9557 O   0  0  0  0  0  0  0  0  0  0  0  0
   23.7957   72.4116    0.3537 O   0  0  0  0  0  0  0  0  0  0  0  0
   25.1550   70.7518    1.3607 O   0  0  0  0  0  0  0  0  0  0  0  0
   22.8074   71.7425    4.6100 O   0  0  0  0  0  0  0  0  0  0  0  0
   25.5560   72.5722    4.5410 O   0  0  0  0  0  0  0  0  0  0  0  0
   21.6369   71.6252    1.9650 O   0  0  0  0  0  0  0  0  0  0  0  0
   23.5339   71.9908    3.4034 C   0  0  1  0  0  0  0  0  0  0  0  0
   24.9989   71.6187    3.6405 C   0  0  1  0  0  0  0  0  0  0  0  0
   22.9393   71.1443    2.2795 C   0  0  2  0  0  0  0  0  0  0  0  0
   25.7867   71.6035    2.3236 C   0  0  1  0  0  0  0  0  0  0  0  0
   23.8251   71.1586    1.0324 C   0  0  1  0  0  0  0  0  0  0  0  0
   23.1796   72.2773    5.3275 H   0  0  0  0  0  0  0  0  0  0  0  0
   25.0491   72.5721    5.3682 H   0  0  0  0  0  0  0  0  0  0  0  0
   21.0858   71.6109    2.7625 H   0  0  0  0  0  0  0  0  0  0  0  0
   27.1910   70.0802    3.5138 O   0  0  0  0  0  0  0  0  0  0  0  0
   27.2096   71.0828    2.5144 C   0  0  0  0  0  0  0  0  0  0  0  0
   28.0899   69.7393    3.6457 H   0  0  0  0  0  0  0  0  0  0  0  0
 25 28  1  0
 25 24  1  0
 25 26  1  6
 25 27  2  0
  1  4  1  0
  1 24  1  0
  1  2  1  1
  1  3  2  0
  6 11  1  0
  6 12  1  0
 29 36  1  0
 29 37  1  0
  9  7  1  6
  7 13  1  0
 10  8  1  1
  8 14  1  0
 37 28  1  1
  4  5  1  0
 33 30  1  1
 30 38  1  0
 34 31  1  1
 31 39  1  0
 35 32  1  6
 32 40  1  0
 41 42  1  0
 41 43  1  0
 15 19  2  0
 16 22  2  0
 12 17  1  6
 17 19  1  0
 17 20  1  0
 18 19  1  0
 18 22  1  0
 18 23  1  0
  9 10  1  0
  9 11  1  0
 10 12  1  0
 11  5  1  6
 33 34  1  0
 33 35  1  0
 34 36  1  0
 35 37  1  0
 36 42  1  1
 20 21  2  0
 21 22  1  0
M  CHG  2   2  -1  26  -1
M  END
>  <COMPND>  (145) 
    8629 

>  <AUTHOR>  (145) 
    GENERATED BY OPEN BABEL 3.1.1

>  <MASTER>  (145) 
        0    0    0    0    0    0    0    0   58    0   58    0

>  <minimizedAffinity>  (145) 
-7.75389

>  <CNNscore>  (145) 
0.8530030251

>  <CNNaffinity>  (145) 
4.7012629509

>  <CNN_VS>  (145) 
4.0101914406

>  <CNNaffinity_variance>  (145) 
0.0821103975

$$$$
146
     RDKit          3D

 43 45  0  0  0  0  0  0  0  0999 V2000
   20.9997   72.1293   -1.5271 P   0  0  2  0  0  0  0  0  0  0  0  0
   20.5891   73.6760   -1.7650 O   0  0  0  0  0  0  0  0  0  0  0  0
   22.4485   71.8153   -1.7592 O   0  0  0  0  0  0  0  0  0  0  0  0
   19.9472   71.3036   -2.4372 O   0  0  0  0  0  0  0  0  0  0  0  0
   19.5184   71.8745   -3.6612 C   0  0  0  0  0  0  0  0  0  0  0  0
   17.6113   72.0510   -5.1122 O   0  0  0  0  0  0  0  0  0  0  0  0
   16.1089   70.5231   -3.0148 O   0  0  0  0  0  0  0  0  0  0  0  0
   16.6600   68.6015   -4.8697 O   0  0  0  0  0  0  0  0  0  0  0  0
   17.4668   70.3875   -3.4307 C   0  0  1  0  0  0  0  0  0  0  0  0
   17.5376   69.7055   -4.7810 C   0  0  2  0  0  0  0  0  0  0  0  0
   18.0014   71.7784   -3.7485 C   0  0  1  0  0  0  0  0  0  0  0  0
   17.1552   70.8335   -5.7242 C   0  0  2  0  0  0  0  0  0  0  0  0
   15.7459   69.6476   -2.8060 H   0  0  0  0  0  0  0  0  0  0  0  0
   16.9452   67.9111   -4.2510 H   0  0  0  0  0  0  0  0  0  0  0  0
   15.7398   70.4132   -8.1321 O   0  0  0  0  0  0  0  0  0  0  0  0
   19.6220   70.3390  -10.6150 O   0  0  0  0  0  0  0  0  0  0  0  0
   17.7709   70.7011   -7.0144 N   0  0  0  0  0  0  0  0  0  0  0  0
   17.6740   70.3767   -9.3664 N   0  0  0  0  0  0  0  0  0  0  0  0
   16.9698   70.4913   -8.1610 C   0  0  0  0  0  0  0  0  0  0  0  0
   19.1542   70.7798   -7.1336 C   0  0  0  0  0  0  0  0  0  0  0  0
   19.8105   70.6672   -8.2902 C   0  0  0  0  0  0  0  0  0  0  0  0
   19.0477   70.4467   -9.5359 C   0  0  0  0  0  0  0  0  0  0  0  0
   17.1367   70.2298  -10.1785 H   0  0  0  0  0  0  0  0  0  0  0  0
   20.4819   71.8431   -0.0228 O   0  0  0  0  0  0  0  0  0  0  0  0
   21.2871   71.7373    1.3749 P   0  0  2  0  0  0  0  0  0  0  0  0
   21.8719   70.2290    1.3530 O   0  0  0  0  0  0  0  0  0  0  0  0
   20.4627   72.0643    2.5862 O   0  0  0  0  0  0  0  0  0  0  0  0
   22.5819   72.6795    1.1728 O   0  0  0  0  0  0  0  0  0  0  0  0
   22.8559   74.2273    2.9465 O   0  0  0  0  0  0  0  0  0  0  0  0
   25.6415   75.7499    0.3058 O   0  0  0  0  0  0  0  0  0  0  0  0
   26.5285   74.3705    2.6634 O   0  0  0  0  0  0  0  0  0  0  0  0
   23.1293   74.7089   -0.6865 O   0  0  0  0  0  0  0  0  0  0  0  0
   24.8893   74.7229    0.9577 C   0  0  1  0  0  0  0  0  0  0  0  0
   25.1831   74.7920    2.4576 C   0  0  1  0  0  0  0  0  0  0  0  0
   23.4022   74.9471    0.6901 C   0  0  2  0  0  0  0  0  0  0  0  0
   24.2172   73.9032    3.2527 C   0  0  1  0  0  0  0  0  0  0  0  0
   22.5288   74.0481    1.5671 C   0  0  1  0  0  0  0  0  0  0  0  0
   26.5867   75.6131    0.4713 H   0  0  0  0  0  0  0  0  0  0  0  0
   27.1282   74.9395    2.1555 H   0  0  0  0  0  0  0  0  0  0  0  0
   23.6882   75.2842   -1.2311 H   0  0  0  0  0  0  0  0  0  0  0  0
   25.4683   73.2666    5.1862 O   0  0  0  0  0  0  0  0  0  0  0  0
   24.3889   74.0776    4.7601 C   0  0  0  0  0  0  0  0  0  0  0  0
   25.5896   73.3677    6.1437 H   0  0  0  0  0  0  0  0  0  0  0  0
 25 28  1  0
 25 24  1  0
 25 26  1  1
 25 27  2  0
  1  4  1  0
  1 24  1  0
  1  2  1  6
  1  3  2  0
  6 11  1  0
  6 12  1  0
 29 36  1  0
 29 37  1  0
  9  7  1  6
  7 13  1  0
 10  8  1  1
  8 14  1  0
 37 28  1  6
  4  5  1  0
 33 30  1  6
 30 38  1  0
 34 31  1  6
 31 39  1  0
 35 32  1  6
 32 40  1  0
 41 42  1  0
 41 43  1  0
 15 19  2  0
 16 22  2  0
 12 17  1  6
 17 19  1  0
 17 20  1  0
 18 19  1  0
 18 22  1  0
 18 23  1  0
  9 10  1  0
  9 11  1  0
 10 12  1  0
 11  5  1  6
 33 34  1  0
 33 35  1  0
 34 36  1  0
 35 37  1  0
 36 42  1  1
 20 21  2  0
 21 22  1  0
M  CHG  2   2  -1  26  -1
M  END
>  <COMPND>  (146) 
    8629 

>  <AUTHOR>  (146) 
    GENERATED BY OPEN BABEL 3.1.1

>  <MASTER>  (146) 
        0    0    0    0    0    0    0    0   58    0   58    0

>  <minimizedAffinity>  (146) 
-6.60777

>  <CNNscore>  (146) 
0.8480066657

>  <CNNaffinity>  (146) 
4.6079139709

>  <CNN_VS>  (146) 
3.9075417519

>  <CNNaffinity_variance>  (146) 
0.1328036636

$$$$
147
     RDKit          3D

 43 45  0  0  0  0  0  0  0  0999 V2000
   22.7311   71.7296   -2.8040 P   0  0  2  0  0  0  0  0  0  0  0  0
   22.9183   71.9454   -4.3965 O   0  0  0  0  0  0  0  0  0  0  0  0
   23.9363   71.1899   -2.0916 O   0  0  0  0  0  0  0  0  0  0  0  0
   21.3876   70.8354   -2.6885 O   0  0  0  0  0  0  0  0  0  0  0  0
   20.6448   70.5758   -3.8669 C   0  0  0  0  0  0  0  0  0  0  0  0
   18.8188   71.7245   -4.9252 O   0  0  0  0  0  0  0  0  0  0  0  0
   17.0940   70.6016   -2.7446 O   0  0  0  0  0  0  0  0  0  0  0  0
   16.5545   68.9445   -4.8420 O   0  0  0  0  0  0  0  0  0  0  0  0
   18.2072   70.0077   -3.4105 C   0  0  1  0  0  0  0  0  0  0  0  0
   17.8160   69.5803   -4.8097 C   0  0  2  0  0  0  0  0  0  0  0  0
   19.2283   71.1042   -3.6867 C   0  0  1  0  0  0  0  0  0  0  0  0
   17.8233   70.9031   -5.5569 C   0  0  2  0  0  0  0  0  0  0  0  0
   16.4284   69.9205   -2.5574 H   0  0  0  0  0  0  0  0  0  0  0  0
   16.6013   68.1079   -4.3535 H   0  0  0  0  0  0  0  0  0  0  0  0
   16.0007   70.1001   -7.5597 O   0  0  0  0  0  0  0  0  0  0  0  0
   19.2245   70.3356  -10.8450 O   0  0  0  0  0  0  0  0  0  0  0  0
   18.1594   70.7468   -6.9440 N   0  0  0  0  0  0  0  0  0  0  0  0
   17.6074   70.2182   -9.1939 N   0  0  0  0  0  0  0  0  0  0  0  0
   17.1702   70.3381   -7.8686 C   0  0  0  0  0  0  0  0  0  0  0  0
   19.4574   70.9982   -7.3751 C   0  0  0  0  0  0  0  0  0  0  0  0
   19.8585   70.8780   -8.6424 C   0  0  0  0  0  0  0  0  0  0  0  0
   18.8866   70.4555   -9.6714 C   0  0  0  0  0  0  0  0  0  0  0  0
   16.9356   69.9343   -9.8557 H   0  0  0  0  0  0  0  0  0  0  0  0
   22.2442   73.1845   -2.2949 O   0  0  0  0  0  0  0  0  0  0  0  0
   21.5942   73.6553   -0.8918 P   0  0  2  0  0  0  0  0  0  0  0  0
   21.9598   75.2299   -0.8233 O   0  0  0  0  0  0  0  0  0  0  0  0
   22.0532   72.8608    0.2964 O   0  0  0  0  0  0  0  0  0  0  0  0
   20.0008   73.6176   -1.1466 O   0  0  0  0  0  0  0  0  0  0  0  0
   18.7310   75.2720   -2.2723 O   0  0  0  0  0  0  0  0  0  0  0  0
   15.8467   73.8902    0.3396 O   0  0  0  0  0  0  0  0  0  0  0  0
   15.6637   73.2353   -2.4507 O   0  0  0  0  0  0  0  0  0  0  0  0
   18.5918   74.1439    1.2225 O   0  0  0  0  0  0  0  0  0  0  0  0
   16.9781   73.7814   -0.5284 C   0  0  1  0  0  0  0  0  0  0  0  0
   16.5511   74.2212   -1.9302 C   0  0  1  0  0  0  0  0  0  0  0  0
   18.0988   74.6761   -0.0023 C   0  0  2  0  0  0  0  0  0  0  0  0
   17.7661   74.3869   -2.8530 C   0  0  1  0  0  0  0  0  0  0  0  0
   19.2356   74.8130   -1.0167 C   0  0  1  0  0  0  0  0  0  0  0  0
   15.1316   73.3241    0.0114 H   0  0  0  0  0  0  0  0  0  0  0  0
   14.9011   73.1400   -1.8585 H   0  0  0  0  0  0  0  0  0  0  0  0
   17.8627   74.0625    1.8563 H   0  0  0  0  0  0  0  0  0  0  0  0
   16.6918   73.9844   -4.9489 O   0  0  0  0  0  0  0  0  0  0  0  0
   17.3791   74.9757   -4.2078 C   0  0  0  0  0  0  0  0  0  0  0  0
   16.4391   74.3451   -5.8136 H   0  0  0  0  0  0  0  0  0  0  0  0
 25 28  1  0
 25 24  1  0
 25 26  1  1
 25 27  2  0
  1  4  1  0
  1 24  1  0
  1  2  1  6
  1  3  2  0
  6 11  1  0
  6 12  1  0
 29 36  1  0
 29 37  1  0
  9  7  1  6
  7 13  1  0
 10  8  1  1
  8 14  1  0
 37 28  1  6
  4  5  1  0
 33 30  1  1
 30 38  1  0
 34 31  1  6
 31 39  1  0
 35 32  1  1
 32 40  1  0
 41 42  1  0
 41 43  1  0
 15 19  2  0
 16 22  2  0
 12 17  1  6
 17 19  1  0
 17 20  1  0
 18 19  1  0
 18 22  1  0
 18 23  1  0
  9 10  1  0
  9 11  1  0
 10 12  1  0
 11  5  1  6
 33 34  1  0
 33 35  1  0
 34 36  1  0
 35 37  1  0
 36 42  1  6
 20 21  2  0
 21 22  1  0
M  CHG  2   2  -1  26  -1
M  END
>  <COMPND>  (147) 
    8629 

>  <AUTHOR>  (147) 
    GENERATED BY OPEN BABEL 3.1.1

>  <MASTER>  (147) 
        0    0    0    0    0    0    0    0   58    0   58    0

>  <minimizedAffinity>  (147) 
-5.93833

>  <CNNscore>  (147) 
0.8448642492

>  <CNNaffinity>  (147) 
4.5499420166

>  <CNN_VS>  (147) 
3.8440833092

>  <CNNaffinity_variance>  (147) 
0.0423954353

$$$$
148
     RDKit          3D

 43 45  0  0  0  0  0  0  0  0999 V2000
   22.9671   71.6659   -3.1195 P   0  0  2  0  0  0  0  0  0  0  0  0
   22.5695   72.2518   -4.5741 O   0  0  0  0  0  0  0  0  0  0  0  0
   24.2878   70.9563   -3.0614 O   0  0  0  0  0  0  0  0  0  0  0  0
   21.6781   70.7879   -2.6889 O   0  0  0  0  0  0  0  0  0  0  0  0
   20.8034   70.3280   -3.7044 C   0  0  0  0  0  0  0  0  0  0  0  0
   18.9898   71.5840   -4.6567 O   0  0  0  0  0  0  0  0  0  0  0  0
   17.2920   70.4349   -2.4686 O   0  0  0  0  0  0  0  0  0  0  0  0
   16.6274   68.8859   -4.6123 O   0  0  0  0  0  0  0  0  0  0  0  0
   18.3615   69.8294   -3.1931 C   0  0  1  0  0  0  0  0  0  0  0  0
   17.9121   69.4742   -4.5950 C   0  0  2  0  0  0  0  0  0  0  0  0
   19.4137   70.8990   -3.4578 C   0  0  1  0  0  0  0  0  0  0  0  0
   17.9456   70.8255   -5.2885 C   0  0  2  0  0  0  0  0  0  0  0  0
   16.6077   69.7709   -2.2875 H   0  0  0  0  0  0  0  0  0  0  0  0
   16.6581   68.0287   -4.1594 H   0  0  0  0  0  0  0  0  0  0  0  0
   16.0239   70.2211   -7.2684 O   0  0  0  0  0  0  0  0  0  0  0  0
   19.1628   70.4238  -10.6370 O   0  0  0  0  0  0  0  0  0  0  0  0
   18.2330   70.7145   -6.6908 N   0  0  0  0  0  0  0  0  0  0  0  0
   17.5884   70.3227   -8.9441 N   0  0  0  0  0  0  0  0  0  0  0  0
   17.1962   70.4060   -7.6020 C   0  0  0  0  0  0  0  0  0  0  0  0
   19.5309   70.9111   -7.1498 C   0  0  0  0  0  0  0  0  0  0  0  0
   19.8887   70.8269   -8.4329 C   0  0  0  0  0  0  0  0  0  0  0  0
   18.8654   70.5084   -9.4495 C   0  0  0  0  0  0  0  0  0  0  0  0
   16.8829   70.1085   -9.5969 H   0  0  0  0  0  0  0  0  0  0  0  0
   22.8584   72.9642   -2.1626 O   0  0  0  0  0  0  0  0  0  0  0  0
   21.5774   73.8268   -1.6852 P   0  0  2  0  0  0  0  0  0  0  0  0
   22.2409   75.0548   -0.8671 O   0  0  0  0  0  0  0  0  0  0  0  0
   20.5619   73.0412   -0.9070 O   0  0  0  0  0  0  0  0  0  0  0  0
   21.0096   74.4982   -3.0386 O   0  0  0  0  0  0  0  0  0  0  0  0
   22.3637   75.9477   -4.3356 O   0  0  0  0  0  0  0  0  0  0  0  0
   18.6421   77.2198   -5.5937 O   0  0  0  0  0  0  0  0  0  0  0  0
   20.2873   75.6740   -7.3691 O   0  0  0  0  0  0  0  0  0  0  0  0
   19.0631   76.5078   -2.8196 O   0  0  0  0  0  0  0  0  0  0  0  0
   19.6128   76.2667   -5.1522 C   0  0  1  0  0  0  0  0  0  0  0  0
   20.7651   76.2545   -6.1587 C   0  0  1  0  0  0  0  0  0  0  0  0
   20.1136   76.6697   -3.7665 C   0  0  2  0  0  0  0  0  0  0  0  0
   21.9621   75.4590   -5.6207 C   0  0  1  0  0  0  0  0  0  0  0  0
   21.3359   75.8508   -3.3475 C   0  0  1  0  0  0  0  0  0  0  0  0
   18.3197   76.9695   -6.4729 H   0  0  0  0  0  0  0  0  0  0  0  0
   19.5313   76.1854   -7.6980 H   0  0  0  0  0  0  0  0  0  0  0  0
   18.2953   77.0313   -3.0960 H   0  0  0  0  0  0  0  0  0  0  0  0
   23.1795   74.4521   -7.4132 O   0  0  0  0  0  0  0  0  0  0  0  0
   23.1782   75.5651   -6.5383 C   0  0  0  0  0  0  0  0  0  0  0  0
   23.9479   74.5065   -8.0034 H   0  0  0  0  0  0  0  0  0  0  0  0
 25 28  1  0
 25 24  1  0
 25 26  1  1
 25 27  2  0
  1  4  1  0
  1 24  1  0
  1  2  1  6
  1  3  2  0
  6 11  1  0
  6 12  1  0
 29 36  1  0
 29 37  1  0
  9  7  1  1
  7 13  1  0
 10  8  1  1
  8 14  1  0
 37 28  1  6
  4  5  1  0
 33 30  1  6
 30 38  1  0
 34 31  1  6
 31 39  1  0
 35 32  1  1
 32 40  1  0
 41 42  1  0
 41 43  1  0
 15 19  2  0
 16 22  2  0
 12 17  1  6
 17 19  1  0
 17 20  1  0
 18 19  1  0
 18 22  1  0
 18 23  1  0
  9 10  1  0
  9 11  1  0
 10 12  1  0
 11  5  1  6
 33 34  1  0
 33 35  1  0
 34 36  1  0
 35 37  1  0
 36 42  1  6
 20 21  2  0
 21 22  1  0
M  CHG  2   2  -1  26  -1
M  END
>  <COMPND>  (148) 
    8629 

>  <AUTHOR>  (148) 
    GENERATED BY OPEN BABEL 3.1.1

>  <MASTER>  (148) 
        0    0    0    0    0    0    0    0   58    0   58    0

>  <minimizedAffinity>  (148) 
-6.52241

>  <CNNscore>  (148) 
0.8401532769

>  <CNNaffinity>  (148) 
4.5820970535

>  <CNN_VS>  (148) 
3.8496639729

>  <CNNaffinity_variance>  (148) 
0.3134228885

$$$$
149
     RDKit          3D

 43 45  0  0  0  0  0  0  0  0999 V2000
   22.8032   72.8671   -4.1992 P   0  0  2  0  0  0  0  0  0  0  0  0
   22.0871   72.8567   -5.6498 O   0  0  0  0  0  0  0  0  0  0  0  0
   24.2469   72.4584   -4.2021 O   0  0  0  0  0  0  0  0  0  0  0  0
   21.8216   71.9725   -3.2750 O   0  0  0  0  0  0  0  0  0  0  0  0
   20.9851   71.0174   -3.9043 C   0  0  0  0  0  0  0  0  0  0  0  0
   18.9631   71.9019   -4.8545 O   0  0  0  0  0  0  0  0  0  0  0  0
   17.5447   70.6545   -2.5258 O   0  0  0  0  0  0  0  0  0  0  0  0
   17.0670   68.8744   -4.5357 O   0  0  0  0  0  0  0  0  0  0  0  0
   18.6730   70.1764   -3.2563 C   0  0  1  0  0  0  0  0  0  0  0  0
   18.2405   69.6579   -4.6119 C   0  0  2  0  0  0  0  0  0  0  0  0
   19.5307   71.3776   -3.6341 C   0  0  1  0  0  0  0  0  0  0  0  0
   18.0339   70.9459   -5.3907 C   0  0  2  0  0  0  0  0  0  0  0  0
   16.9821   69.9051   -2.2732 H   0  0  0  0  0  0  0  0  0  0  0  0
   17.2497   68.0665   -4.0310 H   0  0  0  0  0  0  0  0  0  0  0  0
   16.1278   70.0323   -7.2643 O   0  0  0  0  0  0  0  0  0  0  0  0
   19.1251   70.3631  -10.7497 O   0  0  0  0  0  0  0  0  0  0  0  0
   18.2891   70.7841   -6.7943 N   0  0  0  0  0  0  0  0  0  0  0  0
   17.6217   70.1979   -8.9982 N   0  0  0  0  0  0  0  0  0  0  0  0
   17.2635   70.3178   -7.6494 C   0  0  0  0  0  0  0  0  0  0  0  0
   19.5447   71.0870   -7.3098 C   0  0  0  0  0  0  0  0  0  0  0  0
   19.8706   70.9660   -8.5983 C   0  0  0  0  0  0  0  0  0  0  0  0
   18.8563   70.4851   -9.5586 C   0  0  0  0  0  0  0  0  0  0  0  0
   16.9234   69.8744   -9.6126 H   0  0  0  0  0  0  0  0  0  0  0  0
   22.5306   74.3700   -3.6700 O   0  0  0  0  0  0  0  0  0  0  0  0
   23.4422   75.3630   -2.7780 P   0  0  2  0  0  0  0  0  0  0  0  0
   22.4850   76.6488   -2.5587 O   0  0  0  0  0  0  0  0  0  0  0  0
   24.7785   75.6819   -3.3835 O   0  0  0  0  0  0  0  0  0  0  0  0
   23.5160   74.6579   -1.3281 O   0  0  0  0  0  0  0  0  0  0  0  0
   22.0419   73.0589   -0.3863 O   0  0  0  0  0  0  0  0  0  0  0  0
   23.0700   75.1108    3.0464 O   0  0  0  0  0  0  0  0  0  0  0  0
   24.1053   72.4677    2.6107 O   0  0  0  0  0  0  0  0  0  0  0  0
   22.6775   76.5509    0.5662 O   0  0  0  0  0  0  0  0  0  0  0  0
   23.2897   74.5454    1.7513 C   0  0  1  0  0  0  0  0  0  0  0  0
   23.0508   73.0368    1.8398 C   0  0  1  0  0  0  0  0  0  0  0  0
   22.3230   75.1855    0.7567 C   0  0  2  0  0  0  0  0  0  0  0  0
   23.0055   72.4003    0.4441 C   0  0  1  0  0  0  0  0  0  0  0  0
   22.3196   74.4467   -0.5829 C   0  0  1  0  0  0  0  0  0  0  0  0
   23.6811   74.7090    3.6826 H   0  0  0  0  0  0  0  0  0  0  0  0
   24.1233   72.8785    3.4893 H   0  0  0  0  0  0  0  0  0  0  0  0
   22.6758   77.0077    1.4213 H   0  0  0  0  0  0  0  0  0  0  0  0
   21.8993   70.6964    1.7020 O   0  0  0  0  0  0  0  0  0  0  0  0
   22.6122   70.9258    0.5005 C   0  0  0  0  0  0  0  0  0  0  0  0
   21.6423   69.7620    1.7514 H   0  0  0  0  0  0  0  0  0  0  0  0
 25 28  1  0
 25 24  1  0
 25 26  1  1
 25 27  2  0
  1  4  1  0
  1 24  1  0
  1  2  1  6
  1  3  2  0
  6 11  1  0
  6 12  1  0
 29 36  1  0
 29 37  1  0
  9  7  1  1
  7 13  1  0
 10  8  1  1
  8 14  1  0
 37 28  1  1
  4  5  1  0
 33 30  1  1
 30 38  1  0
 34 31  1  1
 31 39  1  0
 35 32  1  6
 32 40  1  0
 41 42  1  0
 41 43  1  0
 15 19  2  0
 16 22  2  0
 12 17  1  6
 17 19  1  0
 17 20  1  0
 18 19  1  0
 18 22  1  0
 18 23  1  0
  9 10  1  0
  9 11  1  0
 10 12  1  0
 11  5  1  6
 33 34  1  0
 33 35  1  0
 34 36  1  0
 35 37  1  0
 36 42  1  1
 20 21  2  0
 21 22  1  0
M  CHG  2   2  -1  26  -1
M  END
>  <COMPND>  (149) 
    8629 

>  <AUTHOR>  (149) 
    GENERATED BY OPEN BABEL 3.1.1

>  <MASTER>  (149) 
        0    0    0    0    0    0    0    0   58    0   58    0

>  <minimizedAffinity>  (149) 
-6.70818

>  <CNNscore>  (149) 
0.8204584122

>  <CNNaffinity>  (149) 
4.6056594849

>  <CNN_VS>  (149) 
3.7787520885

>  <CNNaffinity_variance>  (149) 
0.0362989679

$$$$
150
     RDKit          3D

 43 45  0  0  0  0  0  0  0  0999 V2000
   21.7984   72.5303   -5.3324 P   0  0  2  0  0  0  0  0  0  0  0  0
   21.0628   73.9382   -5.0257 O   0  0  0  0  0  0  0  0  0  0  0  0
   23.0373   72.6325   -6.1727 O   0  0  0  0  0  0  0  0  0  0  0  0
   20.6189   71.5979   -5.9301 O   0  0  0  0  0  0  0  0  0  0  0  0
   20.0580   71.9392   -7.1858 C   0  0  0  0  0  0  0  0  0  0  0  0
   18.6792   70.0308   -6.7053 O   0  0  0  0  0  0  0  0  0  0  0  0
   18.1371   69.9153   -9.6521 O   0  0  0  0  0  0  0  0  0  0  0  0
   15.8847   71.1058   -8.6797 O   0  0  0  0  0  0  0  0  0  0  0  0
   18.3119   71.0542   -8.8109 C   0  0  1  0  0  0  0  0  0  0  0  0
   17.0841   71.2652   -7.9498 C   0  0  2  0  0  0  0  0  0  0  0  0
   19.3735   70.7124   -7.7729 C   0  0  1  0  0  0  0  0  0  0  0  0
   17.2631   70.2016   -6.8798 C   0  0  2  0  0  0  0  0  0  0  0  0
   17.4638   70.1097  -10.3236 H   0  0  0  0  0  0  0  0  0  0  0  0
   15.8169   71.8058   -9.3476 H   0  0  0  0  0  0  0  0  0  0  0  0
   16.7369   68.4170   -4.7547 O   0  0  0  0  0  0  0  0  0  0  0  0
   15.0277   71.7821   -2.1097 O   0  0  0  0  0  0  0  0  0  0  0  0
   16.6814   70.5845   -5.6242 N   0  0  0  0  0  0  0  0  0  0  0  0
   15.8864   70.0940   -3.4393 N   0  0  0  0  0  0  0  0  0  0  0  0
   16.4576   69.6105   -4.6234 C   0  0  0  0  0  0  0  0  0  0  0  0
   16.3396   71.9128   -5.3952 C   0  0  0  0  0  0  0  0  0  0  0  0
   15.7945   72.3575   -4.2610 C   0  0  0  0  0  0  0  0  0  0  0  0
   15.5280   71.4043   -3.1645 C   0  0  0  0  0  0  0  0  0  0  0  0
   15.7210   69.4335   -2.7280 H   0  0  0  0  0  0  0  0  0  0  0  0
   22.0354   71.9149   -3.8566 O   0  0  0  0  0  0  0  0  0  0  0  0
   23.3179   71.9756   -2.8745 P   0  0  2  0  0  0  0  0  0  0  0  0
   23.8834   73.4753   -3.0950 O   0  0  0  0  0  0  0  0  0  0  0  0
   24.3283   70.8914   -3.1141 O   0  0  0  0  0  0  0  0  0  0  0  0
   22.6927   71.9904   -1.3866 O   0  0  0  0  0  0  0  0  0  0  0  0
   22.2458   73.8435    0.0216 O   0  0  0  0  0  0  0  0  0  0  0  0
   23.3269   71.0791    2.8921 O   0  0  0  0  0  0  0  0  0  0  0  0
   20.5723   71.8489    2.6311 O   0  0  0  0  0  0  0  0  0  0  0  0
   24.7242   71.1509    0.3580 O   0  0  0  0  0  0  0  0  0  0  0  0
   22.7369   71.5226    1.6671 C   0  0  1  0  0  0  0  0  0  0  0  0
   21.6463   72.5422    2.0016 C   0  0  1  0  0  0  0  0  0  0  0  0
   23.8173   72.1579    0.7940 C   0  0  2  0  0  0  0  0  0  0  0  0
   21.1518   73.2591    0.7380 C   0  0  1  0  0  0  0  0  0  0  0  0
   23.2154   72.8862   -0.4090 C   0  0  1  0  0  0  0  0  0  0  0  0
   22.6462   70.6742    3.4510 H   0  0  0  0  0  0  0  0  0  0  0  0
   20.8980   71.4002    3.4272 H   0  0  0  0  0  0  0  0  0  0  0  0
   25.0986   70.6974    1.1288 H   0  0  0  0  0  0  0  0  0  0  0  0
   20.3527   74.7533    2.4225 O   0  0  0  0  0  0  0  0  0  0  0  0
   20.1785   74.3893    1.0655 C   0  0  0  0  0  0  0  0  0  0  0  0
   19.7398   75.4719    2.6451 H   0  0  0  0  0  0  0  0  0  0  0  0
 25 28  1  0
 25 24  1  0
 25 26  1  6
 25 27  2  0
  1  4  1  0
  1 24  1  0
  1  2  1  1
  1  3  2  0
  6 11  1  0
  6 12  1  0
 29 36  1  0
 29 37  1  0
  9  7  1  6
  7 13  1  0
 10  8  1  6
  8 14  1  0
 37 28  1  6
  4  5  1  0
 33 30  1  1
 30 38  1  0
 34 31  1  6
 31 39  1  0
 35 32  1  6
 32 40  1  0
 41 42  1  0
 41 43  1  0
 15 19  2  0
 16 22  2  0
 12 17  1  1
 17 19  1  0
 17 20  1  0
 18 19  1  0
 18 22  1  0
 18 23  1  0
  9 10  1  0
  9 11  1  0
 10 12  1  0
 11  5  1  1
 33 34  1  0
 33 35  1  0
 34 36  1  0
 35 37  1  0
 36 42  1  1
 20 21  2  0
 21 22  1  0
M  CHG  2   2  -1  26  -1
M  END
>  <COMPND>  (150) 
    8629 

>  <AUTHOR>  (150) 
    GENERATED BY OPEN BABEL 3.1.1

>  <MASTER>  (150) 
        0    0    0    0    0    0    0    0   58    0   58    0

>  <minimizedAffinity>  (150) 
-7.60230

>  <CNNscore>  (150) 
0.7416400909

>  <CNNaffinity>  (150) 
4.5053434372

>  <CNN_VS>  (150) 
3.3413434029

>  <CNNaffinity_variance>  (150) 
0.2709037960

$$$$
151
     RDKit          3D

 43 45  0  0  0  0  0  0  0  0999 V2000
   20.2920   73.5099   -1.0660 P   0  0  2  0  0  0  0  0  0  0  0  0
   19.2307   72.2946   -0.9473 O   0  0  0  0  0  0  0  0  0  0  0  0
   19.7137   74.8789   -0.8590 O   0  0  0  0  0  0  0  0  0  0  0  0
   21.0112   73.2595   -2.4936 O   0  0  0  0  0  0  0  0  0  0  0  0
   20.3751   72.4082   -3.4310 C   0  0  0  0  0  0  0  0  0  0  0  0
   20.7892   70.8612   -5.2224 O   0  0  0  0  0  0  0  0  0  0  0  0
   23.2490   72.4762   -5.7984 O   0  0  0  0  0  0  0  0  0  0  0  0
   21.4994   73.3614   -7.6937 O   0  0  0  0  0  0  0  0  0  0  0  0
   21.9671   72.9135   -5.3502 C   0  0  1  0  0  0  0  0  0  0  0  0
   20.9662   72.8587   -6.4855 C   0  0  2  0  0  0  0  0  0  0  0  0
   21.4206   71.8613   -4.3933 C   0  0  1  0  0  0  0  0  0  0  0  0
   20.6528   71.3739   -6.5578 C   0  0  2  0  0  0  0  0  0  0  0  0
   23.6183   73.1324   -6.4108 H   0  0  0  0  0  0  0  0  0  0  0  0
   21.6819   74.3091   -7.5971 H   0  0  0  0  0  0  0  0  0  0  0  0
   19.9418   71.0487   -9.2720 O   0  0  0  0  0  0  0  0  0  0  0  0
   15.5022   70.3965   -8.2205 O   0  0  0  0  0  0  0  0  0  0  0  0
   19.3184   71.1177   -7.0217 N   0  0  0  0  0  0  0  0  0  0  0  0
   17.7318   70.7240   -8.7462 N   0  0  0  0  0  0  0  0  0  0  0  0
   19.0679   70.9714   -8.4060 C   0  0  0  0  0  0  0  0  0  0  0  0
   18.2752   71.0137   -6.1081 C   0  0  0  0  0  0  0  0  0  0  0  0
   17.0064   70.7788   -6.4489 C   0  0  0  0  0  0  0  0  0  0  0  0
   16.6596   70.6133   -7.8752 C   0  0  0  0  0  0  0  0  0  0  0  0
   17.5334   70.6189   -9.7050 H   0  0  0  0  0  0  0  0  0  0  0  0
   21.4385   73.0963   -0.0042 O   0  0  0  0  0  0  0  0  0  0  0  0
   22.0942   71.6605    0.3446 P   0  0  2  0  0  0  0  0  0  0  0  0
   22.9070   71.2865   -1.0033 O   0  0  0  0  0  0  0  0  0  0  0  0
   21.1025   70.6203    0.7785 O   0  0  0  0  0  0  0  0  0  0  0  0
   23.2395   71.9882    1.4336 O   0  0  0  0  0  0  0  0  0  0  0  0
   24.6650   70.6189    2.7411 O   0  0  0  0  0  0  0  0  0  0  0  0
   23.6960   73.4598    5.5768 O   0  0  0  0  0  0  0  0  0  0  0  0
   26.3305   73.4385    4.4336 O   0  0  0  0  0  0  0  0  0  0  0  0
   21.6871   72.5452    3.7041 O   0  0  0  0  0  0  0  0  0  0  0  0
   23.9897   72.9778    4.2627 C   0  0  1  0  0  0  0  0  0  0  0  0
   25.3957   72.3747    4.2762 C   0  0  1  0  0  0  0  0  0  0  0  0
   22.9556   71.9223    3.8755 C   0  0  2  0  0  0  0  0  0  0  0  0
   25.6792   71.6014    2.9814 C   0  0  1  0  0  0  0  0  0  0  0  0
   23.3577   71.1786    2.6006 C   0  0  1  0  0  0  0  0  0  0  0  0
   24.3487   74.1307    5.8286 H   0  0  0  0  0  0  0  0  0  0  0  0
   26.1402   73.9190    5.2546 H   0  0  0  0  0  0  0  0  0  0  0  0
   21.4437   73.0122    4.5180 H   0  0  0  0  0  0  0  0  0  0  0  0
   26.8238   69.6467    3.7417 O   0  0  0  0  0  0  0  0  0  0  0  0
   27.0134   70.8605    3.0382 C   0  0  0  0  0  0  0  0  0  0  0  0
   27.6646   69.1642    3.7854 H   0  0  0  0  0  0  0  0  0  0  0  0
 25 28  1  0
 25 24  1  0
 25 26  1  6
 25 27  2  0
  1  4  1  0
  1 24  1  0
  1  2  1  6
  1  3  2  0
  6 11  1  0
  6 12  1  0
 29 36  1  0
 29 37  1  0
  9  7  1  6
  7 13  1  0
 10  8  1  6
  8 14  1  0
 37 28  1  6
  4  5  1  0
 33 30  1  1
 30 38  1  0
 34 31  1  6
 31 39  1  0
 35 32  1  6
 32 40  1  0
 41 42  1  0
 41 43  1  0
 15 19  2  0
 16 22  2  0
 12 17  1  1
 17 19  1  0
 17 20  1  0
 18 19  1  0
 18 22  1  0
 18 23  1  0
  9 10  1  0
  9 11  1  0
 10 12  1  0
 11  5  1  1
 33 34  1  0
 33 35  1  0
 34 36  1  0
 35 37  1  0
 36 42  1  1
 20 21  2  0
 21 22  1  0
M  CHG  2   2  -1  26  -1
M  END
>  <COMPND>  (151) 
    8629 

>  <AUTHOR>  (151) 
    GENERATED BY OPEN BABEL 3.1.1

>  <MASTER>  (151) 
        0    0    0    0    0    0    0    0   58    0   58    0

>  <minimizedAffinity>  (151) 
-7.13232

>  <CNNscore>  (151) 
0.7188161016

>  <CNNaffinity>  (151) 
4.3195195198

>  <CNN_VS>  (151) 
3.1049401760

>  <CNNaffinity_variance>  (151) 
0.0711726472

$$$$
152
     RDKit          3D

 43 45  0  0  0  0  0  0  0  0999 V2000
   23.0715   71.8782   -2.7198 P   0  0  2  0  0  0  0  0  0  0  0  0
   23.3586   73.4685   -2.7967 O   0  0  0  0  0  0  0  0  0  0  0  0
   24.2568   71.0053   -3.0108 O   0  0  0  0  0  0  0  0  0  0  0  0
   21.7901   71.6677   -3.6850 O   0  0  0  0  0  0  0  0  0  0  0  0
   21.5895   72.5795   -4.7508 C   0  0  0  0  0  0  0  0  0  0  0  0
   20.7164   70.6100   -5.8150 O   0  0  0  0  0  0  0  0  0  0  0  0
   21.1885   72.0316   -8.4125 O   0  0  0  0  0  0  0  0  0  0  0  0
   18.5071   72.3562   -8.0360 O   0  0  0  0  0  0  0  0  0  0  0  0
   20.7649   72.5621   -7.1577 C   0  0  1  0  0  0  0  0  0  0  0  0
   19.3202   72.1936   -6.8918 C   0  0  2  0  0  0  0  0  0  0  0  0
   21.4946   71.8026   -6.0568 C   0  0  1  0  0  0  0  0  0  0  0  0
   19.4395   70.7417   -6.4608 C   0  0  2  0  0  0  0  0  0  0  0  0
   20.7360   72.5013   -9.1312 H   0  0  0  0  0  0  0  0  0  0  0  0
   18.4626   73.2963   -8.2703 H   0  0  0  0  0  0  0  0  0  0  0  0
   16.8976   69.7730   -7.2213 O   0  0  0  0  0  0  0  0  0  0  0  0
   15.5629   69.3007   -2.8353 O   0  0  0  0  0  0  0  0  0  0  0  0
   18.4085   70.3577   -5.5383 N   0  0  0  0  0  0  0  0  0  0  0  0
   16.2351   69.5384   -5.0368 N   0  0  0  0  0  0  0  0  0  0  0  0
   17.1670   69.8848   -6.0235 C   0  0  0  0  0  0  0  0  0  0  0  0
   18.6336   70.4515   -4.1692 C   0  0  0  0  0  0  0  0  0  0  0  0
   17.7341   70.1183   -3.2412 C   0  0  0  0  0  0  0  0  0  0  0  0
   16.4113   69.6151   -3.6642 C   0  0  0  0  0  0  0  0  0  0  0  0
   15.3629   69.2068   -5.3513 H   0  0  0  0  0  0  0  0  0  0  0  0
   22.4465   71.6928   -1.2406 O   0  0  0  0  0  0  0  0  0  0  0  0
   20.9687   72.0063   -0.6656 P   0  0  2  0  0  0  0  0  0  0  0  0
   20.2250   70.5721   -0.7517 O   0  0  0  0  0  0  0  0  0  0  0  0
   20.2543   73.1180   -1.3781 O   0  0  0  0  0  0  0  0  0  0  0  0
   21.1894   72.2570    0.9135 O   0  0  0  0  0  0  0  0  0  0  0  0
   22.7670   73.9988    0.6075 O   0  0  0  0  0  0  0  0  0  0  0  0
   21.6382   74.8066    4.4965 O   0  0  0  0  0  0  0  0  0  0  0  0
   20.7663   76.5388    2.3781 O   0  0  0  0  0  0  0  0  0  0  0  0
   21.9222   72.0639    3.6155 O   0  0  0  0  0  0  0  0  0  0  0  0
   21.4447   74.3775    3.1460 C   0  0  1  0  0  0  0  0  0  0  0  0
   21.7777   75.5479    2.2185 C   0  0  1  0  0  0  0  0  0  0  0  0
   22.3624   73.1895    2.8634 C   0  0  2  0  0  0  0  0  0  0  0  0
   21.8524   75.0912    0.7553 C   0  0  1  0  0  0  0  0  0  0  0  0
   22.4020   72.8485    1.3727 C   0  0  1  0  0  0  0  0  0  0  0  0
   21.0580   75.5605    4.6826 H   0  0  0  0  0  0  0  0  0  0  0  0
   20.7293   76.8181    3.3064 H   0  0  0  0  0  0  0  0  0  0  0  0
   21.9017   72.2925    4.5574 H   0  0  0  0  0  0  0  0  0  0  0  0
   22.0515   75.8396   -1.5050 O   0  0  0  0  0  0  0  0  0  0  0  0
   22.3372   76.2069   -0.1679 C   0  0  0  0  0  0  0  0  0  0  0  0
   22.3543   76.5406   -2.1040 H   0  0  0  0  0  0  0  0  0  0  0  0
 25 28  1  0
 25 24  1  0
 25 26  1  1
 25 27  2  0
  1  4  1  0
  1 24  1  0
  1  2  1  1
  1  3  2  0
  6 11  1  0
  6 12  1  0
 29 36  1  0
 29 37  1  0
  9  7  1  6
  7 13  1  0
 10  8  1  6
  8 14  1  0
 37 28  1  6
  4  5  1  0
 33 30  1  1
 30 38  1  0
 34 31  1  6
 31 39  1  0
 35 32  1  1
 32 40  1  0
 41 42  1  0
 41 43  1  0
 15 19  2  0
 16 22  2  0
 12 17  1  1
 17 19  1  0
 17 20  1  0
 18 19  1  0
 18 22  1  0
 18 23  1  0
  9 10  1  0
  9 11  1  0
 10 12  1  0
 11  5  1  1
 33 34  1  0
 33 35  1  0
 34 36  1  0
 35 37  1  0
 36 42  1  6
 20 21  2  0
 21 22  1  0
M  CHG  2   2  -1  26  -1
M  END
>  <COMPND>  (152) 
    8629 

>  <AUTHOR>  (152) 
    GENERATED BY OPEN BABEL 3.1.1

>  <MASTER>  (152) 
        0    0    0    0    0    0    0    0   58    0   58    0

>  <minimizedAffinity>  (152) 
-6.49878

>  <CNNscore>  (152) 
0.6983932853

>  <CNNaffinity>  (152) 
4.1467256546

>  <CNN_VS>  (152) 
2.8960454464

>  <CNNaffinity_variance>  (152) 
0.2823255360

$$$$
153
     RDKit          3D

 43 45  0  0  0  0  0  0  0  0999 V2000
   23.0955   71.7861   -2.5475 P   0  0  2  0  0  0  0  0  0  0  0  0
   23.4282   73.3658   -2.4418 O   0  0  0  0  0  0  0  0  0  0  0  0
   24.2215   70.9338   -3.0546 O   0  0  0  0  0  0  0  0  0  0  0  0
   21.7298   71.7339   -3.4135 O   0  0  0  0  0  0  0  0  0  0  0  0
   21.5607   72.6670   -4.4664 C   0  0  0  0  0  0  0  0  0  0  0  0
   20.7645   70.7229   -5.6326 O   0  0  0  0  0  0  0  0  0  0  0  0
   21.4057   72.2059   -8.1585 O   0  0  0  0  0  0  0  0  0  0  0  0
   18.7046   72.5203   -7.9541 O   0  0  0  0  0  0  0  0  0  0  0  0
   20.8984   72.7063   -6.9226 C   0  0  1  0  0  0  0  0  0  0  0  0
   19.4400   72.3310   -6.7624 C   0  0  2  0  0  0  0  0  0  0  0  0
   21.5547   71.9212   -5.7937 C   0  0  1  0  0  0  0  0  0  0  0  0
   19.5332   70.8693   -6.3589 C   0  0  2  0  0  0  0  0  0  0  0  0
   21.0012   72.6924   -8.8945 H   0  0  0  0  0  0  0  0  0  0  0  0
   18.6739   73.4657   -8.1685 H   0  0  0  0  0  0  0  0  0  0  0  0
   17.0992   69.7936   -7.3055 O   0  0  0  0  0  0  0  0  0  0  0  0
   15.4240   69.3473   -3.0352 O   0  0  0  0  0  0  0  0  0  0  0  0
   18.4439   70.4631   -5.5165 N   0  0  0  0  0  0  0  0  0  0  0  0
   16.2671   69.5721   -5.1784 N   0  0  0  0  0  0  0  0  0  0  0  0
   17.2644   69.9360   -6.0922 C   0  0  0  0  0  0  0  0  0  0  0  0
   18.5514   70.5887   -4.1357 C   0  0  0  0  0  0  0  0  0  0  0  0
   17.5907   70.2383   -3.2781 C   0  0  0  0  0  0  0  0  0  0  0  0
   16.3262   69.6789   -3.7979 C   0  0  0  0  0  0  0  0  0  0  0  0
   15.4362   69.2028   -5.5567 H   0  0  0  0  0  0  0  0  0  0  0  0
   22.5937   71.4196   -1.0553 O   0  0  0  0  0  0  0  0  0  0  0  0
   21.1056   71.2438   -0.4490 P   0  0  2  0  0  0  0  0  0  0  0  0
   21.3698   70.5456    0.9864 O   0  0  0  0  0  0  0  0  0  0  0  0
   20.1630   70.4887   -1.3407 O   0  0  0  0  0  0  0  0  0  0  0  0
   20.6304   72.7442   -0.0911 O   0  0  0  0  0  0  0  0  0  0  0  0
   18.9199   73.5812   -1.5018 O   0  0  0  0  0  0  0  0  0  0  0  0
   20.0426   77.1045    0.3357 O   0  0  0  0  0  0  0  0  0  0  0  0
   17.5371   75.8817    1.0250 O   0  0  0  0  0  0  0  0  0  0  0  0
   22.0505   75.1470   -0.3826 O   0  0  0  0  0  0  0  0  0  0  0  0
   19.7944   75.6984    0.2556 C   0  0  1  0  0  0  0  0  0  0  0  0
   18.3207   75.4909   -0.0991 C   0  0  1  0  0  0  0  0  0  0  0  0
   20.6964   75.0926   -0.8181 C   0  0  2  0  0  0  0  0  0  0  0  0
   18.0394   74.0270   -0.4637 C   0  0  1  0  0  0  0  0  0  0  0  0
   20.3006   73.6505   -1.1405 C   0  0  1  0  0  0  0  0  0  0  0  0
   19.4734   77.4952    1.0160 H   0  0  0  0  0  0  0  0  0  0  0  0
   17.7245   76.8078    1.2450 H   0  0  0  0  0  0  0  0  0  0  0  0
   22.2889   76.0650   -0.1820 H   0  0  0  0  0  0  0  0  0  0  0  0
   16.2881   72.4539   -0.8726 O   0  0  0  0  0  0  0  0  0  0  0  0
   16.6133   73.8282   -0.9723 C   0  0  0  0  0  0  0  0  0  0  0  0
   15.3830   72.3124   -1.1926 H   0  0  0  0  0  0  0  0  0  0  0  0
 25 28  1  0
 25 24  1  0
 25 26  1  1
 25 27  2  0
  1  4  1  0
  1 24  1  0
  1  2  1  1
  1  3  2  0
  6 11  1  0
  6 12  1  0
 29 36  1  0
 29 37  1  0
  9  7  1  6
  7 13  1  0
 10  8  1  6
  8 14  1  0
 37 28  1  1
  4  5  1  0
 33 30  1  6
 30 38  1  0
 34 31  1  1
 31 39  1  0
 35 32  1  1
 32 40  1  0
 41 42  1  0
 41 43  1  0
 15 19  2  0
 16 22  2  0
 12 17  1  1
 17 19  1  0
 17 20  1  0
 18 19  1  0
 18 22  1  0
 18 23  1  0
  9 10  1  0
  9 11  1  0
 10 12  1  0
 11  5  1  1
 33 34  1  0
 33 35  1  0
 34 36  1  0
 35 37  1  0
 36 42  1  6
 20 21  2  0
 21 22  1  0
M  CHG  2   2  -1  26  -1
M  END
>  <COMPND>  (153) 
    8629 

>  <AUTHOR>  (153) 
    GENERATED BY OPEN BABEL 3.1.1

>  <MASTER>  (153) 
        0    0    0    0    0    0    0    0   58    0   58    0

>  <minimizedAffinity>  (153) 
-6.48949

>  <CNNscore>  (153) 
0.6699315310

>  <CNNaffinity>  (153) 
4.0716085434

>  <CNN_VS>  (153) 
2.7276990414

>  <CNNaffinity_variance>  (153) 
0.3784666955

$$$$
154
     RDKit          3D

 43 45  0  0  0  0  0  0  0  0999 V2000
   23.1655   73.0061   -3.9196 P   0  0  2  0  0  0  0  0  0  0  0  0
   23.8428   71.5538   -3.6970 O   0  0  0  0  0  0  0  0  0  0  0  0
   24.0911   74.0631   -4.4462 O   0  0  0  0  0  0  0  0  0  0  0  0
   22.4656   73.3303   -2.4973 O   0  0  0  0  0  0  0  0  0  0  0  0
   21.4755   74.3427   -2.4462 C   0  0  0  0  0  0  0  0  0  0  0  0
   20.7739   72.6717   -0.8684 O   0  0  0  0  0  0  0  0  0  0  0  0
   18.7650   74.6833    0.0848 O   0  0  0  0  0  0  0  0  0  0  0  0
   20.7262   74.8621    1.9711 O   0  0  0  0  0  0  0  0  0  0  0  0
   20.0987   74.8896   -0.3777 C   0  0  1  0  0  0  0  0  0  0  0  0
   21.0944   74.4435    0.6726 C   0  0  2  0  0  0  0  0  0  0  0  0
   20.3623   73.9005   -1.5063 C   0  0  1  0  0  0  0  0  0  0  0  0
   21.0634   72.9328    0.5147 C   0  0  2  0  0  0  0  0  0  0  0  0
   18.5733   75.3040    0.8058 H   0  0  0  0  0  0  0  0  0  0  0  0
   20.7615   75.8301    2.0210 H   0  0  0  0  0  0  0  0  0  0  0  0
   21.3877   70.1974    1.1396 O   0  0  0  0  0  0  0  0  0  0  0  0
   25.9222   70.6966    1.7954 O   0  0  0  0  0  0  0  0  0  0  0  0
   22.3177   72.3210    0.8521 N   0  0  0  0  0  0  0  0  0  0  0  0
   23.6453   70.4481    1.4655 N   0  0  0  0  0  0  0  0  0  0  0  0
   22.3720   70.9395    1.1505 C   0  0  0  0  0  0  0  0  0  0  0  0
   23.4767   73.0888    0.8843 C   0  0  0  0  0  0  0  0  0  0  0  0
   24.6831   72.6052    1.1879 C   0  0  0  0  0  0  0  0  0  0  0  0
   24.8267   71.1713    1.5122 C   0  0  0  0  0  0  0  0  0  0  0  0
   23.7074   69.4884    1.6772 H   0  0  0  0  0  0  0  0  0  0  0  0
   21.9059   72.6767   -4.8777 O   0  0  0  0  0  0  0  0  0  0  0  0
   21.3116   73.4642   -6.1581 P   0  0  2  0  0  0  0  0  0  0  0  0
   22.3915   73.1499   -7.3211 O   0  0  0  0  0  0  0  0  0  0  0  0
   21.0645   74.9260   -5.9211 O   0  0  0  0  0  0  0  0  0  0  0  0
   20.0001   72.6243   -6.5817 O   0  0  0  0  0  0  0  0  0  0  0  0
   19.1251   70.4948   -6.0193 O   0  0  0  0  0  0  0  0  0  0  0  0
   18.5311   70.3943  -10.1044 O   0  0  0  0  0  0  0  0  0  0  0  0
   16.2781   70.7078   -8.3512 O   0  0  0  0  0  0  0  0  0  0  0  0
   20.9303   71.6004   -9.0234 O   0  0  0  0  0  0  0  0  0  0  0  0
   18.6060   71.0048   -8.8133 C   0  0  1  0  0  0  0  0  0  0  0  0
   17.5771   70.3306   -7.9035 C   0  0  1  0  0  0  0  0  0  0  0  0
   20.0168   70.8234   -8.2564 C   0  0  2  0  0  0  0  0  0  0  0  0
   17.7782   70.7427   -6.4390 C   0  0  1  0  0  0  0  0  0  0  0  0
   20.0961   71.2162   -6.7800 C   0  0  1  0  0  0  0  0  0  0  0  0
   17.6379   70.5063  -10.4638 H   0  0  0  0  0  0  0  0  0  0  0  0
   16.1642   70.4424   -9.2774 H   0  0  0  0  0  0  0  0  0  0  0  0
   20.8707   71.3421   -9.9559 H   0  0  0  0  0  0  0  0  0  0  0  0
   16.1704   68.9857   -6.2474 O   0  0  0  0  0  0  0  0  0  0  0  0
   16.8660   69.9625   -5.4949 C   0  0  0  0  0  0  0  0  0  0  0  0
   15.5861   68.4811   -5.6594 H   0  0  0  0  0  0  0  0  0  0  0  0
 25 28  1  0
 25 24  1  0
 25 26  1  6
 25 27  2  0
  1  4  1  0
  1 24  1  0
  1  2  1  1
  1  3  2  0
  6 11  1  0
  6 12  1  0
 29 36  1  0
 29 37  1  0
  9  7  1  1
  7 13  1  0
 10  8  1  1
  8 14  1  0
 37 28  1  6
  4  5  1  0
 33 30  1  6
 30 38  1  0
 34 31  1  6
 31 39  1  0
 35 32  1  6
 32 40  1  0
 41 42  1  0
 41 43  1  0
 15 19  2  0
 16 22  2  0
 12 17  1  6
 17 19  1  0
 17 20  1  0
 18 19  1  0
 18 22  1  0
 18 23  1  0
  9 10  1  0
  9 11  1  0
 10 12  1  0
 11  5  1  6
 33 34  1  0
 33 35  1  0
 34 36  1  0
 35 37  1  0
 36 42  1  1
 20 21  2  0
 21 22  1  0
M  CHG  2   2  -1  26  -1
M  END
>  <COMPND>  (154) 
    8629 

>  <AUTHOR>  (154) 
    GENERATED BY OPEN BABEL 3.1.1

>  <MASTER>  (154) 
        0    0    0    0    0    0    0    0   58    0   58    0

>  <minimizedAffinity>  (154) 
-7.71379

>  <CNNscore>  (154) 
0.6442127228

>  <CNNaffinity>  (154) 
4.4420499802

>  <CNN_VS>  (154) 
2.8616251945

>  <CNNaffinity_variance>  (154) 
0.1149011254

$$$$
155
     RDKit          3D

 43 45  0  0  0  0  0  0  0  0999 V2000
   22.0510   71.2550    0.4062 P   0  0  2  0  0  0  0  0  0  0  0  0
   21.9236   72.8364    0.7225 O   0  0  0  0  0  0  0  0  0  0  0  0
   20.7453   70.5345    0.2408 O   0  0  0  0  0  0  0  0  0  0  0  0
   23.0156   70.7004    1.5809 O   0  0  0  0  0  0  0  0  0  0  0  0
   23.7879   71.6322    2.3179 C   0  0  0  0  0  0  0  0  0  0  0  0
   24.4752   70.9023    4.5016 O   0  0  0  0  0  0  0  0  0  0  0  0
   22.3680   72.7454    5.5757 O   0  0  0  0  0  0  0  0  0  0  0  0
   24.6558   74.1858    5.9329 O   0  0  0  0  0  0  0  0  0  0  0  0
   23.2190   72.9108    4.4426 C   0  0  1  0  0  0  0  0  0  0  0  0
   24.6297   73.2355    4.8875 C   0  0  2  0  0  0  0  0  0  0  0  0
   23.3981   71.5471    3.7872 C   0  0  1  0  0  0  0  0  0  0  0  0
   25.1443   71.8738    5.3222 C   0  0  2  0  0  0  0  0  0  0  0  0
   22.2386   73.6033    6.0107 H   0  0  0  0  0  0  0  0  0  0  0  0
   24.3192   75.0350    5.6067 H   0  0  0  0  0  0  0  0  0  0  0  0
   27.0851   72.9334    7.0796 O   0  0  0  0  0  0  0  0  0  0  0  0
   30.5558   71.3021    4.5234 O   0  0  0  0  0  0  0  0  0  0  0  0
   26.5623   71.7405    5.1403 N   0  0  0  0  0  0  0  0  0  0  0  0
   28.8117   72.1201    5.8055 N   0  0  0  0  0  0  0  0  0  0  0  0
   27.4516   72.3109    6.0807 C   0  0  0  0  0  0  0  0  0  0  0  0
   27.0579   71.0503    4.0395 C   0  0  0  0  0  0  0  0  0  0  0  0
   28.3578   70.8784    3.7907 C   0  0  0  0  0  0  0  0  0  0  0  0
   29.3535   71.4430    4.7244 C   0  0  0  0  0  0  0  0  0  0  0  0
   29.4499   72.5091    6.4467 H   0  0  0  0  0  0  0  0  0  0  0  0
   23.0079   71.2208   -0.8962 O   0  0  0  0  0  0  0  0  0  0  0  0
   23.0273   72.1428   -2.2237 P   0  0  2  0  0  0  0  0  0  0  0  0
   23.9707   71.3098   -3.2403 O   0  0  0  0  0  0  0  0  0  0  0  0
   23.4716   73.5568   -1.9845 O   0  0  0  0  0  0  0  0  0  0  0  0
   21.5419   72.0036   -2.8395 O   0  0  0  0  0  0  0  0  0  0  0  0
   20.1927   70.0678   -3.0609 O   0  0  0  0  0  0  0  0  0  0  0  0
   19.0497   72.0644   -6.4899 O   0  0  0  0  0  0  0  0  0  0  0  0
   17.2304   71.8959   -4.2740 O   0  0  0  0  0  0  0  0  0  0  0  0
   21.8126   72.1376   -5.6294 O   0  0  0  0  0  0  0  0  0  0  0  0
   19.4647   71.9495   -5.1261 C   0  0  1  0  0  0  0  0  0  0  0  0
   18.4211   71.1199   -4.3754 C   0  0  1  0  0  0  0  0  0  0  0  0
   20.8309   71.2680   -5.0758 C   0  0  2  0  0  0  0  0  0  0  0  0
   18.9243   70.7283   -2.9795 C   0  0  1  0  0  0  0  0  0  0  0  0
   21.2144   70.8762   -3.6477 C   0  0  1  0  0  0  0  0  0  0  0  0
   18.1830   72.4967   -6.5288 H   0  0  0  0  0  0  0  0  0  0  0  0
   16.9235   72.1370   -5.1622 H   0  0  0  0  0  0  0  0  0  0  0  0
   21.5584   72.3780   -6.5336 H   0  0  0  0  0  0  0  0  0  0  0  0
   17.2459   69.0506   -3.2578 O   0  0  0  0  0  0  0  0  0  0  0  0
   17.9668   69.7701   -2.2744 C   0  0  0  0  0  0  0  0  0  0  0  0
   16.6327   68.4365   -2.8236 H   0  0  0  0  0  0  0  0  0  0  0  0
 25 28  1  0
 25 24  1  0
 25 26  1  6
 25 27  2  0
  1  4  1  0
  1 24  1  0
  1  2  1  1
  1  3  2  0
  6 11  1  0
  6 12  1  0
 29 36  1  0
 29 37  1  0
  9  7  1  1
  7 13  1  0
 10  8  1  1
  8 14  1  0
 37 28  1  1
  4  5  1  0
 33 30  1  6
 30 38  1  0
 34 31  1  1
 31 39  1  0
 35 32  1  1
 32 40  1  0
 41 42  1  0
 41 43  1  0
 15 19  2  0
 16 22  2  0
 12 17  1  6
 17 19  1  0
 17 20  1  0
 18 19  1  0
 18 22  1  0
 18 23  1  0
  9 10  1  0
  9 11  1  0
 10 12  1  0
 11  5  1  6
 33 34  1  0
 33 35  1  0
 34 36  1  0
 35 37  1  0
 36 42  1  6
 20 21  2  0
 21 22  1  0
M  CHG  2   2  -1  26  -1
M  END
>  <COMPND>  (155) 
    8629 

>  <AUTHOR>  (155) 
    GENERATED BY OPEN BABEL 3.1.1

>  <MASTER>  (155) 
        0    0    0    0    0    0    0    0   58    0   58    0

>  <minimizedAffinity>  (155) 
-7.01783

>  <CNNscore>  (155) 
0.6358141303

>  <CNNaffinity>  (155) 
4.2447776794

>  <CNN_VS>  (155) 
2.6988897324

>  <CNNaffinity_variance>  (155) 
0.0776784047

$$$$
156
     RDKit          3D

 43 45  0  0  0  0  0  0  0  0999 V2000
   20.4127   72.5601   -0.6542 P   0  0  2  0  0  0  0  0  0  0  0  0
   20.5637   70.9532   -0.5422 O   0  0  0  0  0  0  0  0  0  0  0  0
   19.1462   73.1194   -0.0756 O   0  0  0  0  0  0  0  0  0  0  0  0
   20.6632   72.8654   -2.2232 O   0  0  0  0  0  0  0  0  0  0  0  0
   20.1083   71.9809   -3.1811 C   0  0  0  0  0  0  0  0  0  0  0  0
   20.6263   70.6165   -5.0900 O   0  0  0  0  0  0  0  0  0  0  0  0
   23.0591   72.3370   -5.4250 O   0  0  0  0  0  0  0  0  0  0  0  0
   21.3520   73.3509   -7.2944 O   0  0  0  0  0  0  0  0  0  0  0  0
   21.7510   72.6998   -4.9861 C   0  0  1  0  0  0  0  0  0  0  0  0
   20.7916   72.7259   -6.1577 C   0  0  2  0  0  0  0  0  0  0  0  0
   21.2010   71.5508   -4.1503 C   0  0  1  0  0  0  0  0  0  0  0  0
   20.5219   71.2469   -6.3771 C   0  0  2  0  0  0  0  0  0  0  0  0
   23.4311   73.0558   -5.9607 H   0  0  0  0  0  0  0  0  0  0  0  0
   21.5050   74.2898   -7.1049 H   0  0  0  0  0  0  0  0  0  0  0  0
   19.9077   71.1891   -9.1334 O   0  0  0  0  0  0  0  0  0  0  0  0
   15.4607   70.3011   -8.3107 O   0  0  0  0  0  0  0  0  0  0  0  0
   19.2119   71.0025   -6.9113 N   0  0  0  0  0  0  0  0  0  0  0  0
   17.6940   70.7468   -8.7215 N   0  0  0  0  0  0  0  0  0  0  0  0
   19.0099   70.9957   -8.3111 C   0  0  0  0  0  0  0  0  0  0  0  0
   18.1443   70.7726   -6.0503 C   0  0  0  0  0  0  0  0  0  0  0  0
   16.8951   70.5381   -6.4576 C   0  0  0  0  0  0  0  0  0  0  0  0
   16.5990   70.5139   -7.9046 C   0  0  0  0  0  0  0  0  0  0  0  0
   17.5294   70.7377   -9.6924 H   0  0  0  0  0  0  0  0  0  0  0  0
   21.7671   73.1019    0.0422 O   0  0  0  0  0  0  0  0  0  0  0  0
   23.2915   72.5715   -0.0461 P   0  0  2  0  0  0  0  0  0  0  0  0
   24.1544   73.9368   -0.1416 O   0  0  0  0  0  0  0  0  0  0  0  0
   23.5418   71.6013   -1.1641 O   0  0  0  0  0  0  0  0  0  0  0  0
   23.6081   71.9913    1.4264 O   0  0  0  0  0  0  0  0  0  0  0  0
   24.2349   73.3665    3.2519 O   0  0  0  0  0  0  0  0  0  0  0  0
   25.9975   69.8309    4.4536 O   0  0  0  0  0  0  0  0  0  0  0  0
   23.6454   70.7738    5.8052 O   0  0  0  0  0  0  0  0  0  0  0  0
   26.0223   70.5793    1.6573 O   0  0  0  0  0  0  0  0  0  0  0  0
   24.9958   70.6432    3.8353 C   0  0  1  0  0  0  0  0  0  0  0  0
   24.4053   71.5698    4.9000 C   0  0  1  0  0  0  0  0  0  0  0  0
   25.6356   71.4552    2.7108 C   0  0  2  0  0  0  0  0  0  0  0  0
   23.5192   72.6498    4.2647 C   0  0  1  0  0  0  0  0  0  0  0  0
   24.6876   72.5335    2.1828 C   0  0  1  0  0  0  0  0  0  0  0  0
   25.5976   69.3123    5.1682 H   0  0  0  0  0  0  0  0  0  0  0  0
   24.2165   70.0956    6.1990 H   0  0  0  0  0  0  0  0  0  0  0  0
   26.6224   69.9016    2.0043 H   0  0  0  0  0  0  0  0  0  0  0  0
   21.8997   73.1680    5.9433 O   0  0  0  0  0  0  0  0  0  0  0  0
   23.0473   73.6784    5.2901 C   0  0  0  0  0  0  0  0  0  0  0  0
   21.5884   73.8120    6.5991 H   0  0  0  0  0  0  0  0  0  0  0  0
 25 28  1  0
 25 24  1  0
 25 26  1  6
 25 27  2  0
  1  4  1  0
  1 24  1  0
  1  2  1  6
  1  3  2  0
  6 11  1  0
  6 12  1  0
 29 36  1  0
 29 37  1  0
  9  7  1  6
  7 13  1  0
 10  8  1  6
  8 14  1  0
 37 28  1  1
  4  5  1  0
 33 30  1  1
 30 38  1  0
 34 31  1  1
 31 39  1  0
 35 32  1  6
 32 40  1  0
 41 42  1  0
 41 43  1  0
 15 19  2  0
 16 22  2  0
 12 17  1  1
 17 19  1  0
 17 20  1  0
 18 19  1  0
 18 22  1  0
 18 23  1  0
  9 10  1  0
  9 11  1  0
 10 12  1  0
 11  5  1  1
 33 34  1  0
 33 35  1  0
 34 36  1  0
 35 37  1  0
 36 42  1  1
 20 21  2  0
 21 22  1  0
M  CHG  2   2  -1  26  -1
M  END
>  <COMPND>  (156) 
    8629 

>  <AUTHOR>  (156) 
    GENERATED BY OPEN BABEL 3.1.1

>  <MASTER>  (156) 
        0    0    0    0    0    0    0    0   58    0   58    0

>  <minimizedAffinity>  (156) 
-7.29324

>  <CNNscore>  (156) 
0.6210775971

>  <CNNaffinity>  (156) 
4.2400388718

>  <CNN_VS>  (156) 
2.6333930492

>  <CNNaffinity_variance>  (156) 
0.0636133626

$$$$
157
     RDKit          3D

 43 45  0  0  0  0  0  0  0  0999 V2000
   22.2286   72.5167   -2.1255 P   0  0  2  0  0  0  0  0  0  0  0  0
   21.0891   73.5856   -1.7056 O   0  0  0  0  0  0  0  0  0  0  0  0
   23.6291   73.0553   -2.1377 O   0  0  0  0  0  0  0  0  0  0  0  0
   21.6961   71.9122   -3.5286 O   0  0  0  0  0  0  0  0  0  0  0  0
   21.5539   72.7894   -4.6323 C   0  0  0  0  0  0  0  0  0  0  0  0
   20.7993   70.7514   -5.6575 O   0  0  0  0  0  0  0  0  0  0  0  0
   21.2739   72.1170   -8.2844 O   0  0  0  0  0  0  0  0  0  0  0  0
   18.5717   72.3281   -7.9845 O   0  0  0  0  0  0  0  0  0  0  0  0
   20.7941   72.6637   -7.0572 C   0  0  1  0  0  0  0  0  0  0  0  0
   19.3612   72.2368   -6.8160 C   0  0  2  0  0  0  0  0  0  0  0  0
   21.5286   71.9711   -5.9160 C   0  0  1  0  0  0  0  0  0  0  0  0
   19.5351   70.8051   -6.3384 C   0  0  2  0  0  0  0  0  0  0  0  0
   20.8195   72.5442   -9.0280 H   0  0  0  0  0  0  0  0  0  0  0  0
   18.4906   73.2580   -8.2481 H   0  0  0  0  0  0  0  0  0  0  0  0
   17.0275   69.7771   -7.1343 O   0  0  0  0  0  0  0  0  0  0  0  0
   15.6364   69.2886   -2.7677 O   0  0  0  0  0  0  0  0  0  0  0  0
   18.4989   70.4009   -5.4305 N   0  0  0  0  0  0  0  0  0  0  0  0
   16.3370   69.5345   -4.9595 N   0  0  0  0  0  0  0  0  0  0  0  0
   17.2759   69.8987   -5.9330 C   0  0  0  0  0  0  0  0  0  0  0  0
   18.7007   70.5040   -4.0585 C   0  0  0  0  0  0  0  0  0  0  0  0
   17.7947   70.1536   -3.1432 C   0  0  0  0  0  0  0  0  0  0  0  0
   16.4902   69.6195   -3.5847 C   0  0  0  0  0  0  0  0  0  0  0  0
   15.4773   69.1824   -5.2862 H   0  0  0  0  0  0  0  0  0  0  0  0
   21.9849   71.2999   -1.0897 O   0  0  0  0  0  0  0  0  0  0  0  0
   22.3696   71.1423    0.4723 P   0  0  2  0  0  0  0  0  0  0  0  0
   23.9772   70.9621    0.4422 O   0  0  0  0  0  0  0  0  0  0  0  0
   21.6360   70.0391    1.1785 O   0  0  0  0  0  0  0  0  0  0  0  0
   22.1357   72.6104    1.1008 O   0  0  0  0  0  0  0  0  0  0  0  0
   21.6283   72.3374    3.3996 O   0  0  0  0  0  0  0  0  0  0  0  0
   21.1645   76.4298    3.1029 O   0  0  0  0  0  0  0  0  0  0  0  0
   23.4479   75.3574    4.4757 O   0  0  0  0  0  0  0  0  0  0  0  0
   20.2885   74.7168    0.9401 O   0  0  0  0  0  0  0  0  0  0  0  0
   21.7496   75.1597    2.8031 C   0  0  1  0  0  0  0  0  0  0  0  0
   22.3179   74.5758    4.0980 C   0  0  1  0  0  0  0  0  0  0  0  0
   20.6762   74.2399    2.2242 C   0  0  2  0  0  0  0  0  0  0  0  0
   22.7221   73.1070    3.9128 C   0  0  1  0  0  0  0  0  0  0  0  0
   21.1642   72.7933    2.1274 C   0  0  1  0  0  0  0  0  0  0  0  0
   21.8410   77.0188    3.4704 H   0  0  0  0  0  0  0  0  0  0  0  0
   23.1792   76.2827    4.5889 H   0  0  0  0  0  0  0  0  0  0  0  0
   19.9813   75.6333    1.0149 H   0  0  0  0  0  0  0  0  0  0  0  0
   24.4529   72.8960    5.5463 O   0  0  0  0  0  0  0  0  0  0  0  0
   23.1439   72.4594    5.2299 C   0  0  0  0  0  0  0  0  0  0  0  0
   24.7345   72.4921    6.3826 H   0  0  0  0  0  0  0  0  0  0  0  0
 25 28  1  0
 25 24  1  0
 25 26  1  6
 25 27  2  0
  1  4  1  0
  1 24  1  0
  1  2  1  1
  1  3  2  0
  6 11  1  0
  6 12  1  0
 29 36  1  0
 29 37  1  0
  9  7  1  6
  7 13  1  0
 10  8  1  6
  8 14  1  0
 37 28  1  6
  4  5  1  0
 33 30  1  1
 30 38  1  0
 34 31  1  6
 31 39  1  0
 35 32  1  6
 32 40  1  0
 41 42  1  0
 41 43  1  0
 15 19  2  0
 16 22  2  0
 12 17  1  1
 17 19  1  0
 17 20  1  0
 18 19  1  0
 18 22  1  0
 18 23  1  0
  9 10  1  0
  9 11  1  0
 10 12  1  0
 11  5  1  1
 33 34  1  0
 33 35  1  0
 34 36  1  0
 35 37  1  0
 36 42  1  1
 20 21  2  0
 21 22  1  0
M  CHG  2   2  -1  26  -1
M  END
>  <COMPND>  (157) 
    8629 

>  <AUTHOR>  (157) 
    GENERATED BY OPEN BABEL 3.1.1

>  <MASTER>  (157) 
        0    0    0    0    0    0    0    0   58    0   58    0

>  <minimizedAffinity>  (157) 
-6.41864

>  <CNNscore>  (157) 
0.5639805794

>  <CNNaffinity>  (157) 
4.0781741142

>  <CNN_VS>  (157) 
2.3000109196

>  <CNNaffinity_variance>  (157) 
0.2705339491

$$$$
158
     RDKit          3D

 43 45  0  0  0  0  0  0  0  0999 V2000
   23.2636   71.8109   -2.5511 P   0  0  2  0  0  0  0  0  0  0  0  0
   23.6438   73.3709   -2.3532 O   0  0  0  0  0  0  0  0  0  0  0  0
   24.3145   70.9838   -3.2315 O   0  0  0  0  0  0  0  0  0  0  0  0
   21.8204   71.8525   -3.2815 O   0  0  0  0  0  0  0  0  0  0  0  0
   21.6202   72.7836   -4.3306 C   0  0  0  0  0  0  0  0  0  0  0  0
   20.8634   70.8199   -5.4903 O   0  0  0  0  0  0  0  0  0  0  0  0
   21.4285   72.3250   -8.0214 O   0  0  0  0  0  0  0  0  0  0  0  0
   18.7226   72.5627   -7.7800 O   0  0  0  0  0  0  0  0  0  0  0  0
   20.9240   72.8086   -6.7776 C   0  0  1  0  0  0  0  0  0  0  0  0
   19.4790   72.3920   -6.5987 C   0  0  2  0  0  0  0  0  0  0  0  0
   21.6173   72.0403   -5.6594 C   0  0  1  0  0  0  0  0  0  0  0  0
   19.6188   70.9328   -6.1996 C   0  0  2  0  0  0  0  0  0  0  0  0
   21.0005   72.8011   -8.7508 H   0  0  0  0  0  0  0  0  0  0  0  0
   18.6623   73.5072   -7.9919 H   0  0  0  0  0  0  0  0  0  0  0  0
   17.1632   69.8826   -7.1188 O   0  0  0  0  0  0  0  0  0  0  0  0
   15.6014   69.2849   -2.8241 O   0  0  0  0  0  0  0  0  0  0  0  0
   18.5528   70.4945   -5.3435 N   0  0  0  0  0  0  0  0  0  0  0  0
   16.3876   69.5857   -4.9796 N   0  0  0  0  0  0  0  0  0  0  0  0
   17.3598   69.9838   -5.9061 C   0  0  0  0  0  0  0  0  0  0  0  0
   18.6962   70.5731   -3.9625 C   0  0  0  0  0  0  0  0  0  0  0  0
   17.7591   70.1904   -3.0927 C   0  0  0  0  0  0  0  0  0  0  0  0
   16.4827   69.6452   -3.5983 C   0  0  0  0  0  0  0  0  0  0  0  0
   15.5480   69.2270   -5.3486 H   0  0  0  0  0  0  0  0  0  0  0  0
   22.8979   71.3327   -1.0509 O   0  0  0  0  0  0  0  0  0  0  0  0
   21.7263   71.8047   -0.0423 P   0  0  2  0  0  0  0  0  0  0  0  0
   20.6267   70.6252   -0.1729 O   0  0  0  0  0  0  0  0  0  0  0  0
   21.1939   73.1810   -0.3186 O   0  0  0  0  0  0  0  0  0  0  0  0
   22.3552   71.6144    1.4319 O   0  0  0  0  0  0  0  0  0  0  0  0
   23.1308   73.3565    2.8391 O   0  0  0  0  0  0  0  0  0  0  0  0
   25.6192   70.3189    4.1168 O   0  0  0  0  0  0  0  0  0  0  0  0
   23.4831   71.2116    5.8164 O   0  0  0  0  0  0  0  0  0  0  0  0
   24.9503   70.5533    1.3101 O   0  0  0  0  0  0  0  0  0  0  0  0
   24.3998   70.8870    3.6311 C   0  0  1  0  0  0  0  0  0  0  0  0
   23.9093   71.9149    4.6527 C   0  0  1  0  0  0  0  0  0  0  0  0
   24.6621   71.5531    2.2817 C   0  0  2  0  0  0  0  0  0  0  0  0
   22.7576   72.7549    4.0843 C   0  0  1  0  0  0  0  0  0  0  0  0
   23.4730   72.4034    1.8309 C   0  0  1  0  0  0  0  0  0  0  0  0
   25.4594   69.8940    4.9732 H   0  0  0  0  0  0  0  0  0  0  0  0
   24.2194   70.6848    6.1651 H   0  0  0  0  0  0  0  0  0  0  0  0
   25.7049   70.0221    1.6070 H   0  0  0  0  0  0  0  0  0  0  0  0
   21.4983   73.3652    6.0209 O   0  0  0  0  0  0  0  0  0  0  0  0
   22.3581   73.8890    5.0256 C   0  0  0  0  0  0  0  0  0  0  0  0
   21.2361   74.0758    6.6275 H   0  0  0  0  0  0  0  0  0  0  0  0
 25 28  1  0
 25 24  1  0
 25 26  1  1
 25 27  2  0
  1  4  1  0
  1 24  1  0
  1  2  1  1
  1  3  2  0
  6 11  1  0
  6 12  1  0
 29 36  1  0
 29 37  1  0
  9  7  1  6
  7 13  1  0
 10  8  1  6
  8 14  1  0
 37 28  1  1
  4  5  1  0
 33 30  1  1
 30 38  1  0
 34 31  1  1
 31 39  1  0
 35 32  1  6
 32 40  1  0
 41 42  1  0
 41 43  1  0
 15 19  2  0
 16 22  2  0
 12 17  1  1
 17 19  1  0
 17 20  1  0
 18 19  1  0
 18 22  1  0
 18 23  1  0
  9 10  1  0
  9 11  1  0
 10 12  1  0
 11  5  1  1
 33 34  1  0
 33 35  1  0
 34 36  1  0
 35 37  1  0
 36 42  1  1
 20 21  2  0
 21 22  1  0
M  CHG  2   2  -1  26  -1
M  END
>  <COMPND>  (158) 
    8629 

>  <AUTHOR>  (158) 
    GENERATED BY OPEN BABEL 3.1.1

>  <MASTER>  (158) 
        0    0    0    0    0    0    0    0   58    0   58    0

>  <minimizedAffinity>  (158) 
-8.01474

>  <CNNscore>  (158) 
0.5594332814

>  <CNNaffinity>  (158) 
4.1735901833

>  <CNN_VS>  (158) 
2.3348453045

>  <CNNaffinity_variance>  (158) 
0.3191515803

$$$$
159
     RDKit          3D

 43 45  0  0  0  0  0  0  0  0999 V2000
   19.9043   71.2113   -2.4555 P   0  0  2  0  0  0  0  0  0  0  0  0
   20.5617   70.0341   -3.3497 O   0  0  0  0  0  0  0  0  0  0  0  0
   20.4532   72.5839   -2.7123 O   0  0  0  0  0  0  0  0  0  0  0  0
   20.0458   70.6707   -0.9371 O   0  0  0  0  0  0  0  0  0  0  0  0
   21.1919   71.0420   -0.1913 C   0  0  0  0  0  0  0  0  0  0  0  0
   21.3424   71.5395    2.1548 O   0  0  0  0  0  0  0  0  0  0  0  0
   20.4684   74.3150    1.4313 O   0  0  0  0  0  0  0  0  0  0  0  0
   23.1610   74.6043    1.7520 O   0  0  0  0  0  0  0  0  0  0  0  0
   21.3118   73.4181    0.7106 C   0  0  1  0  0  0  0  0  0  0  0  0
   22.6740   73.3348    1.3672 C   0  0  2  0  0  0  0  0  0  0  0  0
   20.7753   72.0062    0.9110 C   0  0  1  0  0  0  0  0  0  0  0  0
   22.3960   72.4304    2.5559 C   0  0  2  0  0  0  0  0  0  0  0  0
   20.7911   75.2233    1.3181 H   0  0  0  0  0  0  0  0  0  0  0  0
   23.3224   75.1421    0.9611 H   0  0  0  0  0  0  0  0  0  0  0  0
   24.1628   71.1988    0.7285 O   0  0  0  0  0  0  0  0  0  0  0  0
   26.7647   69.4788    4.1216 O   0  0  0  0  0  0  0  0  0  0  0  0
   23.5436   71.6550    2.9343 N   0  0  0  0  0  0  0  0  0  0  0  0
   25.4570   70.3435    2.4195 N   0  0  0  0  0  0  0  0  0  0  0  0
   24.3659   71.0783    1.9384 C   0  0  0  0  0  0  0  0  0  0  0  0
   23.8441   71.4732    4.2799 C   0  0  0  0  0  0  0  0  0  0  0  0
   24.8876   70.7686    4.7221 C   0  0  0  0  0  0  0  0  0  0  0  0
   25.7967   70.1331    3.7465 C   0  0  0  0  0  0  0  0  0  0  0  0
   26.0436   69.9322    1.7439 H   0  0  0  0  0  0  0  0  0  0  0  0
   18.3231   71.0528   -2.7517 O   0  0  0  0  0  0  0  0  0  0  0  0
   17.4986   69.8973   -3.5251 P   0  0  2  0  0  0  0  0  0  0  0  0
   16.0178   70.5324   -3.6708 O   0  0  0  0  0  0  0  0  0  0  0  0
   17.5341   68.5579   -2.8479 O   0  0  0  0  0  0  0  0  0  0  0  0
   18.0946   69.9045   -5.0250 O   0  0  0  0  0  0  0  0  0  0  0  0
   19.2094   71.7229   -6.0581 O   0  0  0  0  0  0  0  0  0  0  0  0
   17.5604   69.9682   -9.4126 O   0  0  0  0  0  0  0  0  0  0  0  0
   20.3866   69.7591   -8.9472 O   0  0  0  0  0  0  0  0  0  0  0  0
   16.0525   70.0627   -6.9434 O   0  0  0  0  0  0  0  0  0  0  0  0
   18.1568   69.9892   -8.1129 C   0  0  1  0  0  0  0  0  0  0  0  0
   19.5340   70.6456   -8.2278 C   0  0  1  0  0  0  0  0  0  0  0  0
   17.2601   70.7832   -7.1649 C   0  0  2  0  0  0  0  0  0  0  0  0
   20.1219   70.9459   -6.8424 C   0  0  1  0  0  0  0  0  0  0  0  0
   17.9583   71.0697   -5.8343 C   0  0  1  0  0  0  0  0  0  0  0  0
   18.1246   69.4650  -10.0193 H   0  0  0  0  0  0  0  0  0  0  0  0
   20.0037   69.5773   -9.8198 H   0  0  0  0  0  0  0  0  0  0  0  0
   15.6199   69.8879   -7.7932 H   0  0  0  0  0  0  0  0  0  0  0  0
   21.5353   72.2699   -8.2418 O   0  0  0  0  0  0  0  0  0  0  0  0
   21.4220   71.7419   -6.9331 C   0  0  0  0  0  0  0  0  0  0  0  0
   22.3580   72.7794   -8.3142 H   0  0  0  0  0  0  0  0  0  0  0  0
 25 28  1  0
 25 24  1  0
 25 26  1  6
 25 27  2  0
  1  4  1  0
  1 24  1  0
  1  2  1  6
  1  3  2  0
  6 11  1  0
  6 12  1  0
 29 36  1  0
 29 37  1  0
  9  7  1  1
  7 13  1  0
 10  8  1  1
  8 14  1  0
 37 28  1  6
  4  5  1  0
 33 30  1  6
 30 38  1  0
 34 31  1  1
 31 39  1  0
 35 32  1  1
 32 40  1  0
 41 42  1  0
 41 43  1  0
 15 19  2  0
 16 22  2  0
 12 17  1  6
 17 19  1  0
 17 20  1  0
 18 19  1  0
 18 22  1  0
 18 23  1  0
  9 10  1  0
  9 11  1  0
 10 12  1  0
 11  5  1  6
 33 34  1  0
 33 35  1  0
 34 36  1  0
 35 37  1  0
 36 42  1  6
 20 21  2  0
 21 22  1  0
M  CHG  2   2  -1  26  -1
M  END
>  <COMPND>  (159) 
    8629 

>  <AUTHOR>  (159) 
    GENERATED BY OPEN BABEL 3.1.1

>  <MASTER>  (159) 
        0    0    0    0    0    0    0    0   58    0   58    0

>  <minimizedAffinity>  (159) 
-7.91645

>  <CNNscore>  (159) 
0.5481047034

>  <CNNaffinity>  (159) 
4.3203339577

>  <CNN_VS>  (159) 
2.3679952621

>  <CNNaffinity_variance>  (159) 
0.0601185374

$$$$
160
     RDKit          3D

 43 45  0  0  0  0  0  0  0  0999 V2000
   23.0421   71.7104   -3.1377 P   0  0  2  0  0  0  0  0  0  0  0  0
   21.7242   70.8336   -2.8032 O   0  0  0  0  0  0  0  0  0  0  0  0
   24.3374   70.9553   -3.0790 O   0  0  0  0  0  0  0  0  0  0  0  0
   22.9247   72.9824   -2.1446 O   0  0  0  0  0  0  0  0  0  0  0  0
   22.7458   72.7443   -0.7593 C   0  0  0  0  0  0  0  0  0  0  0  0
   21.0211   72.5863    0.9064 O   0  0  0  0  0  0  0  0  0  0  0  0
   19.9153   75.1140   -0.2677 O   0  0  0  0  0  0  0  0  0  0  0  0
   21.2218   76.0113    1.9514 O   0  0  0  0  0  0  0  0  0  0  0  0
   21.2751   74.7145   -0.1046 C   0  0  1  0  0  0  0  0  0  0  0  0
   21.6827   74.8183    1.3503 C   0  0  2  0  0  0  0  0  0  0  0  0
   21.3559   73.2132   -0.3511 C   0  0  1  0  0  0  0  0  0  0  0  0
   21.0406   73.5773    1.9467 C   0  0  2  0  0  0  0  0  0  0  0  0
   19.8387   76.0695   -0.1155 H   0  0  0  0  0  0  0  0  0  0  0  0
   21.6594   76.7718    1.5379 H   0  0  0  0  0  0  0  0  0  0  0  0
   20.6154   74.3534    4.6291 O   0  0  0  0  0  0  0  0  0  0  0  0
   23.9297   71.5407    6.1603 O   0  0  0  0  0  0  0  0  0  0  0  0
   21.7779   73.0635    3.0665 N   0  0  0  0  0  0  0  0  0  0  0  0
   22.2659   72.9522    5.3894 N   0  0  0  0  0  0  0  0  0  0  0  0
   21.4867   73.5198    4.3731 C   0  0  0  0  0  0  0  0  0  0  0  0
   22.7767   72.1175    2.8632 C   0  0  0  0  0  0  0  0  0  0  0  0
   23.5116   71.5870    3.8429 C   0  0  0  0  0  0  0  0  0  0  0  0
   23.2708   72.0099    5.2376 C   0  0  0  0  0  0  0  0  0  0  0  0
   22.0811   73.2553    6.3079 H   0  0  0  0  0  0  0  0  0  0  0  0
   22.6987   72.3456   -4.5839 O   0  0  0  0  0  0  0  0  0  0  0  0
   21.6578   73.5051   -5.0139 P   0  0  2  0  0  0  0  0  0  0  0  0
   22.4277   74.2682   -6.2149 O   0  0  0  0  0  0  0  0  0  0  0  0
   21.2313   74.3987   -3.8854 O   0  0  0  0  0  0  0  0  0  0  0  0
   20.4483   72.7200   -5.7390 O   0  0  0  0  0  0  0  0  0  0  0  0
   19.6993   70.4761   -5.5954 O   0  0  0  0  0  0  0  0  0  0  0  0
   19.2166   71.0744   -9.6525 O   0  0  0  0  0  0  0  0  0  0  0  0
   16.9044   70.9345   -7.9549 O   0  0  0  0  0  0  0  0  0  0  0  0
   21.5044   72.2074   -8.2879 O   0  0  0  0  0  0  0  0  0  0  0  0
   19.2191   71.4470   -8.2717 C   0  0  1  0  0  0  0  0  0  0  0  0
   18.2134   70.5608   -7.5341 C   0  0  1  0  0  0  0  0  0  0  0  0
   20.6241   71.2527   -7.7047 C   0  0  2  0  0  0  0  0  0  0  0  0
   18.3502   70.7149   -6.0134 C   0  0  1  0  0  0  0  0  0  0  0  0
   20.6404   71.3784   -6.1803 C   0  0  1  0  0  0  0  0  0  0  0  0
   18.3275   71.1959  -10.0187 H   0  0  0  0  0  0  0  0  0  0  0  0
   16.8314   70.8330   -8.9170 H   0  0  0  0  0  0  0  0  0  0  0  0
   21.4853   72.1174   -9.2530 H   0  0  0  0  0  0  0  0  0  0  0  0
   16.1540   70.2514   -5.1943 O   0  0  0  0  0  0  0  0  0  0  0  0
   17.4670   69.7254   -5.2565 C   0  0  0  0  0  0  0  0  0  0  0  0
   15.5806   69.6320   -4.7155 H   0  0  0  0  0  0  0  0  0  0  0  0
 25 28  1  0
 25 24  1  0
 25 26  1  6
 25 27  2  0
  1  4  1  0
  1 24  1  0
  1  2  1  1
  1  3  2  0
  6 11  1  0
  6 12  1  0
 29 36  1  0
 29 37  1  0
  9  7  1  1
  7 13  1  0
 10  8  1  1
  8 14  1  0
 37 28  1  6
  4  5  1  0
 33 30  1  6
 30 38  1  0
 34 31  1  6
 31 39  1  0
 35 32  1  6
 32 40  1  0
 41 42  1  0
 41 43  1  0
 15 19  2  0
 16 22  2  0
 12 17  1  1
 17 19  1  0
 17 20  1  0
 18 19  1  0
 18 22  1  0
 18 23  1  0
  9 10  1  0
  9 11  1  0
 10 12  1  0
 11  5  1  1
 33 34  1  0
 33 35  1  0
 34 36  1  0
 35 37  1  0
 36 42  1  1
 20 21  2  0
 21 22  1  0
M  CHG  2   2  -1  26  -1
M  END
>  <COMPND>  (160) 
    8629 

>  <AUTHOR>  (160) 
    GENERATED BY OPEN BABEL 3.1.1

>  <MASTER>  (160) 
        0    0    0    0    0    0    0    0   58    0   58    0

>  <minimizedAffinity>  (160) 
-6.82672

>  <CNNscore>  (160) 
0.5165463686

>  <CNNaffinity>  (160) 
4.0215139389

>  <CNN_VS>  (160) 
2.0772984028

>  <CNNaffinity_variance>  (160) 
0.0572797656

$$$$
161
     RDKit          3D

 43 45  0  0  0  0  0  0  0  0999 V2000
   20.8039   72.6747   -2.2420 P   0  0  2  0  0  0  0  0  0  0  0  0
   19.5124   73.4979   -1.7204 O   0  0  0  0  0  0  0  0  0  0  0  0
   22.0493   73.4934   -2.4161 O   0  0  0  0  0  0  0  0  0  0  0  0
   20.2711   71.9154   -3.5677 O   0  0  0  0  0  0  0  0  0  0  0  0
   19.5478   70.7072   -3.4101 C   0  0  0  0  0  0  0  0  0  0  0  0
   17.8149   71.5984   -4.8160 O   0  0  0  0  0  0  0  0  0  0  0  0
   15.8855   70.1401   -3.0436 O   0  0  0  0  0  0  0  0  0  0  0  0
   16.0534   68.5000   -5.2158 O   0  0  0  0  0  0  0  0  0  0  0  0
   17.1906   69.7515   -3.4689 C   0  0  1  0  0  0  0  0  0  0  0  0
   17.1643   69.3219   -4.9209 C   0  0  2  0  0  0  0  0  0  0  0  0
   18.0584   71.0026   -3.5229 C   0  0  1  0  0  0  0  0  0  0  0  0
   17.1119   70.6573   -5.6436 C   0  0  2  0  0  0  0  0  0  0  0  0
   15.3131   69.3575   -3.0011 H   0  0  0  0  0  0  0  0  0  0  0  0
   16.1330   67.6629   -4.7325 H   0  0  0  0  0  0  0  0  0  0  0  0
   15.7240   70.4067   -8.0908 O   0  0  0  0  0  0  0  0  0  0  0  0
   19.6357   70.4758  -10.5269 O   0  0  0  0  0  0  0  0  0  0  0  0
   17.7426   70.6076   -6.9324 N   0  0  0  0  0  0  0  0  0  0  0  0
   17.6728   70.4415   -9.3018 N   0  0  0  0  0  0  0  0  0  0  0  0
   16.9545   70.4795   -8.0999 C   0  0  0  0  0  0  0  0  0  0  0  0
   19.1277   70.6861   -7.0296 C   0  0  0  0  0  0  0  0  0  0  0  0
   19.7975   70.6471   -8.1834 C   0  0  0  0  0  0  0  0  0  0  0  0
   19.0489   70.5146   -9.4499 C   0  0  0  0  0  0  0  0  0  0  0  0
   17.1448   70.3522  -10.1282 H   0  0  0  0  0  0  0  0  0  0  0  0
   20.9313   71.4771   -1.1638 O   0  0  0  0  0  0  0  0  0  0  0  0
   21.8875   71.3097    0.1287 P   0  0  2  0  0  0  0  0  0  0  0  0
   23.3699   71.2293   -0.5143 O   0  0  0  0  0  0  0  0  0  0  0  0
   21.5315   70.1484    1.0112 O   0  0  0  0  0  0  0  0  0  0  0  0
   21.8386   72.7466    0.8620 O   0  0  0  0  0  0  0  0  0  0  0  0
   21.2632   72.5169    3.1495 O   0  0  0  0  0  0  0  0  0  0  0  0
   21.0651   76.6290    2.8291 O   0  0  0  0  0  0  0  0  0  0  0  0
   23.2447   75.4214    4.2570 O   0  0  0  0  0  0  0  0  0  0  0  0
   20.1319   74.9644    0.6524 O   0  0  0  0  0  0  0  0  0  0  0  0
   21.5755   75.3231    2.5467 C   0  0  1  0  0  0  0  0  0  0  0  0
   22.0766   74.7107    3.8562 C   0  0  1  0  0  0  0  0  0  0  0  0
   20.4596   74.4700    1.9465 C   0  0  2  0  0  0  0  0  0  0  0  0
   22.3914   73.2185    3.6850 C   0  0  1  0  0  0  0  0  0  0  0  0
   20.8576   72.9952    1.8655 C   0  0  1  0  0  0  0  0  0  0  0  0
   21.7689   77.1759    3.2100 H   0  0  0  0  0  0  0  0  0  0  0  0
   23.0324   76.3623    4.3611 H   0  0  0  0  0  0  0  0  0  0  0  0
   19.8815   75.8987    0.7172 H   0  0  0  0  0  0  0  0  0  0  0  0
   22.0890   73.2545    6.0548 O   0  0  0  0  0  0  0  0  0  0  0  0
   22.7418   72.5518    5.0135 C   0  0  0  0  0  0  0  0  0  0  0  0
   22.3026   72.8411    6.9064 H   0  0  0  0  0  0  0  0  0  0  0  0
 25 28  1  0
 25 24  1  0
 25 26  1  6
 25 27  2  0
  1  4  1  0
  1 24  1  0
  1  2  1  1
  1  3  2  0
  6 11  1  0
  6 12  1  0
 29 36  1  0
 29 37  1  0
  9  7  1  6
  7 13  1  0
 10  8  1  1
  8 14  1  0
 37 28  1  6
  4  5  1  0
 33 30  1  1
 30 38  1  0
 34 31  1  6
 31 39  1  0
 35 32  1  6
 32 40  1  0
 41 42  1  0
 41 43  1  0
 15 19  2  0
 16 22  2  0
 12 17  1  6
 17 19  1  0
 17 20  1  0
 18 19  1  0
 18 22  1  0
 18 23  1  0
  9 10  1  0
  9 11  1  0
 10 12  1  0
 11  5  1  6
 33 34  1  0
 33 35  1  0
 34 36  1  0
 35 37  1  0
 36 42  1  1
 20 21  2  0
 21 22  1  0
M  CHG  2   2  -1  26  -1
M  END
>  <COMPND>  (161) 
    8629 

>  <AUTHOR>  (161) 
    GENERATED BY OPEN BABEL 3.1.1

>  <MASTER>  (161) 
        0    0    0    0    0    0    0    0   58    0   58    0

>  <minimizedAffinity>  (161) 
-6.96034

>  <CNNscore>  (161) 
0.8749322295

>  <CNNaffinity>  (161) 
4.5156641006

>  <CNN_VS>  (161) 
3.9509000778

>  <CNNaffinity_variance>  (161) 
0.0533134118

$$$$
162
     RDKit          3D

 43 45  0  0  0  0  0  0  0  0999 V2000
   23.0133   71.5470   -2.3574 P   0  0  2  0  0  0  0  0  0  0  0  0
   22.7916   73.1237   -2.6442 O   0  0  0  0  0  0  0  0  0  0  0  0
   24.2543   70.9608   -2.9638 O   0  0  0  0  0  0  0  0  0  0  0  0
   21.6184   70.8686   -2.8177 O   0  0  0  0  0  0  0  0  0  0  0  0
   20.9951   71.3397   -3.9998 C   0  0  0  0  0  0  0  0  0  0  0  0
   18.8965   72.0352   -4.9411 O   0  0  0  0  0  0  0  0  0  0  0  0
   17.6141   70.7528   -2.5532 O   0  0  0  0  0  0  0  0  0  0  0  0
   17.2476   68.8806   -4.5019 O   0  0  0  0  0  0  0  0  0  0  0  0
   18.7655   70.3418   -3.2885 C   0  0  1  0  0  0  0  0  0  0  0  0
   18.3550   69.7502   -4.6208 C   0  0  2  0  0  0  0  0  0  0  0  0
   19.5211   71.5939   -3.7157 C   0  0  1  0  0  0  0  0  0  0  0  0
   18.0371   70.9940   -5.4333 C   0  0  2  0  0  0  0  0  0  0  0  0
   17.1155   69.9700   -2.2694 H   0  0  0  0  0  0  0  0  0  0  0  0
   17.5002   68.1051   -3.9770 H   0  0  0  0  0  0  0  0  0  0  0  0
   16.1554   69.9452   -7.2601 O   0  0  0  0  0  0  0  0  0  0  0  0
   19.0933   70.3315  -10.7900 O   0  0  0  0  0  0  0  0  0  0  0  0
   18.2836   70.8100   -6.8357 N   0  0  0  0  0  0  0  0  0  0  0  0
   17.6197   70.1386   -9.0163 N   0  0  0  0  0  0  0  0  0  0  0  0
   17.2717   70.2746   -7.6663 C   0  0  0  0  0  0  0  0  0  0  0  0
   19.5173   71.1591   -7.3741 C   0  0  0  0  0  0  0  0  0  0  0  0
   19.8338   71.0219   -8.6634 C   0  0  0  0  0  0  0  0  0  0  0  0
   18.8327   70.4700   -9.5989 C   0  0  0  0  0  0  0  0  0  0  0  0
   16.9306   69.7673   -9.6138 H   0  0  0  0  0  0  0  0  0  0  0  0
   22.9459   71.4580   -0.7448 O   0  0  0  0  0  0  0  0  0  0  0  0
   21.7389   71.7647    0.2858 P   0  0  2  0  0  0  0  0  0  0  0  0
   20.7786   70.4723    0.1277 O   0  0  0  0  0  0  0  0  0  0  0  0
   21.0513   73.0791    0.0545 O   0  0  0  0  0  0  0  0  0  0  0  0
   22.4005   71.6043    1.7492 O   0  0  0  0  0  0  0  0  0  0  0  0
   23.2648   73.3533    3.0948 O   0  0  0  0  0  0  0  0  0  0  0  0
   25.7269   70.2823    4.3429 O   0  0  0  0  0  0  0  0  0  0  0  0
   23.6731   71.2558    6.0985 O   0  0  0  0  0  0  0  0  0  0  0  0
   24.9649   70.4808    1.5573 O   0  0  0  0  0  0  0  0  0  0  0  0
   24.5044   70.8698    3.8893 C   0  0  1  0  0  0  0  0  0  0  0  0
   24.0738   71.9274    4.9075 C   0  0  1  0  0  0  0  0  0  0  0  0
   24.7340   71.5047    2.5190 C   0  0  2  0  0  0  0  0  0  0  0  0
   22.9222   72.7836    4.3636 C   0  0  1  0  0  0  0  0  0  0  0  0
   23.5494   72.3742    2.0938 C   0  0  1  0  0  0  0  0  0  0  0  0
   25.5879   69.8770    5.2123 H   0  0  0  0  0  0  0  0  0  0  0  0
   24.4090   70.7184    6.4314 H   0  0  0  0  0  0  0  0  0  0  0  0
   25.7173   69.9376    1.8379 H   0  0  0  0  0  0  0  0  0  0  0  0
   21.6029   73.5055    6.2202 O   0  0  0  0  0  0  0  0  0  0  0  0
   22.5820   73.9439    5.2964 C   0  0  0  0  0  0  0  0  0  0  0  0
   21.3768   74.2337    6.8206 H   0  0  0  0  0  0  0  0  0  0  0  0
 25 28  1  0
 25 24  1  0
 25 26  1  1
 25 27  2  0
  1  4  1  0
  1 24  1  0
  1  2  1  1
  1  3  2  0
  6 11  1  0
  6 12  1  0
 29 36  1  0
 29 37  1  0
  9  7  1  1
  7 13  1  0
 10  8  1  1
  8 14  1  0
 37 28  1  1
  4  5  1  0
 33 30  1  1
 30 38  1  0
 34 31  1  1
 31 39  1  0
 35 32  1  6
 32 40  1  0
 41 42  1  0
 41 43  1  0
 15 19  2  0
 16 22  2  0
 12 17  1  6
 17 19  1  0
 17 20  1  0
 18 19  1  0
 18 22  1  0
 18 23  1  0
  9 10  1  0
  9 11  1  0
 10 12  1  0
 11  5  1  6
 33 34  1  0
 33 35  1  0
 34 36  1  0
 35 37  1  0
 36 42  1  1
 20 21  2  0
 21 22  1  0
M  CHG  2   2  -1  26  -1
M  END
>  <COMPND>  (162) 
    8629 

>  <AUTHOR>  (162) 
    GENERATED BY OPEN BABEL 3.1.1

>  <MASTER>  (162) 
        0    0    0    0    0    0    0    0   58    0   58    0

>  <minimizedAffinity>  (162) 
-8.39328

>  <CNNscore>  (162) 
0.8478569388

>  <CNNaffinity>  (162) 
4.6110925674

>  <CNN_VS>  (162) 
3.9095468521

>  <CNNaffinity_variance>  (162) 
0.1298592985

$$$$
163
     RDKit          3D

 43 45  0  0  0  0  0  0  0  0999 V2000
   23.3395   72.3027   -3.5477 P   0  0  2  0  0  0  0  0  0  0  0  0
   24.1629   73.0430   -4.7273 O   0  0  0  0  0  0  0  0  0  0  0  0
   24.0476   71.1424   -2.9124 O   0  0  0  0  0  0  0  0  0  0  0  0
   21.9084   71.9676   -4.2242 O   0  0  0  0  0  0  0  0  0  0  0  0
   21.2032   70.8210   -3.7816 C   0  0  0  0  0  0  0  0  0  0  0  0
   19.1813   71.7910   -4.6445 O   0  0  0  0  0  0  0  0  0  0  0  0
   17.7961   70.5194   -2.3088 O   0  0  0  0  0  0  0  0  0  0  0  0
   17.2054   68.8122   -4.3517 O   0  0  0  0  0  0  0  0  0  0  0  0
   18.8872   70.0297   -3.0866 C   0  0  1  0  0  0  0  0  0  0  0  0
   18.3991   69.5630   -4.4421 C   0  0  2  0  0  0  0  0  0  0  0  0
   19.7690   71.2157   -3.4570 C   0  0  1  0  0  0  0  0  0  0  0  0
   18.2082   70.8783   -5.1782 C   0  0  2  0  0  0  0  0  0  0  0  0
   17.2190   69.7799   -2.0600 H   0  0  0  0  0  0  0  0  0  0  0  0
   17.3787   67.9853   -3.8754 H   0  0  0  0  0  0  0  0  0  0  0  0
   16.2401   70.0090   -7.0082 O   0  0  0  0  0  0  0  0  0  0  0  0
   19.1201   70.4208  -10.5827 O   0  0  0  0  0  0  0  0  0  0  0  0
   18.4164   70.7494   -6.5929 N   0  0  0  0  0  0  0  0  0  0  0  0
   17.6757   70.2149   -8.7865 N   0  0  0  0  0  0  0  0  0  0  0  0
   17.3626   70.3033   -7.4241 C   0  0  0  0  0  0  0  0  0  0  0  0
   19.6545   71.0640   -7.1426 C   0  0  0  0  0  0  0  0  0  0  0  0
   19.9372   70.9732   -8.4438 C   0  0  0  0  0  0  0  0  0  0  0  0
   18.8912   70.5150   -9.3808 C   0  0  0  0  0  0  0  0  0  0  0  0
   16.9570   69.9060   -9.3848 H   0  0  0  0  0  0  0  0  0  0  0  0
   22.9882   73.5127   -2.5351 O   0  0  0  0  0  0  0  0  0  0  0  0
   23.9106   74.6974   -1.9361 P   0  0  2  0  0  0  0  0  0  0  0  0
   22.8330   75.8238   -1.5032 O   0  0  0  0  0  0  0  0  0  0  0  0
   24.9728   75.1861   -2.8778 O   0  0  0  0  0  0  0  0  0  0  0  0
   24.4717   74.1123   -0.5405 O   0  0  0  0  0  0  0  0  0  0  0  0
   22.5639   73.1029    0.4382 O   0  0  0  0  0  0  0  0  0  0  0  0
   25.3768   72.1006    3.2902 O   0  0  0  0  0  0  0  0  0  0  0  0
   24.3506   70.0712    1.5362 O   0  0  0  0  0  0  0  0  0  0  0  0
   25.4763   74.6969    2.0137 O   0  0  0  0  0  0  0  0  0  0  0  0
   24.8968   72.3595    1.9681 C   0  0  1  0  0  0  0  0  0  0  0  0
   23.7727   71.3674    1.6632 C   0  0  1  0  0  0  0  0  0  0  0  0
   24.3808   73.7954    1.8965 C   0  0  2  0  0  0  0  0  0  0  0  0
   23.0303   71.7500    0.3757 C   0  0  1  0  0  0  0  0  0  0  0  0
   23.6158   74.0567    0.5978 C   0  0  1  0  0  0  0  0  0  0  0  0
   25.7064   71.1906    3.3422 H   0  0  0  0  0  0  0  0  0  0  0  0
   24.8167   69.8420    2.3556 H   0  0  0  0  0  0  0  0  0  0  0  0
   25.9522   74.5215    2.8399 H   0  0  0  0  0  0  0  0  0  0  0  0
   21.4309   70.2782    1.3680 O   0  0  0  0  0  0  0  0  0  0  0  0
   21.8073   70.8671    0.1369 C   0  0  0  0  0  0  0  0  0  0  0  0
   20.6535   69.7137    1.2314 H   0  0  0  0  0  0  0  0  0  0  0  0
 25 28  1  0
 25 24  1  0
 25 26  1  1
 25 27  2  0
  1  4  1  0
  1 24  1  0
  1  2  1  6
  1  3  2  0
  6 11  1  0
  6 12  1  0
 29 36  1  0
 29 37  1  0
  9  7  1  1
  7 13  1  0
 10  8  1  1
  8 14  1  0
 37 28  1  6
  4  5  1  0
 33 30  1  1
 30 38  1  0
 34 31  1  6
 31 39  1  0
 35 32  1  6
 32 40  1  0
 41 42  1  0
 41 43  1  0
 15 19  2  0
 16 22  2  0
 12 17  1  6
 17 19  1  0
 17 20  1  0
 18 19  1  0
 18 22  1  0
 18 23  1  0
  9 10  1  0
  9 11  1  0
 10 12  1  0
 11  5  1  6
 33 34  1  0
 33 35  1  0
 34 36  1  0
 35 37  1  0
 36 42  1  1
 20 21  2  0
 21 22  1  0
M  CHG  2   2  -1  26  -1
M  END
>  <COMPND>  (163) 
    8629 

>  <AUTHOR>  (163) 
    GENERATED BY OPEN BABEL 3.1.1

>  <MASTER>  (163) 
        0    0    0    0    0    0    0    0   58    0   58    0

>  <minimizedAffinity>  (163) 
-7.73385

>  <CNNscore>  (163) 
0.8406827450

>  <CNNaffinity>  (163) 
4.6938834190

>  <CNN_VS>  (163) 
3.9460668564

>  <CNNaffinity_variance>  (163) 
0.0978773460

$$$$
164
     RDKit          3D

 43 45  0  0  0  0  0  0  0  0999 V2000
   21.0668   74.0158   -2.3987 P   0  0  2  0  0  0  0  0  0  0  0  0
   20.6809   74.1468   -0.8330 O   0  0  0  0  0  0  0  0  0  0  0  0
   21.1571   75.3172   -3.1402 O   0  0  0  0  0  0  0  0  0  0  0  0
   19.9933   72.9515   -2.9756 O   0  0  0  0  0  0  0  0  0  0  0  0
   19.1738   73.3403   -4.0642 C   0  0  0  0  0  0  0  0  0  0  0  0
   17.2660   72.4910   -5.2528 O   0  0  0  0  0  0  0  0  0  0  0  0
   16.6230   70.9649   -2.7532 O   0  0  0  0  0  0  0  0  0  0  0  0
   17.7721   69.0617   -4.3325 O   0  0  0  0  0  0  0  0  0  0  0  0
   17.8953   71.2697   -3.3220 C   0  0  1  0  0  0  0  0  0  0  0  0
   18.1458   70.4083   -4.5422 C   0  0  2  0  0  0  0  0  0  0  0  0
   17.8160   72.6651   -3.9286 C   0  0  1  0  0  0  0  0  0  0  0  0
   17.2911   71.0953   -5.5937 C   0  0  2  0  0  0  0  0  0  0  0  0
   16.6491   70.0783   -2.3592 H   0  0  0  0  0  0  0  0  0  0  0  0
   18.3447   68.6688   -3.6554 H   0  0  0  0  0  0  0  0  0  0  0  0
   15.7742   70.3492   -7.8565 O   0  0  0  0  0  0  0  0  0  0  0  0
   19.4555   70.5602  -10.6214 O   0  0  0  0  0  0  0  0  0  0  0  0
   17.8276   70.9480   -6.9173 N   0  0  0  0  0  0  0  0  0  0  0  0
   17.6084   70.4550   -9.2314 N   0  0  0  0  0  0  0  0  0  0  0  0
   16.9805   70.5684   -7.9844 C   0  0  0  0  0  0  0  0  0  0  0  0
   19.1795   71.1796   -7.1467 C   0  0  0  0  0  0  0  0  0  0  0  0
   19.7630   71.0658   -8.3416 C   0  0  0  0  0  0  0  0  0  0  0  0
   18.9484   70.6733   -9.5097 C   0  0  0  0  0  0  0  0  0  0  0  0
   17.0381   70.1914   -9.9897 H   0  0  0  0  0  0  0  0  0  0  0  0
   22.4403   73.1643   -2.3645 O   0  0  0  0  0  0  0  0  0  0  0  0
   22.7373   71.6473   -1.8917 P   0  0  2  0  0  0  0  0  0  0  0  0
   24.1154   71.2831   -2.6571 O   0  0  0  0  0  0  0  0  0  0  0  0
   21.6115   70.6894   -2.1539 O   0  0  0  0  0  0  0  0  0  0  0  0
   23.1561   71.7781   -0.3384 O   0  0  0  0  0  0  0  0  0  0  0  0
   23.9192   70.4188    1.4466 O   0  0  0  0  0  0  0  0  0  0  0  0
   20.6681   72.1702    3.2942 O   0  0  0  0  0  0  0  0  0  0  0  0
   23.3238   72.9639    4.0460 O   0  0  0  0  0  0  0  0  0  0  0  0
   20.5062   71.4058    0.5069 O   0  0  0  0  0  0  0  0  0  0  0  0
   21.7941   72.1170    2.4140 C   0  0  1  0  0  0  0  0  0  0  0  0
   23.0411   71.8176    3.2483 C   0  0  1  0  0  0  0  0  0  0  0  0
   21.5651   71.0195    1.3764 C   0  0  2  0  0  0  0  0  0  0  0  0
   24.2402   71.4819    2.3513 C   0  0  1  0  0  0  0  0  0  0  0  0
   22.8332   70.7298    0.5715 C   0  0  1  0  0  0  0  0  0  0  0  0
   20.8069   72.8655    3.9552 H   0  0  0  0  0  0  0  0  0  0  0  0
   22.5586   73.1654    4.6073 H   0  0  0  0  0  0  0  0  0  0  0  0
   19.7092   71.5861    1.0285 H   0  0  0  0  0  0  0  0  0  0  0  0
   24.9928   70.4612    4.3763 O   0  0  0  0  0  0  0  0  0  0  0  0
   25.4516   71.0270    3.1624 C   0  0  0  0  0  0  0  0  0  0  0  0
   25.7530   70.1669    4.9028 H   0  0  0  0  0  0  0  0  0  0  0  0
 25 28  1  0
 25 24  1  0
 25 26  1  6
 25 27  2  0
  1  4  1  0
  1 24  1  0
  1  2  1  1
  1  3  2  0
  6 11  1  0
  6 12  1  0
 29 36  1  0
 29 37  1  0
  9  7  1  6
  7 13  1  0
 10  8  1  1
  8 14  1  0
 37 28  1  1
  4  5  1  0
 33 30  1  1
 30 38  1  0
 34 31  1  6
 31 39  1  0
 35 32  1  6
 32 40  1  0
 41 42  1  0
 41 43  1  0
 15 19  2  0
 16 22  2  0
 12 17  1  6
 17 19  1  0
 17 20  1  0
 18 19  1  0
 18 22  1  0
 18 23  1  0
  9 10  1  0
  9 11  1  0
 10 12  1  0
 11  5  1  6
 33 34  1  0
 33 35  1  0
 34 36  1  0
 35 37  1  0
 36 42  1  1
 20 21  2  0
 21 22  1  0
M  CHG  2   2  -1  26  -1
M  END
>  <COMPND>  (164) 
    8629 

>  <AUTHOR>  (164) 
    GENERATED BY OPEN BABEL 3.1.1

>  <MASTER>  (164) 
        0    0    0    0    0    0    0    0   58    0   58    0

>  <minimizedAffinity>  (164) 
-7.24035

>  <CNNscore>  (164) 
0.8340754509

>  <CNNaffinity>  (164) 
4.6399354935

>  <CNN_VS>  (164) 
3.8700563908

>  <CNNaffinity_variance>  (164) 
0.0208057482

$$$$
165
     RDKit          3D

 43 45  0  0  0  0  0  0  0  0999 V2000
   22.3305   73.2175   -4.3927 P   0  0  2  0  0  0  0  0  0  0  0  0
   22.2680   74.7039   -5.0286 O   0  0  0  0  0  0  0  0  0  0  0  0
   23.5047   72.3909   -4.8280 O   0  0  0  0  0  0  0  0  0  0  0  0
   20.8733   72.5943   -4.7180 O   0  0  0  0  0  0  0  0  0  0  0  0
   20.3809   71.5570   -3.8876 C   0  0  0  0  0  0  0  0  0  0  0  0
   18.3482   72.0701   -5.0617 O   0  0  0  0  0  0  0  0  0  0  0  0
   16.9206   70.7095   -2.8031 O   0  0  0  0  0  0  0  0  0  0  0  0
   16.9194   68.7957   -4.7458 O   0  0  0  0  0  0  0  0  0  0  0  0
   18.1743   70.3870   -3.4026 C   0  0  1  0  0  0  0  0  0  0  0  0
   17.9599   69.7517   -4.7605 C   0  0  2  0  0  0  0  0  0  0  0  0
   18.8691   71.6927   -3.7684 C   0  0  1  0  0  0  0  0  0  0  0  0
   17.6336   70.9578   -5.6247 C   0  0  2  0  0  0  0  0  0  0  0  0
   16.4584   69.8912   -2.5605 H   0  0  0  0  0  0  0  0  0  0  0  0
   17.1747   68.0483   -4.1829 H   0  0  0  0  0  0  0  0  0  0  0  0
   15.8929   70.2716   -7.7406 O   0  0  0  0  0  0  0  0  0  0  0  0
   19.3238   70.3068  -10.8179 O   0  0  0  0  0  0  0  0  0  0  0  0
   18.0451   70.7816   -6.9889 N   0  0  0  0  0  0  0  0  0  0  0  0
   17.6026   70.2899   -9.2712 N   0  0  0  0  0  0  0  0  0  0  0  0
   17.0920   70.4361   -7.9751 C   0  0  0  0  0  0  0  0  0  0  0  0
   19.3807   70.9515   -7.3373 C   0  0  0  0  0  0  0  0  0  0  0  0
   19.8517   70.8071   -8.5777 C   0  0  0  0  0  0  0  0  0  0  0  0
   18.9214   70.4469   -9.6671 C   0  0  0  0  0  0  0  0  0  0  0  0
   16.9570   70.0490   -9.9747 H   0  0  0  0  0  0  0  0  0  0  0  0
   22.2586   73.4992   -2.8026 O   0  0  0  0  0  0  0  0  0  0  0  0
   23.0764   74.5357   -1.8700 P   0  0  2  0  0  0  0  0  0  0  0  0
   22.1287   75.8469   -1.8532 O   0  0  0  0  0  0  0  0  0  0  0  0
   24.4835   74.7945   -2.3250 O   0  0  0  0  0  0  0  0  0  0  0  0
   22.9565   73.9269   -0.3801 O   0  0  0  0  0  0  0  0  0  0  0  0
   24.4618   73.0524    1.2281 O   0  0  0  0  0  0  0  0  0  0  0  0
   21.5283   70.1529    1.4248 O   0  0  0  0  0  0  0  0  0  0  0  0
   21.8240   72.0198    3.5871 O   0  0  0  0  0  0  0  0  0  0  0  0
   22.2363   71.3198   -1.1280 O   0  0  0  0  0  0  0  0  0  0  0  0
   22.0416   71.4785    1.2675 C   0  0  1  0  0  0  0  0  0  0  0  0
   22.7863   71.8596    2.5485 C   0  0  1  0  0  0  0  0  0  0  0  0
   22.9861   71.5089    0.0673 C   0  0  2  0  0  0  0  0  0  0  0  0
   23.5883   73.1542    2.3588 C   0  0  1  0  0  0  0  0  0  0  0  0
   23.7707   72.8203   -0.0009 C   0  0  1  0  0  0  0  0  0  0  0  0
   20.9275   70.1269    2.1850 H   0  0  0  0  0  0  0  0  0  0  0  0
   21.3242   71.1956    3.6963 H   0  0  0  0  0  0  0  0  0  0  0  0
   21.7444   70.4862   -1.0725 H   0  0  0  0  0  0  0  0  0  0  0  0
   25.4065   72.4246    3.7266 O   0  0  0  0  0  0  0  0  0  0  0  0
   24.4625   73.4682    3.5709 C   0  0  0  0  0  0  0  0  0  0  0  0
   25.9701   72.6112    4.4942 H   0  0  0  0  0  0  0  0  0  0  0  0
 25 28  1  0
 25 24  1  0
 25 26  1  1
 25 27  2  0
  1  4  1  0
  1 24  1  0
  1  2  1  6
  1  3  2  0
  6 11  1  0
  6 12  1  0
 29 36  1  0
 29 37  1  0
  9  7  1  6
  7 13  1  0
 10  8  1  1
  8 14  1  0
 37 28  1  1
  4  5  1  0
 33 30  1  1
 30 38  1  0
 34 31  1  1
 31 39  1  0
 35 32  1  6
 32 40  1  0
 41 42  1  0
 41 43  1  0
 15 19  2  0
 16 22  2  0
 12 17  1  6
 17 19  1  0
 17 20  1  0
 18 19  1  0
 18 22  1  0
 18 23  1  0
  9 10  1  0
  9 11  1  0
 10 12  1  0
 11  5  1  6
 33 34  1  0
 33 35  1  0
 34 36  1  0
 35 37  1  0
 36 42  1  1
 20 21  2  0
 21 22  1  0
M  CHG  2   2  -1  26  -1
M  END
>  <COMPND>  (165) 
    8629 

>  <AUTHOR>  (165) 
    GENERATED BY OPEN BABEL 3.1.1

>  <MASTER>  (165) 
        0    0    0    0    0    0    0    0   58    0   58    0

>  <minimizedAffinity>  (165) 
-7.30962

>  <CNNscore>  (165) 
0.8299686909

>  <CNNaffinity>  (165) 
4.6308436394

>  <CNN_VS>  (165) 
3.8434553146

>  <CNNaffinity_variance>  (165) 
0.0225381199

$$$$
166
     RDKit          3D

 43 45  0  0  0  0  0  0  0  0999 V2000
   20.6593   71.2936   -0.9971 P   0  0  2  0  0  0  0  0  0  0  0  0
   20.8816   70.5354    0.4147 O   0  0  0  0  0  0  0  0  0  0  0  0
   20.2971   72.7455   -0.8866 O   0  0  0  0  0  0  0  0  0  0  0  0
   19.5912   70.3601   -1.7753 O   0  0  0  0  0  0  0  0  0  0  0  0
   19.2825   70.6659   -3.1240 C   0  0  0  0  0  0  0  0  0  0  0  0
   17.5393   71.5770   -4.5042 O   0  0  0  0  0  0  0  0  0  0  0  0
   15.6399   69.9358   -2.8642 O   0  0  0  0  0  0  0  0  0  0  0  0
   15.9092   68.4446   -5.1315 O   0  0  0  0  0  0  0  0  0  0  0  0
   16.9664   69.6256   -3.2879 C   0  0  1  0  0  0  0  0  0  0  0  0
   16.9816   69.2884   -4.7642 C   0  0  2  0  0  0  0  0  0  0  0  0
   17.7846   70.9102   -3.2466 C   0  0  1  0  0  0  0  0  0  0  0  0
   16.8883   70.6638   -5.4026 C   0  0  2  0  0  0  0  0  0  0  0  0
   15.0984   69.1305   -2.8819 H   0  0  0  0  0  0  0  0  0  0  0  0
   16.0139   67.5821   -4.7002 H   0  0  0  0  0  0  0  0  0  0  0  0
   15.6289   70.0968   -7.8664 O   0  0  0  0  0  0  0  0  0  0  0  0
   19.4950   70.9118  -10.2392 O   0  0  0  0  0  0  0  0  0  0  0  0
   17.5419   70.7205   -6.6796 N   0  0  0  0  0  0  0  0  0  0  0  0
   17.5549   70.5033   -9.0459 N   0  0  0  0  0  0  0  0  0  0  0  0
   16.8195   70.4161   -7.8569 C   0  0  0  0  0  0  0  0  0  0  0  0
   18.8845   71.0750   -6.7558 C   0  0  0  0  0  0  0  0  0  0  0  0
   19.5716   71.1522   -7.8974 C   0  0  0  0  0  0  0  0  0  0  0  0
   18.8907   70.8498   -9.1729 C   0  0  0  0  0  0  0  0  0  0  0  0
   17.0724   70.2952   -9.8788 H   0  0  0  0  0  0  0  0  0  0  0  0
   22.0393   71.0028   -1.7870 O   0  0  0  0  0  0  0  0  0  0  0  0
   23.1644   72.0096   -2.3645 P   0  0  2  0  0  0  0  0  0  0  0  0
   24.2567   71.0104   -3.0172 O   0  0  0  0  0  0  0  0  0  0  0  0
   23.7242   72.9575   -1.3437 O   0  0  0  0  0  0  0  0  0  0  0  0
   22.4612   72.7263   -3.6282 O   0  0  0  0  0  0  0  0  0  0  0  0
   23.2771   74.0841   -5.3910 O   0  0  0  0  0  0  0  0  0  0  0  0
   19.7916   76.1290   -4.5419 O   0  0  0  0  0  0  0  0  0  0  0  0
   19.9741   74.5774   -6.9517 O   0  0  0  0  0  0  0  0  0  0  0  0
   21.3585   74.9907   -2.3905 O   0  0  0  0  0  0  0  0  0  0  0  0
   20.6230   74.9740   -4.6840 C   0  0  1  0  0  0  0  0  0  0  0  0
   21.0973   74.9004   -6.1367 C   0  0  1  0  0  0  0  0  0  0  0  0
   21.8138   75.0964   -3.7351 C   0  0  2  0  0  0  0  0  0  0  0  0
   22.2010   73.8476   -6.3063 C   0  0  1  0  0  0  0  0  0  0  0  0
   22.8752   74.0324   -4.0207 C   0  0  1  0  0  0  0  0  0  0  0  0
   19.0333   76.0574   -5.1414 H   0  0  0  0  0  0  0  0  0  0  0  0
   19.2843   75.2495   -6.8349 H   0  0  0  0  0  0  0  0  0  0  0  0
   20.6873   75.6697   -2.2222 H   0  0  0  0  0  0  0  0  0  0  0  0
   22.2382   72.7985   -8.4527 O   0  0  0  0  0  0  0  0  0  0  0  0
   22.7985   73.8668   -7.7116 C   0  0  0  0  0  0  0  0  0  0  0  0
   22.6091   72.7984   -9.3495 H   0  0  0  0  0  0  0  0  0  0  0  0
 25 28  1  0
 25 24  1  0
 25 26  1  6
 25 27  2  0
  1  4  1  0
  1 24  1  0
  1  2  1  1
  1  3  2  0
  6 11  1  0
  6 12  1  0
 29 36  1  0
 29 37  1  0
  9  7  1  6
  7 13  1  0
 10  8  1  1
  8 14  1  0
 37 28  1  6
  4  5  1  0
 33 30  1  6
 30 38  1  0
 34 31  1  6
 31 39  1  0
 35 32  1  1
 32 40  1  0
 41 42  1  0
 41 43  1  0
 15 19  2  0
 16 22  2  0
 12 17  1  6
 17 19  1  0
 17 20  1  0
 18 19  1  0
 18 22  1  0
 18 23  1  0
  9 10  1  0
  9 11  1  0
 10 12  1  0
 11  5  1  6
 33 34  1  0
 33 35  1  0
 34 36  1  0
 35 37  1  0
 36 42  1  6
 20 21  2  0
 21 22  1  0
M  CHG  2   2  -1  26  -1
M  END
>  <COMPND>  (166) 
    8629 

>  <AUTHOR>  (166) 
    GENERATED BY OPEN BABEL 3.1.1

>  <MASTER>  (166) 
        0    0    0    0    0    0    0    0   58    0   58    0

>  <minimizedAffinity>  (166) 
-7.88754

>  <CNNscore>  (166) 
0.8164923191

>  <CNNaffinity>  (166) 
4.5383419991

>  <CNN_VS>  (166) 
3.7055213451

>  <CNNaffinity_variance>  (166) 
0.4277347624

$$$$
167
     RDKit          3D

 43 45  0  0  0  0  0  0  0  0999 V2000
   22.9863   71.6041   -2.4296 P   0  0  2  0  0  0  0  0  0  0  0  0
   22.4719   73.0343   -2.9839 O   0  0  0  0  0  0  0  0  0  0  0  0
   24.1904   71.0482   -3.1314 O   0  0  0  0  0  0  0  0  0  0  0  0
   21.6620   70.6751   -2.4639 O   0  0  0  0  0  0  0  0  0  0  0  0
   20.9211   70.5981   -3.6693 C   0  0  0  0  0  0  0  0  0  0  0  0
   19.0096   71.7067   -4.6133 O   0  0  0  0  0  0  0  0  0  0  0  0
   17.4316   70.4890   -2.3732 O   0  0  0  0  0  0  0  0  0  0  0  0
   16.8402   68.8541   -4.4742 O   0  0  0  0  0  0  0  0  0  0  0  0
   18.5282   69.9436   -3.1048 C   0  0  1  0  0  0  0  0  0  0  0  0
   18.0813   69.5295   -4.4913 C   0  0  2  0  0  0  0  0  0  0  0  0
   19.4996   71.0773   -3.4090 C   0  0  1  0  0  0  0  0  0  0  0  0
   18.0100   70.8654   -5.2114 C   0  0  2  0  0  0  0  0  0  0  0  0
   16.7978   69.7835   -2.1671 H   0  0  0  0  0  0  0  0  0  0  0  0
   16.9375   68.0106   -4.0053 H   0  0  0  0  0  0  0  0  0  0  0  0
   16.0927   70.1266   -7.1495 O   0  0  0  0  0  0  0  0  0  0  0  0
   19.1642   70.4360  -10.5718 O   0  0  0  0  0  0  0  0  0  0  0  0
   18.2813   70.7454   -6.6162 N   0  0  0  0  0  0  0  0  0  0  0  0
   17.6236   70.2815   -8.8520 N   0  0  0  0  0  0  0  0  0  0  0  0
   17.2483   70.3671   -7.5052 C   0  0  0  0  0  0  0  0  0  0  0  0
   19.5597   71.0021   -7.0995 C   0  0  0  0  0  0  0  0  0  0  0  0
   19.9017   70.9146   -8.3867 C   0  0  0  0  0  0  0  0  0  0  0  0
   18.8811   70.5253   -9.3811 C   0  0  0  0  0  0  0  0  0  0  0  0
   16.9204   70.0192   -9.4896 H   0  0  0  0  0  0  0  0  0  0  0  0
   23.1956   71.8802   -0.8507 O   0  0  0  0  0  0  0  0  0  0  0  0
   23.2822   73.2624   -0.0171 P   0  0  2  0  0  0  0  0  0  0  0  0
   21.7359   73.7246    0.0966 O   0  0  0  0  0  0  0  0  0  0  0  0
   24.1929   74.2906   -0.6232 O   0  0  0  0  0  0  0  0  0  0  0  0
   23.6842   72.8122    1.4798 O   0  0  0  0  0  0  0  0  0  0  0  0
   23.8435   70.7011    2.5448 O   0  0  0  0  0  0  0  0  0  0  0  0
   22.0921   72.8525    5.6034 O   0  0  0  0  0  0  0  0  0  0  0  0
   24.8507   72.0810    5.8114 O   0  0  0  0  0  0  0  0  0  0  0  0
   21.2976   73.3324    2.8615 O   0  0  0  0  0  0  0  0  0  0  0  0
   22.9497   72.6518    4.4766 C   0  0  1  0  0  0  0  0  0  0  0  0
   23.9589   71.5578    4.8309 C   0  0  1  0  0  0  0  0  0  0  0  0
   22.1048   72.2349    3.2743 C   0  0  2  0  0  0  0  0  0  0  0  0
   24.7376   71.0997    3.5905 C   0  0  1  0  0  0  0  0  0  0  0  0
   22.9750   71.7505    2.1131 C   0  0  1  0  0  0  0  0  0  0  0  0
   22.6224   73.1179    6.3702 H   0  0  0  0  0  0  0  0  0  0  0  0
   24.3463   72.3671    6.5892 H   0  0  0  0  0  0  0  0  0  0  0  0
   20.7513   73.6296    3.6052 H   0  0  0  0  0  0  0  0  0  0  0  0
   26.8324   70.3742    4.4820 O   0  0  0  0  0  0  0  0  0  0  0  0
   25.6364   69.9018    3.8896 C   0  0  0  0  0  0  0  0  0  0  0  0
   27.4141   69.6226    4.6781 H   0  0  0  0  0  0  0  0  0  0  0  0
 25 28  1  0
 25 24  1  0
 25 26  1  1
 25 27  2  0
  1  4  1  0
  1 24  1  0
  1  2  1  6
  1  3  2  0
  6 11  1  0
  6 12  1  0
 29 36  1  0
 29 37  1  0
  9  7  1  1
  7 13  1  0
 10  8  1  1
  8 14  1  0
 37 28  1  1
  4  5  1  0
 33 30  1  1
 30 38  1  0
 34 31  1  1
 31 39  1  0
 35 32  1  6
 32 40  1  0
 41 42  1  0
 41 43  1  0
 15 19  2  0
 16 22  2  0
 12 17  1  6
 17 19  1  0
 17 20  1  0
 18 19  1  0
 18 22  1  0
 18 23  1  0
  9 10  1  0
  9 11  1  0
 10 12  1  0
 11  5  1  6
 33 34  1  0
 33 35  1  0
 34 36  1  0
 35 37  1  0
 36 42  1  1
 20 21  2  0
 21 22  1  0
M  CHG  2   2  -1  26  -1
M  END
>  <COMPND>  (167) 
    8629 

>  <AUTHOR>  (167) 
    GENERATED BY OPEN BABEL 3.1.1

>  <MASTER>  (167) 
        0    0    0    0    0    0    0    0   58    0   58    0

>  <minimizedAffinity>  (167) 
-8.14885

>  <CNNscore>  (167) 
0.8164873719

>  <CNNaffinity>  (167) 
4.5784082413

>  <CNN_VS>  (167) 
3.7382125854

>  <CNNaffinity_variance>  (167) 
0.0342706218

$$$$
168
     RDKit          3D

 43 45  0  0  0  0  0  0  0  0999 V2000
   21.1511   71.7697   -1.2290 P   0  0  2  0  0  0  0  0  0  0  0  0
   22.6942   71.3653   -1.4986 O   0  0  0  0  0  0  0  0  0  0  0  0
   20.1762   70.6312   -1.2982 O   0  0  0  0  0  0  0  0  0  0  0  0
   20.8831   72.9879   -2.2595 O   0  0  0  0  0  0  0  0  0  0  0  0
   20.3107   72.6923   -3.5216 C   0  0  0  0  0  0  0  0  0  0  0  0
   20.7171   70.9730   -5.1503 O   0  0  0  0  0  0  0  0  0  0  0  0
   23.2467   72.4463   -5.7994 O   0  0  0  0  0  0  0  0  0  0  0  0
   21.5800   73.2086   -7.8187 O   0  0  0  0  0  0  0  0  0  0  0  0
   21.9697   72.9650   -5.4312 C   0  0  1  0  0  0  0  0  0  0  0  0
   20.9978   72.8378   -6.5857 C   0  0  2  0  0  0  0  0  0  0  0  0
   21.3613   72.0246   -4.3983 C   0  0  1  0  0  0  0  0  0  0  0  0
   20.6342   71.3637   -6.5307 C   0  0  2  0  0  0  0  0  0  0  0  0
   23.6550   73.0304   -6.4582 H   0  0  0  0  0  0  0  0  0  0  0  0
   21.7933   74.1546   -7.8043 H   0  0  0  0  0  0  0  0  0  0  0  0
   19.9500   71.0441   -9.2523 O   0  0  0  0  0  0  0  0  0  0  0  0
   15.4996   70.3932   -8.2463 O   0  0  0  0  0  0  0  0  0  0  0  0
   19.3043   71.1094   -7.0082 N   0  0  0  0  0  0  0  0  0  0  0  0
   17.7346   70.7200   -8.7492 N   0  0  0  0  0  0  0  0  0  0  0  0
   19.0674   70.9658   -8.3952 C   0  0  0  0  0  0  0  0  0  0  0  0
   18.2520   71.0045   -6.1052 C   0  0  0  0  0  0  0  0  0  0  0  0
   16.9864   70.7711   -6.4591 C   0  0  0  0  0  0  0  0  0  0  0  0
   16.6537   70.6085   -7.8890 C   0  0  0  0  0  0  0  0  0  0  0  0
   17.5457   70.6169   -9.7101 H   0  0  0  0  0  0  0  0  0  0  0  0
   21.2156   72.5140    0.2045 O   0  0  0  0  0  0  0  0  0  0  0  0
   21.4764   71.9344    1.6908 P   0  0  2  0  0  0  0  0  0  0  0  0
   21.8365   70.3797    1.4249 O   0  0  0  0  0  0  0  0  0  0  0  0
   20.3376   72.1519    2.6447 O   0  0  0  0  0  0  0  0  0  0  0  0
   22.8714   72.6030    2.1510 O   0  0  0  0  0  0  0  0  0  0  0  0
   23.8467   71.7189    4.1217 O   0  0  0  0  0  0  0  0  0  0  0  0
   26.0022   75.2293    3.8364 O   0  0  0  0  0  0  0  0  0  0  0  0
   27.2817   72.7276    3.2427 O   0  0  0  0  0  0  0  0  0  0  0  0
   23.1884   75.2034    3.1573 O   0  0  0  0  0  0  0  0  0  0  0  0
   25.3115   74.0804    3.3383 C   0  0  1  0  0  0  0  0  0  0  0  0
   26.0098   72.8301    3.8768 C   0  0  1  0  0  0  0  0  0  0  0  0
   23.8586   74.1290    3.8076 C   0  0  2  0  0  0  0  0  0  0  0  0
   25.1755   71.5704    3.6079 C   0  0  1  0  0  0  0  0  0  0  0  0
   23.1330   72.8099    3.5367 C   0  0  1  0  0  0  0  0  0  0  0  0
   26.9252   75.2048    3.5416 H   0  0  0  0  0  0  0  0  0  0  0  0
   27.7982   73.5295    3.4200 H   0  0  0  0  0  0  0  0  0  0  0  0
   23.6572   76.0328    3.3368 H   0  0  0  0  0  0  0  0  0  0  0  0
   25.5507   69.2172    3.4332 O   0  0  0  0  0  0  0  0  0  0  0  0
   25.7757   70.3341    4.2737 C   0  0  0  0  0  0  0  0  0  0  0  0
   25.9277   68.4230    3.8441 H   0  0  0  0  0  0  0  0  0  0  0  0
 25 28  1  0
 25 24  1  0
 25 26  1  6
 25 27  2  0
  1  4  1  0
  1 24  1  0
  1  2  1  6
  1  3  2  0
  6 11  1  0
  6 12  1  0
 29 36  1  0
 29 37  1  0
  9  7  1  6
  7 13  1  0
 10  8  1  6
  8 14  1  0
 37 28  1  6
  4  5  1  0
 33 30  1  1
 30 38  1  0
 34 31  1  6
 31 39  1  0
 35 32  1  6
 32 40  1  0
 41 42  1  0
 41 43  1  0
 15 19  2  0
 16 22  2  0
 12 17  1  1
 17 19  1  0
 17 20  1  0
 18 19  1  0
 18 22  1  0
 18 23  1  0
  9 10  1  0
  9 11  1  0
 10 12  1  0
 11  5  1  6
 33 34  1  0
 33 35  1  0
 34 36  1  0
 35 37  1  0
 36 42  1  1
 20 21  2  0
 21 22  1  0
M  CHG  2   2  -1  26  -1
M  END
>  <COMPND>  (168) 
    8629 

>  <AUTHOR>  (168) 
    GENERATED BY OPEN BABEL 3.1.1

>  <MASTER>  (168) 
        0    0    0    0    0    0    0    0   58    0   58    0

>  <minimizedAffinity>  (168) 
-7.36308

>  <CNNscore>  (168) 
0.7319524884

>  <CNNaffinity>  (168) 
4.3208742142

>  <CNN_VS>  (168) 
3.1626746655

>  <CNNaffinity_variance>  (168) 
0.1185624376

$$$$
169
     RDKit          3D

 43 45  0  0  0  0  0  0  0  0999 V2000
   20.2989   73.3601   -1.1045 P   0  0  2  0  0  0  0  0  0  0  0  0
   18.9637   72.4550   -0.9795 O   0  0  0  0  0  0  0  0  0  0  0  0
   20.0540   74.8309   -1.2722 O   0  0  0  0  0  0  0  0  0  0  0  0
   21.1409   72.6485   -2.2888 O   0  0  0  0  0  0  0  0  0  0  0  0
   20.4773   72.3487   -3.5043 C   0  0  0  0  0  0  0  0  0  0  0  0
   20.8486   70.8628   -5.3558 O   0  0  0  0  0  0  0  0  0  0  0  0
   23.2789   72.5148   -5.9522 O   0  0  0  0  0  0  0  0  0  0  0  0
   21.4675   73.4460   -7.7656 O   0  0  0  0  0  0  0  0  0  0  0  0
   22.0079   72.9274   -5.4525 C   0  0  1  0  0  0  0  0  0  0  0  0
   20.9741   72.9008   -6.5589 C   0  0  2  0  0  0  0  0  0  0  0  0
   21.4975   71.8410   -4.5141 C   0  0  1  0  0  0  0  0  0  0  0  0
   20.6691   71.4166   -6.6695 C   0  0  2  0  0  0  0  0  0  0  0  0
   23.6253   73.1930   -6.5538 H   0  0  0  0  0  0  0  0  0  0  0  0
   21.6463   74.3915   -7.6441 H   0  0  0  0  0  0  0  0  0  0  0  0
   19.9628   69.5966   -8.7108 O   0  0  0  0  0  0  0  0  0  0  0  0
   15.4742   70.5331   -8.2451 O   0  0  0  0  0  0  0  0  0  0  0  0
   19.3233   71.1648   -7.1018 N   0  0  0  0  0  0  0  0  0  0  0  0
   17.7284   70.0642   -8.4771 N   0  0  0  0  0  0  0  0  0  0  0  0
   19.0765   70.2318   -8.1358 C   0  0  0  0  0  0  0  0  0  0  0  0
   18.2652   71.8390   -6.5020 C   0  0  0  0  0  0  0  0  0  0  0  0
   16.9853   71.6688   -6.8400 C   0  0  0  0  0  0  0  0  0  0  0  0
   16.6415   70.7118   -7.9114 C   0  0  0  0  0  0  0  0  0  0  0  0
   17.5325   69.4195   -9.1952 H   0  0  0  0  0  0  0  0  0  0  0  0
   21.1323   72.9638    0.2226 O   0  0  0  0  0  0  0  0  0  0  0  0
   21.8776   71.5907    0.6375 P   0  0  2  0  0  0  0  0  0  0  0  0
   23.1577   71.5501   -0.3511 O   0  0  0  0  0  0  0  0  0  0  0  0
   21.0040   70.3716    0.5698 O   0  0  0  0  0  0  0  0  0  0  0  0
   22.4990   71.8881    2.0971 O   0  0  0  0  0  0  0  0  0  0  0  0
   23.9490   73.5104    3.0363 O   0  0  0  0  0  0  0  0  0  0  0  0
   25.6396   70.1040    4.6453 O   0  0  0  0  0  0  0  0  0  0  0  0
   24.1404   71.8770    6.3354 O   0  0  0  0  0  0  0  0  0  0  0  0
   24.6325   70.0727    1.9316 O   0  0  0  0  0  0  0  0  0  0  0  0
   24.5716   70.9336    4.1802 C   0  0  1  0  0  0  0  0  0  0  0  0
   24.5605   72.2148    5.0165 C   0  0  1  0  0  0  0  0  0  0  0  0
   24.7969   71.2569    2.7044 C   0  0  2  0  0  0  0  0  0  0  0  0
   23.6207   73.2649    4.4088 C   0  0  1  0  0  0  0  0  0  0  0  0
   23.8432   72.3473    2.2130 C   0  0  1  0  0  0  0  0  0  0  0  0
   25.5023   69.8947    5.5817 H   0  0  0  0  0  0  0  0  0  0  0  0
   24.7417   71.2129    6.7075 H   0  0  0  0  0  0  0  0  0  0  0  0
   25.2419   69.3903    2.2522 H   0  0  0  0  0  0  0  0  0  0  0  0
   24.9374   74.6467    5.8460 O   0  0  0  0  0  0  0  0  0  0  0  0
   23.7133   74.6045    5.1361 C   0  0  0  0  0  0  0  0  0  0  0  0
   25.0102   75.4939    6.3137 H   0  0  0  0  0  0  0  0  0  0  0  0
 25 28  1  0
 25 24  1  0
 25 26  1  6
 25 27  2  0
  1  4  1  0
  1 24  1  0
  1  2  1  1
  1  3  2  0
  6 11  1  0
  6 12  1  0
 29 36  1  0
 29 37  1  0
  9  7  1  6
  7 13  1  0
 10  8  1  6
  8 14  1  0
 37 28  1  1
  4  5  1  0
 33 30  1  1
 30 38  1  0
 34 31  1  1
 31 39  1  0
 35 32  1  6
 32 40  1  0
 41 42  1  0
 41 43  1  0
 15 19  2  0
 16 22  2  0
 12 17  1  1
 17 19  1  0
 17 20  1  0
 18 19  1  0
 18 22  1  0
 18 23  1  0
  9 10  1  0
  9 11  1  0
 10 12  1  0
 11  5  1  1
 33 34  1  0
 33 35  1  0
 34 36  1  0
 35 37  1  0
 36 42  1  1
 20 21  2  0
 21 22  1  0
M  CHG  2   2  -1  26  -1
M  END
>  <COMPND>  (169) 
    8629 

>  <AUTHOR>  (169) 
    GENERATED BY OPEN BABEL 3.1.1

>  <MASTER>  (169) 
        0    0    0    0    0    0    0    0   58    0   58    0

>  <minimizedAffinity>  (169) 
-7.14660

>  <CNNscore>  (169) 
0.6843172312

>  <CNNaffinity>  (169) 
4.3442873955

>  <CNN_VS>  (169) 
2.9728708267

>  <CNNaffinity_variance>  (169) 
0.0551395342

$$$$
170
     RDKit          3D

 43 45  0  0  0  0  0  0  0  0999 V2000
   22.0498   71.2725    0.3637 P   0  0  2  0  0  0  0  0  0  0  0  0
   21.9600   72.8588    0.6687 O   0  0  0  0  0  0  0  0  0  0  0  0
   20.7270   70.5770    0.2300 O   0  0  0  0  0  0  0  0  0  0  0  0
   23.0262   70.7085    1.5240 O   0  0  0  0  0  0  0  0  0  0  0  0
   23.7887   71.6362    2.2761 C   0  0  0  0  0  0  0  0  0  0  0  0
   24.4602   70.8961    4.4614 O   0  0  0  0  0  0  0  0  0  0  0  0
   22.3282   72.7151    5.5275 O   0  0  0  0  0  0  0  0  0  0  0  0
   24.6011   74.1706    5.9175 O   0  0  0  0  0  0  0  0  0  0  0  0
   23.1889   72.8952    4.4041 C   0  0  1  0  0  0  0  0  0  0  0  0
   24.5927   73.2276    4.8652 C   0  0  2  0  0  0  0  0  0  0  0  0
   23.3851   71.5376    3.7409 C   0  0  1  0  0  0  0  0  0  0  0  0
   25.1136   71.8669    5.2954 C   0  0  2  0  0  0  0  0  0  0  0  0
   22.1879   73.5689    5.9672 H   0  0  0  0  0  0  0  0  0  0  0  0
   24.2611   75.0194    5.5940 H   0  0  0  0  0  0  0  0  0  0  0  0
   27.0283   72.8991    7.0971 O   0  0  0  0  0  0  0  0  0  0  0  0
   30.5370   71.3443    4.5451 O   0  0  0  0  0  0  0  0  0  0  0  0
   26.5342   71.7458    5.1266 N   0  0  0  0  0  0  0  0  0  0  0  0
   28.7738   72.1239    5.8251 N   0  0  0  0  0  0  0  0  0  0  0  0
   27.4096   72.3007    6.0891 C   0  0  0  0  0  0  0  0  0  0  0  0
   27.0462   71.0827    4.0166 C   0  0  0  0  0  0  0  0  0  0  0  0
   28.3499   70.9238    3.7788 C   0  0  0  0  0  0  0  0  0  0  0  0
   29.3317   71.4737    4.7357 C   0  0  0  0  0  0  0  0  0  0  0  0
   29.4025   72.5024    6.4818 H   0  0  0  0  0  0  0  0  0  0  0  0
   22.9800   71.2084   -0.9568 O   0  0  0  0  0  0  0  0  0  0  0  0
   23.0118   72.1378   -2.2790 P   0  0  2  0  0  0  0  0  0  0  0  0
   23.9579   71.3062   -3.2944 O   0  0  0  0  0  0  0  0  0  0  0  0
   23.4609   73.5483   -2.0290 O   0  0  0  0  0  0  0  0  0  0  0  0
   21.5297   72.0087   -2.9048 O   0  0  0  0  0  0  0  0  0  0  0  0
   20.1576   70.0821   -3.0539 O   0  0  0  0  0  0  0  0  0  0  0  0
   19.0144   71.9776   -6.5397 O   0  0  0  0  0  0  0  0  0  0  0  0
   17.2080   71.9028   -4.3083 O   0  0  0  0  0  0  0  0  0  0  0  0
   21.7836   72.0477   -5.6993 O   0  0  0  0  0  0  0  0  0  0  0  0
   19.4371   71.9029   -5.1755 C   0  0  1  0  0  0  0  0  0  0  0  0
   18.3893   71.1104   -4.3914 C   0  0  1  0  0  0  0  0  0  0  0  0
   20.7959   71.2080   -5.1112 C   0  0  2  0  0  0  0  0  0  0  0  0
   18.8972   70.7592   -2.9865 C   0  0  1  0  0  0  0  0  0  0  0  0
   21.1844   70.8592   -3.6733 C   0  0  1  0  0  0  0  0  0  0  0  0
   18.1524   72.4182   -6.5876 H   0  0  0  0  0  0  0  0  0  0  0  0
   16.8979   72.1180   -5.2020 H   0  0  0  0  0  0  0  0  0  0  0  0
   21.5262   72.2611   -6.6093 H   0  0  0  0  0  0  0  0  0  0  0  0
   17.2334   69.0574   -3.1972 O   0  0  0  0  0  0  0  0  0  0  0  0
   17.9338   69.8357   -2.2443 C   0  0  0  0  0  0  0  0  0  0  0  0
   16.6167   68.4645   -2.7391 H   0  0  0  0  0  0  0  0  0  0  0  0
 25 28  1  0
 25 24  1  0
 25 26  1  6
 25 27  2  0
  1  4  1  0
  1 24  1  0
  1  2  1  1
  1  3  2  0
  6 11  1  0
  6 12  1  0
 29 36  1  0
 29 37  1  0
  9  7  1  1
  7 13  1  0
 10  8  1  1
  8 14  1  0
 37 28  1  1
  4  5  1  0
 33 30  1  6
 30 38  1  0
 34 31  1  1
 31 39  1  0
 35 32  1  1
 32 40  1  0
 41 42  1  0
 41 43  1  0
 15 19  2  0
 16 22  2  0
 12 17  1  6
 17 19  1  0
 17 20  1  0
 18 19  1  0
 18 22  1  0
 18 23  1  0
  9 10  1  0
  9 11  1  0
 10 12  1  0
 11  5  1  6
 33 34  1  0
 33 35  1  0
 34 36  1  0
 35 37  1  0
 36 42  1  6
 20 21  2  0
 21 22  1  0
M  CHG  2   2  -1  26  -1
M  END
>  <COMPND>  (170) 
    8629 

>  <AUTHOR>  (170) 
    GENERATED BY OPEN BABEL 3.1.1

>  <MASTER>  (170) 
        0    0    0    0    0    0    0    0   58    0   58    0

>  <minimizedAffinity>  (170) 
-6.96296

>  <CNNscore>  (170) 
0.6308553219

>  <CNNaffinity>  (170) 
4.2530560493

>  <CNN_VS>  (170) 
2.6830630302

>  <CNNaffinity_variance>  (170) 
0.0807207897

$$$$
171
     RDKit          3D

 43 45  0  0  0  0  0  0  0  0999 V2000
   21.7323   72.5923   -5.5659 P   0  0  2  0  0  0  0  0  0  0  0  0
   20.9040   73.9751   -5.7045 O   0  0  0  0  0  0  0  0  0  0  0  0
   23.1340   72.6369   -6.0993 O   0  0  0  0  0  0  0  0  0  0  0  0
   20.7595   71.4878   -6.2381 O   0  0  0  0  0  0  0  0  0  0  0  0
   20.0435   71.8406   -7.4089 C   0  0  0  0  0  0  0  0  0  0  0  0
   18.6647   69.9630   -6.8194 O   0  0  0  0  0  0  0  0  0  0  0  0
   17.9799   69.7896   -9.7335 O   0  0  0  0  0  0  0  0  0  0  0  0
   15.7925   71.0330   -8.6818 O   0  0  0  0  0  0  0  0  0  0  0  0
   18.2097   70.9444   -8.9279 C   0  0  1  0  0  0  0  0  0  0  0  0
   17.0277   71.1917   -8.0140 C   0  0  2  0  0  0  0  0  0  0  0  0
   19.3156   70.6108   -7.9343 C   0  0  1  0  0  0  0  0  0  0  0  0
   17.2442   70.1498   -6.9297 C   0  0  2  0  0  0  0  0  0  0  0  0
   17.2776   69.9785  -10.3762 H   0  0  0  0  0  0  0  0  0  0  0  0
   15.7018   71.7189   -9.3615 H   0  0  0  0  0  0  0  0  0  0  0  0
   16.8542   68.4313   -4.7223 O   0  0  0  0  0  0  0  0  0  0  0  0
   15.2590   71.8667   -2.0965 O   0  0  0  0  0  0  0  0  0  0  0  0
   16.7287   70.5686   -5.6569 N   0  0  0  0  0  0  0  0  0  0  0  0
   16.0604   70.1433   -3.4166 N   0  0  0  0  0  0  0  0  0  0  0  0
   16.5704   69.6261   -4.6143 C   0  0  0  0  0  0  0  0  0  0  0  0
   16.3865   71.9008   -5.4522 C   0  0  0  0  0  0  0  0  0  0  0  0
   15.9002   72.3778   -4.3045 C   0  0  0  0  0  0  0  0  0  0  0  0
   15.7043   71.4588   -3.1647 C   0  0  0  0  0  0  0  0  0  0  0  0
   15.9412   69.5050   -2.6762 H   0  0  0  0  0  0  0  0  0  0  0  0
   21.6233   72.2599   -3.9877 O   0  0  0  0  0  0  0  0  0  0  0  0
   20.6522   71.2513   -3.1799 P   0  0  2  0  0  0  0  0  0  0  0  0
   21.1445   69.7902   -3.6699 O   0  0  0  0  0  0  0  0  0  0  0  0
   19.1878   71.5119   -3.3836 O   0  0  0  0  0  0  0  0  0  0  0  0
   21.1426   71.3534   -1.6456 O   0  0  0  0  0  0  0  0  0  0  0  0
   21.4369   73.1166   -0.0895 O   0  0  0  0  0  0  0  0  0  0  0  0
   24.9471   71.0489    0.5845 O   0  0  0  0  0  0  0  0  0  0  0  0
   22.8525   70.9648    2.5476 O   0  0  0  0  0  0  0  0  0  0  0  0
   23.9100   71.2946   -2.1069 O   0  0  0  0  0  0  0  0  0  0  0  0
   23.5585   71.1923    0.2737 C   0  0  1  0  0  0  0  0  0  0  0  0
   22.8710   71.8794    1.4552 C   0  0  1  0  0  0  0  0  0  0  0  0
   23.4149   72.0318   -0.9943 C   0  0  2  0  0  0  0  0  0  0  0  0
   21.4427   72.3076    1.0925 C   0  0  1  0  0  0  0  0  0  0  0  0
   21.9621   72.4453   -1.2365 C   0  0  1  0  0  0  0  0  0  0  0  0
   25.0452   70.5163    1.3884 H   0  0  0  0  0  0  0  0  0  0  0  0
   23.7604   70.7019    2.7663 H   0  0  0  0  0  0  0  0  0  0  0  0
   24.8304   71.0390   -1.9415 H   0  0  0  0  0  0  0  0  0  0  0  0
   20.2706   72.2476    3.1738 O   0  0  0  0  0  0  0  0  0  0  0  0
   20.7942   73.1334    2.2014 C   0  0  0  0  0  0  0  0  0  0  0  0
   19.8550   72.7593    3.8859 H   0  0  0  0  0  0  0  0  0  0  0  0
 25 28  1  0
 25 24  1  0
 25 26  1  6
 25 27  2  0
  1  4  1  0
  1 24  1  0
  1  2  1  1
  1  3  2  0
  6 11  1  0
  6 12  1  0
 29 36  1  0
 29 37  1  0
  9  7  1  6
  7 13  1  0
 10  8  1  6
  8 14  1  0
 37 28  1  1
  4  5  1  0
 33 30  1  1
 30 38  1  0
 34 31  1  1
 31 39  1  0
 35 32  1  6
 32 40  1  0
 41 42  1  0
 41 43  1  0
 15 19  2  0
 16 22  2  0
 12 17  1  1
 17 19  1  0
 17 20  1  0
 18 19  1  0
 18 22  1  0
 18 23  1  0
  9 10  1  0
  9 11  1  0
 10 12  1  0
 11  5  1  1
 33 34  1  0
 33 35  1  0
 34 36  1  0
 35 37  1  0
 36 42  1  1
 20 21  2  0
 21 22  1  0
M  CHG  2   2  -1  26  -1
M  END
>  <COMPND>  (171) 
    8629 

>  <AUTHOR>  (171) 
    GENERATED BY OPEN BABEL 3.1.1

>  <MASTER>  (171) 
        0    0    0    0    0    0    0    0   58    0   58    0

>  <minimizedAffinity>  (171) 
-7.42712

>  <CNNscore>  (171) 
0.6193887591

>  <CNNaffinity>  (171) 
4.4393358231

>  <CNN_VS>  (171) 
2.7496747971

>  <CNNaffinity_variance>  (171) 
0.4400710166

$$$$
172
     RDKit          3D

 43 45  0  0  0  0  0  0  0  0999 V2000
   20.3320   73.0983   -0.9659 P   0  0  2  0  0  0  0  0  0  0  0  0
   20.0261   71.5100   -0.9974 O   0  0  0  0  0  0  0  0  0  0  0  0
   19.1669   73.9606   -0.5781 O   0  0  0  0  0  0  0  0  0  0  0  0
   20.9752   73.3988   -2.4198 O   0  0  0  0  0  0  0  0  0  0  0  0
   20.3495   72.8440   -3.5638 C   0  0  0  0  0  0  0  0  0  0  0  0
   20.7436   71.0600   -5.1244 O   0  0  0  0  0  0  0  0  0  0  0  0
   23.3052   72.4658   -5.7974 O   0  0  0  0  0  0  0  0  0  0  0  0
   21.6740   73.1821   -7.8620 O   0  0  0  0  0  0  0  0  0  0  0  0
   22.0335   73.0190   -5.4629 C   0  0  1  0  0  0  0  0  0  0  0  0
   21.0721   72.8664   -6.6231 C   0  0  2  0  0  0  0  0  0  0  0  0
   21.3978   72.1272   -4.4037 C   0  0  1  0  0  0  0  0  0  0  0  0
   20.6825   71.4016   -6.5189 C   0  0  2  0  0  0  0  0  0  0  0  0
   23.7307   73.0185   -6.4722 H   0  0  0  0  0  0  0  0  0  0  0  0
   21.9034   74.1244   -7.8793 H   0  0  0  0  0  0  0  0  0  0  0  0
   20.0125   71.0594   -9.2414 O   0  0  0  0  0  0  0  0  0  0  0  0
   15.5512   70.4529   -8.2565 O   0  0  0  0  0  0  0  0  0  0  0  0
   19.3536   71.1526   -7.0021 N   0  0  0  0  0  0  0  0  0  0  0  0
   17.7917   70.7575   -8.7488 N   0  0  0  0  0  0  0  0  0  0  0  0
   19.1242   70.9967   -8.3890 C   0  0  0  0  0  0  0  0  0  0  0  0
   18.2950   71.0650   -6.1047 C   0  0  0  0  0  0  0  0  0  0  0  0
   17.0299   70.8377   -6.4640 C   0  0  0  0  0  0  0  0  0  0  0  0
   16.7047   70.6631   -7.8943 C   0  0  0  0  0  0  0  0  0  0  0  0
   17.6079   70.6460   -9.7098 H   0  0  0  0  0  0  0  0  0  0  0  0
   21.6057   73.2036    0.0237 O   0  0  0  0  0  0  0  0  0  0  0  0
   23.1227   72.6690   -0.1379 P   0  0  2  0  0  0  0  0  0  0  0  0
   23.9228   73.9750   -0.6590 O   0  0  0  0  0  0  0  0  0  0  0  0
   23.2595   71.4646   -1.0238 O   0  0  0  0  0  0  0  0  0  0  0  0
   23.6417   72.4494    1.3744 O   0  0  0  0  0  0  0  0  0  0  0  0
   24.1344   70.4955    2.6218 O   0  0  0  0  0  0  0  0  0  0  0  0
   22.3008   72.7205    5.5778 O   0  0  0  0  0  0  0  0  0  0  0  0
   25.1433   72.3193    5.6624 O   0  0  0  0  0  0  0  0  0  0  0  0
   21.2926   72.8127    2.8659 O   0  0  0  0  0  0  0  0  0  0  0  0
   23.1100   72.5110    4.4174 C   0  0  1  0  0  0  0  0  0  0  0  0
   24.2711   71.5918    4.8019 C   0  0  1  0  0  0  0  0  0  0  0  0
   22.2575   71.8713    3.3231 C   0  0  2  0  0  0  0  0  0  0  0  0
   25.0289   71.1069    3.5587 C   0  0  1  0  0  0  0  0  0  0  0  0
   23.1139   71.3799    2.1547 C   0  0  1  0  0  0  0  0  0  0  0  0
   22.8360   73.1269    6.2763 H   0  0  0  0  0  0  0  0  0  0  0  0
   24.6523   72.6202    6.4431 H   0  0  0  0  0  0  0  0  0  0  0  0
   20.7567   73.1159    3.6147 H   0  0  0  0  0  0  0  0  0  0  0  0
   27.2360   70.7386    4.3966 O   0  0  0  0  0  0  0  0  0  0  0  0
   26.0909   70.0659    3.9061 C   0  0  0  0  0  0  0  0  0  0  0  0
   27.9203   70.0885    4.6221 H   0  0  0  0  0  0  0  0  0  0  0  0
 25 28  1  0
 25 24  1  0
 25 26  1  6
 25 27  2  0
  1  4  1  0
  1 24  1  0
  1  2  1  6
  1  3  2  0
  6 11  1  0
  6 12  1  0
 29 36  1  0
 29 37  1  0
  9  7  1  6
  7 13  1  0
 10  8  1  6
  8 14  1  0
 37 28  1  1
  4  5  1  0
 33 30  1  1
 30 38  1  0
 34 31  1  1
 31 39  1  0
 35 32  1  6
 32 40  1  0
 41 42  1  0
 41 43  1  0
 15 19  2  0
 16 22  2  0
 12 17  1  1
 17 19  1  0
 17 20  1  0
 18 19  1  0
 18 22  1  0
 18 23  1  0
  9 10  1  0
  9 11  1  0
 10 12  1  0
 11  5  1  6
 33 34  1  0
 33 35  1  0
 34 36  1  0
 35 37  1  0
 36 42  1  1
 20 21  2  0
 21 22  1  0
M  CHG  2   2  -1  26  -1
M  END
>  <COMPND>  (172) 
    8629 

>  <AUTHOR>  (172) 
    GENERATED BY OPEN BABEL 3.1.1

>  <MASTER>  (172) 
        0    0    0    0    0    0    0    0   58    0   58    0

>  <minimizedAffinity>  (172) 
-7.09039

>  <CNNscore>  (172) 
0.6093661785

>  <CNNaffinity>  (172) 
4.2773904800

>  <CNN_VS>  (172) 
2.6064970493

>  <CNNaffinity_variance>  (172) 
0.0491565093

$$$$
173
     RDKit          3D

 43 45  0  0  0  0  0  0  0  0999 V2000
   22.0551   71.5653    0.1846 P   0  0  2  0  0  0  0  0  0  0  0  0
   21.1929   72.8426   -0.3080 O   0  0  0  0  0  0  0  0  0  0  0  0
   21.2556   70.4720    0.8304 O   0  0  0  0  0  0  0  0  0  0  0  0
   23.2236   72.2138    1.0966 O   0  0  0  0  0  0  0  0  0  0  0  0
   24.0458   71.3472    1.8587 C   0  0  0  0  0  0  0  0  0  0  0  0
   24.5843   70.7370    4.1196 O   0  0  0  0  0  0  0  0  0  0  0  0
   22.4264   72.6460    4.9506 O   0  0  0  0  0  0  0  0  0  0  0  0
   24.6975   74.0943    5.3761 O   0  0  0  0  0  0  0  0  0  0  0  0
   23.3504   72.7445    3.8680 C   0  0  1  0  0  0  0  0  0  0  0  0
   24.7318   73.0874    4.3853 C   0  0  2  0  0  0  0  0  0  0  0  0
   23.5609   71.3457    3.3020 C   0  0  1  0  0  0  0  0  0  0  0  0
   25.2064   71.7498    4.9272 C   0  0  2  0  0  0  0  0  0  0  0  0
   22.2759   73.5273    5.3281 H   0  0  0  0  0  0  0  0  0  0  0  0
   24.3895   74.9254    4.9822 H   0  0  0  0  0  0  0  0  0  0  0  0
   27.0338   72.8427    6.7830 O   0  0  0  0  0  0  0  0  0  0  0  0
   30.6538   71.1144    4.5138 O   0  0  0  0  0  0  0  0  0  0  0  0
   26.6320   71.6006    4.8458 N   0  0  0  0  0  0  0  0  0  0  0  0
   28.8348   71.9811    5.6517 N   0  0  0  0  0  0  0  0  0  0  0  0
   27.4610   72.1899    5.8286 C   0  0  0  0  0  0  0  0  0  0  0  0
   27.1944   70.8763    3.8003 C   0  0  0  0  0  0  0  0  0  0  0  0
   28.5065   70.6875    3.6452 C   0  0  0  0  0  0  0  0  0  0  0  0
   29.4421   71.2701    4.6288 C   0  0  0  0  0  0  0  0  0  0  0  0
   29.4318   72.3827    6.3241 H   0  0  0  0  0  0  0  0  0  0  0  0
   22.8438   71.1209   -1.1546 O   0  0  0  0  0  0  0  0  0  0  0  0
   23.1654   71.9315   -2.5156 P   0  0  2  0  0  0  0  0  0  0  0  0
   24.2724   71.0053   -3.2464 O   0  0  0  0  0  0  0  0  0  0  0  0
   23.5941   73.3538   -2.2980 O   0  0  0  0  0  0  0  0  0  0  0  0
   21.8357   71.7639   -3.4148 O   0  0  0  0  0  0  0  0  0  0  0  0
   21.5534   72.3969   -5.6811 O   0  0  0  0  0  0  0  0  0  0  0  0
   17.6955   73.0058   -4.3405 O   0  0  0  0  0  0  0  0  0  0  0  0
   18.2669   70.7678   -6.0473 O   0  0  0  0  0  0  0  0  0  0  0  0
   19.9386   73.6811   -2.6399 O   0  0  0  0  0  0  0  0  0  0  0  0
   18.9669   72.3534   -4.3990 C   0  0  1  0  0  0  0  0  0  0  0  0
   19.1778   71.8408   -5.8250 C   0  0  1  0  0  0  0  0  0  0  0  0
   20.0585   73.3524   -4.0198 C   0  0  2  0  0  0  0  0  0  0  0  0
   20.6224   71.3677   -6.0356 C   0  0  1  0  0  0  0  0  0  0  0  0
   21.4550   72.8018   -4.3143 C   0  0  1  0  0  0  0  0  0  0  0  0
   16.9979   72.3768   -4.5797 H   0  0  0  0  0  0  0  0  0  0  0  0
   17.3585   71.0797   -5.9106 H   0  0  0  0  0  0  0  0  0  0  0  0
   19.0504   74.0287   -2.4664 H   0  0  0  0  0  0  0  0  0  0  0  0
   21.3509   72.1573   -8.1698 O   0  0  0  0  0  0  0  0  0  0  0  0
   20.8971   71.0001   -7.4922 C   0  0  0  0  0  0  0  0  0  0  0  0
   21.5301   71.9383   -9.0981 H   0  0  0  0  0  0  0  0  0  0  0  0
 25 28  1  0
 25 24  1  0
 25 26  1  6
 25 27  2  0
  1  4  1  0
  1 24  1  0
  1  2  1  6
  1  3  2  0
  6 11  1  0
  6 12  1  0
 29 36  1  0
 29 37  1  0
  9  7  1  1
  7 13  1  0
 10  8  1  1
  8 14  1  0
 37 28  1  1
  4  5  1  0
 33 30  1  6
 30 38  1  0
 34 31  1  1
 31 39  1  0
 35 32  1  1
 32 40  1  0
 41 42  1  0
 41 43  1  0
 15 19  2  0
 16 22  2  0
 12 17  1  6
 17 19  1  0
 17 20  1  0
 18 19  1  0
 18 22  1  0
 18 23  1  0
  9 10  1  0
  9 11  1  0
 10 12  1  0
 11  5  1  6
 33 34  1  0
 33 35  1  0
 34 36  1  0
 35 37  1  0
 36 42  1  6
 20 21  2  0
 21 22  1  0
M  CHG  2   2  -1  26  -1
M  END
>  <COMPND>  (173) 
    8629 

>  <AUTHOR>  (173) 
    GENERATED BY OPEN BABEL 3.1.1

>  <MASTER>  (173) 
        0    0    0    0    0    0    0    0   58    0   58    0

>  <minimizedAffinity>  (173) 
-7.00934

>  <CNNscore>  (173) 
0.5974961519

>  <CNNaffinity>  (173) 
4.2172188759

>  <CNN_VS>  (173) 
2.5197720528

>  <CNNaffinity_variance>  (173) 
0.0391174182

$$$$
174
     RDKit          3D

 43 45  0  0  0  0  0  0  0  0999 V2000
   21.9403   72.6449   -5.7617 P   0  0  2  0  0  0  0  0  0  0  0  0
   21.4213   74.1247   -5.3638 O   0  0  0  0  0  0  0  0  0  0  0  0
   23.0855   72.6142   -6.7308 O   0  0  0  0  0  0  0  0  0  0  0  0
   20.5976   71.8768   -6.2360 O   0  0  0  0  0  0  0  0  0  0  0  0
   20.0844   72.1482   -7.5286 C   0  0  0  0  0  0  0  0  0  0  0  0
   19.0057   70.0633   -7.0153 O   0  0  0  0  0  0  0  0  0  0  0  0
   18.1862   69.9923   -9.8988 O   0  0  0  0  0  0  0  0  0  0  0  0
   15.9149   70.8492   -8.6562 O   0  0  0  0  0  0  0  0  0  0  0  0
   18.3043   71.1113   -9.0217 C   0  0  1  0  0  0  0  0  0  0  0  0
   17.1535   71.1317   -8.0374 C   0  0  2  0  0  0  0  0  0  0  0  0
   19.4995   70.8677   -8.1087 C   0  0  1  0  0  0  0  0  0  0  0  0
   17.5690   70.0594   -7.0446 C   0  0  2  0  0  0  0  0  0  0  0  0
   17.4296   70.1251  -10.4920 H   0  0  0  0  0  0  0  0  0  0  0  0
   15.6946   71.5599   -9.2784 H   0  0  0  0  0  0  0  0  0  0  0  0
   16.2843   68.1399   -5.4188 O   0  0  0  0  0  0  0  0  0  0  0  0
   15.7138   71.1613   -1.9856 O   0  0  0  0  0  0  0  0  0  0  0  0
   17.0750   70.3172   -5.7214 N   0  0  0  0  0  0  0  0  0  0  0  0
   16.0014   69.6459   -3.7106 N   0  0  0  0  0  0  0  0  0  0  0  0
   16.4443   69.2843   -4.9893 C   0  0  0  0  0  0  0  0  0  0  0  0
   17.2183   71.5825   -5.1624 C   0  0  0  0  0  0  0  0  0  0  0  0
   16.7893   71.9114   -3.9422 C   0  0  0  0  0  0  0  0  0  0  0  0
   16.1194   70.8900   -3.1115 C   0  0  0  0  0  0  0  0  0  0  0  0
   15.5586   68.9426   -3.1823 H   0  0  0  0  0  0  0  0  0  0  0  0
   22.2558   71.9722   -4.3261 O   0  0  0  0  0  0  0  0  0  0  0  0
   23.5247   72.1275   -3.3368 P   0  0  2  0  0  0  0  0  0  0  0  0
   24.4452   73.2283   -4.0841 O   0  0  0  0  0  0  0  0  0  0  0  0
   24.2281   70.8369   -3.0309 O   0  0  0  0  0  0  0  0  0  0  0  0
   22.9418   72.8948   -2.0420 O   0  0  0  0  0  0  0  0  0  0  0  0
   21.4954   71.8890   -0.4567 O   0  0  0  0  0  0  0  0  0  0  0  0
   20.3473   75.8281    0.0084 O   0  0  0  0  0  0  0  0  0  0  0  0
   21.9000   74.5520    2.0600 O   0  0  0  0  0  0  0  0  0  0  0  0
   20.9744   74.8085   -2.6272 O   0  0  0  0  0  0  0  0  0  0  0  0
   21.2645   74.7585   -0.2367 C   0  0  1  0  0  0  0  0  0  0  0  0
   21.2761   73.8458    0.9912 C   0  0  1  0  0  0  0  0  0  0  0  0
   20.8127   73.9875   -1.4755 C   0  0  2  0  0  0  0  0  0  0  0  0
   22.0279   72.5393    0.7032 C   0  0  1  0  0  0  0  0  0  0  0  0
   21.5905   72.6809   -1.6424 C   0  0  1  0  0  0  0  0  0  0  0  0
   20.6287   76.3220    0.7935 H   0  0  0  0  0  0  0  0  0  0  0  0
   21.4159   75.3751    2.2314 H   0  0  0  0  0  0  0  0  0  0  0  0
   20.4771   75.6322   -2.5093 H   0  0  0  0  0  0  0  0  0  0  0  0
   20.8057   71.9123    2.6582 O   0  0  0  0  0  0  0  0  0  0  0  0
   21.9171   71.5487    1.8602 C   0  0  0  0  0  0  0  0  0  0  0  0
   20.7226   71.2903    3.3985 H   0  0  0  0  0  0  0  0  0  0  0  0
 25 28  1  0
 25 24  1  0
 25 26  1  6
 25 27  2  0
  1  4  1  0
  1 24  1  0
  1  2  1  1
  1  3  2  0
  6 11  1  0
  6 12  1  0
 29 36  1  0
 29 37  1  0
  9  7  1  6
  7 13  1  0
 10  8  1  6
  8 14  1  0
 37 28  1  1
  4  5  1  0
 33 30  1  1
 30 38  1  0
 34 31  1  1
 31 39  1  0
 35 32  1  6
 32 40  1  0
 41 42  1  0
 41 43  1  0
 15 19  2  0
 16 22  2  0
 12 17  1  1
 17 19  1  0
 17 20  1  0
 18 19  1  0
 18 22  1  0
 18 23  1  0
  9 10  1  0
  9 11  1  0
 10 12  1  0
 11  5  1  1
 33 34  1  0
 33 35  1  0
 34 36  1  0
 35 37  1  0
 36 42  1  1
 20 21  2  0
 21 22  1  0
M  CHG  2   2  -1  26  -1
M  END
>  <COMPND>  (174) 
    8629 

>  <AUTHOR>  (174) 
    GENERATED BY OPEN BABEL 3.1.1

>  <MASTER>  (174) 
        0    0    0    0    0    0    0    0   58    0   58    0

>  <minimizedAffinity>  (174) 
-7.60608

>  <CNNscore>  (174) 
0.5839354992

>  <CNNaffinity>  (174) 
4.2824931145

>  <CNN_VS>  (174) 
2.5006997585

>  <CNNaffinity_variance>  (174) 
0.4472689033

$$$$
175
     RDKit          3D

 43 45  0  0  0  0  0  0  0  0999 V2000
   23.2785   71.8228   -2.5549 P   0  0  2  0  0  0  0  0  0  0  0  0
   23.6610   73.3861   -2.3901 O   0  0  0  0  0  0  0  0  0  0  0  0
   24.3204   70.9836   -3.2342 O   0  0  0  0  0  0  0  0  0  0  0  0
   21.8256   71.8514   -3.2665 O   0  0  0  0  0  0  0  0  0  0  0  0
   21.6071   72.7730   -4.3205 C   0  0  0  0  0  0  0  0  0  0  0  0
   20.8532   70.8017   -5.4692 O   0  0  0  0  0  0  0  0  0  0  0  0
   21.4239   72.2905   -8.0086 O   0  0  0  0  0  0  0  0  0  0  0  0
   18.7174   72.5294   -7.7750 O   0  0  0  0  0  0  0  0  0  0  0  0
   20.9165   72.7821   -6.7692 C   0  0  1  0  0  0  0  0  0  0  0  0
   19.4711   72.3665   -6.5909 C   0  0  2  0  0  0  0  0  0  0  0  0
   21.6073   72.0211   -5.6445 C   0  0  1  0  0  0  0  0  0  0  0  0
   19.6102   70.9099   -6.1821 C   0  0  2  0  0  0  0  0  0  0  0  0
   20.9976   72.7619   -8.7421 H   0  0  0  0  0  0  0  0  0  0  0  0
   18.6575   73.4725   -7.9932 H   0  0  0  0  0  0  0  0  0  0  0  0
   17.1282   69.9232   -7.1007 O   0  0  0  0  0  0  0  0  0  0  0  0
   15.5867   69.2796   -2.8053 O   0  0  0  0  0  0  0  0  0  0  0  0
   18.5423   70.4770   -5.3257 N   0  0  0  0  0  0  0  0  0  0  0  0
   16.3628   69.6033   -4.9612 N   0  0  0  0  0  0  0  0  0  0  0  0
   17.3356   69.9991   -5.8879 C   0  0  0  0  0  0  0  0  0  0  0  0
   18.6973   70.5283   -3.9447 C   0  0  0  0  0  0  0  0  0  0  0  0
   17.7594   70.1483   -3.0745 C   0  0  0  0  0  0  0  0  0  0  0  0
   16.4691   69.6366   -3.5798 C   0  0  0  0  0  0  0  0  0  0  0  0
   15.5137   69.2673   -5.3299 H   0  0  0  0  0  0  0  0  0  0  0  0
   22.9330   71.3717   -1.0416 O   0  0  0  0  0  0  0  0  0  0  0  0
   21.7489   71.8304   -0.0413 P   0  0  2  0  0  0  0  0  0  0  0  0
   20.6577   70.6453   -0.1899 O   0  0  0  0  0  0  0  0  0  0  0  0
   21.2110   73.2053   -0.3140 O   0  0  0  0  0  0  0  0  0  0  0  0
   22.3648   71.6343    1.4377 O   0  0  0  0  0  0  0  0  0  0  0  0
   23.1528   73.3601    2.8580 O   0  0  0  0  0  0  0  0  0  0  0  0
   25.6119   70.2924    4.1201 O   0  0  0  0  0  0  0  0  0  0  0  0
   23.4804   71.1924    5.8215 O   0  0  0  0  0  0  0  0  0  0  0  0
   24.9507   70.5515    1.3138 O   0  0  0  0  0  0  0  0  0  0  0  0
   24.3986   70.8744    3.6359 C   0  0  1  0  0  0  0  0  0  0  0  0
   23.9150   71.8997    4.6634 C   0  0  1  0  0  0  0  0  0  0  0  0
   24.6694   71.5472    2.2915 C   0  0  2  0  0  0  0  0  0  0  0  0
   22.7719   72.7535    4.0984 C   0  0  1  0  0  0  0  0  0  0  0  0
   23.4887   72.4108    1.8441 C   0  0  1  0  0  0  0  0  0  0  0  0
   25.4468   69.8632    4.9733 H   0  0  0  0  0  0  0  0  0  0  0  0
   24.2114   70.6568    6.1681 H   0  0  0  0  0  0  0  0  0  0  0  0
   25.7001   70.0117    1.6086 H   0  0  0  0  0  0  0  0  0  0  0  0
   21.5135   73.3620    6.0362 O   0  0  0  0  0  0  0  0  0  0  0  0
   22.3804   73.8848    5.0466 C   0  0  0  0  0  0  0  0  0  0  0  0
   21.2564   74.0708    6.6471 H   0  0  0  0  0  0  0  0  0  0  0  0
 25 28  1  0
 25 24  1  0
 25 26  1  1
 25 27  2  0
  1  4  1  0
  1 24  1  0
  1  2  1  1
  1  3  2  0
  6 11  1  0
  6 12  1  0
 29 36  1  0
 29 37  1  0
  9  7  1  6
  7 13  1  0
 10  8  1  6
  8 14  1  0
 37 28  1  1
  4  5  1  0
 33 30  1  1
 30 38  1  0
 34 31  1  1
 31 39  1  0
 35 32  1  6
 32 40  1  0
 41 42  1  0
 41 43  1  0
 15 19  2  0
 16 22  2  0
 12 17  1  1
 17 19  1  0
 17 20  1  0
 18 19  1  0
 18 22  1  0
 18 23  1  0
  9 10  1  0
  9 11  1  0
 10 12  1  0
 11  5  1  1
 33 34  1  0
 33 35  1  0
 34 36  1  0
 35 37  1  0
 36 42  1  1
 20 21  2  0
 21 22  1  0
M  CHG  2   2  -1  26  -1
M  END
>  <COMPND>  (175) 
    8629 

>  <AUTHOR>  (175) 
    GENERATED BY OPEN BABEL 3.1.1

>  <MASTER>  (175) 
        0    0    0    0    0    0    0    0   58    0   58    0

>  <minimizedAffinity>  (175) 
-8.00408

>  <CNNscore>  (175) 
0.5579558611

>  <CNNaffinity>  (175) 
4.1762924194

>  <CNN_VS>  (175) 
2.3301868439

>  <CNNaffinity_variance>  (175) 
0.3119820356

$$$$
176
     RDKit          3D

 43 45  0  0  0  0  0  0  0  0999 V2000
   23.1273   72.0602   -2.3614 P   0  0  2  0  0  0  0  0  0  0  0  0
   24.1091   71.7775   -3.6158 O   0  0  0  0  0  0  0  0  0  0  0  0
   22.8272   73.5078   -2.1050 O   0  0  0  0  0  0  0  0  0  0  0  0
   23.8195   71.2587   -1.1381 O   0  0  0  0  0  0  0  0  0  0  0  0
   23.8912   71.8894    0.1288 C   0  0  0  0  0  0  0  0  0  0  0  0
   23.3174   70.7879    2.1857 O   0  0  0  0  0  0  0  0  0  0  0  0
   20.5646   71.9130    1.8026 O   0  0  0  0  0  0  0  0  0  0  0  0
   21.6481   73.6071    3.6446 O   0  0  0  0  0  0  0  0  0  0  0  0
   21.8289   72.4954    1.4899 C   0  0  1  0  0  0  0  0  0  0  0  0
   22.5267   72.9482    2.7554 C   0  0  2  0  0  0  0  0  0  0  0  0
   22.7489   71.3844    0.9994 C   0  0  1  0  0  0  0  0  0  0  0  0
   23.0483   71.6354    3.3145 C   0  0  2  0  0  0  0  0  0  0  0  0
   19.9598   72.6036    2.1178 H   0  0  0  0  0  0  0  0  0  0  0  0
   21.3439   74.4362    3.2436 H   0  0  0  0  0  0  0  0  0  0  0  0
   23.1365   72.3190    6.0537 O   0  0  0  0  0  0  0  0  0  0  0  0
   27.7445   72.2561    6.1091 O   0  0  0  0  0  0  0  0  0  0  0  0
   24.2575   71.8038    4.0700 N   0  0  0  0  0  0  0  0  0  0  0  0
   25.4308   72.2869    6.0791 N   0  0  0  0  0  0  0  0  0  0  0  0
   24.1920   72.1486    5.4402 C   0  0  0  0  0  0  0  0  0  0  0  0
   25.4909   71.6270    3.4523 C   0  0  0  0  0  0  0  0  0  0  0  0
   26.6632   71.7638    4.0754 C   0  0  0  0  0  0  0  0  0  0  0  0
   26.6829   72.1229    5.5081 C   0  0  0  0  0  0  0  0  0  0  0  0
   25.4099   72.5272    7.0339 H   0  0  0  0  0  0  0  0  0  0  0  0
   21.8322   71.1548   -2.7022 O   0  0  0  0  0  0  0  0  0  0  0  0
   20.2547   71.4355   -2.4885 P   0  0  2  0  0  0  0  0  0  0  0  0
   20.2203   72.9533   -1.9295 O   0  0  0  0  0  0  0  0  0  0  0  0
   19.5656   70.4349   -1.6065 O   0  0  0  0  0  0  0  0  0  0  0  0
   19.6520   71.5375   -3.9823 O   0  0  0  0  0  0  0  0  0  0  0  0
   18.8325   69.8713   -5.4549 O   0  0  0  0  0  0  0  0  0  0  0  0
   20.7539   72.2881   -8.1968 O   0  0  0  0  0  0  0  0  0  0  0  0
   17.8836   72.2475   -8.1086 O   0  0  0  0  0  0  0  0  0  0  0  0
   21.9315   71.8418   -5.5903 O   0  0  0  0  0  0  0  0  0  0  0  0
   19.9977   72.0014   -7.0173 C   0  0  1  0  0  0  0  0  0  0  0  0
   18.7052   71.2976   -7.4356 C   0  0  1  0  0  0  0  0  0  0  0  0
   20.8257   71.1040   -6.0994 C   0  0  2  0  0  0  0  0  0  0  0  0
   17.9690   70.7218   -6.2183 C   0  0  1  0  0  0  0  0  0  0  0  0
   19.9865   70.5451   -4.9489 C   0  0  1  0  0  0  0  0  0  0  0  0
   20.2340   72.8580   -8.7837 H   0  0  0  0  0  0  0  0  0  0  0  0
   18.3603   72.6038   -8.8748 H   0  0  0  0  0  0  0  0  0  0  0  0
   22.4550   72.1900   -6.3283 H   0  0  0  0  0  0  0  0  0  0  0  0
   15.7374   70.7516   -7.0716 O   0  0  0  0  0  0  0  0  0  0  0  0
   16.7610   69.8811   -6.6256 C   0  0  0  0  0  0  0  0  0  0  0  0
   14.9622   70.2303   -7.3344 H   0  0  0  0  0  0  0  0  0  0  0  0
 25 28  1  0
 25 24  1  0
 25 26  1  1
 25 27  2  0
  1  4  1  0
  1 24  1  0
  1  2  1  6
  1  3  2  0
  6 11  1  0
  6 12  1  0
 29 36  1  0
 29 37  1  0
  9  7  1  1
  7 13  1  0
 10  8  1  1
  8 14  1  0
 37 28  1  1
  4  5  1  0
 33 30  1  6
 30 38  1  0
 34 31  1  1
 31 39  1  0
 35 32  1  1
 32 40  1  0
 41 42  1  0
 41 43  1  0
 15 19  2  0
 16 22  2  0
 12 17  1  6
 17 19  1  0
 17 20  1  0
 18 19  1  0
 18 22  1  0
 18 23  1  0
  9 10  1  0
  9 11  1  0
 10 12  1  0
 11  5  1  6
 33 34  1  0
 33 35  1  0
 34 36  1  0
 35 37  1  0
 36 42  1  6
 20 21  2  0
 21 22  1  0
M  CHG  2   2  -1  26  -1
M  END
>  <COMPND>  (176) 
    8629 

>  <AUTHOR>  (176) 
    GENERATED BY OPEN BABEL 3.1.1

>  <MASTER>  (176) 
        0    0    0    0    0    0    0    0   58    0   58    0

>  <minimizedAffinity>  (176) 
-7.22770

>  <CNNscore>  (176) 
0.5301873684

>  <CNNaffinity>  (176) 
4.1336264610

>  <CNN_VS>  (176) 
2.1915965080

>  <CNNaffinity_variance>  (176) 
0.1148695350

$$$$
177
     RDKit          3D

 43 45  0  0  0  0  0  0  0  0999 V2000
   19.8682   71.5710   -2.7952 P   0  0  2  0  0  0  0  0  0  0  0  0
   18.7630   72.6865   -3.1843 O   0  0  0  0  0  0  0  0  0  0  0  0
   19.3612   70.1590   -2.7677 O   0  0  0  0  0  0  0  0  0  0  0  0
   20.5007   72.1175   -1.4098 O   0  0  0  0  0  0  0  0  0  0  0  0
   20.6795   71.2040   -0.3414 C   0  0  0  0  0  0  0  0  0  0  0  0
   22.8195   72.2842   -0.5066 O   0  0  0  0  0  0  0  0  0  0  0  0
   23.7373   70.3759    1.6164 O   0  0  0  0  0  0  0  0  0  0  0  0
   23.2973   72.6678    3.0272 O   0  0  0  0  0  0  0  0  0  0  0  0
   22.4674   71.0065    1.4579 C   0  0  1  0  0  0  0  0  0  0  0  0
   22.5550   72.4690    1.8413 C   0  0  2  0  0  0  0  0  0  0  0  0
   22.1659   71.0862   -0.0335 C   0  0  1  0  0  0  0  0  0  0  0  0
   23.2285   73.0747    0.6216 C   0  0  2  0  0  0  0  0  0  0  0  0
   23.9514   70.3134    2.5609 H   0  0  0  0  0  0  0  0  0  0  0  0
   22.8278   72.2647    3.7741 H   0  0  0  0  0  0  0  0  0  0  0  0
   24.9256   75.0689   -0.4370 O   0  0  0  0  0  0  0  0  0  0  0  0
   21.6240   78.2742   -0.1785 O   0  0  0  0  0  0  0  0  0  0  0  0
   22.8382   74.4387    0.4013 N   0  0  0  0  0  0  0  0  0  0  0  0
   23.2802   76.6632   -0.3076 N   0  0  0  0  0  0  0  0  0  0  0  0
   23.7670   75.3614   -0.1340 C   0  0  0  0  0  0  0  0  0  0  0  0
   21.5471   74.8494    0.7148 C   0  0  0  0  0  0  0  0  0  0  0  0
   21.0989   76.0949    0.5444 C   0  0  0  0  0  0  0  0  0  0  0  0
   22.0061   77.1203   -0.0101 C   0  0  0  0  0  0  0  0  0  0  0  0
   23.9097   77.3233   -0.6788 H   0  0  0  0  0  0  0  0  0  0  0  0
   21.0494   71.8409   -3.8652 O   0  0  0  0  0  0  0  0  0  0  0  0
   21.0832   72.7478   -5.2028 P   0  0  2  0  0  0  0  0  0  0  0  0
   22.4535   72.2869   -5.9291 O   0  0  0  0  0  0  0  0  0  0  0  0
   20.9836   74.2240   -4.9481 O   0  0  0  0  0  0  0  0  0  0  0  0
   19.9077   72.1487   -6.1324 O   0  0  0  0  0  0  0  0  0  0  0  0
   19.0039   69.9578   -6.1282 O   0  0  0  0  0  0  0  0  0  0  0  0
   18.6543   70.8080  -10.1538 O   0  0  0  0  0  0  0  0  0  0  0  0
   16.3005   70.7370   -8.5100 O   0  0  0  0  0  0  0  0  0  0  0  0
   20.9831   71.7033   -8.6859 O   0  0  0  0  0  0  0  0  0  0  0  0
   18.6513   71.1039   -8.7546 C   0  0  1  0  0  0  0  0  0  0  0  0
   17.5711   70.2509   -8.0864 C   0  0  1  0  0  0  0  0  0  0  0  0
   20.0267   70.7819   -8.1733 C   0  0  2  0  0  0  0  0  0  0  0  0
   17.6840   70.3122   -6.5572 C   0  0  1  0  0  0  0  0  0  0  0  0
   20.0174   70.8230   -6.6441 C   0  0  1  0  0  0  0  0  0  0  0  0
   17.7840   71.0108  -10.5291 H   0  0  0  0  0  0  0  0  0  0  0  0
   16.2423   70.6933   -9.4774 H   0  0  0  0  0  0  0  0  0  0  0  0
   20.9795   71.6675   -9.6546 H   0  0  0  0  0  0  0  0  0  0  0  0
   17.2623   68.9810   -4.6184 O   0  0  0  0  0  0  0  0  0  0  0  0
   16.7185   69.3468   -5.8733 C   0  0  0  0  0  0  0  0  0  0  0  0
   16.6582   68.3669   -4.1715 H   0  0  0  0  0  0  0  0  0  0  0  0
 25 28  1  0
 25 24  1  0
 25 26  1  6
 25 27  2  0
  1  4  1  0
  1 24  1  0
  1  2  1  6
  1  3  2  0
  6 11  1  0
  6 12  1  0
 29 36  1  0
 29 37  1  0
  9  7  1  6
  7 13  1  0
 10  8  1  1
  8 14  1  0
 37 28  1  6
  4  5  1  0
 33 30  1  6
 30 38  1  0
 34 31  1  1
 31 39  1  0
 35 32  1  6
 32 40  1  0
 41 42  1  0
 41 43  1  0
 15 19  2  0
 16 22  2  0
 12 17  1  6
 17 19  1  0
 17 20  1  0
 18 19  1  0
 18 22  1  0
 18 23  1  0
  9 10  1  0
  9 11  1  0
 10 12  1  0
 11  5  1  1
 33 34  1  0
 33 35  1  0
 34 36  1  0
 35 37  1  0
 36 42  1  1
 20 21  2  0
 21 22  1  0
M  CHG  2   2  -1  26  -1
M  END
>  <COMPND>  (177) 
    8629 

>  <AUTHOR>  (177) 
    GENERATED BY OPEN BABEL 3.1.1

>  <MASTER>  (177) 
        0    0    0    0    0    0    0    0   58    0   58    0

>  <minimizedAffinity>  (177) 
-6.34634

>  <CNNscore>  (177) 
0.4964862466

>  <CNNaffinity>  (177) 
4.1530647278

>  <CNN_VS>  (177) 
2.0619394779

>  <CNNaffinity_variance>  (177) 
0.0181518700

$$$$
178
     RDKit          3D

 43 45  0  0  0  0  0  0  0  0999 V2000
   22.9053   72.0148   -2.9581 P   0  0  2  0  0  0  0  0  0  0  0  0
   24.1176   70.9526   -3.0986 O   0  0  0  0  0  0  0  0  0  0  0  0
   23.0134   73.2207   -3.8444 O   0  0  0  0  0  0  0  0  0  0  0  0
   22.8335   72.3143   -1.3697 O   0  0  0  0  0  0  0  0  0  0  0  0
   23.6628   71.5618   -0.5016 C   0  0  0  0  0  0  0  0  0  0  0  0
   23.7056   70.3675    1.5831 O   0  0  0  0  0  0  0  0  0  0  0  0
   21.0250   71.5959    2.1270 O   0  0  0  0  0  0  0  0  0  0  0  0
   22.7038   73.1526    3.6085 O   0  0  0  0  0  0  0  0  0  0  0  0
   22.1552   72.1554    1.4600 C   0  0  1  0  0  0  0  0  0  0  0  0
   23.2316   72.5166    2.4623 C   0  0  2  0  0  0  0  0  0  0  0  0
   22.8251   71.0451    0.6601 C   0  0  1  0  0  0  0  0  0  0  0  0
   23.8397   71.1598    2.7743 C   0  0  2  0  0  0  0  0  0  0  0  0
   20.5805   72.2864    2.6443 H   0  0  0  0  0  0  0  0  0  0  0  0
   22.3289   74.0113    3.3582 H   0  0  0  0  0  0  0  0  0  0  0  0
   25.5507   73.2610    1.9771 O   0  0  0  0  0  0  0  0  0  0  0  0
   29.1566   71.3984    4.1610 O   0  0  0  0  0  0  0  0  0  0  0  0
   25.2301   71.2494    3.1207 N   0  0  0  0  0  0  0  0  0  0  0  0
   27.3447   72.3319    3.0654 N   0  0  0  0  0  0  0  0  0  0  0  0
   26.0014   72.3454    2.6687 C   0  0  0  0  0  0  0  0  0  0  0  0
   25.8152   70.2578    3.9006 C   0  0  0  0  0  0  0  0  0  0  0  0
   27.0980   70.2590    4.2692 C   0  0  0  0  0  0  0  0  0  0  0  0
   27.9729   71.3686    3.8387 C   0  0  0  0  0  0  0  0  0  0  0  0
   27.9014   73.0854    2.7618 H   0  0  0  0  0  0  0  0  0  0  0  0
   21.5939   71.1056   -3.2161 O   0  0  0  0  0  0  0  0  0  0  0  0
   20.0907   71.2211   -2.6330 P   0  0  2  0  0  0  0  0  0  0  0  0
   19.8217   72.8164   -2.6137 O   0  0  0  0  0  0  0  0  0  0  0  0
   19.8907   70.5434   -1.3084 O   0  0  0  0  0  0  0  0  0  0  0  0
   19.1485   70.6632   -3.8188 O   0  0  0  0  0  0  0  0  0  0  0  0
   17.4883   72.0123   -4.8386 O   0  0  0  0  0  0  0  0  0  0  0  0
   15.9016   68.2873   -5.6498 O   0  0  0  0  0  0  0  0  0  0  0  0
   17.0749   69.8221   -7.7748 O   0  0  0  0  0  0  0  0  0  0  0  0
   17.1888   68.7856   -3.1053 O   0  0  0  0  0  0  0  0  0  0  0  0
   16.9465   69.2447   -5.4573 C   0  0  1  0  0  0  0  0  0  0  0  0
   16.7718   70.3595   -6.4904 C   0  0  1  0  0  0  0  0  0  0  0  0
   16.8541   69.8061   -4.0397 C   0  0  2  0  0  0  0  0  0  0  0  0
   17.6877   71.5510   -6.1800 C   0  0  1  0  0  0  0  0  0  0  0  0
   17.7685   71.0180   -3.8514 C   0  0  1  0  0  0  0  0  0  0  0  0
   15.9549   67.9266   -6.5479 H   0  0  0  0  0  0  0  0  0  0  0  0
   16.4899   69.0702   -7.9583 H   0  0  0  0  0  0  0  0  0  0  0  0
   16.6027   68.0243   -3.2345 H   0  0  0  0  0  0  0  0  0  0  0  0
   17.9554   72.4431   -8.3803 O   0  0  0  0  0  0  0  0  0  0  0  0
   17.4172   72.7363   -7.1041 C   0  0  0  0  0  0  0  0  0  0  0  0
   17.7904   73.1886   -8.9792 H   0  0  0  0  0  0  0  0  0  0  0  0
 25 28  1  0
 25 24  1  0
 25 26  1  1
 25 27  2  0
  1  4  1  0
  1 24  1  0
  1  2  1  1
  1  3  2  0
  6 11  1  0
  6 12  1  0
 29 36  1  0
 29 37  1  0
  9  7  1  1
  7 13  1  0
 10  8  1  1
  8 14  1  0
 37 28  1  6
  4  5  1  0
 33 30  1  6
 30 38  1  0
 34 31  1  6
 31 39  1  0
 35 32  1  1
 32 40  1  0
 41 42  1  0
 41 43  1  0
 15 19  2  0
 16 22  2  0
 12 17  1  6
 17 19  1  0
 17 20  1  0
 18 19  1  0
 18 22  1  0
 18 23  1  0
  9 10  1  0
  9 11  1  0
 10 12  1  0
 11  5  1  6
 33 34  1  0
 33 35  1  0
 34 36  1  0
 35 37  1  0
 36 42  1  6
 20 21  2  0
 21 22  1  0
M  CHG  2   2  -1  26  -1
M  END
>  <COMPND>  (178) 
    8629 

>  <AUTHOR>  (178) 
    GENERATED BY OPEN BABEL 3.1.1

>  <MASTER>  (178) 
        0    0    0    0    0    0    0    0   58    0   58    0

>  <minimizedAffinity>  (178) 
-7.72733

>  <CNNscore>  (178) 
0.4786632657

>  <CNNaffinity>  (178) 
4.1190466881

>  <CNN_VS>  (178) 
1.9716362953

>  <CNNaffinity_variance>  (178) 
0.1308099777

$$$$
179
     RDKit          3D

 43 45  0  0  0  0  0  0  0  0999 V2000
   23.0809   71.8973   -2.7143 P   0  0  2  0  0  0  0  0  0  0  0  0
   24.2534   70.8806   -3.1715 O   0  0  0  0  0  0  0  0  0  0  0  0
   21.8547   71.2393   -2.1531 O   0  0  0  0  0  0  0  0  0  0  0  0
   22.8451   72.8289   -4.0160 O   0  0  0  0  0  0  0  0  0  0  0  0
   21.5548   72.8594   -4.6008 C   0  0  0  0  0  0  0  0  0  0  0  0
   20.8488   70.7962   -5.6100 O   0  0  0  0  0  0  0  0  0  0  0  0
   21.3589   72.1287   -8.2472 O   0  0  0  0  0  0  0  0  0  0  0  0
   18.6485   72.3072   -8.0054 O   0  0  0  0  0  0  0  0  0  0  0  0
   20.8466   72.6870   -7.0384 C   0  0  1  0  0  0  0  0  0  0  0  0
   19.4149   72.2442   -6.8200 C   0  0  2  0  0  0  0  0  0  0  0  0
   21.5668   72.0217   -5.8722 C   0  0  1  0  0  0  0  0  0  0  0  0
   19.5982   70.8223   -6.3172 C   0  0  2  0  0  0  0  0  0  0  0  0
   20.9141   72.5384   -9.0063 H   0  0  0  0  0  0  0  0  0  0  0  0
   18.5603   73.2319   -8.2848 H   0  0  0  0  0  0  0  0  0  0  0  0
   17.0864   69.8347   -7.1501 O   0  0  0  0  0  0  0  0  0  0  0  0
   15.6496   69.3017   -2.8035 O   0  0  0  0  0  0  0  0  0  0  0  0
   18.5491   70.4176   -5.4244 N   0  0  0  0  0  0  0  0  0  0  0  0
   16.3731   69.5699   -4.9852 N   0  0  0  0  0  0  0  0  0  0  0  0
   17.3250   69.9367   -5.9450 C   0  0  0  0  0  0  0  0  0  0  0  0
   18.7394   70.4992   -4.0493 C   0  0  0  0  0  0  0  0  0  0  0  0
   17.8210   70.1467   -3.1473 C   0  0  0  0  0  0  0  0  0  0  0  0
   16.5146   69.6339   -3.6080 C   0  0  0  0  0  0  0  0  0  0  0  0
   15.5125   69.2324   -5.3246 H   0  0  0  0  0  0  0  0  0  0  0  0
   23.8402   72.8904   -1.6895 O   0  0  0  0  0  0  0  0  0  0  0  0
   23.3386   74.2361   -0.9475 P   0  0  2  0  0  0  0  0  0  0  0  0
   21.8106   74.3925   -1.4557 O   0  0  0  0  0  0  0  0  0  0  0  0
   24.2020   75.4376   -1.2024 O   0  0  0  0  0  0  0  0  0  0  0  0
   23.2107   73.8220    0.6072 O   0  0  0  0  0  0  0  0  0  0  0  0
   24.0529   72.0805    1.9764 O   0  0  0  0  0  0  0  0  0  0  0  0
   20.1108   72.0382    3.2050 O   0  0  0  0  0  0  0  0  0  0  0  0
   22.1318   73.0800    4.9596 O   0  0  0  0  0  0  0  0  0  0  0  0
   20.7497   72.4868    0.4176 O   0  0  0  0  0  0  0  0  0  0  0  0
   21.3277   72.6368    2.7510 C   0  0  1  0  0  0  0  0  0  0  0  0
   22.4216   72.3381    3.7781 C   0  0  1  0  0  0  0  0  0  0  0  0
   21.6945   72.0506    1.3889 C   0  0  2  0  0  0  0  0  0  0  0  0
   23.8074   72.7148    3.2370 C   0  0  1  0  0  0  0  0  0  0  0  0
   23.1105   72.4464    0.9664 C   0  0  1  0  0  0  0  0  0  0  0  0
   19.8721   72.4064    4.0692 H   0  0  0  0  0  0  0  0  0  0  0  0
   21.2540   72.8331    5.2907 H   0  0  0  0  0  0  0  0  0  0  0  0
   19.8575   72.2300    0.6964 H   0  0  0  0  0  0  0  0  0  0  0  0
   24.7336   70.9175    4.5101 O   0  0  0  0  0  0  0  0  0  0  0  0
   24.9271   72.2807    4.1803 C   0  0  0  0  0  0  0  0  0  0  0  0
   25.4392   70.6273    5.1098 H   0  0  0  0  0  0  0  0  0  0  0  0
 25 28  1  0
 25 24  1  0
 25 26  1  6
 25 27  2  0
  1  4  1  0
  1 24  1  0
  1  2  1  6
  1  3  2  0
  6 11  1  0
  6 12  1  0
 29 36  1  0
 29 37  1  0
  9  7  1  6
  7 13  1  0
 10  8  1  6
  8 14  1  0
 37 28  1  1
  4  5  1  0
 33 30  1  1
 30 38  1  0
 34 31  1  1
 31 39  1  0
 35 32  1  6
 32 40  1  0
 41 42  1  0
 41 43  1  0
 15 19  2  0
 16 22  2  0
 12 17  1  1
 17 19  1  0
 17 20  1  0
 18 19  1  0
 18 22  1  0
 18 23  1  0
  9 10  1  0
  9 11  1  0
 10 12  1  0
 11  5  1  1
 33 34  1  0
 33 35  1  0
 34 36  1  0
 35 37  1  0
 36 42  1  1
 20 21  2  0
 21 22  1  0
M  CHG  2   2  -1  26  -1
M  END
>  <COMPND>  (179) 
    8629 

>  <AUTHOR>  (179) 
    GENERATED BY OPEN BABEL 3.1.1

>  <MASTER>  (179) 
        0    0    0    0    0    0    0    0   58    0   58    0

>  <minimizedAffinity>  (179) 
-7.13824

>  <CNNscore>  (179) 
0.4712244868

>  <CNNaffinity>  (179) 
4.0029401779

>  <CNN_VS>  (179) 
1.8862833977

>  <CNNaffinity_variance>  (179) 
0.3432027698

$$$$
180
     RDKit          3D

 43 45  0  0  0  0  0  0  0  0999 V2000
   23.4562   72.2023   -3.3778 P   0  0  2  0  0  0  0  0  0  0  0  0
   24.2163   70.8129   -3.0473 O   0  0  0  0  0  0  0  0  0  0  0  0
   24.2641   73.1966   -4.1589 O   0  0  0  0  0  0  0  0  0  0  0  0
   22.9249   72.7070   -1.9352 O   0  0  0  0  0  0  0  0  0  0  0  0
   23.7328   72.4683   -0.7958 C   0  0  0  0  0  0  0  0  0  0  0  0
   24.2430   70.7484    0.8027 O   0  0  0  0  0  0  0  0  0  0  0  0
   21.2794   70.3850    1.0775 O   0  0  0  0  0  0  0  0  0  0  0  0
   21.9040   71.8631    3.2825 O   0  0  0  0  0  0  0  0  0  0  0  0
   22.0261   71.5829    0.8704 C   0  0  1  0  0  0  0  0  0  0  0  0
   22.7347   71.9880    2.1462 C   0  0  2  0  0  0  0  0  0  0  0  0
   23.1939   71.2544   -0.0514 C   0  0  1  0  0  0  0  0  0  0  0  0
   23.9103   71.0260    2.1727 C   0  0  2  0  0  0  0  0  0  0  0  0
   20.5279   70.5699    1.6632 H   0  0  0  0  0  0  0  0  0  0  0  0
   21.1714   72.4955    3.2187 H   0  0  0  0  0  0  0  0  0  0  0  0
   25.7187   69.5446    3.7580 O   0  0  0  0  0  0  0  0  0  0  0  0
   28.2837   73.2711    4.6390 O   0  0  0  0  0  0  0  0  0  0  0  0
   25.0596   71.5837    2.8280 N   0  0  0  0  0  0  0  0  0  0  0  0
   26.9945   71.4013    4.1952 N   0  0  0  0  0  0  0  0  0  0  0  0
   25.9036   70.7534    3.6017 C   0  0  0  0  0  0  0  0  0  0  0  0
   25.3404   72.9397    2.6998 C   0  0  0  0  0  0  0  0  0  0  0  0
   26.3840   73.5424    3.2733 C   0  0  0  0  0  0  0  0  0  0  0  0
   27.3151   72.7461    4.0985 C   0  0  0  0  0  0  0  0  0  0  0  0
   27.5961   70.8428    4.7393 H   0  0  0  0  0  0  0  0  0  0  0  0
   22.1025   71.7104   -4.1117 O   0  0  0  0  0  0  0  0  0  0  0  0
   20.5749   71.6439   -3.5876 P   0  0  2  0  0  0  0  0  0  0  0  0
   20.2315   73.1881   -3.2481 O   0  0  0  0  0  0  0  0  0  0  0  0
   20.3572   70.6954   -2.4445 O   0  0  0  0  0  0  0  0  0  0  0  0
   19.7047   71.3133   -4.9061 O   0  0  0  0  0  0  0  0  0  0  0  0
   19.6023   72.2040   -7.0999 O   0  0  0  0  0  0  0  0  0  0  0  0
   15.5586   71.8538   -6.3406 O   0  0  0  0  0  0  0  0  0  0  0  0
   16.8183   70.0420   -8.1788 O   0  0  0  0  0  0  0  0  0  0  0  0
   17.3561   72.6938   -4.2328 O   0  0  0  0  0  0  0  0  0  0  0  0
   16.9357   71.4749   -6.2672 C   0  0  1  0  0  0  0  0  0  0  0  0
   17.4412   71.2265   -7.6897 C   0  0  1  0  0  0  0  0  0  0  0  0
   17.7281   72.5996   -5.6036 C   0  0  2  0  0  0  0  0  0  0  0  0
   18.9683   71.0774   -7.7167 C   0  0  1  0  0  0  0  0  0  0  0  0
   19.2365   72.3782   -5.7296 C   0  0  1  0  0  0  0  0  0  0  0  0
   15.0497   71.1437   -6.7605 H   0  0  0  0  0  0  0  0  0  0  0  0
   15.8543   70.1492   -8.1560 H   0  0  0  0  0  0  0  0  0  0  0  0
   16.3991   72.8342   -4.1666 H   0  0  0  0  0  0  0  0  0  0  0  0
   18.4768   71.3546  -10.0385 O   0  0  0  0  0  0  0  0  0  0  0  0
   19.5089   70.9865   -9.1421 C   0  0  0  0  0  0  0  0  0  0  0  0
   18.8066   71.3017  -10.9496 H   0  0  0  0  0  0  0  0  0  0  0  0
 25 28  1  0
 25 24  1  0
 25 26  1  1
 25 27  2  0
  1  4  1  0
  1 24  1  0
  1  2  1  1
  1  3  2  0
  6 11  1  0
  6 12  1  0
 29 36  1  0
 29 37  1  0
  9  7  1  1
  7 13  1  0
 10  8  1  1
  8 14  1  0
 37 28  1  1
  4  5  1  0
 33 30  1  6
 30 38  1  0
 34 31  1  1
 31 39  1  0
 35 32  1  1
 32 40  1  0
 41 42  1  0
 41 43  1  0
 15 19  2  0
 16 22  2  0
 12 17  1  6
 17 19  1  0
 17 20  1  0
 18 19  1  0
 18 22  1  0
 18 23  1  0
  9 10  1  0
  9 11  1  0
 10 12  1  0
 11  5  1  1
 33 34  1  0
 33 35  1  0
 34 36  1  0
 35 37  1  0
 36 42  1  6
 20 21  2  0
 21 22  1  0
M  CHG  2   2  -1  26  -1
M  END
>  <COMPND>  (180) 
    8629 

>  <AUTHOR>  (180) 
    GENERATED BY OPEN BABEL 3.1.1

>  <MASTER>  (180) 
        0    0    0    0    0    0    0    0   58    0   58    0

>  <minimizedAffinity>  (180) 
-7.84299

>  <CNNscore>  (180) 
0.4687163532

>  <CNNaffinity>  (180) 
4.1605024338

>  <CNN_VS>  (180) 
1.9500955343

>  <CNNaffinity_variance>  (180) 
0.1322107613

$$$$
181
     RDKit          3D

 43 45  0  0  0  0  0  0  0  0999 V2000
   22.5958   71.9092   -2.9155 P   0  0  2  0  0  0  0  0  0  0  0  0
   23.9731   71.9705   -3.7622 O   0  0  0  0  0  0  0  0  0  0  0  0
   22.6492   71.0609   -1.6790 O   0  0  0  0  0  0  0  0  0  0  0  0
   21.4845   71.4840   -4.0119 O   0  0  0  0  0  0  0  0  0  0  0  0
   20.6332   70.3889   -3.7220 C   0  0  0  0  0  0  0  0  0  0  0  0
   18.8006   71.5732   -4.7284 O   0  0  0  0  0  0  0  0  0  0  0  0
   17.0847   70.3548   -2.5926 O   0  0  0  0  0  0  0  0  0  0  0  0
   16.5470   68.7834   -4.7555 O   0  0  0  0  0  0  0  0  0  0  0  0
   18.1987   69.7931   -3.2846 C   0  0  1  0  0  0  0  0  0  0  0  0
   17.8061   69.4222   -4.6995 C   0  0  2  0  0  0  0  0  0  0  0  0
   19.2151   70.9040   -3.5173 C   0  0  1  0  0  0  0  0  0  0  0  0
   17.8068   70.7747   -5.3915 C   0  0  2  0  0  0  0  0  0  0  0  0
   16.4221   69.6639   -2.4323 H   0  0  0  0  0  0  0  0  0  0  0  0
   16.5980   67.9276   -4.3020 H   0  0  0  0  0  0  0  0  0  0  0  0
   15.9540   70.1782   -7.4382 O   0  0  0  0  0  0  0  0  0  0  0  0
   19.2004   70.4245  -10.7004 O   0  0  0  0  0  0  0  0  0  0  0  0
   18.1406   70.6771   -6.7845 N   0  0  0  0  0  0  0  0  0  0  0  0
   17.5719   70.3015   -9.0609 N   0  0  0  0  0  0  0  0  0  0  0  0
   17.1356   70.3714   -7.7317 C   0  0  0  0  0  0  0  0  0  0  0  0
   19.4518   70.8837   -7.1991 C   0  0  0  0  0  0  0  0  0  0  0  0
   19.8518   70.8120   -8.4704 C   0  0  0  0  0  0  0  0  0  0  0  0
   18.8639   70.4975   -9.5226 C   0  0  0  0  0  0  0  0  0  0  0  0
   16.8893   70.0895   -9.7383 H   0  0  0  0  0  0  0  0  0  0  0  0
   22.2640   73.4685   -2.6478 O   0  0  0  0  0  0  0  0  0  0  0  0
   21.5007   74.5631   -3.5599 P   0  0  2  0  0  0  0  0  0  0  0  0
   22.0038   75.9731   -2.9465 O   0  0  0  0  0  0  0  0  0  0  0  0
   20.0086   74.4009   -3.5964 O   0  0  0  0  0  0  0  0  0  0  0  0
   22.2195   74.4662   -5.0018 O   0  0  0  0  0  0  0  0  0  0  0  0
   20.8307   75.3041   -6.7297 O   0  0  0  0  0  0  0  0  0  0  0  0
   23.8137   73.6228   -9.0375 O   0  0  0  0  0  0  0  0  0  0  0  0
   23.6255   76.4807   -8.8257 O   0  0  0  0  0  0  0  0  0  0  0  0
   22.9305   72.2899   -6.6245 O   0  0  0  0  0  0  0  0  0  0  0  0
   23.2718   74.3029   -7.9021 C   0  0  1  0  0  0  0  0  0  0  0  0
   22.6029   75.5901   -8.3884 C   0  0  1  0  0  0  0  0  0  0  0  0
   22.2540   73.3945   -7.2149 C   0  0  2  0  0  0  0  0  0  0  0  0
   21.7713   76.2378   -7.2730 C   0  0  1  0  0  0  0  0  0  0  0  0
   21.4471   74.1492   -6.1569 C   0  0  1  0  0  0  0  0  0  0  0  0
   24.4611   74.1940   -9.4781 H   0  0  0  0  0  0  0  0  0  0  0  0
   24.1435   76.0595   -9.5296 H   0  0  0  0  0  0  0  0  0  0  0  0
   23.4373   71.8202   -7.3045 H   0  0  0  0  0  0  0  0  0  0  0  0
   20.6728   77.2310   -9.1480 O   0  0  0  0  0  0  0  0  0  0  0  0
   20.9698   77.4352   -7.7789 C   0  0  0  0  0  0  0  0  0  0  0  0
   20.1626   77.9853   -9.4835 H   0  0  0  0  0  0  0  0  0  0  0  0
 25 28  1  0
 25 24  1  0
 25 26  1  1
 25 27  2  0
  1  4  1  0
  1 24  1  0
  1  2  1  6
  1  3  2  0
  6 11  1  0
  6 12  1  0
 29 36  1  0
 29 37  1  0
  9  7  1  1
  7 13  1  0
 10  8  1  1
  8 14  1  0
 37 28  1  1
  4  5  1  0
 33 30  1  6
 30 38  1  0
 34 31  1  1
 31 39  1  0
 35 32  1  1
 32 40  1  0
 41 42  1  0
 41 43  1  0
 15 19  2  0
 16 22  2  0
 12 17  1  6
 17 19  1  0
 17 20  1  0
 18 19  1  0
 18 22  1  0
 18 23  1  0
  9 10  1  0
  9 11  1  0
 10 12  1  0
 11  5  1  6
 33 34  1  0
 33 35  1  0
 34 36  1  0
 35 37  1  0
 36 42  1  6
 20 21  2  0
 21 22  1  0
M  CHG  2   2  -1  26  -1
M  END
>  <COMPND>  (181) 
    8629 

>  <AUTHOR>  (181) 
    GENERATED BY OPEN BABEL 3.1.1

>  <MASTER>  (181) 
        0    0    0    0    0    0    0    0   58    0   58    0

>  <minimizedAffinity>  (181) 
-7.31518

>  <CNNscore>  (181) 
0.9373831153

>  <CNNaffinity>  (181) 
4.7381415367

>  <CNN_VS>  (181) 
4.4414539337

>  <CNNaffinity_variance>  (181) 
0.2125945091

$$$$
182
     RDKit          3D

 43 45  0  0  0  0  0  0  0  0999 V2000
   22.9914   71.6697   -2.7239 P   0  0  2  0  0  0  0  0  0  0  0  0
   23.1345   73.2416   -2.3688 O   0  0  0  0  0  0  0  0  0  0  0  0
   24.2612   71.0009   -3.1619 O   0  0  0  0  0  0  0  0  0  0  0  0
   21.7697   71.6206   -3.7836 O   0  0  0  0  0  0  0  0  0  0  0  0
   20.8841   70.5151   -3.7436 C   0  0  0  0  0  0  0  0  0  0  0  0
   18.9950   71.6624   -4.6864 O   0  0  0  0  0  0  0  0  0  0  0  0
   17.3919   70.4690   -2.4510 O   0  0  0  0  0  0  0  0  0  0  0  0
   16.7716   68.8512   -4.5568 O   0  0  0  0  0  0  0  0  0  0  0  0
   18.4787   69.9048   -3.1830 C   0  0  1  0  0  0  0  0  0  0  0  0
   18.0253   69.5029   -4.5711 C   0  0  2  0  0  0  0  0  0  0  0  0
   19.4717   71.0206   -3.4834 C   0  0  1  0  0  0  0  0  0  0  0  0
   17.9801   70.8418   -5.2877 C   0  0  2  0  0  0  0  0  0  0  0  0
   16.7446   69.7751   -2.2473 H   0  0  0  0  0  0  0  0  0  0  0  0
   16.8523   68.0048   -4.0901 H   0  0  0  0  0  0  0  0  0  0  0  0
   16.0601   70.1065   -7.2244 O   0  0  0  0  0  0  0  0  0  0  0  0
   19.1305   70.4067  -10.6483 O   0  0  0  0  0  0  0  0  0  0  0  0
   18.2504   70.7205   -6.6925 N   0  0  0  0  0  0  0  0  0  0  0  0
   17.5905   70.2568   -8.9277 N   0  0  0  0  0  0  0  0  0  0  0  0
   17.2160   70.3441   -7.5808 C   0  0  0  0  0  0  0  0  0  0  0  0
   19.5292   70.9738   -7.1766 C   0  0  0  0  0  0  0  0  0  0  0  0
   19.8703   70.8848   -8.4639 C   0  0  0  0  0  0  0  0  0  0  0  0
   18.8483   70.4974   -9.4576 C   0  0  0  0  0  0  0  0  0  0  0  0
   16.8864   69.9958   -9.5648 H   0  0  0  0  0  0  0  0  0  0  0  0
   22.3339   71.0524   -1.3825 O   0  0  0  0  0  0  0  0  0  0  0  0
   21.4970   71.7539   -0.1907 P   0  0  2  0  0  0  0  0  0  0  0  0
   20.7192   70.5130    0.4968 O   0  0  0  0  0  0  0  0  0  0  0  0
   20.6024   72.8718   -0.6423 O   0  0  0  0  0  0  0  0  0  0  0  0
   22.6127   72.1861    0.8925 O   0  0  0  0  0  0  0  0  0  0  0  0
   24.2869   71.1050    2.1750 O   0  0  0  0  0  0  0  0  0  0  0  0
   22.5369   73.3709    5.1505 O   0  0  0  0  0  0  0  0  0  0  0  0
   25.1327   74.0952    4.1579 O   0  0  0  0  0  0  0  0  0  0  0  0
   20.8894   72.1507    3.1070 O   0  0  0  0  0  0  0  0  0  0  0  0
   22.9891   73.0884    3.8234 C   0  0  1  0  0  0  0  0  0  0  0  0
   24.4997   72.8511    3.8718 C   0  0  1  0  0  0  0  0  0  0  0  0
   22.2662   71.8472    3.3035 C   0  0  2  0  0  0  0  0  0  0  0  0
   25.0142   72.2831    2.5422 C   0  0  1  0  0  0  0  0  0  0  0  0
   22.8873   71.3354    2.0026 C   0  0  1  0  0  0  0  0  0  0  0  0
   22.9917   74.1583    5.4864 H   0  0  0  0  0  0  0  0  0  0  0  0
   24.7988   74.4433    4.9997 H   0  0  0  0  0  0  0  0  0  0  0  0
   20.5077   72.4733    3.9377 H   0  0  0  0  0  0  0  0  0  0  0  0
   26.5710   70.4998    2.8661 O   0  0  0  0  0  0  0  0  0  0  0  0
   26.4882   71.8915    2.6197 C   0  0  0  0  0  0  0  0  0  0  0  0
   27.5035   70.2362    2.9176 H   0  0  0  0  0  0  0  0  0  0  0  0
 25 28  1  0
 25 24  1  0
 25 26  1  1
 25 27  2  0
  1  4  1  0
  1 24  1  0
  1  2  1  1
  1  3  2  0
  6 11  1  0
  6 12  1  0
 29 36  1  0
 29 37  1  0
  9  7  1  1
  7 13  1  0
 10  8  1  1
  8 14  1  0
 37 28  1  6
  4  5  1  0
 33 30  1  1
 30 38  1  0
 34 31  1  6
 31 39  1  0
 35 32  1  6
 32 40  1  0
 41 42  1  0
 41 43  1  0
 15 19  2  0
 16 22  2  0
 12 17  1  6
 17 19  1  0
 17 20  1  0
 18 19  1  0
 18 22  1  0
 18 23  1  0
  9 10  1  0
  9 11  1  0
 10 12  1  0
 11  5  1  6
 33 34  1  0
 33 35  1  0
 34 36  1  0
 35 37  1  0
 36 42  1  1
 20 21  2  0
 21 22  1  0
M  CHG  2   2  -1  26  -1
M  END
>  <COMPND>  (182) 
    8629 

>  <AUTHOR>  (182) 
    GENERATED BY OPEN BABEL 3.1.1

>  <MASTER>  (182) 
        0    0    0    0    0    0    0    0   58    0   58    0

>  <minimizedAffinity>  (182) 
-8.15649

>  <CNNscore>  (182) 
0.9305441380

>  <CNNaffinity>  (182) 
4.8057303429

>  <CNN_VS>  (182) 
4.4719443321

>  <CNNaffinity_variance>  (182) 
0.0343815163

$$$$
183
     RDKit          3D

 43 45  0  0  0  0  0  0  0  0999 V2000
   21.8173   72.2357   -5.6438 P   0  0  2  0  0  0  0  0  0  0  0  0
   20.8430   73.5102   -5.4347 O   0  0  0  0  0  0  0  0  0  0  0  0
   23.1759   72.5597   -6.1922 O   0  0  0  0  0  0  0  0  0  0  0  0
   20.9302   71.2092   -6.5255 O   0  0  0  0  0  0  0  0  0  0  0  0
   20.5684   71.5872   -7.8423 C   0  0  0  0  0  0  0  0  0  0  0  0
   19.0780   69.7695   -7.3436 O   0  0  0  0  0  0  0  0  0  0  0  0
   18.0484   70.0926  -10.1411 O   0  0  0  0  0  0  0  0  0  0  0  0
   16.1383   71.3504   -8.6558 O   0  0  0  0  0  0  0  0  0  0  0  0
   18.4887   71.0900   -9.2210 C   0  0  1  0  0  0  0  0  0  0  0  0
   17.4519   71.3000   -8.1372 C   0  0  2  0  0  0  0  0  0  0  0  0
   19.6605   70.5174   -8.4334 C   0  0  1  0  0  0  0  0  0  0  0  0
   17.6816   70.0932   -7.2433 C   0  0  2  0  0  0  0  0  0  0  0  0
   17.3005   70.4355  -10.6559 H   0  0  0  0  0  0  0  0  0  0  0  0
   16.0422   72.1352   -9.2175 H   0  0  0  0  0  0  0  0  0  0  0  0
   16.3379   68.2879   -5.5366 O   0  0  0  0  0  0  0  0  0  0  0  0
   16.5091   71.2273   -1.9909 O   0  0  0  0  0  0  0  0  0  0  0  0
   17.3624   70.3607   -5.8693 N   0  0  0  0  0  0  0  0  0  0  0  0
   16.4244   69.7529   -3.7724 N   0  0  0  0  0  0  0  0  0  0  0  0
   16.6845   69.3871   -5.0993 C   0  0  0  0  0  0  0  0  0  0  0  0
   17.7211   71.5771   -5.2987 C   0  0  0  0  0  0  0  0  0  0  0  0
   17.4646   71.9110   -4.0322 C   0  0  0  0  0  0  0  0  0  0  0  0
   16.7596   70.9499   -3.1597 C   0  0  0  0  0  0  0  0  0  0  0  0
   15.9527   69.0904   -3.2170 H   0  0  0  0  0  0  0  0  0  0  0  0
   21.8290   71.5436   -4.1831 O   0  0  0  0  0  0  0  0  0  0  0  0
   22.7173   71.8537   -2.8686 P   0  0  2  0  0  0  0  0  0  0  0  0
   24.1710   71.2573   -3.2539 O   0  0  0  0  0  0  0  0  0  0  0  0
   22.1418   71.3073   -1.5941 O   0  0  0  0  0  0  0  0  0  0  0  0
   22.9177   73.4551   -2.8795 O   0  0  0  0  0  0  0  0  0  0  0  0
   24.5424   74.5901   -4.1790 O   0  0  0  0  0  0  0  0  0  0  0  0
   24.1805   77.2868   -1.0729 O   0  0  0  0  0  0  0  0  0  0  0  0
   23.0808   77.9321   -3.6463 O   0  0  0  0  0  0  0  0  0  0  0  0
   24.0989   74.4439   -0.5338 O   0  0  0  0  0  0  0  0  0  0  0  0
   23.7204   76.3091   -2.0099 C   0  0  1  0  0  0  0  0  0  0  0  0
   23.9713   76.8426   -3.4217 C   0  0  1  0  0  0  0  0  0  0  0  0
   24.4825   75.0045   -1.7848 C   0  0  2  0  0  0  0  0  0  0  0  0
   23.7524   75.7478   -4.4746 C   0  0  1  0  0  0  0  0  0  0  0  0
   24.2331   74.0027   -2.9136 C   0  0  1  0  0  0  0  0  0  0  0  0
   23.7003   78.1175   -1.2102 H   0  0  0  0  0  0  0  0  0  0  0  0
   23.2290   78.6161   -2.9745 H   0  0  0  0  0  0  0  0  0  0  0  0
   24.2620   75.0876    0.1725 H   0  0  0  0  0  0  0  0  0  0  0  0
   23.6763   75.2648   -6.8134 O   0  0  0  0  0  0  0  0  0  0  0  0
   24.1488   76.2128   -5.8741 C   0  0  0  0  0  0  0  0  0  0  0  0
   23.9211   75.5479   -7.7087 H   0  0  0  0  0  0  0  0  0  0  0  0
 25 28  1  0
 25 24  1  0
 25 26  1  6
 25 27  2  0
  1  4  1  0
  1 24  1  0
  1  2  1  1
  1  3  2  0
  6 11  1  0
  6 12  1  0
 29 36  1  0
 29 37  1  0
  9  7  1  6
  7 13  1  0
 10  8  1  6
  8 14  1  0
 37 28  1  6
  4  5  1  0
 33 30  1  1
 30 38  1  0
 34 31  1  6
 31 39  1  0
 35 32  1  1
 32 40  1  0
 41 42  1  0
 41 43  1  0
 15 19  2  0
 16 22  2  0
 12 17  1  1
 17 19  1  0
 17 20  1  0
 18 19  1  0
 18 22  1  0
 18 23  1  0
  9 10  1  0
  9 11  1  0
 10 12  1  0
 11  5  1  1
 33 34  1  0
 33 35  1  0
 34 36  1  0
 35 37  1  0
 36 42  1  6
 20 21  2  0
 21 22  1  0
M  CHG  2   2  -1  26  -1
M  END
>  <COMPND>  (183) 
    8629 

>  <AUTHOR>  (183) 
    GENERATED BY OPEN BABEL 3.1.1

>  <MASTER>  (183) 
        0    0    0    0    0    0    0    0   58    0   58    0

>  <minimizedAffinity>  (183) 
-6.83071

>  <CNNscore>  (183) 
0.8934420943

>  <CNNaffinity>  (183) 
4.6657323837

>  <CNN_VS>  (183) 
4.1685619354

>  <CNNaffinity_variance>  (183) 
0.2717085481

$$$$
184
     RDKit          3D

 43 45  0  0  0  0  0  0  0  0999 V2000
   20.6033   71.3286   -1.3211 P   0  0  2  0  0  0  0  0  0  0  0  0
   21.2016   70.5960   -0.0085 O   0  0  0  0  0  0  0  0  0  0  0  0
   20.1175   72.7307   -1.0983 O   0  0  0  0  0  0  0  0  0  0  0  0
   19.5018   70.2839   -1.8808 O   0  0  0  0  0  0  0  0  0  0  0  0
   19.1776   70.3175   -3.2598 C   0  0  0  0  0  0  0  0  0  0  0  0
   17.5455   71.4006   -4.6514 O   0  0  0  0  0  0  0  0  0  0  0  0
   15.4866   69.8396   -3.1298 O   0  0  0  0  0  0  0  0  0  0  0  0
   15.7196   68.4175   -5.4450 O   0  0  0  0  0  0  0  0  0  0  0  0
   16.8004   69.4515   -3.5282 C   0  0  1  0  0  0  0  0  0  0  0  0
   16.8368   69.1686   -5.0156 C   0  0  2  0  0  0  0  0  0  0  0  0
   17.7051   70.6722   -3.4144 C   0  0  1  0  0  0  0  0  0  0  0  0
   16.8596   70.5698   -5.6023 C   0  0  2  0  0  0  0  0  0  0  0  0
   14.8908   69.0762   -3.1939 H   0  0  0  0  0  0  0  0  0  0  0  0
   15.7503   67.5345   -5.0448 H   0  0  0  0  0  0  0  0  0  0  0  0
   15.6142   70.3412   -8.1271 O   0  0  0  0  0  0  0  0  0  0  0  0
   19.6246   70.8012  -10.3511 O   0  0  0  0  0  0  0  0  0  0  0  0
   17.5543   70.6267   -6.8576 N   0  0  0  0  0  0  0  0  0  0  0  0
   17.6120   70.5706   -9.2325 N   0  0  0  0  0  0  0  0  0  0  0  0
   16.8352   70.5002   -8.0690 C   0  0  0  0  0  0  0  0  0  0  0  0
   18.9331   70.8064   -6.8791 C   0  0  0  0  0  0  0  0  0  0  0  0
   19.6593   70.8701   -7.9971 C   0  0  0  0  0  0  0  0  0  0  0  0
   18.9847   70.7468   -9.3054 C   0  0  0  0  0  0  0  0  0  0  0  0
   17.1326   70.4846  -10.0883 H   0  0  0  0  0  0  0  0  0  0  0  0
   21.8070   71.1958   -2.3918 O   0  0  0  0  0  0  0  0  0  0  0  0
   23.1474   72.0758   -2.5966 P   0  0  2  0  0  0  0  0  0  0  0  0
   24.2368   70.9842   -3.0858 O   0  0  0  0  0  0  0  0  0  0  0  0
   23.5589   72.8613   -1.3852 O   0  0  0  0  0  0  0  0  0  0  0  0
   22.8518   72.9718   -3.9061 O   0  0  0  0  0  0  0  0  0  0  0  0
   20.5487   73.3831   -4.2842 O   0  0  0  0  0  0  0  0  0  0  0  0
   22.0480   74.6307   -7.9238 O   0  0  0  0  0  0  0  0  0  0  0  0
   21.0924   76.5778   -6.0413 O   0  0  0  0  0  0  0  0  0  0  0  0
   23.1815   72.3116   -6.6136 O   0  0  0  0  0  0  0  0  0  0  0  0
   22.0589   74.4399   -6.5064 C   0  0  1  0  0  0  0  0  0  0  0  0
   20.8570   75.1782   -5.9139 C   0  0  1  0  0  0  0  0  0  0  0  0
   21.9745   72.9451   -6.2033 C   0  0  2  0  0  0  0  0  0  0  0  0
   20.6480   74.8034   -4.4405 C   0  0  1  0  0  0  0  0  0  0  0  0
   21.7167   72.6836   -4.7183 C   0  0  1  0  0  0  0  0  0  0  0  0
   22.1019   75.5778   -8.1230 H   0  0  0  0  0  0  0  0  0  0  0  0
   21.2232   76.8011   -6.9763 H   0  0  0  0  0  0  0  0  0  0  0  0
   23.3333   72.4844   -7.5554 H   0  0  0  0  0  0  0  0  0  0  0  0
   19.4126   75.3197   -2.4616 O   0  0  0  0  0  0  0  0  0  0  0  0
   19.3639   75.4054   -3.8739 C   0  0  0  0  0  0  0  0  0  0  0  0
   18.6018   75.6994   -2.0871 H   0  0  0  0  0  0  0  0  0  0  0  0
 25 28  1  0
 25 24  1  0
 25 26  1  6
 25 27  2  0
  1  4  1  0
  1 24  1  0
  1  2  1  1
  1  3  2  0
  6 11  1  0
  6 12  1  0
 29 36  1  0
 29 37  1  0
  9  7  1  6
  7 13  1  0
 10  8  1  6
  8 14  1  0
 37 28  1  1
  4  5  1  0
 33 30  1  6
 30 38  1  0
 34 31  1  1
 31 39  1  0
 35 32  1  1
 32 40  1  0
 41 42  1  0
 41 43  1  0
 15 19  2  0
 16 22  2  0
 12 17  1  6
 17 19  1  0
 17 20  1  0
 18 19  1  0
 18 22  1  0
 18 23  1  0
  9 10  1  0
  9 11  1  0
 10 12  1  0
 11  5  1  6
 33 34  1  0
 33 35  1  0
 34 36  1  0
 35 37  1  0
 36 42  1  6
 20 21  2  0
 21 22  1  0
M  CHG  2   2  -1  26  -1
M  END
>  <COMPND>  (184) 
    8629 

>  <AUTHOR>  (184) 
    GENERATED BY OPEN BABEL 3.1.1

>  <MASTER>  (184) 
        0    0    0    0    0    0    0    0   58    0   58    0

>  <minimizedAffinity>  (184) 
-7.76681

>  <CNNscore>  (184) 
0.8899382353

>  <CNNaffinity>  (184) 
4.5810117722

>  <CNN_VS>  (184) 
4.0768175125

>  <CNNaffinity_variance>  (184) 
0.6923037171

$$$$
185
     RDKit          3D

 43 45  0  0  0  0  0  0  0  0999 V2000
   23.0940   71.5231   -2.4267 P   0  0  2  0  0  0  0  0  0  0  0  0
   23.0320   73.1366   -2.5289 O   0  0  0  0  0  0  0  0  0  0  0  0
   24.3298   70.8985   -3.0047 O   0  0  0  0  0  0  0  0  0  0  0  0
   21.6929   71.0387   -3.0748 O   0  0  0  0  0  0  0  0  0  0  0  0
   21.0390   71.8986   -3.9917 C   0  0  0  0  0  0  0  0  0  0  0  0
   18.8274   72.2374   -4.8681 O   0  0  0  0  0  0  0  0  0  0  0  0
   17.8374   70.8867   -2.3809 O   0  0  0  0  0  0  0  0  0  0  0  0
   17.6810   68.8977   -4.2399 O   0  0  0  0  0  0  0  0  0  0  0  0
   19.0093   70.6170   -3.1486 C   0  0  1  0  0  0  0  0  0  0  0  0
   18.6423   69.9141   -4.4389 C   0  0  2  0  0  0  0  0  0  0  0  0
   19.5550   71.9464   -3.6547 C   0  0  1  0  0  0  0  0  0  0  0  0
   18.1142   71.0612   -5.2834 C   0  0  2  0  0  0  0  0  0  0  0  0
   17.4710   70.0525   -2.0466 H   0  0  0  0  0  0  0  0  0  0  0  0
   18.0647   68.1912   -3.6973 H   0  0  0  0  0  0  0  0  0  0  0  0
   16.2538   69.8463   -7.0272 O   0  0  0  0  0  0  0  0  0  0  0  0
   19.0642   70.3178  -10.6495 O   0  0  0  0  0  0  0  0  0  0  0  0
   18.3336   70.8541   -6.6871 N   0  0  0  0  0  0  0  0  0  0  0  0
   17.6546   70.0822   -8.8294 N   0  0  0  0  0  0  0  0  0  0  0  0
   17.3355   70.2335   -7.4740 C   0  0  0  0  0  0  0  0  0  0  0  0
   19.5276   71.2648   -7.2699 C   0  0  0  0  0  0  0  0  0  0  0  0
   19.8170   71.1120   -8.5638 C   0  0  0  0  0  0  0  0  0  0  0  0
   18.8279   70.4727   -9.4553 C   0  0  0  0  0  0  0  0  0  0  0  0
   16.9744   69.6521   -9.3970 H   0  0  0  0  0  0  0  0  0  0  0  0
   22.8778   71.2504   -0.8482 O   0  0  0  0  0  0  0  0  0  0  0  0
   21.6997   71.7130    0.1574 P   0  0  2  0  0  0  0  0  0  0  0  0
   20.6248   70.5087    0.0486 O   0  0  0  0  0  0  0  0  0  0  0  0
   21.1375   73.0734   -0.1379 O   0  0  0  0  0  0  0  0  0  0  0  0
   22.3372   71.5584    1.6321 O   0  0  0  0  0  0  0  0  0  0  0  0
   23.1263   73.3206    3.0063 O   0  0  0  0  0  0  0  0  0  0  0  0
   25.6446   70.3084    4.2851 O   0  0  0  0  0  0  0  0  0  0  0  0
   23.5299   71.2140    6.0044 O   0  0  0  0  0  0  0  0  0  0  0  0
   24.9344   70.5056    1.4858 O   0  0  0  0  0  0  0  0  0  0  0  0
   24.4162   70.8659    3.8102 C   0  0  1  0  0  0  0  0  0  0  0  0
   23.9365   71.9044    4.8261 C   0  0  1  0  0  0  0  0  0  0  0  0
   24.6564   71.5162    2.4491 C   0  0  2  0  0  0  0  0  0  0  0  0
   22.7734   72.7330    4.2641 C   0  0  1  0  0  0  0  0  0  0  0  0
   23.4576   72.3564    2.0051 C   0  0  1  0  0  0  0  0  0  0  0  0
   25.4989   69.8934    5.1489 H   0  0  0  0  0  0  0  0  0  0  0  0
   24.2732   70.6943    6.3488 H   0  0  0  0  0  0  0  0  0  0  0  0
   25.6953   69.9809    1.7782 H   0  0  0  0  0  0  0  0  0  0  0  0
   21.4244   73.3965    6.1213 O   0  0  0  0  0  0  0  0  0  0  0  0
   22.3831   73.8773    5.1971 C   0  0  0  0  0  0  0  0  0  0  0  0
   21.1669   74.1139    6.7218 H   0  0  0  0  0  0  0  0  0  0  0  0
 25 28  1  0
 25 24  1  0
 25 26  1  1
 25 27  2  0
  1  4  1  0
  1 24  1  0
  1  2  1  1
  1  3  2  0
  6 11  1  0
  6 12  1  0
 29 36  1  0
 29 37  1  0
  9  7  1  1
  7 13  1  0
 10  8  1  1
  8 14  1  0
 37 28  1  1
  4  5  1  0
 33 30  1  1
 30 38  1  0
 34 31  1  1
 31 39  1  0
 35 32  1  6
 32 40  1  0
 41 42  1  0
 41 43  1  0
 15 19  2  0
 16 22  2  0
 12 17  1  6
 17 19  1  0
 17 20  1  0
 18 19  1  0
 18 22  1  0
 18 23  1  0
  9 10  1  0
  9 11  1  0
 10 12  1  0
 11  5  1  6
 33 34  1  0
 33 35  1  0
 34 36  1  0
 35 37  1  0
 36 42  1  1
 20 21  2  0
 21 22  1  0
M  CHG  2   2  -1  26  -1
M  END
>  <COMPND>  (185) 
    8629 

>  <AUTHOR>  (185) 
    GENERATED BY OPEN BABEL 3.1.1

>  <MASTER>  (185) 
        0    0    0    0    0    0    0    0   58    0   58    0

>  <minimizedAffinity>  (185) 
-8.24752

>  <CNNscore>  (185) 
0.8757061362

>  <CNNaffinity>  (185) 
4.6067667007

>  <CNN_VS>  (185) 
4.0341739655

>  <CNNaffinity_variance>  (185) 
0.0989376456

$$$$
186
     RDKit          3D

 43 45  0  0  0  0  0  0  0  0999 V2000
   22.3351   73.1146   -4.2543 P   0  0  2  0  0  0  0  0  0  0  0  0
   21.3471   74.2032   -4.9298 O   0  0  0  0  0  0  0  0  0  0  0  0
   23.1668   72.3265   -5.2231 O   0  0  0  0  0  0  0  0  0  0  0  0
   21.3609   72.2473   -3.2969 O   0  0  0  0  0  0  0  0  0  0  0  0
   20.6049   71.1973   -3.8746 C   0  0  0  0  0  0  0  0  0  0  0  0
   18.6259   71.9930   -4.9811 O   0  0  0  0  0  0  0  0  0  0  0  0
   17.0896   70.7270   -2.7388 O   0  0  0  0  0  0  0  0  0  0  0  0
   16.8216   68.9022   -4.7475 O   0  0  0  0  0  0  0  0  0  0  0  0
   18.2839   70.2806   -3.3790 C   0  0  1  0  0  0  0  0  0  0  0  0
   17.9686   69.7274   -4.7531 C   0  0  2  0  0  0  0  0  0  0  0  0
   19.1229   71.5073   -3.7148 C   0  0  1  0  0  0  0  0  0  0  0  0
   17.7725   70.9958   -5.5660 C   0  0  2  0  0  0  0  0  0  0  0  0
   16.5376   69.9609   -2.5144 H   0  0  0  0  0  0  0  0  0  0  0  0
   16.9964   68.1089   -4.2177 H   0  0  0  0  0  0  0  0  0  0  0  0
   16.0207   70.0451   -7.5674 O   0  0  0  0  0  0  0  0  0  0  0  0
   19.2666   70.3752  -10.8226 O   0  0  0  0  0  0  0  0  0  0  0  0
   18.1334   70.8238   -6.9450 N   0  0  0  0  0  0  0  0  0  0  0  0
   17.6383   70.2104   -9.1866 N   0  0  0  0  0  0  0  0  0  0  0  0
   17.1792   70.3389   -7.8696 C   0  0  0  0  0  0  0  0  0  0  0  0
   19.4209   71.1350   -7.3683 C   0  0  0  0  0  0  0  0  0  0  0  0
   19.8434   71.0056   -8.6277 C   0  0  0  0  0  0  0  0  0  0  0  0
   18.9085   70.5053   -9.6561 C   0  0  0  0  0  0  0  0  0  0  0  0
   16.9910   69.8740   -9.8482 H   0  0  0  0  0  0  0  0  0  0  0  0
   23.1853   73.9992   -3.2019 O   0  0  0  0  0  0  0  0  0  0  0  0
   22.7083   74.9436   -1.9798 P   0  0  2  0  0  0  0  0  0  0  0  0
   21.3498   75.6194   -2.5415 O   0  0  0  0  0  0  0  0  0  0  0  0
   23.7455   75.9274   -1.5213 O   0  0  0  0  0  0  0  0  0  0  0  0
   22.2108   73.9157   -0.8393 O   0  0  0  0  0  0  0  0  0  0  0  0
   23.1844   73.9228    1.3215 O   0  0  0  0  0  0  0  0  0  0  0  0
   21.7151   70.0641    1.2725 O   0  0  0  0  0  0  0  0  0  0  0  0
   20.4321   72.0493    2.9038 O   0  0  0  0  0  0  0  0  0  0  0  0
   22.8647   71.2020   -1.1281 O   0  0  0  0  0  0  0  0  0  0  0  0
   21.7147   71.4624    0.9721 C   0  0  1  0  0  0  0  0  0  0  0  0
   21.7052   72.2364    2.2918 C   0  0  1  0  0  0  0  0  0  0  0  0
   22.9642   71.7989    0.1604 C   0  0  2  0  0  0  0  0  0  0  0  0
   21.9724   73.7297    2.0601 C   0  0  1  0  0  0  0  0  0  0  0  0
   23.1635   73.3100    0.0308 C   0  0  1  0  0  0  0  0  0  0  0  0
   20.9240   69.8437    1.7874 H   0  0  0  0  0  0  0  0  0  0  0  0
   20.2755   71.1022    3.0441 H   0  0  0  0  0  0  0  0  0  0  0  0
   22.7391   70.2455   -1.0325 H   0  0  0  0  0  0  0  0  0  0  0  0
   20.8406   74.6573    3.9489 O   0  0  0  0  0  0  0  0  0  0  0  0
   22.1238   74.4941    3.3734 C   0  0  0  0  0  0  0  0  0  0  0  0
   20.9215   75.1420    4.7857 H   0  0  0  0  0  0  0  0  0  0  0  0
 25 28  1  0
 25 24  1  0
 25 26  1  6
 25 27  2  0
  1  4  1  0
  1 24  1  0
  1  2  1  6
  1  3  2  0
  6 11  1  0
  6 12  1  0
 29 36  1  0
 29 37  1  0
  9  7  1  6
  7 13  1  0
 10  8  1  1
  8 14  1  0
 37 28  1  6
  4  5  1  0
 33 30  1  1
 30 38  1  0
 34 31  1  6
 31 39  1  0
 35 32  1  6
 32 40  1  0
 41 42  1  0
 41 43  1  0
 15 19  2  0
 16 22  2  0
 12 17  1  6
 17 19  1  0
 17 20  1  0
 18 19  1  0
 18 22  1  0
 18 23  1  0
  9 10  1  0
  9 11  1  0
 10 12  1  0
 11  5  1  6
 33 34  1  0
 33 35  1  0
 34 36  1  0
 35 37  1  0
 36 42  1  1
 20 21  2  0
 21 22  1  0
M  CHG  2   2  -1  26  -1
M  END
>  <COMPND>  (186) 
    8629 

>  <AUTHOR>  (186) 
    GENERATED BY OPEN BABEL 3.1.1

>  <MASTER>  (186) 
        0    0    0    0    0    0    0    0   58    0   58    0

>  <minimizedAffinity>  (186) 
-7.21418

>  <CNNscore>  (186) 
0.8423382640

>  <CNNaffinity>  (186) 
4.6144595146

>  <CNN_VS>  (186) 
3.8869357109

>  <CNNaffinity_variance>  (186) 
0.0338845924

$$$$
187
     RDKit          3D

 43 45  0  0  0  0  0  0  0  0999 V2000
   21.3426   74.0448   -2.9104 P   0  0  2  0  0  0  0  0  0  0  0  0
   20.5554   73.8997   -1.5045 O   0  0  0  0  0  0  0  0  0  0  0  0
   21.6173   75.4559   -3.3402 O   0  0  0  0  0  0  0  0  0  0  0  0
   20.4671   73.1547   -3.9395 O   0  0  0  0  0  0  0  0  0  0  0  0
   19.3048   73.7295   -4.5110 C   0  0  0  0  0  0  0  0  0  0  0  0
   17.4339   72.4892   -5.3682 O   0  0  0  0  0  0  0  0  0  0  0  0
   17.3389   71.1431   -2.6905 O   0  0  0  0  0  0  0  0  0  0  0  0
   18.5885   69.2843   -4.2462 O   0  0  0  0  0  0  0  0  0  0  0  0
   18.4710   71.5761   -3.4430 C   0  0  1  0  0  0  0  0  0  0  0  0
   18.7137   70.6437   -4.6114 C   0  0  2  0  0  0  0  0  0  0  0  0
   18.0983   72.8758   -4.1453 C   0  0  1  0  0  0  0  0  0  0  0  0
   17.6436   71.0858   -5.5949 C   0  0  2  0  0  0  0  0  0  0  0  0
   17.5529   70.3145   -2.2326 H   0  0  0  0  0  0  0  0  0  0  0  0
   19.2915   69.0516   -3.6197 H   0  0  0  0  0  0  0  0  0  0  0  0
   15.9274   70.1533   -7.6353 O   0  0  0  0  0  0  0  0  0  0  0  0
   19.2730   70.3646  -10.7983 O   0  0  0  0  0  0  0  0  0  0  0  0
   18.0398   70.8882   -6.9607 N   0  0  0  0  0  0  0  0  0  0  0  0
   17.5946   70.2594   -9.2086 N   0  0  0  0  0  0  0  0  0  0  0  0
   17.1010   70.4152   -7.9070 C   0  0  0  0  0  0  0  0  0  0  0  0
   19.3463   71.1629   -7.3500 C   0  0  0  0  0  0  0  0  0  0  0  0
   19.8015   71.0078   -8.5950 C   0  0  0  0  0  0  0  0  0  0  0  0
   18.8846   70.5177   -9.6443 C   0  0  0  0  0  0  0  0  0  0  0  0
   16.9586   69.9307   -9.8848 H   0  0  0  0  0  0  0  0  0  0  0  0
   22.6637   73.1419   -2.6821 O   0  0  0  0  0  0  0  0  0  0  0  0
   22.8329   71.6203   -2.1633 P   0  0  2  0  0  0  0  0  0  0  0  0
   24.2434   71.1624   -2.8102 O   0  0  0  0  0  0  0  0  0  0  0  0
   21.6771   70.7233   -2.4999 O   0  0  0  0  0  0  0  0  0  0  0  0
   23.1346   71.7584   -0.5838 O   0  0  0  0  0  0  0  0  0  0  0  0
   23.7326   70.3905    1.2568 O   0  0  0  0  0  0  0  0  0  0  0  0
   20.4195   72.2546    2.8691 O   0  0  0  0  0  0  0  0  0  0  0  0
   23.0415   72.9729    3.7950 O   0  0  0  0  0  0  0  0  0  0  0  0
   20.4233   71.4735    0.0817 O   0  0  0  0  0  0  0  0  0  0  0  0
   21.6003   72.1601    2.0677 C   0  0  1  0  0  0  0  0  0  0  0  0
   22.7782   71.8295    2.9865 C   0  0  1  0  0  0  0  0  0  0  0  0
   21.4084   71.0620    1.0234 C   0  0  2  0  0  0  0  0  0  0  0  0
   24.0244   71.4505    2.1750 C   0  0  1  0  0  0  0  0  0  0  0  0
   22.7186   70.7275    0.3081 C   0  0  1  0  0  0  0  0  0  0  0  0
   20.5347   72.9504    3.5339 H   0  0  0  0  0  0  0  0  0  0  0  0
   22.2466   73.2020    4.3018 H   0  0  0  0  0  0  0  0  0  0  0  0
   19.5987   71.6821    0.5468 H   0  0  0  0  0  0  0  0  0  0  0  0
   25.8578   72.0949    3.5651 O   0  0  0  0  0  0  0  0  0  0  0  0
   25.1633   70.9652    3.0692 C   0  0  0  0  0  0  0  0  0  0  0  0
   26.5854   71.8013    4.1361 H   0  0  0  0  0  0  0  0  0  0  0  0
 25 28  1  0
 25 24  1  0
 25 26  1  6
 25 27  2  0
  1  4  1  0
  1 24  1  0
  1  2  1  1
  1  3  2  0
  6 11  1  0
  6 12  1  0
 29 36  1  0
 29 37  1  0
  9  7  1  1
  7 13  1  0
 10  8  1  1
  8 14  1  0
 37 28  1  1
  4  5  1  0
 33 30  1  1
 30 38  1  0
 34 31  1  6
 31 39  1  0
 35 32  1  6
 32 40  1  0
 41 42  1  0
 41 43  1  0
 15 19  2  0
 16 22  2  0
 12 17  1  6
 17 19  1  0
 17 20  1  0
 18 19  1  0
 18 22  1  0
 18 23  1  0
  9 10  1  0
  9 11  1  0
 10 12  1  0
 11  5  1  6
 33 34  1  0
 33 35  1  0
 34 36  1  0
 35 37  1  0
 36 42  1  1
 20 21  2  0
 21 22  1  0
M  CHG  2   2  -1  26  -1
M  END
>  <COMPND>  (187) 
    8629 

>  <AUTHOR>  (187) 
    GENERATED BY OPEN BABEL 3.1.1

>  <MASTER>  (187) 
        0    0    0    0    0    0    0    0   58    0   58    0

>  <minimizedAffinity>  (187) 
-7.27109

>  <CNNscore>  (187) 
0.8416160941

>  <CNNaffinity>  (187) 
4.5987677574

>  <CNN_VS>  (187) 
3.8703968525

>  <CNNaffinity_variance>  (187) 
0.0181802548

$$$$
188
     RDKit          3D

 43 45  0  0  0  0  0  0  0  0999 V2000
   21.5384   73.6771   -5.1251 P   0  0  2  0  0  0  0  0  0  0  0  0
   21.1338   75.0669   -5.8476 O   0  0  0  0  0  0  0  0  0  0  0  0
   22.0002   72.5917   -6.0525 O   0  0  0  0  0  0  0  0  0  0  0  0
   20.2482   73.3223   -4.2155 O   0  0  0  0  0  0  0  0  0  0  0  0
   18.9887   73.8501   -4.5934 C   0  0  0  0  0  0  0  0  0  0  0  0
   17.2689   72.3773   -5.3976 O   0  0  0  0  0  0  0  0  0  0  0  0
   17.3714   71.0853   -2.6936 O   0  0  0  0  0  0  0  0  0  0  0  0
   18.8143   69.3576   -4.2330 O   0  0  0  0  0  0  0  0  0  0  0  0
   18.4334   71.6350   -3.4717 C   0  0  1  0  0  0  0  0  0  0  0  0
   18.7707   70.7142   -4.6259 C   0  0  2  0  0  0  0  0  0  0  0  0
   17.8983   72.8659   -4.1928 C   0  0  1  0  0  0  0  0  0  0  0  0
   17.6424   71.0047   -5.6008 C   0  0  2  0  0  0  0  0  0  0  0  0
   17.6893   70.2980   -2.2235 H   0  0  0  0  0  0  0  0  0  0  0  0
   19.5483   69.2237   -3.6133 H   0  0  0  0  0  0  0  0  0  0  0  0
   15.9381   70.0751   -7.6525 O   0  0  0  0  0  0  0  0  0  0  0  0
   19.2817   70.3631  -10.8114 O   0  0  0  0  0  0  0  0  0  0  0  0
   18.0413   70.8276   -6.9686 N   0  0  0  0  0  0  0  0  0  0  0  0
   17.6043   70.2195   -9.2238 N   0  0  0  0  0  0  0  0  0  0  0  0
   17.1085   70.3543   -7.9207 C   0  0  0  0  0  0  0  0  0  0  0  0
   19.3444   71.1225   -7.3542 C   0  0  0  0  0  0  0  0  0  0  0  0
   19.8019   70.9873   -8.6006 C   0  0  0  0  0  0  0  0  0  0  0  0
   18.8912   70.4983   -9.6560 C   0  0  0  0  0  0  0  0  0  0  0  0
   16.9725   69.8909   -9.9039 H   0  0  0  0  0  0  0  0  0  0  0  0
   22.6362   74.1412   -4.0332 O   0  0  0  0  0  0  0  0  0  0  0  0
   23.9432   73.3861   -3.4548 P   0  0  2  0  0  0  0  0  0  0  0  0
   25.1673   74.1498   -4.1867 O   0  0  0  0  0  0  0  0  0  0  0  0
   23.9333   71.8982   -3.6550 O   0  0  0  0  0  0  0  0  0  0  0  0
   24.0355   73.8528   -1.9125 O   0  0  0  0  0  0  0  0  0  0  0  0
   22.0281   73.1257   -0.8837 O   0  0  0  0  0  0  0  0  0  0  0  0
   23.7834   75.0031    2.3482 O   0  0  0  0  0  0  0  0  0  0  0  0
   23.6451   72.1353    2.2775 O   0  0  0  0  0  0  0  0  0  0  0  0
   24.0347   76.1484   -0.2984 O   0  0  0  0  0  0  0  0  0  0  0  0
   23.7608   74.2367    1.1409 C   0  0  1  0  0  0  0  0  0  0  0  0
   22.9229   72.9803    1.3860 C   0  0  1  0  0  0  0  0  0  0  0  0
   23.1494   75.0815    0.0247 C   0  0  2  0  0  0  0  0  0  0  0  0
   22.6302   72.2444    0.0715 C   0  0  1  0  0  0  0  0  0  0  0  0
   22.8526   74.2433   -1.2200 C   0  0  1  0  0  0  0  0  0  0  0  0
   24.1709   74.4725    3.0609 H   0  0  0  0  0  0  0  0  0  0  0  0
   23.8238   72.6121    3.1033 H   0  0  0  0  0  0  0  0  0  0  0  0
   24.2144   76.6716    0.4977 H   0  0  0  0  0  0  0  0  0  0  0  0
   21.0407   71.2226    1.5337 O   0  0  0  0  0  0  0  0  0  0  0  0
   21.6658   71.0775    0.2718 C   0  0  0  0  0  0  0  0  0  0  0  0
   20.4237   70.4869    1.6748 H   0  0  0  0  0  0  0  0  0  0  0  0
 25 28  1  0
 25 24  1  0
 25 26  1  6
 25 27  2  0
  1  4  1  0
  1 24  1  0
  1  2  1  6
  1  3  2  0
  6 11  1  0
  6 12  1  0
 29 36  1  0
 29 37  1  0
  9  7  1  1
  7 13  1  0
 10  8  1  1
  8 14  1  0
 37 28  1  1
  4  5  1  0
 33 30  1  1
 30 38  1  0
 34 31  1  1
 31 39  1  0
 35 32  1  6
 32 40  1  0
 41 42  1  0
 41 43  1  0
 15 19  2  0
 16 22  2  0
 12 17  1  6
 17 19  1  0
 17 20  1  0
 18 19  1  0
 18 22  1  0
 18 23  1  0
  9 10  1  0
  9 11  1  0
 10 12  1  0
 11  5  1  6
 33 34  1  0
 33 35  1  0
 34 36  1  0
 35 37  1  0
 36 42  1  1
 20 21  2  0
 21 22  1  0
M  CHG  2   2  -1  26  -1
M  END
>  <COMPND>  (188) 
    8629 

>  <AUTHOR>  (188) 
    GENERATED BY OPEN BABEL 3.1.1

>  <MASTER>  (188) 
        0    0    0    0    0    0    0    0   58    0   58    0

>  <minimizedAffinity>  (188) 
-6.54424

>  <CNNscore>  (188) 
0.8325653672

>  <CNNaffinity>  (188) 
4.4284682274

>  <CNN_VS>  (188) 
3.6869893074

>  <CNNaffinity_variance>  (188) 
0.0397320315

$$$$
189
     RDKit          3D

 43 45  0  0  0  0  0  0  0  0999 V2000
   21.3575   71.6668   -1.4509 P   0  0  2  0  0  0  0  0  0  0  0  0
   22.6467   71.1354   -2.2713 O   0  0  0  0  0  0  0  0  0  0  0  0
   20.8438   70.7272   -0.3998 O   0  0  0  0  0  0  0  0  0  0  0  0
   20.3012   72.0725   -2.6075 O   0  0  0  0  0  0  0  0  0  0  0  0
   19.6745   71.0370   -3.3442 C   0  0  0  0  0  0  0  0  0  0  0  0
   17.8548   71.8739   -4.6717 O   0  0  0  0  0  0  0  0  0  0  0  0
   16.0487   70.3886   -2.7948 O   0  0  0  0  0  0  0  0  0  0  0  0
   16.1499   68.7317   -4.9584 O   0  0  0  0  0  0  0  0  0  0  0  0
   17.3406   70.0262   -3.2798 C   0  0  1  0  0  0  0  0  0  0  0  0
   17.2541   69.5820   -4.7251 C   0  0  2  0  0  0  0  0  0  0  0  0
   18.1749   71.2966   -3.3869 C   0  0  1  0  0  0  0  0  0  0  0  0
   17.1351   70.9086   -5.4559 C   0  0  2  0  0  0  0  0  0  0  0  0
   15.4977   69.5933   -2.7178 H   0  0  0  0  0  0  0  0  0  0  0  0
   16.2727   67.9013   -4.4723 H   0  0  0  0  0  0  0  0  0  0  0  0
   15.7285   70.1146   -7.7730 O   0  0  0  0  0  0  0  0  0  0  0  0
   19.4183   70.7632  -10.4574 O   0  0  0  0  0  0  0  0  0  0  0  0
   17.7036   70.8610   -6.7734 N   0  0  0  0  0  0  0  0  0  0  0  0
   17.5668   70.4384   -9.1078 N   0  0  0  0  0  0  0  0  0  0  0  0
   16.9117   70.4470   -7.8697 C   0  0  0  0  0  0  0  0  0  0  0  0
   19.0322   71.2226   -6.9684 C   0  0  0  0  0  0  0  0  0  0  0  0
   19.6424   71.2077   -8.1553 C   0  0  0  0  0  0  0  0  0  0  0  0
   18.8855   70.7876   -9.3522 C   0  0  0  0  0  0  0  0  0  0  0  0
   17.0350   70.1531   -9.8859 H   0  0  0  0  0  0  0  0  0  0  0  0
   21.8497   73.1004   -0.8892 O   0  0  0  0  0  0  0  0  0  0  0  0
   21.7462   73.7552    0.5850 P   0  0  2  0  0  0  0  0  0  0  0  0
   20.2389   73.3921    1.0474 O   0  0  0  0  0  0  0  0  0  0  0  0
   22.0724   75.2199    0.6320 O   0  0  0  0  0  0  0  0  0  0  0  0
   22.6906   72.8296    1.5104 O   0  0  0  0  0  0  0  0  0  0  0  0
   24.9905   73.3822    1.3630 O   0  0  0  0  0  0  0  0  0  0  0  0
   25.3046   69.7746    3.3473 O   0  0  0  0  0  0  0  0  0  0  0  0
   25.8033   72.2213    4.7661 O   0  0  0  0  0  0  0  0  0  0  0  0
   23.3256   70.1076    1.2610 O   0  0  0  0  0  0  0  0  0  0  0  0
   24.7038   71.0276    3.0091 C   0  0  1  0  0  0  0  0  0  0  0  0
   25.6959   72.1420    3.3474 C   0  0  1  0  0  0  0  0  0  0  0  0
   24.3734   71.0364    1.5177 C   0  0  2  0  0  0  0  0  0  0  0  0
   25.2357   73.4875    2.7703 C   0  0  1  0  0  0  0  0  0  0  0  0
   23.9744   72.4323    1.0358 C   0  0  1  0  0  0  0  0  0  0  0  0
   25.5163   69.7623    4.2931 H   0  0  0  0  0  0  0  0  0  0  0  0
   26.0941   71.3653    5.1179 H   0  0  0  0  0  0  0  0  0  0  0  0
   23.5906   69.2278    1.5703 H   0  0  0  0  0  0  0  0  0  0  0  0
   26.3058   74.9522    4.3255 O   0  0  0  0  0  0  0  0  0  0  0  0
   26.2856   74.5802    2.9597 C   0  0  0  0  0  0  0  0  0  0  0  0
   26.9697   75.6468    4.4611 H   0  0  0  0  0  0  0  0  0  0  0  0
 25 28  1  0
 25 24  1  0
 25 26  1  1
 25 27  2  0
  1  4  1  0
  1 24  1  0
  1  2  1  6
  1  3  2  0
  6 11  1  0
  6 12  1  0
 29 36  1  0
 29 37  1  0
  9  7  1  6
  7 13  1  0
 10  8  1  1
  8 14  1  0
 37 28  1  1
  4  5  1  0
 33 30  1  6
 30 38  1  0
 34 31  1  1
 31 39  1  0
 35 32  1  1
 32 40  1  0
 41 42  1  0
 41 43  1  0
 15 19  2  0
 16 22  2  0
 12 17  1  6
 17 19  1  0
 17 20  1  0
 18 19  1  0
 18 22  1  0
 18 23  1  0
  9 10  1  0
  9 11  1  0
 10 12  1  0
 11  5  1  6
 33 34  1  0
 33 35  1  0
 34 36  1  0
 35 37  1  0
 36 42  1  6
 20 21  2  0
 21 22  1  0
M  CHG  2   2  -1  26  -1
M  END
>  <COMPND>  (189) 
    8629 

>  <AUTHOR>  (189) 
    GENERATED BY OPEN BABEL 3.1.1

>  <MASTER>  (189) 
        0    0    0    0    0    0    0    0   58    0   58    0

>  <minimizedAffinity>  (189) 
-7.31667

>  <CNNscore>  (189) 
0.8146988750

>  <CNNaffinity>  (189) 
4.6014151573

>  <CNN_VS>  (189) 
3.7487678528

>  <CNNaffinity_variance>  (189) 
0.0694040507

$$$$
190
     RDKit          3D

 43 45  0  0  0  0  0  0  0  0999 V2000
   22.0367   73.3262   -4.8873 P   0  0  2  0  0  0  0  0  0  0  0  0
   20.8684   73.9563   -5.8122 O   0  0  0  0  0  0  0  0  0  0  0  0
   23.0158   72.4503   -5.6121 O   0  0  0  0  0  0  0  0  0  0  0  0
   21.2330   72.6248   -3.6707 O   0  0  0  0  0  0  0  0  0  0  0  0
   20.5471   71.4111   -3.9244 C   0  0  0  0  0  0  0  0  0  0  0  0
   18.5244   72.0724   -5.0403 O   0  0  0  0  0  0  0  0  0  0  0  0
   17.0661   70.7794   -2.7616 O   0  0  0  0  0  0  0  0  0  0  0  0
   16.8902   68.8954   -4.7253 O   0  0  0  0  0  0  0  0  0  0  0  0
   18.2806   70.3829   -3.3965 C   0  0  1  0  0  0  0  0  0  0  0  0
   17.9911   69.7808   -4.7557 C   0  0  2  0  0  0  0  0  0  0  0  0
   19.0510   71.6446   -3.7651 C   0  0  1  0  0  0  0  0  0  0  0  0
   17.7240   71.0170   -5.5975 C   0  0  2  0  0  0  0  0  0  0  0  0
   16.5569   69.9903   -2.5166 H   0  0  0  0  0  0  0  0  0  0  0  0
   17.1094   68.1255   -4.1776 H   0  0  0  0  0  0  0  0  0  0  0  0
   15.9945   69.9967   -7.5839 O   0  0  0  0  0  0  0  0  0  0  0  0
   19.2334   70.3486  -10.8439 O   0  0  0  0  0  0  0  0  0  0  0  0
   18.0891   70.8318   -6.9736 N   0  0  0  0  0  0  0  0  0  0  0  0
   17.6086   70.1729   -9.2055 N   0  0  0  0  0  0  0  0  0  0  0  0
   17.1463   70.3116   -7.8906 C   0  0  0  0  0  0  0  0  0  0  0  0
   19.3696   71.1650   -7.4018 C   0  0  0  0  0  0  0  0  0  0  0  0
   19.7952   71.0256   -8.6590 C   0  0  0  0  0  0  0  0  0  0  0  0
   18.8720   70.4888   -9.6796 C   0  0  0  0  0  0  0  0  0  0  0  0
   16.9692   69.8120   -9.8618 H   0  0  0  0  0  0  0  0  0  0  0  0
   22.6891   74.6294   -4.1880 O   0  0  0  0  0  0  0  0  0  0  0  0
   23.9515   75.5439   -4.6162 P   0  0  2  0  0  0  0  0  0  0  0  0
   25.2121   74.5472   -4.4289 O   0  0  0  0  0  0  0  0  0  0  0  0
   24.0633   76.8334   -3.8556 O   0  0  0  0  0  0  0  0  0  0  0  0
   23.8050   75.7201   -6.2138 O   0  0  0  0  0  0  0  0  0  0  0  0
   25.3340   75.6234   -8.0220 O   0  0  0  0  0  0  0  0  0  0  0  0
   23.1360   78.9175   -9.1919 O   0  0  0  0  0  0  0  0  0  0  0  0
   22.8190   76.4309  -10.5933 O   0  0  0  0  0  0  0  0  0  0  0  0
   23.7642   78.5203   -6.3942 O   0  0  0  0  0  0  0  0  0  0  0  0
   23.3434   77.6349   -8.5943 C   0  0  1  0  0  0  0  0  0  0  0  0
   23.8739   76.6848   -9.6698 C   0  0  1  0  0  0  0  0  0  0  0  0
   24.3506   77.7724   -7.4541 C   0  0  2  0  0  0  0  0  0  0  0  0
   24.3711   75.3710   -9.0520 C   0  0  1  0  0  0  0  0  0  0  0  0
   24.8172   76.4074   -6.9449 C   0  0  1  0  0  0  0  0  0  0  0  0
   22.4971   78.8373   -9.9164 H   0  0  0  0  0  0  0  0  0  0  0  0
   22.5138   77.2686  -10.9758 H   0  0  0  0  0  0  0  0  0  0  0  0
   23.4733   79.3822   -6.7293 H   0  0  0  0  0  0  0  0  0  0  0  0
   24.4156   73.2069  -10.0639 O   0  0  0  0  0  0  0  0  0  0  0  0
   25.0482   74.4733  -10.0853 C   0  0  0  0  0  0  0  0  0  0  0  0
   24.8360   72.6251  -10.7169 H   0  0  0  0  0  0  0  0  0  0  0  0
 25 28  1  0
 25 24  1  0
 25 26  1  6
 25 27  2  0
  1  4  1  0
  1 24  1  0
  1  2  1  6
  1  3  2  0
  6 11  1  0
  6 12  1  0
 29 36  1  0
 29 37  1  0
  9  7  1  6
  7 13  1  0
 10  8  1  1
  8 14  1  0
 37 28  1  6
  4  5  1  0
 33 30  1  6
 30 38  1  0
 34 31  1  6
 31 39  1  0
 35 32  1  1
 32 40  1  0
 41 42  1  0
 41 43  1  0
 15 19  2  0
 16 22  2  0
 12 17  1  6
 17 19  1  0
 17 20  1  0
 18 19  1  0
 18 22  1  0
 18 23  1  0
  9 10  1  0
  9 11  1  0
 10 12  1  0
 11  5  1  6
 33 34  1  0
 33 35  1  0
 34 36  1  0
 35 37  1  0
 36 42  1  6
 20 21  2  0
 21 22  1  0
M  CHG  2   2  -1  26  -1
M  END
>  <COMPND>  (190) 
    8629 

>  <AUTHOR>  (190) 
    GENERATED BY OPEN BABEL 3.1.1

>  <MASTER>  (190) 
        0    0    0    0    0    0    0    0   58    0   58    0

>  <minimizedAffinity>  (190) 
-6.98346

>  <CNNscore>  (190) 
0.7902136445

>  <CNNaffinity>  (190) 
4.4953317642

>  <CNN_VS>  (190) 
3.5522725582

>  <CNNaffinity_variance>  (190) 
0.1319169104

$$$$
191
     RDKit          3D

 43 45  0  0  0  0  0  0  0  0999 V2000
   21.6633   72.6697   -5.4830 P   0  0  2  0  0  0  0  0  0  0  0  0
   20.9613   74.0504   -5.9503 O   0  0  0  0  0  0  0  0  0  0  0  0
   23.1552   72.6330   -5.6384 O   0  0  0  0  0  0  0  0  0  0  0  0
   20.8450   71.5272   -6.2848 O   0  0  0  0  0  0  0  0  0  0  0  0
   20.5426   71.7457   -7.6518 C   0  0  0  0  0  0  0  0  0  0  0  0
   19.0858   69.9487   -7.0018 O   0  0  0  0  0  0  0  0  0  0  0  0
   18.0560   70.0145   -9.8170 O   0  0  0  0  0  0  0  0  0  0  0  0
   16.1195   71.3568   -8.4442 O   0  0  0  0  0  0  0  0  0  0  0  0
   18.4754   71.0943   -8.9844 C   0  0  1  0  0  0  0  0  0  0  0  0
   17.4326   71.3754   -7.9227 C   0  0  2  0  0  0  0  0  0  0  0  0
   19.6563   70.6127   -8.1507 C   0  0  1  0  0  0  0  0  0  0  0  0
   17.6833   70.2531   -6.9298 C   0  0  2  0  0  0  0  0  0  0  0  0
   17.3027   70.2983  -10.3593 H   0  0  0  0  0  0  0  0  0  0  0  0
   16.0097   72.0894   -9.0703 H   0  0  0  0  0  0  0  0  0  0  0  0
   16.4211   68.5542   -5.0594 O   0  0  0  0  0  0  0  0  0  0  0  0
   16.4763   71.8057   -1.7935 O   0  0  0  0  0  0  0  0  0  0  0  0
   17.3563   70.6297   -5.5835 N   0  0  0  0  0  0  0  0  0  0  0  0
   16.4498   70.1745   -3.4347 N   0  0  0  0  0  0  0  0  0  0  0  0
   16.7220   69.7019   -4.7249 C   0  0  0  0  0  0  0  0  0  0  0  0
   17.6647   71.9065   -5.1268 C   0  0  0  0  0  0  0  0  0  0  0  0
   17.3972   72.3421   -3.8939 C   0  0  0  0  0  0  0  0  0  0  0  0
   16.7356   71.4349   -2.9342 C   0  0  0  0  0  0  0  0  0  0  0  0
   16.0078   69.5456   -2.8191 H   0  0  0  0  0  0  0  0  0  0  0  0
   21.1406   72.4923   -3.9636 O   0  0  0  0  0  0  0  0  0  0  0  0
   21.1284   71.2028   -2.9890 P   0  0  2  0  0  0  0  0  0  0  0  0
   22.6917   70.7979   -2.8899 O   0  0  0  0  0  0  0  0  0  0  0  0
   20.2290   70.0923   -3.4490 O   0  0  0  0  0  0  0  0  0  0  0  0
   20.7677   71.7956   -1.5318 O   0  0  0  0  0  0  0  0  0  0  0  0
   22.0874   73.5602   -0.6594 O   0  0  0  0  0  0  0  0  0  0  0  0
   20.4113   72.1894    2.8566 O   0  0  0  0  0  0  0  0  0  0  0  0
   19.5351   74.6899    1.7487 O   0  0  0  0  0  0  0  0  0  0  0  0
   21.2071   70.3072    0.8063 O   0  0  0  0  0  0  0  0  0  0  0  0
   20.4410   72.4952    1.4599 C   0  0  1  0  0  0  0  0  0  0  0  0
   20.6967   73.9955    1.3028 C   0  0  1  0  0  0  0  0  0  0  0  0
   21.5546   71.6876    0.7956 C   0  0  2  0  0  0  0  0  0  0  0  0
   21.0068   74.3548   -0.1566 C   0  0  1  0  0  0  0  0  0  0  0  0
   21.8159   72.1575   -0.6365 C   0  0  1  0  0  0  0  0  0  0  0  0
   19.7060   72.6986    3.2842 H   0  0  0  0  0  0  0  0  0  0  0  0
   19.3501   74.4539    2.6713 H   0  0  0  0  0  0  0  0  0  0  0  0
   21.0445   70.0219    1.7185 H   0  0  0  0  0  0  0  0  0  0  0  0
   21.8602   76.2943    0.9474 O   0  0  0  0  0  0  0  0  0  0  0  0
   21.4191   75.8171   -0.3104 C   0  0  0  0  0  0  0  0  0  0  0  0
   22.1262   77.2239    0.8647 H   0  0  0  0  0  0  0  0  0  0  0  0
 25 28  1  0
 25 24  1  0
 25 26  1  1
 25 27  2  0
  1  4  1  0
  1 24  1  0
  1  2  1  6
  1  3  2  0
  6 11  1  0
  6 12  1  0
 29 36  1  0
 29 37  1  0
  9  7  1  6
  7 13  1  0
 10  8  1  6
  8 14  1  0
 37 28  1  6
  4  5  1  0
 33 30  1  1
 30 38  1  0
 34 31  1  6
 31 39  1  0
 35 32  1  6
 32 40  1  0
 41 42  1  0
 41 43  1  0
 15 19  2  0
 16 22  2  0
 12 17  1  1
 17 19  1  0
 17 20  1  0
 18 19  1  0
 18 22  1  0
 18 23  1  0
  9 10  1  0
  9 11  1  0
 10 12  1  0
 11  5  1  1
 33 34  1  0
 33 35  1  0
 34 36  1  0
 35 37  1  0
 36 42  1  1
 20 21  2  0
 21 22  1  0
M  CHG  2   2  -1  26  -1
M  END
>  <COMPND>  (191) 
    8629 

>  <AUTHOR>  (191) 
    GENERATED BY OPEN BABEL 3.1.1

>  <MASTER>  (191) 
        0    0    0    0    0    0    0    0   58    0   58    0

>  <minimizedAffinity>  (191) 
-6.99299

>  <CNNscore>  (191) 
0.7306289673

>  <CNNaffinity>  (191) 
4.5203752518

>  <CNN_VS>  (191) 
3.3027172089

>  <CNNaffinity_variance>  (191) 
0.1661490798

$$$$
192
     RDKit          3D

 43 45  0  0  0  0  0  0  0  0999 V2000
   21.8371   73.6478   -5.4154 P   0  0  2  0  0  0  0  0  0  0  0  0
   20.5818   74.0096   -6.3697 O   0  0  0  0  0  0  0  0  0  0  0  0
   22.8198   72.6771   -6.0016 O   0  0  0  0  0  0  0  0  0  0  0  0
   21.1487   73.1959   -4.0227 O   0  0  0  0  0  0  0  0  0  0  0  0
   20.7286   71.8500   -3.8816 C   0  0  0  0  0  0  0  0  0  0  0  0
   18.5430   72.1145   -4.8443 O   0  0  0  0  0  0  0  0  0  0  0  0
   17.5106   70.6575   -2.4356 O   0  0  0  0  0  0  0  0  0  0  0  0
   17.5218   68.7126   -4.3471 O   0  0  0  0  0  0  0  0  0  0  0  0
   18.7246   70.4593   -3.1582 C   0  0  1  0  0  0  0  0  0  0  0  0
   18.4442   69.7748   -4.4797 C   0  0  2  0  0  0  0  0  0  0  0  0
   19.2311   71.8241   -3.6080 C   0  0  1  0  0  0  0  0  0  0  0  0
   17.9013   70.9194   -5.3184 C   0  0  2  0  0  0  0  0  0  0  0  0
   17.1681   69.7996   -2.1376 H   0  0  0  0  0  0  0  0  0  0  0  0
   17.9136   68.0097   -3.8056 H   0  0  0  0  0  0  0  0  0  0  0  0
   15.9882   70.2026   -7.2689 O   0  0  0  0  0  0  0  0  0  0  0  0
   19.1180   70.3305  -10.6496 O   0  0  0  0  0  0  0  0  0  0  0  0
   18.1887   70.7587   -6.7158 N   0  0  0  0  0  0  0  0  0  0  0  0
   17.5481   70.2670   -8.9506 N   0  0  0  0  0  0  0  0  0  0  0  0
   17.1564   70.3957   -7.6120 C   0  0  0  0  0  0  0  0  0  0  0  0
   19.4821   70.9608   -7.1850 C   0  0  0  0  0  0  0  0  0  0  0  0
   19.8395   70.8329   -8.4645 C   0  0  0  0  0  0  0  0  0  0  0  0
   18.8208   70.4561   -9.4656 C   0  0  0  0  0  0  0  0  0  0  0  0
   16.8458   70.0145   -9.5931 H   0  0  0  0  0  0  0  0  0  0  0  0
   22.4546   75.0991   -5.0613 O   0  0  0  0  0  0  0  0  0  0  0  0
   23.9823   75.5758   -4.8335 P   0  0  2  0  0  0  0  0  0  0  0  0
   24.6662   74.2983   -4.1138 O   0  0  0  0  0  0  0  0  0  0  0  0
   24.1183   76.8622   -4.0715 O   0  0  0  0  0  0  0  0  0  0  0  0
   24.6266   75.6035   -6.3131 O   0  0  0  0  0  0  0  0  0  0  0  0
   25.1634   77.5303   -7.5842 O   0  0  0  0  0  0  0  0  0  0  0  0
   24.2431   74.9415  -10.6668 O   0  0  0  0  0  0  0  0  0  0  0  0
   26.9804   75.6749  -10.2005 O   0  0  0  0  0  0  0  0  0  0  0  0
   22.6986   74.8794   -8.2193 O   0  0  0  0  0  0  0  0  0  0  0  0
   24.7613   75.3103   -9.3858 C   0  0  1  0  0  0  0  0  0  0  0  0
   25.8739   76.3392   -9.5967 C   0  0  1  0  0  0  0  0  0  0  0  0
   23.6337   75.9029   -8.5429 C   0  0  2  0  0  0  0  0  0  0  0  0
   26.2956   76.9794   -8.2673 C   0  0  1  0  0  0  0  0  0  0  0  0
   24.1663   76.5572   -7.2668 C   0  0  1  0  0  0  0  0  0  0  0  0
   24.9540   74.5641  -11.2068 H   0  0  0  0  0  0  0  0  0  0  0  0
   26.7006   75.2746  -11.0388 H   0  0  0  0  0  0  0  0  0  0  0  0
   22.3686   74.4733   -9.0354 H   0  0  0  0  0  0  0  0  0  0  0  0
   28.5166   77.7606   -7.8603 O   0  0  0  0  0  0  0  0  0  0  0  0
   27.2911   78.1192   -8.4718 C   0  0  0  0  0  0  0  0  0  0  0  0
   29.1601   78.4766   -7.9827 H   0  0  0  0  0  0  0  0  0  0  0  0
 25 28  1  0
 25 24  1  0
 25 26  1  1
 25 27  2  0
  1  4  1  0
  1 24  1  0
  1  2  1  6
  1  3  2  0
  6 11  1  0
  6 12  1  0
 29 36  1  0
 29 37  1  0
  9  7  1  1
  7 13  1  0
 10  8  1  1
  8 14  1  0
 37 28  1  1
  4  5  1  0
 33 30  1  6
 30 38  1  0
 34 31  1  1
 31 39  1  0
 35 32  1  1
 32 40  1  0
 41 42  1  0
 41 43  1  0
 15 19  2  0
 16 22  2  0
 12 17  1  6
 17 19  1  0
 17 20  1  0
 18 19  1  0
 18 22  1  0
 18 23  1  0
  9 10  1  0
  9 11  1  0
 10 12  1  0
 11  5  1  6
 33 34  1  0
 33 35  1  0
 34 36  1  0
 35 37  1  0
 36 42  1  6
 20 21  2  0
 21 22  1  0
M  CHG  2   2  -1  26  -1
M  END
>  <COMPND>  (192) 
    8629 

>  <AUTHOR>  (192) 
    GENERATED BY OPEN BABEL 3.1.1

>  <MASTER>  (192) 
        0    0    0    0    0    0    0    0   58    0   58    0

>  <minimizedAffinity>  (192) 
-6.37176

>  <CNNscore>  (192) 
0.7113665938

>  <CNNaffinity>  (192) 
4.4522409439

>  <CNN_VS>  (192) 
3.1671755314

>  <CNNaffinity_variance>  (192) 
0.1699291170

$$$$
193
     RDKit          3D

 43 45  0  0  0  0  0  0  0  0999 V2000
   21.9436   72.6644   -5.8215 P   0  0  2  0  0  0  0  0  0  0  0  0
   21.4971   74.1306   -5.3034 O   0  0  0  0  0  0  0  0  0  0  0  0
   23.0149   72.6626   -6.8720 O   0  0  0  0  0  0  0  0  0  0  0  0
   20.5488   71.9586   -6.2390 O   0  0  0  0  0  0  0  0  0  0  0  0
   20.0335   72.1952   -7.5376 C   0  0  0  0  0  0  0  0  0  0  0  0
   18.9758   70.1105   -6.9818 O   0  0  0  0  0  0  0  0  0  0  0  0
   18.1756   69.9620   -9.8677 O   0  0  0  0  0  0  0  0  0  0  0  0
   15.8867   70.8213   -8.6597 O   0  0  0  0  0  0  0  0  0  0  0  0
   18.2751   71.1027   -9.0167 C   0  0  1  0  0  0  0  0  0  0  0  0
   17.1179   71.1328   -8.0402 C   0  0  2  0  0  0  0  0  0  0  0  0
   19.4672   70.8947   -8.0909 C   0  0  1  0  0  0  0  0  0  0  0  0
   17.5395   70.0891   -7.0198 C   0  0  2  0  0  0  0  0  0  0  0  0
   17.4213   70.0720  -10.4685 H   0  0  0  0  0  0  0  0  0  0  0  0
   15.6621   71.5146   -9.2998 H   0  0  0  0  0  0  0  0  0  0  0  0
   16.3632   68.1690   -5.3146 O   0  0  0  0  0  0  0  0  0  0  0  0
   15.6343   71.2892   -2.0018 O   0  0  0  0  0  0  0  0  0  0  0  0
   17.0340   70.3722   -5.7061 N   0  0  0  0  0  0  0  0  0  0  0  0
   16.0014   69.7242   -3.6664 N   0  0  0  0  0  0  0  0  0  0  0  0
   16.4614   69.3366   -4.9314 C   0  0  0  0  0  0  0  0  0  0  0  0
   17.1092   71.6646   -5.1983 C   0  0  0  0  0  0  0  0  0  0  0  0
   16.6647   72.0181   -3.9905 C   0  0  0  0  0  0  0  0  0  0  0  0
   16.0525   70.9957   -3.1176 C   0  0  0  0  0  0  0  0  0  0  0  0
   15.5982   69.0195   -3.1091 H   0  0  0  0  0  0  0  0  0  0  0  0
   22.3416   71.9012   -4.4533 O   0  0  0  0  0  0  0  0  0  0  0  0
   23.5577   72.1454   -3.4167 P   0  0  2  0  0  0  0  0  0  0  0  0
   24.5169   73.1809   -4.2073 O   0  0  0  0  0  0  0  0  0  0  0  0
   24.2428   70.8883   -2.9647 O   0  0  0  0  0  0  0  0  0  0  0  0
   22.9092   73.0193   -2.2248 O   0  0  0  0  0  0  0  0  0  0  0  0
   21.6301   71.8134   -0.6353 O   0  0  0  0  0  0  0  0  0  0  0  0
   20.3572   75.6385    0.2586 O   0  0  0  0  0  0  0  0  0  0  0  0
   22.1125   74.2681    2.0722 O   0  0  0  0  0  0  0  0  0  0  0  0
   20.8252   74.8791   -2.4952 O   0  0  0  0  0  0  0  0  0  0  0  0
   21.2971   74.6392   -0.1456 C   0  0  1  0  0  0  0  0  0  0  0  0
   21.4395   73.6265    0.9925 C   0  0  1  0  0  0  0  0  0  0  0  0
   20.7854   73.9559   -1.4123 C   0  0  2  0  0  0  0  0  0  0  0  0
   22.2212   72.3871    0.5365 C   0  0  1  0  0  0  0  0  0  0  0  0
   21.6022   72.7073   -1.7498 C   0  0  1  0  0  0  0  0  0  0  0  0
   20.6763   76.0765    1.0622 H   0  0  0  0  0  0  0  0  0  0  0  0
   21.6089   75.0493    2.3502 H   0  0  0  0  0  0  0  0  0  0  0  0
   20.3042   75.6649   -2.2694 H   0  0  0  0  0  0  0  0  0  0  0  0
   21.4495   70.2122    1.1557 O   0  0  0  0  0  0  0  0  0  0  0  0
   22.2397   71.2972    1.6060 C   0  0  0  0  0  0  0  0  0  0  0  0
   21.4524   69.5107    1.8262 H   0  0  0  0  0  0  0  0  0  0  0  0
 25 28  1  0
 25 24  1  0
 25 26  1  6
 25 27  2  0
  1  4  1  0
  1 24  1  0
  1  2  1  1
  1  3  2  0
  6 11  1  0
  6 12  1  0
 29 36  1  0
 29 37  1  0
  9  7  1  6
  7 13  1  0
 10  8  1  6
  8 14  1  0
 37 28  1  1
  4  5  1  0
 33 30  1  1
 30 38  1  0
 34 31  1  1
 31 39  1  0
 35 32  1  6
 32 40  1  0
 41 42  1  0
 41 43  1  0
 15 19  2  0
 16 22  2  0
 12 17  1  1
 17 19  1  0
 17 20  1  0
 18 19  1  0
 18 22  1  0
 18 23  1  0
  9 10  1  0
  9 11  1  0
 10 12  1  0
 11  5  1  1
 33 34  1  0
 33 35  1  0
 34 36  1  0
 35 37  1  0
 36 42  1  1
 20 21  2  0
 21 22  1  0
M  CHG  2   2  -1  26  -1
M  END
>  <COMPND>  (193) 
    8629 

>  <AUTHOR>  (193) 
    GENERATED BY OPEN BABEL 3.1.1

>  <MASTER>  (193) 
        0    0    0    0    0    0    0    0   58    0   58    0

>  <minimizedAffinity>  (193) 
-7.81304

>  <CNNscore>  (193) 
0.6656810641

>  <CNNaffinity>  (193) 
4.3948144913

>  <CNN_VS>  (193) 
2.9255447388

>  <CNNaffinity_variance>  (193) 
0.4648199975

$$$$
194
     RDKit          3D

 43 45  0  0  0  0  0  0  0  0999 V2000
   20.3818   72.5836   -0.7056 P   0  0  2  0  0  0  0  0  0  0  0  0
   20.4996   70.9928   -0.4356 O   0  0  0  0  0  0  0  0  0  0  0  0
   19.1426   73.2292   -0.1587 O   0  0  0  0  0  0  0  0  0  0  0  0
   20.6009   72.7239   -2.3025 O   0  0  0  0  0  0  0  0  0  0  0  0
   20.1680   71.6659   -3.1398 C   0  0  0  0  0  0  0  0  0  0  0  0
   20.6855   70.5161   -5.1853 O   0  0  0  0  0  0  0  0  0  0  0  0
   23.0468   72.3515   -5.4006 O   0  0  0  0  0  0  0  0  0  0  0  0
   21.2585   73.4792   -7.1231 O   0  0  0  0  0  0  0  0  0  0  0  0
   21.7382   72.6199   -4.8998 C   0  0  1  0  0  0  0  0  0  0  0  0
   20.7494   72.7249   -6.0421 C   0  0  2  0  0  0  0  0  0  0  0  0
   21.2504   71.3745   -4.1702 C   0  0  1  0  0  0  0  0  0  0  0  0
   20.5266   71.2655   -6.4010 C   0  0  2  0  0  0  0  0  0  0  0  0
   23.3796   73.1329   -5.8704 H   0  0  0  0  0  0  0  0  0  0  0  0
   21.3830   74.3999   -6.8448 H   0  0  0  0  0  0  0  0  0  0  0  0
   19.9017   71.1899   -9.1545 O   0  0  0  0  0  0  0  0  0  0  0  0
   15.4520   70.3383   -8.3083 O   0  0  0  0  0  0  0  0  0  0  0  0
   19.2129   71.0256   -6.9284 N   0  0  0  0  0  0  0  0  0  0  0  0
   17.6866   70.7657   -8.7309 N   0  0  0  0  0  0  0  0  0  0  0  0
   19.0057   71.0090   -8.3274 C   0  0  0  0  0  0  0  0  0  0  0  0
   18.1471   70.8097   -6.0616 C   0  0  0  0  0  0  0  0  0  0  0  0
   16.8949   70.5804   -6.4625 C   0  0  0  0  0  0  0  0  0  0  0  0
   16.5932   70.5466   -7.9081 C   0  0  0  0  0  0  0  0  0  0  0  0
   17.5183   70.7500   -9.7011 H   0  0  0  0  0  0  0  0  0  0  0  0
   21.7645   73.1588   -0.0972 O   0  0  0  0  0  0  0  0  0  0  0  0
   23.2733   72.5823   -0.1608 P   0  0  2  0  0  0  0  0  0  0  0  0
   24.1755   73.9182   -0.2990 O   0  0  0  0  0  0  0  0  0  0  0  0
   23.4992   71.5677   -1.2440 O   0  0  0  0  0  0  0  0  0  0  0  0
   23.5682   72.0440    1.3319 O   0  0  0  0  0  0  0  0  0  0  0  0
   24.2014   73.4387    3.1404 O   0  0  0  0  0  0  0  0  0  0  0  0
   25.9573   69.9129    4.3800 O   0  0  0  0  0  0  0  0  0  0  0  0
   23.6098   70.8771    5.7245 O   0  0  0  0  0  0  0  0  0  0  0  0
   25.9793   70.6288    1.5753 O   0  0  0  0  0  0  0  0  0  0  0  0
   24.9565   70.7204    3.7540 C   0  0  1  0  0  0  0  0  0  0  0  0
   24.3701   71.6607    4.8089 C   0  0  1  0  0  0  0  0  0  0  0  0
   25.5965   71.5178    2.6192 C   0  0  2  0  0  0  0  0  0  0  0  0
   23.4856   72.7354    4.1626 C   0  0  1  0  0  0  0  0  0  0  0  0
   24.6502   72.5922    2.0803 C   0  0  1  0  0  0  0  0  0  0  0  0
   25.5574   69.4036    5.1013 H   0  0  0  0  0  0  0  0  0  0  0  0
   24.1799   70.2021    6.1252 H   0  0  0  0  0  0  0  0  0  0  0  0
   26.5783   69.9537    1.9291 H   0  0  0  0  0  0  0  0  0  0  0  0
   21.9516   73.2261    5.9275 O   0  0  0  0  0  0  0  0  0  0  0  0
   23.0180   73.7770    5.1768 C   0  0  0  0  0  0  0  0  0  0  0  0
   21.6439   73.8779    6.5773 H   0  0  0  0  0  0  0  0  0  0  0  0
 25 28  1  0
 25 24  1  0
 25 26  1  6
 25 27  2  0
  1  4  1  0
  1 24  1  0
  1  2  1  6
  1  3  2  0
  6 11  1  0
  6 12  1  0
 29 36  1  0
 29 37  1  0
  9  7  1  6
  7 13  1  0
 10  8  1  6
  8 14  1  0
 37 28  1  1
  4  5  1  0
 33 30  1  1
 30 38  1  0
 34 31  1  1
 31 39  1  0
 35 32  1  6
 32 40  1  0
 41 42  1  0
 41 43  1  0
 15 19  2  0
 16 22  2  0
 12 17  1  1
 17 19  1  0
 17 20  1  0
 18 19  1  0
 18 22  1  0
 18 23  1  0
  9 10  1  0
  9 11  1  0
 10 12  1  0
 11  5  1  1
 33 34  1  0
 33 35  1  0
 34 36  1  0
 35 37  1  0
 36 42  1  1
 20 21  2  0
 21 22  1  0
M  CHG  2   2  -1  26  -1
M  END
>  <COMPND>  (194) 
    8629 

>  <AUTHOR>  (194) 
    GENERATED BY OPEN BABEL 3.1.1

>  <MASTER>  (194) 
        0    0    0    0    0    0    0    0   58    0   58    0

>  <minimizedAffinity>  (194) 
-7.21424

>  <CNNscore>  (194) 
0.6334665418

>  <CNNaffinity>  (194) 
4.2529263496

>  <CNN_VS>  (194) 
2.6940865517

>  <CNNaffinity_variance>  (194) 
0.0739544183

$$$$
195
     RDKit          3D

 43 45  0  0  0  0  0  0  0  0999 V2000
   23.5545   73.7000   -3.9506 P   0  0  2  0  0  0  0  0  0  0  0  0
   22.5443   74.9378   -4.2050 O   0  0  0  0  0  0  0  0  0  0  0  0
   25.0123   74.0403   -4.0531 O   0  0  0  0  0  0  0  0  0  0  0  0
   23.0276   72.5540   -4.9639 O   0  0  0  0  0  0  0  0  0  0  0  0
   21.6427   72.4965   -5.2583 C   0  0  0  0  0  0  0  0  0  0  0  0
   20.6782   70.4815   -6.1434 O   0  0  0  0  0  0  0  0  0  0  0  0
   20.9340   71.7662   -8.8406 O   0  0  0  0  0  0  0  0  0  0  0  0
   18.2946   72.1279   -8.2579 O   0  0  0  0  0  0  0  0  0  0  0  0
   20.6187   72.3626   -7.5835 C   0  0  1  0  0  0  0  0  0  0  0  0
   19.2005   72.0180   -7.1790 C   0  0  2  0  0  0  0  0  0  0  0  0
   21.4364   71.6549   -6.5102 C   0  0  1  0  0  0  0  0  0  0  0  0
   19.3519   70.5890   -6.6859 C   0  0  2  0  0  0  0  0  0  0  0  0
   20.4239   72.2020   -9.5420 H   0  0  0  0  0  0  0  0  0  0  0  0
   18.2329   73.0552   -8.5353 H   0  0  0  0  0  0  0  0  0  0  0  0
   16.6960   69.7644   -7.1798 O   0  0  0  0  0  0  0  0  0  0  0  0
   15.7930   69.3520   -2.6792 O   0  0  0  0  0  0  0  0  0  0  0  0
   18.4011   70.2594   -5.6618 N   0  0  0  0  0  0  0  0  0  0  0  0
   16.2486   69.5595   -4.9385 N   0  0  0  0  0  0  0  0  0  0  0  0
   17.0923   69.8573   -6.0162 C   0  0  0  0  0  0  0  0  0  0  0  0
   18.7699   70.3362   -4.3231 C   0  0  0  0  0  0  0  0  0  0  0  0
   17.9531   70.0501   -3.3072 C   0  0  0  0  0  0  0  0  0  0  0  0
   16.5682   69.6219   -3.5914 C   0  0  0  0  0  0  0  0  0  0  0  0
   15.3317   69.2775   -5.1613 H   0  0  0  0  0  0  0  0  0  0  0  0
   23.0932   73.1458   -2.5038 O   0  0  0  0  0  0  0  0  0  0  0  0
   23.0188   71.6411   -1.9179 P   0  0  2  0  0  0  0  0  0  0  0  0
   24.3799   70.9610   -2.4678 O   0  0  0  0  0  0  0  0  0  0  0  0
   21.7651   70.9000   -2.2825 O   0  0  0  0  0  0  0  0  0  0  0  0
   23.2592   71.8084   -0.3307 O   0  0  0  0  0  0  0  0  0  0  0  0
   23.9005   70.4348    1.4910 O   0  0  0  0  0  0  0  0  0  0  0  0
   20.5782   72.2330    3.1582 O   0  0  0  0  0  0  0  0  0  0  0  0
   23.1995   72.9846    4.0592 O   0  0  0  0  0  0  0  0  0  0  0  0
   20.5608   71.4754    0.3644 O   0  0  0  0  0  0  0  0  0  0  0  0
   21.7507   72.1638    2.3422 C   0  0  1  0  0  0  0  0  0  0  0  0
   22.9445   71.8441    3.2441 C   0  0  1  0  0  0  0  0  0  0  0  0
   21.5634   71.0716    1.2908 C   0  0  2  0  0  0  0  0  0  0  0  0
   24.1866   71.4915    2.4147 C   0  0  1  0  0  0  0  0  0  0  0  0
   22.8700   70.7637    0.5573 C   0  0  1  0  0  0  0  0  0  0  0  0
   20.6904   72.9249    3.8276 H   0  0  0  0  0  0  0  0  0  0  0  0
   22.4072   73.1970    4.5773 H   0  0  0  0  0  0  0  0  0  0  0  0
   19.7387   71.6671    0.8410 H   0  0  0  0  0  0  0  0  0  0  0  0
   25.4121   69.6046    3.2189 O   0  0  0  0  0  0  0  0  0  0  0  0
   25.3436   71.0168    3.2911 C   0  0  0  0  0  0  0  0  0  0  0  0
   26.1443   69.2882    3.7716 H   0  0  0  0  0  0  0  0  0  0  0  0
 25 28  1  0
 25 24  1  0
 25 26  1  6
 25 27  2  0
  1  4  1  0
  1 24  1  0
  1  2  1  6
  1  3  2  0
  6 11  1  0
  6 12  1  0
 29 36  1  0
 29 37  1  0
  9  7  1  6
  7 13  1  0
 10  8  1  6
  8 14  1  0
 37 28  1  1
  4  5  1  0
 33 30  1  1
 30 38  1  0
 34 31  1  6
 31 39  1  0
 35 32  1  6
 32 40  1  0
 41 42  1  0
 41 43  1  0
 15 19  2  0
 16 22  2  0
 12 17  1  1
 17 19  1  0
 17 20  1  0
 18 19  1  0
 18 22  1  0
 18 23  1  0
  9 10  1  0
  9 11  1  0
 10 12  1  0
 11  5  1  1
 33 34  1  0
 33 35  1  0
 34 36  1  0
 35 37  1  0
 36 42  1  1
 20 21  2  0
 21 22  1  0
M  CHG  2   2  -1  26  -1
M  END
>  <COMPND>  (195) 
    8629 

>  <AUTHOR>  (195) 
    GENERATED BY OPEN BABEL 3.1.1

>  <MASTER>  (195) 
        0    0    0    0    0    0    0    0   58    0   58    0

>  <minimizedAffinity>  (195) 
-7.89705

>  <CNNscore>  (195) 
0.5699789524

>  <CNNaffinity>  (195) 
4.2708039284

>  <CNN_VS>  (195) 
2.4342682362

>  <CNNaffinity_variance>  (195) 
0.2147396803

$$$$
196
     RDKit          3D

 43 45  0  0  0  0  0  0  0  0999 V2000
   23.2765   71.7924   -2.5437 P   0  0  2  0  0  0  0  0  0  0  0  0
   23.6472   73.3564   -2.3601 O   0  0  0  0  0  0  0  0  0  0  0  0
   24.3345   70.9645   -3.2121 O   0  0  0  0  0  0  0  0  0  0  0  0
   21.8357   71.8184   -3.2793 O   0  0  0  0  0  0  0  0  0  0  0  0
   21.6297   72.7465   -4.3301 C   0  0  0  0  0  0  0  0  0  0  0  0
   20.8533   70.7838   -5.4785 O   0  0  0  0  0  0  0  0  0  0  0  0
   21.4138   72.2763   -8.0180 O   0  0  0  0  0  0  0  0  0  0  0  0
   18.7110   72.5327   -7.7620 O   0  0  0  0  0  0  0  0  0  0  0  0
   20.9196   72.7676   -6.7731 C   0  0  1  0  0  0  0  0  0  0  0  0
   19.4730   72.3612   -6.5844 C   0  0  2  0  0  0  0  0  0  0  0  0
   21.6143   71.9986   -5.6562 C   0  0  1  0  0  0  0  0  0  0  0  0
   19.6054   70.9025   -6.1811 C   0  0  2  0  0  0  0  0  0  0  0  0
   20.9848   72.7527   -8.7467 H   0  0  0  0  0  0  0  0  0  0  0  0
   18.6557   73.4769   -7.9769 H   0  0  0  0  0  0  0  0  0  0  0  0
   17.1262   69.8934   -7.0828 O   0  0  0  0  0  0  0  0  0  0  0  0
   15.5972   69.2916   -2.7769 O   0  0  0  0  0  0  0  0  0  0  0  0
   18.5414   70.4743   -5.3174 N   0  0  0  0  0  0  0  0  0  0  0  0
   16.3670   69.5944   -4.9381 N   0  0  0  0  0  0  0  0  0  0  0  0
   17.3359   69.9843   -5.8715 C   0  0  0  0  0  0  0  0  0  0  0  0
   18.6992   70.5422   -3.9374 C   0  0  0  0  0  0  0  0  0  0  0  0
   17.7650   70.1676   -3.0609 C   0  0  0  0  0  0  0  0  0  0  0  0
   16.4761   69.6440   -3.5574 C   0  0  0  0  0  0  0  0  0  0  0  0
   15.5187   69.2501   -5.3010 H   0  0  0  0  0  0  0  0  0  0  0  0
   22.9084   71.3272   -1.0400 O   0  0  0  0  0  0  0  0  0  0  0  0
   21.7337   71.8063   -0.0382 P   0  0  2  0  0  0  0  0  0  0  0  0
   20.6313   70.6294   -0.1693 O   0  0  0  0  0  0  0  0  0  0  0  0
   21.2065   73.1830   -0.3218 O   0  0  0  0  0  0  0  0  0  0  0  0
   22.3555   71.6194    1.4394 O   0  0  0  0  0  0  0  0  0  0  0  0
   23.1291   73.3582    2.8519 O   0  0  0  0  0  0  0  0  0  0  0  0
   25.6189   70.3191    4.1226 O   0  0  0  0  0  0  0  0  0  0  0  0
   23.4813   71.2054    5.8234 O   0  0  0  0  0  0  0  0  0  0  0  0
   24.9515   70.5607    1.3162 O   0  0  0  0  0  0  0  0  0  0  0  0
   24.3994   70.8875    3.6378 C   0  0  1  0  0  0  0  0  0  0  0  0
   23.9076   71.9122    4.6620 C   0  0  1  0  0  0  0  0  0  0  0  0
   24.6620   71.5575    2.2904 C   0  0  2  0  0  0  0  0  0  0  0  0
   22.7556   72.7529    4.0952 C   0  0  1  0  0  0  0  0  0  0  0  0
   23.4726   72.4082    1.8413 C   0  0  1  0  0  0  0  0  0  0  0  0
   25.4590   69.8916    4.9777 H   0  0  0  0  0  0  0  0  0  0  0  0
   24.2178   70.6782    6.1711 H   0  0  0  0  0  0  0  0  0  0  0  0
   25.7064   70.0292    1.6121 H   0  0  0  0  0  0  0  0  0  0  0  0
   21.5425   73.3457    6.0665 O   0  0  0  0  0  0  0  0  0  0  0  0
   22.3547   73.8842    5.0394 C   0  0  0  0  0  0  0  0  0  0  0  0
   21.2800   74.0544    6.6752 H   0  0  0  0  0  0  0  0  0  0  0  0
 25 28  1  0
 25 24  1  0
 25 26  1  1
 25 27  2  0
  1  4  1  0
  1 24  1  0
  1  2  1  1
  1  3  2  0
  6 11  1  0
  6 12  1  0
 29 36  1  0
 29 37  1  0
  9  7  1  6
  7 13  1  0
 10  8  1  6
  8 14  1  0
 37 28  1  1
  4  5  1  0
 33 30  1  1
 30 38  1  0
 34 31  1  1
 31 39  1  0
 35 32  1  6
 32 40  1  0
 41 42  1  0
 41 43  1  0
 15 19  2  0
 16 22  2  0
 12 17  1  1
 17 19  1  0
 17 20  1  0
 18 19  1  0
 18 22  1  0
 18 23  1  0
  9 10  1  0
  9 11  1  0
 10 12  1  0
 11  5  1  1
 33 34  1  0
 33 35  1  0
 34 36  1  0
 35 37  1  0
 36 42  1  1
 20 21  2  0
 21 22  1  0
M  CHG  2   2  -1  26  -1
M  END
>  <COMPND>  (196) 
    8629 

>  <AUTHOR>  (196) 
    GENERATED BY OPEN BABEL 3.1.1

>  <MASTER>  (196) 
        0    0    0    0    0    0    0    0   58    0   58    0

>  <minimizedAffinity>  (196) 
-8.01058

>  <CNNscore>  (196) 
0.5586932302

>  <CNNaffinity>  (196) 
4.1821012497

>  <CNN_VS>  (196) 
2.3365116119

>  <CNNaffinity_variance>  (196) 
0.3108692169

$$$$
197
     RDKit          3D

 43 45  0  0  0  0  0  0  0  0999 V2000
   21.2704   73.9056   -3.8452 P   0  0  2  0  0  0  0  0  0  0  0  0
   20.9985   74.3844   -2.3239 O   0  0  0  0  0  0  0  0  0  0  0  0
   21.5557   75.0129   -4.8167 O   0  0  0  0  0  0  0  0  0  0  0  0
   19.9926   72.9765   -4.1942 O   0  0  0  0  0  0  0  0  0  0  0  0
   19.4772   73.0036   -5.5139 C   0  0  0  0  0  0  0  0  0  0  0  0
   18.9699   70.7253   -4.9431 O   0  0  0  0  0  0  0  0  0  0  0  0
   18.6585   70.2536   -7.8878 O   0  0  0  0  0  0  0  0  0  0  0  0
   16.0744   70.4693   -7.0438 O   0  0  0  0  0  0  0  0  0  0  0  0
   18.3173   71.4049   -7.1175 C   0  0  1  0  0  0  0  0  0  0  0  0
   17.0709   71.1395   -6.2991 C   0  0  2  0  0  0  0  0  0  0  0  0
   19.3769   71.5770   -6.0364 C   0  0  1  0  0  0  0  0  0  0  0  0
   17.6160   70.2954   -5.1596 C   0  0  2  0  0  0  0  0  0  0  0  0
   17.9961   70.1233   -8.5851 H   0  0  0  0  0  0  0  0  0  0  0  0
   15.7596   71.0471   -7.7564 H   0  0  0  0  0  0  0  0  0  0  0  0
   17.5557   68.4257   -3.0434 O   0  0  0  0  0  0  0  0  0  0  0  0
   14.7239   71.0684   -0.5457 O   0  0  0  0  0  0  0  0  0  0  0  0
   16.8715   70.4695   -3.9443 N   0  0  0  0  0  0  0  0  0  0  0  0
   16.1459   69.7431   -1.8014 N   0  0  0  0  0  0  0  0  0  0  0  0
   16.9079   69.4698   -2.9444 C   0  0  0  0  0  0  0  0  0  0  0  0
   16.1164   71.6215   -3.7532 C   0  0  0  0  0  0  0  0  0  0  0  0
   15.3942   71.8664   -2.6579 C   0  0  0  0  0  0  0  0  0  0  0  0
   15.3780   70.8725   -1.5653 C   0  0  0  0  0  0  0  0  0  0  0  0
   16.1557   69.0606   -1.0915 H   0  0  0  0  0  0  0  0  0  0  0  0
   22.4666   72.8311   -3.6797 O   0  0  0  0  0  0  0  0  0  0  0  0
   22.5965   71.5238   -2.7378 P   0  0  2  0  0  0  0  0  0  0  0  0
   24.1193   71.0373   -2.9863 O   0  0  0  0  0  0  0  0  0  0  0  0
   21.5592   70.4706   -3.0005 O   0  0  0  0  0  0  0  0  0  0  0  0
   22.5944   72.1037   -1.2316 O   0  0  0  0  0  0  0  0  0  0  0  0
   24.1962   71.8122    0.4905 O   0  0  0  0  0  0  0  0  0  0  0  0
   20.7636   71.8703    2.7851 O   0  0  0  0  0  0  0  0  0  0  0  0
   22.5441   74.1230    2.8399 O   0  0  0  0  0  0  0  0  0  0  0  0
   20.7569   70.5479    0.2101 O   0  0  0  0  0  0  0  0  0  0  0  0
   21.6071   72.2451    1.6927 C   0  0  1  0  0  0  0  0  0  0  0  0
   22.8841   72.8651    2.2635 C   0  0  1  0  0  0  0  0  0  0  0  0
   21.9353   71.0029    0.8664 C   0  0  2  0  0  0  0  0  0  0  0  0
   23.9473   73.0473    1.1719 C   0  0  1  0  0  0  0  0  0  0  0  0
   23.0385   71.2802   -0.1564 C   0  0  1  0  0  0  0  0  0  0  0  0
   20.5511   72.6546    3.3135 H   0  0  0  0  0  0  0  0  0  0  0  0
   21.8717   73.9940    3.5272 H   0  0  0  0  0  0  0  0  0  0  0  0
   20.0664   70.3756    0.8683 H   0  0  0  0  0  0  0  0  0  0  0  0
   25.8460   72.4570    2.4968 O   0  0  0  0  0  0  0  0  0  0  0  0
   25.2821   73.5168    1.7464 C   0  0  0  0  0  0  0  0  0  0  0  0
   26.6962   72.7413    2.8682 H   0  0  0  0  0  0  0  0  0  0  0  0
 25 28  1  0
 25 24  1  0
 25 26  1  6
 25 27  2  0
  1  4  1  0
  1 24  1  0
  1  2  1  1
  1  3  2  0
  6 11  1  0
  6 12  1  0
 29 36  1  0
 29 37  1  0
  9  7  1  6
  7 13  1  0
 10  8  1  6
  8 14  1  0
 37 28  1  6
  4  5  1  0
 33 30  1  1
 30 38  1  0
 34 31  1  6
 31 39  1  0
 35 32  1  6
 32 40  1  0
 41 42  1  0
 41 43  1  0
 15 19  2  0
 16 22  2  0
 12 17  1  1
 17 19  1  0
 17 20  1  0
 18 19  1  0
 18 22  1  0
 18 23  1  0
  9 10  1  0
  9 11  1  0
 10 12  1  0
 11  5  1  1
 33 34  1  0
 33 35  1  0
 34 36  1  0
 35 37  1  0
 36 42  1  1
 20 21  2  0
 21 22  1  0
M  CHG  2   2  -1  26  -1
M  END
>  <COMPND>  (197) 
    8629 

>  <AUTHOR>  (197) 
    GENERATED BY OPEN BABEL 3.1.1

>  <MASTER>  (197) 
        0    0    0    0    0    0    0    0   58    0   58    0

>  <minimizedAffinity>  (197) 
-6.67533

>  <CNNscore>  (197) 
0.5161773562

>  <CNNaffinity>  (197) 
4.2149977684

>  <CNN_VS>  (197) 
2.1756863594

>  <CNNaffinity_variance>  (197) 
0.2261919230

$$$$
198
     RDKit          3D

 43 45  0  0  0  0  0  0  0  0999 V2000
   23.0200   71.8687   -2.9642 P   0  0  2  0  0  0  0  0  0  0  0  0
   24.2612   70.8384   -3.0871 O   0  0  0  0  0  0  0  0  0  0  0  0
   22.9484   72.9065   -4.0455 O   0  0  0  0  0  0  0  0  0  0  0  0
   23.1335   72.4352   -1.4529 O   0  0  0  0  0  0  0  0  0  0  0  0
   23.9020   71.7046   -0.5129 C   0  0  0  0  0  0  0  0  0  0  0  0
   23.7716   70.4070    1.5052 O   0  0  0  0  0  0  0  0  0  0  0  0
   20.9584   71.4152    1.7498 O   0  0  0  0  0  0  0  0  0  0  0  0
   22.3138   73.0039    3.5036 O   0  0  0  0  0  0  0  0  0  0  0  0
   22.1181   72.0867    1.2604 C   0  0  1  0  0  0  0  0  0  0  0  0
   23.0287   72.4681    2.4088 C   0  0  2  0  0  0  0  0  0  0  0  0
   22.9659   71.0699    0.5064 C   0  0  1  0  0  0  0  0  0  0  0  0
   23.6937   71.1422    2.7374 C   0  0  2  0  0  0  0  0  0  0  0  0
   20.4011   72.0446    2.2348 H   0  0  0  0  0  0  0  0  0  0  0  0
   21.9094   73.8466    3.2446 H   0  0  0  0  0  0  0  0  0  0  0  0
   24.2910   71.4568    5.4800 O   0  0  0  0  0  0  0  0  0  0  0  0
   28.8123   71.7788    4.6462 O   0  0  0  0  0  0  0  0  0  0  0  0
   25.0184   71.3098    3.2650 N   0  0  0  0  0  0  0  0  0  0  0  0
   26.5418   71.6167    5.0626 N   0  0  0  0  0  0  0  0  0  0  0  0
   25.2099   71.4607    4.6582 C   0  0  0  0  0  0  0  0  0  0  0  0
   26.1106   71.3229    2.4043 C   0  0  0  0  0  0  0  0  0  0  0  0
   27.3744   71.4740    2.8057 C   0  0  0  0  0  0  0  0  0  0  0  0
   27.6611   71.6377    4.2456 C   0  0  0  0  0  0  0  0  0  0  0  0
   26.6994   71.7239    6.0288 H   0  0  0  0  0  0  0  0  0  0  0  0
   21.7384   70.8864   -2.8886 O   0  0  0  0  0  0  0  0  0  0  0  0
   20.2327   71.1446   -2.3602 P   0  0  2  0  0  0  0  0  0  0  0  0
   20.0935   72.7557   -2.4089 O   0  0  0  0  0  0  0  0  0  0  0  0
   19.9389   70.5379   -1.0187 O   0  0  0  0  0  0  0  0  0  0  0  0
   19.2844   70.6172   -3.5549 O   0  0  0  0  0  0  0  0  0  0  0  0
   17.6758   72.0197   -4.5854 O   0  0  0  0  0  0  0  0  0  0  0  0
   15.9837   68.3478   -5.4245 O   0  0  0  0  0  0  0  0  0  0  0  0
   17.2233   69.8528   -7.5330 O   0  0  0  0  0  0  0  0  0  0  0  0
   17.2615   68.7981   -2.8664 O   0  0  0  0  0  0  0  0  0  0  0  0
   17.0555   69.2721   -5.2189 C   0  0  1  0  0  0  0  0  0  0  0  0
   16.9247   70.3951   -6.2497 C   0  0  1  0  0  0  0  0  0  0  0  0
   16.9670   69.8314   -3.8002 C   0  0  2  0  0  0  0  0  0  0  0  0
   17.8737   71.5570   -5.9265 C   0  0  1  0  0  0  0  0  0  0  0  0
   17.9163   71.0141   -3.5991 C   0  0  1  0  0  0  0  0  0  0  0  0
   16.0344   67.9885   -6.3233 H   0  0  0  0  0  0  0  0  0  0  0  0
   16.6173   69.1198   -7.7247 H   0  0  0  0  0  0  0  0  0  0  0  0
   16.6537   68.0555   -3.0037 H   0  0  0  0  0  0  0  0  0  0  0  0
   18.2226   72.4625   -8.1099 O   0  0  0  0  0  0  0  0  0  0  0  0
   17.6483   72.7530   -6.8489 C   0  0  0  0  0  0  0  0  0  0  0  0
   18.0865   73.2149   -8.7075 H   0  0  0  0  0  0  0  0  0  0  0  0
 25 28  1  0
 25 24  1  0
 25 26  1  1
 25 27  2  0
  1  4  1  0
  1 24  1  0
  1  2  1  6
  1  3  2  0
  6 11  1  0
  6 12  1  0
 29 36  1  0
 29 37  1  0
  9  7  1  1
  7 13  1  0
 10  8  1  1
  8 14  1  0
 37 28  1  6
  4  5  1  0
 33 30  1  6
 30 38  1  0
 34 31  1  6
 31 39  1  0
 35 32  1  1
 32 40  1  0
 41 42  1  0
 41 43  1  0
 15 19  2  0
 16 22  2  0
 12 17  1  6
 17 19  1  0
 17 20  1  0
 18 19  1  0
 18 22  1  0
 18 23  1  0
  9 10  1  0
  9 11  1  0
 10 12  1  0
 11  5  1  6
 33 34  1  0
 33 35  1  0
 34 36  1  0
 35 37  1  0
 36 42  1  6
 20 21  2  0
 21 22  1  0
M  CHG  2   2  -1  26  -1
M  END
>  <COMPND>  (198) 
    8629 

>  <AUTHOR>  (198) 
    GENERATED BY OPEN BABEL 3.1.1

>  <MASTER>  (198) 
        0    0    0    0    0    0    0    0   58    0   58    0

>  <minimizedAffinity>  (198) 
-7.68418

>  <CNNscore>  (198) 
0.5110547543

>  <CNNaffinity>  (198) 
4.1565332413

>  <CNN_VS>  (198) 
2.1242160797

>  <CNNaffinity_variance>  (198) 
0.1658536345

$$$$
199
     RDKit          3D

 43 45  0  0  0  0  0  0  0  0999 V2000
   22.9460   71.6606   -2.4315 P   0  0  2  0  0  0  0  0  0  0  0  0
   24.2871   70.9624   -3.0071 O   0  0  0  0  0  0  0  0  0  0  0  0
   21.7721   70.7403   -2.2689 O   0  0  0  0  0  0  0  0  0  0  0  0
   22.7156   72.9268   -3.4121 O   0  0  0  0  0  0  0  0  0  0  0  0
   21.4560   73.0716   -4.0448 C   0  0  0  0  0  0  0  0  0  0  0  0
   20.8093   71.1405   -5.3201 O   0  0  0  0  0  0  0  0  0  0  0  0
   21.3400   72.8044   -7.7574 O   0  0  0  0  0  0  0  0  0  0  0  0
   18.6227   72.9036   -7.5501 O   0  0  0  0  0  0  0  0  0  0  0  0
   20.7952   73.1964   -6.4985 C   0  0  1  0  0  0  0  0  0  0  0  0
   19.3689   72.7046   -6.3667 C   0  0  2  0  0  0  0  0  0  0  0  0
   21.5074   72.4017   -5.4111 C   0  0  1  0  0  0  0  0  0  0  0  0
   19.5713   71.2340   -6.0436 C   0  0  2  0  0  0  0  0  0  0  0  0
   20.9008   73.2990   -8.4677 H   0  0  0  0  0  0  0  0  0  0  0  0
   18.5212   73.8545   -7.7124 H   0  0  0  0  0  0  0  0  0  0  0  0
   17.1735   70.1395   -7.0587 O   0  0  0  0  0  0  0  0  0  0  0  0
   15.5873   69.2218   -2.8299 O   0  0  0  0  0  0  0  0  0  0  0  0
   18.5146   70.7014   -5.2304 N   0  0  0  0  0  0  0  0  0  0  0  0
   16.3857   69.6833   -4.9523 N   0  0  0  0  0  0  0  0  0  0  0  0
   17.3512   70.1761   -5.8394 C   0  0  0  0  0  0  0  0  0  0  0  0
   18.6381   70.7032   -3.8453 C   0  0  0  0  0  0  0  0  0  0  0  0
   17.7077   70.2306   -3.0132 C   0  0  0  0  0  0  0  0  0  0  0  0
   16.4616   69.6641   -3.5686 C   0  0  0  0  0  0  0  0  0  0  0  0
   15.5664   69.3127   -5.3538 H   0  0  0  0  0  0  0  0  0  0  0  0
   23.4549   72.3504   -1.0610 O   0  0  0  0  0  0  0  0  0  0  0  0
   22.7302   73.4003   -0.0682 P   0  0  2  0  0  0  0  0  0  0  0  0
   21.1876   72.9126   -0.0744 O   0  0  0  0  0  0  0  0  0  0  0  0
   22.9260   74.8401   -0.4459 O   0  0  0  0  0  0  0  0  0  0  0  0
   23.2738   73.0145    1.4017 O   0  0  0  0  0  0  0  0  0  0  0  0
   23.6924   70.9973    2.5730 O   0  0  0  0  0  0  0  0  0  0  0  0
   21.7239   73.0871    5.5408 O   0  0  0  0  0  0  0  0  0  0  0  0
   24.5563   72.6599    5.7476 O   0  0  0  0  0  0  0  0  0  0  0  0
   20.8543   73.3218    2.7898 O   0  0  0  0  0  0  0  0  0  0  0  0
   22.5895   72.9292    4.4134 C   0  0  1  0  0  0  0  0  0  0  0  0
   23.7247   71.9829    4.8093 C   0  0  1  0  0  0  0  0  0  0  0  0
   21.7899   72.3513    3.2472 C   0  0  2  0  0  0  0  0  0  0  0  0
   24.5418   71.5544    3.5829 C   0  0  1  0  0  0  0  0  0  0  0  0
   22.7015   71.9118    2.1001 C   0  0  1  0  0  0  0  0  0  0  0  0
   22.2253   73.4542    6.2847 H   0  0  0  0  0  0  0  0  0  0  0  0
   24.0282   72.9255    6.5169 H   0  0  0  0  0  0  0  0  0  0  0  0
   20.2829   73.5917    3.5251 H   0  0  0  0  0  0  0  0  0  0  0  0
   25.2885   69.3193    3.1883 O   0  0  0  0  0  0  0  0  0  0  0  0
   25.5793   70.4892    3.9307 C   0  0  0  0  0  0  0  0  0  0  0  0
   25.9410   68.6327    3.3993 H   0  0  0  0  0  0  0  0  0  0  0  0
 25 28  1  0
 25 24  1  0
 25 26  1  1
 25 27  2  0
  1  4  1  0
  1 24  1  0
  1  2  1  6
  1  3  2  0
  6 11  1  0
  6 12  1  0
 29 36  1  0
 29 37  1  0
  9  7  1  6
  7 13  1  0
 10  8  1  6
  8 14  1  0
 37 28  1  1
  4  5  1  0
 33 30  1  1
 30 38  1  0
 34 31  1  1
 31 39  1  0
 35 32  1  6
 32 40  1  0
 41 42  1  0
 41 43  1  0
 15 19  2  0
 16 22  2  0
 12 17  1  1
 17 19  1  0
 17 20  1  0
 18 19  1  0
 18 22  1  0
 18 23  1  0
  9 10  1  0
  9 11  1  0
 10 12  1  0
 11  5  1  1
 33 34  1  0
 33 35  1  0
 34 36  1  0
 35 37  1  0
 36 42  1  1
 20 21  2  0
 21 22  1  0
M  CHG  2   2  -1  26  -1
M  END
>  <COMPND>  (199) 
    8629 

>  <AUTHOR>  (199) 
    GENERATED BY OPEN BABEL 3.1.1

>  <MASTER>  (199) 
        0    0    0    0    0    0    0    0   58    0   58    0

>  <minimizedAffinity>  (199) 
-7.36926

>  <CNNscore>  (199) 
0.5024579167

>  <CNNaffinity>  (199) 
4.1086726189

>  <CNN_VS>  (199) 
2.0644350052

>  <CNNaffinity_variance>  (199) 
0.1728514731

$$$$
200
     RDKit          3D

 43 45  0  0  0  0  0  0  0  0999 V2000
   19.4171   70.6646   -2.8684 P   0  0  2  0  0  0  0  0  0  0  0  0
   19.9297   70.6909   -1.3341 O   0  0  0  0  0  0  0  0  0  0  0  0
   19.7109   69.3956   -3.6131 O   0  0  0  0  0  0  0  0  0  0  0  0
   20.0379   72.0147   -3.5084 O   0  0  0  0  0  0  0  0  0  0  0  0
   20.5321   73.0130   -2.6326 C   0  0  0  0  0  0  0  0  0  0  0  0
   22.6895   73.8107   -1.9377 O   0  0  0  0  0  0  0  0  0  0  0  0
   23.6758   72.9247   -4.6271 O   0  0  0  0  0  0  0  0  0  0  0  0
   24.5012   70.9018   -2.9952 O   0  0  0  0  0  0  0  0  0  0  0  0
   22.6942   72.3246   -3.7835 C   0  0  1  0  0  0  0  0  0  0  0  0
   23.3592   71.6386   -2.6085 C   0  0  2  0  0  0  0  0  0  0  0  0
   21.9159   73.4423   -3.1005 C   0  0  1  0  0  0  0  0  0  0  0  0
   23.6991   72.8143   -1.7084 C   0  0  2  0  0  0  0  0  0  0  0  0
   24.1854   72.2304   -5.0745 H   0  0  0  0  0  0  0  0  0  0  0  0
   24.2328   70.1652   -3.5664 H   0  0  0  0  0  0  0  0  0  0  0  0
   24.8290   74.3903    0.3453 O   0  0  0  0  0  0  0  0  0  0  0  0
   23.6277   71.3478    3.5920 O   0  0  0  0  0  0  0  0  0  0  0  0
   23.6955   72.4582   -0.3175 N   0  0  0  0  0  0  0  0  0  0  0  0
   24.2298   72.8742    1.9602 N   0  0  0  0  0  0  0  0  0  0  0  0
   24.2908   73.3194    0.6336 C   0  0  0  0  0  0  0  0  0  0  0  0
   23.1060   71.2669    0.0913 C   0  0  0  0  0  0  0  0  0  0  0  0
   23.0573   70.8562    1.3603 C   0  0  0  0  0  0  0  0  0  0  0  0
   23.6562   71.6978    2.4162 C   0  0  0  0  0  0  0  0  0  0  0  0
   24.6384   73.4577    2.6402 H   0  0  0  0  0  0  0  0  0  0  0  0
   17.8453   71.0164   -2.7325 O   0  0  0  0  0  0  0  0  0  0  0  0
   16.5427   70.3329   -3.4026 P   0  0  2  0  0  0  0  0  0  0  0  0
   15.3635   71.3955   -3.0894 O   0  0  0  0  0  0  0  0  0  0  0  0
   16.2634   68.9384   -2.9218 O   0  0  0  0  0  0  0  0  0  0  0  0
   16.7898   70.4552   -4.9929 O   0  0  0  0  0  0  0  0  0  0  0  0
   18.5759   71.5335   -6.1169 O   0  0  0  0  0  0  0  0  0  0  0  0
   15.5558   72.2461   -8.8413 O   0  0  0  0  0  0  0  0  0  0  0  0
   17.6032   70.3304   -9.4629 O   0  0  0  0  0  0  0  0  0  0  0  0
   14.9977   72.3638   -6.0033 O   0  0  0  0  0  0  0  0  0  0  0  0
   16.2708   71.4968   -7.8550 C   0  0  1  0  0  0  0  0  0  0  0  0
   17.6877   71.2478   -8.3759 C   0  0  1  0  0  0  0  0  0  0  0  0
   16.3091   72.2945   -6.5529 C   0  0  2  0  0  0  0  0  0  0  0  0
   18.5931   70.6860   -7.2715 C   0  0  1  0  0  0  0  0  0  0  0  0
   17.2762   71.6776   -5.5408 C   0  0  1  0  0  0  0  0  0  0  0  0
   15.5274   71.7449   -9.6705 H   0  0  0  0  0  0  0  0  0  0  0  0
   17.0283   70.6969  -10.1530 H   0  0  0  0  0  0  0  0  0  0  0  0
   14.3951   72.7563   -6.6534 H   0  0  0  0  0  0  0  0  0  0  0  0
   20.2821   71.5569   -8.7200 O   0  0  0  0  0  0  0  0  0  0  0  0
   20.0476   70.5783   -7.7242 C   0  0  0  0  0  0  0  0  0  0  0  0
   21.2041   71.5003   -9.0173 H   0  0  0  0  0  0  0  0  0  0  0  0
 25 28  1  0
 25 24  1  0
 25 26  1  6
 25 27  2  0
  1  4  1  0
  1 24  1  0
  1  2  1  1
  1  3  2  0
  6 11  1  0
  6 12  1  0
 29 36  1  0
 29 37  1  0
  9  7  1  6
  7 13  1  0
 10  8  1  6
  8 14  1  0
 37 28  1  6
  4  5  1  0
 33 30  1  6
 30 38  1  0
 34 31  1  6
 31 39  1  0
 35 32  1  1
 32 40  1  0
 41 42  1  0
 41 43  1  0
 15 19  2  0
 16 22  2  0
 12 17  1  1
 17 19  1  0
 17 20  1  0
 18 19  1  0
 18 22  1  0
 18 23  1  0
  9 10  1  0
  9 11  1  0
 10 12  1  0
 11  5  1  1
 33 34  1  0
 33 35  1  0
 34 36  1  0
 35 37  1  0
 36 42  1  6
 20 21  2  0
 21 22  1  0
M  CHG  2   2  -1  26  -1
M  END
