1
     RDKit          3D

 43 45  0  0  0  0  0  0  0  0999 V2000
   22.9349   71.6443   -2.7191 P   0  0  2  0  0  0  0  0  0  0  0  0
   23.0274   73.2245   -2.3823 O   0  0  0  0  0  0  0  0  0  0  0  0
   24.2275   71.0098   -3.1415 O   0  0  0  0  0  0  0  0  0  0  0  0
   21.7219   71.5447   -3.7853 O   0  0  0  0  0  0  0  0  0  0  0  0
   20.8389   70.4410   -3.7036 C   0  0  0  0  0  0  0  0  0  0  0  0
   18.9701   71.6143   -4.6568 O   0  0  0  0  0  0  0  0  0  0  0  0
   17.3278   70.4041   -2.4591 O   0  0  0  0  0  0  0  0  0  0  0  0
   16.7252   68.8195   -4.5951 O   0  0  0  0  0  0  0  0  0  0  0  0
   18.4215   69.8418   -3.1844 C   0  0  1  0  0  0  0  0  0  0  0  0
   17.9830   69.4617   -4.5828 C   0  0  2  0  0  0  0  0  0  0  0  0
   19.4259   70.9533   -3.4565 C   0  0  1  0  0  0  0  0  0  0  0  0
   17.9581   70.8098   -5.2828 C   0  0  2  0  0  0  0  0  0  0  0  0
   16.6728   69.7126   -2.2736 H   0  0  0  0  0  0  0  0  0  0  0  0
   16.7935   67.9661   -4.1379 H   0  0  0  0  0  0  0  0  0  0  0  0
   16.0542   70.1338   -7.2563 O   0  0  0  0  0  0  0  0  0  0  0  0
   19.1773   70.4350  -10.6327 O   0  0  0  0  0  0  0  0  0  0  0  0
   18.2466   70.7045   -6.6852 N   0  0  0  0  0  0  0  0  0  0  0  0
   17.6117   70.2835   -8.9359 N   0  0  0  0  0  0  0  0  0  0  0  0
   17.2182   70.3584   -7.5933 C   0  0  0  0  0  0  0  0  0  0  0  0
   19.5347   70.9442   -7.1482 C   0  0  0  0  0  0  0  0  0  0  0  0
   19.8945   70.8690   -8.4310 C   0  0  0  0  0  0  0  0  0  0  0  0
   18.8801   70.5124   -9.4444 C   0  0  0  0  0  0  0  0  0  0  0  0
   16.9135   70.0421   -9.5867 H   0  0  0  0  0  0  0  0  0  0  0  0
   22.2881   71.0238   -1.3739 O   0  0  0  0  0  0  0  0  0  0  0  0
   21.4159   71.7128   -0.1999 P   0  0  2  0  0  0  0  0  0  0  0  0
   20.7363   70.4477    0.5470 O   0  0  0  0  0  0  0  0  0  0  0  0
   20.4378   72.7439   -0.6838 O   0  0  0  0  0  0  0  0  0  0  0  0
   22.5082   72.2669    0.8500 O   0  0  0  0  0  0  0  0  0  0  0  0
   24.2606   71.3797    2.1732 O   0  0  0  0  0  0  0  0  0  0  0  0
   22.3649   73.8829    4.8579 O   0  0  0  0  0  0  0  0  0  0  0  0
   20.8069   72.1987    3.0494 O   0  0  0  0  0  0  0  0  0  0  0  0
   24.8906   74.6758    3.6567 O   0  0  0  0  0  0  0  0  0  0  0  0
   22.8173   73.4512    3.5746 C   0  0  2  0  0  0  0  0  0  0  0  0
   22.2109   72.0855    3.2510 C   0  0  2  0  0  0  0  0  0  0  0  0
   24.3442   73.3588    3.6179 C   0  0  1  0  0  0  0  0  0  0  0  0
   22.8478   71.4878    1.9956 C   0  0  1  0  0  0  0  0  0  0  0  0
   24.8938   72.6387    2.3900 C   0  0  1  0  0  0  0  0  0  0  0  0
   21.3969   73.9489    4.8544 H   0  0  0  0  0  0  0  0  0  0  0  0
   20.3964   72.5776    3.8420 H   0  0  0  0  0  0  0  0  0  0  0  0
   24.5485   75.1451    4.4337 H   0  0  0  0  0  0  0  0  0  0  0  0
   26.5387   70.9743    2.2295 O   0  0  0  0  0  0  0  0  0  0  0  0
   27.1928   73.0101    3.0210 O   0  0  0  0  0  0  0  0  0  0  0  0
   26.3259   72.2636    2.5917 C   0  0  0  0  0  0  0  0  0  0  0  0
  1  4  1  0
  1 24  1  0
  1  2  1  1
  1  3  2  0
 25 28  1  0
 25 24  1  0
 25 26  1  1
 25 27  2  0
  6 11  1  0
  6 12  1  0
 29 36  1  0
 29 37  1  0
  9  7  1  1
  7 13  1  0
 10  8  1  1
  8 14  1  0
  4  5  1  0
 36 28  1  6
 33 30  1  1
 30 38  1  0
 34 31  1  6
 31 39  1  0
 35 32  1  6
 32 40  1  0
 41 43  1  0
 15 19  2  0
 42 43  2  0
 16 22  2  0
 12 17  1  6
 17 19  1  0
 17 20  1  0
 18 19  1  0
 18 22  1  0
 18 23  1  0
  9 10  1  0
  9 11  1  0
 10 12  1  0
 11  5  1  6
 33 34  1  0
 33 35  1  0
 34 36  1  0
 35 37  1  0
 37 43  1  1
 20 21  2  0
 21 22  1  0
M  CHG  3   2  -1  26  -1  41  -1
M  END
>  <COMPND>  (1) 
    udp_gluA.pdb 

>  <AUTHOR>  (1) 
    GENERATED BY OPEN BABEL 3.1.1

>  <MASTER>  (1) 
        0    0    0    0    0    0    0    0   56    0   56    0

>  <minimizedAffinity>  (1) 
-8.26224

>  <CNNscore>  (1) 
0.9468428493

>  <CNNaffinity>  (1) 
4.8489193916

>  <CNN_VS>  (1) 
4.5911645889

>  <CNNaffinity_variance>  (1) 
0.0273839571

$$$$
2
     RDKit          3D

 43 45  0  0  0  0  0  0  0  0999 V2000
   21.6911   71.9677   -2.7903 P   0  0  2  0  0  0  0  0  0  0  0  0
   23.1102   71.1949   -2.7010 O   0  0  0  0  0  0  0  0  0  0  0  0
   20.9623   72.1069   -1.4860 O   0  0  0  0  0  0  0  0  0  0  0  0
   20.8946   71.1834   -3.9601 O   0  0  0  0  0  0  0  0  0  0  0  0
   20.0306   70.1226   -3.5957 C   0  0  0  0  0  0  0  0  0  0  0  0
   18.3328   71.3965   -4.7238 O   0  0  0  0  0  0  0  0  0  0  0  0
   16.3773   70.0848   -2.8672 O   0  0  0  0  0  0  0  0  0  0  0  0
   16.0658   68.6547   -5.1680 O   0  0  0  0  0  0  0  0  0  0  0  0
   17.5561   69.5458   -3.4659 C   0  0  1  0  0  0  0  0  0  0  0  0
   17.3172   69.2663   -4.9346 C   0  0  2  0  0  0  0  0  0  0  0  0
   18.6035   70.6497   -3.5178 C   0  0  1  0  0  0  0  0  0  0  0  0
   17.4104   70.6568   -5.5394 C   0  0  2  0  0  0  0  0  0  0  0  0
   15.6935   69.3977   -2.8231 H   0  0  0  0  0  0  0  0  0  0  0  0
   16.0568   67.7723   -4.7638 H   0  0  0  0  0  0  0  0  0  0  0  0
   15.7901   70.2042   -7.8080 O   0  0  0  0  0  0  0  0  0  0  0  0
   19.3778   70.5966  -10.6749 O   0  0  0  0  0  0  0  0  0  0  0  0
   17.8951   70.6354   -6.8905 N   0  0  0  0  0  0  0  0  0  0  0  0
   17.5787   70.3991   -9.2336 N   0  0  0  0  0  0  0  0  0  0  0  0
   16.9977   70.3991   -7.9587 C   0  0  0  0  0  0  0  0  0  0  0  0
   19.2441   70.8484   -7.1468 C   0  0  0  0  0  0  0  0  0  0  0  0
   19.7832   70.8455   -8.3676 C   0  0  0  0  0  0  0  0  0  0  0  0
   18.9144   70.6053   -9.5385 C   0  0  0  0  0  0  0  0  0  0  0  0
   16.9741   70.2347   -9.9931 H   0  0  0  0  0  0  0  0  0  0  0  0
   22.0844   73.3684   -3.4947 O   0  0  0  0  0  0  0  0  0  0  0  0
   22.7302   73.6837   -4.9429 P   0  0  2  0  0  0  0  0  0  0  0  0
   21.5536   74.4938   -5.7042 O   0  0  0  0  0  0  0  0  0  0  0  0
   23.2193   72.4687   -5.6768 O   0  0  0  0  0  0  0  0  0  0  0  0
   23.8655   74.7923   -4.6522 O   0  0  0  0  0  0  0  0  0  0  0  0
   26.1978   74.6044   -4.2855 O   0  0  0  0  0  0  0  0  0  0  0  0
   25.2050   77.7445   -1.7910 O   0  0  0  0  0  0  0  0  0  0  0  0
   23.4861   75.3885   -1.9620 O   0  0  0  0  0  0  0  0  0  0  0  0
   26.5573   78.2558   -4.3130 O   0  0  0  0  0  0  0  0  0  0  0  0
   25.0958   76.9134   -2.9466 C   0  0  2  0  0  0  0  0  0  0  0  0
   24.7930   75.4775   -2.5176 C   0  0  2  0  0  0  0  0  0  0  0  0
   26.4263   76.9744   -3.7003 C   0  0  1  0  0  0  0  0  0  0  0  0
   24.8960   74.5187   -3.7046 C   0  0  1  0  0  0  0  0  0  0  0  0
   26.5010   75.9047   -4.7860 C   0  0  1  0  0  0  0  0  0  0  0  0
   24.3708   77.7214   -1.2960 H   0  0  0  0  0  0  0  0  0  0  0  0
   23.4135   75.9945   -1.2085 H   0  0  0  0  0  0  0  0  0  0  0  0
   26.5112   78.9457   -3.6328 H   0  0  0  0  0  0  0  0  0  0  0  0
   28.7616   76.4733   -4.5248 O   0  0  0  0  0  0  0  0  0  0  0  0
   28.2330   75.0751   -6.2467 O   0  0  0  0  0  0  0  0  0  0  0  0
   27.9007   75.7535   -5.2863 C   0  0  0  0  0  0  0  0  0  0  0  0
  1  4  1  0
  1 24  1  0
  1  2  1  1
  1  3  2  0
 25 28  1  0
 25 24  1  0
 25 26  1  6
 25 27  2  0
  6 11  1  0
  6 12  1  0
 29 36  1  0
 29 37  1  0
  9  7  1  6
  7 13  1  0
 10  8  1  1
  8 14  1  0
  4  5  1  0
 36 28  1  6
 33 30  1  1
 30 38  1  0
 34 31  1  6
 31 39  1  0
 35 32  1  6
 32 40  1  0
 41 43  1  0
 15 19  2  0
 42 43  2  0
 16 22  2  0
 12 17  1  6
 17 19  1  0
 17 20  1  0
 18 19  1  0
 18 22  1  0
 18 23  1  0
  9 10  1  0
  9 11  1  0
 10 12  1  0
 11  5  1  6
 33 34  1  0
 33 35  1  0
 34 36  1  0
 35 37  1  0
 37 43  1  1
 20 21  2  0
 21 22  1  0
M  CHG  3   2  -1  26  -1  41  -1
M  END
>  <COMPND>  (2) 
    udp_gluA.pdb 

>  <AUTHOR>  (2) 
    GENERATED BY OPEN BABEL 3.1.1

>  <MASTER>  (2) 
        0    0    0    0    0    0    0    0   56    0   56    0

>  <minimizedAffinity>  (2) 
-7.14982

>  <CNNscore>  (2) 
0.9144978523

>  <CNNaffinity>  (2) 
4.6858162880

>  <CNN_VS>  (2) 
4.2851691246

>  <CNNaffinity_variance>  (2) 
0.1621040255

$$$$
3
     RDKit          3D

 43 45  0  0  0  0  0  0  0  0999 V2000
   21.9672   73.2318   -5.3159 P   0  0  2  0  0  0  0  0  0  0  0  0
   21.7811   74.7486   -5.8486 O   0  0  0  0  0  0  0  0  0  0  0  0
   22.8453   72.3640   -6.1689 O   0  0  0  0  0  0  0  0  0  0  0  0
   20.4518   72.7056   -5.1045 O   0  0  0  0  0  0  0  0  0  0  0  0
   20.1395   72.0038   -3.9153 C   0  0  0  0  0  0  0  0  0  0  0  0
   18.0468   72.1230   -5.0918 O   0  0  0  0  0  0  0  0  0  0  0  0
   16.8695   70.6351   -2.7698 O   0  0  0  0  0  0  0  0  0  0  0  0
   17.1849   68.6727   -4.6368 O   0  0  0  0  0  0  0  0  0  0  0  0
   18.1596   70.5031   -3.3672 C   0  0  1  0  0  0  0  0  0  0  0  0
   18.0507   69.7869   -4.6966 C   0  0  2  0  0  0  0  0  0  0  0  0
   18.6257   71.8897   -3.7895 C   0  0  1  0  0  0  0  0  0  0  0  0
   17.5272   70.8861   -5.6052 C   0  0  2  0  0  0  0  0  0  0  0  0
   16.5507   69.7617   -2.4917 H   0  0  0  0  0  0  0  0  0  0  0  0
   17.5624   68.0012   -4.0464 H   0  0  0  0  0  0  0  0  0  0  0  0
   15.8052   70.3233   -7.7718 O   0  0  0  0  0  0  0  0  0  0  0  0
   19.2990   70.2932  -10.7779 O   0  0  0  0  0  0  0  0  0  0  0  0
   17.9603   70.7262   -6.9645 N   0  0  0  0  0  0  0  0  0  0  0  0
   17.5471   70.3078   -9.2668 N   0  0  0  0  0  0  0  0  0  0  0  0
   17.0141   70.4447   -7.9782 C   0  0  0  0  0  0  0  0  0  0  0  0
   19.3074   70.8497   -7.2823 C   0  0  0  0  0  0  0  0  0  0  0  0
   19.8003   70.7166   -8.5153 C   0  0  0  0  0  0  0  0  0  0  0  0
   18.8788   70.4212   -9.6319 C   0  0  0  0  0  0  0  0  0  0  0  0
   16.9079   70.1096   -9.9889 H   0  0  0  0  0  0  0  0  0  0  0  0
   22.4937   73.4409   -3.8020 O   0  0  0  0  0  0  0  0  0  0  0  0
   23.8346   74.1413   -3.2318 P   0  0  2  0  0  0  0  0  0  0  0  0
   23.3724   75.6714   -2.9757 O   0  0  0  0  0  0  0  0  0  0  0  0
   25.0320   73.9984   -4.1261 O   0  0  0  0  0  0  0  0  0  0  0  0
   24.0242   73.5207   -1.7548 O   0  0  0  0  0  0  0  0  0  0  0  0
   22.1064   73.1382   -0.4189 O   0  0  0  0  0  0  0  0  0  0  0  0
   25.1357   72.9416    2.3833 O   0  0  0  0  0  0  0  0  0  0  0  0
   25.1712   74.9952    0.3058 O   0  0  0  0  0  0  0  0  0  0  0  0
   23.8556   70.5061    1.4451 O   0  0  0  0  0  0  0  0  0  0  0  0
   24.5407   72.7892    1.0946 C   0  0  2  0  0  0  0  0  0  0  0  0
   24.0618   74.1499    0.5879 C   0  0  2  0  0  0  0  0  0  0  0  0
   23.3593   71.8259    1.2302 C   0  0  1  0  0  0  0  0  0  0  0  0
   23.2181   73.9961   -0.6783 C   0  0  1  0  0  0  0  0  0  0  0  0
   22.4954   71.8234   -0.0277 C   0  0  1  0  0  0  0  0  0  0  0  0
   25.8891   73.5498    2.3219 H   0  0  0  0  0  0  0  0  0  0  0  0
   25.7111   75.0969    1.1049 H   0  0  0  0  0  0  0  0  0  0  0  0
   24.4073   70.4939    2.2428 H   0  0  0  0  0  0  0  0  0  0  0  0
   20.8884   71.1705    1.5512 O   0  0  0  0  0  0  0  0  0  0  0  0
   20.4770   70.6463   -0.6294 O   0  0  0  0  0  0  0  0  0  0  0  0
   21.1872   71.1487    0.2287 C   0  0  0  0  0  0  0  0  0  0  0  0
  1  4  1  0
  1 24  1  0
  1  2  1  6
  1  3  2  0
 25 28  1  0
 25 24  1  0
 25 26  1  1
 25 27  2  0
  6 11  1  0
  6 12  1  0
 29 36  1  0
 29 37  1  0
  9  7  1  6
  7 13  1  0
 10  8  1  1
  8 14  1  0
  4  5  1  0
 36 28  1  6
 33 30  1  1
 30 38  1  0
 34 31  1  6
 31 39  1  0
 35 32  1  6
 32 40  1  0
 41 43  1  0
 15 19  2  0
 42 43  2  0
 16 22  2  0
 12 17  1  6
 17 19  1  0
 17 20  1  0
 18 19  1  0
 18 22  1  0
 18 23  1  0
  9 10  1  0
  9 11  1  0
 10 12  1  0
 11  5  1  6
 33 34  1  0
 33 35  1  0
 34 36  1  0
 35 37  1  0
 37 43  1  1
 20 21  2  0
 21 22  1  0
M  CHG  3   2  -1  26  -1  41  -1
M  END
>  <COMPND>  (3) 
    udp_gluA.pdb 

>  <AUTHOR>  (3) 
    GENERATED BY OPEN BABEL 3.1.1

>  <MASTER>  (3) 
        0    0    0    0    0    0    0    0   56    0   56    0

>  <minimizedAffinity>  (3) 
-7.57171

>  <CNNscore>  (3) 
0.8948694468

>  <CNNaffinity>  (3) 
4.7202849388

>  <CNN_VS>  (3) 
4.2240386009

>  <CNNaffinity_variance>  (3) 
0.0621157773

$$$$
4
     RDKit          3D

 43 45  0  0  0  0  0  0  0  0999 V2000
   21.1968   71.2975   -2.8643 P   0  0  2  0  0  0  0  0  0  0  0  0
   20.9807   70.0136   -3.8254 O   0  0  0  0  0  0  0  0  0  0  0  0
   22.0813   71.0577   -1.6760 O   0  0  0  0  0  0  0  0  0  0  0  0
   19.6924   71.7917   -2.5320 O   0  0  0  0  0  0  0  0  0  0  0  0
   18.9924   72.5343   -3.5134 C   0  0  0  0  0  0  0  0  0  0  0  0
   17.1014   72.1368   -4.9430 O   0  0  0  0  0  0  0  0  0  0  0  0
   16.0534   70.3744   -2.7551 O   0  0  0  0  0  0  0  0  0  0  0  0
   17.0826   68.5758   -4.5277 O   0  0  0  0  0  0  0  0  0  0  0  0
   17.3997   70.5778   -3.1848 C   0  0  1  0  0  0  0  0  0  0  0  0
   17.6416   69.8724   -4.5024 C   0  0  2  0  0  0  0  0  0  0  0  0
   17.5522   72.0418   -3.5744 C   0  0  1  0  0  0  0  0  0  0  0  0
   16.9774   70.8150   -5.4914 C   0  0  2  0  0  0  0  0  0  0  0  0
   15.9316   69.4458   -2.5009 H   0  0  0  0  0  0  0  0  0  0  0  0
   17.5394   68.0141   -3.8813 H   0  0  0  0  0  0  0  0  0  0  0  0
   15.6134   70.3184   -7.9141 O   0  0  0  0  0  0  0  0  0  0  0  0
   19.4820   70.7222  -10.3869 O   0  0  0  0  0  0  0  0  0  0  0  0
   17.6037   70.7846   -6.7828 N   0  0  0  0  0  0  0  0  0  0  0  0
   17.5417   70.5190   -9.1433 N   0  0  0  0  0  0  0  0  0  0  0  0
   16.8280   70.5260   -7.9376 C   0  0  0  0  0  0  0  0  0  0  0  0
   18.9700   71.0109   -6.8965 C   0  0  0  0  0  0  0  0  0  0  0  0
   19.6362   71.0011   -8.0527 C   0  0  0  0  0  0  0  0  0  0  0  0
   18.9000   70.7378   -9.3065 C   0  0  0  0  0  0  0  0  0  0  0  0
   17.0234   70.3391   -9.9608 H   0  0  0  0  0  0  0  0  0  0  0  0
   21.7338   72.4293   -3.8859 O   0  0  0  0  0  0  0  0  0  0  0  0
   22.9374   73.4997   -3.7469 P   0  0  2  0  0  0  0  0  0  0  0  0
   24.2559   72.6174   -4.0684 O   0  0  0  0  0  0  0  0  0  0  0  0
   22.9775   74.2132   -2.4266 O   0  0  0  0  0  0  0  0  0  0  0  0
   22.7735   74.4682   -5.0266 O   0  0  0  0  0  0  0  0  0  0  0  0
   21.1452   75.3783   -6.4858 O   0  0  0  0  0  0  0  0  0  0  0  0
   23.7499   73.5865   -9.1453 O   0  0  0  0  0  0  0  0  0  0  0  0
   23.0010   72.2335   -6.6668 O   0  0  0  0  0  0  0  0  0  0  0  0
   23.7588   76.4748   -8.8159 O   0  0  0  0  0  0  0  0  0  0  0  0
   23.3725   74.2616   -7.9454 C   0  0  2  0  0  0  0  0  0  0  0  0
   22.3707   73.4057   -7.1701 C   0  0  2  0  0  0  0  0  0  0  0  0
   22.7404   75.5998   -8.3346 C   0  0  1  0  0  0  0  0  0  0  0  0
   21.7706   74.1892   -6.0018 C   0  0  1  0  0  0  0  0  0  0  0  0
   22.0541   76.2595   -7.1419 C   0  0  1  0  0  0  0  0  0  0  0  0
   24.1541   72.7330   -8.9229 H   0  0  0  0  0  0  0  0  0  0  0  0
   23.3843   71.7317   -7.4028 H   0  0  0  0  0  0  0  0  0  0  0  0
   24.2036   76.0666   -9.5751 H   0  0  0  0  0  0  0  0  0  0  0  0
   20.9784   78.2679   -6.5845 O   0  0  0  0  0  0  0  0  0  0  0  0
   20.6888   77.4872   -8.7072 O   0  0  0  0  0  0  0  0  0  0  0  0
   21.1717   77.3788   -7.5900 C   0  0  0  0  0  0  0  0  0  0  0  0
  1  4  1  0
  1 24  1  0
  1  2  1  6
  1  3  2  0
 25 28  1  0
 25 24  1  0
 25 26  1  6
 25 27  2  0
  6 11  1  0
  6 12  1  0
 29 36  1  0
 29 37  1  0
  9  7  1  6
  7 13  1  0
 10  8  1  1
  8 14  1  0
  4  5  1  0
 36 28  1  1
 33 30  1  6
 30 38  1  0
 34 31  1  1
 31 39  1  0
 35 32  1  1
 32 40  1  0
 41 43  1  0
 15 19  2  0
 42 43  2  0
 16 22  2  0
 12 17  1  6
 17 19  1  0
 17 20  1  0
 18 19  1  0
 18 22  1  0
 18 23  1  0
  9 10  1  0
  9 11  1  0
 10 12  1  0
 11  5  1  6
 33 34  1  0
 33 35  1  0
 34 36  1  0
 35 37  1  0
 37 43  1  6
 20 21  2  0
 21 22  1  0
M  CHG  3   2  -1  26  -1  41  -1
M  END
>  <COMPND>  (4) 
    udp_gluA.pdb 

>  <AUTHOR>  (4) 
    GENERATED BY OPEN BABEL 3.1.1

>  <MASTER>  (4) 
        0    0    0    0    0    0    0    0   56    0   56    0

>  <minimizedAffinity>  (4) 
-7.17760

>  <CNNscore>  (4) 
0.8861903548

>  <CNNaffinity>  (4) 
4.6896328926

>  <CNN_VS>  (4) 
4.1559076309

>  <CNNaffinity_variance>  (4) 
0.1969834864

$$$$
5
     RDKit          3D

 43 45  0  0  0  0  0  0  0  0999 V2000
   21.8967   73.1714   -2.2382 P   0  0  2  0  0  0  0  0  0  0  0  0
   21.0389   74.4132   -1.6544 O   0  0  0  0  0  0  0  0  0  0  0  0
   23.3799   73.3936   -2.2878 O   0  0  0  0  0  0  0  0  0  0  0  0
   21.1878   72.8414   -3.6547 O   0  0  0  0  0  0  0  0  0  0  0  0
   20.5652   71.5809   -3.8218 C   0  0  0  0  0  0  0  0  0  0  0  0
   18.5081   72.1416   -4.9316 O   0  0  0  0  0  0  0  0  0  0  0  0
   17.1209   70.7953   -2.6393 O   0  0  0  0  0  0  0  0  0  0  0  0
   17.0240   68.8955   -4.5933 O   0  0  0  0  0  0  0  0  0  0  0  0
   18.3507   70.4524   -3.2786 C   0  0  1  0  0  0  0  0  0  0  0  0
   18.0820   69.8302   -4.6325 C   0  0  2  0  0  0  0  0  0  0  0  0
   19.0598   71.7455   -3.6572 C   0  0  1  0  0  0  0  0  0  0  0  0
   17.7553   71.0480   -5.4799 C   0  0  2  0  0  0  0  0  0  0  0  0
   16.6498   69.9849   -2.3881 H   0  0  0  0  0  0  0  0  0  0  0  0
   17.2810   68.1393   -4.0420 H   0  0  0  0  0  0  0  0  0  0  0  0
   16.0574   69.9590   -7.4567 O   0  0  0  0  0  0  0  0  0  0  0  0
   19.2697   70.4202  -10.7297 O   0  0  0  0  0  0  0  0  0  0  0  0
   18.1225   70.8722   -6.8565 N   0  0  0  0  0  0  0  0  0  0  0  0
   17.6593   70.1888   -9.0847 N   0  0  0  0  0  0  0  0  0  0  0  0
   17.1952   70.3154   -7.7688 C   0  0  0  0  0  0  0  0  0  0  0  0
   19.3870   71.2506   -7.2909 C   0  0  0  0  0  0  0  0  0  0  0  0
   19.8150   71.1239   -8.5485 C   0  0  0  0  0  0  0  0  0  0  0  0
   18.9080   70.5502   -9.5641 C   0  0  0  0  0  0  0  0  0  0  0  0
   17.0322   69.8018   -9.7376 H   0  0  0  0  0  0  0  0  0  0  0  0
   21.4316   71.9376   -1.3030 O   0  0  0  0  0  0  0  0  0  0  0  0
   21.9465   71.4555    0.1517 P   0  0  2  0  0  0  0  0  0  0  0  0
   23.4788   71.0137   -0.1261 O   0  0  0  0  0  0  0  0  0  0  0  0
   21.0997   70.3880    0.7820 O   0  0  0  0  0  0  0  0  0  0  0  0
   22.0644   72.8133    1.0148 O   0  0  0  0  0  0  0  0  0  0  0  0
   23.6908   73.6399    2.5250 O   0  0  0  0  0  0  0  0  0  0  0  0
   20.1800   74.9193    4.2873 O   0  0  0  0  0  0  0  0  0  0  0  0
   20.3721   72.2371    3.1456 O   0  0  0  0  0  0  0  0  0  0  0  0
   21.8646   76.8053    2.8533 O   0  0  0  0  0  0  0  0  0  0  0  0
   21.0423   74.5681    3.2051 C   0  0  2  0  0  0  0  0  0  0  0  0
   21.4774   73.1096    3.3501 C   0  0  2  0  0  0  0  0  0  0  0  0
   22.2600   75.4938    3.2511 C   0  0  1  0  0  0  0  0  0  0  0  0
   22.5771   72.7642    2.3450 C   0  0  1  0  0  0  0  0  0  0  0  0
   23.3625   75.0112    2.3130 C   0  0  1  0  0  0  0  0  0  0  0  0
   19.3989   74.3439    4.2784 H   0  0  0  0  0  0  0  0  0  0  0  0
   19.6704   72.4508    3.7799 H   0  0  0  0  0  0  0  0  0  0  0  0
   21.1631   77.1241    3.4424 H   0  0  0  0  0  0  0  0  0  0  0  0
   25.6535   75.2009    1.8474 O   0  0  0  0  0  0  0  0  0  0  0  0
   24.7870   76.6245    3.4035 O   0  0  0  0  0  0  0  0  0  0  0  0
   24.6496   75.7128    2.6017 C   0  0  0  0  0  0  0  0  0  0  0  0
  1  4  1  0
  1 24  1  0
  1  2  1  1
  1  3  2  0
 25 28  1  0
 25 24  1  0
 25 26  1  6
 25 27  2  0
  6 11  1  0
  6 12  1  0
 29 36  1  0
 29 37  1  0
  9  7  1  6
  7 13  1  0
 10  8  1  1
  8 14  1  0
  4  5  1  0
 36 28  1  6
 33 30  1  1
 30 38  1  0
 34 31  1  6
 31 39  1  0
 35 32  1  6
 32 40  1  0
 41 43  1  0
 15 19  2  0
 42 43  2  0
 16 22  2  0
 12 17  1  6
 17 19  1  0
 17 20  1  0
 18 19  1  0
 18 22  1  0
 18 23  1  0
  9 10  1  0
  9 11  1  0
 10 12  1  0
 11  5  1  6
 33 34  1  0
 33 35  1  0
 34 36  1  0
 35 37  1  0
 37 43  1  1
 20 21  2  0
 21 22  1  0
M  CHG  3   2  -1  26  -1  41  -1
M  END
>  <COMPND>  (5) 
    udp_gluA.pdb 

>  <AUTHOR>  (5) 
    GENERATED BY OPEN BABEL 3.1.1

>  <MASTER>  (5) 
        0    0    0    0    0    0    0    0   56    0   56    0

>  <minimizedAffinity>  (5) 
-6.69852

>  <CNNscore>  (5) 
0.8758825064

>  <CNNaffinity>  (5) 
4.6460595131

>  <CNN_VS>  (5) 
4.0694022179

>  <CNNaffinity_variance>  (5) 
0.0704774112

$$$$
6
     RDKit          3D

 43 45  0  0  0  0  0  0  0  0999 V2000
   23.0085   71.7541   -2.7067 P   0  0  2  0  0  0  0  0  0  0  0  0
   23.0854   73.3507   -2.4546 O   0  0  0  0  0  0  0  0  0  0  0  0
   24.2802   71.1285   -3.1999 O   0  0  0  0  0  0  0  0  0  0  0  0
   21.7186   71.5740   -3.6667 O   0  0  0  0  0  0  0  0  0  0  0  0
   20.8728   70.4574   -3.4603 C   0  0  0  0  0  0  0  0  0  0  0  0
   18.9983   71.6796   -4.3381 O   0  0  0  0  0  0  0  0  0  0  0  0
   17.3656   70.3393   -2.2098 O   0  0  0  0  0  0  0  0  0  0  0  0
   16.7602   68.8803   -4.4326 O   0  0  0  0  0  0  0  0  0  0  0  0
   18.4584   69.8229   -2.9698 C   0  0  1  0  0  0  0  0  0  0  0  0
   18.0165   69.5238   -4.3867 C   0  0  2  0  0  0  0  0  0  0  0  0
   19.4593   70.9509   -3.1796 C   0  0  1  0  0  0  0  0  0  0  0  0
   17.9863   70.9103   -5.0069 C   0  0  2  0  0  0  0  0  0  0  0  0
   16.7128   69.6365   -2.0630 H   0  0  0  0  0  0  0  0  0  0  0  0
   16.8319   68.0019   -4.0262 H   0  0  0  0  0  0  0  0  0  0  0  0
   16.0500   71.2691   -7.0314 O   0  0  0  0  0  0  0  0  0  0  0  0
   19.1913   70.8034  -10.3720 O   0  0  0  0  0  0  0  0  0  0  0  0
   18.2708   70.8876   -6.4139 N   0  0  0  0  0  0  0  0  0  0  0  0
   17.6163   71.0358   -8.6933 N   0  0  0  0  0  0  0  0  0  0  0  0
   17.2256   71.0783   -7.3484 C   0  0  0  0  0  0  0  0  0  0  0  0
   19.5720   70.6800   -6.8551 C   0  0  0  0  0  0  0  0  0  0  0  0
   19.9289   70.6423   -8.1404 C   0  0  0  0  0  0  0  0  0  0  0  0
   18.8970   70.8318   -9.1809 C   0  0  0  0  0  0  0  0  0  0  0  0
   16.9056   71.1640   -9.3626 H   0  0  0  0  0  0  0  0  0  0  0  0
   22.4861   71.1871   -1.2859 O   0  0  0  0  0  0  0  0  0  0  0  0
   21.6928   71.9147   -0.0797 P   0  0  2  0  0  0  0  0  0  0  0  0
   21.2646   70.6819    0.8780 O   0  0  0  0  0  0  0  0  0  0  0  0
   20.5480   72.7767   -0.5272 O   0  0  0  0  0  0  0  0  0  0  0  0
   22.8353   72.6961    0.7489 O   0  0  0  0  0  0  0  0  0  0  0  0
   22.3222   74.1223    2.5688 O   0  0  0  0  0  0  0  0  0  0  0  0
   26.0821   75.4531    1.4918 O   0  0  0  0  0  0  0  0  0  0  0  0
   24.0990   74.8043   -0.5529 O   0  0  0  0  0  0  0  0  0  0  0  0
   25.7414   73.8033    3.8609 O   0  0  0  0  0  0  0  0  0  0  0  0
   25.0386   74.4940    1.6623 C   0  0  2  0  0  0  0  0  0  0  0  0
   23.8202   74.9114    0.8383 C   0  0  2  0  0  0  0  0  0  0  0  0
   24.6826   74.4419    3.1498 C   0  0  1  0  0  0  0  0  0  0  0  0
   22.6091   74.0394    1.1722 C   0  0  1  0  0  0  0  0  0  0  0  0
   23.3942   73.6596    3.3872 C   0  0  1  0  0  0  0  0  0  0  0  0
   26.3250   75.5036    0.5538 H   0  0  0  0  0  0  0  0  0  0  0  0
   24.8666   75.3549   -0.7718 H   0  0  0  0  0  0  0  0  0  0  0  0
   26.5674   74.2914    3.7180 H   0  0  0  0  0  0  0  0  0  0  0  0
   21.5771   73.5317    4.8648 O   0  0  0  0  0  0  0  0  0  0  0  0
   23.5418   74.3333    5.6993 O   0  0  0  0  0  0  0  0  0  0  0  0
   22.8821   73.8886    4.7719 C   0  0  0  0  0  0  0  0  0  0  0  0
  1  4  1  0
  1 24  1  0
  1  2  1  1
  1  3  2  0
 25 28  1  0
 25 24  1  0
 25 26  1  1
 25 27  2  0
  6 11  1  0
  6 12  1  0
 29 36  1  0
 29 37  1  0
  9  7  1  1
  7 13  1  0
 10  8  1  1
  8 14  1  0
  4  5  1  0
 36 28  1  1
 33 30  1  1
 30 38  1  0
 34 31  1  6
 31 39  1  0
 35 32  1  1
 32 40  1  0
 41 43  1  0
 15 19  2  0
 42 43  2  0
 16 22  2  0
 12 17  1  6
 17 19  1  0
 17 20  1  0
 18 19  1  0
 18 22  1  0
 18 23  1  0
  9 10  1  0
  9 11  1  0
 10 12  1  0
 11  5  1  6
 33 34  1  0
 33 35  1  0
 34 36  1  0
 35 37  1  0
 37 43  1  1
 20 21  2  0
 21 22  1  0
M  CHG  3   2  -1  26  -1  41  -1
M  END
>  <COMPND>  (6) 
    udp_gluA.pdb 

>  <AUTHOR>  (6) 
    GENERATED BY OPEN BABEL 3.1.1

>  <MASTER>  (6) 
        0    0    0    0    0    0    0    0   56    0   56    0

>  <minimizedAffinity>  (6) 
-6.96230

>  <CNNscore>  (6) 
0.8612795472

>  <CNNaffinity>  (6) 
4.6539902687

>  <CNN_VS>  (6) 
4.0083866119

>  <CNNaffinity_variance>  (6) 
0.0491288863

$$$$
7
     RDKit          3D

 43 45  0  0  0  0  0  0  0  0999 V2000
   21.1742   72.3129   -4.6126 P   0  0  2  0  0  0  0  0  0  0  0  0
   20.5061   73.7579   -4.3219 O   0  0  0  0  0  0  0  0  0  0  0  0
   22.1737   72.2907   -5.7316 O   0  0  0  0  0  0  0  0  0  0  0  0
   19.9043   71.3253   -4.7851 O   0  0  0  0  0  0  0  0  0  0  0  0
   19.2631   70.8386   -3.6204 C   0  0  0  0  0  0  0  0  0  0  0  0
   17.5097   71.6974   -5.0225 O   0  0  0  0  0  0  0  0  0  0  0  0
   15.6284   70.0679   -3.3500 O   0  0  0  0  0  0  0  0  0  0  0  0
   15.9207   68.5331   -5.5849 O   0  0  0  0  0  0  0  0  0  0  0  0
   16.9606   69.7662   -3.7655 C   0  0  1  0  0  0  0  0  0  0  0  0
   16.9809   69.3976   -5.2339 C   0  0  2  0  0  0  0  0  0  0  0  0
   17.7618   71.0609   -3.7510 C   0  0  1  0  0  0  0  0  0  0  0  0
   16.8721   70.7576   -5.9020 C   0  0  2  0  0  0  0  0  0  0  0  0
   15.0972   69.2559   -3.3514 H   0  0  0  0  0  0  0  0  0  0  0  0
   16.0356   67.6811   -5.1345 H   0  0  0  0  0  0  0  0  0  0  0  0
   16.4100   72.7253   -7.8747 O   0  0  0  0  0  0  0  0  0  0  0  0
   19.4414   70.8010  -10.7645 O   0  0  0  0  0  0  0  0  0  0  0  0
   17.5270   70.7948   -7.1790 N   0  0  0  0  0  0  0  0  0  0  0  0
   17.9195   71.7644   -9.3125 N   0  0  0  0  0  0  0  0  0  0  0  0
   17.2230   71.8264   -8.0984 C   0  0  0  0  0  0  0  0  0  0  0  0
   18.4593   69.8186   -7.5089 C   0  0  0  0  0  0  0  0  0  0  0  0
   19.1153   69.7728   -8.6701 C   0  0  0  0  0  0  0  0  0  0  0  0
   18.8550   70.8134   -9.6865 C   0  0  0  0  0  0  0  0  0  0  0  0
   17.7231   72.4709   -9.9695 H   0  0  0  0  0  0  0  0  0  0  0  0
   21.7691   71.8913   -3.1700 O   0  0  0  0  0  0  0  0  0  0  0  0
   23.2489   72.0607   -2.5413 P   0  0  2  0  0  0  0  0  0  0  0  0
   23.6913   73.5392   -3.0300 O   0  0  0  0  0  0  0  0  0  0  0  0
   24.2083   70.9706   -2.9223 O   0  0  0  0  0  0  0  0  0  0  0  0
   23.0043   72.2128   -0.9540 O   0  0  0  0  0  0  0  0  0  0  0  0
   24.3643   71.1658    0.6780 O   0  0  0  0  0  0  0  0  0  0  0  0
   20.8726   71.8198    2.7871 O   0  0  0  0  0  0  0  0  0  0  0  0
   20.7792   70.8637    0.0282 O   0  0  0  0  0  0  0  0  0  0  0  0
   23.1926   73.5104    3.2456 O   0  0  0  0  0  0  0  0  0  0  0  0
   21.8749   72.0949    1.8085 C   0  0  2  0  0  0  0  0  0  0  0  0
   21.9590   70.9310    0.8208 C   0  0  2  0  0  0  0  0  0  0  0  0
   23.2095   72.2733    2.5358 C   0  0  1  0  0  0  0  0  0  0  0  0
   23.1701   71.0818   -0.1007 C   0  0  1  0  0  0  0  0  0  0  0  0
   24.3798   72.2887    1.5566 C   0  0  1  0  0  0  0  0  0  0  0  0
   20.0153   71.7025    2.3481 H   0  0  0  0  0  0  0  0  0  0  0  0
   20.0066   70.7682    0.6065 H   0  0  0  0  0  0  0  0  0  0  0  0
   22.4521   73.5136    3.8721 H   0  0  0  0  0  0  0  0  0  0  0  0
   26.2607   70.9481    1.9645 O   0  0  0  0  0  0  0  0  0  0  0  0
   26.1572   72.9520    3.0473 O   0  0  0  0  0  0  0  0  0  0  0  0
   25.6780   72.1315    2.2792 C   0  0  0  0  0  0  0  0  0  0  0  0
  1  4  1  0
  1 24  1  0
  1  2  1  1
  1  3  2  0
 25 28  1  0
 25 24  1  0
 25 26  1  6
 25 27  2  0
  6 11  1  0
  6 12  1  0
 29 36  1  0
 29 37  1  0
  9  7  1  6
  7 13  1  0
 10  8  1  1
  8 14  1  0
  4  5  1  0
 36 28  1  1
 33 30  1  1
 30 38  1  0
 34 31  1  6
 31 39  1  0
 35 32  1  6
 32 40  1  0
 41 43  1  0
 15 19  2  0
 42 43  2  0
 16 22  2  0
 12 17  1  6
 17 19  1  0
 17 20  1  0
 18 19  1  0
 18 22  1  0
 18 23  1  0
  9 10  1  0
  9 11  1  0
 10 12  1  0
 11  5  1  6
 33 34  1  0
 33 35  1  0
 34 36  1  0
 35 37  1  0
 37 43  1  1
 20 21  2  0
 21 22  1  0
M  CHG  3   2  -1  26  -1  41  -1
M  END
>  <COMPND>  (7) 
    udp_gluA.pdb 

>  <AUTHOR>  (7) 
    GENERATED BY OPEN BABEL 3.1.1

>  <MASTER>  (7) 
        0    0    0    0    0    0    0    0   56    0   56    0

>  <minimizedAffinity>  (7) 
-8.09873

>  <CNNscore>  (7) 
0.8398574591

>  <CNNaffinity>  (7) 
4.6006021500

>  <CNN_VS>  (7) 
3.8638501167

>  <CNNaffinity_variance>  (7) 
0.0937462226

$$$$
8
     RDKit          3D

 43 45  0  0  0  0  0  0  0  0999 V2000
   20.6233   71.3035   -1.1295 P   0  0  2  0  0  0  0  0  0  0  0  0
   20.8554   70.6582    0.3363 O   0  0  0  0  0  0  0  0  0  0  0  0
   19.9573   72.6482   -1.1316 O   0  0  0  0  0  0  0  0  0  0  0  0
   19.8566   70.1385   -1.9499 O   0  0  0  0  0  0  0  0  0  0  0  0
   19.4976   70.3845   -3.2972 C   0  0  0  0  0  0  0  0  0  0  0  0
   17.7762   71.4584   -4.5861 O   0  0  0  0  0  0  0  0  0  0  0  0
   15.8225   69.8964   -2.9324 O   0  0  0  0  0  0  0  0  0  0  0  0
   15.9134   68.4688   -5.2540 O   0  0  0  0  0  0  0  0  0  0  0  0
   17.1108   69.5114   -3.4125 C   0  0  1  0  0  0  0  0  0  0  0  0
   17.0524   69.2240   -4.8978 C   0  0  2  0  0  0  0  0  0  0  0  0
   18.0164   70.7343   -3.3600 C   0  0  1  0  0  0  0  0  0  0  0  0
   17.0346   70.6232   -5.4893 C   0  0  2  0  0  0  0  0  0  0  0  0
   15.2262   69.1312   -2.9566 H   0  0  0  0  0  0  0  0  0  0  0  0
   15.9721   67.5867   -4.8534 H   0  0  0  0  0  0  0  0  0  0  0  0
   15.6648   70.1910   -7.9211 O   0  0  0  0  0  0  0  0  0  0  0  0
   19.4896   70.8575  -10.4052 O   0  0  0  0  0  0  0  0  0  0  0  0
   17.6481   70.6778   -6.7861 N   0  0  0  0  0  0  0  0  0  0  0  0
   17.5713   70.5224   -9.1559 N   0  0  0  0  0  0  0  0  0  0  0  0
   16.8705   70.4452   -7.9451 C   0  0  0  0  0  0  0  0  0  0  0  0
   19.0037   70.9606   -6.9006 C   0  0  0  0  0  0  0  0  0  0  0  0
   19.6577   71.0309   -8.0617 C   0  0  0  0  0  0  0  0  0  0  0  0
   18.9187   70.7998   -9.3202 C   0  0  0  0  0  0  0  0  0  0  0  0
   17.0515   70.3620   -9.9766 H   0  0  0  0  0  0  0  0  0  0  0  0
   22.1060   71.2855   -1.7729 O   0  0  0  0  0  0  0  0  0  0  0  0
   22.9348   72.4279   -2.5616 P   0  0  2  0  0  0  0  0  0  0  0  0
   24.0278   71.5788   -3.4010 O   0  0  0  0  0  0  0  0  0  0  0  0
   23.5229   73.4858   -1.6734 O   0  0  0  0  0  0  0  0  0  0  0  0
   21.9081   72.9833   -3.6750 O   0  0  0  0  0  0  0  0  0  0  0  0
   22.6318   75.1487   -4.3045 O   0  0  0  0  0  0  0  0  0  0  0  0
   19.2819   74.6607   -6.6725 O   0  0  0  0  0  0  0  0  0  0  0  0
   19.2586   73.8045   -3.8795 O   0  0  0  0  0  0  0  0  0  0  0  0
   21.9365   74.4213   -7.8328 O   0  0  0  0  0  0  0  0  0  0  0  0
   20.4410   74.2414   -5.9524 C   0  0  2  0  0  0  0  0  0  0  0  0
   20.2809   74.5958   -4.4738 C   0  0  2  0  0  0  0  0  0  0  0  0
   21.6529   74.9643   -6.5448 C   0  0  1  0  0  0  0  0  0  0  0  0
   21.5888   74.3730   -3.7130 C   0  0  1  0  0  0  0  0  0  0  0  0
   22.8869   74.7977   -5.6627 C   0  0  1  0  0  0  0  0  0  0  0  0
   18.4989   74.2142   -6.3134 H   0  0  0  0  0  0  0  0  0  0  0  0
   18.4259   73.9408   -4.3574 H   0  0  0  0  0  0  0  0  0  0  0  0
   21.1589   74.5208   -8.4041 H   0  0  0  0  0  0  0  0  0  0  0  0
   25.0040   75.6957   -5.2013 O   0  0  0  0  0  0  0  0  0  0  0  0
   23.9081   76.5026   -7.0308 O   0  0  0  0  0  0  0  0  0  0  0  0
   23.9582   75.7595   -6.0622 C   0  0  0  0  0  0  0  0  0  0  0  0
  1  4  1  0
  1 24  1  0
  1  2  1  1
  1  3  2  0
 25 28  1  0
 25 24  1  0
 25 26  1  6
 25 27  2  0
  6 11  1  0
  6 12  1  0
 29 36  1  0
 29 37  1  0
  9  7  1  6
  7 13  1  0
 10  8  1  1
  8 14  1  0
  4  5  1  0
 36 28  1  6
 33 30  1  6
 30 38  1  0
 34 31  1  1
 31 39  1  0
 35 32  1  6
 32 40  1  0
 41 43  1  0
 15 19  2  0
 42 43  2  0
 16 22  2  0
 12 17  1  6
 17 19  1  0
 17 20  1  0
 18 19  1  0
 18 22  1  0
 18 23  1  0
  9 10  1  0
  9 11  1  0
 10 12  1  0
 11  5  1  6
 33 34  1  0
 33 35  1  0
 34 36  1  0
 35 37  1  0
 37 43  1  6
 20 21  2  0
 21 22  1  0
M  CHG  3   2  -1  26  -1  41  -1
M  END
>  <COMPND>  (8) 
    udp_gluA.pdb 

>  <AUTHOR>  (8) 
    GENERATED BY OPEN BABEL 3.1.1

>  <MASTER>  (8) 
        0    0    0    0    0    0    0    0   56    0   56    0

>  <minimizedAffinity>  (8) 
-7.53265

>  <CNNscore>  (8) 
0.7941966653

>  <CNNaffinity>  (8) 
4.4866518974

>  <CNN_VS>  (8) 
3.5632839203

>  <CNNaffinity_variance>  (8) 
0.5187631249

$$$$
9
     RDKit          3D

 43 45  0  0  0  0  0  0  0  0999 V2000
   21.8659   72.6686   -5.5467 P   0  0  2  0  0  0  0  0  0  0  0  0
   21.1898   74.1295   -5.3811 O   0  0  0  0  0  0  0  0  0  0  0  0
   23.1495   72.6489   -6.3238 O   0  0  0  0  0  0  0  0  0  0  0  0
   20.6713   71.7526   -6.1399 O   0  0  0  0  0  0  0  0  0  0  0  0
   20.1447   72.0709   -7.4150 C   0  0  0  0  0  0  0  0  0  0  0  0
   18.9730   70.0238   -6.9523 O   0  0  0  0  0  0  0  0  0  0  0  0
   18.2314   70.0092   -9.8577 O   0  0  0  0  0  0  0  0  0  0  0  0
   15.9615   70.9411   -8.6680 O   0  0  0  0  0  0  0  0  0  0  0  0
   18.3684   71.1155   -8.9656 C   0  0  1  0  0  0  0  0  0  0  0  0
   17.1921   71.1703   -8.0141 C   0  0  2  0  0  0  0  0  0  0  0  0
   19.5269   70.8185   -8.0233 C   0  0  1  0  0  0  0  0  0  0  0  0
   17.5391   70.0750   -7.0202 C   0  0  2  0  0  0  0  0  0  0  0  0
   17.4970   70.1760  -10.4697 H   0  0  0  0  0  0  0  0  0  0  0  0
   15.7857   71.6655   -9.2895 H   0  0  0  0  0  0  0  0  0  0  0  0
   16.3781   68.1237   -5.3407 O   0  0  0  0  0  0  0  0  0  0  0  0
   15.5759   71.2056   -2.0087 O   0  0  0  0  0  0  0  0  0  0  0  0
   17.0187   70.3401   -5.7088 N   0  0  0  0  0  0  0  0  0  0  0  0
   15.9787   69.6607   -3.6832 N   0  0  0  0  0  0  0  0  0  0  0  0
   16.4560   69.2889   -4.9469 C   0  0  0  0  0  0  0  0  0  0  0  0
   17.0702   71.6280   -5.1894 C   0  0  0  0  0  0  0  0  0  0  0  0
   16.6112   71.9670   -3.9831 C   0  0  0  0  0  0  0  0  0  0  0  0
   16.0072   70.9278   -3.1236 C   0  0  0  0  0  0  0  0  0  0  0  0
   15.5806   68.9462   -3.1351 H   0  0  0  0  0  0  0  0  0  0  0  0
   21.9951   72.1533   -4.0201 O   0  0  0  0  0  0  0  0  0  0  0  0
   23.2377   72.1965   -2.9868 P   0  0  2  0  0  0  0  0  0  0  0  0
   23.8447   73.6818   -3.2001 O   0  0  0  0  0  0  0  0  0  0  0  0
   24.2334   71.0887   -3.1745 O   0  0  0  0  0  0  0  0  0  0  0  0
   22.5541   72.2419   -1.5262 O   0  0  0  0  0  0  0  0  0  0  0  0
   23.8974   71.1756    0.1071 O   0  0  0  0  0  0  0  0  0  0  0  0
   20.4784   72.0352    2.2611 O   0  0  0  0  0  0  0  0  0  0  0  0
   20.2908   71.0173   -0.4708 O   0  0  0  0  0  0  0  0  0  0  0  0
   22.8788   73.6317    2.6354 O   0  0  0  0  0  0  0  0  0  0  0  0
   21.4731   72.2416    1.2581 C   0  0  2  0  0  0  0  0  0  0  0  0
   21.4872   71.0514    0.2987 C   0  0  2  0  0  0  0  0  0  0  0  0
   22.8278   72.3782    1.9567 C   0  0  1  0  0  0  0  0  0  0  0  0
   22.6861   71.1258   -0.6478 C   0  0  1  0  0  0  0  0  0  0  0  0
   23.9789   72.3178    0.9568 C   0  0  1  0  0  0  0  0  0  0  0  0
   19.6087   71.9455    1.8405 H   0  0  0  0  0  0  0  0  0  0  0  0
   19.5259   70.9704    0.1234 H   0  0  0  0  0  0  0  0  0  0  0  0
   22.1512   73.6831    3.2748 H   0  0  0  0  0  0  0  0  0  0  0  0
   25.7748   70.8807    1.4163 O   0  0  0  0  0  0  0  0  0  0  0  0
   25.8366   72.9567    2.3575 O   0  0  0  0  0  0  0  0  0  0  0  0
   25.2824   72.1206    1.6597 C   0  0  0  0  0  0  0  0  0  0  0  0
  1  4  1  0
  1 24  1  0
  1  2  1  1
  1  3  2  0
 25 28  1  0
 25 24  1  0
 25 26  1  6
 25 27  2  0
  6 11  1  0
  6 12  1  0
 29 36  1  0
 29 37  1  0
  9  7  1  6
  7 13  1  0
 10  8  1  6
  8 14  1  0
  4  5  1  0
 36 28  1  1
 33 30  1  1
 30 38  1  0
 34 31  1  6
 31 39  1  0
 35 32  1  6
 32 40  1  0
 41 43  1  0
 15 19  2  0
 42 43  2  0
 16 22  2  0
 12 17  1  1
 17 19  1  0
 17 20  1  0
 18 19  1  0
 18 22  1  0
 18 23  1  0
  9 10  1  0
  9 11  1  0
 10 12  1  0
 11  5  1  1
 33 34  1  0
 33 35  1  0
 34 36  1  0
 35 37  1  0
 37 43  1  1
 20 21  2  0
 21 22  1  0
M  CHG  3   2  -1  26  -1  41  -1
M  END
>  <COMPND>  (9) 
    udp_gluA.pdb 

>  <AUTHOR>  (9) 
    GENERATED BY OPEN BABEL 3.1.1

>  <MASTER>  (9) 
        0    0    0    0    0    0    0    0   56    0   56    0

>  <minimizedAffinity>  (9) 
-8.18417

>  <CNNscore>  (9) 
0.7754529119

>  <CNNaffinity>  (9) 
4.6215200424

>  <CNN_VS>  (9) 
3.5837712288

>  <CNNaffinity_variance>  (9) 
0.1148820370

$$$$
10
     RDKit          3D

 43 45  0  0  0  0  0  0  0  0999 V2000
   22.6333   72.1284   -3.3543 P   0  0  2  0  0  0  0  0  0  0  0  0
   21.9924   71.0783   -2.3029 O   0  0  0  0  0  0  0  0  0  0  0  0
   24.0592   71.8548   -3.7335 O   0  0  0  0  0  0  0  0  0  0  0  0
   22.3497   73.5728   -2.6826 O   0  0  0  0  0  0  0  0  0  0  0  0
   23.3653   74.5574   -2.7424 C   0  0  0  0  0  0  0  0  0  0  0  0
   22.8196   74.8879   -0.4249 O   0  0  0  0  0  0  0  0  0  0  0  0
   23.8839   77.6707   -0.7634 O   0  0  0  0  0  0  0  0  0  0  0  0
   25.9511   76.3880    0.4684 O   0  0  0  0  0  0  0  0  0  0  0  0
   24.3390   76.4516   -1.3508 C   0  0  1  0  0  0  0  0  0  0  0  0
   25.0719   75.6160   -0.3227 C   0  0  2  0  0  0  0  0  0  0  0  0
   23.1195   75.5905   -1.6503 C   0  0  1  0  0  0  0  0  0  0  0  0
   23.9250   75.0281    0.4816 C   0  0  2  0  0  0  0  0  0  0  0  0
   24.6456   78.2376   -0.5631 H   0  0  0  0  0  0  0  0  0  0  0  0
   26.6634   76.7396   -0.0892 H   0  0  0  0  0  0  0  0  0  0  0  0
   25.2403   74.6292    2.9489 O   0  0  0  0  0  0  0  0  0  0  0  0
   25.0991   70.0451    2.4911 O   0  0  0  0  0  0  0  0  0  0  0  0
   24.2444   73.7409    1.0312 N   0  0  0  0  0  0  0  0  0  0  0  0
   25.1696   72.3464    2.7181 N   0  0  0  0  0  0  0  0  0  0  0  0
   24.9069   73.6505    2.2782 C   0  0  0  0  0  0  0  0  0  0  0  0
   23.9009   72.5864    0.3384 C   0  0  0  0  0  0  0  0  0  0  0  0
   24.1578   71.3503    0.7705 C   0  0  0  0  0  0  0  0  0  0  0  0
   24.8481   71.1680    2.0643 C   0  0  0  0  0  0  0  0  0  0  0  0
   25.6319   72.2581    3.5828 H   0  0  0  0  0  0  0  0  0  0  0  0
   21.5893   72.0899   -4.5877 O   0  0  0  0  0  0  0  0  0  0  0  0
   20.4905   73.1677   -5.0823 P   0  0  2  0  0  0  0  0  0  0  0  0
   21.3941   74.3585   -5.7036 O   0  0  0  0  0  0  0  0  0  0  0  0
   19.5362   73.6102   -4.0111 O   0  0  0  0  0  0  0  0  0  0  0  0
   19.7888   72.4793   -6.3614 O   0  0  0  0  0  0  0  0  0  0  0  0
   19.0744   70.2429   -6.0496 O   0  0  0  0  0  0  0  0  0  0  0  0
   18.6841   70.6877  -10.1384 O   0  0  0  0  0  0  0  0  0  0  0  0
   21.0203   71.7579   -8.7487 O   0  0  0  0  0  0  0  0  0  0  0  0
   16.3285   70.7238   -8.4352 O   0  0  0  0  0  0  0  0  0  0  0  0
   18.6819   71.1119   -8.7753 C   0  0  2  0  0  0  0  0  0  0  0  0
   20.0645   70.8802   -8.1650 C   0  0  2  0  0  0  0  0  0  0  0  0
   17.6262   70.2947   -8.0273 C   0  0  1  0  0  0  0  0  0  0  0  0
   20.0396   71.1056   -6.6526 C   0  0  1  0  0  0  0  0  0  0  0  0
   17.7478   70.4765   -6.5171 C   0  0  1  0  0  0  0  0  0  0  0  0
   19.3477   71.1935  -10.6335 H   0  0  0  0  0  0  0  0  0  0  0  0
   21.0412   71.6204   -9.7084 H   0  0  0  0  0  0  0  0  0  0  0  0
   16.2381   70.6134   -9.3946 H   0  0  0  0  0  0  0  0  0  0  0  0
   17.3274   69.3705   -4.4919 O   0  0  0  0  0  0  0  0  0  0  0  0
   16.0739   68.7533   -6.2938 O   0  0  0  0  0  0  0  0  0  0  0  0
   16.9496   69.4422   -5.7923 C   0  0  0  0  0  0  0  0  0  0  0  0
  1  4  1  0
  1 24  1  0
  1  2  1  1
  1  3  2  0
 25 28  1  0
 25 24  1  0
 25 26  1  6
 25 27  2  0
  6 11  1  0
  6 12  1  0
 29 36  1  0
 29 37  1  0
  9  7  1  1
  7 13  1  0
 10  8  1  1
  8 14  1  0
  4  5  1  0
 36 28  1  6
 33 30  1  6
 30 38  1  0
 34 31  1  6
 31 39  1  0
 35 32  1  6
 32 40  1  0
 41 43  1  0
 15 19  2  0
 42 43  2  0
 16 22  2  0
 12 17  1  6
 17 19  1  0
 17 20  1  0
 18 19  1  0
 18 22  1  0
 18 23  1  0
  9 10  1  0
  9 11  1  0
 10 12  1  0
 11  5  1  6
 33 34  1  0
 33 35  1  0
 34 36  1  0
 35 37  1  0
 37 43  1  1
 20 21  2  0
 21 22  1  0
M  CHG  3   2  -1  26  -1  41  -1
M  END
>  <COMPND>  (10) 
    udp_gluA.pdb 

>  <AUTHOR>  (10) 
    GENERATED BY OPEN BABEL 3.1.1

>  <MASTER>  (10) 
        0    0    0    0    0    0    0    0   56    0   56    0

>  <minimizedAffinity>  (10) 
-6.97107

>  <CNNscore>  (10) 
0.7621418238

>  <CNNaffinity>  (10) 
4.3343620300

>  <CNN_VS>  (10) 
3.3033986092

>  <CNNaffinity_variance>  (10) 
0.0809571296

$$$$
11
     RDKit          3D

 43 45  0  0  0  0  0  0  0  0999 V2000
   23.5264   73.7503   -4.0029 P   0  0  2  0  0  0  0  0  0  0  0  0
   24.2757   72.3226   -4.1402 O   0  0  0  0  0  0  0  0  0  0  0  0
   24.2512   74.9085   -4.6233 O   0  0  0  0  0  0  0  0  0  0  0  0
   23.2224   73.8788   -2.4189 O   0  0  0  0  0  0  0  0  0  0  0  0
   21.9041   73.6391   -1.9617 C   0  0  0  0  0  0  0  0  0  0  0  0
   23.0089   71.7159   -1.0354 O   0  0  0  0  0  0  0  0  0  0  0  0
   20.2716   70.5412   -0.6904 O   0  0  0  0  0  0  0  0  0  0  0  0
   20.8658   71.4159    1.8231 O   0  0  0  0  0  0  0  0  0  0  0  0
   20.6967   71.8974   -0.5542 C   0  0  1  0  0  0  0  0  0  0  0  0
   21.4737   72.0764    0.7328 C   0  0  2  0  0  0  0  0  0  0  0  0
   21.7618   72.1641   -1.6091 C   0  0  1  0  0  0  0  0  0  0  0  0
   22.8251   71.4845    0.3703 C   0  0  2  0  0  0  0  0  0  0  0  0
   19.5908   70.3472   -0.0267 H   0  0  0  0  0  0  0  0  0  0  0  0
   20.0090   71.8296    2.0148 H   0  0  0  0  0  0  0  0  0  0  0  0
   24.7146   70.0749    1.9256 O   0  0  0  0  0  0  0  0  0  0  0  0
   26.9215   73.9509    3.0875 O   0  0  0  0  0  0  0  0  0  0  0  0
   23.9039   72.1004    1.0898 N   0  0  0  0  0  0  0  0  0  0  0  0
   25.8114   72.0068    2.5036 N   0  0  0  0  0  0  0  0  0  0  0  0
   24.7978   71.3017    1.8415 C   0  0  0  0  0  0  0  0  0  0  0  0
   24.0691   73.4794    1.0455 C   0  0  0  0  0  0  0  0  0  0  0  0
   25.0402   74.1373    1.6818 C   0  0  0  0  0  0  0  0  0  0  0  0
   26.0160   73.3770    2.4901 C   0  0  0  0  0  0  0  0  0  0  0  0
   26.4448   71.4723    3.0351 H   0  0  0  0  0  0  0  0  0  0  0  0
   22.0661   73.4556   -4.6303 O   0  0  0  0  0  0  0  0  0  0  0  0
   21.5393   73.4972   -6.1582 P   0  0  2  0  0  0  0  0  0  0  0  0
   22.6664   72.6575   -6.9611 O   0  0  0  0  0  0  0  0  0  0  0  0
   21.3029   74.8809   -6.6906 O   0  0  0  0  0  0  0  0  0  0  0  0
   20.2375   72.5445   -6.1683 O   0  0  0  0  0  0  0  0  0  0  0  0
   19.8486   70.3525   -5.3601 O   0  0  0  0  0  0  0  0  0  0  0  0
   17.5843   70.3886   -8.8155 O   0  0  0  0  0  0  0  0  0  0  0  0
   20.2493   71.5848   -8.7788 O   0  0  0  0  0  0  0  0  0  0  0  0
   16.2906   70.6015   -6.2209 O   0  0  0  0  0  0  0  0  0  0  0  0
   18.1970   70.9466   -7.6531 C   0  0  2  0  0  0  0  0  0  0  0  0
   19.7135   70.7727   -7.7405 C   0  0  2  0  0  0  0  0  0  0  0  0
   17.6466   70.2113   -6.4291 C   0  0  1  0  0  0  0  0  0  0  0  0
   20.3843   71.1479   -6.4184 C   0  0  1  0  0  0  0  0  0  0  0  0
   18.4478   70.5424   -5.1734 C   0  0  1  0  0  0  0  0  0  0  0  0
   17.9189   70.8404   -9.6062 H   0  0  0  0  0  0  0  0  0  0  0  0
   19.8278   71.3523   -9.6207 H   0  0  0  0  0  0  0  0  0  0  0  0
   15.7698   70.3962   -7.0130 H   0  0  0  0  0  0  0  0  0  0  0  0
   17.1437   68.7317   -4.4509 O   0  0  0  0  0  0  0  0  0  0  0  0
   18.6647   69.5726   -2.9748 O   0  0  0  0  0  0  0  0  0  0  0  0
   18.1240   69.5880   -4.0704 C   0  0  0  0  0  0  0  0  0  0  0  0
  1  4  1  0
  1 24  1  0
  1  2  1  1
  1  3  2  0
 25 28  1  0
 25 24  1  0
 25 26  1  6
 25 27  2  0
  6 11  1  0
  6 12  1  0
 29 36  1  0
 29 37  1  0
  9  7  1  6
  7 13  1  0
 10  8  1  1
  8 14  1  0
  4  5  1  0
 36 28  1  1
 33 30  1  6
 30 38  1  0
 34 31  1  6
 31 39  1  0
 35 32  1  1
 32 40  1  0
 41 43  1  0
 15 19  2  0
 42 43  2  0
 16 22  2  0
 12 17  1  1
 17 19  1  0
 17 20  1  0
 18 19  1  0
 18 22  1  0
 18 23  1  0
  9 10  1  0
  9 11  1  0
 10 12  1  0
 11  5  1  1
 33 34  1  0
 33 35  1  0
 34 36  1  0
 35 37  1  0
 37 43  1  1
 20 21  2  0
 21 22  1  0
M  CHG  3   2  -1  26  -1  41  -1
M  END
>  <COMPND>  (11) 
    udp_gluA.pdb 

>  <AUTHOR>  (11) 
    GENERATED BY OPEN BABEL 3.1.1

>  <MASTER>  (11) 
        0    0    0    0    0    0    0    0   56    0   56    0

>  <minimizedAffinity>  (11) 
-7.73792

>  <CNNscore>  (11) 
0.7492642403

>  <CNNaffinity>  (11) 
4.4885511398

>  <CNN_VS>  (11) 
3.3631107807

>  <CNNaffinity_variance>  (11) 
0.1034445539

$$$$
12
     RDKit          3D

 43 45  0  0  0  0  0  0  0  0999 V2000
   19.8117   73.1669   -4.5874 P   0  0  2  0  0  0  0  0  0  0  0  0
   18.5045   73.9490   -5.1337 O   0  0  0  0  0  0  0  0  0  0  0  0
   20.8453   74.0384   -3.9362 O   0  0  0  0  0  0  0  0  0  0  0  0
   20.3166   72.3137   -5.8661 O   0  0  0  0  0  0  0  0  0  0  0  0
   19.6512   72.4916   -7.1031 C   0  0  0  0  0  0  0  0  0  0  0  0
   18.6557   70.3754   -6.5477 O   0  0  0  0  0  0  0  0  0  0  0  0
   18.2056   70.0252   -9.4916 O   0  0  0  0  0  0  0  0  0  0  0  0
   15.7473   70.7998   -8.6009 O   0  0  0  0  0  0  0  0  0  0  0  0
   18.1412   71.2135   -8.7027 C   0  0  1  0  0  0  0  0  0  0  0  0
   16.8785   71.2203   -7.8673 C   0  0  2  0  0  0  0  0  0  0  0  0
   19.2269   71.1301   -7.6384 C   0  0  1  0  0  0  0  0  0  0  0  0
   17.2375   70.2612   -6.7452 C   0  0  2  0  0  0  0  0  0  0  0  0
   17.5210   70.0554  -10.1787 H   0  0  0  0  0  0  0  0  0  0  0  0
   15.5596   71.4432   -9.3028 H   0  0  0  0  0  0  0  0  0  0  0  0
   16.9052   68.4597   -4.5957 O   0  0  0  0  0  0  0  0  0  0  0  0
   14.6509   71.5942   -2.0783 O   0  0  0  0  0  0  0  0  0  0  0  0
   16.5677   70.5803   -5.5163 N   0  0  0  0  0  0  0  0  0  0  0  0
   15.7818   70.0222   -3.3443 N   0  0  0  0  0  0  0  0  0  0  0  0
   16.4549   69.6029   -4.4994 C   0  0  0  0  0  0  0  0  0  0  0  0
   16.0330   71.8489   -5.3269 C   0  0  0  0  0  0  0  0  0  0  0  0
   15.3943   72.2339   -4.2203 C   0  0  0  0  0  0  0  0  0  0  0  0
   15.2325   71.2724   -3.1100 C   0  0  0  0  0  0  0  0  0  0  0  0
   15.6890   69.3584   -2.6232 H   0  0  0  0  0  0  0  0  0  0  0  0
   19.1801   72.0350   -3.6217 O   0  0  0  0  0  0  0  0  0  0  0  0
   18.7724   72.0808   -2.0579 P   0  0  2  0  0  0  0  0  0  0  0  0
   18.3775   70.5449   -1.7334 O   0  0  0  0  0  0  0  0  0  0  0  0
   17.6987   73.0778   -1.7305 O   0  0  0  0  0  0  0  0  0  0  0  0
   20.1651   72.3165   -1.2786 O   0  0  0  0  0  0  0  0  0  0  0  0
   22.0718   71.1943   -2.1237 O   0  0  0  0  0  0  0  0  0  0  0  0
   23.4113   72.4599    1.5739 O   0  0  0  0  0  0  0  0  0  0  0  0
   20.7238   71.3554    1.2709 O   0  0  0  0  0  0  0  0  0  0  0  0
   24.2706   73.8356   -0.8386 O   0  0  0  0  0  0  0  0  0  0  0  0
   22.6460   72.5307    0.3709 C   0  0  2  0  0  0  0  0  0  0  0  0
   21.7351   71.3068    0.2711 C   0  0  2  0  0  0  0  0  0  0  0  0
   23.6207   72.5663   -0.8083 C   0  0  1  0  0  0  0  0  0  0  0  0
   21.0719   71.2292   -1.1047 C   0  0  1  0  0  0  0  0  0  0  0  0
   22.8974   72.3569   -2.1355 C   0  0  1  0  0  0  0  0  0  0  0  0
   22.8129   72.4362    2.3371 H   0  0  0  0  0  0  0  0  0  0  0  0
   21.1376   71.4051    2.1466 H   0  0  0  0  0  0  0  0  0  0  0  0
   24.7347   73.9813    0.0006 H   0  0  0  0  0  0  0  0  0  0  0  0
   24.4283   70.8406   -3.0621 O   0  0  0  0  0  0  0  0  0  0  0  0
   24.1340   72.8201   -4.1548 O   0  0  0  0  0  0  0  0  0  0  0  0
   23.8714   72.0655   -3.2303 C   0  0  0  0  0  0  0  0  0  0  0  0
  1  4  1  0
  1 24  1  0
  1  2  1  6
  1  3  2  0
 25 28  1  0
 25 24  1  0
 25 26  1  1
 25 27  2  0
  6 11  1  0
  6 12  1  0
 29 36  1  0
 29 37  1  0
  9  7  1  6
  7 13  1  0
 10  8  1  6
  8 14  1  0
  4  5  1  0
 36 28  1  6
 33 30  1  1
 30 38  1  0
 34 31  1  1
 31 39  1  0
 35 32  1  6
 32 40  1  0
 41 43  1  0
 15 19  2  0
 42 43  2  0
 16 22  2  0
 12 17  1  1
 17 19  1  0
 17 20  1  0
 18 19  1  0
 18 22  1  0
 18 23  1  0
  9 10  1  0
  9 11  1  0
 10 12  1  0
 11  5  1  1
 33 34  1  0
 33 35  1  0
 34 36  1  0
 35 37  1  0
 37 43  1  6
 20 21  2  0
 21 22  1  0
M  CHG  3   2  -1  26  -1  41  -1
M  END
>  <COMPND>  (12) 
    udp_gluA.pdb 

>  <AUTHOR>  (12) 
    GENERATED BY OPEN BABEL 3.1.1

>  <MASTER>  (12) 
        0    0    0    0    0    0    0    0   56    0   56    0

>  <minimizedAffinity>  (12) 
-7.15875

>  <CNNscore>  (12) 
0.7236192226

>  <CNNaffinity>  (12) 
4.5513868332

>  <CNN_VS>  (12) 
3.2934710979

>  <CNNaffinity_variance>  (12) 
0.3147384226

$$$$
13
     RDKit          3D

 43 45  0  0  0  0  0  0  0  0999 V2000
   21.9503   72.6688   -5.7891 P   0  0  2  0  0  0  0  0  0  0  0  0
   21.4013   74.1314   -5.3670 O   0  0  0  0  0  0  0  0  0  0  0  0
   23.0850   72.6772   -6.7711 O   0  0  0  0  0  0  0  0  0  0  0  0
   20.6206   71.8754   -6.2586 O   0  0  0  0  0  0  0  0  0  0  0  0
   20.0923   72.1429   -7.5446 C   0  0  0  0  0  0  0  0  0  0  0  0
   18.9999   70.0688   -7.0132 O   0  0  0  0  0  0  0  0  0  0  0  0
   18.1775   69.9782   -9.8954 O   0  0  0  0  0  0  0  0  0  0  0  0
   15.9135   70.8599   -8.6572 O   0  0  0  0  0  0  0  0  0  0  0  0
   18.3043   71.1043   -9.0268 C   0  0  1  0  0  0  0  0  0  0  0  0
   17.1541   71.1395   -8.0429 C   0  0  2  0  0  0  0  0  0  0  0  0
   19.4978   70.8609   -8.1132 C   0  0  1  0  0  0  0  0  0  0  0  0
   17.5637   70.0738   -7.0407 C   0  0  2  0  0  0  0  0  0  0  0  0
   17.4213   70.1108  -10.4889 H   0  0  0  0  0  0  0  0  0  0  0  0
   15.6974   71.5671   -9.2858 H   0  0  0  0  0  0  0  0  0  0  0  0
   16.3106   68.1638   -5.3800 O   0  0  0  0  0  0  0  0  0  0  0  0
   15.7180   71.2306   -1.9907 O   0  0  0  0  0  0  0  0  0  0  0  0
   17.0724   70.3462   -5.7196 N   0  0  0  0  0  0  0  0  0  0  0  0
   16.0157   69.6933   -3.6939 N   0  0  0  0  0  0  0  0  0  0  0  0
   16.4585   69.3161   -4.9686 C   0  0  0  0  0  0  0  0  0  0  0  0
   17.2020   71.6203   -5.1804 C   0  0  0  0  0  0  0  0  0  0  0  0
   16.7751   71.9647   -3.9639 C   0  0  0  0  0  0  0  0  0  0  0  0
   16.1216   70.9474   -3.1146 C   0  0  0  0  0  0  0  0  0  0  0  0
   15.5832   68.9936   -3.1530 H   0  0  0  0  0  0  0  0  0  0  0  0
   22.2969   71.9865   -4.3654 O   0  0  0  0  0  0  0  0  0  0  0  0
   23.5693   72.1656   -3.3843 P   0  0  2  0  0  0  0  0  0  0  0  0
   24.5153   73.2023   -4.1909 O   0  0  0  0  0  0  0  0  0  0  0  0
   24.2431   70.8778   -3.0082 O   0  0  0  0  0  0  0  0  0  0  0  0
   23.0060   73.0163   -2.1346 O   0  0  0  0  0  0  0  0  0  0  0  0
   21.1816   72.2792   -0.8165 O   0  0  0  0  0  0  0  0  0  0  0  0
   21.1979   76.3361   -0.0359 O   0  0  0  0  0  0  0  0  0  0  0  0
   21.6230   75.3490   -2.7524 O   0  0  0  0  0  0  0  0  0  0  0  0
   22.2145   74.4653    1.9433 O   0  0  0  0  0  0  0  0  0  0  0  0
   21.7719   75.0667   -0.3474 C   0  0  2  0  0  0  0  0  0  0  0  0
   21.1854   74.5482   -1.6607 C   0  0  2  0  0  0  0  0  0  0  0  0
   21.4444   74.1058    0.7978 C   0  0  1  0  0  0  0  0  0  0  0  0
   21.5997   73.0973   -1.9098 C   0  0  1  0  0  0  0  0  0  0  0  0
   21.7702   72.6625    0.4244 C   0  0  1  0  0  0  0  0  0  0  0  0
   21.3931   76.9633   -0.7499 H   0  0  0  0  0  0  0  0  0  0  0  0
   21.3637   76.2711   -2.6009 H   0  0  0  0  0  0  0  0  0  0  0  0
   22.0166   75.3819    2.1913 H   0  0  0  0  0  0  0  0  0  0  0  0
   21.1140   70.4573    0.8807 O   0  0  0  0  0  0  0  0  0  0  0  0
   20.7396   72.0115    2.5066 O   0  0  0  0  0  0  0  0  0  0  0  0
   21.1528   71.7108    1.3967 C   0  0  0  0  0  0  0  0  0  0  0  0
  1  4  1  0
  1 24  1  0
  1  2  1  1
  1  3  2  0
 25 28  1  0
 25 24  1  0
 25 26  1  6
 25 27  2  0
  6 11  1  0
  6 12  1  0
 29 36  1  0
 29 37  1  0
  9  7  1  6
  7 13  1  0
 10  8  1  6
  8 14  1  0
  4  5  1  0
 36 28  1  1
 33 30  1  1
 30 38  1  0
 34 31  1  6
 31 39  1  0
 35 32  1  1
 32 40  1  0
 41 43  1  0
 15 19  2  0
 42 43  2  0
 16 22  2  0
 12 17  1  1
 17 19  1  0
 17 20  1  0
 18 19  1  0
 18 22  1  0
 18 23  1  0
  9 10  1  0
  9 11  1  0
 10 12  1  0
 11  5  1  1
 33 34  1  0
 33 35  1  0
 34 36  1  0
 35 37  1  0
 37 43  1  1
 20 21  2  0
 21 22  1  0
M  CHG  3   2  -1  26  -1  41  -1
M  END
>  <COMPND>  (13) 
    udp_gluA.pdb 

>  <AUTHOR>  (13) 
    GENERATED BY OPEN BABEL 3.1.1

>  <MASTER>  (13) 
        0    0    0    0    0    0    0    0   56    0   56    0

>  <minimizedAffinity>  (13) 
-8.02640

>  <CNNscore>  (13) 
0.7060266733

>  <CNNaffinity>  (13) 
4.5025453568

>  <CNN_VS>  (13) 
3.1789171696

>  <CNNaffinity_variance>  (13) 
0.3779381812

$$$$
14
     RDKit          3D

 43 45  0  0  0  0  0  0  0  0999 V2000
   21.0684   72.4077   -5.1340 P   0  0  2  0  0  0  0  0  0  0  0  0
   20.7646   71.4233   -3.8860 O   0  0  0  0  0  0  0  0  0  0  0  0
   20.2248   73.6478   -5.1828 O   0  0  0  0  0  0  0  0  0  0  0  0
   20.9689   71.4390   -6.4262 O   0  0  0  0  0  0  0  0  0  0  0  0
   20.2660   71.9009   -7.5650 C   0  0  0  0  0  0  0  0  0  0  0  0
   18.9917   69.9039   -7.1581 O   0  0  0  0  0  0  0  0  0  0  0  0
   18.1059   70.1099  -10.0154 O   0  0  0  0  0  0  0  0  0  0  0  0
   15.9620   71.1031   -8.6539 O   0  0  0  0  0  0  0  0  0  0  0  0
   18.3572   71.1499   -9.0700 C   0  0  1  0  0  0  0  0  0  0  0  0
   17.2359   71.2178   -8.0550 C   0  0  2  0  0  0  0  0  0  0  0  0
   19.5403   70.7271   -8.2100 C   0  0  1  0  0  0  0  0  0  0  0  0
   17.5623   70.0454   -7.1457 C   0  0  2  0  0  0  0  0  0  0  0  0
   17.3538   70.3573  -10.5765 H   0  0  0  0  0  0  0  0  0  0  0  0
   15.8016   71.8731   -9.2225 H   0  0  0  0  0  0  0  0  0  0  0  0
   16.2164   68.1206   -5.5772 O   0  0  0  0  0  0  0  0  0  0  0  0
   15.9360   70.9840   -1.9764 O   0  0  0  0  0  0  0  0  0  0  0  0
   17.1262   70.2614   -5.7951 N   0  0  0  0  0  0  0  0  0  0  0  0
   16.0771   69.5489   -3.7856 N   0  0  0  0  0  0  0  0  0  0  0  0
   16.4584   69.2288   -5.0953 C   0  0  0  0  0  0  0  0  0  0  0  0
   17.3621   71.4835   -5.1772 C   0  0  0  0  0  0  0  0  0  0  0  0
   16.9928   71.7738   -3.9281 C   0  0  0  0  0  0  0  0  0  0  0  0
   16.2890   70.7500   -3.1283 C   0  0  0  0  0  0  0  0  0  0  0  0
   15.6088   68.8465   -3.2791 H   0  0  0  0  0  0  0  0  0  0  0  0
   22.6567   72.6786   -5.0044 O   0  0  0  0  0  0  0  0  0  0  0  0
   23.6321   72.6760   -3.7151 P   0  0  2  0  0  0  0  0  0  0  0  0
   24.8291   73.6730   -4.1550 O   0  0  0  0  0  0  0  0  0  0  0  0
   24.0891   71.3102   -3.2913 O   0  0  0  0  0  0  0  0  0  0  0  0
   22.8186   73.4904   -2.5848 O   0  0  0  0  0  0  0  0  0  0  0  0
   23.4153   74.6055   -0.5824 O   0  0  0  0  0  0  0  0  0  0  0  0
   19.8762   72.7697    0.5003 O   0  0  0  0  0  0  0  0  0  0  0  0
   21.8545   71.3411   -1.1059 O   0  0  0  0  0  0  0  0  0  0  0  0
   19.9326   75.6253   -0.0414 O   0  0  0  0  0  0  0  0  0  0  0  0
   20.7972   73.4032   -0.3877 C   0  0  2  0  0  0  0  0  0  0  0  0
   22.0871   72.5854   -0.4560 C   0  0  2  0  0  0  0  0  0  0  0  0
   21.0845   74.8064    0.1512 C   0  0  1  0  0  0  0  0  0  0  0  0
   23.1776   73.3459   -1.2119 C   0  0  1  0  0  0  0  0  0  0  0  0
   22.2658   75.4490   -0.5701 C   0  0  1  0  0  0  0  0  0  0  0  0
   19.6787   71.8762    0.1781 H   0  0  0  0  0  0  0  0  0  0  0  0
   21.1634   70.8534   -0.6317 H   0  0  0  0  0  0  0  0  0  0  0  0
   19.1734   75.2273    0.4126 H   0  0  0  0  0  0  0  0  0  0  0  0
   21.9848   77.7377   -0.1405 O   0  0  0  0  0  0  0  0  0  0  0  0
   23.6869   76.6771    0.9445 O   0  0  0  0  0  0  0  0  0  0  0  0
   22.7441   76.6572    0.1674 C   0  0  0  0  0  0  0  0  0  0  0  0
  1  4  1  0
  1 24  1  0
  1  2  1  1
  1  3  2  0
 25 28  1  0
 25 24  1  0
 25 26  1  6
 25 27  2  0
  6 11  1  0
  6 12  1  0
 29 36  1  0
 29 37  1  0
  9  7  1  6
  7 13  1  0
 10  8  1  6
  8 14  1  0
  4  5  1  0
 36 28  1  6
 33 30  1  1
 30 38  1  0
 34 31  1  6
 31 39  1  0
 35 32  1  6
 32 40  1  0
 41 43  1  0
 15 19  2  0
 42 43  2  0
 16 22  2  0
 12 17  1  1
 17 19  1  0
 17 20  1  0
 18 19  1  0
 18 22  1  0
 18 23  1  0
  9 10  1  0
  9 11  1  0
 10 12  1  0
 11  5  1  1
 33 34  1  0
 33 35  1  0
 34 36  1  0
 35 37  1  0
 37 43  1  1
 20 21  2  0
 21 22  1  0
M  CHG  3   2  -1  26  -1  41  -1
M  END
>  <COMPND>  (14) 
    udp_gluA.pdb 

>  <AUTHOR>  (14) 
    GENERATED BY OPEN BABEL 3.1.1

>  <MASTER>  (14) 
        0    0    0    0    0    0    0    0   56    0   56    0

>  <minimizedAffinity>  (14) 
-6.71107

>  <CNNscore>  (14) 
0.6863645315

>  <CNNaffinity>  (14) 
4.4988007545

>  <CNN_VS>  (14) 
3.0878171921

>  <CNNaffinity_variance>  (14) 
0.2338654250

$$$$
15
     RDKit          3D

 43 45  0  0  0  0  0  0  0  0999 V2000
   23.0277   71.7288   -2.6222 P   0  0  2  0  0  0  0  0  0  0  0  0
   23.2155   73.2968   -2.2686 O   0  0  0  0  0  0  0  0  0  0  0  0
   24.2563   71.0462   -3.1478 O   0  0  0  0  0  0  0  0  0  0  0  0
   21.7374   71.7025   -3.5982 O   0  0  0  0  0  0  0  0  0  0  0  0
   21.6787   72.6298   -4.6664 C   0  0  0  0  0  0  0  0  0  0  0  0
   20.8240   70.6672   -5.7598 O   0  0  0  0  0  0  0  0  0  0  0  0
   21.3079   72.1198   -8.3380 O   0  0  0  0  0  0  0  0  0  0  0  0
   18.6222   72.4248   -7.9773 O   0  0  0  0  0  0  0  0  0  0  0  0
   20.8721   72.6338   -7.0793 C   0  0  1  0  0  0  0  0  0  0  0  0
   19.4278   72.2544   -6.8299 C   0  0  2  0  0  0  0  0  0  0  0  0
   21.5971   71.8665   -5.9821 C   0  0  1  0  0  0  0  0  0  0  0  0
   19.5515   70.7987   -6.4132 C   0  0  2  0  0  0  0  0  0  0  0  0
   20.8582   72.5948   -9.0548 H   0  0  0  0  0  0  0  0  0  0  0  0
   18.5745   73.3678   -8.2017 H   0  0  0  0  0  0  0  0  0  0  0  0
   17.0015   69.8776   -7.2039 O   0  0  0  0  0  0  0  0  0  0  0  0
   15.6561   69.2936   -2.8344 O   0  0  0  0  0  0  0  0  0  0  0  0
   18.5158   70.3993   -5.5029 N   0  0  0  0  0  0  0  0  0  0  0  0
   16.3335   69.5886   -5.0269 N   0  0  0  0  0  0  0  0  0  0  0  0
   17.2702   69.9519   -6.0034 C   0  0  0  0  0  0  0  0  0  0  0  0
   18.7389   70.4513   -4.1324 C   0  0  0  0  0  0  0  0  0  0  0  0
   17.8363   70.1015   -3.2138 C   0  0  0  0  0  0  0  0  0  0  0  0
   16.5089   69.6236   -3.6530 C   0  0  0  0  0  0  0  0  0  0  0  0
   15.4581   69.2758   -5.3511 H   0  0  0  0  0  0  0  0  0  0  0  0
   22.4527   71.1122   -1.2431 O   0  0  0  0  0  0  0  0  0  0  0  0
   21.5028   71.7589   -0.1059 P   0  0  2  0  0  0  0  0  0  0  0  0
   20.8416   70.4632    0.6044 O   0  0  0  0  0  0  0  0  0  0  0  0
   20.5068   72.7535   -0.6280 O   0  0  0  0  0  0  0  0  0  0  0  0
   22.5248   72.3490    0.9940 O   0  0  0  0  0  0  0  0  0  0  0  0
   24.3006   71.4570    2.2823 O   0  0  0  0  0  0  0  0  0  0  0  0
   22.4168   73.9033    5.0273 O   0  0  0  0  0  0  0  0  0  0  0  0
   20.8511   72.2332    3.2125 O   0  0  0  0  0  0  0  0  0  0  0  0
   24.9210   74.7358    3.8079 O   0  0  0  0  0  0  0  0  0  0  0  0
   22.8572   73.4948    3.7323 C   0  0  2  0  0  0  0  0  0  0  0  0
   22.2584   72.1290    3.3954 C   0  0  2  0  0  0  0  0  0  0  0  0
   24.3852   73.4149    3.7558 C   0  0  1  0  0  0  0  0  0  0  0  0
   22.8848   71.5557    2.1235 C   0  0  1  0  0  0  0  0  0  0  0  0
   24.9259   72.7180    2.5105 C   0  0  1  0  0  0  0  0  0  0  0  0
   21.4484   73.9610    5.0365 H   0  0  0  0  0  0  0  0  0  0  0  0
   20.4472   72.5965    4.0157 H   0  0  0  0  0  0  0  0  0  0  0  0
   24.5845   75.1903    4.5959 H   0  0  0  0  0  0  0  0  0  0  0  0
   26.6166   71.1315    2.1559 O   0  0  0  0  0  0  0  0  0  0  0  0
   27.2023   73.0517    3.2370 O   0  0  0  0  0  0  0  0  0  0  0  0
   26.3634   72.3523    2.6893 C   0  0  0  0  0  0  0  0  0  0  0  0
  1  4  1  0
  1 24  1  0
  1  2  1  1
  1  3  2  0
 25 28  1  0
 25 24  1  0
 25 26  1  1
 25 27  2  0
  6 11  1  0
  6 12  1  0
 29 36  1  0
 29 37  1  0
  9  7  1  6
  7 13  1  0
 10  8  1  6
  8 14  1  0
  4  5  1  0
 36 28  1  6
 33 30  1  1
 30 38  1  0
 34 31  1  6
 31 39  1  0
 35 32  1  6
 32 40  1  0
 41 43  1  0
 15 19  2  0
 42 43  2  0
 16 22  2  0
 12 17  1  1
 17 19  1  0
 17 20  1  0
 18 19  1  0
 18 22  1  0
 18 23  1  0
  9 10  1  0
  9 11  1  0
 10 12  1  0
 11  5  1  1
 33 34  1  0
 33 35  1  0
 34 36  1  0
 35 37  1  0
 37 43  1  1
 20 21  2  0
 21 22  1  0
M  CHG  3   2  -1  26  -1  41  -1
M  END
>  <COMPND>  (15) 
    udp_gluA.pdb 

>  <AUTHOR>  (15) 
    GENERATED BY OPEN BABEL 3.1.1

>  <MASTER>  (15) 
        0    0    0    0    0    0    0    0   56    0   56    0

>  <minimizedAffinity>  (15) 
-7.87002

>  <CNNscore>  (15) 
0.6151515841

>  <CNNaffinity>  (15) 
4.3327479362

>  <CNN_VS>  (15) 
2.6652967930

>  <CNNaffinity_variance>  (15) 
0.1920327395

$$$$
16
     RDKit          3D

 43 45  0  0  0  0  0  0  0  0999 V2000
   22.5664   72.7276   -4.0224 P   0  0  2  0  0  0  0  0  0  0  0  0
   22.1342   74.2842   -4.1182 O   0  0  0  0  0  0  0  0  0  0  0  0
   23.9552   72.4249   -4.5035 O   0  0  0  0  0  0  0  0  0  0  0  0
   21.3726   71.9454   -4.7847 O   0  0  0  0  0  0  0  0  0  0  0  0
   21.1719   72.1968   -6.1635 C   0  0  0  0  0  0  0  0  0  0  0  0
   19.7008   70.3127   -5.9109 O   0  0  0  0  0  0  0  0  0  0  0  0
   19.8571   70.0277   -8.8919 O   0  0  0  0  0  0  0  0  0  0  0  0
   17.4516   71.2620   -8.5366 O   0  0  0  0  0  0  0  0  0  0  0  0
   19.8426   71.2137   -8.0970 C   0  0  1  0  0  0  0  0  0  0  0  0
   18.4502   71.4672   -7.5592 C   0  0  2  0  0  0  0  0  0  0  0  0
   20.6302   70.9356   -6.8240 C   0  0  1  0  0  0  0  0  0  0  0  0
   18.3660   70.4675   -6.4183 C   0  0  2  0  0  0  0  0  0  0  0  0
   19.3598   70.1809   -9.7110 H   0  0  0  0  0  0  0  0  0  0  0  0
   17.5477   71.9231   -9.2406 H   0  0  0  0  0  0  0  0  0  0  0  0
   16.5865   68.8056   -4.9872 O   0  0  0  0  0  0  0  0  0  0  0  0
   15.1382   72.3072   -2.3631 O   0  0  0  0  0  0  0  0  0  0  0  0
   17.5121   70.9188   -5.3562 N   0  0  0  0  0  0  0  0  0  0  0  0
   15.8661   70.5514   -3.6823 N   0  0  0  0  0  0  0  0  0  0  0  0
   16.6550   70.0027   -4.7019 C   0  0  0  0  0  0  0  0  0  0  0  0
   17.5302   72.2540   -4.9716 C   0  0  0  0  0  0  0  0  0  0  0  0
   16.7725   72.7623   -3.9977 C   0  0  0  0  0  0  0  0  0  0  0  0
   15.8487   71.8723   -3.2644 C   0  0  0  0  0  0  0  0  0  0  0  0
   15.2598   69.9333   -3.2136 H   0  0  0  0  0  0  0  0  0  0  0  0
   22.2996   72.3719   -2.4683 O   0  0  0  0  0  0  0  0  0  0  0  0
   20.9252   72.2732   -1.6228 P   0  0  2  0  0  0  0  0  0  0  0  0
   20.5026   70.7190   -1.7839 O   0  0  0  0  0  0  0  0  0  0  0  0
   19.8676   73.2492   -2.0507 O   0  0  0  0  0  0  0  0  0  0  0  0
   21.3816   72.4135   -0.0819 O   0  0  0  0  0  0  0  0  0  0  0  0
   22.2571   74.2149    1.1821 O   0  0  0  0  0  0  0  0  0  0  0  0
   24.3362   71.0040    2.7428 O   0  0  0  0  0  0  0  0  0  0  0  0
   23.8953   71.2243   -0.1367 O   0  0  0  0  0  0  0  0  0  0  0  0
   22.1512   72.1966    4.2444 O   0  0  0  0  0  0  0  0  0  0  0  0
   23.2216   71.6713    2.1507 C   0  0  2  0  0  0  0  0  0  0  0  0
   23.6356   72.2613    0.8024 C   0  0  2  0  0  0  0  0  0  0  0  0
   22.7752   72.7826    3.1034 C   0  0  1  0  0  0  0  0  0  0  0  0
   22.5425   73.1747    0.2461 C   0  0  1  0  0  0  0  0  0  0  0  0
   21.7794   73.7246    2.4328 C   0  0  1  0  0  0  0  0  0  0  0  0
   24.6373   70.2933    2.1550 H   0  0  0  0  0  0  0  0  0  0  0  0
   24.5878   70.6407    0.2100 H   0  0  0  0  0  0  0  0  0  0  0  0
   22.7745   71.5947    4.6803 H   0  0  0  0  0  0  0  0  0  0  0  0
   20.8603   75.8789    2.5575 O   0  0  0  0  0  0  0  0  0  0  0  0
   22.0626   75.1554    4.3548 O   0  0  0  0  0  0  0  0  0  0  0  0
   21.6043   74.9714    3.2372 C   0  0  0  0  0  0  0  0  0  0  0  0
  1  4  1  0
  1 24  1  0
  1  2  1  1
  1  3  2  0
 25 28  1  0
 25 24  1  0
 25 26  1  1
 25 27  2  0
  6 11  1  0
  6 12  1  0
 29 36  1  0
 29 37  1  0
  9  7  1  6
  7 13  1  0
 10  8  1  6
  8 14  1  0
  4  5  1  0
 36 28  1  1
 33 30  1  1
 30 38  1  0
 34 31  1  6
 31 39  1  0
 35 32  1  1
 32 40  1  0
 41 43  1  0
 15 19  2  0
 42 43  2  0
 16 22  2  0
 12 17  1  1
 17 19  1  0
 17 20  1  0
 18 19  1  0
 18 22  1  0
 18 23  1  0
  9 10  1  0
  9 11  1  0
 10 12  1  0
 11  5  1  1
 33 34  1  0
 33 35  1  0
 34 36  1  0
 35 37  1  0
 37 43  1  1
 20 21  2  0
 21 22  1  0
M  CHG  3   2  -1  26  -1  41  -1
M  END
>  <COMPND>  (16) 
    udp_gluA.pdb 

>  <AUTHOR>  (16) 
    GENERATED BY OPEN BABEL 3.1.1

>  <MASTER>  (16) 
        0    0    0    0    0    0    0    0   56    0   56    0

>  <minimizedAffinity>  (16) 
-6.21644

>  <CNNscore>  (16) 
0.5998343825

>  <CNNaffinity>  (16) 
4.3024654388

>  <CNN_VS>  (16) 
2.5807666779

>  <CNNaffinity_variance>  (16) 
0.1199054718

$$$$
17
     RDKit          3D

 43 45  0  0  0  0  0  0  0  0999 V2000
   20.8193   71.7966   -0.2175 P   0  0  2  0  0  0  0  0  0  0  0  0
   21.0571   70.5201    0.7482 O   0  0  0  0  0  0  0  0  0  0  0  0
   19.8133   72.7911    0.2832 O   0  0  0  0  0  0  0  0  0  0  0  0
   20.4982   71.1380   -1.6601 O   0  0  0  0  0  0  0  0  0  0  0  0
   20.4267   71.9876   -2.7904 C   0  0  0  0  0  0  0  0  0  0  0  0
   20.9625   70.6502   -4.7145 O   0  0  0  0  0  0  0  0  0  0  0  0
   23.3402   72.4430   -5.0670 O   0  0  0  0  0  0  0  0  0  0  0  0
   21.5817   73.4161   -6.9101 O   0  0  0  0  0  0  0  0  0  0  0  0
   22.0261   72.7642   -4.6101 C   0  0  1  0  0  0  0  0  0  0  0  0
   21.0542   72.7689   -5.7710 C   0  0  2  0  0  0  0  0  0  0  0  0
   21.5201   71.5954   -3.7758 C   0  0  1  0  0  0  0  0  0  0  0  0
   20.8244   71.2842   -5.9960 C   0  0  2  0  0  0  0  0  0  0  0  0
   23.6846   73.1753   -5.6026 H   0  0  0  0  0  0  0  0  0  0  0  0
   21.7097   74.3585   -6.7162 H   0  0  0  0  0  0  0  0  0  0  0  0
   20.1681   71.2809   -8.7430 O   0  0  0  0  0  0  0  0  0  0  0  0
   15.7720   70.1987   -7.8783 O   0  0  0  0  0  0  0  0  0  0  0  0
   19.5160   71.0049   -6.5165 N   0  0  0  0  0  0  0  0  0  0  0  0
   17.9790   70.7429   -8.3096 N   0  0  0  0  0  0  0  0  0  0  0  0
   19.2920   71.0292   -7.9134 C   0  0  0  0  0  0  0  0  0  0  0  0
   18.4725   70.7095   -5.6477 C   0  0  0  0  0  0  0  0  0  0  0  0
   17.2262   70.4386   -6.0403 C   0  0  0  0  0  0  0  0  0  0  0  0
   16.9078   70.4441   -7.4832 C   0  0  0  0  0  0  0  0  0  0  0  0
   17.7982   70.7559   -9.2773 H   0  0  0  0  0  0  0  0  0  0  0  0
   22.3112   72.3876   -0.4118 O   0  0  0  0  0  0  0  0  0  0  0  0
   23.5756   72.4299    0.5948 P   0  0  2  0  0  0  0  0  0  0  0  0
   24.4228   73.7059    0.0711 O   0  0  0  0  0  0  0  0  0  0  0  0
   24.3583   71.1501    0.6543 O   0  0  0  0  0  0  0  0  0  0  0  0
   22.9580   72.9033    2.0080 O   0  0  0  0  0  0  0  0  0  0  0  0
   21.4693   74.6646    2.5469 O   0  0  0  0  0  0  0  0  0  0  0  0
   23.8940   74.5606    5.8903 O   0  0  0  0  0  0  0  0  0  0  0  0
   25.0436   74.2895    3.2183 O   0  0  0  0  0  0  0  0  0  0  0  0
   21.2043   73.4637    6.0037 O   0  0  0  0  0  0  0  0  0  0  0  0
   23.1971   74.0184    4.7685 C   0  0  2  0  0  0  0  0  0  0  0  0
   23.7012   74.6787    3.4850 C   0  0  2  0  0  0  0  0  0  0  0  0
   21.7045   74.2967    4.9595 C   0  0  1  0  0  0  0  0  0  0  0  0
   22.8249   74.2948    2.2918 C   0  0  1  0  0  0  0  0  0  0  0  0
   20.9164   74.0076    3.6852 C   0  0  1  0  0  0  0  0  0  0  0  0
   24.8450   74.3957    5.7909 H   0  0  0  0  0  0  0  0  0  0  0  0
   25.6051   74.5298    3.9715 H   0  0  0  0  0  0  0  0  0  0  0  0
   21.6976   73.6377    6.8205 H   0  0  0  0  0  0  0  0  0  0  0  0
   18.7656   73.8523    4.6080 O   0  0  0  0  0  0  0  0  0  0  0  0
   19.1590   75.5792    3.1721 O   0  0  0  0  0  0  0  0  0  0  0  0
   19.5407   74.5843    3.7700 C   0  0  0  0  0  0  0  0  0  0  0  0
  1  4  1  0
  1 24  1  0
  1  2  1  1
  1  3  2  0
 25 28  1  0
 25 24  1  0
 25 26  1  6
 25 27  2  0
  6 11  1  0
  6 12  1  0
 29 36  1  0
 29 37  1  0
  9  7  1  6
  7 13  1  0
 10  8  1  6
  8 14  1  0
  4  5  1  0
 36 28  1  1
 33 30  1  1
 30 38  1  0
 34 31  1  6
 31 39  1  0
 35 32  1  1
 32 40  1  0
 41 43  1  0
 15 19  2  0
 42 43  2  0
 16 22  2  0
 12 17  1  1
 17 19  1  0
 17 20  1  0
 18 19  1  0
 18 22  1  0
 18 23  1  0
  9 10  1  0
  9 11  1  0
 10 12  1  0
 11  5  1  1
 33 34  1  0
 33 35  1  0
 34 36  1  0
 35 37  1  0
 37 43  1  1
 20 21  2  0
 21 22  1  0
M  CHG  3   2  -1  26  -1  41  -1
M  END
>  <COMPND>  (17) 
    udp_gluA.pdb 

>  <AUTHOR>  (17) 
    GENERATED BY OPEN BABEL 3.1.1

>  <MASTER>  (17) 
        0    0    0    0    0    0    0    0   56    0   56    0

>  <minimizedAffinity>  (17) 
-6.27382

>  <CNNscore>  (17) 
0.5832979679

>  <CNNaffinity>  (17) 
4.2834920883

>  <CNN_VS>  (17) 
2.4985523224

>  <CNNaffinity_variance>  (17) 
0.0793991014

$$$$
18
     RDKit          3D

 43 45  0  0  0  0  0  0  0  0999 V2000
   23.0470   73.6850   -3.7513 P   0  0  2  0  0  0  0  0  0  0  0  0
   22.7625   75.1559   -4.3632 O   0  0  0  0  0  0  0  0  0  0  0  0
   23.5401   72.6712   -4.7418 O   0  0  0  0  0  0  0  0  0  0  0  0
   21.6712   73.3093   -2.9872 O   0  0  0  0  0  0  0  0  0  0  0  0
   20.4558   73.3782   -3.7100 C   0  0  0  0  0  0  0  0  0  0  0  0
   18.6076   71.9482   -4.2731 O   0  0  0  0  0  0  0  0  0  0  0  0
   19.4088   70.2919   -1.9053 O   0  0  0  0  0  0  0  0  0  0  0  0
   20.4364   68.8767   -3.9975 O   0  0  0  0  0  0  0  0  0  0  0  0
   20.2315   71.0009   -2.8321 C   0  0  1  0  0  0  0  0  0  0  0  0
   20.2769   70.2708   -4.1577 C   0  0  2  0  0  0  0  0  0  0  0  0
   19.5153   72.2920   -3.2039 C   0  0  1  0  0  0  0  0  0  0  0  0
   18.9351   70.6397   -4.7671 C   0  0  2  0  0  0  0  0  0  0  0  0
   19.8457   69.4630   -1.6530 H   0  0  0  0  0  0  0  0  0  0  0  0
   21.3056   68.6935   -3.6067 H   0  0  0  0  0  0  0  0  0  0  0  0
   16.8009   69.8649   -6.4467 O   0  0  0  0  0  0  0  0  0  0  0  0
   19.2074   70.8327  -10.2567 O   0  0  0  0  0  0  0  0  0  0  0  0
   18.9770   70.6792   -6.2015 N   0  0  0  0  0  0  0  0  0  0  0  0
   18.0018   70.3467   -8.3427 N   0  0  0  0  0  0  0  0  0  0  0  0
   17.8503   70.2677   -6.9521 C   0  0  0  0  0  0  0  0  0  0  0  0
   20.1231   71.1229   -6.8500 C   0  0  0  0  0  0  0  0  0  0  0  0
   20.2525   71.1927   -8.1763 C   0  0  0  0  0  0  0  0  0  0  0  0
   19.1217   70.7805   -9.0335 C   0  0  0  0  0  0  0  0  0  0  0  0
   17.2314   70.0637   -8.8865 H   0  0  0  0  0  0  0  0  0  0  0  0
   24.0670   73.9891   -2.5347 O   0  0  0  0  0  0  0  0  0  0  0  0
   23.8948   74.8944   -1.2064 P   0  0  2  0  0  0  0  0  0  0  0  0
   22.8184   76.0153   -1.6596 O   0  0  0  0  0  0  0  0  0  0  0  0
   25.1812   75.4532   -0.6709 O   0  0  0  0  0  0  0  0  0  0  0  0
   23.0913   73.9534   -0.1712 O   0  0  0  0  0  0  0  0  0  0  0  0
   23.8726   73.1088    1.8989 O   0  0  0  0  0  0  0  0  0  0  0  0
   21.1341   70.2203    0.7921 O   0  0  0  0  0  0  0  0  0  0  0  0
   22.9578   71.3656   -1.1819 O   0  0  0  0  0  0  0  0  0  0  0  0
   20.4648   72.1486    2.8620 O   0  0  0  0  0  0  0  0  0  0  0  0
   21.6781   71.5377    0.8721 C   0  0  2  0  0  0  0  0  0  0  0  0
   23.0626   71.5599    0.2238 C   0  0  2  0  0  0  0  0  0  0  0  0
   21.7765   71.9197    2.3507 C   0  0  1  0  0  0  0  0  0  0  0  0
   23.7708   72.8886    0.4916 C   0  0  1  0  0  0  0  0  0  0  0  0
   22.6038   73.1872    2.5447 C   0  0  1  0  0  0  0  0  0  0  0  0
   21.0622   69.9559   -0.1387 H   0  0  0  0  0  0  0  0  0  0  0  0
   22.5091   70.5244   -1.3591 H   0  0  0  0  0  0  0  0  0  0  0  0
   19.9279   71.3494    2.7444 H   0  0  0  0  0  0  0  0  0  0  0  0
   23.7758   74.4460    4.1395 O   0  0  0  0  0  0  0  0  0  0  0  0
   22.5961   72.6475    4.8963 O   0  0  0  0  0  0  0  0  0  0  0  0
   22.9695   73.3671    3.9821 C   0  0  0  0  0  0  0  0  0  0  0  0
  1  4  1  0
  1 24  1  0
  1  2  1  6
  1  3  2  0
 25 28  1  0
 25 24  1  0
 25 26  1  6
 25 27  2  0
  6 11  1  0
  6 12  1  0
 29 36  1  0
 29 37  1  0
  9  7  1  1
  7 13  1  0
 10  8  1  1
  8 14  1  0
  4  5  1  0
 36 28  1  6
 33 30  1  1
 30 38  1  0
 34 31  1  6
 31 39  1  0
 35 32  1  6
 32 40  1  0
 41 43  1  0
 15 19  2  0
 42 43  2  0
 16 22  2  0
 12 17  1  6
 17 19  1  0
 17 20  1  0
 18 19  1  0
 18 22  1  0
 18 23  1  0
  9 10  1  0
  9 11  1  0
 10 12  1  0
 11  5  1  6
 33 34  1  0
 33 35  1  0
 34 36  1  0
 35 37  1  0
 37 43  1  1
 20 21  2  0
 21 22  1  0
M  CHG  3   2  -1  26  -1  41  -1
M  END
>  <COMPND>  (18) 
    udp_gluA.pdb 

>  <AUTHOR>  (18) 
    GENERATED BY OPEN BABEL 3.1.1

>  <MASTER>  (18) 
        0    0    0    0    0    0    0    0   56    0   56    0

>  <minimizedAffinity>  (18) 
-7.08435

>  <CNNscore>  (18) 
0.5705685616

>  <CNNaffinity>  (18) 
4.2982969284

>  <CNN_VS>  (18) 
2.4524731636

>  <CNNaffinity_variance>  (18) 
0.1275174916

$$$$
19
     RDKit          3D

 43 45  0  0  0  0  0  0  0  0999 V2000
   18.8049   73.2617   -0.8018 P   0  0  2  0  0  0  0  0  0  0  0  0
   18.4400   74.1952    0.4688 O   0  0  0  0  0  0  0  0  0  0  0  0
   19.5603   73.9523   -1.8992 O   0  0  0  0  0  0  0  0  0  0  0  0
   17.3854   72.6120   -1.2270 O   0  0  0  0  0  0  0  0  0  0  0  0
   17.1028   72.4472   -2.6045 C   0  0  0  0  0  0  0  0  0  0  0  0
   16.0915   70.9704   -4.2088 O   0  0  0  0  0  0  0  0  0  0  0  0
   15.9180   68.9707   -1.9811 O   0  0  0  0  0  0  0  0  0  0  0  0
   18.0971   68.1164   -3.3802 O   0  0  0  0  0  0  0  0  0  0  0  0
   16.9370   69.9327   -2.2545 C   0  0  1  0  0  0  0  0  0  0  0  0
   17.7723   69.4897   -3.4370 C   0  0  2  0  0  0  0  0  0  0  0  0
   16.2650   71.1889   -2.7920 C   0  0  1  0  0  0  0  0  0  0  0  0
   16.8659   69.8283   -4.6081 C   0  0  2  0  0  0  0  0  0  0  0  0
   16.3232   68.1591   -1.6364 H   0  0  0  0  0  0  0  0  0  0  0  0
   18.6755   67.9522   -2.6184 H   0  0  0  0  0  0  0  0  0  0  0  0
   19.3954   71.0845   -4.6176 O   0  0  0  0  0  0  0  0  0  0  0  0
   19.6038   71.0388   -9.2218 O   0  0  0  0  0  0  0  0  0  0  0  0
   17.6036   70.1563   -5.7951 N   0  0  0  0  0  0  0  0  0  0  0  0
   19.4963   71.0615   -6.9108 N   0  0  0  0  0  0  0  0  0  0  0  0
   18.8659   70.7869   -5.6900 C   0  0  0  0  0  0  0  0  0  0  0  0
   17.0776   69.8523   -7.0448 C   0  0  0  0  0  0  0  0  0  0  0  0
   17.6903   70.1201   -8.1996 C   0  0  0  0  0  0  0  0  0  0  0  0
   19.0128   70.7789   -8.1780 C   0  0  0  0  0  0  0  0  0  0  0  0
   20.3754   71.5022   -6.8631 H   0  0  0  0  0  0  0  0  0  0  0  0
   19.5858   72.0182   -0.1260 O   0  0  0  0  0  0  0  0  0  0  0  0
   20.8174   71.9806    0.9206 P   0  0  2  0  0  0  0  0  0  0  0  0
   21.4340   70.4983    0.7132 O   0  0  0  0  0  0  0  0  0  0  0  0
   20.4321   72.2975    2.3366 O   0  0  0  0  0  0  0  0  0  0  0  0
   21.9215   72.9729    0.2892 O   0  0  0  0  0  0  0  0  0  0  0  0
   23.5341   72.0151   -1.1569 O   0  0  0  0  0  0  0  0  0  0  0  0
   25.1818   75.7276   -0.4018 O   0  0  0  0  0  0  0  0  0  0  0  0
   23.9500   74.1879    1.7538 O   0  0  0  0  0  0  0  0  0  0  0  0
   23.8979   75.1929   -2.9545 O   0  0  0  0  0  0  0  0  0  0  0  0
   24.1275   74.7839   -0.5913 C   0  0  2  0  0  0  0  0  0  0  0  0
   24.2372   73.6767    0.4573 C   0  0  2  0  0  0  0  0  0  0  0  0
   24.2637   74.1992   -1.9989 C   0  0  1  0  0  0  0  0  0  0  0  0
   23.2709   72.5324    0.1479 C   0  0  1  0  0  0  0  0  0  0  0  0
   23.3591   72.9847   -2.1876 C   0  0  1  0  0  0  0  0  0  0  0  0
   25.1157   76.1124    0.4864 H   0  0  0  0  0  0  0  0  0  0  0  0
   24.5593   74.9146    1.9566 H   0  0  0  0  0  0  0  0  0  0  0  0
   24.4661   75.9714   -2.8451 H   0  0  0  0  0  0  0  0  0  0  0  0
   24.2439   71.0167   -3.1071 O   0  0  0  0  0  0  0  0  0  0  0  0
   23.5965   72.6462   -4.5647 O   0  0  0  0  0  0  0  0  0  0  0  0
   23.7323   72.2321   -3.4231 C   0  0  0  0  0  0  0  0  0  0  0  0
  1  4  1  0
  1 24  1  0
  1  2  1  1
  1  3  2  0
 25 28  1  0
 25 24  1  0
 25 26  1  1
 25 27  2  0
  6 11  1  0
  6 12  1  0
 29 36  1  0
 29 37  1  0
  9  7  1  6
  7 13  1  0
 10  8  1  1
  8 14  1  0
  4  5  1  0
 36 28  1  6
 33 30  1  1
 30 38  1  0
 34 31  1  1
 31 39  1  0
 35 32  1  6
 32 40  1  0
 41 43  1  0
 15 19  2  0
 42 43  2  0
 16 22  2  0
 12 17  1  6
 17 19  1  0
 17 20  1  0
 18 19  1  0
 18 22  1  0
 18 23  1  0
  9 10  1  0
  9 11  1  0
 10 12  1  0
 11  5  1  6
 33 34  1  0
 33 35  1  0
 34 36  1  0
 35 37  1  0
 37 43  1  6
 20 21  2  0
 21 22  1  0
M  CHG  3   2  -1  26  -1  41  -1
M  END
>  <COMPND>  (19) 
    udp_gluA.pdb 

>  <AUTHOR>  (19) 
    GENERATED BY OPEN BABEL 3.1.1

>  <MASTER>  (19) 
        0    0    0    0    0    0    0    0   56    0   56    0

>  <minimizedAffinity>  (19) 
-6.81386

>  <CNNscore>  (19) 
0.4779619873

>  <CNNaffinity>  (19) 
4.2552671432

>  <CNN_VS>  (19) 
2.0338559151

>  <CNNaffinity_variance>  (19) 
0.1091529280

$$$$
20
     RDKit          3D

 43 45  0  0  0  0  0  0  0  0999 V2000
   22.0208   73.0640   -1.4953 P   0  0  2  0  0  0  0  0  0  0  0  0
   20.4277   72.8150   -1.3582 O   0  0  0  0  0  0  0  0  0  0  0  0
   22.4922   74.4147   -1.0424 O   0  0  0  0  0  0  0  0  0  0  0  0
   22.3416   72.6880   -3.0360 O   0  0  0  0  0  0  0  0  0  0  0  0
   21.4112   73.0691   -4.0327 C   0  0  0  0  0  0  0  0  0  0  0  0
   20.8968   70.9331   -5.0078 O   0  0  0  0  0  0  0  0  0  0  0  0
   21.6513   72.1604   -7.6376 O   0  0  0  0  0  0  0  0  0  0  0  0
   18.9263   72.2371   -7.7041 O   0  0  0  0  0  0  0  0  0  0  0  0
   20.9870   72.7530   -6.5212 C   0  0  1  0  0  0  0  0  0  0  0  0
   19.5572   72.2617   -6.4409 C   0  0  2  0  0  0  0  0  0  0  0  0
   21.5949   72.1735   -5.2512 C   0  0  1  0  0  0  0  0  0  0  0  0
   19.7334   70.8740   -5.8481 C   0  0  2  0  0  0  0  0  0  0  0  0
   21.2798   72.5152   -8.4609 H   0  0  0  0  0  0  0  0  0  0  0  0
   18.8371   73.1438   -8.0387 H   0  0  0  0  0  0  0  0  0  0  0  0
   17.3401   69.8131   -6.9080 O   0  0  0  0  0  0  0  0  0  0  0  0
   15.4740   69.3537   -2.7187 O   0  0  0  0  0  0  0  0  0  0  0  0
   18.6060   70.4689   -5.0571 N   0  0  0  0  0  0  0  0  0  0  0  0
   16.4126   69.5862   -4.8205 N   0  0  0  0  0  0  0  0  0  0  0  0
   17.4514   69.9485   -5.6881 C   0  0  0  0  0  0  0  0  0  0  0  0
   18.6514   70.5870   -3.6733 C   0  0  0  0  0  0  0  0  0  0  0  0
   17.6533   70.2374   -2.8595 C   0  0  0  0  0  0  0  0  0  0  0  0
   16.4109   69.6856   -3.4386 C   0  0  0  0  0  0  0  0  0  0  0  0
   15.5976   69.2233   -5.2368 H   0  0  0  0  0  0  0  0  0  0  0  0
   22.6540   71.8211   -0.6785 O   0  0  0  0  0  0  0  0  0  0  0  0
   22.2968   71.2153    0.7772 P   0  0  2  0  0  0  0  0  0  0  0  0
   23.6322   70.3901    1.1722 O   0  0  0  0  0  0  0  0  0  0  0  0
   21.0346   70.4032    0.8134 O   0  0  0  0  0  0  0  0  0  0  0  0
   22.3001   72.4917    1.7637 O   0  0  0  0  0  0  0  0  0  0  0  0
   22.0546   72.7999    4.0991 O   0  0  0  0  0  0  0  0  0  0  0  0
   19.8841   75.9789    2.5989 O   0  0  0  0  0  0  0  0  0  0  0  0
   19.6789   73.3355    1.3722 O   0  0  0  0  0  0  0  0  0  0  0  0
   22.5247   76.4201    3.7318 O   0  0  0  0  0  0  0  0  0  0  0  0
   20.9275   75.0047    2.6136 C   0  0  2  0  0  0  0  0  0  0  0  0
   20.3183   73.6024    2.6150 C   0  0  2  0  0  0  0  0  0  0  0  0
   21.7615   75.2240    3.8778 C   0  0  1  0  0  0  0  0  0  0  0  0
   21.3907   72.5403    2.8616 C   0  0  1  0  0  0  0  0  0  0  0  0
   22.7190   74.0612    4.1222 C   0  0  1  0  0  0  0  0  0  0  0  0
   19.3407   75.8590    1.8041 H   0  0  0  0  0  0  0  0  0  0  0  0
   18.9974   74.0058    1.2092 H   0  0  0  0  0  0  0  0  0  0  0  0
   21.9270   77.1680    3.5756 H   0  0  0  0  0  0  0  0  0  0  0  0
   24.2580   75.0563    5.5861 O   0  0  0  0  0  0  0  0  0  0  0  0
   22.9159   73.4230    6.4406 O   0  0  0  0  0  0  0  0  0  0  0  0
   23.2814   74.1189    5.5052 C   0  0  0  0  0  0  0  0  0  0  0  0
  1  4  1  0
  1 24  1  0
  1  2  1  6
  1  3  2  0
 25 28  1  0
 25 24  1  0
 25 26  1  1
 25 27  2  0
  6 11  1  0
  6 12  1  0
 29 36  1  0
 29 37  1  0
  9  7  1  6
  7 13  1  0
 10  8  1  6
  8 14  1  0
  4  5  1  0
 36 28  1  6
 33 30  1  1
 30 38  1  0
 34 31  1  6
 31 39  1  0
 35 32  1  6
 32 40  1  0
 41 43  1  0
 15 19  2  0
 42 43  2  0
 16 22  2  0
 12 17  1  1
 17 19  1  0
 17 20  1  0
 18 19  1  0
 18 22  1  0
 18 23  1  0
  9 10  1  0
  9 11  1  0
 10 12  1  0
 11  5  1  1
 33 34  1  0
 33 35  1  0
 34 36  1  0
 35 37  1  0
 37 43  1  1
 20 21  2  0
 21 22  1  0
M  CHG  3   2  -1  26  -1  41  -1
M  END
>  <COMPND>  (20) 
    udp_gluA.pdb 

>  <AUTHOR>  (20) 
    GENERATED BY OPEN BABEL 3.1.1

>  <MASTER>  (20) 
        0    0    0    0    0    0    0    0   56    0   56    0

>  <minimizedAffinity>  (20) 
-6.26668

>  <CNNscore>  (20) 
0.4664101601

>  <CNNaffinity>  (20) 
4.0097937584

>  <CNN_VS>  (20) 
1.8702085018

>  <CNNaffinity_variance>  (20) 
0.1776967347

$$$$
21
     RDKit          3D

 43 45  0  0  0  0  0  0  0  0999 V2000
   22.3138   71.7607   -2.7509 P   0  0  2  0  0  0  0  0  0  0  0  0
   22.1640   73.3721   -2.7548 O   0  0  0  0  0  0  0  0  0  0  0  0
   23.7227   71.2551   -2.8556 O   0  0  0  0  0  0  0  0  0  0  0  0
   21.3040   71.2739   -3.9177 O   0  0  0  0  0  0  0  0  0  0  0  0
   20.4005   70.2214   -3.6342 C   0  0  0  0  0  0  0  0  0  0  0  0
   18.6715   71.5056   -4.7015 O   0  0  0  0  0  0  0  0  0  0  0  0
   16.8038   70.3322   -2.6702 O   0  0  0  0  0  0  0  0  0  0  0  0
   16.2981   68.8247   -4.8856 O   0  0  0  0  0  0  0  0  0  0  0  0
   17.9237   69.7318   -3.3212 C   0  0  1  0  0  0  0  0  0  0  0  0
   17.5801   69.4034   -4.7588 C   0  0  2  0  0  0  0  0  0  0  0  0
   18.9983   70.7977   -3.4860 C   0  0  1  0  0  0  0  0  0  0  0  0
   17.6753   70.7655   -5.4248 C   0  0  2  0  0  0  0  0  0  0  0  0
   16.1038   69.6702   -2.5539 H   0  0  0  0  0  0  0  0  0  0  0  0
   16.2891   67.9595   -4.4458 H   0  0  0  0  0  0  0  0  0  0  0  0
   15.9203   70.1409   -7.5476 O   0  0  0  0  0  0  0  0  0  0  0  0
   19.2961   70.4479  -10.6707 O   0  0  0  0  0  0  0  0  0  0  0  0
   18.0691   70.6756   -6.8024 N   0  0  0  0  0  0  0  0  0  0  0  0
   17.6036   70.2934   -9.1009 N   0  0  0  0  0  0  0  0  0  0  0  0
   17.1093   70.3551   -7.7914 C   0  0  0  0  0  0  0  0  0  0  0  0
   19.3916   70.9050   -7.1621 C   0  0  0  0  0  0  0  0  0  0  0  0
   19.8477   70.8427   -8.4146 C   0  0  0  0  0  0  0  0  0  0  0  0
   18.9097   70.5129   -9.5076 C   0  0  0  0  0  0  0  0  0  0  0  0
   16.9544   70.0699   -9.8066 H   0  0  0  0  0  0  0  0  0  0  0  0
   21.5418   71.3278   -1.3983 O   0  0  0  0  0  0  0  0  0  0  0  0
   21.8933   71.5962    0.1567 P   0  0  2  0  0  0  0  0  0  0  0  0
   23.2183   70.6979    0.3968 O   0  0  0  0  0  0  0  0  0  0  0  0
   20.7658   71.3004    1.1029 O   0  0  0  0  0  0  0  0  0  0  0  0
   22.4212   73.1200    0.1999 O   0  0  0  0  0  0  0  0  0  0  0  0
   24.3278   74.3275   -0.5186 O   0  0  0  0  0  0  0  0  0  0  0  0
   23.7949   75.7958    3.3061 O   0  0  0  0  0  0  0  0  0  0  0  0
   23.4933   72.9417    2.7601 O   0  0  0  0  0  0  0  0  0  0  0  0
   23.0303   77.4018    1.0068 O   0  0  0  0  0  0  0  0  0  0  0  0
   23.3871   75.2585    2.0479 C   0  0  2  0  0  0  0  0  0  0  0  0
   24.0321   73.8875    1.8436 C   0  0  2  0  0  0  0  0  0  0  0  0
   23.8373   76.2271    0.9519 C   0  0  1  0  0  0  0  0  0  0  0  0
   23.8061   73.3835    0.4175 C   0  0  1  0  0  0  0  0  0  0  0  0
   23.6979   75.6039   -0.4340 C   0  0  1  0  0  0  0  0  0  0  0  0
   23.5195   75.1970    4.0181 H   0  0  0  0  0  0  0  0  0  0  0  0
   23.6329   73.2553    3.6671 H   0  0  0  0  0  0  0  0  0  0  0  0
   23.1099   77.8082    1.8840 H   0  0  0  0  0  0  0  0  0  0  0  0
   25.3820   75.6568   -2.0658 O   0  0  0  0  0  0  0  0  0  0  0  0
   24.2167   77.5843   -1.7108 O   0  0  0  0  0  0  0  0  0  0  0  0
   24.4340   76.4095   -1.4544 C   0  0  0  0  0  0  0  0  0  0  0  0
  1  4  1  0
  1 24  1  0
  1  2  1  1
  1  3  2  0
 25 28  1  0
 25 24  1  0
 25 26  1  1
 25 27  2  0
  6 11  1  0
  6 12  1  0
 29 36  1  0
 29 37  1  0
  9  7  1  1
  7 13  1  0
 10  8  1  1
  8 14  1  0
  4  5  1  0
 36 28  1  6
 33 30  1  1
 30 38  1  0
 34 31  1  1
 31 39  1  0
 35 32  1  6
 32 40  1  0
 41 43  1  0
 15 19  2  0
 42 43  2  0
 16 22  2  0
 12 17  1  6
 17 19  1  0
 17 20  1  0
 18 19  1  0
 18 22  1  0
 18 23  1  0
  9 10  1  0
  9 11  1  0
 10 12  1  0
 11  5  1  6
 33 34  1  0
 33 35  1  0
 34 36  1  0
 35 37  1  0
 37 43  1  6
 20 21  2  0
 21 22  1  0
M  CHG  3   2  -1  26  -1  41  -1
M  END
>  <COMPND>  (21) 
    udp_gluA.pdb 

>  <AUTHOR>  (21) 
    GENERATED BY OPEN BABEL 3.1.1

>  <MASTER>  (21) 
        0    0    0    0    0    0    0    0   56    0   56    0

>  <minimizedAffinity>  (21) 
-6.65295

>  <CNNscore>  (21) 
0.9356012940

>  <CNNaffinity>  (21) 
4.8803086281

>  <CNN_VS>  (21) 
4.5660228729

>  <CNNaffinity_variance>  (21) 
0.1322797537

$$$$
22
     RDKit          3D

 43 45  0  0  0  0  0  0  0  0999 V2000
   23.1902   71.9422   -2.4634 P   0  0  2  0  0  0  0  0  0  0  0  0
   23.8344   73.2199   -1.7076 O   0  0  0  0  0  0  0  0  0  0  0  0
   24.1740   71.0750   -3.1927 O   0  0  0  0  0  0  0  0  0  0  0  0
   22.0103   72.5802   -3.3681 O   0  0  0  0  0  0  0  0  0  0  0  0
   21.2310   71.7137   -4.1721 C   0  0  0  0  0  0  0  0  0  0  0  0
   19.0541   72.2488   -5.0395 O   0  0  0  0  0  0  0  0  0  0  0  0
   17.9586   71.0314   -2.5276 O   0  0  0  0  0  0  0  0  0  0  0  0
   17.6010   69.0427   -4.3587 O   0  0  0  0  0  0  0  0  0  0  0  0
   19.0949   70.6421   -3.2995 C   0  0  1  0  0  0  0  0  0  0  0  0
   18.6523   69.9601   -4.5767 C   0  0  2  0  0  0  0  0  0  0  0  0
   19.7598   71.9061   -3.8271 C   0  0  1  0  0  0  0  0  0  0  0  0
   18.2298   71.1407   -5.4345 C   0  0  2  0  0  0  0  0  0  0  0  0
   17.5172   70.2404   -2.1798 H   0  0  0  0  0  0  0  0  0  0  0  0
   17.9202   68.3100   -3.8081 H   0  0  0  0  0  0  0  0  0  0  0  0
   16.3050   69.9388   -7.1158 O   0  0  0  0  0  0  0  0  0  0  0  0
   19.0615   70.2465  -10.7969 O   0  0  0  0  0  0  0  0  0  0  0  0
   18.4184   70.8948   -6.8362 N   0  0  0  0  0  0  0  0  0  0  0  0
   17.6801   70.0923   -8.9474 N   0  0  0  0  0  0  0  0  0  0  0  0
   17.3882   70.2851   -7.5907 C   0  0  0  0  0  0  0  0  0  0  0  0
   19.6113   71.2574   -7.4497 C   0  0  0  0  0  0  0  0  0  0  0  0
   19.8748   71.0673   -8.7440 C   0  0  0  0  0  0  0  0  0  0  0  0
   18.8517   70.4354   -9.6026 C   0  0  0  0  0  0  0  0  0  0  0  0
   16.9789   69.6676   -9.4927 H   0  0  0  0  0  0  0  0  0  0  0  0
   22.3784   71.1936   -1.2829 O   0  0  0  0  0  0  0  0  0  0  0  0
   21.3757   71.7701   -0.1534 P   0  0  2  0  0  0  0  0  0  0  0  0
   20.8146   70.4306    0.5616 O   0  0  0  0  0  0  0  0  0  0  0  0
   20.3073   72.6809   -0.6854 O   0  0  0  0  0  0  0  0  0  0  0  0
   22.3433   72.4444    0.9473 O   0  0  0  0  0  0  0  0  0  0  0  0
   24.1870   71.7178    2.2441 O   0  0  0  0  0  0  0  0  0  0  0  0
   22.0653   73.9658    4.9850 O   0  0  0  0  0  0  0  0  0  0  0  0
   20.6743   72.1634    3.1544 O   0  0  0  0  0  0  0  0  0  0  0  0
   24.4878   75.0342    3.7846 O   0  0  0  0  0  0  0  0  0  0  0  0
   22.5499   73.6055    3.6915 C   0  0  2  0  0  0  0  0  0  0  0  0
   22.0839   72.1909    3.3461 C   0  0  2  0  0  0  0  0  0  0  0  0
   24.0786   73.6691    3.7246 C   0  0  1  0  0  0  0  0  0  0  0  0
   22.7692   71.6839    2.0764 C   0  0  1  0  0  0  0  0  0  0  0  0
   24.6898   73.0309    2.4805 C   0  0  1  0  0  0  0  0  0  0  0  0
   21.0957   73.9324    4.9880 H   0  0  0  0  0  0  0  0  0  0  0  0
   20.2331   72.4842    3.9562 H   0  0  0  0  0  0  0  0  0  0  0  0
   24.1053   75.4521    4.5719 H   0  0  0  0  0  0  0  0  0  0  0  0
   26.4433   71.4776    2.5998 O   0  0  0  0  0  0  0  0  0  0  0  0
   26.9840   73.6782    2.8534 O   0  0  0  0  0  0  0  0  0  0  0  0
   26.1542   72.8008    2.6674 C   0  0  0  0  0  0  0  0  0  0  0  0
  1  4  1  0
  1 24  1  0
  1  2  1  1
  1  3  2  0
 25 28  1  0
 25 24  1  0
 25 26  1  1
 25 27  2  0
  6 11  1  0
  6 12  1  0
 29 36  1  0
 29 37  1  0
  9  7  1  1
  7 13  1  0
 10  8  1  1
  8 14  1  0
  4  5  1  0
 36 28  1  6
 33 30  1  1
 30 38  1  0
 34 31  1  6
 31 39  1  0
 35 32  1  6
 32 40  1  0
 41 43  1  0
 15 19  2  0
 42 43  2  0
 16 22  2  0
 12 17  1  6
 17 19  1  0
 17 20  1  0
 18 19  1  0
 18 22  1  0
 18 23  1  0
  9 10  1  0
  9 11  1  0
 10 12  1  0
 11  5  1  6
 33 34  1  0
 33 35  1  0
 34 36  1  0
 35 37  1  0
 37 43  1  1
 20 21  2  0
 21 22  1  0
M  CHG  3   2  -1  26  -1  41  -1
M  END
>  <COMPND>  (22) 
    udp_gluA.pdb 

>  <AUTHOR>  (22) 
    GENERATED BY OPEN BABEL 3.1.1

>  <MASTER>  (22) 
        0    0    0    0    0    0    0    0   56    0   56    0

>  <minimizedAffinity>  (22) 
-7.69793

>  <CNNscore>  (22) 
0.9292977452

>  <CNNaffinity>  (22) 
4.6804966927

>  <CNN_VS>  (22) 
4.3495750427

>  <CNNaffinity_variance>  (22) 
0.0295431074

$$$$
23
     RDKit          3D

 43 45  0  0  0  0  0  0  0  0999 V2000
   22.6902   71.9131   -3.6316 P   0  0  2  0  0  0  0  0  0  0  0  0
   22.3129   71.9148   -5.2053 O   0  0  0  0  0  0  0  0  0  0  0  0
   24.0907   71.4761   -3.3163 O   0  0  0  0  0  0  0  0  0  0  0  0
   21.5112   71.0390   -2.9504 O   0  0  0  0  0  0  0  0  0  0  0  0
   20.6194   70.3332   -3.7936 C   0  0  0  0  0  0  0  0  0  0  0  0
   18.8238   71.5672   -4.8089 O   0  0  0  0  0  0  0  0  0  0  0  0
   17.0612   70.3836   -2.6914 O   0  0  0  0  0  0  0  0  0  0  0  0
   16.5018   68.8361   -4.8659 O   0  0  0  0  0  0  0  0  0  0  0  0
   18.1673   69.7974   -3.3780 C   0  0  1  0  0  0  0  0  0  0  0  0
   17.7753   69.4426   -4.7966 C   0  0  2  0  0  0  0  0  0  0  0  0
   19.2122   70.8828   -3.5981 C   0  0  1  0  0  0  0  0  0  0  0  0
   17.8160   70.7971   -5.4833 C   0  0  2  0  0  0  0  0  0  0  0  0
   16.3803   69.7091   -2.5394 H   0  0  0  0  0  0  0  0  0  0  0  0
   16.5279   67.9769   -4.4151 H   0  0  0  0  0  0  0  0  0  0  0  0
   15.9841   70.1501   -7.5332 O   0  0  0  0  0  0  0  0  0  0  0  0
   19.2390   70.4391  -10.7837 O   0  0  0  0  0  0  0  0  0  0  0  0
   18.1579   70.6965   -6.8739 N   0  0  0  0  0  0  0  0  0  0  0  0
   17.6072   70.2937   -9.1500 N   0  0  0  0  0  0  0  0  0  0  0  0
   17.1624   70.3653   -7.8233 C   0  0  0  0  0  0  0  0  0  0  0  0
   19.4652   70.9262   -7.2851 C   0  0  0  0  0  0  0  0  0  0  0  0
   19.8741   70.8544   -8.5534 C   0  0  0  0  0  0  0  0  0  0  0  0
   18.8965   70.5130   -9.6075 C   0  0  0  0  0  0  0  0  0  0  0  0
   16.9326   70.0626   -9.8288 H   0  0  0  0  0  0  0  0  0  0  0  0
   22.3359   73.4218   -3.1719 O   0  0  0  0  0  0  0  0  0  0  0  0
   23.2622   74.5809   -2.5299 P   0  0  2  0  0  0  0  0  0  0  0  0
   22.3312   75.9007   -2.6382 O   0  0  0  0  0  0  0  0  0  0  0  0
   24.6102   74.7203   -3.1760 O   0  0  0  0  0  0  0  0  0  0  0  0
   23.3072   74.2426   -0.9532 O   0  0  0  0  0  0  0  0  0  0  0  0
   21.9110   72.6647    0.1284 O   0  0  0  0  0  0  0  0  0  0  0  0
   22.9140   75.1786    3.2497 O   0  0  0  0  0  0  0  0  0  0  0  0
   22.2442   76.2716    0.6245 O   0  0  0  0  0  0  0  0  0  0  0  0
   24.1645   72.5642    3.0222 O   0  0  0  0  0  0  0  0  0  0  0  0
   23.1156   74.4865    2.0175 C   0  0  2  0  0  0  0  0  0  0  0  0
   22.0494   74.9156    1.0092 C   0  0  2  0  0  0  0  0  0  0  0  0
   23.0115   72.9853    2.2958 C   0  0  1  0  0  0  0  0  0  0  0  0
   22.0903   74.0330   -0.2391 C   0  0  1  0  0  0  0  0  0  0  0  0
   22.9310   72.1828    1.0004 C   0  0  1  0  0  0  0  0  0  0  0  0
   22.9757   76.1348    3.0975 H   0  0  0  0  0  0  0  0  0  0  0  0
   22.2198   76.8372    1.4118 H   0  0  0  0  0  0  0  0  0  0  0  0
   24.2275   73.0674    3.8490 H   0  0  0  0  0  0  0  0  0  0  0  0
   23.5595   70.0230    1.6651 O   0  0  0  0  0  0  0  0  0  0  0  0
   21.3609   70.3580    1.1620 O   0  0  0  0  0  0  0  0  0  0  0  0
   22.5032   70.7774    1.2727 C   0  0  0  0  0  0  0  0  0  0  0  0
  1  4  1  0
  1 24  1  0
  1  2  1  6
  1  3  2  0
 25 28  1  0
 25 24  1  0
 25 26  1  1
 25 27  2  0
  6 11  1  0
  6 12  1  0
 29 36  1  0
 29 37  1  0
  9  7  1  1
  7 13  1  0
 10  8  1  1
  8 14  1  0
  4  5  1  0
 36 28  1  1
 33 30  1  1
 30 38  1  0
 34 31  1  6
 31 39  1  0
 35 32  1  6
 32 40  1  0
 41 43  1  0
 15 19  2  0
 42 43  2  0
 16 22  2  0
 12 17  1  6
 17 19  1  0
 17 20  1  0
 18 19  1  0
 18 22  1  0
 18 23  1  0
  9 10  1  0
  9 11  1  0
 10 12  1  0
 11  5  1  6
 33 34  1  0
 33 35  1  0
 34 36  1  0
 35 37  1  0
 37 43  1  1
 20 21  2  0
 21 22  1  0
M  CHG  3   2  -1  26  -1  41  -1
M  END
>  <COMPND>  (23) 
    udp_gluA.pdb 

>  <AUTHOR>  (23) 
    GENERATED BY OPEN BABEL 3.1.1

>  <MASTER>  (23) 
        0    0    0    0    0    0    0    0   56    0   56    0

>  <minimizedAffinity>  (23) 
-7.36143

>  <CNNscore>  (23) 
0.9156642556

>  <CNNaffinity>  (23) 
4.8102779388

>  <CNN_VS>  (23) 
4.4045996666

>  <CNNaffinity_variance>  (23) 
0.0423168764

$$$$
24
     RDKit          3D

 43 45  0  0  0  0  0  0  0  0999 V2000
   21.9060   72.0052   -2.7010 P   0  0  2  0  0  0  0  0  0  0  0  0
   21.2315   73.4606   -2.4870 O   0  0  0  0  0  0  0  0  0  0  0  0
   23.3971   72.0166   -2.8699 O   0  0  0  0  0  0  0  0  0  0  0  0
   21.0651   71.3635   -3.9253 O   0  0  0  0  0  0  0  0  0  0  0  0
   20.1824   70.2912   -3.6506 C   0  0  0  0  0  0  0  0  0  0  0  0
   18.4614   71.5222   -4.7910 O   0  0  0  0  0  0  0  0  0  0  0  0
   16.5498   70.3096   -2.8245 O   0  0  0  0  0  0  0  0  0  0  0  0
   16.1698   68.7769   -5.0477 O   0  0  0  0  0  0  0  0  0  0  0  0
   17.7095   69.7363   -3.4287 C   0  0  1  0  0  0  0  0  0  0  0  0
   17.4300   69.3909   -4.8761 C   0  0  2  0  0  0  0  0  0  0  0  0
   18.7606   70.8301   -3.5594 C   0  0  1  0  0  0  0  0  0  0  0  0
   17.5138   70.7514   -5.5468 C   0  0  2  0  0  0  0  0  0  0  0  0
   15.8641   69.6295   -2.7306 H   0  0  0  0  0  0  0  0  0  0  0  0
   16.1673   67.9142   -4.6031 H   0  0  0  0  0  0  0  0  0  0  0  0
   15.8221   70.2631   -7.7550 O   0  0  0  0  0  0  0  0  0  0  0  0
   19.3432   70.4395  -10.7240 O   0  0  0  0  0  0  0  0  0  0  0  0
   17.9621   70.6648   -6.9078 N   0  0  0  0  0  0  0  0  0  0  0  0
   17.5776   70.3504   -9.2315 N   0  0  0  0  0  0  0  0  0  0  0  0
   17.0305   70.4157   -7.9433 C   0  0  0  0  0  0  0  0  0  0  0  0
   19.3096   70.8273   -7.2059 C   0  0  0  0  0  0  0  0  0  0  0  0
   19.8161   70.7624   -8.4388 C   0  0  0  0  0  0  0  0  0  0  0  0
   18.9103   70.5047   -9.5774 C   0  0  0  0  0  0  0  0  0  0  0  0
   16.9488   70.1759   -9.9687 H   0  0  0  0  0  0  0  0  0  0  0  0
   21.3797   71.1696   -1.4213 O   0  0  0  0  0  0  0  0  0  0  0  0
   21.0661   71.6355    0.0946 P   0  0  2  0  0  0  0  0  0  0  0  0
   21.1862   70.2585    0.9371 O   0  0  0  0  0  0  0  0  0  0  0  0
   19.7560   72.3498    0.2608 O   0  0  0  0  0  0  0  0  0  0  0  0
   22.3581   72.4958    0.5341 O   0  0  0  0  0  0  0  0  0  0  0  0
   21.9045   73.9512    2.3466 O   0  0  0  0  0  0  0  0  0  0  0  0
   25.7365   75.0839    1.2976 O   0  0  0  0  0  0  0  0  0  0  0  0
   23.7392   74.5327   -0.7619 O   0  0  0  0  0  0  0  0  0  0  0  0
   25.2921   73.4599    3.6674 O   0  0  0  0  0  0  0  0  0  0  0  0
   24.6436   74.1802    1.4616 C   0  0  2  0  0  0  0  0  0  0  0  0
   23.4551   74.6577    0.6268 C   0  0  2  0  0  0  0  0  0  0  0  0
   24.2735   74.1503    2.9462 C   0  0  1  0  0  0  0  0  0  0  0  0
   22.1980   73.8500    0.9526 C   0  0  1  0  0  0  0  0  0  0  0  0
   22.9445   73.4360    3.1747 C   0  0  1  0  0  0  0  0  0  0  0  0
   25.9893   75.1194    0.3615 H   0  0  0  0  0  0  0  0  0  0  0  0
   24.5359   75.0425   -0.9756 H   0  0  0  0  0  0  0  0  0  0  0  0
   26.1433   73.9045    3.5303 H   0  0  0  0  0  0  0  0  0  0  0  0
   21.6924   74.8298    4.5858 O   0  0  0  0  0  0  0  0  0  0  0  0
   22.6475   72.9852    5.5263 O   0  0  0  0  0  0  0  0  0  0  0  0
   22.4337   73.6947    4.5548 C   0  0  0  0  0  0  0  0  0  0  0  0
  1  4  1  0
  1 24  1  0
  1  2  1  1
  1  3  2  0
 25 28  1  0
 25 24  1  0
 25 26  1  1
 25 27  2  0
  6 11  1  0
  6 12  1  0
 29 36  1  0
 29 37  1  0
  9  7  1  6
  7 13  1  0
 10  8  1  1
  8 14  1  0
  4  5  1  0
 36 28  1  1
 33 30  1  1
 30 38  1  0
 34 31  1  6
 31 39  1  0
 35 32  1  1
 32 40  1  0
 41 43  1  0
 15 19  2  0
 42 43  2  0
 16 22  2  0
 12 17  1  6
 17 19  1  0
 17 20  1  0
 18 19  1  0
 18 22  1  0
 18 23  1  0
  9 10  1  0
  9 11  1  0
 10 12  1  0
 11  5  1  6
 33 34  1  0
 33 35  1  0
 34 36  1  0
 35 37  1  0
 37 43  1  1
 20 21  2  0
 21 22  1  0
M  CHG  3   2  -1  26  -1  41  -1
M  END
>  <COMPND>  (24) 
    udp_gluA.pdb 

>  <AUTHOR>  (24) 
    GENERATED BY OPEN BABEL 3.1.1

>  <MASTER>  (24) 
        0    0    0    0    0    0    0    0   56    0   56    0

>  <minimizedAffinity>  (24) 
-7.09321

>  <CNNscore>  (24) 
0.9104943275

>  <CNNaffinity>  (24) 
4.7695565224

>  <CNN_VS>  (24) 
4.3426542282

>  <CNNaffinity_variance>  (24) 
0.0749428719

$$$$
25
     RDKit          3D

 43 45  0  0  0  0  0  0  0  0999 V2000
   21.9059   72.7255   -4.6345 P   0  0  2  0  0  0  0  0  0  0  0  0
   21.0944   74.1081   -4.8556 O   0  0  0  0  0  0  0  0  0  0  0  0
   23.1714   72.5993   -5.4310 O   0  0  0  0  0  0  0  0  0  0  0  0
   20.7954   71.5776   -4.8934 O   0  0  0  0  0  0  0  0  0  0  0  0
   20.1919   70.9559   -3.7736 C   0  0  0  0  0  0  0  0  0  0  0  0
   18.3523   71.9132   -4.9891 O   0  0  0  0  0  0  0  0  0  0  0  0
   16.5831   70.7300   -2.8769 O   0  0  0  0  0  0  0  0  0  0  0  0
   16.3162   68.9627   -4.9364 O   0  0  0  0  0  0  0  0  0  0  0  0
   17.7825   70.2068   -3.4483 C   0  0  1  0  0  0  0  0  0  0  0  0
   17.5175   69.7002   -4.8502 C   0  0  2  0  0  0  0  0  0  0  0  0
   18.7283   71.3722   -3.7041 C   0  0  1  0  0  0  0  0  0  0  0  0
   17.4693   70.9919   -5.6484 C   0  0  2  0  0  0  0  0  0  0  0  0
   15.9631   70.0037   -2.7046 H   0  0  0  0  0  0  0  0  0  0  0  0
   16.3974   68.1500   -4.4120 H   0  0  0  0  0  0  0  0  0  0  0  0
   15.7993   70.1543   -7.7665 O   0  0  0  0  0  0  0  0  0  0  0  0
   19.2553   70.3467  -10.8100 O   0  0  0  0  0  0  0  0  0  0  0  0
   17.9067   70.8148   -7.0042 N   0  0  0  0  0  0  0  0  0  0  0  0
   17.5224   70.2499   -9.2801 N   0  0  0  0  0  0  0  0  0  0  0  0
   16.9875   70.3904   -7.9927 C   0  0  0  0  0  0  0  0  0  0  0  0
   19.2313   71.0622   -7.3436 C   0  0  0  0  0  0  0  0  0  0  0  0
   19.7264   70.9240   -8.5750 C   0  0  0  0  0  0  0  0  0  0  0  0
   18.8324   70.4834   -9.6660 C   0  0  0  0  0  0  0  0  0  0  0  0
   16.9020   69.9535   -9.9848 H   0  0  0  0  0  0  0  0  0  0  0  0
   22.1113   72.6776   -3.0319 O   0  0  0  0  0  0  0  0  0  0  0  0
   23.4217   72.3635   -2.1387 P   0  0  2  0  0  0  0  0  0  0  0  0
   24.2587   73.7472   -2.2106 O   0  0  0  0  0  0  0  0  0  0  0  0
   24.1911   71.1518   -2.5790 O   0  0  0  0  0  0  0  0  0  0  0  0
   22.8765   72.2957   -0.6220 O   0  0  0  0  0  0  0  0  0  0  0  0
   24.3683   71.1539    0.8203 O   0  0  0  0  0  0  0  0  0  0  0  0
   21.1125   71.7628    3.2895 O   0  0  0  0  0  0  0  0  0  0  0  0
   20.7317   70.9367    0.5133 O   0  0  0  0  0  0  0  0  0  0  0  0
   23.4990   73.3949    3.5923 O   0  0  0  0  0  0  0  0  0  0  0  0
   22.0198   72.0676    2.2303 C   0  0  2  0  0  0  0  0  0  0  0  0
   21.9842   70.9493    1.1883 C   0  0  2  0  0  0  0  0  0  0  0  0
   23.4223   72.1918    2.8300 C   0  0  1  0  0  0  0  0  0  0  0  0
   23.1025   71.1241    0.1598 C   0  0  1  0  0  0  0  0  0  0  0  0
   24.4915   72.2346    1.7422 C   0  0  1  0  0  0  0  0  0  0  0  0
   20.2144   71.6790    2.9321 H   0  0  0  0  0  0  0  0  0  0  0  0
   20.0175   70.8264    1.1600 H   0  0  0  0  0  0  0  0  0  0  0  0
   22.8234   73.3805    4.2882 H   0  0  0  0  0  0  0  0  0  0  0  0
   26.3308   73.1796    2.8493 O   0  0  0  0  0  0  0  0  0  0  0  0
   26.4528   70.9612    2.3365 O   0  0  0  0  0  0  0  0  0  0  0  0
   25.8507   72.0244    2.3258 C   0  0  0  0  0  0  0  0  0  0  0  0
  1  4  1  0
  1 24  1  0
  1  2  1  1
  1  3  2  0
 25 28  1  0
 25 24  1  0
 25 26  1  1
 25 27  2  0
  6 11  1  0
  6 12  1  0
 29 36  1  0
 29 37  1  0
  9  7  1  6
  7 13  1  0
 10  8  1  1
  8 14  1  0
  4  5  1  0
 36 28  1  1
 33 30  1  1
 30 38  1  0
 34 31  1  6
 31 39  1  0
 35 32  1  6
 32 40  1  0
 41 43  1  0
 15 19  2  0
 42 43  2  0
 16 22  2  0
 12 17  1  6
 17 19  1  0
 17 20  1  0
 18 19  1  0
 18 22  1  0
 18 23  1  0
  9 10  1  0
  9 11  1  0
 10 12  1  0
 11  5  1  6
 33 34  1  0
 33 35  1  0
 34 36  1  0
 35 37  1  0
 37 43  1  1
 20 21  2  0
 21 22  1  0
M  CHG  3   2  -1  26  -1  41  -1
M  END
>  <COMPND>  (25) 
    udp_gluA.pdb 

>  <AUTHOR>  (25) 
    GENERATED BY OPEN BABEL 3.1.1

>  <MASTER>  (25) 
        0    0    0    0    0    0    0    0   56    0   56    0

>  <minimizedAffinity>  (25) 
-8.29713

>  <CNNscore>  (25) 
0.9080567956

>  <CNNaffinity>  (25) 
4.7663950920

>  <CNN_VS>  (25) 
4.3281574249

>  <CNNaffinity_variance>  (25) 
0.0306901745

$$$$
26
     RDKit          3D

 43 45  0  0  0  0  0  0  0  0999 V2000
   22.6132   71.6379   -2.6934 P   0  0  2  0  0  0  0  0  0  0  0  0
   22.6191   73.2362   -2.4400 O   0  0  0  0  0  0  0  0  0  0  0  0
   23.9635   71.0300   -2.9363 O   0  0  0  0  0  0  0  0  0  0  0  0
   21.5287   71.4362   -3.8771 O   0  0  0  0  0  0  0  0  0  0  0  0
   20.6238   70.3510   -3.7873 C   0  0  0  0  0  0  0  0  0  0  0  0
   18.8222   71.5700   -4.8100 O   0  0  0  0  0  0  0  0  0  0  0  0
   17.0657   70.3917   -2.6845 O   0  0  0  0  0  0  0  0  0  0  0  0
   16.5130   68.8277   -4.8488 O   0  0  0  0  0  0  0  0  0  0  0  0
   18.1744   69.8063   -3.3676 C   0  0  1  0  0  0  0  0  0  0  0  0
   17.7837   69.4406   -4.7838 C   0  0  2  0  0  0  0  0  0  0  0  0
   19.2141   70.8952   -3.5950 C   0  0  1  0  0  0  0  0  0  0  0  0
   17.8179   70.7909   -5.4791 C   0  0  2  0  0  0  0  0  0  0  0  0
   16.3880   69.7150   -2.5280 H   0  0  0  0  0  0  0  0  0  0  0  0
   16.5432   67.9716   -4.3926 H   0  0  0  0  0  0  0  0  0  0  0  0
   15.9920   70.1066   -7.5222 O   0  0  0  0  0  0  0  0  0  0  0  0
   19.2411   70.4066  -10.7777 O   0  0  0  0  0  0  0  0  0  0  0  0
   18.1599   70.6830   -6.8692 N   0  0  0  0  0  0  0  0  0  0  0  0
   17.6122   70.2557   -9.1415 N   0  0  0  0  0  0  0  0  0  0  0  0
   17.1676   70.3329   -7.8151 C   0  0  0  0  0  0  0  0  0  0  0  0
   19.4642   70.9243   -7.2833 C   0  0  0  0  0  0  0  0  0  0  0  0
   19.8729   70.8470   -8.5513 C   0  0  0  0  0  0  0  0  0  0  0  0
   18.8985   70.4860   -9.6018 C   0  0  0  0  0  0  0  0  0  0  0  0
   16.9397   70.0115   -9.8179 H   0  0  0  0  0  0  0  0  0  0  0  0
   21.8419   71.0670   -1.3927 O   0  0  0  0  0  0  0  0  0  0  0  0
   22.1609   71.2239    0.1844 P   0  0  2  0  0  0  0  0  0  0  0  0
   23.7769   71.3083    0.2282 O   0  0  0  0  0  0  0  0  0  0  0  0
   21.5749   70.1399    1.0420 O   0  0  0  0  0  0  0  0  0  0  0  0
   21.6651   72.7133    0.5561 O   0  0  0  0  0  0  0  0  0  0  0  0
   22.2849   74.9519    1.0186 O   0  0  0  0  0  0  0  0  0  0  0  0
   20.8449   73.7038    4.6842 O   0  0  0  0  0  0  0  0  0  0  0  0
   22.5397   71.9446    3.0820 O   0  0  0  0  0  0  0  0  0  0  0  0
   19.2389   75.4488    3.0029 O   0  0  0  0  0  0  0  0  0  0  0  0
   20.9217   73.7437    3.2593 C   0  0  2  0  0  0  0  0  0  0  0  0
   22.3218   73.3242    2.8104 C   0  0  2  0  0  0  0  0  0  0  0  0
   20.6255   75.1762    2.8096 C   0  0  1  0  0  0  0  0  0  0  0  0
   22.5140   73.5735    1.3138 C   0  0  1  0  0  0  0  0  0  0  0  0
   20.9613   75.3778    1.3348 C   0  0  1  0  0  0  0  0  0  0  0  0
   21.0297   72.8028    4.9931 H   0  0  0  0  0  0  0  0  0  0  0  0
   22.4191   71.7791    4.0299 H   0  0  0  0  0  0  0  0  0  0  0  0
   19.0120   75.3239    3.9377 H   0  0  0  0  0  0  0  0  0  0  0  0
   22.2171   77.2010    0.5599 O   0  0  0  0  0  0  0  0  0  0  0  0
   20.0308   77.5891    1.0783 O   0  0  0  0  0  0  0  0  0  0  0  0
   20.9853   76.8314    0.9901 C   0  0  0  0  0  0  0  0  0  0  0  0
  1  4  1  0
  1 24  1  0
  1  2  1  1
  1  3  2  0
 25 28  1  0
 25 24  1  0
 25 26  1  6
 25 27  2  0
  6 11  1  0
  6 12  1  0
 29 36  1  0
 29 37  1  0
  9  7  1  1
  7 13  1  0
 10  8  1  1
  8 14  1  0
  4  5  1  0
 36 28  1  6
 33 30  1  1
 30 38  1  0
 34 31  1  6
 31 39  1  0
 35 32  1  6
 32 40  1  0
 41 43  1  0
 15 19  2  0
 42 43  2  0
 16 22  2  0
 12 17  1  6
 17 19  1  0
 17 20  1  0
 18 19  1  0
 18 22  1  0
 18 23  1  0
  9 10  1  0
  9 11  1  0
 10 12  1  0
 11  5  1  6
 33 34  1  0
 33 35  1  0
 34 36  1  0
 35 37  1  0
 37 43  1  1
 20 21  2  0
 21 22  1  0
M  CHG  3   2  -1  26  -1  41  -1
M  END
>  <COMPND>  (26) 
    udp_gluA.pdb 

>  <AUTHOR>  (26) 
    GENERATED BY OPEN BABEL 3.1.1

>  <MASTER>  (26) 
        0    0    0    0    0    0    0    0   56    0   56    0

>  <minimizedAffinity>  (26) 
-7.12578

>  <CNNscore>  (26) 
0.9049713016

>  <CNNaffinity>  (26) 
4.7404713631

>  <CNN_VS>  (26) 
4.2899904251

>  <CNNaffinity_variance>  (26) 
0.0345407799

$$$$
27
     RDKit          3D

 43 45  0  0  0  0  0  0  0  0999 V2000
   21.4491   71.7554   -2.0228 P   0  0  2  0  0  0  0  0  0  0  0  0
   21.2530   72.7918   -3.2502 O   0  0  0  0  0  0  0  0  0  0  0  0
   22.7532   71.0130   -2.0227 O   0  0  0  0  0  0  0  0  0  0  0  0
   20.1179   70.8371   -2.0733 O   0  0  0  0  0  0  0  0  0  0  0  0
   19.5972   70.4701   -3.3377 C   0  0  0  0  0  0  0  0  0  0  0  0
   17.8610   71.5255   -4.6219 O   0  0  0  0  0  0  0  0  0  0  0  0
   15.9261   70.0015   -2.9117 O   0  0  0  0  0  0  0  0  0  0  0  0
   15.9793   68.5303   -5.2071 O   0  0  0  0  0  0  0  0  0  0  0  0
   17.2062   69.6032   -3.4027 C   0  0  1  0  0  0  0  0  0  0  0  0
   17.1257   69.2882   -4.8814 C   0  0  2  0  0  0  0  0  0  0  0  0
   18.1163   70.8237   -3.3860 C   0  0  1  0  0  0  0  0  0  0  0  0
   17.1039   70.6762   -5.4987 C   0  0  2  0  0  0  0  0  0  0  0  0
   15.3270   69.2380   -2.9130 H   0  0  0  0  0  0  0  0  0  0  0  0
   16.0410   67.6557   -4.7909 H   0  0  0  0  0  0  0  0  0  0  0  0
   15.7011   70.1900   -7.9012 O   0  0  0  0  0  0  0  0  0  0  0  0
   19.4892   70.8106  -10.4525 O   0  0  0  0  0  0  0  0  0  0  0  0
   17.6990   70.7043   -6.8048 N   0  0  0  0  0  0  0  0  0  0  0  0
   17.5893   70.4986   -9.1695 N   0  0  0  0  0  0  0  0  0  0  0  0
   16.9058   70.4458   -7.9476 C   0  0  0  0  0  0  0  0  0  0  0  0
   19.0523   70.9871   -6.9444 C   0  0  0  0  0  0  0  0  0  0  0  0
   19.6898   71.0340   -8.1158 C   0  0  0  0  0  0  0  0  0  0  0  0
   18.9337   70.7749   -9.3587 C   0  0  0  0  0  0  0  0  0  0  0  0
   17.0584   70.3199   -9.9792 H   0  0  0  0  0  0  0  0  0  0  0  0
   21.2020   72.6825   -0.7220 O   0  0  0  0  0  0  0  0  0  0  0  0
   21.1292   72.3091    0.8493 P   0  0  2  0  0  0  0  0  0  0  0  0
   21.1196   70.6904    0.8446 O   0  0  0  0  0  0  0  0  0  0  0  0
   19.9737   72.9323    1.5775 O   0  0  0  0  0  0  0  0  0  0  0  0
   22.5803   72.7060    1.4319 O   0  0  0  0  0  0  0  0  0  0  0  0
   24.3849   73.9895    0.5924 O   0  0  0  0  0  0  0  0  0  0  0  0
   26.3634   70.9153    2.5168 O   0  0  0  0  0  0  0  0  0  0  0  0
   23.9909   70.3680    0.9024 O   0  0  0  0  0  0  0  0  0  0  0  0
   26.2341   73.5534    3.7312 O   0  0  0  0  0  0  0  0  0  0  0  0
   25.3075   71.8513    2.2998 C   0  0  2  0  0  0  0  0  0  0  0  0
   24.6845   71.6102    0.9245 C   0  0  2  0  0  0  0  0  0  0  0  0
   25.9010   73.2598    2.3758 C   0  0  1  0  0  0  0  0  0  0  0  0
   23.7099   72.7314    0.5613 C   0  0  1  0  0  0  0  0  0  0  0  0
   24.9108   74.3091    1.8786 C   0  0  1  0  0  0  0  0  0  0  0  0
   26.0098   70.0129    2.4730 H   0  0  0  0  0  0  0  0  0  0  0  0
   24.6032   69.6521    1.1323 H   0  0  0  0  0  0  0  0  0  0  0  0
   26.8637   72.8927    4.0599 H   0  0  0  0  0  0  0  0  0  0  0  0
   25.6214   75.9143    0.3230 O   0  0  0  0  0  0  0  0  0  0  0  0
   26.0679   76.3266    2.5207 O   0  0  0  0  0  0  0  0  0  0  0  0
   25.5957   75.6164    1.6457 C   0  0  0  0  0  0  0  0  0  0  0  0
  1  4  1  0
  1 24  1  0
  1  2  1  6
  1  3  2  0
 25 28  1  0
 25 24  1  0
 25 26  1  6
 25 27  2  0
  6 11  1  0
  6 12  1  0
 29 36  1  0
 29 37  1  0
  9  7  1  6
  7 13  1  0
 10  8  1  1
  8 14  1  0
  4  5  1  0
 36 28  1  1
 33 30  1  6
 30 38  1  0
 34 31  1  1
 31 39  1  0
 35 32  1  1
 32 40  1  0
 41 43  1  0
 15 19  2  0
 42 43  2  0
 16 22  2  0
 12 17  1  6
 17 19  1  0
 17 20  1  0
 18 19  1  0
 18 22  1  0
 18 23  1  0
  9 10  1  0
  9 11  1  0
 10 12  1  0
 11  5  1  6
 33 34  1  0
 33 35  1  0
 34 36  1  0
 35 37  1  0
 37 43  1  6
 20 21  2  0
 21 22  1  0
M  CHG  3   2  -1  26  -1  41  -1
M  END
>  <COMPND>  (27) 
    udp_gluA.pdb 

>  <AUTHOR>  (27) 
    GENERATED BY OPEN BABEL 3.1.1

>  <MASTER>  (27) 
        0    0    0    0    0    0    0    0   56    0   56    0

>  <minimizedAffinity>  (27) 
-7.34965

>  <CNNscore>  (27) 
0.8982901573

>  <CNNaffinity>  (27) 
4.7777905464

>  <CNN_VS>  (27) 
4.2918419838

>  <CNNaffinity_variance>  (27) 
0.0958911255

$$$$
28
     RDKit          3D

 43 45  0  0  0  0  0  0  0  0999 V2000
   21.6130   72.0481   -2.6055 P   0  0  2  0  0  0  0  0  0  0  0  0
   21.1467   73.5415   -2.1917 O   0  0  0  0  0  0  0  0  0  0  0  0
   23.0304   71.9372   -3.0856 O   0  0  0  0  0  0  0  0  0  0  0  0
   20.4772   71.5620   -3.6503 O   0  0  0  0  0  0  0  0  0  0  0  0
   19.7038   70.4213   -3.3259 C   0  0  0  0  0  0  0  0  0  0  0  0
   17.9608   71.5135   -4.5696 O   0  0  0  0  0  0  0  0  0  0  0  0
   16.0344   70.0150   -2.8274 O   0  0  0  0  0  0  0  0  0  0  0  0
   16.0152   68.5547   -5.1303 O   0  0  0  0  0  0  0  0  0  0  0  0
   17.2971   69.5968   -3.3462 C   0  0  1  0  0  0  0  0  0  0  0  0
   17.1810   69.2907   -4.8244 C   0  0  2  0  0  0  0  0  0  0  0  0
   18.2287   70.8011   -3.3424 C   0  0  1  0  0  0  0  0  0  0  0  0
   17.1712   70.6819   -5.4347 C   0  0  2  0  0  0  0  0  0  0  0  0
   15.4221   69.2622   -2.8201 H   0  0  0  0  0  0  0  0  0  0  0  0
   16.0698   67.6770   -4.7195 H   0  0  0  0  0  0  0  0  0  0  0  0
   15.7261   70.1640   -7.8054 O   0  0  0  0  0  0  0  0  0  0  0  0
   19.4568   70.8029  -10.4356 O   0  0  0  0  0  0  0  0  0  0  0  0
   17.7401   70.7062   -6.7525 N   0  0  0  0  0  0  0  0  0  0  0  0
   17.5858   70.4817   -9.1130 N   0  0  0  0  0  0  0  0  0  0  0  0
   16.9271   70.4313   -7.8775 C   0  0  0  0  0  0  0  0  0  0  0  0
   19.0875   71.0013   -6.9210 C   0  0  0  0  0  0  0  0  0  0  0  0
   19.7012   71.0457   -8.1051 C   0  0  0  0  0  0  0  0  0  0  0  0
   18.9234   70.7699   -9.3308 C   0  0  0  0  0  0  0  0  0  0  0  0
   17.0409   70.2918   -9.9107 H   0  0  0  0  0  0  0  0  0  0  0  0
   21.2813   71.1841   -1.2803 O   0  0  0  0  0  0  0  0  0  0  0  0
   21.9466   71.2028    0.1931 P   0  0  2  0  0  0  0  0  0  0  0  0
   23.5350   71.2190   -0.1186 O   0  0  0  0  0  0  0  0  0  0  0  0
   21.5026   70.0787    1.0836 O   0  0  0  0  0  0  0  0  0  0  0  0
   21.6292   72.6768    0.7667 O   0  0  0  0  0  0  0  0  0  0  0  0
   21.1633   73.0797    3.0536 O   0  0  0  0  0  0  0  0  0  0  0  0
   19.5017   76.4087    1.2580 O   0  0  0  0  0  0  0  0  0  0  0  0
   19.1650   73.7616    0.0689 O   0  0  0  0  0  0  0  0  0  0  0  0
   22.0343   76.6231    2.6690 O   0  0  0  0  0  0  0  0  0  0  0  0
   20.4334   75.3376    1.4082 C   0  0  2  0  0  0  0  0  0  0  0  0
   19.6890   74.0027    1.3697 C   0  0  2  0  0  0  0  0  0  0  0  0
   21.1427   75.5129    2.7528 C   0  0  1  0  0  0  0  0  0  0  0  0
   20.6153   72.8485    1.7553 C   0  0  1  0  0  0  0  0  0  0  0  0
   21.9454   74.2698    3.1255 C   0  0  1  0  0  0  0  0  0  0  0  0
   19.0387   76.3183    0.4102 H   0  0  0  0  0  0  0  0  0  0  0  0
   18.5766   74.4903   -0.1823 H   0  0  0  0  0  0  0  0  0  0  0  0
   21.5359   77.4209    2.4323 H   0  0  0  0  0  0  0  0  0  0  0  0
   22.2652   73.0843    5.1240 O   0  0  0  0  0  0  0  0  0  0  0  0
   22.7284   75.3167    5.1533 O   0  0  0  0  0  0  0  0  0  0  0  0
   22.3569   74.3146    4.5611 C   0  0  0  0  0  0  0  0  0  0  0  0
  1  4  1  0
  1 24  1  0
  1  2  1  1
  1  3  2  0
 25 28  1  0
 25 24  1  0
 25 26  1  6
 25 27  2  0
  6 11  1  0
  6 12  1  0
 29 36  1  0
 29 37  1  0
  9  7  1  6
  7 13  1  0
 10  8  1  1
  8 14  1  0
  4  5  1  0
 36 28  1  6
 33 30  1  1
 30 38  1  0
 34 31  1  6
 31 39  1  0
 35 32  1  6
 32 40  1  0
 41 43  1  0
 15 19  2  0
 42 43  2  0
 16 22  2  0
 12 17  1  6
 17 19  1  0
 17 20  1  0
 18 19  1  0
 18 22  1  0
 18 23  1  0
  9 10  1  0
  9 11  1  0
 10 12  1  0
 11  5  1  6
 33 34  1  0
 33 35  1  0
 34 36  1  0
 35 37  1  0
 37 43  1  1
 20 21  2  0
 21 22  1  0
M  CHG  3   2  -1  26  -1  41  -1
M  END
>  <COMPND>  (28) 
    udp_gluA.pdb 

>  <AUTHOR>  (28) 
    GENERATED BY OPEN BABEL 3.1.1

>  <MASTER>  (28) 
        0    0    0    0    0    0    0    0   56    0   56    0

>  <minimizedAffinity>  (28) 
-6.74007

>  <CNNscore>  (28) 
0.8725206852

>  <CNNaffinity>  (28) 
4.6888589859

>  <CNN_VS>  (28) 
4.0911264420

>  <CNNaffinity_variance>  (28) 
0.0908451527

$$$$
29
     RDKit          3D

 43 45  0  0  0  0  0  0  0  0999 V2000
   21.3135   72.1119   -2.5553 P   0  0  2  0  0  0  0  0  0  0  0  0
   21.4589   70.6267   -3.1813 O   0  0  0  0  0  0  0  0  0  0  0  0
   22.0612   72.3352   -1.2736 O   0  0  0  0  0  0  0  0  0  0  0  0
   19.7145   72.3497   -2.4866 O   0  0  0  0  0  0  0  0  0  0  0  0
   19.0397   72.7530   -3.6641 C   0  0  0  0  0  0  0  0  0  0  0  0
   17.1406   72.1689   -5.0169 O   0  0  0  0  0  0  0  0  0  0  0  0
   16.2883   70.4193   -2.7356 O   0  0  0  0  0  0  0  0  0  0  0  0
   17.3915   68.6335   -4.4763 O   0  0  0  0  0  0  0  0  0  0  0  0
   17.6030   70.7019   -3.2156 C   0  0  1  0  0  0  0  0  0  0  0  0
   17.8560   69.9667   -4.5147 C   0  0  2  0  0  0  0  0  0  0  0  0
   17.6377   72.1574   -3.6611 C   0  0  1  0  0  0  0  0  0  0  0  0
   17.0961   70.8220   -5.5142 C   0  0  2  0  0  0  0  0  0  0  0  0
   16.2416   69.4946   -2.4451 H   0  0  0  0  0  0  0  0  0  0  0  0
   17.9068   68.1303   -3.8257 H   0  0  0  0  0  0  0  0  0  0  0  0
   15.6729   70.2586   -7.8877 O   0  0  0  0  0  0  0  0  0  0  0  0
   19.4553   70.7186  -10.4812 O   0  0  0  0  0  0  0  0  0  0  0  0
   17.6842   70.7880   -6.8233 N   0  0  0  0  0  0  0  0  0  0  0  0
   17.5583   70.4872   -9.1770 N   0  0  0  0  0  0  0  0  0  0  0  0
   16.8810   70.4945   -7.9506 C   0  0  0  0  0  0  0  0  0  0  0  0
   19.0407   71.0449   -6.9812 C   0  0  0  0  0  0  0  0  0  0  0  0
   19.6722   71.0345   -8.1567 C   0  0  0  0  0  0  0  0  0  0  0  0
   18.9055   70.7358   -9.3841 C   0  0  0  0  0  0  0  0  0  0  0  0
   17.0204   70.2834   -9.9761 H   0  0  0  0  0  0  0  0  0  0  0  0
   21.7707   73.0669   -3.7767 O   0  0  0  0  0  0  0  0  0  0  0  0
   23.0493   72.9897   -4.7632 P   0  0  2  0  0  0  0  0  0  0  0  0
   22.4831   72.1698   -6.0390 O   0  0  0  0  0  0  0  0  0  0  0  0
   24.2749   72.3899   -4.1370 O   0  0  0  0  0  0  0  0  0  0  0  0
   23.2424   74.4980   -5.3017 O   0  0  0  0  0  0  0  0  0  0  0  0
   25.1987   75.8236   -5.4594 O   0  0  0  0  0  0  0  0  0  0  0  0
   22.3084   78.6771   -4.7035 O   0  0  0  0  0  0  0  0  0  0  0  0
   22.2920   76.1351   -3.2639 O   0  0  0  0  0  0  0  0  0  0  0  0
   23.3904   78.3707   -7.3842 O   0  0  0  0  0  0  0  0  0  0  0  0
   22.8274   77.4550   -5.2279 C   0  0  2  0  0  0  0  0  0  0  0  0
   23.3611   76.5929   -4.0837 C   0  0  2  0  0  0  0  0  0  0  0  0
   23.9538   77.8000   -6.2046 C   0  0  1  0  0  0  0  0  0  0  0  0
   24.1290   75.3845   -4.6214 C   0  0  1  0  0  0  0  0  0  0  0  0
   24.7514   76.5593   -6.5959 C   0  0  1  0  0  0  0  0  0  0  0  0
   21.5910   78.4828   -4.0800 H   0  0  0  0  0  0  0  0  0  0  0  0
   21.8002   76.8967   -2.9195 H   0  0  0  0  0  0  0  0  0  0  0  0
   22.8800   79.1612   -7.1490 H   0  0  0  0  0  0  0  0  0  0  0  0
   26.9942   76.0225   -7.0238 O   0  0  0  0  0  0  0  0  0  0  0  0
   26.1870   77.9392   -7.9585 O   0  0  0  0  0  0  0  0  0  0  0  0
   26.0278   76.9408   -7.2723 C   0  0  0  0  0  0  0  0  0  0  0  0
  1  4  1  0
  1 24  1  0
  1  2  1  6
  1  3  2  0
 25 28  1  0
 25 24  1  0
 25 26  1  6
 25 27  2  0
  6 11  1  0
  6 12  1  0
 29 36  1  0
 29 37  1  0
  9  7  1  6
  7 13  1  0
 10  8  1  1
  8 14  1  0
  4  5  1  0
 36 28  1  6
 33 30  1  1
 30 38  1  0
 34 31  1  6
 31 39  1  0
 35 32  1  6
 32 40  1  0
 41 43  1  0
 15 19  2  0
 42 43  2  0
 16 22  2  0
 12 17  1  6
 17 19  1  0
 17 20  1  0
 18 19  1  0
 18 22  1  0
 18 23  1  0
  9 10  1  0
  9 11  1  0
 10 12  1  0
 11  5  1  6
 33 34  1  0
 33 35  1  0
 34 36  1  0
 35 37  1  0
 37 43  1  1
 20 21  2  0
 21 22  1  0
M  CHG  3   2  -1  26  -1  41  -1
M  END
>  <COMPND>  (29) 
    udp_gluA.pdb 

>  <AUTHOR>  (29) 
    GENERATED BY OPEN BABEL 3.1.1

>  <MASTER>  (29) 
        0    0    0    0    0    0    0    0   56    0   56    0

>  <minimizedAffinity>  (29) 
-6.51033

>  <CNNscore>  (29) 
0.8483814001

>  <CNNaffinity>  (29) 
4.7111396790

>  <CNN_VS>  (29) 
3.9968433380

>  <CNNaffinity_variance>  (29) 
0.0802303627

$$$$
30
     RDKit          3D

 43 45  0  0  0  0  0  0  0  0999 V2000
   23.1413   72.5498   -4.0131 P   0  0  2  0  0  0  0  0  0  0  0  0
   23.2901   72.6683   -5.6201 O   0  0  0  0  0  0  0  0  0  0  0  0
   23.9122   71.4250   -3.3867 O   0  0  0  0  0  0  0  0  0  0  0  0
   21.5416   72.5251   -3.7718 O   0  0  0  0  0  0  0  0  0  0  0  0
   20.8732   71.2772   -3.7967 C   0  0  0  0  0  0  0  0  0  0  0  0
   18.7917   71.9734   -4.7768 O   0  0  0  0  0  0  0  0  0  0  0  0
   17.4597   70.6082   -2.4630 O   0  0  0  0  0  0  0  0  0  0  0  0
   17.1724   68.7890   -4.4740 O   0  0  0  0  0  0  0  0  0  0  0  0
   18.6375   70.2329   -3.1775 C   0  0  1  0  0  0  0  0  0  0  0  0
   18.2707   69.6746   -4.5362 C   0  0  2  0  0  0  0  0  0  0  0  0
   19.3878   71.5050   -3.5477 C   0  0  1  0  0  0  0  0  0  0  0  0
   17.9603   70.9369   -5.3225 C   0  0  2  0  0  0  0  0  0  0  0  0
   16.9636   69.8117   -2.2157 H   0  0  0  0  0  0  0  0  0  0  0  0
   17.4204   68.0017   -3.9636 H   0  0  0  0  0  0  0  0  0  0  0  0
   16.1332   69.9454   -7.2343 O   0  0  0  0  0  0  0  0  0  0  0  0
   19.1730   70.4385  -10.6637 O   0  0  0  0  0  0  0  0  0  0  0  0
   18.2481   70.7956   -6.7218 N   0  0  0  0  0  0  0  0  0  0  0  0
   17.6493   70.1909   -8.9404 N   0  0  0  0  0  0  0  0  0  0  0  0
   17.2602   70.2869   -7.5978 C   0  0  0  0  0  0  0  0  0  0  0  0
   19.4956   71.1602   -7.2135 C   0  0  0  0  0  0  0  0  0  0  0  0
   19.8517   71.0631   -8.4959 C   0  0  0  0  0  0  0  0  0  0  0  0
   18.8781   70.5403   -9.4767 C   0  0  0  0  0  0  0  0  0  0  0  0
   16.9790   69.8375   -9.5689 H   0  0  0  0  0  0  0  0  0  0  0  0
   23.5635   74.0233   -3.4999 O   0  0  0  0  0  0  0  0  0  0  0  0
   23.3277   74.7610   -2.0808 P   0  0  2  0  0  0  0  0  0  0  0  0
   21.9174   75.5270   -2.2919 O   0  0  0  0  0  0  0  0  0  0  0  0
   24.4580   75.6527   -1.6550 O   0  0  0  0  0  0  0  0  0  0  0  0
   22.9921   73.5668   -1.0495 O   0  0  0  0  0  0  0  0  0  0  0  0
   23.4134   74.1336    1.2111 O   0  0  0  0  0  0  0  0  0  0  0  0
   22.5868   70.0959    1.4969 O   0  0  0  0  0  0  0  0  0  0  0  0
   24.2532   71.1162   -0.6748 O   0  0  0  0  0  0  0  0  0  0  0  0
   20.6015   72.0536    2.3197 O   0  0  0  0  0  0  0  0  0  0  0  0
   22.4811   71.4126    0.9555 C   0  0  2  0  0  0  0  0  0  0  0  0
   23.8522   71.8741    0.4608 C   0  0  2  0  0  0  0  0  0  0  0  0
   21.9749   72.3400    2.0626 C   0  0  1  0  0  0  0  0  0  0  0  0
   23.8283   73.3568    0.0869 C   0  0  1  0  0  0  0  0  0  0  0  0
   22.1005   73.8068    1.6614 C   0  0  1  0  0  0  0  0  0  0  0  0
   22.9068   69.4888    0.8111 H   0  0  0  0  0  0  0  0  0  0  0  0
   24.2703   70.1743   -0.4448 H   0  0  0  0  0  0  0  0  0  0  0  0
   20.5077   71.1228    2.5760 H   0  0  0  0  0  0  0  0  0  0  0  0
   20.6332   74.6760    3.2717 O   0  0  0  0  0  0  0  0  0  0  0  0
   22.8068   75.3580    3.3691 O   0  0  0  0  0  0  0  0  0  0  0  0
   21.9208   74.6983    2.8468 C   0  0  0  0  0  0  0  0  0  0  0  0
  1  4  1  0
  1 24  1  0
  1  2  1  6
  1  3  2  0
 25 28  1  0
 25 24  1  0
 25 26  1  6
 25 27  2  0
  6 11  1  0
  6 12  1  0
 29 36  1  0
 29 37  1  0
  9  7  1  1
  7 13  1  0
 10  8  1  1
  8 14  1  0
  4  5  1  0
 36 28  1  6
 33 30  1  1
 30 38  1  0
 34 31  1  6
 31 39  1  0
 35 32  1  6
 32 40  1  0
 41 43  1  0
 15 19  2  0
 42 43  2  0
 16 22  2  0
 12 17  1  6
 17 19  1  0
 17 20  1  0
 18 19  1  0
 18 22  1  0
 18 23  1  0
  9 10  1  0
  9 11  1  0
 10 12  1  0
 11  5  1  6
 33 34  1  0
 33 35  1  0
 34 36  1  0
 35 37  1  0
 37 43  1  1
 20 21  2  0
 21 22  1  0
M  CHG  3   2  -1  26  -1  41  -1
M  END
>  <COMPND>  (30) 
    udp_gluA.pdb 

>  <AUTHOR>  (30) 
    GENERATED BY OPEN BABEL 3.1.1

>  <MASTER>  (30) 
        0    0    0    0    0    0    0    0   56    0   56    0

>  <minimizedAffinity>  (30) 
-7.23853

>  <CNNscore>  (30) 
0.8347336650

>  <CNNaffinity>  (30) 
4.6474957466

>  <CNN_VS>  (30) 
3.8794212341

>  <CNNaffinity_variance>  (30) 
0.0174500383

$$$$
31
     RDKit          3D

 43 45  0  0  0  0  0  0  0  0999 V2000
   21.2421   72.1769   -2.4213 P   0  0  2  0  0  0  0  0  0  0  0  0
   21.3694   70.6358   -2.8982 O   0  0  0  0  0  0  0  0  0  0  0  0
   21.9736   72.5105   -1.1542 O   0  0  0  0  0  0  0  0  0  0  0  0
   19.6470   72.4477   -2.4038 O   0  0  0  0  0  0  0  0  0  0  0  0
   19.0092   72.8091   -3.6151 C   0  0  0  0  0  0  0  0  0  0  0  0
   17.1126   72.2543   -4.9834 O   0  0  0  0  0  0  0  0  0  0  0  0
   16.2165   70.5155   -2.7107 O   0  0  0  0  0  0  0  0  0  0  0  0
   17.3070   68.7151   -4.4443 O   0  0  0  0  0  0  0  0  0  0  0  0
   17.5389   70.7790   -3.1799 C   0  0  1  0  0  0  0  0  0  0  0  0
   17.7913   70.0413   -4.4777 C   0  0  2  0  0  0  0  0  0  0  0  0
   17.5986   72.2342   -3.6238 C   0  0  1  0  0  0  0  0  0  0  0  0
   17.0522   70.9086   -5.4824 C   0  0  2  0  0  0  0  0  0  0  0  0
   16.1538   69.5913   -2.4215 H   0  0  0  0  0  0  0  0  0  0  0  0
   17.8097   68.2038   -3.7901 H   0  0  0  0  0  0  0  0  0  0  0  0
   15.6839   70.1738   -7.8412 O   0  0  0  0  0  0  0  0  0  0  0  0
   19.4467   70.7846  -10.4319 O   0  0  0  0  0  0  0  0  0  0  0  0
   17.6501   70.8671   -6.7868 N   0  0  0  0  0  0  0  0  0  0  0  0
   17.5596   70.4777   -9.1292 N   0  0  0  0  0  0  0  0  0  0  0  0
   16.8748   70.4841   -7.9068 C   0  0  0  0  0  0  0  0  0  0  0  0
   18.9885   71.2045   -6.9474 C   0  0  0  0  0  0  0  0  0  0  0  0
   19.6273   71.1938   -8.1189 C   0  0  0  0  0  0  0  0  0  0  0  0
   18.8896   70.8046   -9.3386 C   0  0  0  0  0  0  0  0  0  0  0  0
   17.0411   70.2125   -9.9230 H   0  0  0  0  0  0  0  0  0  0  0  0
   21.7363   73.0011   -3.7210 O   0  0  0  0  0  0  0  0  0  0  0  0
   22.9958   72.7709   -4.7081 P   0  0  2  0  0  0  0  0  0  0  0  0
   22.4293   71.7070   -5.7887 O   0  0  0  0  0  0  0  0  0  0  0  0
   24.2524   72.3352   -4.0116 O   0  0  0  0  0  0  0  0  0  0  0  0
   23.1303   74.1529   -5.5293 O   0  0  0  0  0  0  0  0  0  0  0  0
   21.6036   75.8945   -6.0243 O   0  0  0  0  0  0  0  0  0  0  0  0
   23.8031   75.6871   -9.5153 O   0  0  0  0  0  0  0  0  0  0  0  0
   22.9539   73.2464   -8.1528 O   0  0  0  0  0  0  0  0  0  0  0  0
   24.2615   77.8503   -7.6282 O   0  0  0  0  0  0  0  0  0  0  0  0
   23.5786   75.5903   -8.1088 C   0  0  2  0  0  0  0  0  0  0  0  0
   22.4893   74.5531   -7.8347 C   0  0  2  0  0  0  0  0  0  0  0  0
   23.1416   76.9673   -7.6038 C   0  0  1  0  0  0  0  0  0  0  0  0
   22.0600   74.5855   -6.3672 C   0  0  1  0  0  0  0  0  0  0  0  0
   22.6094   76.8937   -6.1756 C   0  0  1  0  0  0  0  0  0  0  0  0
   24.0818   74.8235   -9.8586 H   0  0  0  0  0  0  0  0  0  0  0  0
   23.2283   73.2187   -9.0825 H   0  0  0  0  0  0  0  0  0  0  0  0
   24.6099   77.9059   -8.5317 H   0  0  0  0  0  0  0  0  0  0  0  0
   20.7427   77.8715   -5.1458 O   0  0  0  0  0  0  0  0  0  0  0  0
   22.2762   79.2812   -6.0733 O   0  0  0  0  0  0  0  0  0  0  0  0
   21.8900   78.1517   -5.8122 C   0  0  0  0  0  0  0  0  0  0  0  0
  1  4  1  0
  1 24  1  0
  1  2  1  6
  1  3  2  0
 25 28  1  0
 25 24  1  0
 25 26  1  6
 25 27  2  0
  6 11  1  0
  6 12  1  0
 29 36  1  0
 29 37  1  0
  9  7  1  6
  7 13  1  0
 10  8  1  1
  8 14  1  0
  4  5  1  0
 36 28  1  1
 33 30  1  6
 30 38  1  0
 34 31  1  1
 31 39  1  0
 35 32  1  1
 32 40  1  0
 41 43  1  0
 15 19  2  0
 42 43  2  0
 16 22  2  0
 12 17  1  6
 17 19  1  0
 17 20  1  0
 18 19  1  0
 18 22  1  0
 18 23  1  0
  9 10  1  0
  9 11  1  0
 10 12  1  0
 11  5  1  6
 33 34  1  0
 33 35  1  0
 34 36  1  0
 35 37  1  0
 37 43  1  6
 20 21  2  0
 21 22  1  0
M  CHG  3   2  -1  26  -1  41  -1
M  END
>  <COMPND>  (31) 
    udp_gluA.pdb 

>  <AUTHOR>  (31) 
    GENERATED BY OPEN BABEL 3.1.1

>  <MASTER>  (31) 
        0    0    0    0    0    0    0    0   56    0   56    0

>  <minimizedAffinity>  (31) 
-6.61646

>  <CNNscore>  (31) 
0.8344240189

>  <CNNaffinity>  (31) 
4.7112135887

>  <CNN_VS>  (31) 
3.9311497211

>  <CNNaffinity_variance>  (31) 
0.0721278340

$$$$
32
     RDKit          3D

 43 45  0  0  0  0  0  0  0  0999 V2000
   21.8539   72.6612   -5.4441 P   0  0  2  0  0  0  0  0  0  0  0  0
   21.2951   74.1516   -5.1521 O   0  0  0  0  0  0  0  0  0  0  0  0
   23.0914   72.6032   -6.2909 O   0  0  0  0  0  0  0  0  0  0  0  0
   20.5673   71.8708   -6.0251 O   0  0  0  0  0  0  0  0  0  0  0  0
   20.1248   72.1707   -7.3361 C   0  0  0  0  0  0  0  0  0  0  0  0
   18.9881   70.0991   -6.8956 O   0  0  0  0  0  0  0  0  0  0  0  0
   18.2466   70.1032   -9.8011 O   0  0  0  0  0  0  0  0  0  0  0  0
   15.9613   70.9834   -8.6017 O   0  0  0  0  0  0  0  0  0  0  0  0
   18.3648   71.2020   -8.8971 C   0  0  1  0  0  0  0  0  0  0  0  0
   17.1878   71.2265   -7.9451 C   0  0  2  0  0  0  0  0  0  0  0  0
   19.5283   70.9146   -7.9579 C   0  0  1  0  0  0  0  0  0  0  0  0
   17.5535   70.1266   -6.9631 C   0  0  2  0  0  0  0  0  0  0  0  0
   17.5095   70.2640  -10.4114 H   0  0  0  0  0  0  0  0  0  0  0  0
   15.7732   71.7114   -9.2153 H   0  0  0  0  0  0  0  0  0  0  0  0
   16.3420   68.1567   -5.3419 O   0  0  0  0  0  0  0  0  0  0  0  0
   15.5760   71.1685   -1.9380 O   0  0  0  0  0  0  0  0  0  0  0  0
   17.0288   70.3686   -5.6489 N   0  0  0  0  0  0  0  0  0  0  0  0
   15.9607   69.6589   -3.6485 N   0  0  0  0  0  0  0  0  0  0  0  0
   16.4399   69.3098   -4.9180 C   0  0  0  0  0  0  0  0  0  0  0  0
   17.1017   71.6417   -5.0966 C   0  0  0  0  0  0  0  0  0  0  0  0
   16.6407   71.9590   -3.8852 C   0  0  0  0  0  0  0  0  0  0  0  0
   16.0100   70.9106   -3.0567 C   0  0  0  0  0  0  0  0  0  0  0  0
   15.5446   68.9388   -3.1216 H   0  0  0  0  0  0  0  0  0  0  0  0
   22.0229   72.0401   -3.9614 O   0  0  0  0  0  0  0  0  0  0  0  0
   23.2686   72.0752   -2.9315 P   0  0  2  0  0  0  0  0  0  0  0  0
   23.9112   73.5404   -3.1781 O   0  0  0  0  0  0  0  0  0  0  0  0
   24.2366   70.9396   -3.0968 O   0  0  0  0  0  0  0  0  0  0  0  0
   22.5897   72.1690   -1.4711 O   0  0  0  0  0  0  0  0  0  0  0  0
   23.9401   71.2170    0.2258 O   0  0  0  0  0  0  0  0  0  0  0  0
   20.4523   72.0313    2.2849 O   0  0  0  0  0  0  0  0  0  0  0  0
   20.3531   70.9028   -0.4078 O   0  0  0  0  0  0  0  0  0  0  0  0
   22.7855   73.7292    2.6379 O   0  0  0  0  0  0  0  0  0  0  0  0
   21.4575   72.2358    1.2921 C   0  0  2  0  0  0  0  0  0  0  0  0
   21.5329   71.0108    0.3803 C   0  0  2  0  0  0  0  0  0  0  0  0
   22.7929   72.4494    2.0081 C   0  0  1  0  0  0  0  0  0  0  0  0
   22.7459   71.0932   -0.5474 C   0  0  1  0  0  0  0  0  0  0  0  0
   23.9640   72.3933    1.0314 C   0  0  1  0  0  0  0  0  0  0  0  0
   19.5945   71.8933    1.8532 H   0  0  0  0  0  0  0  0  0  0  0  0
   19.5795   70.8504    0.1745 H   0  0  0  0  0  0  0  0  0  0  0  0
   22.0446   73.7781    3.2621 H   0  0  0  0  0  0  0  0  0  0  0  0
   25.8229   71.0578    1.5436 O   0  0  0  0  0  0  0  0  0  0  0  0
   25.7542   73.1424    2.4650 O   0  0  0  0  0  0  0  0  0  0  0  0
   25.2605   72.2719    1.7640 C   0  0  0  0  0  0  0  0  0  0  0  0
  1  4  1  0
  1 24  1  0
  1  2  1  1
  1  3  2  0
 25 28  1  0
 25 24  1  0
 25 26  1  6
 25 27  2  0
  6 11  1  0
  6 12  1  0
 29 36  1  0
 29 37  1  0
  9  7  1  6
  7 13  1  0
 10  8  1  6
  8 14  1  0
  4  5  1  0
 36 28  1  6
 33 30  1  1
 30 38  1  0
 34 31  1  6
 31 39  1  0
 35 32  1  6
 32 40  1  0
 41 43  1  0
 15 19  2  0
 42 43  2  0
 16 22  2  0
 12 17  1  1
 17 19  1  0
 17 20  1  0
 18 19  1  0
 18 22  1  0
 18 23  1  0
  9 10  1  0
  9 11  1  0
 10 12  1  0
 11  5  1  1
 33 34  1  0
 33 35  1  0
 34 36  1  0
 35 37  1  0
 37 43  1  1
 20 21  2  0
 21 22  1  0
M  CHG  3   2  -1  26  -1  41  -1
M  END
>  <COMPND>  (32) 
    udp_gluA.pdb 

>  <AUTHOR>  (32) 
    GENERATED BY OPEN BABEL 3.1.1

>  <MASTER>  (32) 
        0    0    0    0    0    0    0    0   56    0   56    0

>  <minimizedAffinity>  (32) 
-8.16086

>  <CNNscore>  (32) 
0.7810865641

>  <CNNaffinity>  (32) 
4.6400032043

>  <CNN_VS>  (32) 
3.6242442131

>  <CNNaffinity_variance>  (32) 
0.0910685211

$$$$
33
     RDKit          3D

 43 45  0  0  0  0  0  0  0  0999 V2000
   23.5714   73.7520   -3.9802 P   0  0  2  0  0  0  0  0  0  0  0  0
   24.3328   72.3302   -4.1123 O   0  0  0  0  0  0  0  0  0  0  0  0
   24.3031   74.9201   -4.5735 O   0  0  0  0  0  0  0  0  0  0  0  0
   23.2297   73.8647   -2.4027 O   0  0  0  0  0  0  0  0  0  0  0  0
   21.9002   73.6232   -1.9800 C   0  0  0  0  0  0  0  0  0  0  0  0
   23.0011   71.7061   -1.0366 O   0  0  0  0  0  0  0  0  0  0  0  0
   20.2617   70.5388   -0.6841 O   0  0  0  0  0  0  0  0  0  0  0  0
   20.8551   71.4336    1.8225 O   0  0  0  0  0  0  0  0  0  0  0  0
   20.6888   71.8954   -0.5589 C   0  0  1  0  0  0  0  0  0  0  0  0
   21.4650   72.0839    0.7272 C   0  0  2  0  0  0  0  0  0  0  0  0
   21.7552   72.1515   -1.6151 C   0  0  1  0  0  0  0  0  0  0  0  0
   22.8157   71.4869    0.3708 C   0  0  2  0  0  0  0  0  0  0  0  0
   19.5800   70.3514   -0.0193 H   0  0  0  0  0  0  0  0  0  0  0  0
   19.9989   71.8503    2.0100 H   0  0  0  0  0  0  0  0  0  0  0  0
   24.7194   70.0844    1.9154 O   0  0  0  0  0  0  0  0  0  0  0  0
   26.9130   73.9696    3.0720 O   0  0  0  0  0  0  0  0  0  0  0  0
   23.8949   72.1070    1.0861 N   0  0  0  0  0  0  0  0  0  0  0  0
   25.8095   72.0209    2.4908 N   0  0  0  0  0  0  0  0  0  0  0  0
   24.7963   71.3117    1.8325 C   0  0  0  0  0  0  0  0  0  0  0  0
   24.0533   73.4869    1.0427 C   0  0  0  0  0  0  0  0  0  0  0  0
   25.0242   74.1487    1.6754 C   0  0  0  0  0  0  0  0  0  0  0  0
   26.0075   73.3921    2.4780 C   0  0  0  0  0  0  0  0  0  0  0  0
   26.4480   71.4888    3.0185 H   0  0  0  0  0  0  0  0  0  0  0  0
   22.1281   73.4539   -4.6443 O   0  0  0  0  0  0  0  0  0  0  0  0
   21.6634   73.3953   -6.1916 P   0  0  2  0  0  0  0  0  0  0  0  0
   22.7850   72.4521   -6.8792 O   0  0  0  0  0  0  0  0  0  0  0  0
   21.5058   74.7408   -6.8386 O   0  0  0  0  0  0  0  0  0  0  0  0
   20.3244   72.4956   -6.1831 O   0  0  0  0  0  0  0  0  0  0  0  0
   19.8603   70.3264   -5.3534 O   0  0  0  0  0  0  0  0  0  0  0  0
   17.5532   70.4276   -8.7790 O   0  0  0  0  0  0  0  0  0  0  0  0
   20.2635   71.5179   -8.7862 O   0  0  0  0  0  0  0  0  0  0  0  0
   16.3037   70.7096   -6.1694 O   0  0  0  0  0  0  0  0  0  0  0  0
   18.2030   70.9692   -7.6290 C   0  0  2  0  0  0  0  0  0  0  0  0
   19.7101   70.7348   -7.7349 C   0  0  2  0  0  0  0  0  0  0  0  0
   17.6404   70.2647   -6.3924 C   0  0  1  0  0  0  0  0  0  0  0  0
   20.4128   71.0925   -6.4245 C   0  0  1  0  0  0  0  0  0  0  0  0
   18.4707   70.5728   -5.1497 C   0  0  1  0  0  0  0  0  0  0  0  0
   17.8948   70.8603   -9.5774 H   0  0  0  0  0  0  0  0  0  0  0  0
   19.8220   71.2963   -9.6207 H   0  0  0  0  0  0  0  0  0  0  0  0
   15.7647   70.5196   -6.9531 H   0  0  0  0  0  0  0  0  0  0  0  0
   17.2155   68.7206   -4.4459 O   0  0  0  0  0  0  0  0  0  0  0  0
   18.5924   69.6891   -2.9079 O   0  0  0  0  0  0  0  0  0  0  0  0
   18.1243   69.6396   -4.0355 C   0  0  0  0  0  0  0  0  0  0  0  0
  1  4  1  0
  1 24  1  0
  1  2  1  1
  1  3  2  0
 25 28  1  0
 25 24  1  0
 25 26  1  6
 25 27  2  0
  6 11  1  0
  6 12  1  0
 29 36  1  0
 29 37  1  0
  9  7  1  1
  7 13  1  0
 10  8  1  1
  8 14  1  0
  4  5  1  0
 36 28  1  1
 33 30  1  6
 30 38  1  0
 34 31  1  6
 31 39  1  0
 35 32  1  1
 32 40  1  0
 41 43  1  0
 15 19  2  0
 42 43  2  0
 16 22  2  0
 12 17  1  1
 17 19  1  0
 17 20  1  0
 18 19  1  0
 18 22  1  0
 18 23  1  0
  9 10  1  0
  9 11  1  0
 10 12  1  0
 11  5  1  1
 33 34  1  0
 33 35  1  0
 34 36  1  0
 35 37  1  0
 37 43  1  1
 20 21  2  0
 21 22  1  0
M  CHG  3   2  -1  26  -1  41  -1
M  END
>  <COMPND>  (33) 
    udp_gluA.pdb 

>  <AUTHOR>  (33) 
    GENERATED BY OPEN BABEL 3.1.1

>  <MASTER>  (33) 
        0    0    0    0    0    0    0    0   56    0   56    0

>  <minimizedAffinity>  (33) 
-7.77956

>  <CNNscore>  (33) 
0.7639579773

>  <CNNaffinity>  (33) 
4.4933714867

>  <CNN_VS>  (33) 
3.4327468872

>  <CNNaffinity_variance>  (33) 
0.1086897254

$$$$
34
     RDKit          3D

 43 45  0  0  0  0  0  0  0  0999 V2000
   20.5339   71.2540   -1.3488 P   0  0  2  0  0  0  0  0  0  0  0  0
   20.9944   70.7331    0.1125 O   0  0  0  0  0  0  0  0  0  0  0  0
   19.9578   72.6393   -1.3751 O   0  0  0  0  0  0  0  0  0  0  0  0
   19.5633   70.0789   -1.8920 O   0  0  0  0  0  0  0  0  0  0  0  0
   19.2049   70.0772   -3.2617 C   0  0  0  0  0  0  0  0  0  0  0  0
   17.6092   71.2855   -4.5927 O   0  0  0  0  0  0  0  0  0  0  0  0
   15.4977   69.7310   -3.1378 O   0  0  0  0  0  0  0  0  0  0  0  0
   15.6716   68.4149   -5.5198 O   0  0  0  0  0  0  0  0  0  0  0  0
   16.7963   69.3145   -3.5607 C   0  0  1  0  0  0  0  0  0  0  0  0
   16.8163   69.1022   -5.0596 C   0  0  2  0  0  0  0  0  0  0  0  0
   17.7454   70.4932   -3.3931 C   0  0  1  0  0  0  0  0  0  0  0  0
   16.8907   70.5279   -5.5791 C   0  0  2  0  0  0  0  0  0  0  0  0
   14.8737   68.9944   -3.2357 H   0  0  0  0  0  0  0  0  0  0  0  0
   15.6705   67.5128   -5.1619 H   0  0  0  0  0  0  0  0  0  0  0  0
   15.6413   70.3611   -8.1065 O   0  0  0  0  0  0  0  0  0  0  0  0
   19.6469   70.8893  -10.3246 O   0  0  0  0  0  0  0  0  0  0  0  0
   17.5833   70.6187   -6.8333 N   0  0  0  0  0  0  0  0  0  0  0  0
   17.6377   70.6233   -9.2089 N   0  0  0  0  0  0  0  0  0  0  0  0
   16.8617   70.5223   -8.0466 C   0  0  0  0  0  0  0  0  0  0  0  0
   18.9605   70.8026   -6.8534 C   0  0  0  0  0  0  0  0  0  0  0  0
   19.6863   70.8971   -7.9691 C   0  0  0  0  0  0  0  0  0  0  0  0
   19.0093   70.8058   -9.2793 C   0  0  0  0  0  0  0  0  0  0  0  0
   17.1577   70.5571  -10.0659 H   0  0  0  0  0  0  0  0  0  0  0  0
   21.8693   71.0630   -2.2395 O   0  0  0  0  0  0  0  0  0  0  0  0
   23.0179   72.1163   -2.6695 P   0  0  2  0  0  0  0  0  0  0  0  0
   24.2118   71.1634   -3.2050 O   0  0  0  0  0  0  0  0  0  0  0  0
   23.4249   73.0634   -1.5780 O   0  0  0  0  0  0  0  0  0  0  0  0
   22.4416   72.8313   -3.9959 O   0  0  0  0  0  0  0  0  0  0  0  0
   22.8447   75.1198   -4.4536 O   0  0  0  0  0  0  0  0  0  0  0  0
   19.5496   74.3559   -6.8255 O   0  0  0  0  0  0  0  0  0  0  0  0
   19.7002   73.2865   -4.1111 O   0  0  0  0  0  0  0  0  0  0  0  0
   22.1885   74.5836   -8.0234 O   0  0  0  0  0  0  0  0  0  0  0  0
   20.7696   74.0476   -6.1514 C   0  0  2  0  0  0  0  0  0  0  0  0
   20.5907   74.2579   -4.6477 C   0  0  2  0  0  0  0  0  0  0  0  0
   21.8573   74.9778   -6.6933 C   0  0  1  0  0  0  0  0  0  0  0  0
   21.9315   74.1612   -3.9184 C   0  0  1  0  0  0  0  0  0  0  0  0
   23.1195   74.9167   -5.8379 C   0  0  1  0  0  0  0  0  0  0  0  0
   18.8435   73.7770   -6.4974 H   0  0  0  0  0  0  0  0  0  0  0  0
   18.8474   73.3421   -4.5694 H   0  0  0  0  0  0  0  0  0  0  0  0
   21.3936   74.6181   -8.5783 H   0  0  0  0  0  0  0  0  0  0  0  0
   25.1878   75.9539   -5.4531 O   0  0  0  0  0  0  0  0  0  0  0  0
   23.7972   76.9372   -6.9691 O   0  0  0  0  0  0  0  0  0  0  0  0
   24.0386   76.0477   -6.1670 C   0  0  0  0  0  0  0  0  0  0  0  0
  1  4  1  0
  1 24  1  0
  1  2  1  1
  1  3  2  0
 25 28  1  0
 25 24  1  0
 25 26  1  6
 25 27  2  0
  6 11  1  0
  6 12  1  0
 29 36  1  0
 29 37  1  0
  9  7  1  6
  7 13  1  0
 10  8  1  6
  8 14  1  0
  4  5  1  0
 36 28  1  6
 33 30  1  6
 30 38  1  0
 34 31  1  1
 31 39  1  0
 35 32  1  6
 32 40  1  0
 41 43  1  0
 15 19  2  0
 42 43  2  0
 16 22  2  0
 12 17  1  6
 17 19  1  0
 17 20  1  0
 18 19  1  0
 18 22  1  0
 18 23  1  0
  9 10  1  0
  9 11  1  0
 10 12  1  0
 11  5  1  6
 33 34  1  0
 33 35  1  0
 34 36  1  0
 35 37  1  0
 37 43  1  6
 20 21  2  0
 21 22  1  0
M  CHG  3   2  -1  26  -1  41  -1
M  END
>  <COMPND>  (34) 
    udp_gluA.pdb 

>  <AUTHOR>  (34) 
    GENERATED BY OPEN BABEL 3.1.1

>  <MASTER>  (34) 
        0    0    0    0    0    0    0    0   56    0   56    0

>  <minimizedAffinity>  (34) 
-7.53476

>  <CNNscore>  (34) 
0.7581217289

>  <CNNaffinity>  (34) 
4.5326070786

>  <CNN_VS>  (34) 
3.4362678528

>  <CNNaffinity_variance>  (34) 
0.5462064147

$$$$
35
     RDKit          3D

 43 45  0  0  0  0  0  0  0  0999 V2000
   21.9275   72.6541   -5.8344 P   0  0  2  0  0  0  0  0  0  0  0  0
   20.8393   73.7554   -5.3632 O   0  0  0  0  0  0  0  0  0  0  0  0
   23.0957   73.2045   -6.5987 O   0  0  0  0  0  0  0  0  0  0  0  0
   21.0438   71.5408   -6.6075 O   0  0  0  0  0  0  0  0  0  0  0  0
   20.4242   71.8984   -7.8293 C   0  0  0  0  0  0  0  0  0  0  0  0
   19.2069   69.9020   -7.2722 O   0  0  0  0  0  0  0  0  0  0  0  0
   18.1753   69.9688  -10.0870 O   0  0  0  0  0  0  0  0  0  0  0  0
   16.0856   70.9881   -8.6622 O   0  0  0  0  0  0  0  0  0  0  0  0
   18.4556   71.0530   -9.2014 C   0  0  1  0  0  0  0  0  0  0  0  0
   17.3857   71.1483   -8.1344 C   0  0  2  0  0  0  0  0  0  0  0  0
   19.6876   70.6864   -8.3852 C   0  0  1  0  0  0  0  0  0  0  0  0
   17.7776   70.0221   -7.1932 C   0  0  2  0  0  0  0  0  0  0  0  0
   17.3918   70.1799  -10.6192 H   0  0  0  0  0  0  0  0  0  0  0  0
   15.8834   71.7298   -9.2546 H   0  0  0  0  0  0  0  0  0  0  0  0
   16.3217   68.2399   -5.5561 O   0  0  0  0  0  0  0  0  0  0  0  0
   16.4083   71.1575   -1.9890 O   0  0  0  0  0  0  0  0  0  0  0  0
   17.4062   70.2907   -5.8328 N   0  0  0  0  0  0  0  0  0  0  0  0
   16.3653   69.6951   -3.7814 N   0  0  0  0  0  0  0  0  0  0  0  0
   16.6745   69.3281   -5.0977 C   0  0  0  0  0  0  0  0  0  0  0  0
   17.7673   71.4944   -5.2399 C   0  0  0  0  0  0  0  0  0  0  0  0
   17.4655   71.8299   -3.9840 C   0  0  0  0  0  0  0  0  0  0  0  0
   16.7019   70.8805   -3.1480 C   0  0  0  0  0  0  0  0  0  0  0  0
   15.8546   69.0419   -3.2505 H   0  0  0  0  0  0  0  0  0  0  0  0
   22.3163   71.9133   -4.4514 O   0  0  0  0  0  0  0  0  0  0  0  0
   23.5472   72.1497   -3.4303 P   0  0  2  0  0  0  0  0  0  0  0  0
   24.4911   73.1974   -4.2251 O   0  0  0  0  0  0  0  0  0  0  0  0
   24.2441   70.8901   -3.0037 O   0  0  0  0  0  0  0  0  0  0  0  0
   22.9155   73.0083   -2.2195 O   0  0  0  0  0  0  0  0  0  0  0  0
   21.1614   72.1673   -0.8685 O   0  0  0  0  0  0  0  0  0  0  0  0
   20.8421   76.2355   -0.2242 O   0  0  0  0  0  0  0  0  0  0  0  0
   21.3422   75.1961   -2.9082 O   0  0  0  0  0  0  0  0  0  0  0  0
   22.0147   74.5234    1.8116 O   0  0  0  0  0  0  0  0  0  0  0  0
   21.5190   75.0083   -0.4958 C   0  0  2  0  0  0  0  0  0  0  0  0
   20.9749   74.3990   -1.7882 C   0  0  2  0  0  0  0  0  0  0  0  0
   21.2749   74.0628    0.6824 C   0  0  1  0  0  0  0  0  0  0  0  0
   21.5078   72.9799   -1.9906 C   0  0  1  0  0  0  0  0  0  0  0  0
   21.7186   72.6398    0.3559 C   0  0  1  0  0  0  0  0  0  0  0  0
   20.9830   76.8524   -0.9597 H   0  0  0  0  0  0  0  0  0  0  0  0
   21.0075   76.0980   -2.7863 H   0  0  0  0  0  0  0  0  0  0  0  0
   21.7419   75.4282    2.0297 H   0  0  0  0  0  0  0  0  0  0  0  0
   21.1674   70.4155    0.8563 O   0  0  0  0  0  0  0  0  0  0  0  0
   20.8143   71.9672    2.4893 O   0  0  0  0  0  0  0  0  0  0  0  0
   21.1845   71.6734    1.3625 C   0  0  0  0  0  0  0  0  0  0  0  0
  1  4  1  0
  1 24  1  0
  1  2  1  1
  1  3  2  0
 25 28  1  0
 25 24  1  0
 25 26  1  6
 25 27  2  0
  6 11  1  0
  6 12  1  0
 29 36  1  0
 29 37  1  0
  9  7  1  6
  7 13  1  0
 10  8  1  6
  8 14  1  0
  4  5  1  0
 36 28  1  1
 33 30  1  1
 30 38  1  0
 34 31  1  6
 31 39  1  0
 35 32  1  1
 32 40  1  0
 41 43  1  0
 15 19  2  0
 42 43  2  0
 16 22  2  0
 12 17  1  1
 17 19  1  0
 17 20  1  0
 18 19  1  0
 18 22  1  0
 18 23  1  0
  9 10  1  0
  9 11  1  0
 10 12  1  0
 11  5  1  1
 33 34  1  0
 33 35  1  0
 34 36  1  0
 35 37  1  0
 37 43  1  1
 20 21  2  0
 21 22  1  0
M  CHG  3   2  -1  26  -1  41  -1
M  END
>  <COMPND>  (35) 
    udp_gluA.pdb 

>  <AUTHOR>  (35) 
    GENERATED BY OPEN BABEL 3.1.1

>  <MASTER>  (35) 
        0    0    0    0    0    0    0    0   56    0   56    0

>  <minimizedAffinity>  (35) 
-7.97408

>  <CNNscore>  (35) 
0.7476662993

>  <CNNaffinity>  (35) 
4.5975141525

>  <CNN_VS>  (35) 
3.4374063015

>  <CNNaffinity_variance>  (35) 
0.2912108302

$$$$
36
     RDKit          3D

 43 45  0  0  0  0  0  0  0  0999 V2000
   23.3437   73.6398   -3.5741 P   0  0  2  0  0  0  0  0  0  0  0  0
   22.7435   75.0164   -4.1771 O   0  0  0  0  0  0  0  0  0  0  0  0
   24.6056   73.1587   -4.2282 O   0  0  0  0  0  0  0  0  0  0  0  0
   22.0920   72.6157   -3.6238 O   0  0  0  0  0  0  0  0  0  0  0  0
   20.8584   73.0803   -4.1405 C   0  0  0  0  0  0  0  0  0  0  0  0
   18.7633   72.0042   -4.6203 O   0  0  0  0  0  0  0  0  0  0  0  0
   19.2510   70.3691   -2.1546 O   0  0  0  0  0  0  0  0  0  0  0  0
   19.9657   68.6588   -4.1547 O   0  0  0  0  0  0  0  0  0  0  0  0
   20.1866   70.8484   -3.1207 C   0  0  1  0  0  0  0  0  0  0  0  0
   20.0775   70.0453   -4.3995 C   0  0  2  0  0  0  0  0  0  0  0  0
   19.7303   72.2292   -3.5717 C   0  0  1  0  0  0  0  0  0  0  0  0
   18.8268   70.6299   -5.0333 C   0  0  2  0  0  0  0  0  0  0  0  0
   19.5215   69.4878   -1.8514 H   0  0  0  0  0  0  0  0  0  0  0  0
   20.7867   68.3345   -3.7513 H   0  0  0  0  0  0  0  0  0  0  0  0
   16.7469   69.5976   -6.6410 O   0  0  0  0  0  0  0  0  0  0  0  0
   19.0707   70.4673  -10.5253 O   0  0  0  0  0  0  0  0  0  0  0  0
   18.8621   70.5745   -6.4674 N   0  0  0  0  0  0  0  0  0  0  0  0
   17.9067   70.0308   -8.5740 N   0  0  0  0  0  0  0  0  0  0  0  0
   17.7646   70.0363   -7.1802 C   0  0  0  0  0  0  0  0  0  0  0  0
   19.9730   71.0509   -7.1528 C   0  0  0  0  0  0  0  0  0  0  0  0
   20.0939   71.0390   -8.4817 C   0  0  0  0  0  0  0  0  0  0  0  0
   18.9921   70.4926   -9.3008 C   0  0  0  0  0  0  0  0  0  0  0  0
   17.1563   69.6590   -9.0917 H   0  0  0  0  0  0  0  0  0  0  0  0
   23.4845   73.9653   -1.9971 O   0  0  0  0  0  0  0  0  0  0  0  0
   24.2244   75.1781   -1.2255 P   0  0  2  0  0  0  0  0  0  0  0  0
   22.9928   76.0463   -0.6343 O   0  0  0  0  0  0  0  0  0  0  0  0
   25.1785   75.9608   -2.0805 O   0  0  0  0  0  0  0  0  0  0  0  0
   24.8962   74.4898    0.0697 O   0  0  0  0  0  0  0  0  0  0  0  0
   23.4972   73.1277    1.4101 O   0  0  0  0  0  0  0  0  0  0  0  0
   26.7867   73.6220    3.8602 O   0  0  0  0  0  0  0  0  0  0  0  0
   25.7246   75.8756    2.3345 O   0  0  0  0  0  0  0  0  0  0  0  0
   26.3725   71.1065    2.4632 O   0  0  0  0  0  0  0  0  0  0  0  0
   26.0941   73.4946    2.6184 C   0  0  2  0  0  0  0  0  0  0  0  0
   25.0694   74.6216    2.4860 C   0  0  2  0  0  0  0  0  0  0  0  0
   25.3936   72.1341    2.6050 C   0  0  1  0  0  0  0  0  0  0  0  0
   24.1535   74.3898    1.2834 C   0  0  1  0  0  0  0  0  0  0  0  0
   24.4043   72.0283    1.4480 C   0  0  1  0  0  0  0  0  0  0  0  0
   27.2397   74.4794    3.8915 H   0  0  0  0  0  0  0  0  0  0  0  0
   26.3077   76.0291    3.0940 H   0  0  0  0  0  0  0  0  0  0  0  0
   27.0085   71.1628    3.1934 H   0  0  0  0  0  0  0  0  0  0  0  0
   24.2139   69.7012    1.6712 O   0  0  0  0  0  0  0  0  0  0  0  0
   22.2833   70.9130    1.7297 O   0  0  0  0  0  0  0  0  0  0  0  0
   23.4996   70.8531    1.6294 C   0  0  0  0  0  0  0  0  0  0  0  0
  1  4  1  0
  1 24  1  0
  1  2  1  6
  1  3  2  0
 25 28  1  0
 25 24  1  0
 25 26  1  1
 25 27  2  0
  6 11  1  0
  6 12  1  0
 29 36  1  0
 29 37  1  0
  9  7  1  1
  7 13  1  0
 10  8  1  1
  8 14  1  0
  4  5  1  0
 36 28  1  6
 33 30  1  1
 30 38  1  0
 34 31  1  6
 31 39  1  0
 35 32  1  6
 32 40  1  0
 41 43  1  0
 15 19  2  0
 42 43  2  0
 16 22  2  0
 12 17  1  6
 17 19  1  0
 17 20  1  0
 18 19  1  0
 18 22  1  0
 18 23  1  0
  9 10  1  0
  9 11  1  0
 10 12  1  0
 11  5  1  6
 33 34  1  0
 33 35  1  0
 34 36  1  0
 35 37  1  0
 37 43  1  1
 20 21  2  0
 21 22  1  0
M  CHG  3   2  -1  26  -1  41  -1
M  END
>  <COMPND>  (36) 
    udp_gluA.pdb 

>  <AUTHOR>  (36) 
    GENERATED BY OPEN BABEL 3.1.1

>  <MASTER>  (36) 
        0    0    0    0    0    0    0    0   56    0   56    0

>  <minimizedAffinity>  (36) 
-6.64535

>  <CNNscore>  (36) 
0.6967362165

>  <CNNaffinity>  (36) 
4.3222403526

>  <CNN_VS>  (36) 
3.0114614964

>  <CNNaffinity_variance>  (36) 
0.0657065585

$$$$
37
     RDKit          3D

 43 45  0  0  0  0  0  0  0  0999 V2000
   23.5577   72.5420   -3.5821 P   0  0  2  0  0  0  0  0  0  0  0  0
   24.0197   71.0545   -3.1431 O   0  0  0  0  0  0  0  0  0  0  0  0
   24.5798   73.3198   -4.3581 O   0  0  0  0  0  0  0  0  0  0  0  0
   23.0614   73.2188   -2.1988 O   0  0  0  0  0  0  0  0  0  0  0  0
   22.3108   74.4175   -2.2637 C   0  0  0  0  0  0  0  0  0  0  0  0
   21.0729   72.9645   -0.8029 O   0  0  0  0  0  0  0  0  0  0  0  0
   19.3831   75.3568   -0.1602 O   0  0  0  0  0  0  0  0  0  0  0  0
   21.0483   75.2074    1.9941 O   0  0  0  0  0  0  0  0  0  0  0  0
   20.7848   75.2846   -0.4219 C   0  0  1  0  0  0  0  0  0  0  0  0
   21.5095   74.6862    0.7652 C   0  0  2  0  0  0  0  0  0  0  0  0
   21.0083   74.2294   -1.4966 C   0  0  1  0  0  0  0  0  0  0  0  0
   21.2056   73.2061    0.6069 C   0  0  2  0  0  0  0  0  0  0  0  0
   19.2155   76.0247    0.5235 H   0  0  0  0  0  0  0  0  0  0  0  0
   21.2659   76.1518    2.0467 H   0  0  0  0  0  0  0  0  0  0  0  0
   21.0406   70.3964    0.8405 O   0  0  0  0  0  0  0  0  0  0  0  0
   25.2843   70.1120    2.6164 O   0  0  0  0  0  0  0  0  0  0  0  0
   22.2527   72.3731    1.1269 N   0  0  0  0  0  0  0  0  0  0  0  0
   23.1539   70.2576    1.7257 N   0  0  0  0  0  0  0  0  0  0  0  0
   22.0687   70.9721    1.2017 C   0  0  0  0  0  0  0  0  0  0  0  0
   23.4454   72.9438    1.5542 C   0  0  0  0  0  0  0  0  0  0  0  0
   24.4710   72.2496    2.0512 C   0  0  0  0  0  0  0  0  0  0  0  0
   24.3597   70.7805    2.1642 C   0  0  0  0  0  0  0  0  0  0  0  0
   23.0485   69.2808    1.7895 H   0  0  0  0  0  0  0  0  0  0  0  0
   22.1733   72.2737   -4.3724 O   0  0  0  0  0  0  0  0  0  0  0  0
   21.5401   72.9885   -5.6769 P   0  0  2  0  0  0  0  0  0  0  0  0
   22.4997   72.4826   -6.8783 O   0  0  0  0  0  0  0  0  0  0  0  0
   21.4233   74.4811   -5.5655 O   0  0  0  0  0  0  0  0  0  0  0  0
   20.1411   72.2241   -5.9238 O   0  0  0  0  0  0  0  0  0  0  0  0
   19.4401   70.0573   -5.2735 O   0  0  0  0  0  0  0  0  0  0  0  0
   17.4528   70.5418   -8.8628 O   0  0  0  0  0  0  0  0  0  0  0  0
   20.2299   71.4031   -8.5798 O   0  0  0  0  0  0  0  0  0  0  0  0
   16.0079   70.7784   -6.3514 O   0  0  0  0  0  0  0  0  0  0  0  0
   18.0407   70.9621   -7.6317 C   0  0  2  0  0  0  0  0  0  0  0  0
   19.5286   70.6104   -7.6287 C   0  0  2  0  0  0  0  0  0  0  0  0
   17.3203   70.2379   -6.4921 C   0  0  1  0  0  0  0  0  0  0  0  0
   20.1409   70.8343   -6.2454 C   0  0  1  0  0  0  0  0  0  0  0  0
   18.0615   70.4058   -5.1689 C   0  0  1  0  0  0  0  0  0  0  0  0
   17.8946   70.9891   -9.6017 H   0  0  0  0  0  0  0  0  0  0  0  0
   19.8464   71.2661   -9.4599 H   0  0  0  0  0  0  0  0  0  0  0  0
   15.5255   70.6780   -7.1869 H   0  0  0  0  0  0  0  0  0  0  0  0
   18.5302   69.1012   -3.2768 O   0  0  0  0  0  0  0  0  0  0  0  0
   16.4038   69.0192   -4.0960 O   0  0  0  0  0  0  0  0  0  0  0  0
   17.5487   69.4431   -4.1478 C   0  0  0  0  0  0  0  0  0  0  0  0
  1  4  1  0
  1 24  1  0
  1  2  1  1
  1  3  2  0
 25 28  1  0
 25 24  1  0
 25 26  1  6
 25 27  2  0
  6 11  1  0
  6 12  1  0
 29 36  1  0
 29 37  1  0
  9  7  1  1
  7 13  1  0
 10  8  1  1
  8 14  1  0
  4  5  1  0
 36 28  1  1
 33 30  1  6
 30 38  1  0
 34 31  1  6
 31 39  1  0
 35 32  1  1
 32 40  1  0
 41 43  1  0
 15 19  2  0
 42 43  2  0
 16 22  2  0
 12 17  1  6
 17 19  1  0
 17 20  1  0
 18 19  1  0
 18 22  1  0
 18 23  1  0
  9 10  1  0
  9 11  1  0
 10 12  1  0
 11  5  1  1
 33 34  1  0
 33 35  1  0
 34 36  1  0
 35 37  1  0
 37 43  1  1
 20 21  2  0
 21 22  1  0
M  CHG  3   2  -1  26  -1  41  -1
M  END
>  <COMPND>  (37) 
    udp_gluA.pdb 

>  <AUTHOR>  (37) 
    GENERATED BY OPEN BABEL 3.1.1

>  <MASTER>  (37) 
        0    0    0    0    0    0    0    0   56    0   56    0

>  <minimizedAffinity>  (37) 
-7.72345

>  <CNNscore>  (37) 
0.6943640709

>  <CNNaffinity>  (37) 
4.5229806900

>  <CNN_VS>  (37) 
3.1405951977

>  <CNNaffinity_variance>  (37) 
0.1218934059

$$$$
38
     RDKit          3D

 43 45  0  0  0  0  0  0  0  0999 V2000
   17.7293   73.5571   -3.1473 P   0  0  2  0  0  0  0  0  0  0  0  0
   18.3234   75.0101   -2.7541 O   0  0  0  0  0  0  0  0  0  0  0  0
   16.9266   72.8882   -2.0703 O   0  0  0  0  0  0  0  0  0  0  0  0
   19.0223   72.7376   -3.6715 O   0  0  0  0  0  0  0  0  0  0  0  0
   20.1846   73.4638   -4.0268 C   0  0  0  0  0  0  0  0  0  0  0  0
   20.5161   71.3341   -5.0907 O   0  0  0  0  0  0  0  0  0  0  0  0
   23.2063   72.3727   -5.9128 O   0  0  0  0  0  0  0  0  0  0  0  0
   21.7327   72.6683   -8.1882 O   0  0  0  0  0  0  0  0  0  0  0  0
   21.9645   73.0685   -5.8011 C   0  0  1  0  0  0  0  0  0  0  0  0
   21.0517   72.6997   -6.9513 C   0  0  2  0  0  0  0  0  0  0  0  0
   21.2140   72.5008   -4.6041 C   0  0  1  0  0  0  0  0  0  0  0  0
   20.5467   71.3313   -6.5268 C   0  0  2  0  0  0  0  0  0  0  0  0
   23.7038   72.7181   -6.6710 H   0  0  0  0  0  0  0  0  0  0  0  0
   22.0340   73.5628   -8.4142 H   0  0  0  0  0  0  0  0  0  0  0  0
   19.9152   70.9338   -9.2508 O   0  0  0  0  0  0  0  0  0  0  0  0
   15.4504   70.2836   -8.3094 O   0  0  0  0  0  0  0  0  0  0  0  0
   19.2273   71.0565   -7.0214 N   0  0  0  0  0  0  0  0  0  0  0  0
   17.6919   70.6114   -8.7795 N   0  0  0  0  0  0  0  0  0  0  0  0
   19.0175   70.8731   -8.4086 C   0  0  0  0  0  0  0  0  0  0  0  0
   18.1592   70.9695   -6.1368 C   0  0  0  0  0  0  0  0  0  0  0  0
   16.9012   70.7193   -6.5052 C   0  0  0  0  0  0  0  0  0  0  0  0
   16.5963   70.5160   -7.9367 C   0  0  0  0  0  0  0  0  0  0  0  0
   17.5207   70.4821   -9.7403 H   0  0  0  0  0  0  0  0  0  0  0  0
   16.9117   73.8558   -4.5094 O   0  0  0  0  0  0  0  0  0  0  0  0
   15.3290   74.0481   -4.7767 P   0  0  2  0  0  0  0  0  0  0  0  0
   14.9190   75.2229   -3.7413 O   0  0  0  0  0  0  0  0  0  0  0  0
   14.5230   72.7895   -4.6346 O   0  0  0  0  0  0  0  0  0  0  0  0
   15.2407   74.7389   -6.2319 O   0  0  0  0  0  0  0  0  0  0  0  0
   14.0632   74.0261   -8.1592 O   0  0  0  0  0  0  0  0  0  0  0  0
   17.3106   75.9613   -9.8258 O   0  0  0  0  0  0  0  0  0  0  0  0
   17.6559   74.2162   -7.5085 O   0  0  0  0  0  0  0  0  0  0  0  0
   14.7000   77.2400   -9.8108 O   0  0  0  0  0  0  0  0  0  0  0  0
   16.2999   75.7178   -8.8475 C   0  0  2  0  0  0  0  0  0  0  0  0
   16.4647   74.3071   -8.2816 C   0  0  2  0  0  0  0  0  0  0  0  0
   14.9374   75.8621   -9.5291 C   0  0  1  0  0  0  0  0  0  0  0  0
   15.2713   73.9267   -7.4041 C   0  0  1  0  0  0  0  0  0  0  0  0
   13.8114   75.3453   -8.6382 C   0  0  1  0  0  0  0  0  0  0  0  0
   18.1855   75.8751   -9.4155 H   0  0  0  0  0  0  0  0  0  0  0  0
   18.4172   74.4565   -8.0590 H   0  0  0  0  0  0  0  0  0  0  0  0
   15.4097   77.5813  -10.3770 H   0  0  0  0  0  0  0  0  0  0  0  0
   12.1203   76.3800   -9.8917 O   0  0  0  0  0  0  0  0  0  0  0  0
   11.9755   74.1214   -9.6145 O   0  0  0  0  0  0  0  0  0  0  0  0
   12.5485   75.1829   -9.4200 C   0  0  0  0  0  0  0  0  0  0  0  0
  1  4  1  0
  1 24  1  0
  1  2  1  1
  1  3  2  0
 25 28  1  0
 25 24  1  0
 25 26  1  1
 25 27  2  0
  6 11  1  0
  6 12  1  0
 29 36  1  0
 29 37  1  0
  9  7  1  6
  7 13  1  0
 10  8  1  6
  8 14  1  0
  4  5  1  0
 36 28  1  1
 33 30  1  6
 30 38  1  0
 34 31  1  1
 31 39  1  0
 35 32  1  1
 32 40  1  0
 41 43  1  0
 15 19  2  0
 42 43  2  0
 16 22  2  0
 12 17  1  6
 17 19  1  0
 17 20  1  0
 18 19  1  0
 18 22  1  0
 18 23  1  0
  9 10  1  0
  9 11  1  0
 10 12  1  0
 11  5  1  6
 33 34  1  0
 33 35  1  0
 34 36  1  0
 35 37  1  0
 37 43  1  6
 20 21  2  0
 21 22  1  0
M  CHG  3   2  -1  26  -1  41  -1
M  END
>  <COMPND>  (38) 
    udp_gluA.pdb 

>  <AUTHOR>  (38) 
    GENERATED BY OPEN BABEL 3.1.1

>  <MASTER>  (38) 
        0    0    0    0    0    0    0    0   56    0   56    0

>  <minimizedAffinity>  (38) 
-5.98182

>  <CNNscore>  (38) 
0.6577225924

>  <CNNaffinity>  (38) 
4.2424645424

>  <CNN_VS>  (38) 
2.7903647423

>  <CNNaffinity_variance>  (38) 
0.3317652643

$$$$
39
     RDKit          3D

 43 45  0  0  0  0  0  0  0  0999 V2000
   23.2309   71.6796   -2.7073 P   0  0  2  0  0  0  0  0  0  0  0  0
   23.4190   73.2851   -2.6325 O   0  0  0  0  0  0  0  0  0  0  0  0
   24.4584   70.9159   -3.1095 O   0  0  0  0  0  0  0  0  0  0  0  0
   21.9380   71.4839   -3.6603 O   0  0  0  0  0  0  0  0  0  0  0  0
   21.6914   72.4442   -4.6709 C   0  0  0  0  0  0  0  0  0  0  0  0
   20.7349   70.5540   -5.8066 O   0  0  0  0  0  0  0  0  0  0  0  0
   21.2084   72.0760   -8.3464 O   0  0  0  0  0  0  0  0  0  0  0  0
   18.5463   72.4683   -7.9042 O   0  0  0  0  0  0  0  0  0  0  0  0
   20.8246   72.5619   -7.0599 C   0  0  1  0  0  0  0  0  0  0  0  0
   19.3736   72.2283   -6.7850 C   0  0  2  0  0  0  0  0  0  0  0  0
   21.5474   71.7305   -6.0089 C   0  0  1  0  0  0  0  0  0  0  0  0
   19.4522   70.7554   -6.4210 C   0  0  2  0  0  0  0  0  0  0  0  0
   20.7591   72.5920   -9.0346 H   0  0  0  0  0  0  0  0  0  0  0  0
   18.5290   73.4197   -8.0953 H   0  0  0  0  0  0  0  0  0  0  0  0
   16.8786   69.8722   -7.1781 O   0  0  0  0  0  0  0  0  0  0  0  0
   15.5927   69.2781   -2.7921 O   0  0  0  0  0  0  0  0  0  0  0  0
   18.4253   70.3637   -5.4974 N   0  0  0  0  0  0  0  0  0  0  0  0
   16.2403   69.5781   -4.9929 N   0  0  0  0  0  0  0  0  0  0  0  0
   17.1666   69.9355   -5.9814 C   0  0  0  0  0  0  0  0  0  0  0  0
   18.6700   70.4041   -4.1302 C   0  0  0  0  0  0  0  0  0  0  0  0
   17.7772   70.0602   -3.2000 C   0  0  0  0  0  0  0  0  0  0  0  0
   16.4371   69.6023   -3.6216 C   0  0  0  0  0  0  0  0  0  0  0  0
   15.3560   69.2787   -5.3055 H   0  0  0  0  0  0  0  0  0  0  0  0
   22.6599   71.3124   -1.2403 O   0  0  0  0  0  0  0  0  0  0  0  0
   21.4625   71.9664   -0.3731 P   0  0  2  0  0  0  0  0  0  0  0  0
   20.6668   70.6748    0.1918 O   0  0  0  0  0  0  0  0  0  0  0  0
   20.6065   72.9345   -1.1373 O   0  0  0  0  0  0  0  0  0  0  0  0
   22.1909   72.5945    0.9220 O   0  0  0  0  0  0  0  0  0  0  0  0
   24.0516   71.8394    2.1776 O   0  0  0  0  0  0  0  0  0  0  0  0
   21.7266   73.6063    5.1000 O   0  0  0  0  0  0  0  0  0  0  0  0
   20.4986   71.9476    3.0324 O   0  0  0  0  0  0  0  0  0  0  0  0
   24.0965   74.9626    4.1027 O   0  0  0  0  0  0  0  0  0  0  0  0
   22.2614   73.4335    3.7878 C   0  0  2  0  0  0  0  0  0  0  0  0
   21.8989   72.0427    3.2664 C   0  0  2  0  0  0  0  0  0  0  0  0
   23.7813   73.5908    3.8720 C   0  0  1  0  0  0  0  0  0  0  0  0
   22.6431   71.7346    1.9664 C   0  0  1  0  0  0  0  0  0  0  0  0
   24.4600   73.1449    2.5801 C   0  0  1  0  0  0  0  0  0  0  0  0
   20.7616   73.5105    5.0713 H   0  0  0  0  0  0  0  0  0  0  0  0
   20.0201   72.1422    3.8531 H   0  0  0  0  0  0  0  0  0  0  0  0
   23.6704   75.2589    4.9221 H   0  0  0  0  0  0  0  0  0  0  0  0
   26.3082   71.7007    2.5851 O   0  0  0  0  0  0  0  0  0  0  0  0
   26.6994   73.8923    3.0779 O   0  0  0  0  0  0  0  0  0  0  0  0
   25.9323   72.9889    2.7808 C   0  0  0  0  0  0  0  0  0  0  0  0
  1  4  1  0
  1 24  1  0
  1  2  1  1
  1  3  2  0
 25 28  1  0
 25 24  1  0
 25 26  1  1
 25 27  2  0
  6 11  1  0
  6 12  1  0
 29 36  1  0
 29 37  1  0
  9  7  1  6
  7 13  1  0
 10  8  1  6
  8 14  1  0
  4  5  1  0
 36 28  1  6
 33 30  1  1
 30 38  1  0
 34 31  1  6
 31 39  1  0
 35 32  1  6
 32 40  1  0
 41 43  1  0
 15 19  2  0
 42 43  2  0
 16 22  2  0
 12 17  1  1
 17 19  1  0
 17 20  1  0
 18 19  1  0
 18 22  1  0
 18 23  1  0
  9 10  1  0
  9 11  1  0
 10 12  1  0
 11  5  1  1
 33 34  1  0
 33 35  1  0
 34 36  1  0
 35 37  1  0
 37 43  1  1
 20 21  2  0
 21 22  1  0
M  CHG  3   2  -1  26  -1  41  -1
M  END
>  <COMPND>  (39) 
    udp_gluA.pdb 

>  <AUTHOR>  (39) 
    GENERATED BY OPEN BABEL 3.1.1

>  <MASTER>  (39) 
        0    0    0    0    0    0    0    0   56    0   56    0

>  <minimizedAffinity>  (39) 
-7.71000

>  <CNNscore>  (39) 
0.6157259941

>  <CNNaffinity>  (39) 
4.3371071815

>  <CNN_VS>  (39) 
2.6704695225

>  <CNNaffinity_variance>  (39) 
0.2199642658

$$$$
40
     RDKit          3D

 43 45  0  0  0  0  0  0  0  0999 V2000
   22.1664   73.2192   -4.9791 P   0  0  2  0  0  0  0  0  0  0  0  0
   22.1725   74.8336   -4.8677 O   0  0  0  0  0  0  0  0  0  0  0  0
   23.2158   72.6425   -5.8835 O   0  0  0  0  0  0  0  0  0  0  0  0
   20.6354   72.8620   -5.3620 O   0  0  0  0  0  0  0  0  0  0  0  0
   20.2683   72.8386   -6.7292 C   0  0  0  0  0  0  0  0  0  0  0  0
   19.8046   70.5693   -6.0865 O   0  0  0  0  0  0  0  0  0  0  0  0
   19.5531   69.9870   -9.0173 O   0  0  0  0  0  0  0  0  0  0  0  0
   16.9516   70.1701   -8.2208 O   0  0  0  0  0  0  0  0  0  0  0  0
   19.1727   71.1568   -8.2925 C   0  0  1  0  0  0  0  0  0  0  0  0
   17.9197   70.8893   -7.4859 C   0  0  2  0  0  0  0  0  0  0  0  0
   20.2093   71.3918   -7.2023 C   0  0  1  0  0  0  0  0  0  0  0  0
   18.4653   70.0998   -6.3082 C   0  0  2  0  0  0  0  0  0  0  0  0
   18.9055   69.8165   -9.7196 H   0  0  0  0  0  0  0  0  0  0  0  0
   16.6353   70.7152   -8.9589 H   0  0  0  0  0  0  0  0  0  0  0  0
   16.2956   68.4737   -5.5179 O   0  0  0  0  0  0  0  0  0  0  0  0
   15.5896   70.9560   -1.6990 O   0  0  0  0  0  0  0  0  0  0  0  0
   17.6969   70.2985   -5.1120 N   0  0  0  0  0  0  0  0  0  0  0  0
   15.9454   69.7121   -3.6172 N   0  0  0  0  0  0  0  0  0  0  0  0
   16.6266   69.4247   -4.8073 C   0  0  0  0  0  0  0  0  0  0  0  0
   18.0067   71.3476   -4.2550 C   0  0  0  0  0  0  0  0  0  0  0  0
   17.3483   71.6089   -3.1240 C   0  0  0  0  0  0  0  0  0  0  0  0
   16.2160   70.7439   -2.7329 C   0  0  0  0  0  0  0  0  0  0  0  0
   15.1949   69.1187   -3.3849 H   0  0  0  0  0  0  0  0  0  0  0  0
   22.2744   72.7486   -3.4365 O   0  0  0  0  0  0  0  0  0  0  0  0
   22.5078   71.2869   -2.7865 P   0  0  2  0  0  0  0  0  0  0  0  0
   24.1014   71.0574   -2.9550 O   0  0  0  0  0  0  0  0  0  0  0  0
   21.6601   70.2032   -3.3873 O   0  0  0  0  0  0  0  0  0  0  0  0
   22.2930   71.5042   -1.2025 O   0  0  0  0  0  0  0  0  0  0  0  0
   21.9801   73.6109   -0.1666 O   0  0  0  0  0  0  0  0  0  0  0  0
   23.4571   71.3484    2.9587 O   0  0  0  0  0  0  0  0  0  0  0  0
   24.6103   71.1118    0.2850 O   0  0  0  0  0  0  0  0  0  0  0  0
   20.6265   71.9995    2.8389 O   0  0  0  0  0  0  0  0  0  0  0  0
   22.7360   71.5877    1.7502 C   0  0  2  0  0  0  0  0  0  0  0  0
   23.6904   72.1222    0.6820 C   0  0  2  0  0  0  0  0  0  0  0  0
   21.6415   72.6150    2.0481 C   0  0  1  0  0  0  0  0  0  0  0  0
   22.9200   72.6054   -0.5476 C   0  0  1  0  0  0  0  0  0  0  0  0
   21.0071   73.1414    0.7640 C   0  0  1  0  0  0  0  0  0  0  0  0
   24.1583   70.6984    2.7938 H   0  0  0  0  0  0  0  0  0  0  0  0
   25.1023   70.8004    1.0604 H   0  0  0  0  0  0  0  0  0  0  0  0
   21.0172   71.6600    3.6593 H   0  0  0  0  0  0  0  0  0  0  0  0
   19.5532   74.7736   -0.0867 O   0  0  0  0  0  0  0  0  0  0  0  0
   20.0977   74.9156    2.1229 O   0  0  0  0  0  0  0  0  0  0  0  0
   20.1890   74.3612    1.0378 C   0  0  0  0  0  0  0  0  0  0  0  0
  1  4  1  0
  1 24  1  0
  1  2  1  1
  1  3  2  0
 25 28  1  0
 25 24  1  0
 25 26  1  1
 25 27  2  0
  6 11  1  0
  6 12  1  0
 29 36  1  0
 29 37  1  0
  9  7  1  1
  7 13  1  0
 10  8  1  6
  8 14  1  0
  4  5  1  0
 36 28  1  1
 33 30  1  1
 30 38  1  0
 34 31  1  6
 31 39  1  0
 35 32  1  1
 32 40  1  0
 41 43  1  0
 15 19  2  0
 42 43  2  0
 16 22  2  0
 12 17  1  1
 17 19  1  0
 17 20  1  0
 18 19  1  0
 18 22  1  0
 18 23  1  0
  9 10  1  0
  9 11  1  0
 10 12  1  0
 11  5  1  1
 33 34  1  0
 33 35  1  0
 34 36  1  0
 35 37  1  0
 37 43  1  1
 20 21  2  0
 21 22  1  0
M  CHG  3   2  -1  26  -1  41  -1
M  END
>  <COMPND>  (40) 
    udp_gluA.pdb 

>  <AUTHOR>  (40) 
    GENERATED BY OPEN BABEL 3.1.1

>  <MASTER>  (40) 
        0    0    0    0    0    0    0    0   56    0   56    0

>  <minimizedAffinity>  (40) 
-7.03406

>  <CNNscore>  (40) 
0.5508443713

>  <CNNaffinity>  (40) 
4.2764625549

>  <CNN_VS>  (40) 
2.3556654453

>  <CNNaffinity_variance>  (40) 
0.2480115592

$$$$
41
     RDKit          3D

 43 45  0  0  0  0  0  0  0  0999 V2000
   20.6418   71.2803   -0.9721 P   0  0  2  0  0  0  0  0  0  0  0  0
   20.8798   70.4508    0.3969 O   0  0  0  0  0  0  0  0  0  0  0  0
   20.3285   72.7358   -0.7846 O   0  0  0  0  0  0  0  0  0  0  0  0
   19.5233   70.4167   -1.7602 O   0  0  0  0  0  0  0  0  0  0  0  0
   19.2357   70.7505   -3.1057 C   0  0  0  0  0  0  0  0  0  0  0  0
   17.5027   71.6403   -4.5139 O   0  0  0  0  0  0  0  0  0  0  0  0
   15.5942   69.9952   -2.8883 O   0  0  0  0  0  0  0  0  0  0  0  0
   15.9039   68.4936   -5.1433 O   0  0  0  0  0  0  0  0  0  0  0  0
   16.9294   69.6928   -3.2934 C   0  0  1  0  0  0  0  0  0  0  0  0
   16.9644   69.3469   -4.7670 C   0  0  2  0  0  0  0  0  0  0  0  0
   17.7371   70.9828   -3.2497 C   0  0  1  0  0  0  0  0  0  0  0  0
   16.8703   70.7176   -5.4151 C   0  0  2  0  0  0  0  0  0  0  0  0
   15.0588   69.1861   -2.9082 H   0  0  0  0  0  0  0  0  0  0  0  0
   16.0092   67.6341   -4.7050 H   0  0  0  0  0  0  0  0  0  0  0  0
   15.6557   70.0918   -7.8868 O   0  0  0  0  0  0  0  0  0  0  0  0
   19.5352   70.9572  -10.2201 O   0  0  0  0  0  0  0  0  0  0  0  0
   17.5399   70.7710   -6.6838 N   0  0  0  0  0  0  0  0  0  0  0  0
   17.5894   70.5224   -9.0465 N   0  0  0  0  0  0  0  0  0  0  0  0
   16.8388   70.4366   -7.8665 C   0  0  0  0  0  0  0  0  0  0  0  0
   18.8745   71.1525   -6.7483 C   0  0  0  0  0  0  0  0  0  0  0  0
   19.5766   71.2297   -7.8804 C   0  0  0  0  0  0  0  0  0  0  0  0
   18.9186   70.8961   -9.1607 C   0  0  0  0  0  0  0  0  0  0  0  0
   17.1233   70.2924   -9.8826 H   0  0  0  0  0  0  0  0  0  0  0  0
   21.9893   70.9847   -1.8145 O   0  0  0  0  0  0  0  0  0  0  0  0
   23.4261   71.7258   -1.8128 P   0  0  2  0  0  0  0  0  0  0  0  0
   24.2702   70.8987   -2.9191 O   0  0  0  0  0  0  0  0  0  0  0  0
   24.0800   71.7984   -0.4633 O   0  0  0  0  0  0  0  0  0  0  0  0
   23.1484   73.1586   -2.5002 O   0  0  0  0  0  0  0  0  0  0  0  0
   21.5041   73.4005   -4.1875 O   0  0  0  0  0  0  0  0  0  0  0  0
   23.8085   76.7798   -4.7687 O   0  0  0  0  0  0  0  0  0  0  0  0
   25.0708   74.2035   -4.2174 O   0  0  0  0  0  0  0  0  0  0  0  0
   21.2138   76.9879   -3.4746 O   0  0  0  0  0  0  0  0  0  0  0  0
   23.1981   75.7326   -4.0145 C   0  0  2  0  0  0  0  0  0  0  0  0
   23.6927   74.3790   -4.5251 C   0  0  2  0  0  0  0  0  0  0  0  0
   21.6820   75.8458   -4.1893 C   0  0  1  0  0  0  0  0  0  0  0  0
   22.8934   73.2339   -3.9016 C   0  0  1  0  0  0  0  0  0  0  0  0
   20.9658   74.6088   -3.6552 C   0  0  1  0  0  0  0  0  0  0  0  0
   24.7726   76.7280   -4.6728 H   0  0  0  0  0  0  0  0  0  0  0  0
   25.5839   74.9268   -4.6097 H   0  0  0  0  0  0  0  0  0  0  0  0
   21.6620   77.7822   -3.8048 H   0  0  0  0  0  0  0  0  0  0  0  0
   19.4858   74.4663   -5.4693 O   0  0  0  0  0  0  0  0  0  0  0  0
   18.5679   74.6373   -3.3890 O   0  0  0  0  0  0  0  0  0  0  0  0
   19.5459   74.5763   -4.1190 C   0  0  0  0  0  0  0  0  0  0  0  0
  1  4  1  0
  1 24  1  0
  1  2  1  1
  1  3  2  0
 25 28  1  0
 25 24  1  0
 25 26  1  6
 25 27  2  0
  6 11  1  0
  6 12  1  0
 29 36  1  0
 29 37  1  0
  9  7  1  6
  7 13  1  0
 10  8  1  6
  8 14  1  0
  4  5  1  0
 36 28  1  1
 33 30  1  6
 30 38  1  0
 34 31  1  1
 31 39  1  0
 35 32  1  1
 32 40  1  0
 41 43  1  0
 15 19  2  0
 42 43  2  0
 16 22  2  0
 12 17  1  6
 17 19  1  0
 17 20  1  0
 18 19  1  0
 18 22  1  0
 18 23  1  0
  9 10  1  0
  9 11  1  0
 10 12  1  0
 11  5  1  6
 33 34  1  0
 33 35  1  0
 34 36  1  0
 35 37  1  0
 37 43  1  6
 20 21  2  0
 21 22  1  0
M  CHG  3   2  -1  26  -1  41  -1
M  END
>  <COMPND>  (41) 
    udp_gluA.pdb 

>  <AUTHOR>  (41) 
    GENERATED BY OPEN BABEL 3.1.1

>  <MASTER>  (41) 
        0    0    0    0    0    0    0    0   56    0   56    0

>  <minimizedAffinity>  (41) 
-7.19483

>  <CNNscore>  (41) 
0.9372816086

>  <CNNaffinity>  (41) 
4.8220472336

>  <CNN_VS>  (41) 
4.5196161270

>  <CNNaffinity_variance>  (41) 
0.1992031038

$$$$
42
     RDKit          3D

 43 45  0  0  0  0  0  0  0  0999 V2000
   23.0857   71.7404   -2.6217 P   0  0  2  0  0  0  0  0  0  0  0  0
   23.4218   73.2647   -2.1945 O   0  0  0  0  0  0  0  0  0  0  0  0
   24.2492   70.9632   -3.1638 O   0  0  0  0  0  0  0  0  0  0  0  0
   21.8150   71.8859   -3.6128 O   0  0  0  0  0  0  0  0  0  0  0  0
   20.9846   70.7576   -3.8174 C   0  0  0  0  0  0  0  0  0  0  0  0
   18.9923   71.7372   -4.7389 O   0  0  0  0  0  0  0  0  0  0  0  0
   17.5273   70.4402   -2.4667 O   0  0  0  0  0  0  0  0  0  0  0  0
   17.0086   68.7568   -4.5484 O   0  0  0  0  0  0  0  0  0  0  0  0
   18.6459   69.9594   -3.2124 C   0  0  1  0  0  0  0  0  0  0  0  0
   18.2038   69.5080   -4.5882 C   0  0  2  0  0  0  0  0  0  0  0  0
   19.5389   71.1486   -3.5389 C   0  0  1  0  0  0  0  0  0  0  0  0
   18.0389   70.8311   -5.3164 C   0  0  2  0  0  0  0  0  0  0  0  0
   16.9421   69.6981   -2.2464 H   0  0  0  0  0  0  0  0  0  0  0  0
   17.1656   67.9242   -4.0750 H   0  0  0  0  0  0  0  0  0  0  0  0
   16.1560   69.9174   -7.2128 O   0  0  0  0  0  0  0  0  0  0  0  0
   19.1349   70.4366  -10.6914 O   0  0  0  0  0  0  0  0  0  0  0  0
   18.2960   70.7176   -6.7242 N   0  0  0  0  0  0  0  0  0  0  0  0
   17.6418   70.1759   -8.9434 N   0  0  0  0  0  0  0  0  0  0  0  0
   17.2816   70.2473   -7.5912 C   0  0  0  0  0  0  0  0  0  0  0  0
   19.5398   71.0713   -7.2328 C   0  0  0  0  0  0  0  0  0  0  0  0
   19.8683   70.9980   -8.5241 C   0  0  0  0  0  0  0  0  0  0  0  0
   18.8657   70.5158   -9.4966 C   0  0  0  0  0  0  0  0  0  0  0  0
   16.9526   69.8494   -9.5661 H   0  0  0  0  0  0  0  0  0  0  0  0
   22.4306   71.1233   -1.2791 O   0  0  0  0  0  0  0  0  0  0  0  0
   21.4854   71.7961   -0.1532 P   0  0  2  0  0  0  0  0  0  0  0  0
   20.7765   70.5196    0.5456 O   0  0  0  0  0  0  0  0  0  0  0  0
   20.5265   72.8209   -0.6864 O   0  0  0  0  0  0  0  0  0  0  0  0
   22.5098   72.3537    0.9613 O   0  0  0  0  0  0  0  0  0  0  0  0
   24.2816   71.4042    2.2137 O   0  0  0  0  0  0  0  0  0  0  0  0
   22.4647   73.8224    5.0278 O   0  0  0  0  0  0  0  0  0  0  0  0
   20.8544   72.2184    3.1924 O   0  0  0  0  0  0  0  0  0  0  0  0
   24.9716   74.6385    3.8030 O   0  0  0  0  0  0  0  0  0  0  0  0
   22.8863   73.4345    3.7202 C   0  0  2  0  0  0  0  0  0  0  0  0
   22.2612   72.0866    3.3598 C   0  0  2  0  0  0  0  0  0  0  0  0
   24.4129   73.3283    3.7277 C   0  0  1  0  0  0  0  0  0  0  0  0
   22.8663   71.5302    2.0702 C   0  0  1  0  0  0  0  0  0  0  0  0
   24.9303   72.6493    2.4629 C   0  0  1  0  0  0  0  0  0  0  0  0
   21.4975   73.8963    5.0472 H   0  0  0  0  0  0  0  0  0  0  0  0
   20.4639   72.5713    4.0069 H   0  0  0  0  0  0  0  0  0  0  0  0
   24.6501   75.0816    4.6037 H   0  0  0  0  0  0  0  0  0  0  0  0
   26.5847   71.0308    2.0819 O   0  0  0  0  0  0  0  0  0  0  0  0
   27.2231   72.9378    3.1566 O   0  0  0  0  0  0  0  0  0  0  0  0
   26.3630   72.2555    2.6203 C   0  0  0  0  0  0  0  0  0  0  0  0
  1  4  1  0
  1 24  1  0
  1  2  1  1
  1  3  2  0
 25 28  1  0
 25 24  1  0
 25 26  1  1
 25 27  2  0
  6 11  1  0
  6 12  1  0
 29 36  1  0
 29 37  1  0
  9  7  1  1
  7 13  1  0
 10  8  1  1
  8 14  1  0
  4  5  1  0
 36 28  1  6
 33 30  1  1
 30 38  1  0
 34 31  1  6
 31 39  1  0
 35 32  1  6
 32 40  1  0
 41 43  1  0
 15 19  2  0
 42 43  2  0
 16 22  2  0
 12 17  1  6
 17 19  1  0
 17 20  1  0
 18 19  1  0
 18 22  1  0
 18 23  1  0
  9 10  1  0
  9 11  1  0
 10 12  1  0
 11  5  1  6
 33 34  1  0
 33 35  1  0
 34 36  1  0
 35 37  1  0
 37 43  1  1
 20 21  2  0
 21 22  1  0
M  CHG  3   2  -1  26  -1  41  -1
M  END
>  <COMPND>  (42) 
    udp_gluA.pdb 

>  <AUTHOR>  (42) 
    GENERATED BY OPEN BABEL 3.1.1

>  <MASTER>  (42) 
        0    0    0    0    0    0    0    0   56    0   56    0

>  <minimizedAffinity>  (42) 
-8.20686

>  <CNNscore>  (42) 
0.9312403798

>  <CNNaffinity>  (42) 
4.7821054459

>  <CNN_VS>  (42) 
4.4532895088

>  <CNNaffinity_variance>  (42) 
0.0333863311

$$$$
43
     RDKit          3D

 43 45  0  0  0  0  0  0  0  0999 V2000
   22.7714   71.6277   -2.6421 P   0  0  2  0  0  0  0  0  0  0  0  0
   24.1887   71.0018   -3.1092 O   0  0  0  0  0  0  0  0  0  0  0  0
   22.2944   71.1782   -1.2922 O   0  0  0  0  0  0  0  0  0  0  0  0
   21.7792   71.3092   -3.8799 O   0  0  0  0  0  0  0  0  0  0  0  0
   20.8417   70.2573   -3.7415 C   0  0  0  0  0  0  0  0  0  0  0  0
   19.0438   71.5498   -4.6766 O   0  0  0  0  0  0  0  0  0  0  0  0
   17.3395   70.4219   -2.4824 O   0  0  0  0  0  0  0  0  0  0  0  0
   16.6341   68.8955   -4.6291 O   0  0  0  0  0  0  0  0  0  0  0  0
   18.3945   69.8008   -3.2171 C   0  0  1  0  0  0  0  0  0  0  0  0
   17.9285   69.4603   -4.6168 C   0  0  2  0  0  0  0  0  0  0  0  0
   19.4632   70.8520   -3.4840 C   0  0  1  0  0  0  0  0  0  0  0  0
   17.9826   70.8135   -5.3052 C   0  0  2  0  0  0  0  0  0  0  0  0
   16.6445   69.7697   -2.3000 H   0  0  0  0  0  0  0  0  0  0  0  0
   16.6524   68.0356   -4.1796 H   0  0  0  0  0  0  0  0  0  0  0  0
   16.0334   70.2746   -7.2766 O   0  0  0  0  0  0  0  0  0  0  0  0
   19.1569   70.4124  -10.6632 O   0  0  0  0  0  0  0  0  0  0  0  0
   18.2590   70.7032   -6.7096 N   0  0  0  0  0  0  0  0  0  0  0  0
   17.5911   70.3428   -8.9613 N   0  0  0  0  0  0  0  0  0  0  0  0
   17.2078   70.4298   -7.6165 C   0  0  0  0  0  0  0  0  0  0  0  0
   19.5577   70.8669   -7.1759 C   0  0  0  0  0  0  0  0  0  0  0  0
   19.9076   70.7812   -8.4608 C   0  0  0  0  0  0  0  0  0  0  0  0
   18.8693   70.4973   -9.4731 C   0  0  0  0  0  0  0  0  0  0  0  0
   16.8768   70.1511   -9.6113 H   0  0  0  0  0  0  0  0  0  0  0  0
   23.0169   73.2200   -2.7736 O   0  0  0  0  0  0  0  0  0  0  0  0
   22.0722   74.3950   -3.3573 P   0  0  2  0  0  0  0  0  0  0  0  0
   22.6736   75.7301   -2.6673 O   0  0  0  0  0  0  0  0  0  0  0  0
   20.6055   74.1820   -3.1179 O   0  0  0  0  0  0  0  0  0  0  0  0
   22.4858   74.5184   -4.9117 O   0  0  0  0  0  0  0  0  0  0  0  0
   20.8701   75.2837   -6.4651 O   0  0  0  0  0  0  0  0  0  0  0  0
   23.7117   73.6188   -8.9593 O   0  0  0  0  0  0  0  0  0  0  0  0
   22.9404   72.2704   -6.4852 O   0  0  0  0  0  0  0  0  0  0  0  0
   23.5102   76.5072   -8.7001 O   0  0  0  0  0  0  0  0  0  0  0  0
   23.2337   74.2917   -7.7945 C   0  0  2  0  0  0  0  0  0  0  0  0
   22.2567   73.3857   -7.0449 C   0  0  2  0  0  0  0  0  0  0  0  0
   22.5316   75.5749   -8.2444 C   0  0  1  0  0  0  0  0  0  0  0  0
   21.5509   74.1507   -5.9244 C   0  0  1  0  0  0  0  0  0  0  0  0
   21.7472   76.2111   -7.1005 C   0  0  1  0  0  0  0  0  0  0  0  0
   24.1617   72.7999   -8.6981 H   0  0  0  0  0  0  0  0  0  0  0  0
   23.3908   71.7805   -7.1906 H   0  0  0  0  0  0  0  0  0  0  0  0
   24.0166   76.1145   -9.4282 H   0  0  0  0  0  0  0  0  0  0  0  0
   20.2550   77.9472   -6.5897 O   0  0  0  0  0  0  0  0  0  0  0  0
   20.5807   77.4708   -8.7957 O   0  0  0  0  0  0  0  0  0  0  0  0
   20.8133   77.2575   -7.6152 C   0  0  0  0  0  0  0  0  0  0  0  0
  1  4  1  0
  1 24  1  0
  1  2  1  6
  1  3  2  0
 25 28  1  0
 25 24  1  0
 25 26  1  1
 25 27  2  0
  6 11  1  0
  6 12  1  0
 29 36  1  0
 29 37  1  0
  9  7  1  1
  7 13  1  0
 10  8  1  1
  8 14  1  0
  4  5  1  0
 36 28  1  1
 33 30  1  6
 30 38  1  0
 34 31  1  1
 31 39  1  0
 35 32  1  1
 32 40  1  0
 41 43  1  0
 15 19  2  0
 42 43  2  0
 16 22  2  0
 12 17  1  6
 17 19  1  0
 17 20  1  0
 18 19  1  0
 18 22  1  0
 18 23  1  0
  9 10  1  0
  9 11  1  0
 10 12  1  0
 11  5  1  6
 33 34  1  0
 33 35  1  0
 34 36  1  0
 35 37  1  0
 37 43  1  6
 20 21  2  0
 21 22  1  0
M  CHG  3   2  -1  26  -1  41  -1
M  END
>  <COMPND>  (43) 
    udp_gluA.pdb 

>  <AUTHOR>  (43) 
    GENERATED BY OPEN BABEL 3.1.1

>  <MASTER>  (43) 
        0    0    0    0    0    0    0    0   56    0   56    0

>  <minimizedAffinity>  (43) 
-7.38894

>  <CNNscore>  (43) 
0.9268139005

>  <CNNaffinity>  (43) 
4.7945089340

>  <CNN_VS>  (43) 
4.4436173439

>  <CNNaffinity_variance>  (43) 
0.2145697773

$$$$
44
     RDKit          3D

 43 45  0  0  0  0  0  0  0  0999 V2000
   22.7770   71.6604   -2.8082 P   0  0  2  0  0  0  0  0  0  0  0  0
   22.7795   73.2531   -2.5217 O   0  0  0  0  0  0  0  0  0  0  0  0
   24.0989   71.0908   -3.2323 O   0  0  0  0  0  0  0  0  0  0  0  0
   21.5565   71.4551   -3.8505 O   0  0  0  0  0  0  0  0  0  0  0  0
   20.7084   70.3334   -3.6861 C   0  0  0  0  0  0  0  0  0  0  0  0
   18.8519   71.4941   -4.6780 O   0  0  0  0  0  0  0  0  0  0  0  0
   17.1603   70.2170   -2.5568 O   0  0  0  0  0  0  0  0  0  0  0  0
   16.6531   68.6629   -4.7393 O   0  0  0  0  0  0  0  0  0  0  0  0
   18.2859   69.6859   -3.2563 C   0  0  1  0  0  0  0  0  0  0  0  0
   17.8989   69.3249   -4.6748 C   0  0  2  0  0  0  0  0  0  0  0  0
   19.2798   70.8183   -3.4757 C   0  0  1  0  0  0  0  0  0  0  0  0
   17.8740   70.6851   -5.3509 C   0  0  2  0  0  0  0  0  0  0  0  0
   16.5113   69.5117   -2.4051 H   0  0  0  0  0  0  0  0  0  0  0  0
   16.7209   67.8023   -4.2957 H   0  0  0  0  0  0  0  0  0  0  0  0
   16.0573   69.9704   -7.3917 O   0  0  0  0  0  0  0  0  0  0  0  0
   19.2697   70.4316  -10.6646 O   0  0  0  0  0  0  0  0  0  0  0  0
   18.2091   70.6105   -6.7448 N   0  0  0  0  0  0  0  0  0  0  0  0
   17.6592   70.1998   -9.0197 N   0  0  0  0  0  0  0  0  0  0  0  0
   17.2222   70.2412   -7.6892 C   0  0  0  0  0  0  0  0  0  0  0  0
   19.5013   70.9026   -7.1641 C   0  0  0  0  0  0  0  0  0  0  0  0
   19.9028   70.8589   -8.4360 C   0  0  0  0  0  0  0  0  0  0  0  0
   18.9335   70.4811   -9.4852 C   0  0  0  0  0  0  0  0  0  0  0  0
   16.9904   69.9432   -9.6951 H   0  0  0  0  0  0  0  0  0  0  0  0
   22.1885   71.0454   -1.4340 O   0  0  0  0  0  0  0  0  0  0  0  0
   21.3437   71.7332   -0.2395 P   0  0  2  0  0  0  0  0  0  0  0  0
   20.9685   70.4817    0.7162 O   0  0  0  0  0  0  0  0  0  0  0  0
   20.1611   72.5334   -0.7033 O   0  0  0  0  0  0  0  0  0  0  0  0
   22.4336   72.5748    0.6008 O   0  0  0  0  0  0  0  0  0  0  0  0
   21.7302   73.8257    2.4849 O   0  0  0  0  0  0  0  0  0  0  0  0
   25.4447   75.4669    1.7251 O   0  0  0  0  0  0  0  0  0  0  0  0
   23.6210   74.8497   -0.4720 O   0  0  0  0  0  0  0  0  0  0  0  0
   25.0895   73.6262    3.9470 O   0  0  0  0  0  0  0  0  0  0  0  0
   24.4600   74.4341    1.7661 C   0  0  2  0  0  0  0  0  0  0  0  0
   23.2620   74.8347    0.9048 C   0  0  2  0  0  0  0  0  0  0  0  0
   24.0298   74.2485    3.2230 C   0  0  1  0  0  0  0  0  0  0  0  0
   22.0959   73.8657    1.1049 C   0  0  1  0  0  0  0  0  0  0  0  0
   22.7857   73.3712    3.3290 C   0  0  1  0  0  0  0  0  0  0  0  0
   25.7332   75.6027    0.8088 H   0  0  0  0  0  0  0  0  0  0  0  0
   24.3606   75.4624   -0.6062 H   0  0  0  0  0  0  0  0  0  0  0  0
   25.8874   74.1745    3.8873 H   0  0  0  0  0  0  0  0  0  0  0  0
   21.0377   74.1833    4.6656 O   0  0  0  0  0  0  0  0  0  0  0  0
   22.6584   72.9601    5.7030 O   0  0  0  0  0  0  0  0  0  0  0  0
   22.1865   73.4632    4.6945 C   0  0  0  0  0  0  0  0  0  0  0  0
  1  4  1  0
  1 24  1  0
  1  2  1  1
  1  3  2  0
 25 28  1  0
 25 24  1  0
 25 26  1  1
 25 27  2  0
  6 11  1  0
  6 12  1  0
 29 36  1  0
 29 37  1  0
  9  7  1  1
  7 13  1  0
 10  8  1  1
  8 14  1  0
  4  5  1  0
 36 28  1  1
 33 30  1  1
 30 38  1  0
 34 31  1  6
 31 39  1  0
 35 32  1  1
 32 40  1  0
 41 43  1  0
 15 19  2  0
 42 43  2  0
 16 22  2  0
 12 17  1  6
 17 19  1  0
 17 20  1  0
 18 19  1  0
 18 22  1  0
 18 23  1  0
  9 10  1  0
  9 11  1  0
 10 12  1  0
 11  5  1  6
 33 34  1  0
 33 35  1  0
 34 36  1  0
 35 37  1  0
 37 43  1  1
 20 21  2  0
 21 22  1  0
M  CHG  3   2  -1  26  -1  41  -1
M  END
>  <COMPND>  (44) 
    udp_gluA.pdb 

>  <AUTHOR>  (44) 
    GENERATED BY OPEN BABEL 3.1.1

>  <MASTER>  (44) 
        0    0    0    0    0    0    0    0   56    0   56    0

>  <minimizedAffinity>  (44) 
-7.50453

>  <CNNscore>  (44) 
0.9208714962

>  <CNNaffinity>  (44) 
4.7864422798

>  <CNN_VS>  (44) 
4.4076981544

>  <CNNaffinity_variance>  (44) 
0.0444660485

$$$$
45
     RDKit          3D

 43 45  0  0  0  0  0  0  0  0999 V2000
   21.1774   73.4593   -4.5601 P   0  0  2  0  0  0  0  0  0  0  0  0
   20.2182   74.6465   -5.0981 O   0  0  0  0  0  0  0  0  0  0  0  0
   21.6999   72.5366   -5.6219 O   0  0  0  0  0  0  0  0  0  0  0  0
   20.3098   72.7604   -3.3868 O   0  0  0  0  0  0  0  0  0  0  0  0
   19.8113   71.4529   -3.6018 C   0  0  0  0  0  0  0  0  0  0  0  0
   17.8598   71.9002   -4.9320 O   0  0  0  0  0  0  0  0  0  0  0  0
   16.3254   70.3672   -2.8615 O   0  0  0  0  0  0  0  0  0  0  0  0
   16.6068   68.5417   -4.8676 O   0  0  0  0  0  0  0  0  0  0  0  0
   17.6445   70.1420   -3.3594 C   0  0  1  0  0  0  0  0  0  0  0  0
   17.5852   69.5537   -4.7532 C   0  0  2  0  0  0  0  0  0  0  0  0
   18.2887   71.4980   -3.6130 C   0  0  1  0  0  0  0  0  0  0  0  0
   17.2645   70.7752   -5.5977 C   0  0  2  0  0  0  0  0  0  0  0  0
   15.8936   69.5149   -2.6919 H   0  0  0  0  0  0  0  0  0  0  0  0
   16.8566   67.7862   -4.3119 H   0  0  0  0  0  0  0  0  0  0  0  0
   15.7187   70.3087   -7.9149 O   0  0  0  0  0  0  0  0  0  0  0  0
   19.4343   70.4293  -10.6395 O   0  0  0  0  0  0  0  0  0  0  0  0
   17.8023   70.6801   -6.9253 N   0  0  0  0  0  0  0  0  0  0  0  0
   17.5709   70.3682   -9.2696 N   0  0  0  0  0  0  0  0  0  0  0  0
   16.9391   70.4433   -8.0212 C   0  0  0  0  0  0  0  0  0  0  0  0
   19.1690   70.8224   -7.1319 C   0  0  0  0  0  0  0  0  0  0  0  0
   19.7566   70.7484   -8.3277 C   0  0  0  0  0  0  0  0  0  0  0  0
   18.9260   70.5025   -9.5248 C   0  0  0  0  0  0  0  0  0  0  0  0
   16.9907   70.2019  -10.0474 H   0  0  0  0  0  0  0  0  0  0  0  0
   22.3191   74.2583   -3.7410 O   0  0  0  0  0  0  0  0  0  0  0  0
   23.8651   73.8912   -3.4431 P   0  0  2  0  0  0  0  0  0  0  0  0
   24.5824   75.3406   -3.3722 O   0  0  0  0  0  0  0  0  0  0  0  0
   24.4763   72.9467   -4.4373 O   0  0  0  0  0  0  0  0  0  0  0  0
   23.8731   73.3580   -1.9206 O   0  0  0  0  0  0  0  0  0  0  0  0
   21.9778   73.1460   -0.5164 O   0  0  0  0  0  0  0  0  0  0  0  0
   25.0173   73.6238    2.2406 O   0  0  0  0  0  0  0  0  0  0  0  0
   24.9516   75.2471   -0.1873 O   0  0  0  0  0  0  0  0  0  0  0  0
   23.8533   70.9979    1.7923 O   0  0  0  0  0  0  0  0  0  0  0  0
   24.4282   73.2031    1.0102 C   0  0  2  0  0  0  0  0  0  0  0  0
   23.8843   74.4197    0.2608 C   0  0  2  0  0  0  0  0  0  0  0  0
   23.2944   72.2288    1.3374 C   0  0  1  0  0  0  0  0  0  0  0  0
   23.0470   73.9903   -0.9447 C   0  0  1  0  0  0  0  0  0  0  0  0
   22.4297   71.9484    0.1118 C   0  0  1  0  0  0  0  0  0  0  0  0
   25.7407   74.2439    2.0576 H   0  0  0  0  0  0  0  0  0  0  0  0
   25.4872   75.5231    0.5725 H   0  0  0  0  0  0  0  0  0  0  0  0
   24.4062   71.1625    2.5721 H   0  0  0  0  0  0  0  0  0  0  0  0
   20.8705   71.5118    1.8089 O   0  0  0  0  0  0  0  0  0  0  0  0
   20.4590   70.6018   -0.2409 O   0  0  0  0  0  0  0  0  0  0  0  0
   21.1555   71.2742    0.5045 C   0  0  0  0  0  0  0  0  0  0  0  0
  1  4  1  0
  1 24  1  0
  1  2  1  6
  1  3  2  0
 25 28  1  0
 25 24  1  0
 25 26  1  1
 25 27  2  0
  6 11  1  0
  6 12  1  0
 29 36  1  0
 29 37  1  0
  9  7  1  6
  7 13  1  0
 10  8  1  1
  8 14  1  0
  4  5  1  0
 36 28  1  6
 33 30  1  1
 30 38  1  0
 34 31  1  6
 31 39  1  0
 35 32  1  6
 32 40  1  0
 41 43  1  0
 15 19  2  0
 42 43  2  0
 16 22  2  0
 12 17  1  6
 17 19  1  0
 17 20  1  0
 18 19  1  0
 18 22  1  0
 18 23  1  0
  9 10  1  0
  9 11  1  0
 10 12  1  0
 11  5  1  6
 33 34  1  0
 33 35  1  0
 34 36  1  0
 35 37  1  0
 37 43  1  1
 20 21  2  0
 21 22  1  0
M  CHG  3   2  -1  26  -1  41  -1
M  END
>  <COMPND>  (45) 
    udp_gluA.pdb 

>  <AUTHOR>  (45) 
    GENERATED BY OPEN BABEL 3.1.1

>  <MASTER>  (45) 
        0    0    0    0    0    0    0    0   56    0   56    0

>  <minimizedAffinity>  (45) 
-7.39867

>  <CNNscore>  (45) 
0.8929637671

>  <CNNaffinity>  (45) 
4.7876095772

>  <CNN_VS>  (45) 
4.2751617432

>  <CNNaffinity_variance>  (45) 
0.1071122661

$$$$
46
     RDKit          3D

 43 45  0  0  0  0  0  0  0  0999 V2000
   21.3241   72.0197   -1.8191 P   0  0  2  0  0  0  0  0  0  0  0  0
   22.4392   71.1619   -1.0193 O   0  0  0  0  0  0  0  0  0  0  0  0
   20.9731   73.3391   -1.1966 O   0  0  0  0  0  0  0  0  0  0  0  0
   20.0965   70.9824   -2.0062 O   0  0  0  0  0  0  0  0  0  0  0  0
   19.6238   70.7233   -3.3154 C   0  0  0  0  0  0  0  0  0  0  0  0
   17.8513   71.6681   -4.6357 O   0  0  0  0  0  0  0  0  0  0  0  0
   15.9710   70.1518   -2.8589 O   0  0  0  0  0  0  0  0  0  0  0  0
   16.0684   68.5914   -5.0931 O   0  0  0  0  0  0  0  0  0  0  0  0
   17.2627   69.7763   -3.3375 C   0  0  1  0  0  0  0  0  0  0  0  0
   17.1897   69.3992   -4.8020 C   0  0  2  0  0  0  0  0  0  0  0  0
   18.1320   71.0257   -3.3732 C   0  0  1  0  0  0  0  0  0  0  0  0
   17.1210   70.7595   -5.4749 C   0  0  2  0  0  0  0  0  0  0  0  0
   15.3975   69.3697   -2.8274 H   0  0  0  0  0  0  0  0  0  0  0  0
   16.1597   67.7369   -4.6421 H   0  0  0  0  0  0  0  0  0  0  0  0
   15.7282   70.1392   -7.8522 O   0  0  0  0  0  0  0  0  0  0  0  0
   19.4911   70.7710  -10.4377 O   0  0  0  0  0  0  0  0  0  0  0  0
   17.7123   70.7543   -6.7830 N   0  0  0  0  0  0  0  0  0  0  0  0
   17.6039   70.4535   -9.1376 N   0  0  0  0  0  0  0  0  0  0  0  0
   16.9247   70.4282   -7.9124 C   0  0  0  0  0  0  0  0  0  0  0  0
   19.0564   71.0710   -6.9378 C   0  0  0  0  0  0  0  0  0  0  0  0
   19.6899   71.0909   -8.1122 C   0  0  0  0  0  0  0  0  0  0  0  0
   18.9392   70.7616   -9.3416 C   0  0  0  0  0  0  0  0  0  0  0  0
   17.0769   70.2279   -9.9380 H   0  0  0  0  0  0  0  0  0  0  0  0
   21.9440   72.1215   -3.3085 O   0  0  0  0  0  0  0  0  0  0  0  0
   22.9072   73.2305   -3.9838 P   0  0  2  0  0  0  0  0  0  0  0  0
   23.4446   72.4898   -5.3190 O   0  0  0  0  0  0  0  0  0  0  0  0
   23.9924   73.7370   -3.0783 O   0  0  0  0  0  0  0  0  0  0  0  0
   21.9021   74.3696   -4.5265 O   0  0  0  0  0  0  0  0  0  0  0  0
   19.5751   74.4979   -4.1052 O   0  0  0  0  0  0  0  0  0  0  0  0
   19.8881   76.4927   -7.7095 O   0  0  0  0  0  0  0  0  0  0  0  0
   21.3968   74.0353   -7.2411 O   0  0  0  0  0  0  0  0  0  0  0  0
   19.4999   77.9847   -5.2449 O   0  0  0  0  0  0  0  0  0  0  0  0
   20.3209   76.0501   -6.4231 C   0  0  2  0  0  0  0  0  0  0  0  0
   20.3618   74.5220   -6.3946 C   0  0  2  0  0  0  0  0  0  0  0  0
   19.3284   76.5755   -5.3835 C   0  0  1  0  0  0  0  0  0  0  0  0
   20.5970   74.0074   -4.9738 C   0  0  1  0  0  0  0  0  0  0  0  0
   19.5484   75.9212   -4.0227 C   0  0  1  0  0  0  0  0  0  0  0  0
   20.5038   76.1706   -8.3865 H   0  0  0  0  0  0  0  0  0  0  0  0
   21.2540   74.3582   -8.1442 H   0  0  0  0  0  0  0  0  0  0  0  0
   19.3626   78.4132   -6.1042 H   0  0  0  0  0  0  0  0  0  0  0  0
   18.1598   75.1137   -2.3135 O   0  0  0  0  0  0  0  0  0  0  0  0
   17.7390   77.2160   -3.0896 O   0  0  0  0  0  0  0  0  0  0  0  0
   18.3910   76.1830   -3.1148 C   0  0  0  0  0  0  0  0  0  0  0  0
  1  4  1  0
  1 24  1  0
  1  2  1  1
  1  3  2  0
 25 28  1  0
 25 24  1  0
 25 26  1  6
 25 27  2  0
  6 11  1  0
  6 12  1  0
 29 36  1  0
 29 37  1  0
  9  7  1  6
  7 13  1  0
 10  8  1  1
  8 14  1  0
  4  5  1  0
 36 28  1  1
 33 30  1  6
 30 38  1  0
 34 31  1  6
 31 39  1  0
 35 32  1  1
 32 40  1  0
 41 43  1  0
 15 19  2  0
 42 43  2  0
 16 22  2  0
 12 17  1  6
 17 19  1  0
 17 20  1  0
 18 19  1  0
 18 22  1  0
 18 23  1  0
  9 10  1  0
  9 11  1  0
 10 12  1  0
 11  5  1  6
 33 34  1  0
 33 35  1  0
 34 36  1  0
 35 37  1  0
 37 43  1  1
 20 21  2  0
 21 22  1  0
M  CHG  3   2  -1  26  -1  41  -1
M  END
>  <COMPND>  (46) 
    udp_gluA.pdb 

>  <AUTHOR>  (46) 
    GENERATED BY OPEN BABEL 3.1.1

>  <MASTER>  (46) 
        0    0    0    0    0    0    0    0   56    0   56    0

>  <minimizedAffinity>  (46) 
-6.37312

>  <CNNscore>  (46) 
0.8837489486

>  <CNNaffinity>  (46) 
4.5405225754

>  <CNN_VS>  (46) 
4.0126819611

>  <CNNaffinity_variance>  (46) 
0.3536069393

$$$$
47
     RDKit          3D

 43 45  0  0  0  0  0  0  0  0999 V2000
   22.8900   72.2224   -3.8513 P   0  0  2  0  0  0  0  0  0  0  0  0
   23.4871   73.1524   -5.0335 O   0  0  0  0  0  0  0  0  0  0  0  0
   23.8855   71.3063   -3.2019 O   0  0  0  0  0  0  0  0  0  0  0  0
   21.6116   71.5014   -4.5323 O   0  0  0  0  0  0  0  0  0  0  0  0
   20.8955   70.5411   -3.7777 C   0  0  0  0  0  0  0  0  0  0  0  0
   19.0123   71.6897   -4.7326 O   0  0  0  0  0  0  0  0  0  0  0  0
   17.4044   70.5405   -2.4775 O   0  0  0  0  0  0  0  0  0  0  0  0
   16.7677   68.8993   -4.5602 O   0  0  0  0  0  0  0  0  0  0  0  0
   18.4864   69.9579   -3.2045 C   0  0  1  0  0  0  0  0  0  0  0  0
   18.0257   69.5406   -4.5851 C   0  0  2  0  0  0  0  0  0  0  0  0
   19.4867   71.0610   -3.5223 C   0  0  1  0  0  0  0  0  0  0  0  0
   17.9903   70.8694   -5.3207 C   0  0  2  0  0  0  0  0  0  0  0  0
   16.7521   69.8547   -2.2631 H   0  0  0  0  0  0  0  0  0  0  0  0
   16.8429   68.0585   -4.0813 H   0  0  0  0  0  0  0  0  0  0  0  0
   16.0431   70.1979   -7.2531 O   0  0  0  0  0  0  0  0  0  0  0  0
   19.1255   70.3466  -10.6766 O   0  0  0  0  0  0  0  0  0  0  0  0
   18.2566   70.7260   -6.7241 N   0  0  0  0  0  0  0  0  0  0  0  0
   17.5804   70.2716   -8.9562 N   0  0  0  0  0  0  0  0  0  0  0  0
   17.2075   70.3859   -7.6105 C   0  0  0  0  0  0  0  0  0  0  0  0
   19.5436   70.9232   -7.2095 C   0  0  0  0  0  0  0  0  0  0  0  0
   19.8837   70.8109   -8.4950 C   0  0  0  0  0  0  0  0  0  0  0  0
   18.8468   70.4575   -9.4865 C   0  0  0  0  0  0  0  0  0  0  0  0
   16.8674   70.0336   -9.5921 H   0  0  0  0  0  0  0  0  0  0  0  0
   22.2117   73.2967   -2.8520 O   0  0  0  0  0  0  0  0  0  0  0  0
   22.8705   74.3171   -1.7850 P   0  0  2  0  0  0  0  0  0  0  0  0
   21.9007   75.6109   -1.8632 O   0  0  0  0  0  0  0  0  0  0  0  0
   24.3208   74.6155   -2.0328 O   0  0  0  0  0  0  0  0  0  0  0  0
   22.5585   73.6609   -0.3447 O   0  0  0  0  0  0  0  0  0  0  0  0
   23.3148   71.4766    0.1708 O   0  0  0  0  0  0  0  0  0  0  0  0
   20.3795   72.0446    3.0220 O   0  0  0  0  0  0  0  0  0  0  0  0
   19.9514   72.9068    0.2637 O   0  0  0  0  0  0  0  0  0  0  0  0
   23.1854   72.2142    3.7626 O   0  0  0  0  0  0  0  0  0  0  0  0
   21.4252   72.4358    2.1324 C   0  0  2  0  0  0  0  0  0  0  0  0
   21.0322   72.0886    0.6963 C   0  0  2  0  0  0  0  0  0  0  0  0
   22.6946   71.6813    2.5340 C   0  0  1  0  0  0  0  0  0  0  0  0
   22.2136   72.2797   -0.2557 C   0  0  1  0  0  0  0  0  0  0  0  0
   23.7832   71.8182    1.4735 C   0  0  1  0  0  0  0  0  0  0  0  0
   19.5624   72.5116    2.7859 H   0  0  0  0  0  0  0  0  0  0  0  0
   19.1983   72.7907    0.8635 H   0  0  0  0  0  0  0  0  0  0  0  0
   22.5020   72.1333    4.4462 H   0  0  0  0  0  0  0  0  0  0  0  0
   24.4155   69.7558    2.3945 O   0  0  0  0  0  0  0  0  0  0  0  0
   26.0334   70.9594    1.3301 O   0  0  0  0  0  0  0  0  0  0  0  0
   24.8782   70.8288    1.7064 C   0  0  0  0  0  0  0  0  0  0  0  0
  1  4  1  0
  1 24  1  0
  1  2  1  6
  1  3  2  0
 25 28  1  0
 25 24  1  0
 25 26  1  1
 25 27  2  0
  6 11  1  0
  6 12  1  0
 29 36  1  0
 29 37  1  0
  9  7  1  1
  7 13  1  0
 10  8  1  1
  8 14  1  0
  4  5  1  0
 36 28  1  1
 33 30  1  1
 30 38  1  0
 34 31  1  6
 31 39  1  0
 35 32  1  1
 32 40  1  0
 41 43  1  0
 15 19  2  0
 42 43  2  0
 16 22  2  0
 12 17  1  6
 17 19  1  0
 17 20  1  0
 18 19  1  0
 18 22  1  0
 18 23  1  0
  9 10  1  0
  9 11  1  0
 10 12  1  0
 11  5  1  6
 33 34  1  0
 33 35  1  0
 34 36  1  0
 35 37  1  0
 37 43  1  1
 20 21  2  0
 21 22  1  0
M  CHG  3   2  -1  26  -1  41  -1
M  END
>  <COMPND>  (47) 
    udp_gluA.pdb 

>  <AUTHOR>  (47) 
    GENERATED BY OPEN BABEL 3.1.1

>  <MASTER>  (47) 
        0    0    0    0    0    0    0    0   56    0   56    0

>  <minimizedAffinity>  (47) 
-7.94413

>  <CNNscore>  (47) 
0.8646993637

>  <CNNaffinity>  (47) 
4.7072038651

>  <CNN_VS>  (47) 
4.0703163147

>  <CNNaffinity_variance>  (47) 
0.0395959765

$$$$
48
     RDKit          3D

 43 45  0  0  0  0  0  0  0  0999 V2000
   21.0971   72.1209   -2.2277 P   0  0  2  0  0  0  0  0  0  0  0  0
   19.9295   72.9983   -1.5307 O   0  0  0  0  0  0  0  0  0  0  0  0
   21.5939   72.6551   -3.5391 O   0  0  0  0  0  0  0  0  0  0  0  0
   20.4875   70.6226   -2.2650 O   0  0  0  0  0  0  0  0  0  0  0  0
   19.8410   70.1849   -3.4461 C   0  0  0  0  0  0  0  0  0  0  0  0
   18.1441   71.4050   -4.6335 O   0  0  0  0  0  0  0  0  0  0  0  0
   16.1649   70.0038   -2.8697 O   0  0  0  0  0  0  0  0  0  0  0  0
   16.0023   68.5846   -5.1926 O   0  0  0  0  0  0  0  0  0  0  0  0
   17.3868   69.5148   -3.4233 C   0  0  1  0  0  0  0  0  0  0  0  0
   17.2191   69.2404   -4.9028 C   0  0  2  0  0  0  0  0  0  0  0  0
   18.3930   70.6575   -3.4233 C   0  0  1  0  0  0  0  0  0  0  0  0
   17.2845   70.6390   -5.4924 C   0  0  2  0  0  0  0  0  0  0  0  0
   15.5063   69.2912   -2.8593 H   0  0  0  0  0  0  0  0  0  0  0  0
   16.0100   67.6988   -4.7960 H   0  0  0  0  0  0  0  0  0  0  0  0
   15.7533   70.2797   -7.8382 O   0  0  0  0  0  0  0  0  0  0  0  0
   19.4632   70.6935  -10.5419 O   0  0  0  0  0  0  0  0  0  0  0  0
   17.8247   70.6483   -6.8224 N   0  0  0  0  0  0  0  0  0  0  0  0
   17.6027   70.4851   -9.1825 N   0  0  0  0  0  0  0  0  0  0  0  0
   16.9691   70.4582   -7.9331 C   0  0  0  0  0  0  0  0  0  0  0  0
   19.1865   70.8456   -7.0165 C   0  0  0  0  0  0  0  0  0  0  0  0
   19.7759   70.8688   -8.2135 C   0  0  0  0  0  0  0  0  0  0  0  0
   18.9530   70.6773   -9.4258 C   0  0  0  0  0  0  0  0  0  0  0  0
   17.0278   70.3531   -9.9708 H   0  0  0  0  0  0  0  0  0  0  0  0
   22.2209   72.0272   -1.0697 O   0  0  0  0  0  0  0  0  0  0  0  0
   22.1229   71.5354    0.4673 P   0  0  2  0  0  0  0  0  0  0  0  0
   23.5952   70.9277    0.7558 O   0  0  0  0  0  0  0  0  0  0  0  0
   20.9961   70.5808    0.7377 O   0  0  0  0  0  0  0  0  0  0  0  0
   22.0682   72.8973    1.3301 O   0  0  0  0  0  0  0  0  0  0  0  0
   21.6496   73.0225    3.6578 O   0  0  0  0  0  0  0  0  0  0  0  0
   20.4289   76.7576    2.3821 O   0  0  0  0  0  0  0  0  0  0  0  0
   19.7636   74.3726    0.8317 O   0  0  0  0  0  0  0  0  0  0  0  0
   22.9636   76.4463    3.7712 O   0  0  0  0  0  0  0  0  0  0  0  0
   21.2169   75.5673    2.3636 C   0  0  2  0  0  0  0  0  0  0  0  0
   20.3096   74.3562    2.1456 C   0  0  2  0  0  0  0  0  0  0  0  0
   21.9383   75.4567    3.7087 C   0  0  1  0  0  0  0  0  0  0  0  0
   21.0809   73.0513    2.3481 C   0  0  1  0  0  0  0  0  0  0  0  0
   22.5758   74.0819    3.8875 C   0  0  1  0  0  0  0  0  0  0  0  0
   19.9610   76.8490    1.5372 H   0  0  0  0  0  0  0  0  0  0  0  0
   19.2730   75.1980    0.6962 H   0  0  0  0  0  0  0  0  0  0  0  0
   22.5710   77.3262    3.6586 H   0  0  0  0  0  0  0  0  0  0  0  0
   22.5448   72.6661    5.7573 O   0  0  0  0  0  0  0  0  0  0  0  0
   23.6292   74.6595    5.9799 O   0  0  0  0  0  0  0  0  0  0  0  0
   22.9849   73.8677    5.3084 C   0  0  0  0  0  0  0  0  0  0  0  0
  1  4  1  0
  1 24  1  0
  1  2  1  1
  1  3  2  0
 25 28  1  0
 25 24  1  0
 25 26  1  1
 25 27  2  0
  6 11  1  0
  6 12  1  0
 29 36  1  0
 29 37  1  0
  9  7  1  6
  7 13  1  0
 10  8  1  1
  8 14  1  0
  4  5  1  0
 36 28  1  6
 33 30  1  1
 30 38  1  0
 34 31  1  6
 31 39  1  0
 35 32  1  6
 32 40  1  0
 41 43  1  0
 15 19  2  0
 42 43  2  0
 16 22  2  0
 12 17  1  6
 17 19  1  0
 17 20  1  0
 18 19  1  0
 18 22  1  0
 18 23  1  0
  9 10  1  0
  9 11  1  0
 10 12  1  0
 11  5  1  6
 33 34  1  0
 33 35  1  0
 34 36  1  0
 35 37  1  0
 37 43  1  1
 20 21  2  0
 21 22  1  0
M  CHG  3   2  -1  26  -1  41  -1
M  END
>  <COMPND>  (48) 
    udp_gluA.pdb 

>  <AUTHOR>  (48) 
    GENERATED BY OPEN BABEL 3.1.1

>  <MASTER>  (48) 
        0    0    0    0    0    0    0    0   56    0   56    0

>  <minimizedAffinity>  (48) 
-7.05552

>  <CNNscore>  (48) 
0.8412443399

>  <CNNaffinity>  (48) 
4.5147638321

>  <CNN_VS>  (48) 
3.7980194092

>  <CNNaffinity_variance>  (48) 
0.0738003999

$$$$
49
     RDKit          3D

 43 45  0  0  0  0  0  0  0  0999 V2000
   23.3467   72.0313   -3.3680 P   0  0  2  0  0  0  0  0  0  0  0  0
   24.1167   73.1342   -4.2677 O   0  0  0  0  0  0  0  0  0  0  0  0
   24.1774   70.8468   -2.9696 O   0  0  0  0  0  0  0  0  0  0  0  0
   22.0117   71.6987   -4.2194 O   0  0  0  0  0  0  0  0  0  0  0  0
   21.2012   70.6127   -3.8093 C   0  0  0  0  0  0  0  0  0  0  0  0
   19.2683   71.7485   -4.6763 O   0  0  0  0  0  0  0  0  0  0  0  0
   17.7796   70.6094   -2.3358 O   0  0  0  0  0  0  0  0  0  0  0  0
   17.0455   68.9518   -4.3729 O   0  0  0  0  0  0  0  0  0  0  0  0
   18.8260   70.0255   -3.1122 C   0  0  1  0  0  0  0  0  0  0  0  0
   18.2983   69.5972   -4.4651 C   0  0  2  0  0  0  0  0  0  0  0  0
   19.8050   71.1297   -3.4870 C   0  0  1  0  0  0  0  0  0  0  0  0
   18.2212   70.9207   -5.2069 C   0  0  2  0  0  0  0  0  0  0  0  0
   17.1415   69.9230   -2.0844 H   0  0  0  0  0  0  0  0  0  0  0  0
   17.1477   68.1146   -3.8927 H   0  0  0  0  0  0  0  0  0  0  0  0
   16.1930   70.1814   -7.0281 O   0  0  0  0  0  0  0  0  0  0  0  0
   19.0881   70.3673  -10.6097 O   0  0  0  0  0  0  0  0  0  0  0  0
   18.4174   70.7686   -6.6209 N   0  0  0  0  0  0  0  0  0  0  0  0
   17.6371   70.2737   -8.8100 N   0  0  0  0  0  0  0  0  0  0  0  0
   17.3322   70.3936   -7.4478 C   0  0  0  0  0  0  0  0  0  0  0  0
   19.6721   70.9915   -7.1749 C   0  0  0  0  0  0  0  0  0  0  0  0
   19.9473   70.8734   -8.4753 C   0  0  0  0  0  0  0  0  0  0  0  0
   18.8691   70.4843   -9.4078 C   0  0  0  0  0  0  0  0  0  0  0  0
   16.8980   70.0117   -9.4054 H   0  0  0  0  0  0  0  0  0  0  0  0
   22.7806   72.9035   -2.1304 O   0  0  0  0  0  0  0  0  0  0  0  0
   23.3871   73.1724   -0.6561 P   0  0  2  0  0  0  0  0  0  0  0  0
   24.3177   74.4792   -0.8717 O   0  0  0  0  0  0  0  0  0  0  0  0
   24.1030   71.9948   -0.0606 O   0  0  0  0  0  0  0  0  0  0  0  0
   22.1346   73.7030    0.2111 O   0  0  0  0  0  0  0  0  0  0  0  0
   21.9646   72.8744    2.4233 O   0  0  0  0  0  0  0  0  0  0  0  0
   18.2661   74.6396    1.9001 O   0  0  0  0  0  0  0  0  0  0  0  0
   19.4675   73.0563   -0.2410 O   0  0  0  0  0  0  0  0  0  0  0  0
   20.2957   75.9549    3.5132 O   0  0  0  0  0  0  0  0  0  0  0  0
   19.6723   74.4804    1.7126 C   0  0  2  0  0  0  0  0  0  0  0  0
   19.9543   73.1105    1.0950 C   0  0  2  0  0  0  0  0  0  0  0  0
   20.3481   74.5967    3.0807 C   0  0  1  0  0  0  0  0  0  0  0  0
   21.4539   72.8103    1.0911 C   0  0  1  0  0  0  0  0  0  0  0  0
   21.8090   74.1604    3.0193 C   0  0  1  0  0  0  0  0  0  0  0  0
   17.8155   74.5694    1.0438 H   0  0  0  0  0  0  0  0  0  0  0  0
   18.5165   73.2461   -0.2461 H   0  0  0  0  0  0  0  0  0  0  0  0
   19.3711   76.2450    3.5563 H   0  0  0  0  0  0  0  0  0  0  0  0
   21.3632   73.9262    5.3102 O   0  0  0  0  0  0  0  0  0  0  0  0
   23.5479   73.8457    4.6621 O   0  0  0  0  0  0  0  0  0  0  0  0
   22.3617   73.9624    4.3932 C   0  0  0  0  0  0  0  0  0  0  0  0
  1  4  1  0
  1 24  1  0
  1  2  1  6
  1  3  2  0
 25 28  1  0
 25 24  1  0
 25 26  1  6
 25 27  2  0
  6 11  1  0
  6 12  1  0
 29 36  1  0
 29 37  1  0
  9  7  1  1
  7 13  1  0
 10  8  1  1
  8 14  1  0
  4  5  1  0
 36 28  1  6
 33 30  1  1
 30 38  1  0
 34 31  1  6
 31 39  1  0
 35 32  1  6
 32 40  1  0
 41 43  1  0
 15 19  2  0
 42 43  2  0
 16 22  2  0
 12 17  1  6
 17 19  1  0
 17 20  1  0
 18 19  1  0
 18 22  1  0
 18 23  1  0
  9 10  1  0
  9 11  1  0
 10 12  1  0
 11  5  1  6
 33 34  1  0
 33 35  1  0
 34 36  1  0
 35 37  1  0
 37 43  1  1
 20 21  2  0
 21 22  1  0
M  CHG  3   2  -1  26  -1  41  -1
M  END
>  <COMPND>  (49) 
    udp_gluA.pdb 

>  <AUTHOR>  (49) 
    GENERATED BY OPEN BABEL 3.1.1

>  <MASTER>  (49) 
        0    0    0    0    0    0    0    0   56    0   56    0

>  <minimizedAffinity>  (49) 
-6.91142

>  <CNNscore>  (49) 
0.8375926614

>  <CNNaffinity>  (49) 
4.5429449081

>  <CNN_VS>  (49) 
3.8051373959

>  <CNNaffinity_variance>  (49) 
0.0098016467

$$$$
50
     RDKit          3D

 43 45  0  0  0  0  0  0  0  0999 V2000
   21.0665   73.0296   -3.6868 P   0  0  2  0  0  0  0  0  0  0  0  0
   20.3545   73.6498   -5.0010 O   0  0  0  0  0  0  0  0  0  0  0  0
   22.2381   72.1338   -3.9641 O   0  0  0  0  0  0  0  0  0  0  0  0
   19.8462   72.3561   -2.8651 O   0  0  0  0  0  0  0  0  0  0  0  0
   19.3225   71.1228   -3.3223 C   0  0  0  0  0  0  0  0  0  0  0  0
   17.5244   71.7794   -4.7761 O   0  0  0  0  0  0  0  0  0  0  0  0
   15.7384   70.1622   -2.9911 O   0  0  0  0  0  0  0  0  0  0  0  0
   16.1235   68.4967   -5.1157 O   0  0  0  0  0  0  0  0  0  0  0  0
   17.0866   69.9107   -3.3879 C   0  0  1  0  0  0  0  0  0  0  0  0
   17.1309   69.4436   -4.8274 C   0  0  2  0  0  0  0  0  0  0  0  0
   17.8110   71.2477   -3.4644 C   0  0  1  0  0  0  0  0  0  0  0  0
   16.9442   70.7457   -5.5874 C   0  0  2  0  0  0  0  0  0  0  0  0
   15.2554   69.3224   -2.9353 H   0  0  0  0  0  0  0  0  0  0  0  0
   16.2870   67.6859   -4.6080 H   0  0  0  0  0  0  0  0  0  0  0  0
   15.6124   70.4230   -8.0569 O   0  0  0  0  0  0  0  0  0  0  0  0
   19.5540   70.7124  -10.4284 O   0  0  0  0  0  0  0  0  0  0  0  0
   17.5980   70.7329   -6.8654 N   0  0  0  0  0  0  0  0  0  0  0  0
   17.5770   70.5664   -9.2356 N   0  0  0  0  0  0  0  0  0  0  0  0
   16.8367   70.5641   -8.0460 C   0  0  0  0  0  0  0  0  0  0  0  0
   18.9769   70.8879   -6.9406 C   0  0  0  0  0  0  0  0  0  0  0  0
   19.6685   70.8881   -8.0819 C   0  0  0  0  0  0  0  0  0  0  0  0
   18.9486   70.7165   -9.3608 C   0  0  0  0  0  0  0  0  0  0  0  0
   17.0689   70.4484  -10.0707 H   0  0  0  0  0  0  0  0  0  0  0  0
   21.4150   74.3417   -2.8094 O   0  0  0  0  0  0  0  0  0  0  0  0
   22.6812   74.6802   -1.8631 P   0  0  2  0  0  0  0  0  0  0  0  0
   22.5784   76.2838   -1.6672 O   0  0  0  0  0  0  0  0  0  0  0  0
   23.9989   74.2067   -2.4048 O   0  0  0  0  0  0  0  0  0  0  0  0
   22.2908   74.0681   -0.4225 O   0  0  0  0  0  0  0  0  0  0  0  0
   23.3351   73.7945    1.6855 O   0  0  0  0  0  0  0  0  0  0  0  0
   21.5305   70.1158    1.1575 O   0  0  0  0  0  0  0  0  0  0  0  0
   22.8921   71.4304   -1.0679 O   0  0  0  0  0  0  0  0  0  0  0  0
   20.3799   72.0558    2.9915 O   0  0  0  0  0  0  0  0  0  0  0  0
   21.6689   71.5305    1.0249 C   0  0  2  0  0  0  0  0  0  0  0  0
   22.9704   71.8506    0.2893 C   0  0  2  0  0  0  0  0  0  0  0  0
   21.6883   72.1375    2.4296 C   0  0  1  0  0  0  0  0  0  0  0  0
   23.2672   73.3503    0.3300 C   0  0  1  0  0  0  0  0  0  0  0  0
   22.1149   73.6022    2.3977 C   0  0  1  0  0  0  0  0  0  0  0  0
   21.5158   69.7083    0.2772 H   0  0  0  0  0  0  0  0  0  0  0  0
   22.7038   70.4797   -1.1012 H   0  0  0  0  0  0  0  0  0  0  0  0
   20.0964   71.1285    3.0174 H   0  0  0  0  0  0  0  0  0  0  0  0
   23.2964   75.1439    3.7125 O   0  0  0  0  0  0  0  0  0  0  0  0
   22.0172   73.6072    4.8084 O   0  0  0  0  0  0  0  0  0  0  0  0
   22.4478   74.0878    3.7709 C   0  0  0  0  0  0  0  0  0  0  0  0
  1  4  1  0
  1 24  1  0
  1  2  1  6
  1  3  2  0
 25 28  1  0
 25 24  1  0
 25 26  1  1
 25 27  2  0
  6 11  1  0
  6 12  1  0
 29 36  1  0
 29 37  1  0
  9  7  1  6
  7 13  1  0
 10  8  1  1
  8 14  1  0
  4  5  1  0
 36 28  1  6
 33 30  1  1
 30 38  1  0
 34 31  1  6
 31 39  1  0
 35 32  1  6
 32 40  1  0
 41 43  1  0
 15 19  2  0
 42 43  2  0
 16 22  2  0
 12 17  1  6
 17 19  1  0
 17 20  1  0
 18 19  1  0
 18 22  1  0
 18 23  1  0
  9 10  1  0
  9 11  1  0
 10 12  1  0
 11  5  1  6
 33 34  1  0
 33 35  1  0
 34 36  1  0
 35 37  1  0
 37 43  1  1
 20 21  2  0
 21 22  1  0
M  CHG  3   2  -1  26  -1  41  -1
M  END
>  <COMPND>  (50) 
    udp_gluA.pdb 

>  <AUTHOR>  (50) 
    GENERATED BY OPEN BABEL 3.1.1

>  <MASTER>  (50) 
        0    0    0    0    0    0    0    0   56    0   56    0

>  <minimizedAffinity>  (50) 
-7.01580

>  <CNNscore>  (50) 
0.8177064061

>  <CNNaffinity>  (50) 
4.5527663231

>  <CNN_VS>  (50) 
3.7228262424

>  <CNNaffinity_variance>  (50) 
0.0982122570

$$$$
51
     RDKit          3D

 43 45  0  0  0  0  0  0  0  0999 V2000
   20.6090   71.3014   -1.1458 P   0  0  2  0  0  0  0  0  0  0  0  0
   20.8737   70.6593    0.3159 O   0  0  0  0  0  0  0  0  0  0  0  0
   19.9361   72.6427   -1.1362 O   0  0  0  0  0  0  0  0  0  0  0  0
   19.8321   70.1314   -1.9492 O   0  0  0  0  0  0  0  0  0  0  0  0
   19.4805   70.3585   -3.3017 C   0  0  0  0  0  0  0  0  0  0  0  0
   17.7778   71.4482   -4.6022 O   0  0  0  0  0  0  0  0  0  0  0  0
   15.7990   69.8947   -2.9704 O   0  0  0  0  0  0  0  0  0  0  0  0
   15.9003   68.4735   -5.2955 O   0  0  0  0  0  0  0  0  0  0  0  0
   17.0888   69.5023   -3.4404 C   0  0  1  0  0  0  0  0  0  0  0  0
   17.0413   69.2198   -4.9271 C   0  0  2  0  0  0  0  0  0  0  0  0
   18.0023   70.7187   -3.3763 C   0  0  1  0  0  0  0  0  0  0  0  0
   17.0383   70.6209   -5.5144 C   0  0  2  0  0  0  0  0  0  0  0  0
   15.1977   69.1338   -3.0021 H   0  0  0  0  0  0  0  0  0  0  0  0
   15.9495   67.5899   -4.8972 H   0  0  0  0  0  0  0  0  0  0  0  0
   15.6855   70.2123   -7.9597 O   0  0  0  0  0  0  0  0  0  0  0  0
   19.5377   70.8527  -10.4080 O   0  0  0  0  0  0  0  0  0  0  0  0
   17.6634   70.6752   -6.8056 N   0  0  0  0  0  0  0  0  0  0  0  0
   17.6056   70.5307   -9.1767 N   0  0  0  0  0  0  0  0  0  0  0  0
   16.8937   70.4550   -7.9723 C   0  0  0  0  0  0  0  0  0  0  0  0
   19.0227   70.9454   -6.9073 C   0  0  0  0  0  0  0  0  0  0  0  0
   19.6873   71.0144   -8.0625 C   0  0  0  0  0  0  0  0  0  0  0  0
   18.9570   70.7958   -9.3283 C   0  0  0  0  0  0  0  0  0  0  0  0
   17.0914   70.3789  -10.0024 H   0  0  0  0  0  0  0  0  0  0  0  0
   22.0786   71.2901   -1.8187 O   0  0  0  0  0  0  0  0  0  0  0  0
   22.9062   72.4514   -2.5805 P   0  0  2  0  0  0  0  0  0  0  0  0
   24.0191   71.6249   -3.4164 O   0  0  0  0  0  0  0  0  0  0  0  0
   23.4713   73.5031   -1.6703 O   0  0  0  0  0  0  0  0  0  0  0  0
   21.8889   73.0115   -3.7003 O   0  0  0  0  0  0  0  0  0  0  0  0
   22.5463   75.2151   -4.2670 O   0  0  0  0  0  0  0  0  0  0  0  0
   19.2191   74.6890   -6.6589 O   0  0  0  0  0  0  0  0  0  0  0  0
   19.2156   73.7552   -3.8908 O   0  0  0  0  0  0  0  0  0  0  0  0
   21.8828   74.5647   -7.8165 O   0  0  0  0  0  0  0  0  0  0  0  0
   20.3890   74.2862   -5.9468 C   0  0  2  0  0  0  0  0  0  0  0  0
   20.2142   74.5942   -4.4595 C   0  0  2  0  0  0  0  0  0  0  0  0
   21.5792   75.0626   -6.5149 C   0  0  1  0  0  0  0  0  0  0  0  0
   21.5265   74.3911   -3.7009 C   0  0  1  0  0  0  0  0  0  0  0  0
   22.8156   74.9101   -5.6336 C   0  0  1  0  0  0  0  0  0  0  0  0
   18.4496   74.2086   -6.3150 H   0  0  0  0  0  0  0  0  0  0  0  0
   18.3802   73.8788   -4.3676 H   0  0  0  0  0  0  0  0  0  0  0  0
   21.1040   74.6559   -8.3874 H   0  0  0  0  0  0  0  0  0  0  0  0
   24.4266   75.6001   -7.1925 O   0  0  0  0  0  0  0  0  0  0  0  0
   24.1593   76.8912   -5.3322 O   0  0  0  0  0  0  0  0  0  0  0  0
   23.8574   75.9154   -6.0027 C   0  0  0  0  0  0  0  0  0  0  0  0
  1  4  1  0
  1 24  1  0
  1  2  1  1
  1  3  2  0
 25 28  1  0
 25 24  1  0
 25 26  1  6
 25 27  2  0
  6 11  1  0
  6 12  1  0
 29 36  1  0
 29 37  1  0
  9  7  1  6
  7 13  1  0
 10  8  1  1
  8 14  1  0
  4  5  1  0
 36 28  1  6
 33 30  1  6
 30 38  1  0
 34 31  1  1
 31 39  1  0
 35 32  1  6
 32 40  1  0
 41 43  1  0
 15 19  2  0
 42 43  2  0
 16 22  2  0
 12 17  1  6
 17 19  1  0
 17 20  1  0
 18 19  1  0
 18 22  1  0
 18 23  1  0
  9 10  1  0
  9 11  1  0
 10 12  1  0
 11  5  1  6
 33 34  1  0
 33 35  1  0
 34 36  1  0
 35 37  1  0
 37 43  1  6
 20 21  2  0
 21 22  1  0
M  CHG  3   2  -1  26  -1  41  -1
M  END
>  <COMPND>  (51) 
    udp_gluA.pdb 

>  <AUTHOR>  (51) 
    GENERATED BY OPEN BABEL 3.1.1

>  <MASTER>  (51) 
        0    0    0    0    0    0    0    0   56    0   56    0

>  <minimizedAffinity>  (51) 
-7.56019

>  <CNNscore>  (51) 
0.7855746746

>  <CNNaffinity>  (51) 
4.5133595467

>  <CNN_VS>  (51) 
3.5455808640

>  <CNNaffinity_variance>  (51) 
0.4561668038

$$$$
52
     RDKit          3D

 43 45  0  0  0  0  0  0  0  0999 V2000
   20.9913   73.0369   -1.6454 P   0  0  2  0  0  0  0  0  0  0  0  0
   22.3959   72.8595   -0.8615 O   0  0  0  0  0  0  0  0  0  0  0  0
   19.8298   73.4340   -0.7822 O   0  0  0  0  0  0  0  0  0  0  0  0
   20.8210   71.6475   -2.4568 O   0  0  0  0  0  0  0  0  0  0  0  0
   20.2823   71.6904   -3.7654 C   0  0  0  0  0  0  0  0  0  0  0  0
   18.2733   72.2149   -4.9763 O   0  0  0  0  0  0  0  0  0  0  0  0
   16.7964   70.8641   -2.7435 O   0  0  0  0  0  0  0  0  0  0  0  0
   16.8193   68.9506   -4.6861 O   0  0  0  0  0  0  0  0  0  0  0  0
   18.0600   70.5344   -3.3207 C   0  0  1  0  0  0  0  0  0  0  0  0
   17.8650   69.8998   -4.6814 C   0  0  2  0  0  0  0  0  0  0  0  0
   18.7686   71.8348   -3.6742 C   0  0  1  0  0  0  0  0  0  0  0  0
   17.5626   71.1073   -5.5522 C   0  0  2  0  0  0  0  0  0  0  0  0
   16.3249   70.0489   -2.5093 H   0  0  0  0  0  0  0  0  0  0  0  0
   17.0600   68.2016   -4.1178 H   0  0  0  0  0  0  0  0  0  0  0  0
   15.9457   70.0682   -7.6215 O   0  0  0  0  0  0  0  0  0  0  0  0
   19.3371   70.4624  -10.7177 O   0  0  0  0  0  0  0  0  0  0  0  0
   17.9978   70.9277   -6.9084 N   0  0  0  0  0  0  0  0  0  0  0  0
   17.6366   70.2645   -9.1614 N   0  0  0  0  0  0  0  0  0  0  0  0
   17.1067   70.3975   -7.8712 C   0  0  0  0  0  0  0  0  0  0  0  0
   19.2924   71.2764   -7.2733 C   0  0  0  0  0  0  0  0  0  0  0  0
   19.7832   71.1440   -8.5072 C   0  0  0  0  0  0  0  0  0  0  0  0
   18.9174   70.5968   -9.5723 C   0  0  0  0  0  0  0  0  0  0  0  0
   17.0357   69.8956   -9.8485 H   0  0  0  0  0  0  0  0  0  0  0  0
   21.3572   74.0957   -2.8106 O   0  0  0  0  0  0  0  0  0  0  0  0
   21.3722   75.7123   -2.8094 P   0  0  2  0  0  0  0  0  0  0  0  0
   22.6753   76.0694   -1.9179 O   0  0  0  0  0  0  0  0  0  0  0  0
   20.0985   76.3396   -2.3216 O   0  0  0  0  0  0  0  0  0  0  0  0
   21.7850   76.1189   -4.3149 O   0  0  0  0  0  0  0  0  0  0  0  0
   23.3496   74.8130   -5.5216 O   0  0  0  0  0  0  0  0  0  0  0  0
   23.3812   78.3492   -7.6576 O   0  0  0  0  0  0  0  0  0  0  0  0
   23.3434   78.3838   -4.7367 O   0  0  0  0  0  0  0  0  0  0  0  0
   21.9917   76.0220   -8.7086 O   0  0  0  0  0  0  0  0  0  0  0  0
   22.8102   77.3193   -6.8506 C   0  0  2  0  0  0  0  0  0  0  0  0
   23.5719   77.2238   -5.5284 C   0  0  2  0  0  0  0  0  0  0  0  0
   22.9150   76.0015   -7.6216 C   0  0  1  0  0  0  0  0  0  0  0  0
   23.1413   75.9880   -4.7370 C   0  0  1  0  0  0  0  0  0  0  0  0
   22.5915   74.8067   -6.7292 C   0  0  1  0  0  0  0  0  0  0  0  0
   23.3259   79.1963   -7.1879 H   0  0  0  0  0  0  0  0  0  0  0  0
   23.6141   79.1718   -5.2328 H   0  0  0  0  0  0  0  0  0  0  0  0
   22.1866   76.7780   -9.2842 H   0  0  0  0  0  0  0  0  0  0  0  0
   22.9083   72.4928   -6.5123 O   0  0  0  0  0  0  0  0  0  0  0  0
   23.3897   73.4232   -8.5376 O   0  0  0  0  0  0  0  0  0  0  0  0
   23.0097   73.5291   -7.3811 C   0  0  0  0  0  0  0  0  0  0  0  0
  1  4  1  0
  1 24  1  0
  1  2  1  1
  1  3  2  0
 25 28  1  0
 25 24  1  0
 25 26  1  1
 25 27  2  0
  6 11  1  0
  6 12  1  0
 29 36  1  0
 29 37  1  0
  9  7  1  6
  7 13  1  0
 10  8  1  1
  8 14  1  0
  4  5  1  0
 36 28  1  6
 33 30  1  6
 30 38  1  0
 34 31  1  1
 31 39  1  0
 35 32  1  6
 32 40  1  0
 41 43  1  0
 15 19  2  0
 42 43  2  0
 16 22  2  0
 12 17  1  6
 17 19  1  0
 17 20  1  0
 18 19  1  0
 18 22  1  0
 18 23  1  0
  9 10  1  0
  9 11  1  0
 10 12  1  0
 11  5  1  6
 33 34  1  0
 33 35  1  0
 34 36  1  0
 35 37  1  0
 37 43  1  6
 20 21  2  0
 21 22  1  0
M  CHG  3   2  -1  26  -1  41  -1
M  END
>  <COMPND>  (52) 
    udp_gluA.pdb 

>  <AUTHOR>  (52) 
    GENERATED BY OPEN BABEL 3.1.1

>  <MASTER>  (52) 
        0    0    0    0    0    0    0    0   56    0   56    0

>  <minimizedAffinity>  (52) 
-6.00747

>  <CNNscore>  (52) 
0.7816544771

>  <CNNaffinity>  (52) 
4.5515432358

>  <CNN_VS>  (52) 
3.5577342510

>  <CNNaffinity_variance>  (52) 
0.0900030509

$$$$
53
     RDKit          3D

 43 45  0  0  0  0  0  0  0  0999 V2000
   23.4750   73.7213   -4.0417 P   0  0  2  0  0  0  0  0  0  0  0  0
   24.2761   72.3183   -4.1341 O   0  0  0  0  0  0  0  0  0  0  0  0
   24.1649   74.8884   -4.6850 O   0  0  0  0  0  0  0  0  0  0  0  0
   23.1495   73.8797   -2.4647 O   0  0  0  0  0  0  0  0  0  0  0  0
   21.8315   73.6206   -2.0170 C   0  0  0  0  0  0  0  0  0  0  0  0
   22.9715   71.7265   -1.0734 O   0  0  0  0  0  0  0  0  0  0  0  0
   20.2550   70.5136   -0.6983 O   0  0  0  0  0  0  0  0  0  0  0  0
   20.8493   71.4285    1.8009 O   0  0  0  0  0  0  0  0  0  0  0  0
   20.6595   71.8778   -0.5812 C   0  0  1  0  0  0  0  0  0  0  0  0
   21.4407   72.0849    0.6990 C   0  0  2  0  0  0  0  0  0  0  0  0
   21.7143   72.1480   -1.6454 C   0  0  1  0  0  0  0  0  0  0  0  0
   22.7992   71.5097    0.3360 C   0  0  2  0  0  0  0  0  0  0  0  0
   19.5810   70.3172   -0.0283 H   0  0  0  0  0  0  0  0  0  0  0  0
   19.9872   71.8311    1.9924 H   0  0  0  0  0  0  0  0  0  0  0  0
   24.7176   70.1495    1.9000 O   0  0  0  0  0  0  0  0  0  0  0  0
   26.8715   74.0733    2.9990 O   0  0  0  0  0  0  0  0  0  0  0  0
   23.8722   72.1513    1.0417 N   0  0  0  0  0  0  0  0  0  0  0  0
   25.7879   72.1051    2.4467 N   0  0  0  0  0  0  0  0  0  0  0  0
   24.7818   71.3761    1.7992 C   0  0  0  0  0  0  0  0  0  0  0  0
   24.0164   73.5319    0.9783 C   0  0  0  0  0  0  0  0  0  0  0  0
   24.9806   74.2127    1.6008 C   0  0  0  0  0  0  0  0  0  0  0  0
   25.9718   73.4780    2.4139 C   0  0  0  0  0  0  0  0  0  0  0  0
   26.4320   71.5874    2.9818 H   0  0  0  0  0  0  0  0  0  0  0  0
   22.0331   73.3584   -4.6757 O   0  0  0  0  0  0  0  0  0  0  0  0
   21.4772   73.4827   -6.1887 P   0  0  2  0  0  0  0  0  0  0  0  0
   22.5911   72.6928   -7.0580 O   0  0  0  0  0  0  0  0  0  0  0  0
   21.2271   74.8929   -6.6390 O   0  0  0  0  0  0  0  0  0  0  0  0
   20.1779   72.5272   -6.2272 O   0  0  0  0  0  0  0  0  0  0  0  0
   19.7736   70.3378   -5.4196 O   0  0  0  0  0  0  0  0  0  0  0  0
   17.5950   70.3549   -8.9298 O   0  0  0  0  0  0  0  0  0  0  0  0
   20.2559   71.5568   -8.8326 O   0  0  0  0  0  0  0  0  0  0  0  0
   16.2374   70.5758   -6.3687 O   0  0  0  0  0  0  0  0  0  0  0  0
   18.1778   70.9190   -7.7550 C   0  0  2  0  0  0  0  0  0  0  0  0
   19.6963   70.7478   -7.8044 C   0  0  2  0  0  0  0  0  0  0  0  0
   17.5989   70.1875   -6.5419 C   0  0  1  0  0  0  0  0  0  0  0  0
   20.3336   71.1299   -6.4677 C   0  0  1  0  0  0  0  0  0  0  0  0
   18.3683   70.5256   -5.2682 C   0  0  1  0  0  0  0  0  0  0  0  0
   17.9481   70.8041   -9.7139 H   0  0  0  0  0  0  0  0  0  0  0  0
   19.8558   71.3199   -9.6836 H   0  0  0  0  0  0  0  0  0  0  0  0
   15.7366   70.3662   -7.1726 H   0  0  0  0  0  0  0  0  0  0  0  0
   18.9085   69.6740   -3.1505 O   0  0  0  0  0  0  0  0  0  0  0  0
   17.0649   68.8122   -4.1788 O   0  0  0  0  0  0  0  0  0  0  0  0
   18.0193   69.5750   -4.1696 C   0  0  0  0  0  0  0  0  0  0  0  0
  1  4  1  0
  1 24  1  0
  1  2  1  1
  1  3  2  0
 25 28  1  0
 25 24  1  0
 25 26  1  6
 25 27  2  0
  6 11  1  0
  6 12  1  0
 29 36  1  0
 29 37  1  0
  9  7  1  1
  7 13  1  0
 10  8  1  1
  8 14  1  0
  4  5  1  0
 36 28  1  1
 33 30  1  6
 30 38  1  0
 34 31  1  6
 31 39  1  0
 35 32  1  1
 32 40  1  0
 41 43  1  0
 15 19  2  0
 42 43  2  0
 16 22  2  0
 12 17  1  1
 17 19  1  0
 17 20  1  0
 18 19  1  0
 18 22  1  0
 18 23  1  0
  9 10  1  0
  9 11  1  0
 10 12  1  0
 11  5  1  1
 33 34  1  0
 33 35  1  0
 34 36  1  0
 35 37  1  0
 37 43  1  1
 20 21  2  0
 21 22  1  0
M  CHG  3   2  -1  26  -1  41  -1
M  END
>  <COMPND>  (53) 
    udp_gluA.pdb 

>  <AUTHOR>  (53) 
    GENERATED BY OPEN BABEL 3.1.1

>  <MASTER>  (53) 
        0    0    0    0    0    0    0    0   56    0   56    0

>  <minimizedAffinity>  (53) 
-7.71362

>  <CNNscore>  (53) 
0.7574344873

>  <CNNaffinity>  (53) 
4.4878044128

>  <CNN_VS>  (53) 
3.3992178440

>  <CNNaffinity_variance>  (53) 
0.1203844100

$$$$
54
     RDKit          3D

 43 45  0  0  0  0  0  0  0  0999 V2000
   19.4525   72.6737   -1.2220 P   0  0  2  0  0  0  0  0  0  0  0  0
   20.7316   72.8022   -0.2390 O   0  0  0  0  0  0  0  0  0  0  0  0
   18.1378   73.0489   -0.6034 O   0  0  0  0  0  0  0  0  0  0  0  0
   19.5536   71.1642   -1.7958 O   0  0  0  0  0  0  0  0  0  0  0  0
   19.2002   70.9293   -3.1466 C   0  0  0  0  0  0  0  0  0  0  0  0
   17.4263   71.6926   -4.5778 O   0  0  0  0  0  0  0  0  0  0  0  0
   15.6031   69.9883   -2.9156 O   0  0  0  0  0  0  0  0  0  0  0  0
   15.9973   68.4518   -5.1337 O   0  0  0  0  0  0  0  0  0  0  0  0
   16.9535   69.7472   -3.3118 C   0  0  1  0  0  0  0  0  0  0  0  0
   17.0104   69.3686   -4.7766 C   0  0  2  0  0  0  0  0  0  0  0  0
   17.6919   71.0787   -3.2979 C   0  0  1  0  0  0  0  0  0  0  0  0
   16.8457   70.7166   -5.4574 C   0  0  2  0  0  0  0  0  0  0  0  0
   15.1112   69.1518   -2.9169 H   0  0  0  0  0  0  0  0  0  0  0  0
   16.1467   67.6098   -4.6748 H   0  0  0  0  0  0  0  0  0  0  0  0
   15.6412   70.0629   -7.9269 O   0  0  0  0  0  0  0  0  0  0  0  0
   19.5079   70.9772  -10.2629 O   0  0  0  0  0  0  0  0  0  0  0  0
   17.5147   70.7751   -6.7262 N   0  0  0  0  0  0  0  0  0  0  0  0
   17.5685   70.5179   -9.0879 N   0  0  0  0  0  0  0  0  0  0  0  0
   16.8190   70.4255   -7.9077 C   0  0  0  0  0  0  0  0  0  0  0  0
   18.8435   71.1763   -6.7919 C   0  0  0  0  0  0  0  0  0  0  0  0
   19.5446   71.2596   -7.9243 C   0  0  0  0  0  0  0  0  0  0  0  0
   18.8920   70.9111   -9.2034 C   0  0  0  0  0  0  0  0  0  0  0  0
   17.1061   70.2777   -9.9232 H   0  0  0  0  0  0  0  0  0  0  0  0
   19.8800   73.5753   -2.4937 O   0  0  0  0  0  0  0  0  0  0  0  0
   19.1278   74.8068   -3.2226 P   0  0  2  0  0  0  0  0  0  0  0  0
   19.6394   76.0974   -2.3902 O   0  0  0  0  0  0  0  0  0  0  0  0
   17.6347   74.6648   -3.2874 O   0  0  0  0  0  0  0  0  0  0  0  0
   19.8511   74.9357   -4.6588 O   0  0  0  0  0  0  0  0  0  0  0  0
   22.1496   75.0077   -4.0922 O   0  0  0  0  0  0  0  0  0  0  0  0
   22.3069   74.7593   -8.2131 O   0  0  0  0  0  0  0  0  0  0  0  0
   20.3520   76.4938   -6.9077 O   0  0  0  0  0  0  0  0  0  0  0  0
   22.9073   72.4259   -6.5866 O   0  0  0  0  0  0  0  0  0  0  0  0
   21.7667   74.5229   -6.9130 C   0  0  2  0  0  0  0  0  0  0  0  0
   21.4387   75.8582   -6.2445 C   0  0  2  0  0  0  0  0  0  0  0  0
   22.8142   73.7622   -6.0968 C   0  0  1  0  0  0  0  0  0  0  0  0
   21.0756   75.6585   -4.7724 C   0  0  1  0  0  0  0  0  0  0  0  0
   22.4412   73.7148   -4.6179 C   0  0  1  0  0  0  0  0  0  0  0  0
   21.6586   75.2418   -8.7500 H   0  0  0  0  0  0  0  0  0  0  0  0
   20.5754   76.6234   -7.8424 H   0  0  0  0  0  0  0  0  0  0  0  0
   23.1439   72.4419   -7.5271 H   0  0  0  0  0  0  0  0  0  0  0  0
   23.5758   73.8597   -2.5701 O   0  0  0  0  0  0  0  0  0  0  0  0
   24.4653   72.4851   -4.1571 O   0  0  0  0  0  0  0  0  0  0  0  0
   23.6043   73.2712   -3.7915 C   0  0  0  0  0  0  0  0  0  0  0  0
  1  4  1  0
  1 24  1  0
  1  2  1  1
  1  3  2  0
 25 28  1  0
 25 24  1  0
 25 26  1  1
 25 27  2  0
  6 11  1  0
  6 12  1  0
 29 36  1  0
 29 37  1  0
  9  7  1  6
  7 13  1  0
 10  8  1  6
  8 14  1  0
  4  5  1  0
 36 28  1  6
 33 30  1  6
 30 38  1  0
 34 31  1  6
 31 39  1  0
 35 32  1  6
 32 40  1  0
 41 43  1  0
 15 19  2  0
 42 43  2  0
 16 22  2  0
 12 17  1  6
 17 19  1  0
 17 20  1  0
 18 19  1  0
 18 22  1  0
 18 23  1  0
  9 10  1  0
  9 11  1  0
 10 12  1  0
 11  5  1  6
 33 34  1  0
 33 35  1  0
 34 36  1  0
 35 37  1  0
 37 43  1  1
 20 21  2  0
 21 22  1  0
M  CHG  3   2  -1  26  -1  41  -1
M  END
>  <COMPND>  (54) 
    udp_gluA.pdb 

>  <AUTHOR>  (54) 
    GENERATED BY OPEN BABEL 3.1.1

>  <MASTER>  (54) 
        0    0    0    0    0    0    0    0   56    0   56    0

>  <minimizedAffinity>  (54) 
-6.78791

>  <CNNscore>  (54) 
0.7014955878

>  <CNNaffinity>  (54) 
4.3376264572

>  <CNN_VS>  (54) 
3.0428259373

>  <CNNaffinity_variance>  (54) 
0.5820257068

$$$$
55
     RDKit          3D

 43 45  0  0  0  0  0  0  0  0999 V2000
   21.9591   72.6862   -5.7941 P   0  0  2  0  0  0  0  0  0  0  0  0
   21.5608   74.2044   -5.4002 O   0  0  0  0  0  0  0  0  0  0  0  0
   23.0560   72.5623   -6.8106 O   0  0  0  0  0  0  0  0  0  0  0  0
   20.5474   72.0063   -6.1973 O   0  0  0  0  0  0  0  0  0  0  0  0
   20.0357   72.2312   -7.4981 C   0  0  0  0  0  0  0  0  0  0  0  0
   18.9850   70.1441   -6.9345 O   0  0  0  0  0  0  0  0  0  0  0  0
   18.2053   69.9696   -9.8247 O   0  0  0  0  0  0  0  0  0  0  0  0
   15.9042   70.8246   -8.6373 O   0  0  0  0  0  0  0  0  0  0  0  0
   18.2935   71.1175   -8.9803 C   0  0  1  0  0  0  0  0  0  0  0  0
   17.1291   71.1473   -8.0129 C   0  0  2  0  0  0  0  0  0  0  0  0
   19.4794   70.9230   -8.0454 C   0  0  1  0  0  0  0  0  0  0  0  0
   17.5496   70.1143   -6.9814 C   0  0  2  0  0  0  0  0  0  0  0  0
   17.4545   70.0708  -10.4311 H   0  0  0  0  0  0  0  0  0  0  0  0
   15.6802   71.5122   -9.2846 H   0  0  0  0  0  0  0  0  0  0  0  0
   16.3822   68.1979   -5.2664 O   0  0  0  0  0  0  0  0  0  0  0  0
   15.6036   71.3402   -1.9856 O   0  0  0  0  0  0  0  0  0  0  0  0
   17.0336   70.4044   -5.6736 N   0  0  0  0  0  0  0  0  0  0  0  0
   15.9946   69.7650   -3.6345 N   0  0  0  0  0  0  0  0  0  0  0  0
   16.4671   69.3693   -4.8927 C   0  0  0  0  0  0  0  0  0  0  0  0
   17.0929   71.7006   -5.1763 C   0  0  0  0  0  0  0  0  0  0  0  0
   16.6385   72.0625   -3.9750 C   0  0  0  0  0  0  0  0  0  0  0  0
   16.0309   71.0413   -3.0966 C   0  0  0  0  0  0  0  0  0  0  0  0
   15.5940   69.0621   -3.0734 H   0  0  0  0  0  0  0  0  0  0  0  0
   22.2899   72.0145   -4.3615 O   0  0  0  0  0  0  0  0  0  0  0  0
   23.5766   72.1585   -3.3934 P   0  0  2  0  0  0  0  0  0  0  0  0
   24.5348   73.1826   -4.2017 O   0  0  0  0  0  0  0  0  0  0  0  0
   24.2277   70.8537   -3.0363 O   0  0  0  0  0  0  0  0  0  0  0  0
   23.0452   73.0093   -2.1300 O   0  0  0  0  0  0  0  0  0  0  0  0
   21.1603   72.3596   -0.8516 O   0  0  0  0  0  0  0  0  0  0  0  0
   21.4040   76.3947    0.0010 O   0  0  0  0  0  0  0  0  0  0  0  0
   21.8120   75.4301   -2.7262 O   0  0  0  0  0  0  0  0  0  0  0  0
   22.2777   74.4337    1.9612 O   0  0  0  0  0  0  0  0  0  0  0  0
   21.9068   75.0988   -0.3246 C   0  0  2  0  0  0  0  0  0  0  0  0
   21.3111   74.6383   -1.6552 C   0  0  2  0  0  0  0  0  0  0  0  0
   21.5056   74.1399    0.7985 C   0  0  1  0  0  0  0  0  0  0  0  0
   21.6428   73.1698   -1.9241 C   0  0  1  0  0  0  0  0  0  0  0  0
   21.7513   72.6864    0.4043 C   0  0  1  0  0  0  0  0  0  0  0  0
   21.6469   77.0212   -0.6988 H   0  0  0  0  0  0  0  0  0  0  0  0
   21.6053   76.3632   -2.5620 H   0  0  0  0  0  0  0  0  0  0  0  0
   22.1305   75.3561    2.2226 H   0  0  0  0  0  0  0  0  0  0  0  0
   21.1311   70.4793    0.9001 O   0  0  0  0  0  0  0  0  0  0  0  0
   20.5164   72.0922    2.3901 O   0  0  0  0  0  0  0  0  0  0  0  0
   21.0639   71.7567    1.3505 C   0  0  0  0  0  0  0  0  0  0  0  0
  1  4  1  0
  1 24  1  0
  1  2  1  1
  1  3  2  0
 25 28  1  0
 25 24  1  0
 25 26  1  6
 25 27  2  0
  6 11  1  0
  6 12  1  0
 29 36  1  0
 29 37  1  0
  9  7  1  6
  7 13  1  0
 10  8  1  6
  8 14  1  0
  4  5  1  0
 36 28  1  1
 33 30  1  1
 30 38  1  0
 34 31  1  6
 31 39  1  0
 35 32  1  1
 32 40  1  0
 41 43  1  0
 15 19  2  0
 42 43  2  0
 16 22  2  0
 12 17  1  1
 17 19  1  0
 17 20  1  0
 18 19  1  0
 18 22  1  0
 18 23  1  0
  9 10  1  0
  9 11  1  0
 10 12  1  0
 11  5  1  1
 33 34  1  0
 33 35  1  0
 34 36  1  0
 35 37  1  0
 37 43  1  1
 20 21  2  0
 21 22  1  0
M  CHG  3   2  -1  26  -1  41  -1
M  END
>  <COMPND>  (55) 
    udp_gluA.pdb 

>  <AUTHOR>  (55) 
    GENERATED BY OPEN BABEL 3.1.1

>  <MASTER>  (55) 
        0    0    0    0    0    0    0    0   56    0   56    0

>  <minimizedAffinity>  (55) 
-7.94205

>  <CNNscore>  (55) 
0.6936396360

>  <CNNaffinity>  (55) 
4.4905576706

>  <CNN_VS>  (55) 
3.1148288250

>  <CNNaffinity_variance>  (55) 
0.3525438309

$$$$
56
     RDKit          3D

 43 45  0  0  0  0  0  0  0  0999 V2000
   23.5170   73.6555   -4.1592 P   0  0  2  0  0  0  0  0  0  0  0  0
   22.7038   75.0187   -4.4743 O   0  0  0  0  0  0  0  0  0  0  0  0
   25.0072   73.8115   -4.0766 O   0  0  0  0  0  0  0  0  0  0  0  0
   22.9803   72.6158   -5.2767 O   0  0  0  0  0  0  0  0  0  0  0  0
   21.5913   72.3488   -5.3401 C   0  0  0  0  0  0  0  0  0  0  0  0
   20.5217   70.3885   -6.2295 O   0  0  0  0  0  0  0  0  0  0  0  0
   20.6855   71.7388   -8.9018 O   0  0  0  0  0  0  0  0  0  0  0  0
   18.0906   72.1620   -8.1784 O   0  0  0  0  0  0  0  0  0  0  0  0
   20.4511   72.3091   -7.6140 C   0  0  1  0  0  0  0  0  0  0  0  0
   19.0443   71.9957   -7.1502 C   0  0  2  0  0  0  0  0  0  0  0  0
   21.2971   71.5484   -6.6023 C   0  0  1  0  0  0  0  0  0  0  0  0
   19.1749   70.5501   -6.7018 C   0  0  2  0  0  0  0  0  0  0  0  0
   20.1555   72.2086   -9.5652 H   0  0  0  0  0  0  0  0  0  0  0  0
   18.0446   73.0986   -8.4284 H   0  0  0  0  0  0  0  0  0  0  0  0
   16.5009   69.7285   -7.0908 O   0  0  0  0  0  0  0  0  0  0  0  0
   15.7768   69.3139   -2.5578 O   0  0  0  0  0  0  0  0  0  0  0  0
   18.2654   70.2212   -5.6409 N   0  0  0  0  0  0  0  0  0  0  0  0
   16.1425   69.5238   -4.8327 N   0  0  0  0  0  0  0  0  0  0  0  0
   16.9429   69.8197   -5.9440 C   0  0  0  0  0  0  0  0  0  0  0  0
   18.6860   70.2962   -4.3186 C   0  0  0  0  0  0  0  0  0  0  0  0
   17.9115   70.0109   -3.2700 C   0  0  0  0  0  0  0  0  0  0  0  0
   16.5156   69.5842   -3.4998 C   0  0  0  0  0  0  0  0  0  0  0  0
   15.2170   69.2439   -5.0185 H   0  0  0  0  0  0  0  0  0  0  0  0
   22.8195   73.1224   -2.8020 O   0  0  0  0  0  0  0  0  0  0  0  0
   22.8734   71.6781   -2.0775 P   0  0  2  0  0  0  0  0  0  0  0  0
   24.2374   71.0253   -2.6551 O   0  0  0  0  0  0  0  0  0  0  0  0
   21.6477   70.8372   -2.2885 O   0  0  0  0  0  0  0  0  0  0  0  0
   23.2018   72.0071   -0.5327 O   0  0  0  0  0  0  0  0  0  0  0  0
   24.6642   71.0821    1.0843 O   0  0  0  0  0  0  0  0  0  0  0  0
   21.2990   71.8704    3.3474 O   0  0  0  0  0  0  0  0  0  0  0  0
   21.0492   70.7227    0.6726 O   0  0  0  0  0  0  0  0  0  0  0  0
   23.6291   73.5971    3.5471 O   0  0  0  0  0  0  0  0  0  0  0  0
   22.2393   72.0797    2.2939 C   0  0  2  0  0  0  0  0  0  0  0  0
   22.2735   70.8495    1.3867 C   0  0  2  0  0  0  0  0  0  0  0  0
   23.6133   72.3133    2.9258 C   0  0  1  0  0  0  0  0  0  0  0  0
   23.4266   70.9395    0.3861 C   0  0  1  0  0  0  0  0  0  0  0  0
   24.7233   72.2640    1.8798 C   0  0  1  0  0  0  0  0  0  0  0  0
   20.4181   71.7197    2.9697 H   0  0  0  0  0  0  0  0  0  0  0  0
   20.3132   70.6654    1.3013 H   0  0  0  0  0  0  0  0  0  0  0  0
   22.9272   73.6418    4.2151 H   0  0  0  0  0  0  0  0  0  0  0  0
   26.6341   70.9608    2.2693 O   0  0  0  0  0  0  0  0  0  0  0  0
   26.5818   73.0372    3.2099 O   0  0  0  0  0  0  0  0  0  0  0  0
   26.0633   72.1623    2.5327 C   0  0  0  0  0  0  0  0  0  0  0  0
  1  4  1  0
  1 24  1  0
  1  2  1  6
  1  3  2  0
 25 28  1  0
 25 24  1  0
 25 26  1  6
 25 27  2  0
  6 11  1  0
  6 12  1  0
 29 36  1  0
 29 37  1  0
  9  7  1  6
  7 13  1  0
 10  8  1  6
  8 14  1  0
  4  5  1  0
 36 28  1  6
 33 30  1  1
 30 38  1  0
 34 31  1  6
 31 39  1  0
 35 32  1  6
 32 40  1  0
 41 43  1  0
 15 19  2  0
 42 43  2  0
 16 22  2  0
 12 17  1  1
 17 19  1  0
 17 20  1  0
 18 19  1  0
 18 22  1  0
 18 23  1  0
  9 10  1  0
  9 11  1  0
 10 12  1  0
 11  5  1  1
 33 34  1  0
 33 35  1  0
 34 36  1  0
 35 37  1  0
 37 43  1  1
 20 21  2  0
 21 22  1  0
M  CHG  3   2  -1  26  -1  41  -1
M  END
>  <COMPND>  (56) 
    udp_gluA.pdb 

>  <AUTHOR>  (56) 
    GENERATED BY OPEN BABEL 3.1.1

>  <MASTER>  (56) 
        0    0    0    0    0    0    0    0   56    0   56    0

>  <minimizedAffinity>  (56) 
-8.19392

>  <CNNscore>  (56) 
0.6523064971

>  <CNNaffinity>  (56) 
4.3462347984

>  <CNN_VS>  (56) 
2.8350772858

>  <CNNaffinity_variance>  (56) 
0.1697894335

$$$$
57
     RDKit          3D

 43 45  0  0  0  0  0  0  0  0999 V2000
   20.9747   71.7344   -0.4416 P   0  0  2  0  0  0  0  0  0  0  0  0
   21.0563   71.0223    1.0093 O   0  0  0  0  0  0  0  0  0  0  0  0
   20.8703   73.2310   -0.4079 O   0  0  0  0  0  0  0  0  0  0  0  0
   19.7631   70.9622   -1.1858 O   0  0  0  0  0  0  0  0  0  0  0  0
   18.9210   71.7010   -2.0514 C   0  0  0  0  0  0  0  0  0  0  0  0
   17.2304   71.1276   -3.6610 O   0  0  0  0  0  0  0  0  0  0  0  0
   16.5545   68.8305   -1.8560 O   0  0  0  0  0  0  0  0  0  0  0  0
   18.0437   67.6387   -3.8048 O   0  0  0  0  0  0  0  0  0  0  0  0
   17.8282   69.4056   -2.1484 C   0  0  1  0  0  0  0  0  0  0  0  0
   18.2773   69.0057   -3.5378 C   0  0  2  0  0  0  0  0  0  0  0  0
   17.6422   70.9097   -2.2942 C   0  0  1  0  0  0  0  0  0  0  0  0
   17.4435   69.9238   -4.4152 C   0  0  2  0  0  0  0  0  0  0  0  0
   16.6480   67.8696   -1.7584 H   0  0  0  0  0  0  0  0  0  0  0  0
   18.5978   67.0961   -3.2213 H   0  0  0  0  0  0  0  0  0  0  0  0
   16.2927   69.6166   -6.9760 O   0  0  0  0  0  0  0  0  0  0  0  0
   20.0715   71.2257   -9.0678 O   0  0  0  0  0  0  0  0  0  0  0  0
   18.1043   70.2547   -5.6459 N   0  0  0  0  0  0  0  0  0  0  0  0
   18.1762   70.4173   -8.0154 N   0  0  0  0  0  0  0  0  0  0  0  0
   17.4376   70.0622   -6.8790 C   0  0  0  0  0  0  0  0  0  0  0  0
   19.3967   70.7648   -5.6238 C   0  0  0  0  0  0  0  0  0  0  0  0
   20.0878   71.0989   -6.7154 C   0  0  0  0  0  0  0  0  0  0  0  0
   19.4639   70.9278   -8.0438 C   0  0  0  0  0  0  0  0  0  0  0  0
   17.7337   70.2903   -8.8857 H   0  0  0  0  0  0  0  0  0  0  0  0
   22.2858   71.1677   -1.1983 O   0  0  0  0  0  0  0  0  0  0  0  0
   22.7454   71.2685   -2.7450 P   0  0  2  0  0  0  0  0  0  0  0  0
   21.7378   70.2491   -3.4973 O   0  0  0  0  0  0  0  0  0  0  0  0
   24.2010   70.9815   -2.9749 O   0  0  0  0  0  0  0  0  0  0  0  0
   22.2692   72.7352   -3.2187 O   0  0  0  0  0  0  0  0  0  0  0  0
   23.2957   73.8266   -5.0529 O   0  0  0  0  0  0  0  0  0  0  0  0
   21.4989   76.9880   -3.0919 O   0  0  0  0  0  0  0  0  0  0  0  0
   22.8784   74.9010   -1.5833 O   0  0  0  0  0  0  0  0  0  0  0  0
   20.3309   75.9334   -5.5362 O   0  0  0  0  0  0  0  0  0  0  0  0
   21.6372   75.6375   -3.5334 C   0  0  2  0  0  0  0  0  0  0  0  0
   22.9446   75.0548   -2.9963 C   0  0  2  0  0  0  0  0  0  0  0  0
   21.6440   75.6386   -5.0638 C   0  0  1  0  0  0  0  0  0  0  0  0
   23.2398   73.6955   -3.6319 C   0  0  1  0  0  0  0  0  0  0  0  0
   22.0696   74.2828   -5.6200 C   0  0  1  0  0  0  0  0  0  0  0  0
   21.4921   77.0122   -2.1220 H   0  0  0  0  0  0  0  0  0  0  0  0
   22.6911   75.7597   -1.1734 H   0  0  0  0  0  0  0  0  0  0  0  0
   20.0480   76.7938   -5.1892 H   0  0  0  0  0  0  0  0  0  0  0  0
   23.0405   73.2721   -7.5007 O   0  0  0  0  0  0  0  0  0  0  0  0
   22.1073   75.3320   -7.7923 O   0  0  0  0  0  0  0  0  0  0  0  0
   22.3903   74.3837   -7.0757 C   0  0  0  0  0  0  0  0  0  0  0  0
  1  4  1  0
  1 24  1  0
  1  2  1  1
  1  3  2  0
 25 28  1  0
 25 24  1  0
 25 26  1  6
 25 27  2  0
  6 11  1  0
  6 12  1  0
 29 36  1  0
 29 37  1  0
  9  7  1  6
  7 13  1  0
 10  8  1  6
  8 14  1  0
  4  5  1  0
 36 28  1  6
 33 30  1  1
 30 38  1  0
 34 31  1  1
 31 39  1  0
 35 32  1  6
 32 40  1  0
 41 43  1  0
 15 19  2  0
 42 43  2  0
 16 22  2  0
 12 17  1  6
 17 19  1  0
 17 20  1  0
 18 19  1  0
 18 22  1  0
 18 23  1  0
  9 10  1  0
  9 11  1  0
 10 12  1  0
 11  5  1  6
 33 34  1  0
 33 35  1  0
 34 36  1  0
 35 37  1  0
 37 43  1  6
 20 21  2  0
 21 22  1  0
M  CHG  3   2  -1  26  -1  41  -1
M  END
>  <COMPND>  (57) 
    udp_gluA.pdb 

>  <AUTHOR>  (57) 
    GENERATED BY OPEN BABEL 3.1.1

>  <MASTER>  (57) 
        0    0    0    0    0    0    0    0   56    0   56    0

>  <minimizedAffinity>  (57) 
-6.70112

>  <CNNscore>  (57) 
0.6345370412

>  <CNNaffinity>  (57) 
4.2202157974

>  <CNN_VS>  (57) 
2.6778831482

>  <CNNaffinity_variance>  (57) 
0.3675437868

$$$$
58
     RDKit          3D

 43 45  0  0  0  0  0  0  0  0999 V2000
   23.3582   72.4675   -3.1244 P   0  0  2  0  0  0  0  0  0  0  0  0
   24.0857   71.0229   -3.0741 O   0  0  0  0  0  0  0  0  0  0  0  0
   24.2374   73.6049   -3.5547 O   0  0  0  0  0  0  0  0  0  0  0  0
   22.6850   72.6147   -1.6605 O   0  0  0  0  0  0  0  0  0  0  0  0
   23.5333   72.6650   -0.5281 C   0  0  0  0  0  0  0  0  0  0  0  0
   23.9387   71.6720    1.6230 O   0  0  0  0  0  0  0  0  0  0  0  0
   21.4158   70.1152    1.1727 O   0  0  0  0  0  0  0  0  0  0  0  0
   20.5977   72.1033    2.8502 O   0  0  0  0  0  0  0  0  0  0  0  0
   21.7290   71.4566    0.7973 C   0  0  1  0  0  0  0  0  0  0  0  0
   21.7051   72.3600    2.0121 C   0  0  2  0  0  0  0  0  0  0  0  0
   23.1970   71.5015    0.3958 C   0  0  1  0  0  0  0  0  0  0  0  0
   23.0306   72.0296    2.6769 C   0  0  2  0  0  0  0  0  0  0  0  0
   20.4827   70.0615    1.4335 H   0  0  0  0  0  0  0  0  0  0  0  0
   19.7784   72.3298    2.3818 H   0  0  0  0  0  0  0  0  0  0  0  0
   22.4599   72.5999    5.3835 O   0  0  0  0  0  0  0  0  0  0  0  0
   25.1663   76.3307    5.3577 O   0  0  0  0  0  0  0  0  0  0  0  0
   23.5725   73.1436    3.4023 N   0  0  0  0  0  0  0  0  0  0  0  0
   23.8076   74.4581    5.3678 N   0  0  0  0  0  0  0  0  0  0  0  0
   23.2218   73.3404    4.7589 C   0  0  0  0  0  0  0  0  0  0  0  0
   24.4416   74.0254    2.7714 C   0  0  0  0  0  0  0  0  0  0  0  0
   24.9920   75.0863    3.3649 C   0  0  0  0  0  0  0  0  0  0  0  0
   24.6768   75.3639    4.7816 C   0  0  0  0  0  0  0  0  0  0  0  0
   23.5768   74.6169    6.3116 H   0  0  0  0  0  0  0  0  0  0  0  0
   22.0856   72.1997   -4.0844 O   0  0  0  0  0  0  0  0  0  0  0  0
   20.5110   72.4945   -3.8665 P   0  0  2  0  0  0  0  0  0  0  0  0
   20.4563   74.1031   -3.6936 O   0  0  0  0  0  0  0  0  0  0  0  0
   19.8924   71.7293   -2.7326 O   0  0  0  0  0  0  0  0  0  0  0  0
   19.8395   72.2167   -5.3067 O   0  0  0  0  0  0  0  0  0  0  0  0
   19.0676   69.9782   -5.2565 O   0  0  0  0  0  0  0  0  0  0  0  0
   17.8303   71.2103   -9.0007 O   0  0  0  0  0  0  0  0  0  0  0  0
   20.4759   71.9416   -8.0003 O   0  0  0  0  0  0  0  0  0  0  0  0
   15.9068   70.9691   -6.8344 O   0  0  0  0  0  0  0  0  0  0  0  0
   18.1507   71.3641   -7.6181 C   0  0  2  0  0  0  0  0  0  0  0  0
   19.6148   70.9891   -7.3872 C   0  0  2  0  0  0  0  0  0  0  0  0
   17.2318   70.4413   -6.8143 C   0  0  1  0  0  0  0  0  0  0  0  0
   19.9326   70.9196   -5.8929 C   0  0  1  0  0  0  0  0  0  0  0  0
   17.6890   70.3263   -5.3630 C   0  0  1  0  0  0  0  0  0  0  0  0
   18.4020   71.7873   -9.5314 H   0  0  0  0  0  0  0  0  0  0  0  0
   20.2795   71.9911   -8.9486 H   0  0  0  0  0  0  0  0  0  0  0  0
   15.6039   71.0475   -7.7526 H   0  0  0  0  0  0  0  0  0  0  0  0
   16.3672   68.4011   -5.5813 O   0  0  0  0  0  0  0  0  0  0  0  0
   17.0084   68.9890   -3.4736 O   0  0  0  0  0  0  0  0  0  0  0  0
   17.0020   69.1895   -4.6789 C   0  0  0  0  0  0  0  0  0  0  0  0
  1  4  1  0
  1 24  1  0
  1  2  1  1
  1  3  2  0
 25 28  1  0
 25 24  1  0
 25 26  1  1
 25 27  2  0
  6 11  1  0
  6 12  1  0
 29 36  1  0
 29 37  1  0
  9  7  1  1
  7 13  1  0
 10  8  1  1
  8 14  1  0
  4  5  1  0
 36 28  1  1
 33 30  1  6
 30 38  1  0
 34 31  1  6
 31 39  1  0
 35 32  1  1
 32 40  1  0
 41 43  1  0
 15 19  2  0
 42 43  2  0
 16 22  2  0
 12 17  1  6
 17 19  1  0
 17 20  1  0
 18 19  1  0
 18 22  1  0
 18 23  1  0
  9 10  1  0
  9 11  1  0
 10 12  1  0
 11  5  1  6
 33 34  1  0
 33 35  1  0
 34 36  1  0
 35 37  1  0
 37 43  1  1
 20 21  2  0
 21 22  1  0
M  CHG  3   2  -1  26  -1  41  -1
M  END
>  <COMPND>  (58) 
    udp_gluA.pdb 

>  <AUTHOR>  (58) 
    GENERATED BY OPEN BABEL 3.1.1

>  <MASTER>  (58) 
        0    0    0    0    0    0    0    0   56    0   56    0

>  <minimizedAffinity>  (58) 
-7.43402

>  <CNNscore>  (58) 
0.6137285829

>  <CNNaffinity>  (58) 
4.3546509743

>  <CNN_VS>  (58) 
2.6725738049

>  <CNNaffinity_variance>  (58) 
0.0831257105

$$$$
59
     RDKit          3D

 43 45  0  0  0  0  0  0  0  0999 V2000
   18.8008   72.2795   -1.7456 P   0  0  2  0  0  0  0  0  0  0  0  0
   18.4692   73.8445   -1.5008 O   0  0  0  0  0  0  0  0  0  0  0  0
   19.7424   71.6681   -0.7499 O   0  0  0  0  0  0  0  0  0  0  0  0
   19.2768   72.2203   -3.2909 O   0  0  0  0  0  0  0  0  0  0  0  0
   20.3044   73.0966   -3.7159 C   0  0  0  0  0  0  0  0  0  0  0  0
   20.6958   71.1955   -5.1337 O   0  0  0  0  0  0  0  0  0  0  0  0
   23.3082   72.4901   -5.8342 O   0  0  0  0  0  0  0  0  0  0  0  0
   21.7488   73.0909   -7.9890 O   0  0  0  0  0  0  0  0  0  0  0  0
   22.0409   73.0946   -5.5751 C   0  0  1  0  0  0  0  0  0  0  0  0
   21.1082   72.8798   -6.7482 C   0  0  2  0  0  0  0  0  0  0  0  0
   21.3564   72.2969   -4.4736 C   0  0  1  0  0  0  0  0  0  0  0  0
   20.6792   71.4360   -6.5498 C   0  0  2  0  0  0  0  0  0  0  0  0
   23.7645   72.9825   -6.5349 H   0  0  0  0  0  0  0  0  0  0  0  0
   22.0022   74.0245   -8.0674 H   0  0  0  0  0  0  0  0  0  0  0  0
   20.0697   69.5462   -8.5581 O   0  0  0  0  0  0  0  0  0  0  0  0
   15.5743   70.5504   -8.3946 O   0  0  0  0  0  0  0  0  0  0  0  0
   19.3578   71.1832   -7.0509 N   0  0  0  0  0  0  0  0  0  0  0  0
   17.8314   70.0488   -8.4755 N   0  0  0  0  0  0  0  0  0  0  0  0
   19.1598   70.2125   -8.0611 C   0  0  0  0  0  0  0  0  0  0  0  0
   18.2758   71.8910   -6.5417 C   0  0  0  0  0  0  0  0  0  0  0  0
   17.0153   71.7238   -6.9466 C   0  0  0  0  0  0  0  0  0  0  0  0
   16.7224   70.7294   -7.9996 C   0  0  0  0  0  0  0  0  0  0  0  0
   17.6689   69.3800   -9.1794 H   0  0  0  0  0  0  0  0  0  0  0  0
   17.3346   71.6006   -1.7907 O   0  0  0  0  0  0  0  0  0  0  0  0
   16.1894   71.6225   -2.9316 P   0  0  2  0  0  0  0  0  0  0  0  0
   16.5070   70.2937   -3.7999 O   0  0  0  0  0  0  0  0  0  0  0  0
   16.1446   72.8900   -3.7349 O   0  0  0  0  0  0  0  0  0  0  0  0
   14.8227   71.2788   -2.1464 O   0  0  0  0  0  0  0  0  0  0  0  0
   14.0172   71.7355    0.0335 O   0  0  0  0  0  0  0  0  0  0  0  0
   12.6462   67.8869   -0.5803 O   0  0  0  0  0  0  0  0  0  0  0  0
   15.3425   68.6480   -1.4081 O   0  0  0  0  0  0  0  0  0  0  0  0
   10.8104   70.1344   -0.7509 O   0  0  0  0  0  0  0  0  0  0  0  0
   13.0260   69.2105   -0.9568 C   0  0  2  0  0  0  0  0  0  0  0  0
   14.4921   69.4455   -0.5922 C   0  0  2  0  0  0  0  0  0  0  0  0
   12.1263   70.1929   -0.2036 C   0  0  1  0  0  0  0  0  0  0  0  0
   14.8704   70.9169   -0.7675 C   0  0  1  0  0  0  0  0  0  0  0  0
   12.6413   71.6243   -0.3235 C   0  0  1  0  0  0  0  0  0  0  0  0
   13.2047   67.2451   -1.0467 H   0  0  0  0  0  0  0  0  0  0  0  0
   15.1078   67.7131   -1.3021 H   0  0  0  0  0  0  0  0  0  0  0  0
   10.4710   69.2285   -0.6809 H   0  0  0  0  0  0  0  0  0  0  0  0
   12.4053   73.7924    0.5397 O   0  0  0  0  0  0  0  0  0  0  0  0
   11.1274   72.1541    1.4790 O   0  0  0  0  0  0  0  0  0  0  0  0
   11.9648   72.5161    0.6661 C   0  0  0  0  0  0  0  0  0  0  0  0
  1  4  1  0
  1 24  1  0
  1  2  1  1
  1  3  2  0
 25 28  1  0
 25 24  1  0
 25 26  1  6
 25 27  2  0
  6 11  1  0
  6 12  1  0
 29 36  1  0
 29 37  1  0
  9  7  1  6
  7 13  1  0
 10  8  1  6
  8 14  1  0
  4  5  1  0
 36 28  1  6
 33 30  1  1
 30 38  1  0
 34 31  1  6
 31 39  1  0
 35 32  1  6
 32 40  1  0
 41 43  1  0
 15 19  2  0
 42 43  2  0
 16 22  2  0
 12 17  1  1
 17 19  1  0
 17 20  1  0
 18 19  1  0
 18 22  1  0
 18 23  1  0
  9 10  1  0
  9 11  1  0
 10 12  1  0
 11  5  1  6
 33 34  1  0
 33 35  1  0
 34 36  1  0
 35 37  1  0
 37 43  1  1
 20 21  2  0
 21 22  1  0
M  CHG  3   2  -1  26  -1  41  -1
M  END
>  <COMPND>  (59) 
    udp_gluA.pdb 

>  <AUTHOR>  (59) 
    GENERATED BY OPEN BABEL 3.1.1

>  <MASTER>  (59) 
        0    0    0    0    0    0    0    0   56    0   56    0

>  <minimizedAffinity>  (59) 
-6.14182

>  <CNNscore>  (59) 
0.5633515120

>  <CNNaffinity>  (59) 
4.4196605682

>  <CNN_VS>  (59) 
2.4898223877

>  <CNNaffinity_variance>  (59) 
0.0441930592

$$$$
60
     RDKit          3D

 43 45  0  0  0  0  0  0  0  0999 V2000
   21.5299   73.3774   -3.3746 P   0  0  2  0  0  0  0  0  0  0  0  0
   21.7577   72.9926   -4.9299 O   0  0  0  0  0  0  0  0  0  0  0  0
   21.2451   74.8279   -3.1159 O   0  0  0  0  0  0  0  0  0  0  0  0
   22.8334   72.7737   -2.6300 O   0  0  0  0  0  0  0  0  0  0  0  0
   22.9728   72.9813   -1.2365 C   0  0  0  0  0  0  0  0  0  0  0  0
   23.9134   71.2549    0.1465 O   0  0  0  0  0  0  0  0  0  0  0  0
   21.0873   70.5110    0.8178 O   0  0  0  0  0  0  0  0  0  0  0  0
   21.8650   71.9356    3.0091 O   0  0  0  0  0  0  0  0  0  0  0  0
   21.6521   71.8024    0.5906 C   0  0  1  0  0  0  0  0  0  0  0  0
   22.4931   72.2228    1.7773 C   0  0  2  0  0  0  0  0  0  0  0  0
   22.6963   71.6715   -0.5097 C   0  0  1  0  0  0  0  0  0  0  0  0
   23.7626   71.4155    1.5659 C   0  0  2  0  0  0  0  0  0  0  0  0
   20.4170   70.5693    1.5171 H   0  0  0  0  0  0  0  0  0  0  0  0
   21.0625   72.4745    3.0963 H   0  0  0  0  0  0  0  0  0  0  0  0
   23.9192   74.1849    2.0973 O   0  0  0  0  0  0  0  0  0  0  0  0
   28.2749   73.8423    3.5651 O   0  0  0  0  0  0  0  0  0  0  0  0
   24.9255   72.0764    2.0872 N   0  0  0  0  0  0  0  0  0  0  0  0
   26.0888   74.0118    2.8269 N   0  0  0  0  0  0  0  0  0  0  0  0
   24.9000   73.4721    2.3183 C   0  0  0  0  0  0  0  0  0  0  0  0
   26.0731   71.3440    2.3655 C   0  0  0  0  0  0  0  0  0  0  0  0
   27.1986   71.8725    2.8502 C   0  0  0  0  0  0  0  0  0  0  0  0
   27.2557   73.3243    3.1189 C   0  0  0  0  0  0  0  0  0  0  0  0
   26.0959   74.9821    2.9939 H   0  0  0  0  0  0  0  0  0  0  0  0
   20.3517   72.3684   -2.9199 O   0  0  0  0  0  0  0  0  0  0  0  0
   20.1882   70.7717   -3.1137 P   0  0  2  0  0  0  0  0  0  0  0  0
   19.4034   70.3150   -1.7736 O   0  0  0  0  0  0  0  0  0  0  0  0
   21.4799   70.0448   -3.3519 O   0  0  0  0  0  0  0  0  0  0  0  0
   19.1022   70.6120   -4.2959 O   0  0  0  0  0  0  0  0  0  0  0  0
   17.3229   72.0315   -4.9505 O   0  0  0  0  0  0  0  0  0  0  0  0
   15.7776   68.2970   -5.8068 O   0  0  0  0  0  0  0  0  0  0  0  0
   17.2708   68.7510   -3.3373 O   0  0  0  0  0  0  0  0  0  0  0  0
   16.7336   70.0079   -7.9539 O   0  0  0  0  0  0  0  0  0  0  0  0
   16.8012   69.2809   -5.6578 C   0  0  2  0  0  0  0  0  0  0  0  0
   16.8247   69.7801   -4.2129 C   0  0  2  0  0  0  0  0  0  0  0  0
   16.4912   70.4344   -6.6145 C   0  0  1  0  0  0  0  0  0  0  0  0
   17.7463   70.9919   -4.0677 C   0  0  1  0  0  0  0  0  0  0  0  0
   17.3667   71.6499   -6.3237 C   0  0  1  0  0  0  0  0  0  0  0  0
   15.9535   67.5539   -5.2083 H   0  0  0  0  0  0  0  0  0  0  0  0
   16.6907   67.9789   -3.4245 H   0  0  0  0  0  0  0  0  0  0  0  0
   16.1825   69.2346   -8.1517 H   0  0  0  0  0  0  0  0  0  0  0  0
   17.2213   73.9903   -6.3772 O   0  0  0  0  0  0  0  0  0  0  0  0
   16.1688   72.8445   -8.0440 O   0  0  0  0  0  0  0  0  0  0  0  0
   16.8432   72.8607   -7.0252 C   0  0  0  0  0  0  0  0  0  0  0  0
  1  4  1  0
  1 24  1  0
  1  2  1  6
  1  3  2  0
 25 28  1  0
 25 24  1  0
 25 26  1  1
 25 27  2  0
  6 11  1  0
  6 12  1  0
 29 36  1  0
 29 37  1  0
  9  7  1  1
  7 13  1  0
 10  8  1  1
  8 14  1  0
  4  5  1  0
 36 28  1  6
 33 30  1  1
 30 38  1  0
 34 31  1  1
 31 39  1  0
 35 32  1  6
 32 40  1  0
 41 43  1  0
 15 19  2  0
 42 43  2  0
 16 22  2  0
 12 17  1  6
 17 19  1  0
 17 20  1  0
 18 19  1  0
 18 22  1  0
 18 23  1  0
  9 10  1  0
  9 11  1  0
 10 12  1  0
 11  5  1  1
 33 34  1  0
 33 35  1  0
 34 36  1  0
 35 37  1  0
 37 43  1  6
 20 21  2  0
 21 22  1  0
M  CHG  3   2  -1  26  -1  41  -1
M  END
>  <COMPND>  (60) 
    udp_gluA.pdb 

>  <AUTHOR>  (60) 
    GENERATED BY OPEN BABEL 3.1.1

>  <MASTER>  (60) 
        0    0    0    0    0    0    0    0   56    0   56    0

>  <minimizedAffinity>  (60) 
-6.81620

>  <CNNscore>  (60) 
0.5329338908

>  <CNNaffinity>  (60) 
4.2192583084

>  <CNN_VS>  (60) 
2.2485857010

>  <CNNaffinity_variance>  (60) 
0.1192811877

$$$$
61
     RDKit          3D

 43 45  0  0  0  0  0  0  0  0999 V2000
   22.9883   71.6280   -2.7634 P   0  0  2  0  0  0  0  0  0  0  0  0
   23.1088   73.2171   -2.4822 O   0  0  0  0  0  0  0  0  0  0  0  0
   24.2643   70.9607   -3.1856 O   0  0  0  0  0  0  0  0  0  0  0  0
   21.7557   71.5101   -3.8050 O   0  0  0  0  0  0  0  0  0  0  0  0
   20.8906   70.3939   -3.7052 C   0  0  0  0  0  0  0  0  0  0  0  0
   18.9963   71.5522   -4.6259 O   0  0  0  0  0  0  0  0  0  0  0  0
   17.3951   70.3024   -2.4201 O   0  0  0  0  0  0  0  0  0  0  0  0
   16.7870   68.7292   -4.5629 O   0  0  0  0  0  0  0  0  0  0  0  0
   18.4870   69.7601   -3.1631 C   0  0  1  0  0  0  0  0  0  0  0  0
   18.0368   69.3869   -4.5596 C   0  0  2  0  0  0  0  0  0  0  0  0
   19.4743   70.8864   -3.4370 C   0  0  1  0  0  0  0  0  0  0  0  0
   17.9870   70.7406   -5.2473 C   0  0  2  0  0  0  0  0  0  0  0  0
   16.7509   69.6011   -2.2331 H   0  0  0  0  0  0  0  0  0  0  0  0
   16.8712   67.8727   -4.1142 H   0  0  0  0  0  0  0  0  0  0  0  0
   16.0758   70.0288   -7.2010 O   0  0  0  0  0  0  0  0  0  0  0  0
   19.1471   70.4295  -10.6143 O   0  0  0  0  0  0  0  0  0  0  0  0
   18.2602   70.6512   -6.6537 N   0  0  0  0  0  0  0  0  0  0  0  0
   17.6075   70.2281   -8.8990 N   0  0  0  0  0  0  0  0  0  0  0  0
   17.2294   70.2848   -7.5511 C   0  0  0  0  0  0  0  0  0  0  0  0
   19.5358   70.9262   -7.1314 C   0  0  0  0  0  0  0  0  0  0  0  0
   19.8811   70.8680   -8.4190 C   0  0  0  0  0  0  0  0  0  0  0  0
   18.8631   70.4920   -9.4219 C   0  0  0  0  0  0  0  0  0  0  0  0
   16.9073   69.9732   -9.5425 H   0  0  0  0  0  0  0  0  0  0  0  0
   22.3563   71.0628   -1.3872 O   0  0  0  0  0  0  0  0  0  0  0  0
   21.4501   71.7852   -0.2600 P   0  0  2  0  0  0  0  0  0  0  0  0
   20.6933   70.5463    0.4561 O   0  0  0  0  0  0  0  0  0  0  0  0
   20.5313   72.8452   -0.7949 O   0  0  0  0  0  0  0  0  0  0  0  0
   22.5066   72.3083    0.8412 O   0  0  0  0  0  0  0  0  0  0  0  0
   24.2459   71.3408    2.1249 O   0  0  0  0  0  0  0  0  0  0  0  0
   22.4044   73.7783    4.9061 O   0  0  0  0  0  0  0  0  0  0  0  0
   20.8104   72.1908    3.0424 O   0  0  0  0  0  0  0  0  0  0  0  0
   24.9411   74.5680    3.7261 O   0  0  0  0  0  0  0  0  0  0  0  0
   22.8452   73.3858    3.6063 C   0  0  2  0  0  0  0  0  0  0  0  0
   22.2126   72.0443    3.2349 C   0  0  2  0  0  0  0  0  0  0  0  0
   24.3702   73.2637    3.6410 C   0  0  1  0  0  0  0  0  0  0  0  0
   22.8347   71.4815    1.9562 C   0  0  1  0  0  0  0  0  0  0  0  0
   24.9030   72.5791    2.3855 C   0  0  1  0  0  0  0  0  0  0  0  0
   21.4378   73.8623    4.9083 H   0  0  0  0  0  0  0  0  0  0  0  0
   20.4092   72.5478    3.8498 H   0  0  0  0  0  0  0  0  0  0  0  0
   24.6100   75.0146    4.5209 H   0  0  0  0  0  0  0  0  0  0  0  0
   26.5639   70.9753    1.9727 O   0  0  0  0  0  0  0  0  0  0  0  0
   27.1725   72.8189    3.1685 O   0  0  0  0  0  0  0  0  0  0  0  0
   26.3284   72.1705    2.5685 C   0  0  0  0  0  0  0  0  0  0  0  0
  1  4  1  0
  1 24  1  0
  1  2  1  1
  1  3  2  0
 25 28  1  0
 25 24  1  0
 25 26  1  1
 25 27  2  0
  6 11  1  0
  6 12  1  0
 29 36  1  0
 29 37  1  0
  9  7  1  1
  7 13  1  0
 10  8  1  1
  8 14  1  0
  4  5  1  0
 36 28  1  6
 33 30  1  1
 30 38  1  0
 34 31  1  6
 31 39  1  0
 35 32  1  6
 32 40  1  0
 41 43  1  0
 15 19  2  0
 42 43  2  0
 16 22  2  0
 12 17  1  6
 17 19  1  0
 17 20  1  0
 18 19  1  0
 18 22  1  0
 18 23  1  0
  9 10  1  0
  9 11  1  0
 10 12  1  0
 11  5  1  6
 33 34  1  0
 33 35  1  0
 34 36  1  0
 35 37  1  0
 37 43  1  1
 20 21  2  0
 21 22  1  0
M  CHG  3   2  -1  26  -1  41  -1
M  END
>  <COMPND>  (61) 
    udp_gluA.pdb 

>  <AUTHOR>  (61) 
    GENERATED BY OPEN BABEL 3.1.1

>  <MASTER>  (61) 
        0    0    0    0    0    0    0    0   56    0   56    0

>  <minimizedAffinity>  (61) 
-8.27019

>  <CNNscore>  (61) 
0.9436812401

>  <CNNaffinity>  (61) 
4.8450155258

>  <CNN_VS>  (61) 
4.5721502304

>  <CNNaffinity_variance>  (61) 
0.0306425188

$$$$
62
     RDKit          3D

 43 45  0  0  0  0  0  0  0  0999 V2000
   22.9456   71.7116   -2.7793 P   0  0  2  0  0  0  0  0  0  0  0  0
   23.1754   73.2910   -2.5114 O   0  0  0  0  0  0  0  0  0  0  0  0
   24.1655   70.9608   -3.2263 O   0  0  0  0  0  0  0  0  0  0  0  0
   21.6840   71.6687   -3.7914 O   0  0  0  0  0  0  0  0  0  0  0  0
   20.8323   70.5381   -3.7627 C   0  0  0  0  0  0  0  0  0  0  0  0
   18.9331   71.6370   -4.7442 O   0  0  0  0  0  0  0  0  0  0  0  0
   17.3120   70.3869   -2.5530 O   0  0  0  0  0  0  0  0  0  0  0  0
   16.7878   68.7651   -4.6816 O   0  0  0  0  0  0  0  0  0  0  0  0
   18.4323   69.8579   -3.2627 C   0  0  1  0  0  0  0  0  0  0  0  0
   18.0219   69.4515   -4.6622 C   0  0  2  0  0  0  0  0  0  0  0  0
   19.3995   71.0021   -3.5339 C   0  0  1  0  0  0  0  0  0  0  0  0
   17.9566   70.7922   -5.3736 C   0  0  2  0  0  0  0  0  0  0  0  0
   16.6800   69.6742   -2.3683 H   0  0  0  0  0  0  0  0  0  0  0  0
   16.8815   67.9183   -4.2167 H   0  0  0  0  0  0  0  0  0  0  0  0
   16.1435   69.8831   -7.3389 O   0  0  0  0  0  0  0  0  0  0  0  0
   19.2409   70.4260  -10.7088 O   0  0  0  0  0  0  0  0  0  0  0  0
   18.2631   70.6860   -6.7720 N   0  0  0  0  0  0  0  0  0  0  0  0
   17.6882   70.1534   -9.0153 N   0  0  0  0  0  0  0  0  0  0  0  0
   17.2808   70.2174   -7.6763 C   0  0  0  0  0  0  0  0  0  0  0  0
   19.5230   71.0452   -7.2352 C   0  0  0  0  0  0  0  0  0  0  0  0
   19.8966   70.9789   -8.5146 C   0  0  0  0  0  0  0  0  0  0  0  0
   18.9299   70.4988   -9.5237 C   0  0  0  0  0  0  0  0  0  0  0  0
   17.0221   69.8282   -9.6632 H   0  0  0  0  0  0  0  0  0  0  0  0
   22.3107   71.1957   -1.3851 O   0  0  0  0  0  0  0  0  0  0  0  0
   21.2451   71.8859   -0.3843 P   0  0  2  0  0  0  0  0  0  0  0  0
   20.3294   70.6408    0.0968 O   0  0  0  0  0  0  0  0  0  0  0  0
   20.4744   73.0213   -0.9933 O   0  0  0  0  0  0  0  0  0  0  0  0
   22.1072   72.2851    0.9195 O   0  0  0  0  0  0  0  0  0  0  0  0
   21.1954   74.1025    2.1340 O   0  0  0  0  0  0  0  0  0  0  0  0
   24.8377   73.5791    4.0122 O   0  0  0  0  0  0  0  0  0  0  0  0
   24.6369   73.4266    1.1017 O   0  0  0  0  0  0  0  0  0  0  0  0
   22.3916   72.6698    5.2929 O   0  0  0  0  0  0  0  0  0  0  0  0
   23.6635   73.1724    3.3094 C   0  0  2  0  0  0  0  0  0  0  0  0
   23.6007   73.8889    1.9603 C   0  0  2  0  0  0  0  0  0  0  0  0
   22.4491   73.5406    4.1647 C   0  0  1  0  0  0  0  0  0  0  0  0
   22.2504   73.6577    1.2804 C   0  0  1  0  0  0  0  0  0  0  0  0
   21.1501   73.4035    3.3759 C   0  0  1  0  0  0  0  0  0  0  0  0
   25.6226   73.3552    3.4876 H   0  0  0  0  0  0  0  0  0  0  0  0
   25.4966   73.5700    1.5269 H   0  0  0  0  0  0  0  0  0  0  0  0
   23.2127   72.7473    5.8034 H   0  0  0  0  0  0  0  0  0  0  0  0
   20.4895   74.8990    5.0578 O   0  0  0  0  0  0  0  0  0  0  0  0
   18.8360   73.8945    3.8510 O   0  0  0  0  0  0  0  0  0  0  0  0
   20.0209   74.0681    4.0939 C   0  0  0  0  0  0  0  0  0  0  0  0
  1  4  1  0
  1 24  1  0
  1  2  1  1
  1  3  2  0
 25 28  1  0
 25 24  1  0
 25 26  1  1
 25 27  2  0
  6 11  1  0
  6 12  1  0
 29 36  1  0
 29 37  1  0
  9  7  1  1
  7 13  1  0
 10  8  1  1
  8 14  1  0
  4  5  1  0
 36 28  1  1
 33 30  1  1
 30 38  1  0
 34 31  1  6
 31 39  1  0
 35 32  1  1
 32 40  1  0
 41 43  1  0
 15 19  2  0
 42 43  2  0
 16 22  2  0
 12 17  1  6
 17 19  1  0
 17 20  1  0
 18 19  1  0
 18 22  1  0
 18 23  1  0
  9 10  1  0
  9 11  1  0
 10 12  1  0
 11  5  1  6
 33 34  1  0
 33 35  1  0
 34 36  1  0
 35 37  1  0
 37 43  1  1
 20 21  2  0
 21 22  1  0
M  CHG  3   2  -1  26  -1  41  -1
M  END
>  <COMPND>  (62) 
    udp_gluA.pdb 

>  <AUTHOR>  (62) 
    GENERATED BY OPEN BABEL 3.1.1

>  <MASTER>  (62) 
        0    0    0    0    0    0    0    0   56    0   56    0

>  <minimizedAffinity>  (62) 
-7.41647

>  <CNNscore>  (62) 
0.9064434767

>  <CNNaffinity>  (62) 
4.7282814980

>  <CNN_VS>  (62) 
4.2859201431

>  <CNNaffinity_variance>  (62) 
0.0310627371

$$$$
63
     RDKit          3D

 43 45  0  0  0  0  0  0  0  0999 V2000
   23.4381   72.1166   -2.9947 P   0  0  2  0  0  0  0  0  0  0  0  0
   24.2340   73.3839   -3.6107 O   0  0  0  0  0  0  0  0  0  0  0  0
   24.1882   70.8176   -3.0334 O   0  0  0  0  0  0  0  0  0  0  0  0
   22.0200   72.1326   -3.7736 O   0  0  0  0  0  0  0  0  0  0  0  0
   21.2366   70.9533   -3.7760 C   0  0  0  0  0  0  0  0  0  0  0  0
   19.1852   71.8665   -4.6336 O   0  0  0  0  0  0  0  0  0  0  0  0
   17.8456   70.5805   -2.2792 O   0  0  0  0  0  0  0  0  0  0  0  0
   17.2848   68.8441   -4.3057 O   0  0  0  0  0  0  0  0  0  0  0  0
   18.9447   70.1118   -3.0608 C   0  0  1  0  0  0  0  0  0  0  0  0
   18.4586   69.6227   -4.4086 C   0  0  2  0  0  0  0  0  0  0  0  0
   19.7942   71.3152   -3.4460 C   0  0  1  0  0  0  0  0  0  0  0  0
   18.2319   70.9267   -5.1543 C   0  0  2  0  0  0  0  0  0  0  0  0
   17.2882   69.8292   -2.0212 H   0  0  0  0  0  0  0  0  0  0  0  0
   17.4813   68.0251   -3.8234 H   0  0  0  0  0  0  0  0  0  0  0  0
   16.2718   70.0010   -6.9648 O   0  0  0  0  0  0  0  0  0  0  0  0
   19.1203   70.4477  -10.5607 O   0  0  0  0  0  0  0  0  0  0  0  0
   18.4345   70.7913   -6.5691 N   0  0  0  0  0  0  0  0  0  0  0  0
   17.6927   70.2234   -8.7539 N   0  0  0  0  0  0  0  0  0  0  0  0
   17.3846   70.3166   -7.3903 C   0  0  0  0  0  0  0  0  0  0  0  0
   19.6607   71.1281   -7.1294 C   0  0  0  0  0  0  0  0  0  0  0  0
   19.9394   71.0340   -8.4311 C   0  0  0  0  0  0  0  0  0  0  0  0
   18.8972   70.5458   -9.3578 C   0  0  0  0  0  0  0  0  0  0  0  0
   16.9781   69.8935   -9.3453 H   0  0  0  0  0  0  0  0  0  0  0  0
   23.0434   72.6223   -1.5110 O   0  0  0  0  0  0  0  0  0  0  0  0
   22.7554   71.7981   -0.1503 P   0  0  2  0  0  0  0  0  0  0  0  0
   24.1653   71.0571    0.1387 O   0  0  0  0  0  0  0  0  0  0  0  0
   21.5754   70.8732   -0.2287 O   0  0  0  0  0  0  0  0  0  0  0  0
   22.6461   72.9271    0.9967 O   0  0  0  0  0  0  0  0  0  0  0  0
   23.9771   73.3810    2.9024 O   0  0  0  0  0  0  0  0  0  0  0  0
   20.1970   74.3321    4.2713 O   0  0  0  0  0  0  0  0  0  0  0  0
   20.6238   71.9488    2.6366 O   0  0  0  0  0  0  0  0  0  0  0  0
   22.0719   76.4429    3.5785 O   0  0  0  0  0  0  0  0  0  0  0  0
   21.2370   74.1997    3.3025 C   0  0  2  0  0  0  0  0  0  0  0  0
   21.6639   72.7348    3.2068 C   0  0  2  0  0  0  0  0  0  0  0  0
   22.4141   75.0690    3.7505 C   0  0  1  0  0  0  0  0  0  0  0  0
   22.9246   72.5869    2.3537 C   0  0  1  0  0  0  0  0  0  0  0  0
   23.6683   74.7727    2.9333 C   0  0  1  0  0  0  0  0  0  0  0  0
   19.4380   73.7882    4.0076 H   0  0  0  0  0  0  0  0  0  0  0  0
   19.8207   72.0381    3.1727 H   0  0  0  0  0  0  0  0  0  0  0  0
   21.2750   76.6445    4.0935 H   0  0  0  0  0  0  0  0  0  0  0  0
   25.6994   74.3986    4.0451 O   0  0  0  0  0  0  0  0  0  0  0  0
   25.0994   76.5673    3.6765 O   0  0  0  0  0  0  0  0  0  0  0  0
   24.8758   75.3700    3.5793 C   0  0  0  0  0  0  0  0  0  0  0  0
  1  4  1  0
  1 24  1  0
  1  2  1  6
  1  3  2  0
 25 28  1  0
 25 24  1  0
 25 26  1  1
 25 27  2  0
  6 11  1  0
  6 12  1  0
 29 36  1  0
 29 37  1  0
  9  7  1  1
  7 13  1  0
 10  8  1  1
  8 14  1  0
  4  5  1  0
 36 28  1  6
 33 30  1  1
 30 38  1  0
 34 31  1  6
 31 39  1  0
 35 32  1  6
 32 40  1  0
 41 43  1  0
 15 19  2  0
 42 43  2  0
 16 22  2  0
 12 17  1  6
 17 19  1  0
 17 20  1  0
 18 19  1  0
 18 22  1  0
 18 23  1  0
  9 10  1  0
  9 11  1  0
 10 12  1  0
 11  5  1  6
 33 34  1  0
 33 35  1  0
 34 36  1  0
 35 37  1  0
 37 43  1  1
 20 21  2  0
 21 22  1  0
M  CHG  3   2  -1  26  -1  41  -1
M  END
>  <COMPND>  (63) 
    udp_gluA.pdb 

>  <AUTHOR>  (63) 
    GENERATED BY OPEN BABEL 3.1.1

>  <MASTER>  (63) 
        0    0    0    0    0    0    0    0   56    0   56    0

>  <minimizedAffinity>  (63) 
-7.09617

>  <CNNscore>  (63) 
0.8865091205

>  <CNNaffinity>  (63) 
4.7194290161

>  <CNN_VS>  (63) 
4.1838169098

>  <CNNaffinity_variance>  (63) 
0.0364175364

$$$$
64
     RDKit          3D

 43 45  0  0  0  0  0  0  0  0999 V2000
   22.8316   72.4467   -4.1863 P   0  0  2  0  0  0  0  0  0  0  0  0
   23.3924   73.1350   -5.5394 O   0  0  0  0  0  0  0  0  0  0  0  0
   23.8274   71.6042   -3.4444 O   0  0  0  0  0  0  0  0  0  0  0  0
   21.4866   71.6859   -4.6661 O   0  0  0  0  0  0  0  0  0  0  0  0
   20.8744   70.7696   -3.7772 C   0  0  0  0  0  0  0  0  0  0  0  0
   18.9276   71.7877   -4.7524 O   0  0  0  0  0  0  0  0  0  0  0  0
   17.3832   70.5600   -2.4944 O   0  0  0  0  0  0  0  0  0  0  0  0
   16.8633   68.8624   -4.5642 O   0  0  0  0  0  0  0  0  0  0  0  0
   18.5039   70.0404   -3.2103 C   0  0  1  0  0  0  0  0  0  0  0  0
   18.0783   69.5819   -4.5891 C   0  0  2  0  0  0  0  0  0  0  0  0
   19.4341   71.2016   -3.5337 C   0  0  1  0  0  0  0  0  0  0  0  0
   17.9629   70.8988   -5.3377 C   0  0  2  0  0  0  0  0  0  0  0  0
   16.7745   69.8363   -2.2766 H   0  0  0  0  0  0  0  0  0  0  0  0
   16.9889   68.0326   -4.0768 H   0  0  0  0  0  0  0  0  0  0  0  0
   16.0890   70.0308   -7.2642 O   0  0  0  0  0  0  0  0  0  0  0  0
   19.1578   70.4021  -10.6830 O   0  0  0  0  0  0  0  0  0  0  0  0
   18.2455   70.7596   -6.7382 N   0  0  0  0  0  0  0  0  0  0  0  0
   17.6195   70.2156   -8.9650 N   0  0  0  0  0  0  0  0  0  0  0  0
   17.2335   70.3157   -7.6218 C   0  0  0  0  0  0  0  0  0  0  0  0
   19.5118   71.0626   -7.2237 C   0  0  0  0  0  0  0  0  0  0  0  0
   19.8648   70.9624   -8.5067 C   0  0  0  0  0  0  0  0  0  0  0  0
   18.8663   70.5049   -9.4953 C   0  0  0  0  0  0  0  0  0  0  0  0
   16.9324   69.9066   -9.5988 H   0  0  0  0  0  0  0  0  0  0  0  0
   22.2583   73.7053   -3.3496 O   0  0  0  0  0  0  0  0  0  0  0  0
   22.8968   74.5446   -2.1242 P   0  0  2  0  0  0  0  0  0  0  0  0
   22.0177   75.9038   -2.1092 O   0  0  0  0  0  0  0  0  0  0  0  0
   24.3773   74.7669   -2.2354 O   0  0  0  0  0  0  0  0  0  0  0  0
   22.4371   73.7478   -0.7990 O   0  0  0  0  0  0  0  0  0  0  0  0
   23.2124   74.1156    1.4084 O   0  0  0  0  0  0  0  0  0  0  0  0
   22.1264   70.1321    1.5517 O   0  0  0  0  0  0  0  0  0  0  0  0
   23.5464   71.1974   -0.7685 O   0  0  0  0  0  0  0  0  0  0  0  0
   20.4317   72.1515    2.7768 O   0  0  0  0  0  0  0  0  0  0  0  0
   22.0475   71.4895    1.1167 C   0  0  2  0  0  0  0  0  0  0  0  0
   23.3673   71.8938    0.4593 C   0  0  2  0  0  0  0  0  0  0  0  0
   21.7737   72.3638    2.3425 C   0  0  1  0  0  0  0  0  0  0  0  0
   23.4053   73.3985    0.1886 C   0  0  1  0  0  0  0  0  0  0  0  0
   21.9542   73.8448    2.0221 C   0  0  1  0  0  0  0  0  0  0  0  0
   22.3000   69.5577    0.7893 H   0  0  0  0  0  0  0  0  0  0  0  0
   23.5231   70.2420   -0.6042 H   0  0  0  0  0  0  0  0  0  0  0  0
   20.3036   71.2126    2.9839 H   0  0  0  0  0  0  0  0  0  0  0  0
   23.2807   75.0590    3.5279 O   0  0  0  0  0  0  0  0  0  0  0  0
   21.0500   74.9250    3.9809 O   0  0  0  0  0  0  0  0  0  0  0  0
   22.0108   74.6557    3.2757 C   0  0  0  0  0  0  0  0  0  0  0  0
  1  4  1  0
  1 24  1  0
  1  2  1  6
  1  3  2  0
 25 28  1  0
 25 24  1  0
 25 26  1  1
 25 27  2  0
  6 11  1  0
  6 12  1  0
 29 36  1  0
 29 37  1  0
  9  7  1  1
  7 13  1  0
 10  8  1  1
  8 14  1  0
  4  5  1  0
 36 28  1  6
 33 30  1  1
 30 38  1  0
 34 31  1  6
 31 39  1  0
 35 32  1  6
 32 40  1  0
 41 43  1  0
 15 19  2  0
 42 43  2  0
 16 22  2  0
 12 17  1  6
 17 19  1  0
 17 20  1  0
 18 19  1  0
 18 22  1  0
 18 23  1  0
  9 10  1  0
  9 11  1  0
 10 12  1  0
 11  5  1  6
 33 34  1  0
 33 35  1  0
 34 36  1  0
 35 37  1  0
 37 43  1  1
 20 21  2  0
 21 22  1  0
M  CHG  3   2  -1  26  -1  41  -1
M  END
>  <COMPND>  (64) 
    udp_gluA.pdb 

>  <AUTHOR>  (64) 
    GENERATED BY OPEN BABEL 3.1.1

>  <MASTER>  (64) 
        0    0    0    0    0    0    0    0   56    0   56    0

>  <minimizedAffinity>  (64) 
-7.38181

>  <CNNscore>  (64) 
0.8493923545

>  <CNNaffinity>  (64) 
4.6749229431

>  <CNN_VS>  (64) 
3.9708437920

>  <CNNaffinity_variance>  (64) 
0.0152372168

$$$$
65
     RDKit          3D

 43 45  0  0  0  0  0  0  0  0999 V2000
   22.3580   71.9481   -3.1064 P   0  0  2  0  0  0  0  0  0  0  0  0
   23.8093   71.3068   -3.4244 O   0  0  0  0  0  0  0  0  0  0  0  0
   21.9237   71.8535   -1.6732 O   0  0  0  0  0  0  0  0  0  0  0  0
   21.3780   71.2455   -4.1854 O   0  0  0  0  0  0  0  0  0  0  0  0
   20.4948   70.2334   -3.7381 C   0  0  0  0  0  0  0  0  0  0  0  0
   18.7643   71.5346   -4.7821 O   0  0  0  0  0  0  0  0  0  0  0  0
   16.9172   70.3965   -2.7122 O   0  0  0  0  0  0  0  0  0  0  0  0
   16.3533   68.8842   -4.9102 O   0  0  0  0  0  0  0  0  0  0  0  0
   18.0176   69.7781   -3.3794 C   0  0  1  0  0  0  0  0  0  0  0  0
   17.6448   69.4467   -4.8089 C   0  0  2  0  0  0  0  0  0  0  0  0
   19.1030   70.8289   -3.5686 C   0  0  1  0  0  0  0  0  0  0  0  0
   17.7461   70.8039   -5.4839 C   0  0  2  0  0  0  0  0  0  0  0  0
   16.2108   69.7444   -2.5801 H   0  0  0  0  0  0  0  0  0  0  0  0
   16.3406   68.0216   -4.4656 H   0  0  0  0  0  0  0  0  0  0  0  0
   15.9449   70.1980   -7.5732 O   0  0  0  0  0  0  0  0  0  0  0  0
   19.2707   70.4372  -10.7554 O   0  0  0  0  0  0  0  0  0  0  0  0
   18.1145   70.7016   -6.8676 N   0  0  0  0  0  0  0  0  0  0  0  0
   17.6033   70.3167   -9.1560 N   0  0  0  0  0  0  0  0  0  0  0  0
   17.1327   70.3921   -7.8384 C   0  0  0  0  0  0  0  0  0  0  0  0
   19.4340   70.9083   -7.2511 C   0  0  0  0  0  0  0  0  0  0  0  0
   19.8674   70.8331   -8.5110 C   0  0  0  0  0  0  0  0  0  0  0  0
   18.9055   70.5135   -9.5862 C   0  0  0  0  0  0  0  0  0  0  0  0
   16.9385   70.1005   -9.8493 H   0  0  0  0  0  0  0  0  0  0  0  0
   22.4966   73.4568   -3.6698 O   0  0  0  0  0  0  0  0  0  0  0  0
   22.8213   74.0100   -5.1538 P   0  0  2  0  0  0  0  0  0  0  0  0
   23.0876   72.6576   -6.0026 O   0  0  0  0  0  0  0  0  0  0  0  0
   23.9439   75.0053   -5.2080 O   0  0  0  0  0  0  0  0  0  0  0  0
   21.4087   74.5635   -5.7024 O   0  0  0  0  0  0  0  0  0  0  0  0
   20.7205   76.8130   -5.9769 O   0  0  0  0  0  0  0  0  0  0  0  0
   17.1269   74.9208   -5.2193 O   0  0  0  0  0  0  0  0  0  0  0  0
   19.5176   74.2256   -3.6910 O   0  0  0  0  0  0  0  0  0  0  0  0
   17.8001   75.7450   -7.9245 O   0  0  0  0  0  0  0  0  0  0  0  0
   18.4595   75.0355   -5.7184 C   0  0  2  0  0  0  0  0  0  0  0  0
   19.4134   75.3442   -4.5643 C   0  0  2  0  0  0  0  0  0  0  0  0
   18.4834   76.1689   -6.7465 C   0  0  1  0  0  0  0  0  0  0  0  0
   20.8063   75.7001   -5.0860 C   0  0  1  0  0  0  0  0  0  0  0  0
   19.9125   76.5502   -7.1220 C   0  0  1  0  0  0  0  0  0  0  0  0
   17.0873   74.2064   -4.5640 H   0  0  0  0  0  0  0  0  0  0  0  0
   18.6374   73.9940   -3.3564 H   0  0  0  0  0  0  0  0  0  0  0  0
   16.8893   75.4992   -7.6993 H   0  0  0  0  0  0  0  0  0  0  0  0
   21.1725   78.0873   -8.3674 O   0  0  0  0  0  0  0  0  0  0  0  0
   18.9843   78.6027   -7.9864 O   0  0  0  0  0  0  0  0  0  0  0  0
   19.9387   77.8509   -7.8567 C   0  0  0  0  0  0  0  0  0  0  0  0
  1  4  1  0
  1 24  1  0
  1  2  1  1
  1  3  2  0
 25 28  1  0
 25 24  1  0
 25 26  1  6
 25 27  2  0
  6 11  1  0
  6 12  1  0
 29 36  1  0
 29 37  1  0
  9  7  1  1
  7 13  1  0
 10  8  1  1
  8 14  1  0
  4  5  1  0
 36 28  1  6
 33 30  1  1
 30 38  1  0
 34 31  1  1
 31 39  1  0
 35 32  1  6
 32 40  1  0
 41 43  1  0
 15 19  2  0
 42 43  2  0
 16 22  2  0
 12 17  1  6
 17 19  1  0
 17 20  1  0
 18 19  1  0
 18 22  1  0
 18 23  1  0
  9 10  1  0
  9 11  1  0
 10 12  1  0
 11  5  1  6
 33 34  1  0
 33 35  1  0
 34 36  1  0
 35 37  1  0
 37 43  1  6
 20 21  2  0
 21 22  1  0
M  CHG  3   2  -1  26  -1  41  -1
M  END
>  <COMPND>  (65) 
    udp_gluA.pdb 

>  <AUTHOR>  (65) 
    GENERATED BY OPEN BABEL 3.1.1

>  <MASTER>  (65) 
        0    0    0    0    0    0    0    0   56    0   56    0

>  <minimizedAffinity>  (65) 
-6.55682

>  <CNNscore>  (65) 
0.8349924088

>  <CNNaffinity>  (65) 
4.5531606674

>  <CNN_VS>  (65) 
3.8018546104

>  <CNNaffinity_variance>  (65) 
0.2104405463

$$$$
66
     RDKit          3D

 43 45  0  0  0  0  0  0  0  0999 V2000
   21.2582   72.3730   -4.6726 P   0  0  2  0  0  0  0  0  0  0  0  0
   20.6491   73.8567   -4.4570 O   0  0  0  0  0  0  0  0  0  0  0  0
   22.2855   72.2618   -5.7608 O   0  0  0  0  0  0  0  0  0  0  0  0
   19.9497   71.4369   -4.8433 O   0  0  0  0  0  0  0  0  0  0  0  0
   19.3120   70.9472   -3.6779 C   0  0  0  0  0  0  0  0  0  0  0  0
   17.5500   71.7688   -5.0914 O   0  0  0  0  0  0  0  0  0  0  0  0
   15.6789   70.1857   -3.3639 O   0  0  0  0  0  0  0  0  0  0  0  0
   15.9566   68.5912   -5.5586 O   0  0  0  0  0  0  0  0  0  0  0  0
   17.0083   69.8723   -3.7796 C   0  0  1  0  0  0  0  0  0  0  0  0
   17.0192   69.4644   -5.2376 C   0  0  2  0  0  0  0  0  0  0  0  0
   17.8100   71.1665   -3.8049 C   0  0  1  0  0  0  0  0  0  0  0  0
   16.9066   70.8060   -5.9413 C   0  0  2  0  0  0  0  0  0  0  0  0
   15.1474   69.3741   -3.3401 H   0  0  0  0  0  0  0  0  0  0  0  0
   16.0741   67.7516   -5.0862 H   0  0  0  0  0  0  0  0  0  0  0  0
   16.5121   72.7794   -7.9229 O   0  0  0  0  0  0  0  0  0  0  0  0
   19.4410   70.7145  -10.8215 O   0  0  0  0  0  0  0  0  0  0  0  0
   17.5534   70.8085   -7.2229 N   0  0  0  0  0  0  0  0  0  0  0  0
   17.9705   71.7485   -9.3651 N   0  0  0  0  0  0  0  0  0  0  0  0
   17.2857   71.8464   -8.1466 C   0  0  0  0  0  0  0  0  0  0  0  0
   18.4423   69.7928   -7.5532 C   0  0  0  0  0  0  0  0  0  0  0  0
   19.0876   69.7131   -8.7186 C   0  0  0  0  0  0  0  0  0  0  0  0
   18.8633   70.7575   -9.7395 C   0  0  0  0  0  0  0  0  0  0  0  0
   17.7987   72.4586  -10.0251 H   0  0  0  0  0  0  0  0  0  0  0  0
   21.7942   71.9831   -3.1983 O   0  0  0  0  0  0  0  0  0  0  0  0
   23.2670   72.0933   -2.5408 P   0  0  2  0  0  0  0  0  0  0  0  0
   23.7688   73.5617   -3.0015 O   0  0  0  0  0  0  0  0  0  0  0  0
   24.1954   70.9757   -2.9191 O   0  0  0  0  0  0  0  0  0  0  0  0
   22.9985   72.2333   -0.9563 O   0  0  0  0  0  0  0  0  0  0  0  0
   24.3595   71.1898    0.6772 O   0  0  0  0  0  0  0  0  0  0  0  0
   20.8550   71.8111    2.7749 O   0  0  0  0  0  0  0  0  0  0  0  0
   20.7792   70.8648    0.0121 O   0  0  0  0  0  0  0  0  0  0  0  0
   23.1611   73.5163    3.2489 O   0  0  0  0  0  0  0  0  0  0  0  0
   21.8591   72.0970    1.8014 C   0  0  2  0  0  0  0  0  0  0  0  0
   21.9553   70.9374    0.8096 C   0  0  2  0  0  0  0  0  0  0  0  0
   23.1896   72.2821    2.5345 C   0  0  1  0  0  0  0  0  0  0  0  0
   23.1690   71.1003   -0.1065 C   0  0  1  0  0  0  0  0  0  0  0  0
   24.3636   72.3095    1.5600 C   0  0  1  0  0  0  0  0  0  0  0  0
   20.0003   71.6894    2.3321 H   0  0  0  0  0  0  0  0  0  0  0  0
   20.0051   70.7617    0.5870 H   0  0  0  0  0  0  0  0  0  0  0  0
   22.4182   73.5119    3.8725 H   0  0  0  0  0  0  0  0  0  0  0  0
   26.1882   70.9280    2.0738 O   0  0  0  0  0  0  0  0  0  0  0  0
   26.1810   73.0210    2.9785 O   0  0  0  0  0  0  0  0  0  0  0  0
   25.6601   72.1587    2.2871 C   0  0  0  0  0  0  0  0  0  0  0  0
  1  4  1  0
  1 24  1  0
  1  2  1  1
  1  3  2  0
 25 28  1  0
 25 24  1  0
 25 26  1  6
 25 27  2  0
  6 11  1  0
  6 12  1  0
 29 36  1  0
 29 37  1  0
  9  7  1  6
  7 13  1  0
 10  8  1  1
  8 14  1  0
  4  5  1  0
 36 28  1  1
 33 30  1  1
 30 38  1  0
 34 31  1  6
 31 39  1  0
 35 32  1  6
 32 40  1  0
 41 43  1  0
 15 19  2  0
 42 43  2  0
 16 22  2  0
 12 17  1  6
 17 19  1  0
 17 20  1  0
 18 19  1  0
 18 22  1  0
 18 23  1  0
  9 10  1  0
  9 11  1  0
 10 12  1  0
 11  5  1  6
 33 34  1  0
 33 35  1  0
 34 36  1  0
 35 37  1  0
 37 43  1  1
 20 21  2  0
 21 22  1  0
M  CHG  3   2  -1  26  -1  41  -1
M  END
>  <COMPND>  (66) 
    udp_gluA.pdb 

>  <AUTHOR>  (66) 
    GENERATED BY OPEN BABEL 3.1.1

>  <MASTER>  (66) 
        0    0    0    0    0    0    0    0   56    0   56    0

>  <minimizedAffinity>  (66) 
-8.06015

>  <CNNscore>  (66) 
0.8174517155

>  <CNNaffinity>  (66) 
4.5780000687

>  <CNN_VS>  (66) 
3.7422940731

>  <CNNaffinity_variance>  (66) 
0.0846994817

$$$$
67
     RDKit          3D

 43 45  0  0  0  0  0  0  0  0999 V2000
   22.2668   72.5515   -3.7407 P   0  0  2  0  0  0  0  0  0  0  0  0
   23.6645   71.9086   -4.2426 O   0  0  0  0  0  0  0  0  0  0  0  0
   22.1212   72.6674   -2.2517 O   0  0  0  0  0  0  0  0  0  0  0  0
   21.1400   71.6645   -4.4899 O   0  0  0  0  0  0  0  0  0  0  0  0
   20.3891   70.7392   -3.7253 C   0  0  0  0  0  0  0  0  0  0  0  0
   18.5876   71.8373   -4.8769 O   0  0  0  0  0  0  0  0  0  0  0  0
   16.7888   70.6906   -2.7696 O   0  0  0  0  0  0  0  0  0  0  0  0
   16.3866   69.0071   -4.8768 O   0  0  0  0  0  0  0  0  0  0  0  0
   17.9464   70.1183   -3.3787 C   0  0  1  0  0  0  0  0  0  0  0  0
   17.6295   69.6721   -4.7903 C   0  0  2  0  0  0  0  0  0  0  0  0
   18.9531   71.2356   -3.6161 C   0  0  1  0  0  0  0  0  0  0  0  0
   17.6422   70.9890   -5.5477 C   0  0  2  0  0  0  0  0  0  0  0  0
   16.1310   69.9956   -2.6082 H   0  0  0  0  0  0  0  0  0  0  0  0
   16.4298   68.1750   -4.3791 H   0  0  0  0  0  0  0  0  0  0  0  0
   15.9065   70.2409   -7.6463 O   0  0  0  0  0  0  0  0  0  0  0  0
   19.3014   70.4102  -10.7592 O   0  0  0  0  0  0  0  0  0  0  0  0
   18.0461   70.8302   -6.9161 N   0  0  0  0  0  0  0  0  0  0  0  0
   17.5992   70.3250   -9.1945 N   0  0  0  0  0  0  0  0  0  0  0  0
   17.0955   70.4512   -7.8932 C   0  0  0  0  0  0  0  0  0  0  0  0
   19.3693   71.0507   -7.2787 C   0  0  0  0  0  0  0  0  0  0  0  0
   19.8345   70.9265   -8.5233 C   0  0  0  0  0  0  0  0  0  0  0  0
   18.9065   70.5329   -9.6037 C   0  0  0  0  0  0  0  0  0  0  0  0
   16.9566   70.0600   -9.8918 H   0  0  0  0  0  0  0  0  0  0  0  0
   22.2088   73.9585   -4.5344 O   0  0  0  0  0  0  0  0  0  0  0  0
   23.2921   75.1520   -4.6594 P   0  0  2  0  0  0  0  0  0  0  0  0
   24.6246   74.5128   -3.9990 O   0  0  0  0  0  0  0  0  0  0  0  0
   22.8551   76.4476   -4.0394 O   0  0  0  0  0  0  0  0  0  0  0  0
   23.6220   75.2419   -6.2360 O   0  0  0  0  0  0  0  0  0  0  0  0
   22.3209   76.1915   -7.9722 O   0  0  0  0  0  0  0  0  0  0  0  0
   24.3203   73.1793   -9.9714 O   0  0  0  0  0  0  0  0  0  0  0  0
   23.2133   72.7086   -7.3091 O   0  0  0  0  0  0  0  0  0  0  0  0
   25.1438   75.9475  -10.3032 O   0  0  0  0  0  0  0  0  0  0  0  0
   24.1459   74.1956   -8.9841 C   0  0  2  0  0  0  0  0  0  0  0  0
   22.9410   73.8552   -8.1066 C   0  0  2  0  0  0  0  0  0  0  0  0
   23.9184   75.5244   -9.7083 C   0  0  1  0  0  0  0  0  0  0  0  0
   22.5836   75.0260   -7.1899 C   0  0  1  0  0  0  0  0  0  0  0  0
   23.4434   76.6091   -8.7459 C   0  0  1  0  0  0  0  0  0  0  0  0
   24.4664   72.3255   -9.5344 H   0  0  0  0  0  0  0  0  0  0  0  0
   23.4411   71.9619   -7.8844 H   0  0  0  0  0  0  0  0  0  0  0  0
   25.4572   75.2657  -10.9179 H   0  0  0  0  0  0  0  0  0  0  0  0
   21.8698   77.4269  -10.2810 O   0  0  0  0  0  0  0  0  0  0  0  0
   23.3543   78.9255   -9.4151 O   0  0  0  0  0  0  0  0  0  0  0  0
   22.9142   77.7884   -9.4953 C   0  0  0  0  0  0  0  0  0  0  0  0
  1  4  1  0
  1 24  1  0
  1  2  1  1
  1  3  2  0
 25 28  1  0
 25 24  1  0
 25 26  1  1
 25 27  2  0
  6 11  1  0
  6 12  1  0
 29 36  1  0
 29 37  1  0
  9  7  1  6
  7 13  1  0
 10  8  1  1
  8 14  1  0
  4  5  1  0
 36 28  1  1
 33 30  1  6
 30 38  1  0
 34 31  1  1
 31 39  1  0
 35 32  1  1
 32 40  1  0
 41 43  1  0
 15 19  2  0
 42 43  2  0
 16 22  2  0
 12 17  1  6
 17 19  1  0
 17 20  1  0
 18 19  1  0
 18 22  1  0
 18 23  1  0
  9 10  1  0
  9 11  1  0
 10 12  1  0
 11  5  1  6
 33 34  1  0
 33 35  1  0
 34 36  1  0
 35 37  1  0
 37 43  1  6
 20 21  2  0
 21 22  1  0
M  CHG  3   2  -1  26  -1  41  -1
M  END
>  <COMPND>  (67) 
    udp_gluA.pdb 

>  <AUTHOR>  (67) 
    GENERATED BY OPEN BABEL 3.1.1

>  <MASTER>  (67) 
        0    0    0    0    0    0    0    0   56    0   56    0

>  <minimizedAffinity>  (67) 
-6.88117

>  <CNNscore>  (67) 
0.8124942183

>  <CNNaffinity>  (67) 
4.7420258522

>  <CNN_VS>  (67) 
3.8528685570

>  <CNNaffinity_variance>  (67) 
0.1435349435

$$$$
68
     RDKit          3D

 43 45  0  0  0  0  0  0  0  0999 V2000
   22.5963   72.9770   -4.0117 P   0  0  2  0  0  0  0  0  0  0  0  0
   24.0163   72.2310   -4.2263 O   0  0  0  0  0  0  0  0  0  0  0  0
   22.3352   73.4520   -2.6125 O   0  0  0  0  0  0  0  0  0  0  0  0
   21.5150   71.9343   -4.6130 O   0  0  0  0  0  0  0  0  0  0  0  0
   21.0129   70.9173   -3.7657 C   0  0  0  0  0  0  0  0  0  0  0  0
   18.9428   71.7440   -4.6653 O   0  0  0  0  0  0  0  0  0  0  0  0
   17.6032   70.3339   -2.3830 O   0  0  0  0  0  0  0  0  0  0  0  0
   17.1942   68.6205   -4.4646 O   0  0  0  0  0  0  0  0  0  0  0  0
   18.7479   69.9416   -3.1407 C   0  0  1  0  0  0  0  0  0  0  0  0
   18.3282   69.4608   -4.5137 C   0  0  2  0  0  0  0  0  0  0  0  0
   19.5444   71.1962   -3.4722 C   0  0  1  0  0  0  0  0  0  0  0  0
   18.0558   70.7691   -5.2363 C   0  0  2  0  0  0  0  0  0  0  0  0
   17.0785   69.5488   -2.1594 H   0  0  0  0  0  0  0  0  0  0  0  0
   17.4189   67.8013   -3.9952 H   0  0  0  0  0  0  0  0  0  0  0  0
   16.0936   70.1433   -7.1688 O   0  0  0  0  0  0  0  0  0  0  0  0
   19.1332   70.4496  -10.6200 O   0  0  0  0  0  0  0  0  0  0  0  0
   18.3070   70.6786   -6.6468 N   0  0  0  0  0  0  0  0  0  0  0  0
   17.6096   70.2954   -8.8857 N   0  0  0  0  0  0  0  0  0  0  0  0
   17.2514   70.3576   -7.5326 C   0  0  0  0  0  0  0  0  0  0  0  0
   19.5859   70.9082   -7.1396 C   0  0  0  0  0  0  0  0  0  0  0  0
   19.9119   70.8454   -8.4321 C   0  0  0  0  0  0  0  0  0  0  0  0
   18.8674   70.5150   -9.4236 C   0  0  0  0  0  0  0  0  0  0  0  0
   16.8919   70.0716   -9.5214 H   0  0  0  0  0  0  0  0  0  0  0  0
   22.6299   74.1482   -5.1252 O   0  0  0  0  0  0  0  0  0  0  0  0
   22.9742   75.7228   -4.9995 P   0  0  2  0  0  0  0  0  0  0  0  0
   24.4977   75.7257   -4.4523 O   0  0  0  0  0  0  0  0  0  0  0  0
   22.0101   76.4979   -4.1488 O   0  0  0  0  0  0  0  0  0  0  0  0
   23.0879   76.2399   -6.5233 O   0  0  0  0  0  0  0  0  0  0  0  0
   24.9321   75.7192   -7.9150 O   0  0  0  0  0  0  0  0  0  0  0  0
   23.4038   79.0810   -9.7673 O   0  0  0  0  0  0  0  0  0  0  0  0
   23.5979   78.9539   -6.8552 O   0  0  0  0  0  0  0  0  0  0  0  0
   22.9509   76.4491  -10.9158 O   0  0  0  0  0  0  0  0  0  0  0  0
   23.3492   77.8709   -9.0119 C   0  0  2  0  0  0  0  0  0  0  0  0
   24.1945   78.0190   -7.7466 C   0  0  2  0  0  0  0  0  0  0  0  0
   23.8957   76.7414   -9.8879 C   0  0  1  0  0  0  0  0  0  0  0  0
   24.3476   76.6762   -7.0307 C   0  0  1  0  0  0  0  0  0  0  0  0
   24.1393   75.4736   -9.0745 C   0  0  1  0  0  0  0  0  0  0  0  0
   23.0614   79.8131   -9.2307 H   0  0  0  0  0  0  0  0  0  0  0  0
   23.4974   79.8082   -7.3030 H   0  0  0  0  0  0  0  0  0  0  0  0
   22.7868   77.2480  -11.4409 H   0  0  0  0  0  0  0  0  0  0  0  0
   26.1486   75.0568  -10.2105 O   0  0  0  0  0  0  0  0  0  0  0  0
   24.6349   73.3542  -10.1155 O   0  0  0  0  0  0  0  0  0  0  0  0
   24.9674   74.4988   -9.8467 C   0  0  0  0  0  0  0  0  0  0  0  0
  1  4  1  0
  1 24  1  0
  1  2  1  1
  1  3  2  0
 25 28  1  0
 25 24  1  0
 25 26  1  1
 25 27  2  0
  6 11  1  0
  6 12  1  0
 29 36  1  0
 29 37  1  0
  9  7  1  1
  7 13  1  0
 10  8  1  1
  8 14  1  0
  4  5  1  0
 36 28  1  6
 33 30  1  6
 30 38  1  0
 34 31  1  1
 31 39  1  0
 35 32  1  6
 32 40  1  0
 41 43  1  0
 15 19  2  0
 42 43  2  0
 16 22  2  0
 12 17  1  6
 17 19  1  0
 17 20  1  0
 18 19  1  0
 18 22  1  0
 18 23  1  0
  9 10  1  0
  9 11  1  0
 10 12  1  0
 11  5  1  6
 33 34  1  0
 33 35  1  0
 34 36  1  0
 35 37  1  0
 37 43  1  6
 20 21  2  0
 21 22  1  0
M  CHG  3   2  -1  26  -1  41  -1
M  END
>  <COMPND>  (68) 
    udp_gluA.pdb 

>  <AUTHOR>  (68) 
    GENERATED BY OPEN BABEL 3.1.1

>  <MASTER>  (68) 
        0    0    0    0    0    0    0    0   56    0   56    0

>  <minimizedAffinity>  (68) 
-6.74686

>  <CNNscore>  (68) 
0.8054354191

>  <CNNaffinity>  (68) 
4.6893191338

>  <CNN_VS>  (68) 
3.7769436836

>  <CNNaffinity_variance>  (68) 
0.1095334664

$$$$
69
     RDKit          3D

 43 45  0  0  0  0  0  0  0  0999 V2000
   21.8607   72.6525   -5.4905 P   0  0  2  0  0  0  0  0  0  0  0  0
   21.2498   74.1240   -5.2068 O   0  0  0  0  0  0  0  0  0  0  0  0
   23.1096   72.6346   -6.3222 O   0  0  0  0  0  0  0  0  0  0  0  0
   20.6078   71.8199   -6.0862 O   0  0  0  0  0  0  0  0  0  0  0  0
   20.1764   72.0992   -7.4055 C   0  0  0  0  0  0  0  0  0  0  0  0
   19.0154   70.0512   -6.9203 O   0  0  0  0  0  0  0  0  0  0  0  0
   18.2435   70.0199   -9.8177 O   0  0  0  0  0  0  0  0  0  0  0  0
   15.9835   70.9514   -8.6090 O   0  0  0  0  0  0  0  0  0  0  0  0
   18.3867   71.1311   -8.9326 C   0  0  1  0  0  0  0  0  0  0  0  0
   17.2202   71.1874   -7.9691 C   0  0  2  0  0  0  0  0  0  0  0  0
   19.5558   70.8420   -8.0010 C   0  0  1  0  0  0  0  0  0  0  0  0
   17.5807   70.0980   -6.9734 C   0  0  2  0  0  0  0  0  0  0  0  0
   17.5023   70.1816  -10.4228 H   0  0  0  0  0  0  0  0  0  0  0  0
   15.7993   71.6722   -9.2322 H   0  0  0  0  0  0  0  0  0  0  0  0
   16.2922   68.1897   -5.3380 O   0  0  0  0  0  0  0  0  0  0  0  0
   15.6745   71.2463   -1.9440 O   0  0  0  0  0  0  0  0  0  0  0  0
   17.0733   70.3682   -5.6580 N   0  0  0  0  0  0  0  0  0  0  0  0
   15.9849   69.7142   -3.6496 N   0  0  0  0  0  0  0  0  0  0  0  0
   16.4423   69.3392   -4.9197 C   0  0  0  0  0  0  0  0  0  0  0  0
   17.2043   71.6392   -5.1116 C   0  0  0  0  0  0  0  0  0  0  0  0
   16.7633   71.9815   -3.8995 C   0  0  0  0  0  0  0  0  0  0  0  0
   16.0914   70.9651   -3.0635 C   0  0  0  0  0  0  0  0  0  0  0  0
   15.5403   69.0152   -3.1176 H   0  0  0  0  0  0  0  0  0  0  0  0
   22.0320   72.0382   -4.0052 O   0  0  0  0  0  0  0  0  0  0  0  0
   23.2536   72.1354   -2.9507 P   0  0  2  0  0  0  0  0  0  0  0  0
   23.8205   73.6344   -3.1786 O   0  0  0  0  0  0  0  0  0  0  0  0
   24.2847   71.0547   -3.1015 O   0  0  0  0  0  0  0  0  0  0  0  0
   22.5422   72.1848   -1.5036 O   0  0  0  0  0  0  0  0  0  0  0  0
   23.8808   71.1372    0.1455 O   0  0  0  0  0  0  0  0  0  0  0  0
   20.4542   72.0174    2.2789 O   0  0  0  0  0  0  0  0  0  0  0  0
   20.2763   70.9701   -0.4425 O   0  0  0  0  0  0  0  0  0  0  0  0
   22.8522   73.6196    2.6438 O   0  0  0  0  0  0  0  0  0  0  0  0
   21.4520   72.2138    1.2770 C   0  0  2  0  0  0  0  0  0  0  0  0
   21.4701   71.0132    0.3305 C   0  0  2  0  0  0  0  0  0  0  0  0
   22.8043   72.3588    1.9786 C   0  0  1  0  0  0  0  0  0  0  0  0
   22.6721   71.0783   -0.6128 C   0  0  1  0  0  0  0  0  0  0  0  0
   23.9587   72.2885    0.9831 C   0  0  1  0  0  0  0  0  0  0  0  0
   19.5859   71.9225    1.8565 H   0  0  0  0  0  0  0  0  0  0  0  0
   19.5094   70.9289    0.1497 H   0  0  0  0  0  0  0  0  0  0  0  0
   22.1225   73.6773    3.2802 H   0  0  0  0  0  0  0  0  0  0  0  0
   25.8043   70.8970    1.3824 O   0  0  0  0  0  0  0  0  0  0  0  0
   25.7718   72.9130    2.4474 O   0  0  0  0  0  0  0  0  0  0  0  0
   25.2601   72.0998    1.6924 C   0  0  0  0  0  0  0  0  0  0  0  0
  1  4  1  0
  1 24  1  0
  1  2  1  1
  1  3  2  0
 25 28  1  0
 25 24  1  0
 25 26  1  6
 25 27  2  0
  6 11  1  0
  6 12  1  0
 29 36  1  0
 29 37  1  0
  9  7  1  6
  7 13  1  0
 10  8  1  6
  8 14  1  0
  4  5  1  0
 36 28  1  1
 33 30  1  1
 30 38  1  0
 34 31  1  6
 31 39  1  0
 35 32  1  6
 32 40  1  0
 41 43  1  0
 15 19  2  0
 42 43  2  0
 16 22  2  0
 12 17  1  1
 17 19  1  0
 17 20  1  0
 18 19  1  0
 18 22  1  0
 18 23  1  0
  9 10  1  0
  9 11  1  0
 10 12  1  0
 11  5  1  1
 33 34  1  0
 33 35  1  0
 34 36  1  0
 35 37  1  0
 37 43  1  1
 20 21  2  0
 21 22  1  0
M  CHG  3   2  -1  26  -1  41  -1
M  END
>  <COMPND>  (69) 
    udp_gluA.pdb 

>  <AUTHOR>  (69) 
    GENERATED BY OPEN BABEL 3.1.1

>  <MASTER>  (69) 
        0    0    0    0    0    0    0    0   56    0   56    0

>  <minimizedAffinity>  (69) 
-8.17905

>  <CNNscore>  (69) 
0.7841979265

>  <CNNaffinity>  (69) 
4.6304488182

>  <CNN_VS>  (69) 
3.6311883926

>  <CNNaffinity_variance>  (69) 
0.1046858877

$$$$
70
     RDKit          3D

 43 45  0  0  0  0  0  0  0  0999 V2000
   18.9387   73.1975   -0.8348 P   0  0  2  0  0  0  0  0  0  0  0  0
   18.5424   74.1778    0.3903 O   0  0  0  0  0  0  0  0  0  0  0  0
   19.7174   73.8481   -1.9404 O   0  0  0  0  0  0  0  0  0  0  0  0
   17.5309   72.5272   -1.2670 O   0  0  0  0  0  0  0  0  0  0  0  0
   17.1941   72.4890   -2.6417 C   0  0  0  0  0  0  0  0  0  0  0  0
   16.1914   71.1007   -4.3283 O   0  0  0  0  0  0  0  0  0  0  0  0
   15.7873   69.0739   -2.1556 O   0  0  0  0  0  0  0  0  0  0  0  0
   17.9887   68.1239   -3.4547 O   0  0  0  0  0  0  0  0  0  0  0  0
   16.8711   69.9819   -2.3542 C   0  0  1  0  0  0  0  0  0  0  0  0
   17.7437   69.5141   -3.4996 C   0  0  2  0  0  0  0  0  0  0  0  0
   16.2996   71.2834   -2.8999 C   0  0  1  0  0  0  0  0  0  0  0  0
   16.9222   69.9243   -4.7098 C   0  0  2  0  0  0  0  0  0  0  0  0
   16.1279   68.2347   -1.8071 H   0  0  0  0  0  0  0  0  0  0  0  0
   18.5149   67.9137   -2.6668 H   0  0  0  0  0  0  0  0  0  0  0  0
   16.0322   69.8173   -7.3881 O   0  0  0  0  0  0  0  0  0  0  0  0
   20.1477   71.1247   -8.9997 O   0  0  0  0  0  0  0  0  0  0  0  0
   17.7402   70.2318   -5.8488 N   0  0  0  0  0  0  0  0  0  0  0  0
   18.0831   70.4676   -8.1882 N   0  0  0  0  0  0  0  0  0  0  0  0
   17.1961   70.1467   -7.1522 C   0  0  0  0  0  0  0  0  0  0  0  0
   19.0641   70.6138   -5.6690 C   0  0  0  0  0  0  0  0  0  0  0  0
   19.8973   70.9167   -6.6664 C   0  0  0  0  0  0  0  0  0  0  0  0
   19.4079   70.8521   -8.0591 C   0  0  0  0  0  0  0  0  0  0  0  0
   17.7276   70.4136   -9.1048 H   0  0  0  0  0  0  0  0  0  0  0  0
   19.7070   71.9834   -0.0942 O   0  0  0  0  0  0  0  0  0  0  0  0
   20.8517   71.9911    1.0474 P   0  0  2  0  0  0  0  0  0  0  0  0
   21.5162   70.5210    0.9148 O   0  0  0  0  0  0  0  0  0  0  0  0
   20.3476   72.3201    2.4228 O   0  0  0  0  0  0  0  0  0  0  0  0
   21.9800   72.9998    0.4889 O   0  0  0  0  0  0  0  0  0  0  0  0
   23.4912   72.0788   -1.0851 O   0  0  0  0  0  0  0  0  0  0  0  0
   25.3063   75.6790   -0.1841 O   0  0  0  0  0  0  0  0  0  0  0  0
   24.1143   74.0518    1.9292 O   0  0  0  0  0  0  0  0  0  0  0  0
   23.8928   75.3475   -2.7026 O   0  0  0  0  0  0  0  0  0  0  0  0
   24.2106   74.7854   -0.3814 C   0  0  2  0  0  0  0  0  0  0  0  0
   24.3252   73.6123    0.5924 C   0  0  2  0  0  0  0  0  0  0  0  0
   24.2632   74.2846   -1.8265 C   0  0  1  0  0  0  0  0  0  0  0  0
   23.3047   72.5231    0.2593 C   0  0  1  0  0  0  0  0  0  0  0  0
   23.3070   73.1158   -2.0462 C   0  0  1  0  0  0  0  0  0  0  0  0
   25.2935   76.0102    0.7278 H   0  0  0  0  0  0  0  0  0  0  0  0
   24.7583   74.7433    2.1472 H   0  0  0  0  0  0  0  0  0  0  0  0
   24.4935   76.0979   -2.5727 H   0  0  0  0  0  0  0  0  0  0  0  0
   22.9004   71.2695   -3.4345 O   0  0  0  0  0  0  0  0  0  0  0  0
   24.3556   72.8480   -4.2027 O   0  0  0  0  0  0  0  0  0  0  0  0
   23.5976   72.4289   -3.3408 C   0  0  0  0  0  0  0  0  0  0  0  0
  1  4  1  0
  1 24  1  0
  1  2  1  1
  1  3  2  0
 25 28  1  0
 25 24  1  0
 25 26  1  1
 25 27  2  0
  6 11  1  0
  6 12  1  0
 29 36  1  0
 29 37  1  0
  9  7  1  6
  7 13  1  0
 10  8  1  1
  8 14  1  0
  4  5  1  0
 36 28  1  6
 33 30  1  1
 30 38  1  0
 34 31  1  1
 31 39  1  0
 35 32  1  6
 32 40  1  0
 41 43  1  0
 15 19  2  0
 42 43  2  0
 16 22  2  0
 12 17  1  6
 17 19  1  0
 17 20  1  0
 18 19  1  0
 18 22  1  0
 18 23  1  0
  9 10  1  0
  9 11  1  0
 10 12  1  0
 11  5  1  6
 33 34  1  0
 33 35  1  0
 34 36  1  0
 35 37  1  0
 37 43  1  6
 20 21  2  0
 21 22  1  0
M  CHG  3   2  -1  26  -1  41  -1
M  END
>  <COMPND>  (70) 
    udp_gluA.pdb 

>  <AUTHOR>  (70) 
    GENERATED BY OPEN BABEL 3.1.1

>  <MASTER>  (70) 
        0    0    0    0    0    0    0    0   56    0   56    0

>  <minimizedAffinity>  (70) 
-6.63734

>  <CNNscore>  (70) 
0.7171998024

>  <CNNaffinity>  (70) 
4.5166382790

>  <CNN_VS>  (70) 
3.2393321991

>  <CNNaffinity_variance>  (70) 
0.0242735371

$$$$
71
     RDKit          3D

 43 45  0  0  0  0  0  0  0  0999 V2000
   21.9572   72.6709   -5.7721 P   0  0  2  0  0  0  0  0  0  0  0  0
   21.4230   74.1387   -5.3491 O   0  0  0  0  0  0  0  0  0  0  0  0
   23.0874   72.6682   -6.7592 O   0  0  0  0  0  0  0  0  0  0  0  0
   20.6185   71.8886   -6.2345 O   0  0  0  0  0  0  0  0  0  0  0  0
   20.0886   72.1567   -7.5198 C   0  0  0  0  0  0  0  0  0  0  0  0
   18.9973   70.0825   -6.9867 O   0  0  0  0  0  0  0  0  0  0  0  0
   18.1662   69.9945   -9.8665 O   0  0  0  0  0  0  0  0  0  0  0  0
   15.9062   70.8758   -8.6208 O   0  0  0  0  0  0  0  0  0  0  0  0
   18.2959   71.1199   -8.9974 C   0  0  1  0  0  0  0  0  0  0  0  0
   17.1487   71.1545   -8.0100 C   0  0  2  0  0  0  0  0  0  0  0  0
   19.4920   70.8753   -8.0876 C   0  0  1  0  0  0  0  0  0  0  0  0
   17.5610   70.0879   -7.0099 C   0  0  2  0  0  0  0  0  0  0  0  0
   17.4082   70.1277  -10.4576 H   0  0  0  0  0  0  0  0  0  0  0  0
   15.6883   71.5835   -9.2481 H   0  0  0  0  0  0  0  0  0  0  0  0
   16.2620   68.1918   -5.3686 O   0  0  0  0  0  0  0  0  0  0  0  0
   15.7334   71.2403   -1.9523 O   0  0  0  0  0  0  0  0  0  0  0  0
   17.0737   70.3593   -5.6871 N   0  0  0  0  0  0  0  0  0  0  0  0
   15.9990   69.7122   -3.6691 N   0  0  0  0  0  0  0  0  0  0  0  0
   16.4353   69.3366   -4.9464 C   0  0  0  0  0  0  0  0  0  0  0  0
   17.2314   71.6252   -5.1361 C   0  0  0  0  0  0  0  0  0  0  0  0
   16.8104   71.9681   -3.9171 C   0  0  0  0  0  0  0  0  0  0  0  0
   16.1325   70.9582   -3.0781 C   0  0  0  0  0  0  0  0  0  0  0  0
   15.5498   69.0176   -3.1352 H   0  0  0  0  0  0  0  0  0  0  0  0
   22.3044   71.9871   -4.3491 O   0  0  0  0  0  0  0  0  0  0  0  0
   23.5705   72.1757   -3.3617 P   0  0  2  0  0  0  0  0  0  0  0  0
   24.5211   73.2056   -4.1717 O   0  0  0  0  0  0  0  0  0  0  0  0
   24.2426   70.8916   -2.9699 O   0  0  0  0  0  0  0  0  0  0  0  0
   22.9990   73.0371   -2.1233 O   0  0  0  0  0  0  0  0  0  0  0  0
   21.1862   72.2682   -0.8074 O   0  0  0  0  0  0  0  0  0  0  0  0
   21.1597   76.3179    0.0095 O   0  0  0  0  0  0  0  0  0  0  0  0
   21.5889   75.3599   -2.7168 O   0  0  0  0  0  0  0  0  0  0  0  0
   22.2017   74.4407    1.9694 O   0  0  0  0  0  0  0  0  0  0  0  0
   21.7469   75.0577   -0.3147 C   0  0  2  0  0  0  0  0  0  0  0  0
   21.1629   74.5446   -1.6313 C   0  0  2  0  0  0  0  0  0  0  0  0
   21.4328   74.0831    0.8225 C   0  0  1  0  0  0  0  0  0  0  0  0
   21.5925   73.1006   -1.8944 C   0  0  1  0  0  0  0  0  0  0  0  0
   21.7735   72.6469    0.4354 C   0  0  1  0  0  0  0  0  0  0  0  0
   21.3461   76.9536   -0.6993 H   0  0  0  0  0  0  0  0  0  0  0  0
   21.3198   76.2776   -2.5563 H   0  0  0  0  0  0  0  0  0  0  0  0
   21.9944   75.3529    2.2261 H   0  0  0  0  0  0  0  0  0  0  0  0
   21.1890   70.4221    0.8938 O   0  0  0  0  0  0  0  0  0  0  0  0
   20.7189   71.9727    2.4981 O   0  0  0  0  0  0  0  0  0  0  0  0
   21.1691   71.6797    1.4006 C   0  0  0  0  0  0  0  0  0  0  0  0
  1  4  1  0
  1 24  1  0
  1  2  1  1
  1  3  2  0
 25 28  1  0
 25 24  1  0
 25 26  1  6
 25 27  2  0
  6 11  1  0
  6 12  1  0
 29 36  1  0
 29 37  1  0
  9  7  1  6
  7 13  1  0
 10  8  1  6
  8 14  1  0
  4  5  1  0
 36 28  1  1
 33 30  1  1
 30 38  1  0
 34 31  1  6
 31 39  1  0
 35 32  1  1
 32 40  1  0
 41 43  1  0
 15 19  2  0
 42 43  2  0
 16 22  2  0
 12 17  1  1
 17 19  1  0
 17 20  1  0
 18 19  1  0
 18 22  1  0
 18 23  1  0
  9 10  1  0
  9 11  1  0
 10 12  1  0
 11  5  1  1
 33 34  1  0
 33 35  1  0
 34 36  1  0
 35 37  1  0
 37 43  1  1
 20 21  2  0
 21 22  1  0
M  CHG  3   2  -1  26  -1  41  -1
M  END
>  <COMPND>  (71) 
    udp_gluA.pdb 

>  <AUTHOR>  (71) 
    GENERATED BY OPEN BABEL 3.1.1

>  <MASTER>  (71) 
        0    0    0    0    0    0    0    0   56    0   56    0

>  <minimizedAffinity>  (71) 
-8.01188

>  <CNNscore>  (71) 
0.7093619704

>  <CNNaffinity>  (71) 
4.4953923225

>  <CNN_VS>  (71) 
3.1888604164

>  <CNNaffinity_variance>  (71) 
0.3860030770

$$$$
72
     RDKit          3D

 43 45  0  0  0  0  0  0  0  0999 V2000
   23.1900   73.4039   -4.5058 P   0  0  2  0  0  0  0  0  0  0  0  0
   24.2341   72.2891   -3.9709 O   0  0  0  0  0  0  0  0  0  0  0  0
   23.8126   74.6983   -4.9401 O   0  0  0  0  0  0  0  0  0  0  0  0
   22.0967   73.5137   -3.3181 O   0  0  0  0  0  0  0  0  0  0  0  0
   22.5326   73.3528   -1.9808 C   0  0  0  0  0  0  0  0  0  0  0  0
   23.2972   71.4090   -0.7913 O   0  0  0  0  0  0  0  0  0  0  0  0
   20.4075   70.6418   -0.5621 O   0  0  0  0  0  0  0  0  0  0  0  0
   20.9431   71.6881    1.8984 O   0  0  0  0  0  0  0  0  0  0  0  0
   21.0044   71.9381   -0.5194 C   0  0  1  0  0  0  0  0  0  0  0  0
   21.7089   72.1474    0.8043 C   0  0  2  0  0  0  0  0  0  0  0  0
   22.1655   71.9534   -1.5042 C   0  0  1  0  0  0  0  0  0  0  0  0
   22.9878   71.3507    0.6102 C   0  0  2  0  0  0  0  0  0  0  0  0
   19.6628   70.6078    0.0591 H   0  0  0  0  0  0  0  0  0  0  0  0
   20.1402   72.2272    1.9800 H   0  0  0  0  0  0  0  0  0  0  0  0
   24.7590   69.8139    2.1843 O   0  0  0  0  0  0  0  0  0  0  0  0
   27.1785   73.5363    3.4225 O   0  0  0  0  0  0  0  0  0  0  0  0
   24.0893   71.8927    1.3545 N   0  0  0  0  0  0  0  0  0  0  0  0
   25.9617   71.6695    2.8003 N   0  0  0  0  0  0  0  0  0  0  0  0
   24.9188   71.0339    2.1137 C   0  0  0  0  0  0  0  0  0  0  0  0
   24.3398   73.2592    1.3265 C   0  0  0  0  0  0  0  0  0  0  0  0
   25.3378   73.8505    1.9861 C   0  0  0  0  0  0  0  0  0  0  0  0
   26.2503   73.0246    2.8038 C   0  0  0  0  0  0  0  0  0  0  0  0
   26.5514   71.0924    3.3375 H   0  0  0  0  0  0  0  0  0  0  0  0
   22.3860   72.6198   -5.6684 O   0  0  0  0  0  0  0  0  0  0  0  0
   21.3579   73.1562   -6.7949 P   0  0  2  0  0  0  0  0  0  0  0  0
   21.9326   72.5043   -8.1606 O   0  0  0  0  0  0  0  0  0  0  0  0
   21.2136   74.6500   -6.8357 O   0  0  0  0  0  0  0  0  0  0  0  0
   19.9851   72.3585   -6.5092 O   0  0  0  0  0  0  0  0  0  0  0  0
   19.5727   70.2468   -5.5194 O   0  0  0  0  0  0  0  0  0  0  0  0
   16.5988   70.4291   -8.3813 O   0  0  0  0  0  0  0  0  0  0  0  0
   19.3084   71.3273   -9.0021 O   0  0  0  0  0  0  0  0  0  0  0  0
   15.9554   70.8579   -5.5789 O   0  0  0  0  0  0  0  0  0  0  0  0
   17.5119   70.9505   -7.4157 C   0  0  2  0  0  0  0  0  0  0  0  0
   18.9438   70.6094   -7.8290 C   0  0  2  0  0  0  0  0  0  0  0  0
   17.1829   70.3159   -6.0626 C   0  0  1  0  0  0  0  0  0  0  0  0
   19.9311   70.9475   -6.7111 C   0  0  1  0  0  0  0  0  0  0  0  0
   18.2770   70.5941   -5.0360 C   0  0  1  0  0  0  0  0  0  0  0  0
   16.7887   70.8183   -9.2494 H   0  0  0  0  0  0  0  0  0  0  0  0
   18.6859   71.1178   -9.7155 H   0  0  0  0  0  0  0  0  0  0  0  0
   15.2506   70.6877   -6.2232 H   0  0  0  0  0  0  0  0  0  0  0  0
   17.4651   68.5716   -4.1690 O   0  0  0  0  0  0  0  0  0  0  0  0
   18.5204   69.9769   -2.7163 O   0  0  0  0  0  0  0  0  0  0  0  0
   18.1182   69.7134   -3.8396 C   0  0  0  0  0  0  0  0  0  0  0  0
  1  4  1  0
  1 24  1  0
  1  2  1  1
  1  3  2  0
 25 28  1  0
 25 24  1  0
 25 26  1  6
 25 27  2  0
  6 11  1  0
  6 12  1  0
 29 36  1  0
 29 37  1  0
  9  7  1  1
  7 13  1  0
 10  8  1  1
  8 14  1  0
  4  5  1  0
 36 28  1  1
 33 30  1  6
 30 38  1  0
 34 31  1  6
 31 39  1  0
 35 32  1  1
 32 40  1  0
 41 43  1  0
 15 19  2  0
 42 43  2  0
 16 22  2  0
 12 17  1  1
 17 19  1  0
 17 20  1  0
 18 19  1  0
 18 22  1  0
 18 23  1  0
  9 10  1  0
  9 11  1  0
 10 12  1  0
 11  5  1  1
 33 34  1  0
 33 35  1  0
 34 36  1  0
 35 37  1  0
 37 43  1  1
 20 21  2  0
 21 22  1  0
M  CHG  3   2  -1  26  -1  41  -1
M  END
>  <COMPND>  (72) 
    udp_gluA.pdb 

>  <AUTHOR>  (72) 
    GENERATED BY OPEN BABEL 3.1.1

>  <MASTER>  (72) 
        0    0    0    0    0    0    0    0   56    0   56    0

>  <minimizedAffinity>  (72) 
-7.62838

>  <CNNscore>  (72) 
0.7003154755

>  <CNNaffinity>  (72) 
4.5140938759

>  <CNN_VS>  (72) 
3.1612896919

>  <CNNaffinity_variance>  (72) 
0.0516020767

$$$$
73
     RDKit          3D

 43 45  0  0  0  0  0  0  0  0999 V2000
   21.9339   72.5086   -5.7689 P   0  0  2  0  0  0  0  0  0  0  0  0
   21.2028   73.8751   -5.3032 O   0  0  0  0  0  0  0  0  0  0  0  0
   23.1347   72.7004   -6.6482 O   0  0  0  0  0  0  0  0  0  0  0  0
   20.7359   71.6223   -6.3991 O   0  0  0  0  0  0  0  0  0  0  0  0
   20.2410   71.9678   -7.6798 C   0  0  0  0  0  0  0  0  0  0  0  0
   19.0378   69.9421   -7.2035 O   0  0  0  0  0  0  0  0  0  0  0  0
   18.0930   70.0545  -10.0472 O   0  0  0  0  0  0  0  0  0  0  0  0
   15.9447   71.0119   -8.6672 O   0  0  0  0  0  0  0  0  0  0  0  0
   18.3291   71.1234   -9.1304 C   0  0  1  0  0  0  0  0  0  0  0  0
   17.2253   71.1799   -8.0957 C   0  0  2  0  0  0  0  0  0  0  0  0
   19.5407   70.7575   -8.2841 C   0  0  1  0  0  0  0  0  0  0  0  0
   17.6052   70.0395   -7.1667 C   0  0  2  0  0  0  0  0  0  0  0  0
   17.3232   70.2655  -10.5990 H   0  0  0  0  0  0  0  0  0  0  0  0
   15.7496   71.7633   -9.2497 H   0  0  0  0  0  0  0  0  0  0  0  0
   16.2376   68.1523   -5.5715 O   0  0  0  0  0  0  0  0  0  0  0  0
   16.0524   71.0442   -1.9873 O   0  0  0  0  0  0  0  0  0  0  0  0
   17.1877   70.2730   -5.8132 N   0  0  0  0  0  0  0  0  0  0  0  0
   16.1457   69.5948   -3.7882 N   0  0  0  0  0  0  0  0  0  0  0  0
   16.5067   69.2586   -5.0996 C   0  0  0  0  0  0  0  0  0  0  0  0
   17.4545   71.4941   -5.2060 C   0  0  0  0  0  0  0  0  0  0  0  0
   17.1043   71.7999   -3.9551 C   0  0  0  0  0  0  0  0  0  0  0  0
   16.3885   70.7956   -3.1412 C   0  0  0  0  0  0  0  0  0  0  0  0
   15.6688   68.9052   -3.2722 H   0  0  0  0  0  0  0  0  0  0  0  0
   22.2381   71.7638   -4.3669 O   0  0  0  0  0  0  0  0  0  0  0  0
   23.3110   72.0903   -3.2025 P   0  0  2  0  0  0  0  0  0  0  0  0
   23.9946   73.4687   -3.7054 O   0  0  0  0  0  0  0  0  0  0  0  0
   24.2845   70.9796   -2.9331 O   0  0  0  0  0  0  0  0  0  0  0  0
   22.4166   72.5198   -1.9305 O   0  0  0  0  0  0  0  0  0  0  0  0
   22.5711   74.4326   -0.5425 O   0  0  0  0  0  0  0  0  0  0  0  0
   21.1933   71.5792    2.1086 O   0  0  0  0  0  0  0  0  0  0  0  0
   23.2793   70.9179    0.1732 O   0  0  0  0  0  0  0  0  0  0  0  0
   19.3803   73.5980    1.0653 O   0  0  0  0  0  0  0  0  0  0  0  0
   21.3405   72.2155    0.8392 C   0  0  2  0  0  0  0  0  0  0  0  0
   22.8177   72.2361    0.4453 C   0  0  2  0  0  0  0  0  0  0  0  0
   20.8021   73.6429    0.9603 C   0  0  1  0  0  0  0  0  0  0  0  0
   23.0421   73.1075   -0.7912 C   0  0  1  0  0  0  0  0  0  0  0  0
   21.1750   74.4842   -0.2569 C   0  0  1  0  0  0  0  0  0  0  0  0
   21.5290   70.6705    2.0558 H   0  0  0  0  0  0  0  0  0  0  0  0
   23.1397   70.3594    0.9536 H   0  0  0  0  0  0  0  0  0  0  0  0
   19.1296   73.0653    1.8361 H   0  0  0  0  0  0  0  0  0  0  0  0
   22.1174   76.6054    0.0807 O   0  0  0  0  0  0  0  0  0  0  0  0
   19.8431   76.4557    0.1432 O   0  0  0  0  0  0  0  0  0  0  0  0
   20.9405   75.9355    0.0094 C   0  0  0  0  0  0  0  0  0  0  0  0
  1  4  1  0
  1 24  1  0
  1  2  1  1
  1  3  2  0
 25 28  1  0
 25 24  1  0
 25 26  1  6
 25 27  2  0
  6 11  1  0
  6 12  1  0
 29 36  1  0
 29 37  1  0
  9  7  1  6
  7 13  1  0
 10  8  1  6
  8 14  1  0
  4  5  1  0
 36 28  1  6
 33 30  1  1
 30 38  1  0
 34 31  1  6
 31 39  1  0
 35 32  1  6
 32 40  1  0
 41 43  1  0
 15 19  2  0
 42 43  2  0
 16 22  2  0
 12 17  1  1
 17 19  1  0
 17 20  1  0
 18 19  1  0
 18 22  1  0
 18 23  1  0
  9 10  1  0
  9 11  1  0
 10 12  1  0
 11  5  1  1
 33 34  1  0
 33 35  1  0
 34 36  1  0
 35 37  1  0
 37 43  1  1
 20 21  2  0
 21 22  1  0
M  CHG  3   2  -1  26  -1  41  -1
M  END
>  <COMPND>  (73) 
    udp_gluA.pdb 

>  <AUTHOR>  (73) 
    GENERATED BY OPEN BABEL 3.1.1

>  <MASTER>  (73) 
        0    0    0    0    0    0    0    0   56    0   56    0

>  <minimizedAffinity>  (73) 
-7.34323

>  <CNNscore>  (73) 
0.6603953242

>  <CNNaffinity>  (73) 
4.5580129623

>  <CNN_VS>  (73) 
3.0100903511

>  <CNNaffinity_variance>  (73) 
0.2946486473

$$$$
74
     RDKit          3D

 43 45  0  0  0  0  0  0  0  0999 V2000
   22.9337   73.1262   -3.7131 P   0  0  2  0  0  0  0  0  0  0  0  0
   23.9065   71.8366   -3.8103 O   0  0  0  0  0  0  0  0  0  0  0  0
   23.6104   74.4480   -3.9292 O   0  0  0  0  0  0  0  0  0  0  0  0
   22.1874   72.9434   -2.2891 O   0  0  0  0  0  0  0  0  0  0  0  0
   22.9657   72.9881   -1.1073 C   0  0  0  0  0  0  0  0  0  0  0  0
   23.9681   71.4171    0.4109 O   0  0  0  0  0  0  0  0  0  0  0  0
   21.1806   70.4660    0.9737 O   0  0  0  0  0  0  0  0  0  0  0  0
   21.7135   72.0553    3.1245 O   0  0  0  0  0  0  0  0  0  0  0  0
   21.6477   71.7889    0.7086 C   0  0  1  0  0  0  0  0  0  0  0  0
   22.3833   72.3363    1.9134 C   0  0  2  0  0  0  0  0  0  0  0  0
   22.7590   71.6957   -0.3280 C   0  0  1  0  0  0  0  0  0  0  0  0
   23.7254   71.6318    1.8103 C   0  0  2  0  0  0  0  0  0  0  0  0
   20.4698   70.4999    1.6335 H   0  0  0  0  0  0  0  0  0  0  0  0
   20.8654   72.5269    3.1418 H   0  0  0  0  0  0  0  0  0  0  0  0
   26.3442   70.6663    2.2417 O   0  0  0  0  0  0  0  0  0  0  0  0
   27.7616   74.7232    3.9079 O   0  0  0  0  0  0  0  0  0  0  0  0
   24.7983   72.4144    2.3556 N   0  0  0  0  0  0  0  0  0  0  0  0
   27.0474   72.6875    3.0721 N   0  0  0  0  0  0  0  0  0  0  0  0
   26.0765   71.8337    2.5321 C   0  0  0  0  0  0  0  0  0  0  0  0
   24.5800   73.7408    2.7074 C   0  0  0  0  0  0  0  0  0  0  0  0
   25.5154   74.5422    3.2209 C   0  0  0  0  0  0  0  0  0  0  0  0
   26.8778   74.0130    3.4380 C   0  0  0  0  0  0  0  0  0  0  0  0
   27.9446   72.3051    3.2061 H   0  0  0  0  0  0  0  0  0  0  0  0
   21.7690   72.7835   -4.7803 O   0  0  0  0  0  0  0  0  0  0  0  0
   20.5537   73.6841   -5.3509 P   0  0  2  0  0  0  0  0  0  0  0  0
   21.2794   74.6381   -6.4388 O   0  0  0  0  0  0  0  0  0  0  0  0
   19.7865   74.4241   -4.2936 O   0  0  0  0  0  0  0  0  0  0  0  0
   19.6666   72.6640   -6.2312 O   0  0  0  0  0  0  0  0  0  0  0  0
   18.9636   70.4814   -5.6387 O   0  0  0  0  0  0  0  0  0  0  0  0
   19.1647   70.2111   -9.7563 O   0  0  0  0  0  0  0  0  0  0  0  0
   21.2490   71.6084   -8.2604 O   0  0  0  0  0  0  0  0  0  0  0  0
   16.5855   70.4238   -8.4322 O   0  0  0  0  0  0  0  0  0  0  0  0
   18.9543   70.8587   -8.5016 C   0  0  2  0  0  0  0  0  0  0  0  0
   20.2376   70.7982   -7.6728 C   0  0  2  0  0  0  0  0  0  0  0  0
   17.8188   70.1309   -7.7783 C   0  0  1  0  0  0  0  0  0  0  0  0
   19.9873   71.2742   -6.2412 C   0  0  1  0  0  0  0  0  0  0  0  0
   17.7146   70.5705   -6.3208 C   0  0  1  0  0  0  0  0  0  0  0  0
   19.8822   70.6565  -10.2339 H   0  0  0  0  0  0  0  0  0  0  0  0
   21.4127   71.3121   -9.1691 H   0  0  0  0  0  0  0  0  0  0  0  0
   16.6386   70.1490   -9.3609 H   0  0  0  0  0  0  0  0  0  0  0  0
   16.5309   70.1655   -4.3368 O   0  0  0  0  0  0  0  0  0  0  0  0
   16.4556   68.5475   -5.9417 O   0  0  0  0  0  0  0  0  0  0  0  0
   16.8421   69.6372   -5.5463 C   0  0  0  0  0  0  0  0  0  0  0  0
  1  4  1  0
  1 24  1  0
  1  2  1  1
  1  3  2  0
 25 28  1  0
 25 24  1  0
 25 26  1  6
 25 27  2  0
  6 11  1  0
  6 12  1  0
 29 36  1  0
 29 37  1  0
  9  7  1  1
  7 13  1  0
 10  8  1  1
  8 14  1  0
  4  5  1  0
 36 28  1  6
 33 30  1  6
 30 38  1  0
 34 31  1  6
 31 39  1  0
 35 32  1  6
 32 40  1  0
 41 43  1  0
 15 19  2  0
 42 43  2  0
 16 22  2  0
 12 17  1  6
 17 19  1  0
 17 20  1  0
 18 19  1  0
 18 22  1  0
 18 23  1  0
  9 10  1  0
  9 11  1  0
 10 12  1  0
 11  5  1  1
 33 34  1  0
 33 35  1  0
 34 36  1  0
 35 37  1  0
 37 43  1  1
 20 21  2  0
 21 22  1  0
M  CHG  3   2  -1  26  -1  41  -1
M  END
>  <COMPND>  (74) 
    udp_gluA.pdb 

>  <AUTHOR>  (74) 
    GENERATED BY OPEN BABEL 3.1.1

>  <MASTER>  (74) 
        0    0    0    0    0    0    0    0   56    0   56    0

>  <minimizedAffinity>  (74) 
-7.44179

>  <CNNscore>  (74) 
0.6555886269

>  <CNNaffinity>  (74) 
4.4041490555

>  <CNN_VS>  (74) 
2.8873100281

>  <CNNaffinity_variance>  (74) 
0.0932484344

$$$$
75
     RDKit          3D

 43 45  0  0  0  0  0  0  0  0999 V2000
   23.2496   73.7371   -4.4535 P   0  0  2  0  0  0  0  0  0  0  0  0
   23.3910   74.4722   -5.8883 O   0  0  0  0  0  0  0  0  0  0  0  0
   24.3198   72.7302   -4.1493 O   0  0  0  0  0  0  0  0  0  0  0  0
   21.7333   73.1725   -4.4539 O   0  0  0  0  0  0  0  0  0  0  0  0
   21.4858   71.8992   -3.8865 C   0  0  0  0  0  0  0  0  0  0  0  0
   19.1791   72.1062   -4.5300 O   0  0  0  0  0  0  0  0  0  0  0  0
   18.5326   70.6537   -1.9876 O   0  0  0  0  0  0  0  0  0  0  0  0
   18.3161   68.6901   -3.8673 O   0  0  0  0  0  0  0  0  0  0  0  0
   19.6366   70.4744   -2.8751 C   0  0  1  0  0  0  0  0  0  0  0  0
   19.1856   69.7698   -4.1370 C   0  0  2  0  0  0  0  0  0  0  0  0
   20.0425   71.8438   -3.4026 C   0  0  1  0  0  0  0  0  0  0  0  0
   18.5039   70.8933   -4.8991 C   0  0  2  0  0  0  0  0  0  0  0  0
   18.2554   69.7921   -1.6377 H   0  0  0  0  0  0  0  0  0  0  0  0
   18.7970   68.0013   -3.3813 H   0  0  0  0  0  0  0  0  0  0  0  0
   16.5109   69.6778   -6.4887 O   0  0  0  0  0  0  0  0  0  0  0  0
   18.9542   70.2956  -10.3477 O   0  0  0  0  0  0  0  0  0  0  0  0
   18.5934   70.7235   -6.3218 N   0  0  0  0  0  0  0  0  0  0  0  0
   17.7301   69.9857   -8.4090 N   0  0  0  0  0  0  0  0  0  0  0  0
   17.5366   70.0996   -7.0261 C   0  0  0  0  0  0  0  0  0  0  0  0
   19.7168   71.1737   -7.0047 C   0  0  0  0  0  0  0  0  0  0  0  0
   19.8869   71.0581   -8.3232 C   0  0  0  0  0  0  0  0  0  0  0  0
   18.8299   70.4173   -9.1328 C   0  0  0  0  0  0  0  0  0  0  0  0
   17.0087   69.5529   -8.9205 H   0  0  0  0  0  0  0  0  0  0  0  0
   23.1760   74.9754   -3.4171 O   0  0  0  0  0  0  0  0  0  0  0  0
   24.1768   75.4275   -2.2307 P   0  0  2  0  0  0  0  0  0  0  0  0
   23.4917   76.7803   -1.6642 O   0  0  0  0  0  0  0  0  0  0  0  0
   25.6062   75.5910   -2.6597 O   0  0  0  0  0  0  0  0  0  0  0  0
   23.9485   74.3364   -1.0645 O   0  0  0  0  0  0  0  0  0  0  0  0
   22.2107   74.0445    0.5179 O   0  0  0  0  0  0  0  0  0  0  0  0
   25.5297   72.8945    2.6926 O   0  0  0  0  0  0  0  0  0  0  0  0
   25.6391   75.2380    0.9516 O   0  0  0  0  0  0  0  0  0  0  0  0
   23.6967   70.8895    1.6579 O   0  0  0  0  0  0  0  0  0  0  0  0
   24.7338   73.0597    1.5190 C   0  0  2  0  0  0  0  0  0  0  0  0
   24.4462   74.5454    1.3007 C   0  0  2  0  0  0  0  0  0  0  0  0
   23.4275   72.2887    1.7212 C   0  0  1  0  0  0  0  0  0  0  0  0
   23.4117   74.7452    0.1922 C   0  0  1  0  0  0  0  0  0  0  0  0
   22.4026   72.6374    0.6457 C   0  0  1  0  0  0  0  0  0  0  0  0
   26.3654   73.3761    2.5872 H   0  0  0  0  0  0  0  0  0  0  0  0
   26.3000   75.1152    1.6506 H   0  0  0  0  0  0  0  0  0  0  0  0
   24.3478   70.6544    2.3373 H   0  0  0  0  0  0  0  0  0  0  0  0
   20.1811   72.2687   -0.0103 O   0  0  0  0  0  0  0  0  0  0  0  0
   20.7445   71.6947    2.1233 O   0  0  0  0  0  0  0  0  0  0  0  0
   21.0442   72.1469    1.0285 C   0  0  0  0  0  0  0  0  0  0  0  0
  1  4  1  0
  1 24  1  0
  1  2  1  6
  1  3  2  0
 25 28  1  0
 25 24  1  0
 25 26  1  1
 25 27  2  0
  6 11  1  0
  6 12  1  0
 29 36  1  0
 29 37  1  0
  9  7  1  1
  7 13  1  0
 10  8  1  1
  8 14  1  0
  4  5  1  0
 36 28  1  6
 33 30  1  1
 30 38  1  0
 34 31  1  6
 31 39  1  0
 35 32  1  6
 32 40  1  0
 41 43  1  0
 15 19  2  0
 42 43  2  0
 16 22  2  0
 12 17  1  6
 17 19  1  0
 17 20  1  0
 18 19  1  0
 18 22  1  0
 18 23  1  0
  9 10  1  0
  9 11  1  0
 10 12  1  0
 11  5  1  6
 33 34  1  0
 33 35  1  0
 34 36  1  0
 35 37  1  0
 37 43  1  1
 20 21  2  0
 21 22  1  0
M  CHG  3   2  -1  26  -1  41  -1
M  END
>  <COMPND>  (75) 
    udp_gluA.pdb 

>  <AUTHOR>  (75) 
    GENERATED BY OPEN BABEL 3.1.1

>  <MASTER>  (75) 
        0    0    0    0    0    0    0    0   56    0   56    0

>  <minimizedAffinity>  (75) 
-6.66883

>  <CNNscore>  (75) 
0.5964915156

>  <CNNaffinity>  (75) 
4.3768658638

>  <CNN_VS>  (75) 
2.6107633114

>  <CNNaffinity_variance>  (75) 
0.1883595735

$$$$
76
     RDKit          3D

 43 45  0  0  0  0  0  0  0  0999 V2000
   23.0444   73.2549   -4.4629 P   0  0  2  0  0  0  0  0  0  0  0  0
   23.1449   74.1051   -5.8362 O   0  0  0  0  0  0  0  0  0  0  0  0
   24.2890   72.5042   -4.0900 O   0  0  0  0  0  0  0  0  0  0  0  0
   21.7137   72.3557   -4.6592 O   0  0  0  0  0  0  0  0  0  0  0  0
   20.8846   72.6103   -5.7783 C   0  0  0  0  0  0  0  0  0  0  0  0
   19.9135   70.4297   -5.4959 O   0  0  0  0  0  0  0  0  0  0  0  0
   19.7414   70.3232   -8.4876 O   0  0  0  0  0  0  0  0  0  0  0  0
   17.1889   70.9559   -7.7661 O   0  0  0  0  0  0  0  0  0  0  0  0
   19.5674   71.4371   -7.6116 C   0  0  1  0  0  0  0  0  0  0  0  0
   18.2352   71.3401   -6.8987 C   0  0  2  0  0  0  0  0  0  0  0  0
   20.5552   71.2897   -6.4623 C   0  0  1  0  0  0  0  0  0  0  0  0
   18.5233   70.2972   -5.8323 C   0  0  2  0  0  0  0  0  0  0  0  0
   19.1207   70.3952   -9.2301 H   0  0  0  0  0  0  0  0  0  0  0  0
   17.0440   71.6526   -8.4261 H   0  0  0  0  0  0  0  0  0  0  0  0
   16.3777   68.6346   -5.0522 O   0  0  0  0  0  0  0  0  0  0  0  0
   15.5717   71.1410   -1.2690 O   0  0  0  0  0  0  0  0  0  0  0  0
   17.7357   70.4923   -4.6480 N   0  0  0  0  0  0  0  0  0  0  0  0
   15.9777   69.8851   -3.1692 N   0  0  0  0  0  0  0  0  0  0  0  0
   16.6798   69.5996   -4.3476 C   0  0  0  0  0  0  0  0  0  0  0  0
   18.0128   71.5563   -3.7983 C   0  0  0  0  0  0  0  0  0  0  0  0
   17.3347   71.8155   -2.6785 C   0  0  0  0  0  0  0  0  0  0  0  0
   16.2155   70.9313   -2.2926 C   0  0  0  0  0  0  0  0  0  0  0  0
   15.2367   69.2786   -2.9401 H   0  0  0  0  0  0  0  0  0  0  0  0
   22.5777   74.3636   -3.3831 O   0  0  0  0  0  0  0  0  0  0  0  0
   23.4155   75.1696   -2.2597 P   0  0  2  0  0  0  0  0  0  0  0  0
   22.3399   76.2377   -1.6917 O   0  0  0  0  0  0  0  0  0  0  0  0
   24.6894   75.7834   -2.7639 O   0  0  0  0  0  0  0  0  0  0  0  0
   23.6120   74.1114   -1.0580 O   0  0  0  0  0  0  0  0  0  0  0  0
   22.1253   73.6138    0.7172 O   0  0  0  0  0  0  0  0  0  0  0  0
   25.7953   72.8556    2.4564 O   0  0  0  0  0  0  0  0  0  0  0  0
   25.4191   75.2000    0.7545 O   0  0  0  0  0  0  0  0  0  0  0  0
   24.0952   70.6519    1.6168 O   0  0  0  0  0  0  0  0  0  0  0  0
   24.8487   72.9292    1.3903 C   0  0  2  0  0  0  0  0  0  0  0  0
   24.3661   74.3714    1.2332 C   0  0  2  0  0  0  0  0  0  0  0  0
   23.6751   72.0098    1.7356 C   0  0  1  0  0  0  0  0  0  0  0  0
   23.1883   74.4513    0.2610 C   0  0  1  0  0  0  0  0  0  0  0  0
   22.4935   72.2386    0.7975 C   0  0  1  0  0  0  0  0  0  0  0  0
   26.5503   73.4320    2.2591 H   0  0  0  0  0  0  0  0  0  0  0  0
   26.1699   75.1539    1.3665 H   0  0  0  0  0  0  0  0  0  0  0  0
   24.8470   70.4931    2.2088 H   0  0  0  0  0  0  0  0  0  0  0  0
   21.0779   70.3686    0.7747 O   0  0  0  0  0  0  0  0  0  0  0  0
   20.5090   72.0869    2.1613 O   0  0  0  0  0  0  0  0  0  0  0  0
   21.2580   71.5912    1.3329 C   0  0  0  0  0  0  0  0  0  0  0  0
  1  4  1  0
  1 24  1  0
  1  2  1  6
  1  3  2  0
 25 28  1  0
 25 24  1  0
 25 26  1  1
 25 27  2  0
  6 11  1  0
  6 12  1  0
 29 36  1  0
 29 37  1  0
  9  7  1  6
  7 13  1  0
 10  8  1  6
  8 14  1  0
  4  5  1  0
 36 28  1  6
 33 30  1  1
 30 38  1  0
 34 31  1  6
 31 39  1  0
 35 32  1  6
 32 40  1  0
 41 43  1  0
 15 19  2  0
 42 43  2  0
 16 22  2  0
 12 17  1  1
 17 19  1  0
 17 20  1  0
 18 19  1  0
 18 22  1  0
 18 23  1  0
  9 10  1  0
  9 11  1  0
 10 12  1  0
 11  5  1  1
 33 34  1  0
 33 35  1  0
 34 36  1  0
 35 37  1  0
 37 43  1  1
 20 21  2  0
 21 22  1  0
M  CHG  3   2  -1  26  -1  41  -1
M  END
>  <COMPND>  (76) 
    udp_gluA.pdb 

>  <AUTHOR>  (76) 
    GENERATED BY OPEN BABEL 3.1.1

>  <MASTER>  (76) 
        0    0    0    0    0    0    0    0   56    0   56    0

>  <minimizedAffinity>  (76) 
-6.54587

>  <CNNscore>  (76) 
0.5621168017

>  <CNNaffinity>  (76) 
4.3367347717

>  <CNN_VS>  (76) 
2.4377515316

>  <CNNaffinity_variance>  (76) 
0.1934242845

$$$$
77
     RDKit          3D

 43 45  0  0  0  0  0  0  0  0999 V2000
   23.3703   71.9762   -2.8316 P   0  0  2  0  0  0  0  0  0  0  0  0
   23.8371   73.4638   -3.2652 O   0  0  0  0  0  0  0  0  0  0  0  0
   24.3693   70.8920   -3.1112 O   0  0  0  0  0  0  0  0  0  0  0  0
   21.9260   71.8004   -3.5395 O   0  0  0  0  0  0  0  0  0  0  0  0
   21.5809   72.6752   -4.5979 C   0  0  0  0  0  0  0  0  0  0  0  0
   20.7651   70.6783   -5.6584 O   0  0  0  0  0  0  0  0  0  0  0  0
   21.2584   72.0824   -8.2616 O   0  0  0  0  0  0  0  0  0  0  0  0
   18.5649   72.3580   -7.9370 O   0  0  0  0  0  0  0  0  0  0  0  0
   20.8015   72.6169   -7.0190 C   0  0  1  0  0  0  0  0  0  0  0  0
   19.3598   72.2230   -6.7775 C   0  0  2  0  0  0  0  0  0  0  0  0
   21.5244   71.8830   -5.8978 C   0  0  1  0  0  0  0  0  0  0  0  0
   19.4985   70.7784   -6.3284 C   0  0  2  0  0  0  0  0  0  0  0  0
   20.8104   72.5358   -8.9933 H   0  0  0  0  0  0  0  0  0  0  0  0
   18.5071   73.2953   -8.1820 H   0  0  0  0  0  0  0  0  0  0  0  0
   16.9714   69.8025   -7.1272 O   0  0  0  0  0  0  0  0  0  0  0  0
   15.5836   69.2963   -2.7612 O   0  0  0  0  0  0  0  0  0  0  0  0
   18.4580   70.3842   -5.4213 N   0  0  0  0  0  0  0  0  0  0  0  0
   16.2822   69.5522   -4.9520 N   0  0  0  0  0  0  0  0  0  0  0  0
   17.2249   69.9075   -5.9257 C   0  0  0  0  0  0  0  0  0  0  0  0
   18.6643   70.4699   -4.0498 C   0  0  0  0  0  0  0  0  0  0  0  0
   17.7562   70.1275   -3.1339 C   0  0  0  0  0  0  0  0  0  0  0  0
   16.4410   69.6205   -3.5773 C   0  0  0  0  0  0  0  0  0  0  0  0
   15.4153   69.2195   -5.2790 H   0  0  0  0  0  0  0  0  0  0  0  0
   22.9904   72.1556   -1.2707 O   0  0  0  0  0  0  0  0  0  0  0  0
   21.7135   72.8490   -0.5620 P   0  0  2  0  0  0  0  0  0  0  0  0
   20.6770   71.6188   -0.3822 O   0  0  0  0  0  0  0  0  0  0  0  0
   21.1552   74.0235   -1.3122 O   0  0  0  0  0  0  0  0  0  0  0  0
   22.2095   73.1858    0.9357 O   0  0  0  0  0  0  0  0  0  0  0  0
   24.0762   72.2474    2.0511 O   0  0  0  0  0  0  0  0  0  0  0  0
   21.6115   73.2304    5.2178 O   0  0  0  0  0  0  0  0  0  0  0  0
   20.5047   72.0213    2.7996 O   0  0  0  0  0  0  0  0  0  0  0  0
   23.9371   74.8676    4.6158 O   0  0  0  0  0  0  0  0  0  0  0  0
   22.1812   73.3733    3.9166 C   0  0  2  0  0  0  0  0  0  0  0  0
   21.8939   72.1186    3.0915 C   0  0  2  0  0  0  0  0  0  0  0  0
   23.6901   73.5691    4.0798 C   0  0  1  0  0  0  0  0  0  0  0  0
   22.6787   72.1353    1.7790 C   0  0  1  0  0  0  0  0  0  0  0  0
   24.4156   73.4472    2.7429 C   0  0  1  0  0  0  0  0  0  0  0  0
   20.6527   73.1047    5.1391 H   0  0  0  0  0  0  0  0  0  0  0  0
   20.0006   72.0105    3.6280 H   0  0  0  0  0  0  0  0  0  0  0  0
   23.4807   74.9583    5.4669 H   0  0  0  0  0  0  0  0  0  0  0  0
   26.3237   72.1034    2.5089 O   0  0  0  0  0  0  0  0  0  0  0  0
   26.6104   74.1631    3.4439 O   0  0  0  0  0  0  0  0  0  0  0  0
   25.8889   73.3100    2.9494 C   0  0  0  0  0  0  0  0  0  0  0  0
  1  4  1  0
  1 24  1  0
  1  2  1  6
  1  3  2  0
 25 28  1  0
 25 24  1  0
 25 26  1  1
 25 27  2  0
  6 11  1  0
  6 12  1  0
 29 36  1  0
 29 37  1  0
  9  7  1  6
  7 13  1  0
 10  8  1  6
  8 14  1  0
  4  5  1  0
 36 28  1  6
 33 30  1  1
 30 38  1  0
 34 31  1  6
 31 39  1  0
 35 32  1  6
 32 40  1  0
 41 43  1  0
 15 19  2  0
 42 43  2  0
 16 22  2  0
 12 17  1  1
 17 19  1  0
 17 20  1  0
 18 19  1  0
 18 22  1  0
 18 23  1  0
  9 10  1  0
  9 11  1  0
 10 12  1  0
 11  5  1  1
 33 34  1  0
 33 35  1  0
 34 36  1  0
 35 37  1  0
 37 43  1  1
 20 21  2  0
 21 22  1  0
M  CHG  3   2  -1  26  -1  41  -1
M  END
>  <COMPND>  (77) 
    udp_gluA.pdb 

>  <AUTHOR>  (77) 
    GENERATED BY OPEN BABEL 3.1.1

>  <MASTER>  (77) 
        0    0    0    0    0    0    0    0   56    0   56    0

>  <minimizedAffinity>  (77) 
-7.40493

>  <CNNscore>  (77) 
0.5383933783

>  <CNNaffinity>  (77) 
4.1861166954

>  <CNN_VS>  (77) 
2.2537775040

>  <CNNaffinity_variance>  (77) 
0.2247808874

$$$$
78
     RDKit          3D

 43 45  0  0  0  0  0  0  0  0999 V2000
   23.1426   73.6557   -4.6172 P   0  0  2  0  0  0  0  0  0  0  0  0
   24.4277   74.6389   -4.5870 O   0  0  0  0  0  0  0  0  0  0  0  0
   23.2483   72.5040   -5.5733 O   0  0  0  0  0  0  0  0  0  0  0  0
   21.8937   74.6560   -4.8575 O   0  0  0  0  0  0  0  0  0  0  0  0
   20.5886   74.1899   -4.5676 C   0  0  0  0  0  0  0  0  0  0  0  0
   19.5183   72.5365   -5.9453 O   0  0  0  0  0  0  0  0  0  0  0  0
   18.1999   74.8324   -7.3531 O   0  0  0  0  0  0  0  0  0  0  0  0
   16.2283   73.9390   -5.6947 O   0  0  0  0  0  0  0  0  0  0  0  0
   18.5254   74.6869   -5.9706 C   0  0  1  0  0  0  0  0  0  0  0  0
   17.5682   73.7204   -5.3057 C   0  0  2  0  0  0  0  0  0  0  0  0
   19.8490   73.9404   -5.8757 C   0  0  1  0  0  0  0  0  0  0  0  0
   18.1011   72.3768   -5.7734 C   0  0  2  0  0  0  0  0  0  0  0  0
   17.3576   75.3067   -7.4392 H   0  0  0  0  0  0  0  0  0  0  0  0
   15.9357   74.8068   -5.3731 H   0  0  0  0  0  0  0  0  0  0  0  0
   17.0159   69.8504   -6.4183 O   0  0  0  0  0  0  0  0  0  0  0  0
   17.2246   68.4388   -2.0357 O   0  0  0  0  0  0  0  0  0  0  0  0
   17.8613   71.3304   -4.8204 N   0  0  0  0  0  0  0  0  0  0  0  0
   17.1199   69.1501   -4.2347 N   0  0  0  0  0  0  0  0  0  0  0  0
   17.3125   70.0984   -5.2481 C   0  0  0  0  0  0  0  0  0  0  0  0
   18.1702   71.5287   -3.4802 C   0  0  0  0  0  0  0  0  0  0  0  0
   17.9812   70.6153   -2.5258 C   0  0  0  0  0  0  0  0  0  0  0  0
   17.4109   69.3013   -2.8886 C   0  0  0  0  0  0  0  0  0  0  0  0
   16.7370   68.2852   -4.5079 H   0  0  0  0  0  0  0  0  0  0  0  0
   22.9745   73.2305   -3.0668 O   0  0  0  0  0  0  0  0  0  0  0  0
   22.8567   71.7755   -2.3720 P   0  0  2  0  0  0  0  0  0  0  0  0
   24.2354   71.0462   -2.8050 O   0  0  0  0  0  0  0  0  0  0  0  0
   21.6141   71.0168   -2.7386 O   0  0  0  0  0  0  0  0  0  0  0  0
   23.0255   72.0610   -0.7932 O   0  0  0  0  0  0  0  0  0  0  0  0
   24.4426   71.0872    0.8355 O   0  0  0  0  0  0  0  0  0  0  0  0
   21.0334   71.8555    3.0388 O   0  0  0  0  0  0  0  0  0  0  0  0
   20.8351   70.7697    0.3340 O   0  0  0  0  0  0  0  0  0  0  0  0
   23.3730   73.5562    3.3298 O   0  0  0  0  0  0  0  0  0  0  0  0
   21.9993   72.0796    2.0118 C   0  0  2  0  0  0  0  0  0  0  0  0
   22.0437   70.8696    1.0783 C   0  0  2  0  0  0  0  0  0  0  0  0
   23.3604   72.2867    2.6798 C   0  0  1  0  0  0  0  0  0  0  0  0
   23.2201   70.9712    0.1064 C   0  0  1  0  0  0  0  0  0  0  0  0
   24.4935   72.2505    1.6583 C   0  0  1  0  0  0  0  0  0  0  0  0
   20.1601   71.7212    2.6379 H   0  0  0  0  0  0  0  0  0  0  0  0
   20.0843   70.7051    0.9444 H   0  0  0  0  0  0  0  0  0  0  0  0
   22.6564   73.5924    3.9825 H   0  0  0  0  0  0  0  0  0  0  0  0
   26.4531   70.9928    1.9404 O   0  0  0  0  0  0  0  0  0  0  0  0
   26.2730   72.9215    3.1431 O   0  0  0  0  0  0  0  0  0  0  0  0
   25.8174   72.1223    2.3390 C   0  0  0  0  0  0  0  0  0  0  0  0
  1  4  1  0
  1 24  1  0
  1  2  1  1
  1  3  2  0
 25 28  1  0
 25 24  1  0
 25 26  1  6
 25 27  2  0
  6 11  1  0
  6 12  1  0
 29 36  1  0
 29 37  1  0
  9  7  1  6
  7 13  1  0
 10  8  1  6
  8 14  1  0
  4  5  1  0
 36 28  1  6
 33 30  1  1
 30 38  1  0
 34 31  1  6
 31 39  1  0
 35 32  1  6
 32 40  1  0
 41 43  1  0
 15 19  2  0
 42 43  2  0
 16 22  2  0
 12 17  1  1
 17 19  1  0
 17 20  1  0
 18 19  1  0
 18 22  1  0
 18 23  1  0
  9 10  1  0
  9 11  1  0
 10 12  1  0
 11  5  1  1
 33 34  1  0
 33 35  1  0
 34 36  1  0
 35 37  1  0
 37 43  1  1
 20 21  2  0
 21 22  1  0
M  CHG  3   2  -1  26  -1  41  -1
M  END
>  <COMPND>  (78) 
    udp_gluA.pdb 

>  <AUTHOR>  (78) 
    GENERATED BY OPEN BABEL 3.1.1

>  <MASTER>  (78) 
        0    0    0    0    0    0    0    0   56    0   56    0

>  <minimizedAffinity>  (78) 
-7.24025

>  <CNNscore>  (78) 
0.4787128270

>  <CNNaffinity>  (78) 
4.1373047829

>  <CNN_VS>  (78) 
1.9805809259

>  <CNNaffinity_variance>  (78) 
0.1658367962

$$$$
79
     RDKit          3D

 43 45  0  0  0  0  0  0  0  0999 V2000
   22.7051   73.6756   -4.5092 P   0  0  2  0  0  0  0  0  0  0  0  0
   23.7139   72.4369   -4.7676 O   0  0  0  0  0  0  0  0  0  0  0  0
   23.1238   74.9745   -5.1332 O   0  0  0  0  0  0  0  0  0  0  0  0
   22.5187   73.6961   -2.9021 O   0  0  0  0  0  0  0  0  0  0  0  0
   23.3075   72.8194   -2.1187 C   0  0  0  0  0  0  0  0  0  0  0  0
   21.6436   73.5690   -0.5543 O   0  0  0  0  0  0  0  0  0  0  0  0
   23.2211   72.1105    1.5376 O   0  0  0  0  0  0  0  0  0  0  0  0
   21.1751   70.3831    1.0219 O   0  0  0  0  0  0  0  0  0  0  0  0
   22.9898   71.7607    0.1728 C   0  0  1  0  0  0  0  0  0  0  0  0
   21.5708   71.2647   -0.0080 C   0  0  2  0  0  0  0  0  0  0  0  0
   22.9856   73.0439   -0.6468 C   0  0  1  0  0  0  0  0  0  0  0  0
   20.7803   72.5620   -0.0031 C   0  0  2  0  0  0  0  0  0  0  0  0
   23.2281   71.3066    2.0810 H   0  0  0  0  0  0  0  0  0  0  0  0
   21.7072   69.5727    0.9760 H   0  0  0  0  0  0  0  0  0  0  0  0
   20.4508   70.8254   -2.2059 O   0  0  0  0  0  0  0  0  0  0  0  0
   16.1671   72.3358   -2.9890 O   0  0  0  0  0  0  0  0  0  0  0  0
   19.5891   72.4809   -0.8003 N   0  0  0  0  0  0  0  0  0  0  0  0
   18.3179   71.5801   -2.5944 N   0  0  0  0  0  0  0  0  0  0  0  0
   19.5264   71.5749   -1.8854 C   0  0  0  0  0  0  0  0  0  0  0  0
   18.4996   73.2909   -0.5039 C   0  0  0  0  0  0  0  0  0  0  0  0
   17.3544   73.2844   -1.1888 C   0  0  0  0  0  0  0  0  0  0  0  0
   17.2071   72.3674   -2.3380 C   0  0  0  0  0  0  0  0  0  0  0  0
   18.2513   70.9591   -3.3555 H   0  0  0  0  0  0  0  0  0  0  0  0
   21.2867   73.1036   -5.0323 O   0  0  0  0  0  0  0  0  0  0  0  0
   19.8311   73.8007   -5.1275 P   0  0  2  0  0  0  0  0  0  0  0  0
   19.9738   74.7816   -6.4073 O   0  0  0  0  0  0  0  0  0  0  0  0
   19.3942   74.4888   -3.8667 O   0  0  0  0  0  0  0  0  0  0  0  0
   18.8455   72.6241   -5.6241 O   0  0  0  0  0  0  0  0  0  0  0  0
   18.6060   70.3053   -5.2061 O   0  0  0  0  0  0  0  0  0  0  0  0
   18.0771   70.4805   -9.2997 O   0  0  0  0  0  0  0  0  0  0  0  0
   20.1653   72.0628   -8.0072 O   0  0  0  0  0  0  0  0  0  0  0  0
   15.7872   70.1129   -7.5469 O   0  0  0  0  0  0  0  0  0  0  0  0
   18.0073   70.9552   -7.9551 C   0  0  2  0  0  0  0  0  0  0  0  0
   19.4163   71.0361   -7.3672 C   0  0  2  0  0  0  0  0  0  0  0  0
   17.1506   69.9746   -7.1512 C   0  0  1  0  0  0  0  0  0  0  0  0
   19.3669   71.3184   -5.8650 C   0  0  1  0  0  0  0  0  0  0  0  0
   17.2534   70.2439   -5.6527 C   0  0  1  0  0  0  0  0  0  0  0  0
   18.6169   71.0880   -9.8297 H   0  0  0  0  0  0  0  0  0  0  0  0
   20.2005   71.8902   -8.9608 H   0  0  0  0  0  0  0  0  0  0  0  0
   15.7081   69.9442   -8.4988 H   0  0  0  0  0  0  0  0  0  0  0  0
   16.2123   68.1426   -5.6979 O   0  0  0  0  0  0  0  0  0  0  0  0
   16.6686   69.0334   -3.6492 O   0  0  0  0  0  0  0  0  0  0  0  0
   16.6927   69.1022   -4.8689 C   0  0  0  0  0  0  0  0  0  0  0  0
  1  4  1  0
  1 24  1  0
  1  2  1  1
  1  3  2  0
 25 28  1  0
 25 24  1  0
 25 26  1  6
 25 27  2  0
  6 11  1  0
  6 12  1  0
 29 36  1  0
 29 37  1  0
  9  7  1  1
  7 13  1  0
 10  8  1  1
  8 14  1  0
  4  5  1  0
 36 28  1  6
 33 30  1  6
 30 38  1  0
 34 31  1  6
 31 39  1  0
 35 32  1  6
 32 40  1  0
 41 43  1  0
 15 19  2  0
 42 43  2  0
 16 22  2  0
 12 17  1  6
 17 19  1  0
 17 20  1  0
 18 19  1  0
 18 22  1  0
 18 23  1  0
  9 10  1  0
  9 11  1  0
 10 12  1  0
 11  5  1  6
 33 34  1  0
 33 35  1  0
 34 36  1  0
 35 37  1  0
 37 43  1  1
 20 21  2  0
 21 22  1  0
M  CHG  3   2  -1  26  -1  41  -1
M  END
>  <COMPND>  (79) 
    udp_gluA.pdb 

>  <AUTHOR>  (79) 
    GENERATED BY OPEN BABEL 3.1.1

>  <MASTER>  (79) 
        0    0    0    0    0    0    0    0   56    0   56    0

>  <minimizedAffinity>  (79) 
-6.95097

>  <CNNscore>  (79) 
0.4659291208

>  <CNNaffinity>  (79) 
3.9712414742

>  <CNN_VS>  (79) 
1.8503170013

>  <CNNaffinity_variance>  (79) 
0.7667368054

$$$$
80
     RDKit          3D

 43 45  0  0  0  0  0  0  0  0999 V2000
   21.9045   72.7248   -4.9556 P   0  0  2  0  0  0  0  0  0  0  0  0
   21.8256   74.1576   -4.2075 O   0  0  0  0  0  0  0  0  0  0  0  0
   23.1807   72.4695   -5.7027 O   0  0  0  0  0  0  0  0  0  0  0  0
   20.5504   72.6730   -5.8398 O   0  0  0  0  0  0  0  0  0  0  0  0
   20.6570   72.3961   -7.2241 C   0  0  0  0  0  0  0  0  0  0  0  0
   19.5679   70.4635   -6.2985 O   0  0  0  0  0  0  0  0  0  0  0  0
   19.3861   69.4480   -9.1140 O   0  0  0  0  0  0  0  0  0  0  0  0
   16.8732   70.4062   -8.6627 O   0  0  0  0  0  0  0  0  0  0  0  0
   19.2747   70.7855   -8.6268 C   0  0  1  0  0  0  0  0  0  0  0  0
   17.9402   70.9836   -7.9397 C   0  0  2  0  0  0  0  0  0  0  0  0
   20.2545   70.9482   -7.4728 C   0  0  1  0  0  0  0  0  0  0  0  0
   18.1721   70.3071   -6.5994 C   0  0  2  0  0  0  0  0  0  0  0  0
   18.7692   69.3200   -9.8522 H   0  0  0  0  0  0  0  0  0  0  0  0
   16.7658   70.8717   -9.5075 H   0  0  0  0  0  0  0  0  0  0  0  0
   17.0968   68.8777   -4.4137 O   0  0  0  0  0  0  0  0  0  0  0  0
   15.2183   72.6828   -2.6146 O   0  0  0  0  0  0  0  0  0  0  0  0
   17.3981   70.8994   -5.5454 N   0  0  0  0  0  0  0  0  0  0  0  0
   16.1614   70.7740   -3.5203 N   0  0  0  0  0  0  0  0  0  0  0  0
   16.9040   70.0924   -4.4934 C   0  0  0  0  0  0  0  0  0  0  0  0
   17.1369   72.2641   -5.5594 C   0  0  0  0  0  0  0  0  0  0  0  0
   16.4276   72.8997   -4.6247 C   0  0  0  0  0  0  0  0  0  0  0  0
   15.8747   72.1292   -3.4915 C   0  0  0  0  0  0  0  0  0  0  0  0
   15.8052   70.2329   -2.7789 H   0  0  0  0  0  0  0  0  0  0  0  0
   21.6006   71.6759   -3.7638 O   0  0  0  0  0  0  0  0  0  0  0  0
   20.5749   71.7544   -2.5167 P   0  0  2  0  0  0  0  0  0  0  0  0
   20.1216   70.2138   -2.3131 O   0  0  0  0  0  0  0  0  0  0  0  0
   19.4365   72.7129   -2.7151 O   0  0  0  0  0  0  0  0  0  0  0  0
   21.5068   72.0768   -1.2400 O   0  0  0  0  0  0  0  0  0  0  0  0
   22.4012   70.7866    0.5334 O   0  0  0  0  0  0  0  0  0  0  0  0
   21.3410   74.2723    2.4812 O   0  0  0  0  0  0  0  0  0  0  0  0
   19.5706   73.0999    0.4749 O   0  0  0  0  0  0  0  0  0  0  0  0
   24.1326   73.7278    1.8801 O   0  0  0  0  0  0  0  0  0  0  0  0
   21.7885   73.4776    1.3830 C   0  0  2  0  0  0  0  0  0  0  0  0
   20.7134   72.4522    1.0218 C   0  0  2  0  0  0  0  0  0  0  0  0
   23.0781   72.7703    1.8054 C   0  0  1  0  0  0  0  0  0  0  0  0
   21.2438   71.4376    0.0078 C   0  0  1  0  0  0  0  0  0  0  0  0
   23.4727   71.6871    0.8056 C   0  0  1  0  0  0  0  0  0  0  0  0
   20.5223   74.7314    2.2360 H   0  0  0  0  0  0  0  0  0  0  0  0
   19.2290   73.7453    1.1129 H   0  0  0  0  0  0  0  0  0  0  0  0
   23.8940   74.4230    2.5131 H   0  0  0  0  0  0  0  0  0  0  0  0
   23.9883   69.6089    1.7630 O   0  0  0  0  0  0  0  0  0  0  0  0
   25.7066   71.0823    1.4877 O   0  0  0  0  0  0  0  0  0  0  0  0
   24.5242   70.7938    1.3788 C   0  0  0  0  0  0  0  0  0  0  0  0
  1  4  1  0
  1 24  1  0
  1  2  1  1
  1  3  2  0
 25 28  1  0
 25 24  1  0
 25 26  1  1
 25 27  2  0
  6 11  1  0
  6 12  1  0
 29 36  1  0
 29 37  1  0
  9  7  1  1
  7 13  1  0
 10  8  1  6
  8 14  1  0
  4  5  1  0
 36 28  1  6
 33 30  1  1
 30 38  1  0
 34 31  1  6
 31 39  1  0
 35 32  1  6
 32 40  1  0
 41 43  1  0
 15 19  2  0
 42 43  2  0
 16 22  2  0
 12 17  1  1
 17 19  1  0
 17 20  1  0
 18 19  1  0
 18 22  1  0
 18 23  1  0
  9 10  1  0
  9 11  1  0
 10 12  1  0
 11  5  1  1
 33 34  1  0
 33 35  1  0
 34 36  1  0
 35 37  1  0
 37 43  1  1
 20 21  2  0
 21 22  1  0
M  CHG  3   2  -1  26  -1  41  -1
M  END
>  <COMPND>  (80) 
    udp_gluA.pdb 

>  <AUTHOR>  (80) 
    GENERATED BY OPEN BABEL 3.1.1

>  <MASTER>  (80) 
        0    0    0    0    0    0    0    0   56    0   56    0

>  <minimizedAffinity>  (80) 
-6.60184

>  <CNNscore>  (80) 
0.4640222490

>  <CNNaffinity>  (80) 
4.1881217957

>  <CNN_VS>  (80) 
1.9433816671

>  <CNNaffinity_variance>  (80) 
0.1772515029

$$$$
81
     RDKit          3D

 43 45  0  0  0  0  0  0  0  0999 V2000
   22.9839   71.7408   -2.6978 P   0  0  2  0  0  0  0  0  0  0  0  0
   23.1998   73.3017   -2.3295 O   0  0  0  0  0  0  0  0  0  0  0  0
   24.2068   71.0344   -3.2051 O   0  0  0  0  0  0  0  0  0  0  0  0
   21.7121   71.7499   -3.6980 O   0  0  0  0  0  0  0  0  0  0  0  0
   20.8798   70.6055   -3.7439 C   0  0  0  0  0  0  0  0  0  0  0  0
   18.9333   71.6538   -4.6872 O   0  0  0  0  0  0  0  0  0  0  0  0
   17.3879   70.3545   -2.4702 O   0  0  0  0  0  0  0  0  0  0  0  0
   16.8694   68.7237   -4.5933 O   0  0  0  0  0  0  0  0  0  0  0  0
   18.5091   69.8582   -3.2017 C   0  0  1  0  0  0  0  0  0  0  0  0
   18.0843   69.4438   -4.5946 C   0  0  2  0  0  0  0  0  0  0  0  0
   19.4392   71.0293   -3.4875 C   0  0  1  0  0  0  0  0  0  0  0  0
   17.9690   70.7839   -5.3009 C   0  0  2  0  0  0  0  0  0  0  0  0
   16.7792   69.6242   -2.2759 H   0  0  0  0  0  0  0  0  0  0  0  0
   16.9949   67.8788   -4.1325 H   0  0  0  0  0  0  0  0  0  0  0  0
   16.0818   70.0277   -7.2614 O   0  0  0  0  0  0  0  0  0  0  0  0
   19.1675   70.4552  -10.6585 O   0  0  0  0  0  0  0  0  0  0  0  0
   18.2524   70.6893   -6.7051 N   0  0  0  0  0  0  0  0  0  0  0  0
   17.6207   70.2403   -8.9513 N   0  0  0  0  0  0  0  0  0  0  0  0
   17.2333   70.3001   -7.6062 C   0  0  0  0  0  0  0  0  0  0  0  0
   19.5263   70.9818   -7.1768 C   0  0  0  0  0  0  0  0  0  0  0  0
   19.8805   70.9205   -8.4619 C   0  0  0  0  0  0  0  0  0  0  0  0
   18.8751   70.5212   -9.4683 C   0  0  0  0  0  0  0  0  0  0  0  0
   16.9288   69.9697   -9.5973 H   0  0  0  0  0  0  0  0  0  0  0  0
   22.3693   71.1279   -1.3342 O   0  0  0  0  0  0  0  0  0  0  0  0
   21.4396   71.7979   -0.1938 P   0  0  2  0  0  0  0  0  0  0  0  0
   20.7413   70.5196    0.5124 O   0  0  0  0  0  0  0  0  0  0  0  0
   20.4728   72.8232   -0.7114 O   0  0  0  0  0  0  0  0  0  0  0  0
   22.4793   72.3539    0.9073 O   0  0  0  0  0  0  0  0  0  0  0  0
   24.2505   71.4350    2.1831 O   0  0  0  0  0  0  0  0  0  0  0  0
   22.3555   73.8217    4.9725 O   0  0  0  0  0  0  0  0  0  0  0  0
   20.7972   72.1904    3.1164 O   0  0  0  0  0  0  0  0  0  0  0  0
   24.8640   74.6806    3.7806 O   0  0  0  0  0  0  0  0  0  0  0  0
   22.8009   73.4411    3.6707 C   0  0  2  0  0  0  0  0  0  0  0  0
   22.2038   72.0826    3.3024 C   0  0  2  0  0  0  0  0  0  0  0  0
   24.3289   73.3610    3.6983 C   0  0  1  0  0  0  0  0  0  0  0  0
   22.8352   71.5367    2.0210 C   0  0  1  0  0  0  0  0  0  0  0  0
   24.8744   72.6910    2.4405 C   0  0  1  0  0  0  0  0  0  0  0  0
   21.3870   73.8790    4.9791 H   0  0  0  0  0  0  0  0  0  0  0  0
   20.3901   72.5365    3.9256 H   0  0  0  0  0  0  0  0  0  0  0  0
   24.5244   75.1182    4.5769 H   0  0  0  0  0  0  0  0  0  0  0  0
   26.5194   71.0279    2.2684 O   0  0  0  0  0  0  0  0  0  0  0  0
   27.1854   73.0761    3.0170 O   0  0  0  0  0  0  0  0  0  0  0  0
   26.3114   72.3218    2.6169 C   0  0  0  0  0  0  0  0  0  0  0  0
  1  4  1  0
  1 24  1  0
  1  2  1  1
  1  3  2  0
 25 28  1  0
 25 24  1  0
 25 26  1  1
 25 27  2  0
  6 11  1  0
  6 12  1  0
 29 36  1  0
 29 37  1  0
  9  7  1  1
  7 13  1  0
 10  8  1  1
  8 14  1  0
  4  5  1  0
 36 28  1  6
 33 30  1  1
 30 38  1  0
 34 31  1  6
 31 39  1  0
 35 32  1  6
 32 40  1  0
 41 43  1  0
 15 19  2  0
 42 43  2  0
 16 22  2  0
 12 17  1  6
 17 19  1  0
 17 20  1  0
 18 19  1  0
 18 22  1  0
 18 23  1  0
  9 10  1  0
  9 11  1  0
 10 12  1  0
 11  5  1  6
 33 34  1  0
 33 35  1  0
 34 36  1  0
 35 37  1  0
 37 43  1  1
 20 21  2  0
 21 22  1  0
M  CHG  3   2  -1  26  -1  41  -1
M  END
>  <COMPND>  (81) 
    udp_gluA.pdb 

>  <AUTHOR>  (81) 
    GENERATED BY OPEN BABEL 3.1.1

>  <MASTER>  (81) 
        0    0    0    0    0    0    0    0   56    0   56    0

>  <minimizedAffinity>  (81) 
-8.22849

>  <CNNscore>  (81) 
0.9379069209

>  <CNNaffinity>  (81) 
4.8148260117

>  <CNN_VS>  (81) 
4.5158586502

>  <CNNaffinity_variance>  (81) 
0.0286587626

$$$$
82
     RDKit          3D

 43 45  0  0  0  0  0  0  0  0999 V2000
   21.0767   73.7897   -4.2158 P   0  0  2  0  0  0  0  0  0  0  0  0
   19.9936   74.9492   -3.8973 O   0  0  0  0  0  0  0  0  0  0  0  0
   21.1730   73.3920   -5.6595 O   0  0  0  0  0  0  0  0  0  0  0  0
   20.6912   72.6041   -3.1845 O   0  0  0  0  0  0  0  0  0  0  0  0
   20.1205   71.4164   -3.7025 C   0  0  0  0  0  0  0  0  0  0  0  0
   18.1271   71.9553   -4.9328 O   0  0  0  0  0  0  0  0  0  0  0  0
   16.6318   70.4754   -2.7962 O   0  0  0  0  0  0  0  0  0  0  0  0
   16.7359   68.6528   -4.8219 O   0  0  0  0  0  0  0  0  0  0  0  0
   17.9140   70.1974   -3.3595 C   0  0  1  0  0  0  0  0  0  0  0  0
   17.7612   69.6215   -4.7513 C   0  0  2  0  0  0  0  0  0  0  0  0
   18.6026   71.5264   -3.6385 C   0  0  1  0  0  0  0  0  0  0  0  0
   17.4522   70.8610   -5.5735 C   0  0  2  0  0  0  0  0  0  0  0  0
   16.1727   69.6412   -2.6093 H   0  0  0  0  0  0  0  0  0  0  0  0
   16.9801   67.8837   -4.2825 H   0  0  0  0  0  0  0  0  0  0  0  0
   15.8087   70.2330   -7.7828 O   0  0  0  0  0  0  0  0  0  0  0  0
   19.3536   70.4687  -10.7192 O   0  0  0  0  0  0  0  0  0  0  0  0
   17.9196   70.7518   -6.9264 N   0  0  0  0  0  0  0  0  0  0  0  0
   17.5760   70.3500   -9.2430 N   0  0  0  0  0  0  0  0  0  0  0  0
   17.0116   70.4314   -7.9632 C   0  0  0  0  0  0  0  0  0  0  0  0
   19.2624   70.9627   -7.2154 C   0  0  0  0  0  0  0  0  0  0  0  0
   19.7855   70.8817   -8.4404 C   0  0  0  0  0  0  0  0  0  0  0  0
   18.9049   70.5506   -9.5798 C   0  0  0  0  0  0  0  0  0  0  0  0
   16.9638   70.1262   -9.9809 H   0  0  0  0  0  0  0  0  0  0  0  0
   22.4421   74.3866   -3.5893 O   0  0  0  0  0  0  0  0  0  0  0  0
   23.8933   73.7092   -3.3680 P   0  0  2  0  0  0  0  0  0  0  0  0
   24.8990   74.9775   -3.3799 O   0  0  0  0  0  0  0  0  0  0  0  0
   24.2331   72.6412   -4.3669 O   0  0  0  0  0  0  0  0  0  0  0  0
   23.8831   73.2119   -1.8334 O   0  0  0  0  0  0  0  0  0  0  0  0
   22.0715   73.0785   -0.3138 O   0  0  0  0  0  0  0  0  0  0  0  0
   25.2401   73.8529    2.2215 O   0  0  0  0  0  0  0  0  0  0  0  0
   25.0027   75.2635   -0.3257 O   0  0  0  0  0  0  0  0  0  0  0  0
   24.1229   71.1741    2.0583 O   0  0  0  0  0  0  0  0  0  0  0  0
   24.5975   73.3172    1.0648 C   0  0  2  0  0  0  0  0  0  0  0  0
   23.9828   74.4541    0.2481 C   0  0  2  0  0  0  0  0  0  0  0  0
   23.5085   72.3498    1.5342 C   0  0  1  0  0  0  0  0  0  0  0  0
   23.0939   73.9064   -0.8694 C   0  0  1  0  0  0  0  0  0  0  0  0
   22.5874   71.9483    0.3859 C   0  0  1  0  0  0  0  0  0  0  0  0
   25.9363   74.4708    1.9479 H   0  0  0  0  0  0  0  0  0  0  0  0
   25.5707   75.6142    0.3778 H   0  0  0  0  0  0  0  0  0  0  0  0
   24.7121   71.4158    2.7900 H   0  0  0  0  0  0  0  0  0  0  0  0
   21.1514   71.5964    2.2068 O   0  0  0  0  0  0  0  0  0  0  0  0
   20.6219   70.5556    0.2483 O   0  0  0  0  0  0  0  0  0  0  0  0
   21.3540   71.2823    0.9032 C   0  0  0  0  0  0  0  0  0  0  0  0
  1  4  1  0
  1 24  1  0
  1  2  1  6
  1  3  2  0
 25 28  1  0
 25 24  1  0
 25 26  1  1
 25 27  2  0
  6 11  1  0
  6 12  1  0
 29 36  1  0
 29 37  1  0
  9  7  1  6
  7 13  1  0
 10  8  1  1
  8 14  1  0
  4  5  1  0
 36 28  1  6
 33 30  1  1
 30 38  1  0
 34 31  1  6
 31 39  1  0
 35 32  1  6
 32 40  1  0
 41 43  1  0
 15 19  2  0
 42 43  2  0
 16 22  2  0
 12 17  1  6
 17 19  1  0
 17 20  1  0
 18 19  1  0
 18 22  1  0
 18 23  1  0
  9 10  1  0
  9 11  1  0
 10 12  1  0
 11  5  1  6
 33 34  1  0
 33 35  1  0
 34 36  1  0
 35 37  1  0
 37 43  1  1
 20 21  2  0
 21 22  1  0
M  CHG  3   2  -1  26  -1  41  -1
M  END
>  <COMPND>  (82) 
    udp_gluA.pdb 

>  <AUTHOR>  (82) 
    GENERATED BY OPEN BABEL 3.1.1

>  <MASTER>  (82) 
        0    0    0    0    0    0    0    0   56    0   56    0

>  <minimizedAffinity>  (82) 
-7.44803

>  <CNNscore>  (82) 
0.8857371211

>  <CNNaffinity>  (82) 
4.7200994492

>  <CNN_VS>  (82) 
4.1807670593

>  <CNNaffinity_variance>  (82) 
0.1005810499

$$$$
83
     RDKit          3D

 43 45  0  0  0  0  0  0  0  0999 V2000
   20.2550   71.6574   -1.0381 P   0  0  2  0  0  0  0  0  0  0  0  0
   20.9568   70.6833    0.0469 O   0  0  0  0  0  0  0  0  0  0  0  0
   19.0954   72.4547   -0.5172 O   0  0  0  0  0  0  0  0  0  0  0  0
   19.9313   70.6797   -2.2860 O   0  0  0  0  0  0  0  0  0  0  0  0
   19.6532   71.2615   -3.5464 C   0  0  0  0  0  0  0  0  0  0  0  0
   17.8739   71.9773   -4.9953 O   0  0  0  0  0  0  0  0  0  0  0  0
   16.0110   70.6527   -3.0545 O   0  0  0  0  0  0  0  0  0  0  0  0
   16.1789   68.8188   -5.0657 O   0  0  0  0  0  0  0  0  0  0  0  0
   17.3183   70.2543   -3.4678 C   0  0  1  0  0  0  0  0  0  0  0  0
   17.2746   69.6884   -4.8714 C   0  0  2  0  0  0  0  0  0  0  0  0
   18.1548   71.5123   -3.6574 C   0  0  1  0  0  0  0  0  0  0  0  0
   17.1789   70.9474   -5.7162 C   0  0  2  0  0  0  0  0  0  0  0  0
   15.4580   69.8656   -2.9270 H   0  0  0  0  0  0  0  0  0  0  0  0
   16.2867   68.0329   -4.5065 H   0  0  0  0  0  0  0  0  0  0  0  0
   15.7574   70.3870   -8.0914 O   0  0  0  0  0  0  0  0  0  0  0  0
   19.6168   70.3601  -10.6110 O   0  0  0  0  0  0  0  0  0  0  0  0
   17.7873   70.7890   -7.0068 N   0  0  0  0  0  0  0  0  0  0  0  0
   17.6810   70.3731   -9.3439 N   0  0  0  0  0  0  0  0  0  0  0  0
   16.9830   70.5087   -8.1367 C   0  0  0  0  0  0  0  0  0  0  0  0
   19.1645   70.9128   -7.1442 C   0  0  0  0  0  0  0  0  0  0  0  0
   19.8156   70.7811   -8.3016 C   0  0  0  0  0  0  0  0  0  0  0  0
   19.0492   70.4868   -9.5302 C   0  0  0  0  0  0  0  0  0  0  0  0
   17.1426   70.1758  -10.1442 H   0  0  0  0  0  0  0  0  0  0  0  0
   21.4916   72.5445   -1.5828 O   0  0  0  0  0  0  0  0  0  0  0  0
   23.0620   72.5249   -1.1993 P   0  0  2  0  0  0  0  0  0  0  0  0
   23.6723   73.7403   -2.0772 O   0  0  0  0  0  0  0  0  0  0  0  0
   23.7343   71.2015   -1.4239 O   0  0  0  0  0  0  0  0  0  0  0  0
   23.1180   73.0545    0.3235 O   0  0  0  0  0  0  0  0  0  0  0  0
   24.4747   71.8159    1.8184 O   0  0  0  0  0  0  0  0  0  0  0  0
   22.3433   74.2217    4.4141 O   0  0  0  0  0  0  0  0  0  0  0  0
   21.0154   72.9542    2.1415 O   0  0  0  0  0  0  0  0  0  0  0  0
   25.1238   74.8239    3.8167 O   0  0  0  0  0  0  0  0  0  0  0  0
   22.9963   73.8821    3.1908 C   0  0  2  0  0  0  0  0  0  0  0  0
   22.3328   72.6463    2.5824 C   0  0  2  0  0  0  0  0  0  0  0  0
   24.4671   73.5972    3.5032 C   0  0  1  0  0  0  0  0  0  0  0  0
   23.1434   72.1172    1.3985 C   0  0  1  0  0  0  0  0  0  0  0  0
   25.1749   72.9550    2.3136 C   0  0  1  0  0  0  0  0  0  0  0  0
   21.4069   74.4070    4.2403 H   0  0  0  0  0  0  0  0  0  0  0  0
   20.4955   73.2908    2.8877 H   0  0  0  0  0  0  0  0  0  0  0  0
   24.6829   75.2429    4.5722 H   0  0  0  0  0  0  0  0  0  0  0  0
   26.5823   71.0795    2.3709 O   0  0  0  0  0  0  0  0  0  0  0  0
   27.3764   73.0046    3.2998 O   0  0  0  0  0  0  0  0  0  0  0  0
   26.4934   72.3855    2.7252 C   0  0  0  0  0  0  0  0  0  0  0  0
  1  4  1  0
  1 24  1  0
  1  2  1  1
  1  3  2  0
 25 28  1  0
 25 24  1  0
 25 26  1  6
 25 27  2  0
  6 11  1  0
  6 12  1  0
 29 36  1  0
 29 37  1  0
  9  7  1  6
  7 13  1  0
 10  8  1  1
  8 14  1  0
  4  5  1  0
 36 28  1  6
 33 30  1  1
 30 38  1  0
 34 31  1  6
 31 39  1  0
 35 32  1  6
 32 40  1  0
 41 43  1  0
 15 19  2  0
 42 43  2  0
 16 22  2  0
 12 17  1  6
 17 19  1  0
 17 20  1  0
 18 19  1  0
 18 22  1  0
 18 23  1  0
  9 10  1  0
  9 11  1  0
 10 12  1  0
 11  5  1  6
 33 34  1  0
 33 35  1  0
 34 36  1  0
 35 37  1  0
 37 43  1  1
 20 21  2  0
 21 22  1  0
M  CHG  3   2  -1  26  -1  41  -1
M  END
>  <COMPND>  (83) 
    udp_gluA.pdb 

>  <AUTHOR>  (83) 
    GENERATED BY OPEN BABEL 3.1.1

>  <MASTER>  (83) 
        0    0    0    0    0    0    0    0   56    0   56    0

>  <minimizedAffinity>  (83) 
-7.10820

>  <CNNscore>  (83) 
0.8836014867

>  <CNNaffinity>  (83) 
4.6900105476

>  <CNN_VS>  (83) 
4.1441001892

>  <CNNaffinity_variance>  (83) 
0.0910778493

$$$$
84
     RDKit          3D

 43 45  0  0  0  0  0  0  0  0999 V2000
   20.2653   71.6720   -1.0279 P   0  0  2  0  0  0  0  0  0  0  0  0
   20.9308   70.7196    0.0987 O   0  0  0  0  0  0  0  0  0  0  0  0
   19.0970   72.4880   -0.5580 O   0  0  0  0  0  0  0  0  0  0  0  0
   19.9698   70.6670   -2.2610 O   0  0  0  0  0  0  0  0  0  0  0  0
   19.6729   71.2219   -3.5292 C   0  0  0  0  0  0  0  0  0  0  0  0
   17.8766   71.9314   -4.9601 O   0  0  0  0  0  0  0  0  0  0  0  0
   16.0403   70.5746   -3.0163 O   0  0  0  0  0  0  0  0  0  0  0  0
   16.2112   68.7575   -5.0423 O   0  0  0  0  0  0  0  0  0  0  0  0
   17.3483   70.1918   -3.4417 C   0  0  1  0  0  0  0  0  0  0  0  0
   17.2999   69.6360   -4.8492 C   0  0  2  0  0  0  0  0  0  0  0  0
   18.1714   71.4591   -3.6277 C   0  0  1  0  0  0  0  0  0  0  0  0
   17.1862   70.9003   -5.6838 C   0  0  2  0  0  0  0  0  0  0  0  0
   15.4956   69.7813   -2.8908 H   0  0  0  0  0  0  0  0  0  0  0  0
   16.3305   67.9685   -4.4898 H   0  0  0  0  0  0  0  0  0  0  0  0
   15.7476   70.3977   -8.0616 O   0  0  0  0  0  0  0  0  0  0  0  0
   19.5950   70.3701  -10.5995 O   0  0  0  0  0  0  0  0  0  0  0  0
   17.7869   70.7573   -6.9798 N   0  0  0  0  0  0  0  0  0  0  0  0
   17.6653   70.3834   -9.3232 N   0  0  0  0  0  0  0  0  0  0  0  0
   16.9743   70.5060   -8.1105 C   0  0  0  0  0  0  0  0  0  0  0  0
   19.1648   70.8677   -7.1216 C   0  0  0  0  0  0  0  0  0  0  0  0
   19.8091   70.7486   -8.2841 C   0  0  0  0  0  0  0  0  0  0  0  0
   19.0339   70.4846   -9.5140 C   0  0  0  0  0  0  0  0  0  0  0  0
   17.1210   70.2062  -10.1243 H   0  0  0  0  0  0  0  0  0  0  0  0
   21.5221   72.5388   -1.5587 O   0  0  0  0  0  0  0  0  0  0  0  0
   23.0986   72.4439   -1.2133 P   0  0  2  0  0  0  0  0  0  0  0  0
   23.7131   73.7618   -1.9246 O   0  0  0  0  0  0  0  0  0  0  0  0
   23.7448   71.1558   -1.6343 O   0  0  0  0  0  0  0  0  0  0  0  0
   23.1907   72.7539    0.3671 O   0  0  0  0  0  0  0  0  0  0  0  0
   21.6646   74.3167    1.2823 O   0  0  0  0  0  0  0  0  0  0  0  0
   24.4598   74.0005    4.3080 O   0  0  0  0  0  0  0  0  0  0  0  0
   25.3090   74.1425    1.5164 O   0  0  0  0  0  0  0  0  0  0  0  0
   21.8765   72.6923    4.5654 O   0  0  0  0  0  0  0  0  0  0  0  0
   23.6744   73.5445    3.2066 C   0  0  2  0  0  0  0  0  0  0  0  0
   23.9841   74.3913    1.9719 C   0  0  2  0  0  0  0  0  0  0  0  0
   22.1990   73.6810    3.5892 C   0  0  1  0  0  0  0  0  0  0  0  0
   23.0026   74.0867    0.8393 C   0  0  1  0  0  0  0  0  0  0  0  0
   21.2895   73.4868    2.3794 C   0  0  1  0  0  0  0  0  0  0  0  0
   25.4015   73.9232    4.0879 H   0  0  0  0  0  0  0  0  0  0  0  0
   25.9370   74.3335    2.2302 H   0  0  0  0  0  0  0  0  0  0  0  0
   22.4485   72.8047    5.3406 H   0  0  0  0  0  0  0  0  0  0  0  0
   19.4679   74.8224    1.7473 O   0  0  0  0  0  0  0  0  0  0  0  0
   19.2333   73.5709    3.6389 O   0  0  0  0  0  0  0  0  0  0  0  0
   19.8987   73.9404    2.6830 C   0  0  0  0  0  0  0  0  0  0  0  0
  1  4  1  0
  1 24  1  0
  1  2  1  1
  1  3  2  0
 25 28  1  0
 25 24  1  0
 25 26  1  6
 25 27  2  0
  6 11  1  0
  6 12  1  0
 29 36  1  0
 29 37  1  0
  9  7  1  6
  7 13  1  0
 10  8  1  1
  8 14  1  0
  4  5  1  0
 36 28  1  1
 33 30  1  1
 30 38  1  0
 34 31  1  6
 31 39  1  0
 35 32  1  1
 32 40  1  0
 41 43  1  0
 15 19  2  0
 42 43  2  0
 16 22  2  0
 12 17  1  6
 17 19  1  0
 17 20  1  0
 18 19  1  0
 18 22  1  0
 18 23  1  0
  9 10  1  0
  9 11  1  0
 10 12  1  0
 11  5  1  6
 33 34  1  0
 33 35  1  0
 34 36  1  0
 35 37  1  0
 37 43  1  1
 20 21  2  0
 21 22  1  0
M  CHG  3   2  -1  26  -1  41  -1
M  END
>  <COMPND>  (84) 
    udp_gluA.pdb 

>  <AUTHOR>  (84) 
    GENERATED BY OPEN BABEL 3.1.1

>  <MASTER>  (84) 
        0    0    0    0    0    0    0    0   56    0   56    0

>  <minimizedAffinity>  (84) 
-6.77889

>  <CNNscore>  (84) 
0.8545422554

>  <CNNaffinity>  (84) 
4.5946016312

>  <CNN_VS>  (84) 
3.9262812138

>  <CNNaffinity_variance>  (84) 
0.0629141852

$$$$
85
     RDKit          3D

 43 45  0  0  0  0  0  0  0  0999 V2000
   21.0254   71.2385   -1.6485 P   0  0  2  0  0  0  0  0  0  0  0  0
   21.9853   70.8286   -2.8853 O   0  0  0  0  0  0  0  0  0  0  0  0
   21.5889   70.9528   -0.2874 O   0  0  0  0  0  0  0  0  0  0  0  0
   19.6189   70.5163   -1.9925 O   0  0  0  0  0  0  0  0  0  0  0  0
   19.2490   70.3689   -3.3511 C   0  0  0  0  0  0  0  0  0  0  0  0
   17.5839   71.4000   -4.7447 O   0  0  0  0  0  0  0  0  0  0  0  0
   15.5682   69.8184   -3.1868 O   0  0  0  0  0  0  0  0  0  0  0  0
   15.8135   68.3716   -5.4851 O   0  0  0  0  0  0  0  0  0  0  0  0
   16.8879   69.4522   -3.5904 C   0  0  1  0  0  0  0  0  0  0  0  0
   16.9175   69.1503   -5.0737 C   0  0  2  0  0  0  0  0  0  0  0  0
   17.7678   70.6915   -3.4999 C   0  0  1  0  0  0  0  0  0  0  0  0
   16.9085   70.5435   -5.6793 C   0  0  2  0  0  0  0  0  0  0  0  0
   14.9876   69.0425   -3.2363 H   0  0  0  0  0  0  0  0  0  0  0  0
   15.8651   67.4944   -5.0730 H   0  0  0  0  0  0  0  0  0  0  0  0
   15.6248   70.4742   -8.1940 O   0  0  0  0  0  0  0  0  0  0  0  0
   19.6330   70.7559  -10.4522 O   0  0  0  0  0  0  0  0  0  0  0  0
   17.5925   70.5973   -6.9404 N   0  0  0  0  0  0  0  0  0  0  0  0
   17.6224   70.6135   -9.3163 N   0  0  0  0  0  0  0  0  0  0  0  0
   16.8536   70.5556   -8.1464 C   0  0  0  0  0  0  0  0  0  0  0  0
   18.9784   70.6918   -6.9742 C   0  0  0  0  0  0  0  0  0  0  0  0
   19.6973   70.7462   -8.0972 C   0  0  0  0  0  0  0  0  0  0  0  0
   19.0022   70.7073   -9.4005 C   0  0  0  0  0  0  0  0  0  0  0  0
   17.1303   70.5840  -10.1686 H   0  0  0  0  0  0  0  0  0  0  0  0
   20.7122   72.7984   -1.9338 O   0  0  0  0  0  0  0  0  0  0  0  0
   21.6991   74.0720   -2.0674 P   0  0  2  0  0  0  0  0  0  0  0  0
   20.7343   75.3253   -1.7229 O   0  0  0  0  0  0  0  0  0  0  0  0
   22.3963   74.1744   -3.3931 O   0  0  0  0  0  0  0  0  0  0  0  0
   22.6880   73.9584   -0.7979 O   0  0  0  0  0  0  0  0  0  0  0  0
   21.9584   73.9325    1.4551 O   0  0  0  0  0  0  0  0  0  0  0  0
   25.8532   75.2531    1.8479 O   0  0  0  0  0  0  0  0  0  0  0  0
   24.1548   76.2687   -0.3011 O   0  0  0  0  0  0  0  0  0  0  0  0
   25.1639   72.5151    2.5401 O   0  0  0  0  0  0  0  0  0  0  0  0
   24.7790   74.5195    1.2599 C   0  0  2  0  0  0  0  0  0  0  0  0
   23.6916   75.4885    0.7950 C   0  0  2  0  0  0  0  0  0  0  0  0
   24.2234   73.5642    2.3185 C   0  0  1  0  0  0  0  0  0  0  0  0
   22.4308   74.7337    0.3714 C   0  0  1  0  0  0  0  0  0  0  0  0
   22.9007   72.9474    1.8730 C   0  0  1  0  0  0  0  0  0  0  0  0
   26.2221   75.8670    1.1935 H   0  0  0  0  0  0  0  0  0  0  0  0
   24.9549   76.7502   -0.0395 H   0  0  0  0  0  0  0  0  0  0  0  0
   26.0104   72.8943    2.8241 H   0  0  0  0  0  0  0  0  0  0  0  0
   20.8994   72.0822    2.7378 O   0  0  0  0  0  0  0  0  0  0  0  0
   22.7436   71.9718    4.0741 O   0  0  0  0  0  0  0  0  0  0  0  0
   22.2094   72.2878    3.0217 C   0  0  0  0  0  0  0  0  0  0  0  0
  1  4  1  0
  1 24  1  0
  1  2  1  6
  1  3  2  0
 25 28  1  0
 25 24  1  0
 25 26  1  1
 25 27  2  0
  6 11  1  0
  6 12  1  0
 29 36  1  0
 29 37  1  0
  9  7  1  6
  7 13  1  0
 10  8  1  6
  8 14  1  0
  4  5  1  0
 36 28  1  6
 33 30  1  1
 30 38  1  0
 34 31  1  6
 31 39  1  0
 35 32  1  6
 32 40  1  0
 41 43  1  0
 15 19  2  0
 42 43  2  0
 16 22  2  0
 12 17  1  6
 17 19  1  0
 17 20  1  0
 18 19  1  0
 18 22  1  0
 18 23  1  0
  9 10  1  0
  9 11  1  0
 10 12  1  0
 11  5  1  6
 33 34  1  0
 33 35  1  0
 34 36  1  0
 35 37  1  0
 37 43  1  1
 20 21  2  0
 21 22  1  0
M  CHG  3   2  -1  26  -1  41  -1
M  END
>  <COMPND>  (85) 
    udp_gluA.pdb 

>  <AUTHOR>  (85) 
    GENERATED BY OPEN BABEL 3.1.1

>  <MASTER>  (85) 
        0    0    0    0    0    0    0    0   56    0   56    0

>  <minimizedAffinity>  (85) 
-6.73264

>  <CNNscore>  (85) 
0.8542711735

>  <CNNaffinity>  (85) 
4.5843811035

>  <CNN_VS>  (85) 
3.9163045883

>  <CNNaffinity_variance>  (85) 
0.1378710270

$$$$
86
     RDKit          3D

 43 45  0  0  0  0  0  0  0  0999 V2000
   23.4955   72.1390   -3.3173 P   0  0  2  0  0  0  0  0  0  0  0  0
   24.3088   73.1233   -4.3115 O   0  0  0  0  0  0  0  0  0  0  0  0
   24.1259   70.7945   -3.1014 O   0  0  0  0  0  0  0  0  0  0  0  0
   21.9969   72.1227   -3.9271 O   0  0  0  0  0  0  0  0  0  0  0  0
   21.2382   70.9317   -3.8246 C   0  0  0  0  0  0  0  0  0  0  0  0
   19.1819   71.8381   -4.6777 O   0  0  0  0  0  0  0  0  0  0  0  0
   17.8521   70.5503   -2.3188 O   0  0  0  0  0  0  0  0  0  0  0  0
   17.2912   68.8104   -4.3422 O   0  0  0  0  0  0  0  0  0  0  0  0
   18.9506   70.0841   -3.1027 C   0  0  1  0  0  0  0  0  0  0  0  0
   18.4625   69.5923   -4.4489 C   0  0  2  0  0  0  0  0  0  0  0  0
   19.7956   71.2897   -3.4912 C   0  0  1  0  0  0  0  0  0  0  0  0
   18.2300   70.8950   -5.1952 C   0  0  2  0  0  0  0  0  0  0  0  0
   17.2977   69.7976   -2.0586 H   0  0  0  0  0  0  0  0  0  0  0  0
   17.4914   67.9924   -3.8597 H   0  0  0  0  0  0  0  0  0  0  0  0
   16.2632   69.9762   -7.0018 O   0  0  0  0  0  0  0  0  0  0  0  0
   19.1062   70.4131  -10.6033 O   0  0  0  0  0  0  0  0  0  0  0  0
   18.4294   70.7589   -6.6103 N   0  0  0  0  0  0  0  0  0  0  0  0
   17.6814   70.1937   -8.7937 N   0  0  0  0  0  0  0  0  0  0  0  0
   17.3762   70.2880   -7.4295 C   0  0  0  0  0  0  0  0  0  0  0  0
   19.6557   71.0915   -7.1730 C   0  0  0  0  0  0  0  0  0  0  0  0
   19.9315   70.9965   -8.4752 C   0  0  0  0  0  0  0  0  0  0  0  0
   18.8858   70.5120   -9.4000 C   0  0  0  0  0  0  0  0  0  0  0  0
   16.9645   69.8663   -9.3837 H   0  0  0  0  0  0  0  0  0  0  0  0
   23.3331   73.0294   -1.9780 O   0  0  0  0  0  0  0  0  0  0  0  0
   22.8102   72.6369   -0.4994 P   0  0  2  0  0  0  0  0  0  0  0  0
   23.5611   73.7076    0.4547 O   0  0  0  0  0  0  0  0  0  0  0  0
   23.0452   71.2024   -0.1238 O   0  0  0  0  0  0  0  0  0  0  0  0
   21.2619   73.0892   -0.4793 O   0  0  0  0  0  0  0  0  0  0  0  0
   20.0954   74.7662   -1.6777 O   0  0  0  0  0  0  0  0  0  0  0  0
   18.1666   74.8475    1.9748 O   0  0  0  0  0  0  0  0  0  0  0  0
   21.0753   74.6113    1.8412 O   0  0  0  0  0  0  0  0  0  0  0  0
   16.8944   73.5952   -0.3196 O   0  0  0  0  0  0  0  0  0  0  0  0
   18.8737   74.2511    0.8875 C   0  0  2  0  0  0  0  0  0  0  0  0
   20.2380   74.9238    0.7339 C   0  0  2  0  0  0  0  0  0  0  0  0
   18.0397   74.4431   -0.3811 C   0  0  1  0  0  0  0  0  0  0  0  0
   20.9279   74.4740   -0.5547 C   0  0  1  0  0  0  0  0  0  0  0  0
   18.8398   74.0920   -1.6322 C   0  0  1  0  0  0  0  0  0  0  0  0
   18.6777   74.7379    2.7921 H   0  0  0  0  0  0  0  0  0  0  0  0
   20.6436   74.8938    2.6623 H   0  0  0  0  0  0  0  0  0  0  0  0
   16.3766   73.8083    0.4724 H   0  0  0  0  0  0  0  0  0  0  0  0
   18.9862   75.3481   -3.6077 O   0  0  0  0  0  0  0  0  0  0  0  0
   16.9889   74.3436   -3.1594 O   0  0  0  0  0  0  0  0  0  0  0  0
   18.1483   74.5875   -2.8605 C   0  0  0  0  0  0  0  0  0  0  0  0
  1  4  1  0
  1 24  1  0
  1  2  1  6
  1  3  2  0
 25 28  1  0
 25 24  1  0
 25 26  1  1
 25 27  2  0
  6 11  1  0
  6 12  1  0
 29 36  1  0
 29 37  1  0
  9  7  1  1
  7 13  1  0
 10  8  1  1
  8 14  1  0
  4  5  1  0
 36 28  1  1
 33 30  1  1
 30 38  1  0
 34 31  1  1
 31 39  1  0
 35 32  1  1
 32 40  1  0
 41 43  1  0
 15 19  2  0
 42 43  2  0
 16 22  2  0
 12 17  1  6
 17 19  1  0
 17 20  1  0
 18 19  1  0
 18 22  1  0
 18 23  1  0
  9 10  1  0
  9 11  1  0
 10 12  1  0
 11  5  1  6
 33 34  1  0
 33 35  1  0
 34 36  1  0
 35 37  1  0
 37 43  1  6
 20 21  2  0
 21 22  1  0
M  CHG  3   2  -1  26  -1  41  -1
M  END
>  <COMPND>  (86) 
    udp_gluA.pdb 

>  <AUTHOR>  (86) 
    GENERATED BY OPEN BABEL 3.1.1

>  <MASTER>  (86) 
        0    0    0    0    0    0    0    0   56    0   56    0

>  <minimizedAffinity>  (86) 
-6.59411

>  <CNNscore>  (86) 
0.8523477912

>  <CNNaffinity>  (86) 
4.5782570839

>  <CNN_VS>  (86) 
3.9022672176

>  <CNNaffinity_variance>  (86) 
0.1658422649

$$$$
87
     RDKit          3D

 43 45  0  0  0  0  0  0  0  0999 V2000
   22.6087   73.0660   -4.4103 P   0  0  2  0  0  0  0  0  0  0  0  0
   22.3967   74.4333   -5.2496 O   0  0  0  0  0  0  0  0  0  0  0  0
   23.9757   72.4578   -4.5247 O   0  0  0  0  0  0  0  0  0  0  0  0
   21.3796   72.1257   -4.8826 O   0  0  0  0  0  0  0  0  0  0  0  0
   20.8322   71.2101   -3.9517 C   0  0  0  0  0  0  0  0  0  0  0  0
   18.8214   72.0144   -4.9944 O   0  0  0  0  0  0  0  0  0  0  0  0
   17.3545   70.7874   -2.6848 O   0  0  0  0  0  0  0  0  0  0  0  0
   16.9965   68.9461   -4.6641 O   0  0  0  0  0  0  0  0  0  0  0  0
   18.5215   70.3228   -3.3637 C   0  0  1  0  0  0  0  0  0  0  0  0
   18.1501   69.7590   -4.7188 C   0  0  2  0  0  0  0  0  0  0  0  0
   19.3591   71.5366   -3.7423 C   0  0  1  0  0  0  0  0  0  0  0  0
   17.9380   71.0207   -5.5379 C   0  0  2  0  0  0  0  0  0  0  0  0
   16.8034   70.0295   -2.4329 H   0  0  0  0  0  0  0  0  0  0  0  0
   17.1827   68.1561   -4.1319 H   0  0  0  0  0  0  0  0  0  0  0  0
   16.1223   70.0136   -7.4525 O   0  0  0  0  0  0  0  0  0  0  0  0
   19.2327   70.3338  -10.8388 O   0  0  0  0  0  0  0  0  0  0  0  0
   18.2471   70.8307   -6.9269 N   0  0  0  0  0  0  0  0  0  0  0  0
   17.6736   70.1731   -9.1371 N   0  0  0  0  0  0  0  0  0  0  0  0
   17.2632   70.3183   -7.8053 C   0  0  0  0  0  0  0  0  0  0  0  0
   19.5111   71.1519   -7.4064 C   0  0  0  0  0  0  0  0  0  0  0  0
   19.8875   71.0081   -8.6786 C   0  0  0  0  0  0  0  0  0  0  0  0
   18.9194   70.4781   -9.6610 C   0  0  0  0  0  0  0  0  0  0  0  0
   17.0064   69.8161   -9.7670 H   0  0  0  0  0  0  0  0  0  0  0  0
   22.1846   73.4918   -2.9097 O   0  0  0  0  0  0  0  0  0  0  0  0
   22.8545   74.5363   -1.8734 P   0  0  2  0  0  0  0  0  0  0  0  0
   21.9490   75.8662   -2.0515 O   0  0  0  0  0  0  0  0  0  0  0  0
   24.3245   74.7562   -2.0847 O   0  0  0  0  0  0  0  0  0  0  0  0
   22.4651   73.9710   -0.4135 O   0  0  0  0  0  0  0  0  0  0  0  0
   23.5337   73.6103    1.6691 O   0  0  0  0  0  0  0  0  0  0  0  0
   21.4604   70.0727    1.1641 O   0  0  0  0  0  0  0  0  0  0  0  0
   22.8626   71.3014   -1.0851 O   0  0  0  0  0  0  0  0  0  0  0  0
   20.4917   72.0778    3.0328 O   0  0  0  0  0  0  0  0  0  0  0  0
   21.6962   71.4748    1.0352 C   0  0  2  0  0  0  0  0  0  0  0  0
   23.0006   71.7063    0.2720 C   0  0  2  0  0  0  0  0  0  0  0  0
   21.7899   72.0698    2.4420 C   0  0  1  0  0  0  0  0  0  0  0  0
   23.4043   73.1808    0.3133 C   0  0  1  0  0  0  0  0  0  0  0  0
   22.3189   73.5007    2.4076 C   0  0  1  0  0  0  0  0  0  0  0  0
   21.3972   69.6729    0.2823 H   0  0  0  0  0  0  0  0  0  0  0  0
   22.6063   70.3668   -1.1187 H   0  0  0  0  0  0  0  0  0  0  0  0
   20.1435   71.1729    3.0606 H   0  0  0  0  0  0  0  0  0  0  0  0
   23.3396   75.1554    3.7197 O   0  0  0  0  0  0  0  0  0  0  0  0
   22.5087   73.3315    4.8069 O   0  0  0  0  0  0  0  0  0  0  0  0
   22.7159   73.9526    3.7753 C   0  0  0  0  0  0  0  0  0  0  0  0
  1  4  1  0
  1 24  1  0
  1  2  1  6
  1  3  2  0
 25 28  1  0
 25 24  1  0
 25 26  1  6
 25 27  2  0
  6 11  1  0
  6 12  1  0
 29 36  1  0
 29 37  1  0
  9  7  1  6
  7 13  1  0
 10  8  1  1
  8 14  1  0
  4  5  1  0
 36 28  1  1
 33 30  1  1
 30 38  1  0
 34 31  1  6
 31 39  1  0
 35 32  1  6
 32 40  1  0
 41 43  1  0
 15 19  2  0
 42 43  2  0
 16 22  2  0
 12 17  1  6
 17 19  1  0
 17 20  1  0
 18 19  1  0
 18 22  1  0
 18 23  1  0
  9 10  1  0
  9 11  1  0
 10 12  1  0
 11  5  1  6
 33 34  1  0
 33 35  1  0
 34 36  1  0
 35 37  1  0
 37 43  1  1
 20 21  2  0
 21 22  1  0
M  CHG  3   2  -1  26  -1  41  -1
M  END
>  <COMPND>  (87) 
    udp_gluA.pdb 

>  <AUTHOR>  (87) 
    GENERATED BY OPEN BABEL 3.1.1

>  <MASTER>  (87) 
        0    0    0    0    0    0    0    0   56    0   56    0

>  <minimizedAffinity>  (87) 
-7.57400

>  <CNNscore>  (87) 
0.8289452195

>  <CNNaffinity>  (87) 
4.6066198349

>  <CNN_VS>  (87) 
3.8186354637

>  <CNNaffinity_variance>  (87) 
0.0265737139

$$$$
88
     RDKit          3D

 43 45  0  0  0  0  0  0  0  0999 V2000
   21.4736   72.4055   -4.7012 P   0  0  2  0  0  0  0  0  0  0  0  0
   20.7927   73.8735   -4.6842 O   0  0  0  0  0  0  0  0  0  0  0  0
   22.5831   72.2332   -5.6967 O   0  0  0  0  0  0  0  0  0  0  0  0
   20.2190   71.3971   -4.8659 O   0  0  0  0  0  0  0  0  0  0  0  0
   19.6022   70.8888   -3.6973 C   0  0  0  0  0  0  0  0  0  0  0  0
   17.8202   71.7912   -5.0344 O   0  0  0  0  0  0  0  0  0  0  0  0
   15.9544   70.3035   -3.2187 O   0  0  0  0  0  0  0  0  0  0  0  0
   16.0571   68.6929   -5.4168 O   0  0  0  0  0  0  0  0  0  0  0  0
   17.2474   69.9257   -3.6918 C   0  0  1  0  0  0  0  0  0  0  0  0
   17.1736   69.5146   -5.1471 C   0  0  2  0  0  0  0  0  0  0  0  0
   18.1082   71.1798   -3.7583 C   0  0  1  0  0  0  0  0  0  0  0  0
   17.0941   70.8587   -5.8508 C   0  0  2  0  0  0  0  0  0  0  0  0
   15.3862   69.5184   -3.1678 H   0  0  0  0  0  0  0  0  0  0  0  0
   16.1553   67.8496   -4.9466 H   0  0  0  0  0  0  0  0  0  0  0  0
   16.5551   72.7404   -7.8867 O   0  0  0  0  0  0  0  0  0  0  0  0
   19.4085   70.6406  -10.8351 O   0  0  0  0  0  0  0  0  0  0  0  0
   17.6824   70.8274   -7.1599 N   0  0  0  0  0  0  0  0  0  0  0  0
   17.9760   71.6922   -9.3536 N   0  0  0  0  0  0  0  0  0  0  0  0
   17.3441   71.8202   -8.1097 C   0  0  0  0  0  0  0  0  0  0  0  0
   18.5841   69.8234   -7.4913 C   0  0  0  0  0  0  0  0  0  0  0  0
   19.1784   69.7146   -8.6812 C   0  0  0  0  0  0  0  0  0  0  0  0
   18.8789   70.7112   -9.7302 C   0  0  0  0  0  0  0  0  0  0  0  0
   17.7547   72.3707  -10.0319 H   0  0  0  0  0  0  0  0  0  0  0  0
   21.9122   72.1911   -3.1602 O   0  0  0  0  0  0  0  0  0  0  0  0
   23.3722   72.1621   -2.4664 P   0  0  2  0  0  0  0  0  0  0  0  0
   23.9993   73.6005   -2.8642 O   0  0  0  0  0  0  0  0  0  0  0  0
   24.2190   70.9874   -2.8625 O   0  0  0  0  0  0  0  0  0  0  0  0
   23.0757   72.2707   -0.8844 O   0  0  0  0  0  0  0  0  0  0  0  0
   24.4376   71.1925    0.7256 O   0  0  0  0  0  0  0  0  0  0  0  0
   20.9497   71.8091    2.8522 O   0  0  0  0  0  0  0  0  0  0  0  0
   20.8512   70.9049    0.0760 O   0  0  0  0  0  0  0  0  0  0  0  0
   23.2716   73.4893    3.3385 O   0  0  0  0  0  0  0  0  0  0  0  0
   21.9506   72.1019    1.8773 C   0  0  2  0  0  0  0  0  0  0  0  0
   22.0323   70.9565    0.8678 C   0  0  2  0  0  0  0  0  0  0  0  0
   23.2865   72.2657    2.6056 C   0  0  1  0  0  0  0  0  0  0  0  0
   23.2421   71.1238   -0.0526 C   0  0  1  0  0  0  0  0  0  0  0  0
   24.4552   72.2987    1.6250 C   0  0  1  0  0  0  0  0  0  0  0  0
   20.0917   71.7007    2.4124 H   0  0  0  0  0  0  0  0  0  0  0  0
   20.0795   70.7991    0.6537 H   0  0  0  0  0  0  0  0  0  0  0  0
   22.5322   73.4813    3.9662 H   0  0  0  0  0  0  0  0  0  0  0  0
   26.2958   70.9142    2.0688 O   0  0  0  0  0  0  0  0  0  0  0  0
   26.2671   72.9604    3.0744 O   0  0  0  0  0  0  0  0  0  0  0  0
   25.7546   72.1271    2.3424 C   0  0  0  0  0  0  0  0  0  0  0  0
  1  4  1  0
  1 24  1  0
  1  2  1  1
  1  3  2  0
 25 28  1  0
 25 24  1  0
 25 26  1  6
 25 27  2  0
  6 11  1  0
  6 12  1  0
 29 36  1  0
 29 37  1  0
  9  7  1  6
  7 13  1  0
 10  8  1  1
  8 14  1  0
  4  5  1  0
 36 28  1  1
 33 30  1  1
 30 38  1  0
 34 31  1  6
 31 39  1  0
 35 32  1  6
 32 40  1  0
 41 43  1  0
 15 19  2  0
 42 43  2  0
 16 22  2  0
 12 17  1  6
 17 19  1  0
 17 20  1  0
 18 19  1  0
 18 22  1  0
 18 23  1  0
  9 10  1  0
  9 11  1  0
 10 12  1  0
 11  5  1  6
 33 34  1  0
 33 35  1  0
 34 36  1  0
 35 37  1  0
 37 43  1  1
 20 21  2  0
 21 22  1  0
M  CHG  3   2  -1  26  -1  41  -1
M  END
>  <COMPND>  (88) 
    udp_gluA.pdb 

>  <AUTHOR>  (88) 
    GENERATED BY OPEN BABEL 3.1.1

>  <MASTER>  (88) 
        0    0    0    0    0    0    0    0   56    0   56    0

>  <minimizedAffinity>  (88) 
-8.03297

>  <CNNscore>  (88) 
0.8269120455

>  <CNNaffinity>  (88) 
4.5935339928

>  <CNN_VS>  (88) 
3.7984485626

>  <CNNaffinity_variance>  (88) 
0.0696494803

$$$$
89
     RDKit          3D

 43 45  0  0  0  0  0  0  0  0999 V2000
   22.0093   72.8337   -5.9881 P   0  0  2  0  0  0  0  0  0  0  0  0
   21.9313   74.0961   -6.9976 O   0  0  0  0  0  0  0  0  0  0  0  0
   23.3927   72.4687   -5.5358 O   0  0  0  0  0  0  0  0  0  0  0  0
   21.1919   71.6691   -6.7586 O   0  0  0  0  0  0  0  0  0  0  0  0
   20.3582   72.0327   -7.8436 C   0  0  0  0  0  0  0  0  0  0  0  0
   19.2829   69.9572   -7.2833 O   0  0  0  0  0  0  0  0  0  0  0  0
   18.1943   69.9815  -10.0772 O   0  0  0  0  0  0  0  0  0  0  0  0
   16.0716   70.8516   -8.6030 O   0  0  0  0  0  0  0  0  0  0  0  0
   18.4216   71.0740   -9.1864 C   0  0  1  0  0  0  0  0  0  0  0  0
   17.3688   71.0909   -8.0984 C   0  0  2  0  0  0  0  0  0  0  0  0
   19.6904   70.7806   -8.3974 C   0  0  1  0  0  0  0  0  0  0  0  0
   17.8508   69.9843   -7.1759 C   0  0  2  0  0  0  0  0  0  0  0  0
   17.3886   70.1462  -10.5923 H   0  0  0  0  0  0  0  0  0  0  0  0
   15.8106   71.5839   -9.1841 H   0  0  0  0  0  0  0  0  0  0  0  0
   16.2609   68.2374   -5.6276 O   0  0  0  0  0  0  0  0  0  0  0  0
   16.5280   70.9770   -1.9307 O   0  0  0  0  0  0  0  0  0  0  0  0
   17.4895   70.2166   -5.8061 N   0  0  0  0  0  0  0  0  0  0  0  0
   16.3946   69.6041   -3.7882 N   0  0  0  0  0  0  0  0  0  0  0  0
   16.6864   69.2761   -5.1187 C   0  0  0  0  0  0  0  0  0  0  0  0
   17.9305   71.3636   -5.1575 C   0  0  0  0  0  0  0  0  0  0  0  0
   17.6443   71.6625   -3.8888 C   0  0  0  0  0  0  0  0  0  0  0  0
   16.8096   70.7327   -3.1000 C   0  0  0  0  0  0  0  0  0  0  0  0
   15.8352   68.9654   -3.2897 H   0  0  0  0  0  0  0  0  0  0  0  0
   21.0016   73.2581   -4.7976 O   0  0  0  0  0  0  0  0  0  0  0  0
   21.0803   74.4590   -3.7180 P   0  0  2  0  0  0  0  0  0  0  0  0
   19.5406   74.6383   -3.2515 O   0  0  0  0  0  0  0  0  0  0  0  0
   21.7190   75.7140   -4.2384 O   0  0  0  0  0  0  0  0  0  0  0  0
   21.8205   73.8117   -2.4391 O   0  0  0  0  0  0  0  0  0  0  0  0
   21.1093   73.2128   -0.2609 O   0  0  0  0  0  0  0  0  0  0  0  0
   24.8784   74.7363    0.4746 O   0  0  0  0  0  0  0  0  0  0  0  0
   23.0861   76.0651   -1.4113 O   0  0  0  0  0  0  0  0  0  0  0  0
   24.4313   71.8641    0.5183 O   0  0  0  0  0  0  0  0  0  0  0  0
   23.8677   74.0667   -0.2792 C   0  0  2  0  0  0  0  0  0  0  0  0
   22.6983   75.0198   -0.5271 C   0  0  2  0  0  0  0  0  0  0  0  0
   23.4027   72.8522    0.5275 C   0  0  1  0  0  0  0  0  0  0  0  0
   21.5045   74.2764   -1.1281 C   0  0  1  0  0  0  0  0  0  0  0  0
   22.1353   72.2424   -0.0644 C   0  0  1  0  0  0  0  0  0  0  0  0
   25.1892   75.5119   -0.0185 H   0  0  0  0  0  0  0  0  0  0  0  0
   23.8434   76.5409   -1.0363 H   0  0  0  0  0  0  0  0  0  0  0  0
   25.2437   72.2396    0.8924 H   0  0  0  0  0  0  0  0  0  0  0  0
   20.6480   70.4566    0.2526 O   0  0  0  0  0  0  0  0  0  0  0  0
   21.7403   71.2400    2.0944 O   0  0  0  0  0  0  0  0  0  0  0  0
   21.5102   71.2828    0.8951 C   0  0  0  0  0  0  0  0  0  0  0  0
  1  4  1  0
  1 24  1  0
  1  2  1  6
  1  3  2  0
 25 28  1  0
 25 24  1  0
 25 26  1  1
 25 27  2  0
  6 11  1  0
  6 12  1  0
 29 36  1  0
 29 37  1  0
  9  7  1  6
  7 13  1  0
 10  8  1  6
  8 14  1  0
  4  5  1  0
 36 28  1  6
 33 30  1  1
 30 38  1  0
 34 31  1  6
 31 39  1  0
 35 32  1  6
 32 40  1  0
 41 43  1  0
 15 19  2  0
 42 43  2  0
 16 22  2  0
 12 17  1  1
 17 19  1  0
 17 20  1  0
 18 19  1  0
 18 22  1  0
 18 23  1  0
  9 10  1  0
  9 11  1  0
 10 12  1  0
 11  5  1  1
 33 34  1  0
 33 35  1  0
 34 36  1  0
 35 37  1  0
 37 43  1  1
 20 21  2  0
 21 22  1  0
M  CHG  3   2  -1  26  -1  41  -1
M  END
>  <COMPND>  (89) 
    udp_gluA.pdb 

>  <AUTHOR>  (89) 
    GENERATED BY OPEN BABEL 3.1.1

>  <MASTER>  (89) 
        0    0    0    0    0    0    0    0   56    0   56    0

>  <minimizedAffinity>  (89) 
-6.98257

>  <CNNscore>  (89) 
0.8171705604

>  <CNNaffinity>  (89) 
4.6603798866

>  <CNN_VS>  (89) 
3.8083252907

>  <CNNaffinity_variance>  (89) 
0.1822065562

$$$$
90
     RDKit          3D

 43 45  0  0  0  0  0  0  0  0999 V2000
   23.5943   72.7132   -3.5390 P   0  0  2  0  0  0  0  0  0  0  0  0
   23.9235   71.1857   -3.1180 O   0  0  0  0  0  0  0  0  0  0  0  0
   24.6736   73.4012   -4.3223 O   0  0  0  0  0  0  0  0  0  0  0  0
   23.1795   73.4199   -2.1438 O   0  0  0  0  0  0  0  0  0  0  0  0
   22.2630   74.4985   -2.1785 C   0  0  0  0  0  0  0  0  0  0  0  0
   21.2489   72.8365   -0.7689 O   0  0  0  0  0  0  0  0  0  0  0  0
   19.2583   74.9514   -0.0234 O   0  0  0  0  0  0  0  0  0  0  0  0
   20.9517   74.9471    2.1140 O   0  0  0  0  0  0  0  0  0  0  0  0
   20.6540   75.0798   -0.2956 C   0  0  1  0  0  0  0  0  0  0  0  0
   21.4657   74.5404    0.8630 C   0  0  2  0  0  0  0  0  0  0  0  0
   21.0063   74.1064   -1.4121 C   0  0  1  0  0  0  0  0  0  0  0  0
   21.3630   73.0399    0.6484 C   0  0  2  0  0  0  0  0  0  0  0  0
   19.0093   75.5639    0.6870 H   0  0  0  0  0  0  0  0  0  0  0  0
   21.0401   75.9096    2.2024 H   0  0  0  0  0  0  0  0  0  0  0  0
   21.4356   70.2678    1.1836 O   0  0  0  0  0  0  0  0  0  0  0  0
   25.8517   70.4507    2.4910 O   0  0  0  0  0  0  0  0  0  0  0  0
   22.5187   72.3372    1.1295 N   0  0  0  0  0  0  0  0  0  0  0  0
   23.6347   70.3617    1.8352 N   0  0  0  0  0  0  0  0  0  0  0  0
   22.4496   70.9440    1.3666 C   0  0  0  0  0  0  0  0  0  0  0  0
   23.7033   73.0262    1.3597 C   0  0  0  0  0  0  0  0  0  0  0  0
   24.8248   72.4574    1.8064 C   0  0  0  0  0  0  0  0  0  0  0  0
   24.8370   71.0054    2.0800 C   0  0  0  0  0  0  0  0  0  0  0  0
   23.6105   69.3930    2.0095 H   0  0  0  0  0  0  0  0  0  0  0  0
   22.1814   72.5798   -4.3128 O   0  0  0  0  0  0  0  0  0  0  0  0
   21.7272   73.0696   -5.7851 P   0  0  2  0  0  0  0  0  0  0  0  0
   22.7995   72.3502   -6.7613 O   0  0  0  0  0  0  0  0  0  0  0  0
   21.6514   74.5608   -5.9418 O   0  0  0  0  0  0  0  0  0  0  0  0
   20.3395   72.2956   -6.0639 O   0  0  0  0  0  0  0  0  0  0  0  0
   19.7384   70.1292   -5.3193 O   0  0  0  0  0  0  0  0  0  0  0  0
   17.5076   70.4781   -8.7790 O   0  0  0  0  0  0  0  0  0  0  0  0
   20.2744   71.4124   -8.7005 O   0  0  0  0  0  0  0  0  0  0  0  0
   16.2254   70.7414   -6.1833 O   0  0  0  0  0  0  0  0  0  0  0  0
   18.1642   70.9423   -7.5995 C   0  0  2  0  0  0  0  0  0  0  0  0
   19.6576   70.6266   -7.6872 C   0  0  2  0  0  0  0  0  0  0  0  0
   17.5391   70.2291   -6.3985 C   0  0  1  0  0  0  0  0  0  0  0  0
   20.3537   70.8989   -6.3530 C   0  0  1  0  0  0  0  0  0  0  0  0
   18.3611   70.4470   -5.1314 C   0  0  1  0  0  0  0  0  0  0  0  0
   17.8884   70.9178   -9.5556 H   0  0  0  0  0  0  0  0  0  0  0  0
   19.8375   71.2449   -9.5499 H   0  0  0  0  0  0  0  0  0  0  0  0
   15.6919   70.6091   -6.9825 H   0  0  0  0  0  0  0  0  0  0  0  0
   16.9619   68.6725   -4.5031 O   0  0  0  0  0  0  0  0  0  0  0  0
   18.4120   69.4609   -2.9299 O   0  0  0  0  0  0  0  0  0  0  0  0
   17.9413   69.4975   -4.0570 C   0  0  0  0  0  0  0  0  0  0  0  0
  1  4  1  0
  1 24  1  0
  1  2  1  1
  1  3  2  0
 25 28  1  0
 25 24  1  0
 25 26  1  6
 25 27  2  0
  6 11  1  0
  6 12  1  0
 29 36  1  0
 29 37  1  0
  9  7  1  1
  7 13  1  0
 10  8  1  1
  8 14  1  0
  4  5  1  0
 36 28  1  1
 33 30  1  6
 30 38  1  0
 34 31  1  6
 31 39  1  0
 35 32  1  1
 32 40  1  0
 41 43  1  0
 15 19  2  0
 42 43  2  0
 16 22  2  0
 12 17  1  6
 17 19  1  0
 17 20  1  0
 18 19  1  0
 18 22  1  0
 18 23  1  0
  9 10  1  0
  9 11  1  0
 10 12  1  0
 11  5  1  1
 33 34  1  0
 33 35  1  0
 34 36  1  0
 35 37  1  0
 37 43  1  1
 20 21  2  0
 21 22  1  0
M  CHG  3   2  -1  26  -1  41  -1
M  END
>  <COMPND>  (90) 
    udp_gluA.pdb 

>  <AUTHOR>  (90) 
    GENERATED BY OPEN BABEL 3.1.1

>  <MASTER>  (90) 
        0    0    0    0    0    0    0    0   56    0   56    0

>  <minimizedAffinity>  (90) 
-7.66040

>  <CNNscore>  (90) 
0.7738732100

>  <CNNaffinity>  (90) 
4.6294994354

>  <CNN_VS>  (90) 
3.5826456547

>  <CNNaffinity_variance>  (90) 
0.0654751509

$$$$
91
     RDKit          3D

 43 45  0  0  0  0  0  0  0  0999 V2000
   22.9134   71.8027   -3.0117 P   0  0  2  0  0  0  0  0  0  0  0  0
   24.2676   70.9169   -3.0305 O   0  0  0  0  0  0  0  0  0  0  0  0
   22.9748   73.0358   -2.1587 O   0  0  0  0  0  0  0  0  0  0  0  0
   21.7580   70.7379   -2.6254 O   0  0  0  0  0  0  0  0  0  0  0  0
   20.8985   70.2717   -3.6493 C   0  0  0  0  0  0  0  0  0  0  0  0
   19.0041   71.4708   -4.5158 O   0  0  0  0  0  0  0  0  0  0  0  0
   17.3994   70.1064   -2.3816 O   0  0  0  0  0  0  0  0  0  0  0  0
   16.8018   68.6431   -4.6037 O   0  0  0  0  0  0  0  0  0  0  0  0
   18.4950   69.6053   -3.1478 C   0  0  1  0  0  0  0  0  0  0  0  0
   18.0499   69.3027   -4.5630 C   0  0  2  0  0  0  0  0  0  0  0  0
   19.4802   70.7465   -3.3608 C   0  0  1  0  0  0  0  0  0  0  0  0
   17.9988   70.6896   -5.1809 C   0  0  2  0  0  0  0  0  0  0  0  0
   16.7564   69.3951   -2.2327 H   0  0  0  0  0  0  0  0  0  0  0  0
   16.8868   67.7650   -4.1989 H   0  0  0  0  0  0  0  0  0  0  0  0
   16.0773   70.1489   -7.1789 O   0  0  0  0  0  0  0  0  0  0  0  0
   19.1770   70.6513  -10.5528 O   0  0  0  0  0  0  0  0  0  0  0  0
   18.2765   70.6726   -6.5892 N   0  0  0  0  0  0  0  0  0  0  0  0
   17.6232   70.3986   -8.8573 N   0  0  0  0  0  0  0  0  0  0  0  0
   17.2399   70.3896   -7.5097 C   0  0  0  0  0  0  0  0  0  0  0  0
   19.5623   70.9359   -7.0458 C   0  0  0  0  0  0  0  0  0  0  0  0
   19.9124   70.9410   -8.3335 C   0  0  0  0  0  0  0  0  0  0  0  0
   18.8888   70.6541   -9.3599 C   0  0  0  0  0  0  0  0  0  0  0  0
   16.9190   70.2023   -9.5168 H   0  0  0  0  0  0  0  0  0  0  0  0
   22.6405   72.0819   -4.5802 O   0  0  0  0  0  0  0  0  0  0  0  0
   22.6582   73.4555   -5.4326 P   0  0  2  0  0  0  0  0  0  0  0  0
   22.7440   72.9391   -6.9644 O   0  0  0  0  0  0  0  0  0  0  0  0
   23.7484   74.4100   -5.0398 O   0  0  0  0  0  0  0  0  0  0  0  0
   21.1648   74.0477   -5.2856 O   0  0  0  0  0  0  0  0  0  0  0  0
   19.3514   74.4652   -6.7506 O   0  0  0  0  0  0  0  0  0  0  0  0
   19.3120   77.8476   -4.3786 O   0  0  0  0  0  0  0  0  0  0  0  0
   21.8393   76.7454   -5.3442 O   0  0  0  0  0  0  0  0  0  0  0  0
   17.3296   75.7598   -3.9759 O   0  0  0  0  0  0  0  0  0  0  0  0
   19.5233   76.4677   -4.6771 C   0  0  2  0  0  0  0  0  0  0  0  0
   20.5538   76.3387   -5.7991 C   0  0  2  0  0  0  0  0  0  0  0  0
   18.1845   75.8676   -5.1125 C   0  0  1  0  0  0  0  0  0  0  0  0
   20.6368   74.8971   -6.3027 C   0  0  1  0  0  0  0  0  0  0  0  0
   18.3672   74.4793   -5.7189 C   0  0  1  0  0  0  0  0  0  0  0  0
   20.1494   78.2501   -4.0995 H   0  0  0  0  0  0  0  0  0  0  0  0
   21.7939   77.6592   -5.0230 H   0  0  0  0  0  0  0  0  0  0  0  0
   17.2053   76.6367   -3.5805 H   0  0  0  0  0  0  0  0  0  0  0  0
   16.1809   73.6476   -5.5459 O   0  0  0  0  0  0  0  0  0  0  0  0
   16.9793   74.0454   -7.6443 O   0  0  0  0  0  0  0  0  0  0  0  0
   17.1280   74.0444   -6.4315 C   0  0  0  0  0  0  0  0  0  0  0  0
  1  4  1  0
  1 24  1  0
  1  2  1  6
  1  3  2  0
 25 28  1  0
 25 24  1  0
 25 26  1  6
 25 27  2  0
  6 11  1  0
  6 12  1  0
 29 36  1  0
 29 37  1  0
  9  7  1  1
  7 13  1  0
 10  8  1  1
  8 14  1  0
  4  5  1  0
 36 28  1  1
 33 30  1  6
 30 38  1  0
 34 31  1  1
 31 39  1  0
 35 32  1  1
 32 40  1  0
 41 43  1  0
 15 19  2  0
 42 43  2  0
 16 22  2  0
 12 17  1  6
 17 19  1  0
 17 20  1  0
 18 19  1  0
 18 22  1  0
 18 23  1  0
  9 10  1  0
  9 11  1  0
 10 12  1  0
 11  5  1  6
 33 34  1  0
 33 35  1  0
 34 36  1  0
 35 37  1  0
 37 43  1  6
 20 21  2  0
 21 22  1  0
M  CHG  3   2  -1  26  -1  41  -1
M  END
>  <COMPND>  (91) 
    udp_gluA.pdb 

>  <AUTHOR>  (91) 
    GENERATED BY OPEN BABEL 3.1.1

>  <MASTER>  (91) 
        0    0    0    0    0    0    0    0   56    0   56    0

>  <minimizedAffinity>  (91) 
-6.54640

>  <CNNscore>  (91) 
0.7666609287

>  <CNNaffinity>  (91) 
4.4384779930

>  <CNN_VS>  (91) 
3.4028077126

>  <CNNaffinity_variance>  (91) 
0.4138664305

$$$$
92
     RDKit          3D

 43 45  0  0  0  0  0  0  0  0999 V2000
   20.6438   71.4268   -1.5711 P   0  0  2  0  0  0  0  0  0  0  0  0
   21.7983   70.8801   -2.5647 O   0  0  0  0  0  0  0  0  0  0  0  0
   19.6408   70.3979   -1.1385 O   0  0  0  0  0  0  0  0  0  0  0  0
   20.0413   72.7130   -2.3462 O   0  0  0  0  0  0  0  0  0  0  0  0
   19.6440   72.5635   -3.6968 C   0  0  0  0  0  0  0  0  0  0  0  0
   17.8222   73.0697   -5.1809 O   0  0  0  0  0  0  0  0  0  0  0  0
   16.0203   72.0158   -3.0283 O   0  0  0  0  0  0  0  0  0  0  0  0
   16.1475   69.9257   -4.7750 O   0  0  0  0  0  0  0  0  0  0  0  0
   17.3189   71.5690   -3.4187 C   0  0  1  0  0  0  0  0  0  0  0  0
   17.2420   70.8171   -4.7306 C   0  0  2  0  0  0  0  0  0  0  0  0
   18.1416   72.7921   -3.8003 C   0  0  1  0  0  0  0  0  0  0  0  0
   17.1155   71.9490   -5.7359 C   0  0  2  0  0  0  0  0  0  0  0  0
   15.4762   71.2516   -2.7799 H   0  0  0  0  0  0  0  0  0  0  0  0
   16.2755   69.2236   -4.1172 H   0  0  0  0  0  0  0  0  0  0  0  0
   16.3922   73.1691   -8.1782 O   0  0  0  0  0  0  0  0  0  0  0  0
   19.3884   70.6004  -10.5590 O   0  0  0  0  0  0  0  0  0  0  0  0
   17.6907   71.6182   -7.0089 N   0  0  0  0  0  0  0  0  0  0  0  0
   17.8844   71.8879   -9.3618 N   0  0  0  0  0  0  0  0  0  0  0  0
   17.2566   72.2907   -8.1758 C   0  0  0  0  0  0  0  0  0  0  0  0
   18.6736   70.6396   -7.0926 C   0  0  0  0  0  0  0  0  0  0  0  0
   19.2629   70.2665   -8.2303 C   0  0  0  0  0  0  0  0  0  0  0  0
   18.8662   70.9193   -9.4952 C   0  0  0  0  0  0  0  0  0  0  0  0
   17.5974   72.3404  -10.1877 H   0  0  0  0  0  0  0  0  0  0  0  0
   21.4888   72.0925   -0.3646 O   0  0  0  0  0  0  0  0  0  0  0  0
   21.5469   71.7389    1.2118 P   0  0  2  0  0  0  0  0  0  0  0  0
   21.7144   70.1288    1.2237 O   0  0  0  0  0  0  0  0  0  0  0  0
   20.3735   72.2444    2.0001 O   0  0  0  0  0  0  0  0  0  0  0  0
   22.9766   72.3005    1.7048 O   0  0  0  0  0  0  0  0  0  0  0  0
   24.4747   73.6776    0.4930 O   0  0  0  0  0  0  0  0  0  0  0  0
   27.0514   71.6158    2.9784 O   0  0  0  0  0  0  0  0  0  0  0  0
   24.8376   70.2338    1.6657 O   0  0  0  0  0  0  0  0  0  0  0  0
   26.3846   74.3882    3.5441 O   0  0  0  0  0  0  0  0  0  0  0  0
   25.8244   72.2418    2.6038 C   0  0  2  0  0  0  0  0  0  0  0  0
   25.2600   71.5574    1.3586 C   0  0  2  0  0  0  0  0  0  0  0  0
   26.1147   73.7164    2.3152 C   0  0  1  0  0  0  0  0  0  0  0  0
   24.0738   72.3404    0.7941 C   0  0  1  0  0  0  0  0  0  0  0  0
   24.9276   74.3958    1.6385 C   0  0  1  0  0  0  0  0  0  0  0  0
   26.8916   70.6775    3.1667 H   0  0  0  0  0  0  0  0  0  0  0  0
   25.5853   69.7313    2.0246 H   0  0  0  0  0  0  0  0  0  0  0  0
   27.1381   73.9654    3.9850 H   0  0  0  0  0  0  0  0  0  0  0  0
   25.4983   76.6322    2.0559 O   0  0  0  0  0  0  0  0  0  0  0  0
   25.4828   75.9515   -0.1202 O   0  0  0  0  0  0  0  0  0  0  0  0
   25.3272   75.7181    1.0690 C   0  0  0  0  0  0  0  0  0  0  0  0
  1  4  1  0
  1 24  1  0
  1  2  1  6
  1  3  2  0
 25 28  1  0
 25 24  1  0
 25 26  1  6
 25 27  2  0
  6 11  1  0
  6 12  1  0
 29 36  1  0
 29 37  1  0
  9  7  1  6
  7 13  1  0
 10  8  1  1
  8 14  1  0
  4  5  1  0
 36 28  1  1
 33 30  1  6
 30 38  1  0
 34 31  1  1
 31 39  1  0
 35 32  1  1
 32 40  1  0
 41 43  1  0
 15 19  2  0
 42 43  2  0
 16 22  2  0
 12 17  1  6
 17 19  1  0
 17 20  1  0
 18 19  1  0
 18 22  1  0
 18 23  1  0
  9 10  1  0
  9 11  1  0
 10 12  1  0
 11  5  1  6
 33 34  1  0
 33 35  1  0
 34 36  1  0
 35 37  1  0
 37 43  1  6
 20 21  2  0
 21 22  1  0
M  CHG  3   2  -1  26  -1  41  -1
M  END
>  <COMPND>  (92) 
    udp_gluA.pdb 

>  <AUTHOR>  (92) 
    GENERATED BY OPEN BABEL 3.1.1

>  <MASTER>  (92) 
        0    0    0    0    0    0    0    0   56    0   56    0

>  <minimizedAffinity>  (92) 
-6.82881

>  <CNNscore>  (92) 
0.7469800115

>  <CNNaffinity>  (92) 
4.3394441605

>  <CNN_VS>  (92) 
3.2414779663

>  <CNNaffinity_variance>  (92) 
0.0419895872

$$$$
93
     RDKit          3D

 43 45  0  0  0  0  0  0  0  0999 V2000
   21.3416   74.0057   -4.6686 P   0  0  2  0  0  0  0  0  0  0  0  0
   20.4247   75.3328   -4.7984 O   0  0  0  0  0  0  0  0  0  0  0  0
   21.6027   73.2872   -5.9599 O   0  0  0  0  0  0  0  0  0  0  0  0
   20.6076   73.1374   -3.5174 O   0  0  0  0  0  0  0  0  0  0  0  0
   20.1179   71.8512   -3.8495 C   0  0  0  0  0  0  0  0  0  0  0  0
   18.0813   72.1764   -5.0840 O   0  0  0  0  0  0  0  0  0  0  0  0
   16.7089   70.7411   -2.8372 O   0  0  0  0  0  0  0  0  0  0  0  0
   16.9158   68.8029   -4.7442 O   0  0  0  0  0  0  0  0  0  0  0  0
   18.0014   70.5132   -3.3993 C   0  0  1  0  0  0  0  0  0  0  0  0
   17.8745   69.8400   -4.7495 C   0  0  2  0  0  0  0  0  0  0  0  0
   18.5967   71.8642   -3.7717 C   0  0  1  0  0  0  0  0  0  0  0  0
   17.4752   71.0008   -5.6444 C   0  0  2  0  0  0  0  0  0  0  0  0
   16.3085   69.8921   -2.5914 H   0  0  0  0  0  0  0  0  0  0  0  0
   17.2161   68.0880   -4.1605 H   0  0  0  0  0  0  0  0  0  0  0  0
   15.8248   70.2632   -7.8143 O   0  0  0  0  0  0  0  0  0  0  0  0
   19.3513   70.3980  -10.7790 O   0  0  0  0  0  0  0  0  0  0  0  0
   17.9360   70.8360   -6.9940 N   0  0  0  0  0  0  0  0  0  0  0  0
   17.5830   70.3301   -9.2887 N   0  0  0  0  0  0  0  0  0  0  0  0
   17.0250   70.4631   -8.0104 C   0  0  0  0  0  0  0  0  0  0  0  0
   19.2754   71.0447   -7.2999 C   0  0  0  0  0  0  0  0  0  0  0  0
   19.7924   70.9142   -8.5232 C   0  0  0  0  0  0  0  0  0  0  0  0
   18.9083   70.5263   -9.6417 C   0  0  0  0  0  0  0  0  0  0  0  0
   16.9686   70.0691  -10.0124 H   0  0  0  0  0  0  0  0  0  0  0  0
   22.6672   74.5520   -3.9221 O   0  0  0  0  0  0  0  0  0  0  0  0
   23.9773   73.7745   -3.3811 P   0  0  2  0  0  0  0  0  0  0  0  0
   25.1690   74.8420   -3.6274 O   0  0  0  0  0  0  0  0  0  0  0  0
   24.2056   72.4348   -4.0191 O   0  0  0  0  0  0  0  0  0  0  0  0
   23.7946   73.7306   -1.7789 O   0  0  0  0  0  0  0  0  0  0  0  0
   23.6451   71.7948   -0.4225 O   0  0  0  0  0  0  0  0  0  0  0  0
   21.5198   74.5489    1.8059 O   0  0  0  0  0  0  0  0  0  0  0  0
   21.1880   74.4175   -1.0936 O   0  0  0  0  0  0  0  0  0  0  0  0
   24.2128   73.7955    2.6003 O   0  0  0  0  0  0  0  0  0  0  0  0
   22.5325   74.1070    0.9019 C   0  0  2  0  0  0  0  0  0  0  0  0
   21.8808   73.4491   -0.3146 C   0  0  2  0  0  0  0  0  0  0  0  0
   23.4190   73.1013    1.6398 C   0  0  1  0  0  0  0  0  0  0  0  0
   22.9283   72.7615   -1.1914 C   0  0  1  0  0  0  0  0  0  0  0  0
   24.3485   72.3671    0.6778 C   0  0  1  0  0  0  0  0  0  0  0  0
   20.9440   75.1891    1.3588 H   0  0  0  0  0  0  0  0  0  0  0  0
   20.5219   74.8580   -0.5434 H   0  0  0  0  0  0  0  0  0  0  0  0
   23.6332   74.2672    3.2186 H   0  0  0  0  0  0  0  0  0  0  0  0
   25.7574   70.5034    0.4699 O   0  0  0  0  0  0  0  0  0  0  0  0
   24.7825   70.8488    2.5020 O   0  0  0  0  0  0  0  0  0  0  0  0
   24.9632   71.1765    1.3389 C   0  0  0  0  0  0  0  0  0  0  0  0
  1  4  1  0
  1 24  1  0
  1  2  1  6
  1  3  2  0
 25 28  1  0
 25 24  1  0
 25 26  1  1
 25 27  2  0
  6 11  1  0
  6 12  1  0
 29 36  1  0
 29 37  1  0
  9  7  1  6
  7 13  1  0
 10  8  1  1
  8 14  1  0
  4  5  1  0
 36 28  1  1
 33 30  1  1
 30 38  1  0
 34 31  1  6
 31 39  1  0
 35 32  1  1
 32 40  1  0
 41 43  1  0
 15 19  2  0
 42 43  2  0
 16 22  2  0
 12 17  1  6
 17 19  1  0
 17 20  1  0
 18 19  1  0
 18 22  1  0
 18 23  1  0
  9 10  1  0
  9 11  1  0
 10 12  1  0
 11  5  1  6
 33 34  1  0
 33 35  1  0
 34 36  1  0
 35 37  1  0
 37 43  1  1
 20 21  2  0
 21 22  1  0
M  CHG  3   2  -1  26  -1  41  -1
M  END
>  <COMPND>  (93) 
    udp_gluA.pdb 

>  <AUTHOR>  (93) 
    GENERATED BY OPEN BABEL 3.1.1

>  <MASTER>  (93) 
        0    0    0    0    0    0    0    0   56    0   56    0

>  <minimizedAffinity>  (93) 
-7.03115

>  <CNNscore>  (93) 
0.7416766286

>  <CNNaffinity>  (93) 
4.4437317848

>  <CNN_VS>  (93) 
3.2958118916

>  <CNNaffinity_variance>  (93) 
0.0509902649

$$$$
94
     RDKit          3D

 43 45  0  0  0  0  0  0  0  0999 V2000
   21.8508   72.6374   -5.4364 P   0  0  2  0  0  0  0  0  0  0  0  0
   21.2596   74.1174   -5.1555 O   0  0  0  0  0  0  0  0  0  0  0  0
   23.0879   72.5998   -6.2849 O   0  0  0  0  0  0  0  0  0  0  0  0
   20.5810   71.8140   -6.0086 O   0  0  0  0  0  0  0  0  0  0  0  0
   20.1133   72.1118   -7.3113 C   0  0  0  0  0  0  0  0  0  0  0  0
   18.8657   70.1138   -6.8329 O   0  0  0  0  0  0  0  0  0  0  0  0
   18.2070   70.0479   -9.7575 O   0  0  0  0  0  0  0  0  0  0  0  0
   15.9343   71.0783   -8.6579 O   0  0  0  0  0  0  0  0  0  0  0  0
   18.3529   71.1718   -8.8892 C   0  0  1  0  0  0  0  0  0  0  0  0
   17.1523   71.2866   -7.9740 C   0  0  2  0  0  0  0  0  0  0  0  0
   19.4743   70.8637   -7.9064 C   0  0  1  0  0  0  0  0  0  0  0  0
   17.4366   70.2069   -6.9439 C   0  0  2  0  0  0  0  0  0  0  0  0
   17.4959   70.2213  -10.3946 H   0  0  0  0  0  0  0  0  0  0  0  0
   15.7989   71.7918   -9.3018 H   0  0  0  0  0  0  0  0  0  0  0  0
   16.5480   68.2829   -5.0770 O   0  0  0  0  0  0  0  0  0  0  0  0
   15.3482   71.5265   -2.0301 O   0  0  0  0  0  0  0  0  0  0  0  0
   16.8876   70.5210   -5.6551 N   0  0  0  0  0  0  0  0  0  0  0  0
   15.9503   69.9003   -3.5617 N   0  0  0  0  0  0  0  0  0  0  0  0
   16.4709   69.4796   -4.7926 C   0  0  0  0  0  0  0  0  0  0  0  0
   16.7681   71.8468   -5.2565 C   0  0  0  0  0  0  0  0  0  0  0  0
   16.2701   72.2322   -4.0800 C   0  0  0  0  0  0  0  0  0  0  0  0
   15.8109   71.2063   -3.1208 C   0  0  0  0  0  0  0  0  0  0  0  0
   15.6516   69.1932   -2.9451 H   0  0  0  0  0  0  0  0  0  0  0  0
   22.0360   72.0323   -3.9489 O   0  0  0  0  0  0  0  0  0  0  0  0
   23.2912   72.0823   -2.9314 P   0  0  2  0  0  0  0  0  0  0  0  0
   23.9175   73.5527   -3.1885 O   0  0  0  0  0  0  0  0  0  0  0  0
   24.2683   70.9554   -3.1029 O   0  0  0  0  0  0  0  0  0  0  0  0
   22.6258   72.1740   -1.4647 O   0  0  0  0  0  0  0  0  0  0  0  0
   23.9778   71.2174    0.2283 O   0  0  0  0  0  0  0  0  0  0  0  0
   20.4858   72.0101    2.2889 O   0  0  0  0  0  0  0  0  0  0  0  0
   20.3923   70.8953   -0.4098 O   0  0  0  0  0  0  0  0  0  0  0  0
   22.8134   73.7133    2.6525 O   0  0  0  0  0  0  0  0  0  0  0  0
   21.4911   72.2229    1.2979 C   0  0  2  0  0  0  0  0  0  0  0  0
   21.5711   71.0029    0.3798 C   0  0  2  0  0  0  0  0  0  0  0  0
   22.8254   72.4369    2.0161 C   0  0  1  0  0  0  0  0  0  0  0  0
   22.7845   71.0939   -0.5465 C   0  0  1  0  0  0  0  0  0  0  0  0
   23.9974   72.3895    1.0400 C   0  0  1  0  0  0  0  0  0  0  0  0
   19.6288   71.8717    1.8557 H   0  0  0  0  0  0  0  0  0  0  0  0
   19.6183   70.8375    0.1716 H   0  0  0  0  0  0  0  0  0  0  0  0
   22.0720   73.7567    3.2764 H   0  0  0  0  0  0  0  0  0  0  0  0
   25.8053   71.0198    1.6375 O   0  0  0  0  0  0  0  0  0  0  0  0
   25.8273   73.1659    2.4074 O   0  0  0  0  0  0  0  0  0  0  0  0
   25.2936   72.2683    1.7730 C   0  0  0  0  0  0  0  0  0  0  0  0
  1  4  1  0
  1 24  1  0
  1  2  1  1
  1  3  2  0
 25 28  1  0
 25 24  1  0
 25 26  1  6
 25 27  2  0
  6 11  1  0
  6 12  1  0
 29 36  1  0
 29 37  1  0
  9  7  1  6
  7 13  1  0
 10  8  1  6
  8 14  1  0
  4  5  1  0
 36 28  1  6
 33 30  1  1
 30 38  1  0
 34 31  1  6
 31 39  1  0
 35 32  1  6
 32 40  1  0
 41 43  1  0
 15 19  2  0
 42 43  2  0
 16 22  2  0
 12 17  1  1
 17 19  1  0
 17 20  1  0
 18 19  1  0
 18 22  1  0
 18 23  1  0
  9 10  1  0
  9 11  1  0
 10 12  1  0
 11  5  1  1
 33 34  1  0
 33 35  1  0
 34 36  1  0
 35 37  1  0
 37 43  1  1
 20 21  2  0
 21 22  1  0
M  CHG  3   2  -1  26  -1  41  -1
M  END
>  <COMPND>  (94) 
    udp_gluA.pdb 

>  <AUTHOR>  (94) 
    GENERATED BY OPEN BABEL 3.1.1

>  <MASTER>  (94) 
        0    0    0    0    0    0    0    0   56    0   56    0

>  <minimizedAffinity>  (94) 
-8.13845

>  <CNNscore>  (94) 
0.7412857413

>  <CNNaffinity>  (94) 
4.6096882820

>  <CNN_VS>  (94) 
3.4170961380

>  <CNNaffinity_variance>  (94) 
0.0928596333

$$$$
95
     RDKit          3D

 43 45  0  0  0  0  0  0  0  0999 V2000
   23.3798   73.7487   -4.1108 P   0  0  2  0  0  0  0  0  0  0  0  0
   24.2126   72.3666   -4.2340 O   0  0  0  0  0  0  0  0  0  0  0  0
   24.0289   74.9390   -4.7538 O   0  0  0  0  0  0  0  0  0  0  0  0
   23.0807   73.8821   -2.5263 O   0  0  0  0  0  0  0  0  0  0  0  0
   21.7671   73.6293   -2.0625 C   0  0  0  0  0  0  0  0  0  0  0  0
   22.9070   71.7326   -1.1241 O   0  0  0  0  0  0  0  0  0  0  0  0
   20.1891   70.5286   -0.7307 O   0  0  0  0  0  0  0  0  0  0  0  0
   20.8019   71.4443    1.7637 O   0  0  0  0  0  0  0  0  0  0  0  0
   20.5986   71.8917   -0.6176 C   0  0  1  0  0  0  0  0  0  0  0  0
   21.3885   72.0976    0.6575 C   0  0  2  0  0  0  0  0  0  0  0  0
   21.6476   72.1575   -1.6886 C   0  0  1  0  0  0  0  0  0  0  0  0
   22.7428   71.5179    0.2867 C   0  0  2  0  0  0  0  0  0  0  0  0
   19.5187   70.3350   -0.0562 H   0  0  0  0  0  0  0  0  0  0  0  0
   19.9423   71.8498    1.9602 H   0  0  0  0  0  0  0  0  0  0  0  0
   24.6777   70.1514    1.8246 O   0  0  0  0  0  0  0  0  0  0  0  0
   26.8393   74.0715    2.9221 O   0  0  0  0  0  0  0  0  0  0  0  0
   23.8222   72.1568    0.9849 N   0  0  0  0  0  0  0  0  0  0  0  0
   25.7519   72.1052    2.3706 N   0  0  0  0  0  0  0  0  0  0  0  0
   24.7399   71.3786    1.7294 C   0  0  0  0  0  0  0  0  0  0  0  0
   23.9647   73.5378    0.9270 C   0  0  0  0  0  0  0  0  0  0  0  0
   24.9345   74.2163    1.5434 C   0  0  0  0  0  0  0  0  0  0  0  0
   25.9342   73.4784    2.3430 C   0  0  0  0  0  0  0  0  0  0  0  0
   26.4016   71.5853    2.8967 H   0  0  0  0  0  0  0  0  0  0  0  0
   21.9352   73.3577   -4.7216 O   0  0  0  0  0  0  0  0  0  0  0  0
   21.3081   73.5867   -6.1940 P   0  0  2  0  0  0  0  0  0  0  0  0
   22.4121   72.9220   -7.1737 O   0  0  0  0  0  0  0  0  0  0  0  0
   20.9835   75.0182   -6.5092 O   0  0  0  0  0  0  0  0  0  0  0  0
   20.0466   72.5835   -6.2622 O   0  0  0  0  0  0  0  0  0  0  0  0
   19.7122   70.3963   -5.4176 O   0  0  0  0  0  0  0  0  0  0  0  0
   17.6052   70.2575   -8.9685 O   0  0  0  0  0  0  0  0  0  0  0  0
   20.2145   71.5653   -8.8450 O   0  0  0  0  0  0  0  0  0  0  0  0
   16.1891   70.4754   -6.4390 O   0  0  0  0  0  0  0  0  0  0  0  0
   18.1419   70.8674   -7.7947 C   0  0  2  0  0  0  0  0  0  0  0  0
   19.6666   70.7554   -7.8113 C   0  0  2  0  0  0  0  0  0  0  0  0
   17.5679   70.1379   -6.5780 C   0  0  1  0  0  0  0  0  0  0  0  0
   20.2617   71.1889   -6.4708 C   0  0  1  0  0  0  0  0  0  0  0  0
   18.2979   70.5313   -5.2970 C   0  0  1  0  0  0  0  0  0  0  0  0
   17.9560   70.7047   -9.7547 H   0  0  0  0  0  0  0  0  0  0  0  0
   19.8411   71.2959   -9.6985 H   0  0  0  0  0  0  0  0  0  0  0  0
   15.7131   70.2302   -7.2478 H   0  0  0  0  0  0  0  0  0  0  0  0
   18.9295   69.6124   -3.2335 O   0  0  0  0  0  0  0  0  0  0  0  0
   16.9617   68.8935   -4.1336 O   0  0  0  0  0  0  0  0  0  0  0  0
   17.9645   69.5897   -4.1859 C   0  0  0  0  0  0  0  0  0  0  0  0
  1  4  1  0
  1 24  1  0
  1  2  1  1
  1  3  2  0
 25 28  1  0
 25 24  1  0
 25 26  1  6
 25 27  2  0
  6 11  1  0
  6 12  1  0
 29 36  1  0
 29 37  1  0
  9  7  1  1
  7 13  1  0
 10  8  1  1
  8 14  1  0
  4  5  1  0
 36 28  1  1
 33 30  1  6
 30 38  1  0
 34 31  1  6
 31 39  1  0
 35 32  1  1
 32 40  1  0
 41 43  1  0
 15 19  2  0
 42 43  2  0
 16 22  2  0
 12 17  1  1
 17 19  1  0
 17 20  1  0
 18 19  1  0
 18 22  1  0
 18 23  1  0
  9 10  1  0
  9 11  1  0
 10 12  1  0
 11  5  1  1
 33 34  1  0
 33 35  1  0
 34 36  1  0
 35 37  1  0
 37 43  1  1
 20 21  2  0
 21 22  1  0
M  CHG  3   2  -1  26  -1  41  -1
M  END
>  <COMPND>  (95) 
    udp_gluA.pdb 

>  <AUTHOR>  (95) 
    GENERATED BY OPEN BABEL 3.1.1

>  <MASTER>  (95) 
        0    0    0    0    0    0    0    0   56    0   56    0

>  <minimizedAffinity>  (95) 
-7.67811

>  <CNNscore>  (95) 
0.7356519103

>  <CNNaffinity>  (95) 
4.4806571007

>  <CNN_VS>  (95) 
3.2962038517

>  <CNNaffinity_variance>  (95) 
0.1260241866

$$$$
96
     RDKit          3D

 43 45  0  0  0  0  0  0  0  0999 V2000
   21.9834   72.6402   -5.8293 P   0  0  2  0  0  0  0  0  0  0  0  0
   21.4612   74.1165   -5.4208 O   0  0  0  0  0  0  0  0  0  0  0  0
   23.1139   72.6186   -6.8159 O   0  0  0  0  0  0  0  0  0  0  0  0
   20.6384   71.8647   -6.2849 O   0  0  0  0  0  0  0  0  0  0  0  0
   20.1058   72.1320   -7.5691 C   0  0  0  0  0  0  0  0  0  0  0  0
   18.9917   70.0725   -7.0261 O   0  0  0  0  0  0  0  0  0  0  0  0
   18.1704   69.9732   -9.9083 O   0  0  0  0  0  0  0  0  0  0  0  0
   15.9148   70.8855   -8.6770 O   0  0  0  0  0  0  0  0  0  0  0  0
   18.3082   71.1031   -9.0464 C   0  0  1  0  0  0  0  0  0  0  0  0
   17.1578   71.1560   -8.0635 C   0  0  2  0  0  0  0  0  0  0  0  0
   19.4985   70.8528   -8.1305 C   0  0  1  0  0  0  0  0  0  0  0  0
   17.5557   70.0922   -7.0547 C   0  0  2  0  0  0  0  0  0  0  0  0
   17.4159   70.1100  -10.5031 H   0  0  0  0  0  0  0  0  0  0  0  0
   15.7063   71.5912   -9.3100 H   0  0  0  0  0  0  0  0  0  0  0  0
   16.3453   68.1878   -5.3562 O   0  0  0  0  0  0  0  0  0  0  0  0
   15.7154   71.2990   -2.0144 O   0  0  0  0  0  0  0  0  0  0  0  0
   17.0663   70.3775   -5.7356 N   0  0  0  0  0  0  0  0  0  0  0  0
   16.0318   69.7394   -3.6938 N   0  0  0  0  0  0  0  0  0  0  0  0
   16.4747   69.3492   -4.9645 C   0  0  0  0  0  0  0  0  0  0  0  0
   17.1760   71.6624   -5.2180 C   0  0  0  0  0  0  0  0  0  0  0  0
   16.7492   72.0192   -4.0050 C   0  0  0  0  0  0  0  0  0  0  0  0
   16.1183   71.0046   -3.1357 C   0  0  0  0  0  0  0  0  0  0  0  0
   15.6145   69.0411   -3.1392 H   0  0  0  0  0  0  0  0  0  0  0  0
   22.3243   71.9674   -4.3997 O   0  0  0  0  0  0  0  0  0  0  0  0
   23.5706   72.1868   -3.3935 P   0  0  2  0  0  0  0  0  0  0  0  0
   24.5285   73.2062   -4.2081 O   0  0  0  0  0  0  0  0  0  0  0  0
   24.2444   70.9166   -2.9618 O   0  0  0  0  0  0  0  0  0  0  0  0
   22.9700   73.0704   -2.1848 O   0  0  0  0  0  0  0  0  0  0  0  0
   21.1885   72.2502   -0.8573 O   0  0  0  0  0  0  0  0  0  0  0  0
   21.0265   76.3026   -0.0704 O   0  0  0  0  0  0  0  0  0  0  0  0
   21.4798   75.3393   -2.7909 O   0  0  0  0  0  0  0  0  0  0  0  0
   22.1379   74.4769    1.9000 O   0  0  0  0  0  0  0  0  0  0  0  0
   21.6553   75.0608   -0.3872 C   0  0  2  0  0  0  0  0  0  0  0  0
   21.0851   74.5181   -1.6979 C   0  0  2  0  0  0  0  0  0  0  0  0
   21.3781   74.0846    0.7583 C   0  0  1  0  0  0  0  0  0  0  0  0
   21.5629   73.0877   -1.9517 C   0  0  1  0  0  0  0  0  0  0  0  0
   21.7664   72.6580    0.3808 C   0  0  1  0  0  0  0  0  0  0  0  0
   21.1890   76.9390   -0.7845 H   0  0  0  0  0  0  0  0  0  0  0  0
   21.1801   76.2485   -2.6364 H   0  0  0  0  0  0  0  0  0  0  0  0
   21.9004   75.3834    2.1505 H   0  0  0  0  0  0  0  0  0  0  0  0
   21.0743   70.4537    0.7856 O   0  0  0  0  0  0  0  0  0  0  0  0
   20.8877   71.9355    2.5085 O   0  0  0  0  0  0  0  0  0  0  0  0
   21.1982   71.6781    1.3552 C   0  0  0  0  0  0  0  0  0  0  0  0
  1  4  1  0
  1 24  1  0
  1  2  1  1
  1  3  2  0
 25 28  1  0
 25 24  1  0
 25 26  1  6
 25 27  2  0
  6 11  1  0
  6 12  1  0
 29 36  1  0
 29 37  1  0
  9  7  1  6
  7 13  1  0
 10  8  1  6
  8 14  1  0
  4  5  1  0
 36 28  1  1
 33 30  1  1
 30 38  1  0
 34 31  1  6
 31 39  1  0
 35 32  1  1
 32 40  1  0
 41 43  1  0
 15 19  2  0
 42 43  2  0
 16 22  2  0
 12 17  1  1
 17 19  1  0
 17 20  1  0
 18 19  1  0
 18 22  1  0
 18 23  1  0
  9 10  1  0
  9 11  1  0
 10 12  1  0
 11  5  1  1
 33 34  1  0
 33 35  1  0
 34 36  1  0
 35 37  1  0
 37 43  1  1
 20 21  2  0
 21 22  1  0
M  CHG  3   2  -1  26  -1  41  -1
M  END
>  <COMPND>  (96) 
    udp_gluA.pdb 

>  <AUTHOR>  (96) 
    GENERATED BY OPEN BABEL 3.1.1

>  <MASTER>  (96) 
        0    0    0    0    0    0    0    0   56    0   56    0

>  <minimizedAffinity>  (96) 
-8.01647

>  <CNNscore>  (96) 
0.7010540962

>  <CNNaffinity>  (96) 
4.5073366165

>  <CNN_VS>  (96) 
3.1598868370

>  <CNNaffinity_variance>  (96) 
0.3676729798

$$$$
97
     RDKit          3D

 43 45  0  0  0  0  0  0  0  0999 V2000
   23.4888   71.9610   -3.2703 P   0  0  2  0  0  0  0  0  0  0  0  0
   24.1886   73.0750   -4.2128 O   0  0  0  0  0  0  0  0  0  0  0  0
   24.3614   70.7930   -2.9151 O   0  0  0  0  0  0  0  0  0  0  0  0
   22.1159   71.6016   -4.0474 O   0  0  0  0  0  0  0  0  0  0  0  0
   21.6659   72.4771   -5.0650 C   0  0  0  0  0  0  0  0  0  0  0  0
   20.7005   70.5088   -6.0506 O   0  0  0  0  0  0  0  0  0  0  0  0
   21.0355   71.8922   -8.6898 O   0  0  0  0  0  0  0  0  0  0  0  0
   18.3872   72.2617   -8.1553 O   0  0  0  0  0  0  0  0  0  0  0  0
   20.6967   72.4436   -7.4171 C   0  0  1  0  0  0  0  0  0  0  0  0
   19.2657   72.1004   -7.0613 C   0  0  2  0  0  0  0  0  0  0  0  0
   21.4799   71.6861   -6.3535 C   0  0  1  0  0  0  0  0  0  0  0  0
   19.3892   70.6522   -6.6192 C   0  0  2  0  0  0  0  0  0  0  0  0
   20.5472   72.3603   -9.3856 H   0  0  0  0  0  0  0  0  0  0  0  0
   18.3427   73.2003   -8.3985 H   0  0  0  0  0  0  0  0  0  0  0  0
   16.7515   69.8344   -7.2108 O   0  0  0  0  0  0  0  0  0  0  0  0
   15.7197   69.3073   -2.7496 O   0  0  0  0  0  0  0  0  0  0  0  0
   18.4104   70.2954   -5.6315 N   0  0  0  0  0  0  0  0  0  0  0  0
   16.2398   69.5736   -4.9883 N   0  0  0  0  0  0  0  0  0  0  0  0
   17.1134   69.8984   -6.0344 C   0  0  0  0  0  0  0  0  0  0  0  0
   18.7390   70.3390   -4.2821 C   0  0  0  0  0  0  0  0  0  0  0  0
   17.8955   70.0263   -3.2963 C   0  0  0  0  0  0  0  0  0  0  0  0
   16.5204   69.6022   -3.6318 C   0  0  0  0  0  0  0  0  0  0  0  0
   15.3304   69.2963   -5.2440 H   0  0  0  0  0  0  0  0  0  0  0  0
   22.9747   72.8266   -2.0057 O   0  0  0  0  0  0  0  0  0  0  0  0
   21.6680   72.6627   -1.0680 P   0  0  2  0  0  0  0  0  0  0  0  0
   21.3093   71.0901   -1.2052 O   0  0  0  0  0  0  0  0  0  0  0  0
   20.5385   73.5875   -1.4185 O   0  0  0  0  0  0  0  0  0  0  0  0
   22.2224   72.8239    0.4384 O   0  0  0  0  0  0  0  0  0  0  0  0
   23.7766   71.3278    1.4158 O   0  0  0  0  0  0  0  0  0  0  0  0
   22.0057   72.9994    4.7532 O   0  0  0  0  0  0  0  0  0  0  0  0
   20.3875   72.2352    2.4440 O   0  0  0  0  0  0  0  0  0  0  0  0
   24.6757   73.8231    3.9511 O   0  0  0  0  0  0  0  0  0  0  0  0
   22.4878   72.9715    3.4098 C   0  0  2  0  0  0  0  0  0  0  0  0
   21.7543   71.8834    2.6252 C   0  0  2  0  0  0  0  0  0  0  0  0
   23.9890   72.6769    3.4521 C   0  0  1  0  0  0  0  0  0  0  0  0
   22.3989   71.6679    1.2553 C   0  0  1  0  0  0  0  0  0  0  0  0
   24.5317   72.3490    2.0641 C   0  0  1  0  0  0  0  0  0  0  0  0
   21.0534   73.1850    4.7513 H   0  0  0  0  0  0  0  0  0  0  0  0
   19.9723   72.3738    3.3093 H   0  0  0  0  0  0  0  0  0  0  0  0
   24.3395   74.0425    4.8341 H   0  0  0  0  0  0  0  0  0  0  0  0
   26.0330   70.7302    1.2722 O   0  0  0  0  0  0  0  0  0  0  0  0
   26.7764   72.1212    2.9189 O   0  0  0  0  0  0  0  0  0  0  0  0
   25.8970   71.7493    2.1565 C   0  0  0  0  0  0  0  0  0  0  0  0
  1  4  1  0
  1 24  1  0
  1  2  1  6
  1  3  2  0
 25 28  1  0
 25 24  1  0
 25 26  1  1
 25 27  2  0
  6 11  1  0
  6 12  1  0
 29 36  1  0
 29 37  1  0
  9  7  1  6
  7 13  1  0
 10  8  1  6
  8 14  1  0
  4  5  1  0
 36 28  1  6
 33 30  1  1
 30 38  1  0
 34 31  1  6
 31 39  1  0
 35 32  1  6
 32 40  1  0
 41 43  1  0
 15 19  2  0
 42 43  2  0
 16 22  2  0
 12 17  1  1
 17 19  1  0
 17 20  1  0
 18 19  1  0
 18 22  1  0
 18 23  1  0
  9 10  1  0
  9 11  1  0
 10 12  1  0
 11  5  1  1
 33 34  1  0
 33 35  1  0
 34 36  1  0
 35 37  1  0
 37 43  1  1
 20 21  2  0
 21 22  1  0
M  CHG  3   2  -1  26  -1  41  -1
M  END
>  <COMPND>  (97) 
    udp_gluA.pdb 

>  <AUTHOR>  (97) 
    GENERATED BY OPEN BABEL 3.1.1

>  <MASTER>  (97) 
        0    0    0    0    0    0    0    0   56    0   56    0

>  <minimizedAffinity>  (97) 
-7.79746

>  <CNNscore>  (97) 
0.6610937715

>  <CNNaffinity>  (97) 
4.3876590729

>  <CNN_VS>  (97) 
2.9006540775

>  <CNNaffinity_variance>  (97) 
0.1409286410

$$$$
98
     RDKit          3D

 43 45  0  0  0  0  0  0  0  0999 V2000
   20.3980   72.0212   -0.7466 P   0  0  2  0  0  0  0  0  0  0  0  0
   20.7795   70.8767    0.3320 O   0  0  0  0  0  0  0  0  0  0  0  0
   19.0601   72.6679   -0.5377 O   0  0  0  0  0  0  0  0  0  0  0  0
   20.6116   71.2945   -2.1763 O   0  0  0  0  0  0  0  0  0  0  0  0
   20.3932   72.0460   -3.3562 C   0  0  0  0  0  0  0  0  0  0  0  0
   20.8156   70.7245   -5.3190 O   0  0  0  0  0  0  0  0  0  0  0  0
   23.2030   72.4837   -5.7627 O   0  0  0  0  0  0  0  0  0  0  0  0
   21.3757   73.5075   -7.5089 O   0  0  0  0  0  0  0  0  0  0  0  0
   21.9174   72.8199   -5.2404 C   0  0  1  0  0  0  0  0  0  0  0  0
   20.8920   72.8545   -6.3538 C   0  0  2  0  0  0  0  0  0  0  0  0
   21.4323   71.6489   -4.3968 C   0  0  1  0  0  0  0  0  0  0  0  0
   20.6276   71.3765   -6.5850 C   0  0  2  0  0  0  0  0  0  0  0  0
   23.5337   73.2170   -6.3055 H   0  0  0  0  0  0  0  0  0  0  0  0
   21.5281   74.4452   -7.3103 H   0  0  0  0  0  0  0  0  0  0  0  0
   19.9736   69.6115   -8.6907 O   0  0  0  0  0  0  0  0  0  0  0  0
   15.4682   70.4874   -8.2695 O   0  0  0  0  0  0  0  0  0  0  0  0
   19.2916   71.1244   -7.0462 N   0  0  0  0  0  0  0  0  0  0  0  0
   17.7304   70.0502   -8.4796 N   0  0  0  0  0  0  0  0  0  0  0  0
   19.0716   70.2194   -8.1113 C   0  0  0  0  0  0  0  0  0  0  0  0
   18.2172   71.7684   -6.4446 C   0  0  0  0  0  0  0  0  0  0  0  0
   16.9443   71.5968   -6.8066 C   0  0  0  0  0  0  0  0  0  0  0  0
   16.6281   70.6686   -7.9119 C   0  0  0  0  0  0  0  0  0  0  0  0
   17.5524   69.4265   -9.2203 H   0  0  0  0  0  0  0  0  0  0  0  0
   21.6556   73.0332   -0.6620 O   0  0  0  0  0  0  0  0  0  0  0  0
   23.1461   72.8270   -0.0708 P   0  0  2  0  0  0  0  0  0  0  0  0
   23.9704   74.0676   -0.7047 O   0  0  0  0  0  0  0  0  0  0  0  0
   23.7410   71.4786   -0.3571 O   0  0  0  0  0  0  0  0  0  0  0  0
   23.0173   73.1825    1.4974 O   0  0  0  0  0  0  0  0  0  0  0  0
   24.8142   72.6881    2.9589 O   0  0  0  0  0  0  0  0  0  0  0  0
   21.6975   73.2371    5.6145 O   0  0  0  0  0  0  0  0  0  0  0  0
   21.2853   71.7488    3.1347 O   0  0  0  0  0  0  0  0  0  0  0  0
   23.7178   75.3019    5.2887 O   0  0  0  0  0  0  0  0  0  0  0  0
   22.4416   73.4541    4.4157 C   0  0  2  0  0  0  0  0  0  0  0  0
   22.5562   72.1417    3.6398 C   0  0  2  0  0  0  0  0  0  0  0  0
   23.8304   73.9641    4.8069 C   0  0  1  0  0  0  0  0  0  0  0  0
   23.5350   72.2797    2.4729 C   0  0  1  0  0  0  0  0  0  0  0  0
   24.7838   73.9534    3.6155 C   0  0  1  0  0  0  0  0  0  0  0  0
   20.8110   72.9126    5.3907 H   0  0  0  0  0  0  0  0  0  0  0  0
   20.6591   71.6596    3.8698 H   0  0  0  0  0  0  0  0  0  0  0  0
   23.1134   75.3226    6.0471 H   0  0  0  0  0  0  0  0  0  0  0  0
   27.0218   73.2849    3.4010 O   0  0  0  0  0  0  0  0  0  0  0  0
   26.5681   74.9301    4.9131 O   0  0  0  0  0  0  0  0  0  0  0  0
   26.1973   74.1319    4.0656 C   0  0  0  0  0  0  0  0  0  0  0  0
  1  4  1  0
  1 24  1  0
  1  2  1  1
  1  3  2  0
 25 28  1  0
 25 24  1  0
 25 26  1  6
 25 27  2  0
  6 11  1  0
  6 12  1  0
 29 36  1  0
 29 37  1  0
  9  7  1  6
  7 13  1  0
 10  8  1  6
  8 14  1  0
  4  5  1  0
 36 28  1  6
 33 30  1  1
 30 38  1  0
 34 31  1  6
 31 39  1  0
 35 32  1  6
 32 40  1  0
 41 43  1  0
 15 19  2  0
 42 43  2  0
 16 22  2  0
 12 17  1  1
 17 19  1  0
 17 20  1  0
 18 19  1  0
 18 22  1  0
 18 23  1  0
  9 10  1  0
  9 11  1  0
 10 12  1  0
 11  5  1  1
 33 34  1  0
 33 35  1  0
 34 36  1  0
 35 37  1  0
 37 43  1  1
 20 21  2  0
 21 22  1  0
M  CHG  3   2  -1  26  -1  41  -1
M  END
>  <COMPND>  (98) 
    udp_gluA.pdb 

>  <AUTHOR>  (98) 
    GENERATED BY OPEN BABEL 3.1.1

>  <MASTER>  (98) 
        0    0    0    0    0    0    0    0   56    0   56    0

>  <minimizedAffinity>  (98) 
-7.02054

>  <CNNscore>  (98) 
0.6358206868

>  <CNNaffinity>  (98) 
4.2456808090

>  <CNN_VS>  (98) 
2.6994917393

>  <CNNaffinity_variance>  (98) 
0.0856359825

$$$$
99
     RDKit          3D

 43 45  0  0  0  0  0  0  0  0999 V2000
   21.6949   72.8378   -5.4496 P   0  0  2  0  0  0  0  0  0  0  0  0
   21.3119   74.4080   -5.5304 O   0  0  0  0  0  0  0  0  0  0  0  0
   22.9908   72.4670   -6.1091 O   0  0  0  0  0  0  0  0  0  0  0  0
   20.3783   72.0870   -6.0159 O   0  0  0  0  0  0  0  0  0  0  0  0
   19.9928   72.3187   -7.3584 C   0  0  0  0  0  0  0  0  0  0  0  0
   18.9552   70.2050   -6.8756 O   0  0  0  0  0  0  0  0  0  0  0  0
   18.2378   70.1032   -9.7853 O   0  0  0  0  0  0  0  0  0  0  0  0
   15.9026   70.8987   -8.6233 O   0  0  0  0  0  0  0  0  0  0  0  0
   18.2949   71.2278   -8.9074 C   0  0  1  0  0  0  0  0  0  0  0  0
   17.1105   71.2173   -7.9645 C   0  0  2  0  0  0  0  0  0  0  0  0
   19.4634   71.0203   -7.9536 C   0  0  1  0  0  0  0  0  0  0  0  0
   17.5216   70.1605   -6.9535 C   0  0  2  0  0  0  0  0  0  0  0  0
   17.4986   70.2131  -10.4043 H   0  0  0  0  0  0  0  0  0  0  0  0
   15.6841   71.6017   -9.2557 H   0  0  0  0  0  0  0  0  0  0  0  0
   16.4169   68.1688   -5.2833 O   0  0  0  0  0  0  0  0  0  0  0  0
   15.4540   71.2241   -1.9694 O   0  0  0  0  0  0  0  0  0  0  0  0
   16.9751   70.4078   -5.6493 N   0  0  0  0  0  0  0  0  0  0  0  0
   15.9374   69.6926   -3.6348 N   0  0  0  0  0  0  0  0  0  0  0  0
   16.4445   69.3370   -4.8916 C   0  0  0  0  0  0  0  0  0  0  0  0
   16.9698   71.6978   -5.1327 C   0  0  0  0  0  0  0  0  0  0  0  0
   16.4832   72.0212   -3.9330 C   0  0  0  0  0  0  0  0  0  0  0  0
   15.9095   70.9611   -3.0783 C   0  0  0  0  0  0  0  0  0  0  0  0
   15.5608   68.9643   -3.0898 H   0  0  0  0  0  0  0  0  0  0  0  0
   21.6344   72.5307   -3.8637 O   0  0  0  0  0  0  0  0  0  0  0  0
   21.9886   71.1934   -3.0273 P   0  0  2  0  0  0  0  0  0  0  0  0
   23.6017   71.1082   -3.1315 O   0  0  0  0  0  0  0  0  0  0  0  0
   21.2724   69.9623   -3.5021 O   0  0  0  0  0  0  0  0  0  0  0  0
   21.7001   71.5843   -1.4890 O   0  0  0  0  0  0  0  0  0  0  0  0
   21.5131   73.6881   -0.4175 O   0  0  0  0  0  0  0  0  0  0  0  0
   23.2587   71.3909    2.5395 O   0  0  0  0  0  0  0  0  0  0  0  0
   24.1454   71.1575   -0.2343 O   0  0  0  0  0  0  0  0  0  0  0  0
   20.4374   72.0740    2.6970 O   0  0  0  0  0  0  0  0  0  0  0  0
   22.4270   71.6453    1.4074 C   0  0  2  0  0  0  0  0  0  0  0  0
   23.2799   72.1756    0.2547 C   0  0  2  0  0  0  0  0  0  0  0  0
   21.3784   72.6828    1.8147 C   0  0  1  0  0  0  0  0  0  0  0  0
   22.4001   72.6746   -0.8924 C   0  0  1  0  0  0  0  0  0  0  0  0
   20.6291   73.2239    0.6005 C   0  0  1  0  0  0  0  0  0  0  0  0
   23.9331   70.7342    2.3044 H   0  0  0  0  0  0  0  0  0  0  0  0
   24.7064   70.8361    0.4884 H   0  0  0  0  0  0  0  0  0  0  0  0
   20.9015   71.7253    3.4741 H   0  0  0  0  0  0  0  0  0  0  0  0
   18.5699   74.1370    1.2542 O   0  0  0  0  0  0  0  0  0  0  0  0
   20.3109   75.5845    0.9849 O   0  0  0  0  0  0  0  0  0  0  0  0
   19.8554   74.4510    0.9581 C   0  0  0  0  0  0  0  0  0  0  0  0
  1  4  1  0
  1 24  1  0
  1  2  1  1
  1  3  2  0
 25 28  1  0
 25 24  1  0
 25 26  1  1
 25 27  2  0
  6 11  1  0
  6 12  1  0
 29 36  1  0
 29 37  1  0
  9  7  1  6
  7 13  1  0
 10  8  1  6
  8 14  1  0
  4  5  1  0
 36 28  1  1
 33 30  1  1
 30 38  1  0
 34 31  1  6
 31 39  1  0
 35 32  1  1
 32 40  1  0
 41 43  1  0
 15 19  2  0
 42 43  2  0
 16 22  2  0
 12 17  1  1
 17 19  1  0
 17 20  1  0
 18 19  1  0
 18 22  1  0
 18 23  1  0
  9 10  1  0
  9 11  1  0
 10 12  1  0
 11  5  1  1
 33 34  1  0
 33 35  1  0
 34 36  1  0
 35 37  1  0
 37 43  1  1
 20 21  2  0
 21 22  1  0
M  CHG  3   2  -1  26  -1  41  -1
M  END
>  <COMPND>  (99) 
    udp_gluA.pdb 

>  <AUTHOR>  (99) 
    GENERATED BY OPEN BABEL 3.1.1

>  <MASTER>  (99) 
        0    0    0    0    0    0    0    0   56    0   56    0

>  <minimizedAffinity>  (99) 
-7.18377

>  <CNNscore>  (99) 
0.6093698144

>  <CNNaffinity>  (99) 
4.4862241745

>  <CNN_VS>  (99) 
2.7337696552

>  <CNNaffinity_variance>  (99) 
0.2389706671

$$$$
100
     RDKit          3D

 43 45  0  0  0  0  0  0  0  0999 V2000
   21.9397   72.6720   -5.7647 P   0  0  2  0  0  0  0  0  0  0  0  0
   21.3412   73.8649   -4.8494 O   0  0  0  0  0  0  0  0  0  0  0  0
   22.8809   73.1146   -6.8463 O   0  0  0  0  0  0  0  0  0  0  0  0
   20.6267   71.8675   -6.2616 O   0  0  0  0  0  0  0  0  0  0  0  0
   20.1756   72.0640   -7.5892 C   0  0  0  0  0  0  0  0  0  0  0  0
   18.9492   70.1031   -6.9348 O   0  0  0  0  0  0  0  0  0  0  0  0
   18.1413   69.8749   -9.8134 O   0  0  0  0  0  0  0  0  0  0  0  0
   15.9305   70.9783   -8.6598 O   0  0  0  0  0  0  0  0  0  0  0  0
   18.3344   71.0455   -9.0191 C   0  0  1  0  0  0  0  0  0  0  0  0
   17.1825   71.2185   -8.0519 C   0  0  2  0  0  0  0  0  0  0  0  0
   19.5039   70.7876   -8.0789 C   0  0  1  0  0  0  0  0  0  0  0  0
   17.5165   70.1974   -6.9778 C   0  0  2  0  0  0  0  0  0  0  0  0
   17.3989   70.0157  -10.4223 H   0  0  0  0  0  0  0  0  0  0  0  0
   15.7641   71.6547   -9.3356 H   0  0  0  0  0  0  0  0  0  0  0  0
   16.6681   68.3889   -4.9813 O   0  0  0  0  0  0  0  0  0  0  0  0
   15.6887   71.8048   -2.0460 O   0  0  0  0  0  0  0  0  0  0  0  0
   17.0351   70.5871   -5.6827 N   0  0  0  0  0  0  0  0  0  0  0  0
   16.1801   70.0920   -3.5216 N   0  0  0  0  0  0  0  0  0  0  0  0
   16.6332   69.5994   -4.7525 C   0  0  0  0  0  0  0  0  0  0  0  0
   16.9663   71.9331   -5.3444 C   0  0  0  0  0  0  0  0  0  0  0  0
   16.5323   72.3873   -4.1671 C   0  0  0  0  0  0  0  0  0  0  0  0
   16.0928   71.4209   -3.1394 C   0  0  0  0  0  0  0  0  0  0  0  0
   15.8930   69.4234   -2.8585 H   0  0  0  0  0  0  0  0  0  0  0  0
   22.5892   71.6698   -4.6754 O   0  0  0  0  0  0  0  0  0  0  0  0
   23.4687   71.9666   -3.3517 P   0  0  2  0  0  0  0  0  0  0  0  0
   24.2118   73.3603   -3.7062 O   0  0  0  0  0  0  0  0  0  0  0  0
   24.3971   70.8514   -2.9664 O   0  0  0  0  0  0  0  0  0  0  0  0
   22.3869   72.3580   -2.2208 O   0  0  0  0  0  0  0  0  0  0  0  0
   21.8405   71.1604   -0.2520 O   0  0  0  0  0  0  0  0  0  0  0  0
   18.2791   73.0826   -1.0824 O   0  0  0  0  0  0  0  0  0  0  0  0
   19.8422   71.8677   -3.2307 O   0  0  0  0  0  0  0  0  0  0  0  0
   19.9910   74.0444    1.0613 O   0  0  0  0  0  0  0  0  0  0  0  0
   19.6974   72.9231   -1.0510 C   0  0  2  0  0  0  0  0  0  0  0  0
   20.0897   71.6754   -1.8427 C   0  0  2  0  0  0  0  0  0  0  0  0
   20.1251   72.7817    0.4116 C   0  0  1  0  0  0  0  0  0  0  0  0
   21.5689   71.3428   -1.6421 C   0  0  1  0  0  0  0  0  0  0  0  0
   21.5770   72.3260    0.5258 C   0  0  1  0  0  0  0  0  0  0  0  0
   17.9842   73.1744   -2.0021 H   0  0  0  0  0  0  0  0  0  0  0  0
   18.9055   72.0794   -3.3653 H   0  0  0  0  0  0  0  0  0  0  0  0
   19.0714   74.3458    0.9956 H   0  0  0  0  0  0  0  0  0  0  0  0
   20.7667   71.9000    2.6853 O   0  0  0  0  0  0  0  0  0  0  0  0
   22.9867   71.5333    2.3163 O   0  0  0  0  0  0  0  0  0  0  0  0
   21.8841   71.8773    1.9174 C   0  0  0  0  0  0  0  0  0  0  0  0
  1  4  1  0
  1 24  1  0
  1  2  1  1
  1  3  2  0
 25 28  1  0
 25 24  1  0
 25 26  1  6
 25 27  2  0
  6 11  1  0
  6 12  1  0
 29 36  1  0
 29 37  1  0
  9  7  1  6
  7 13  1  0
 10  8  1  6
  8 14  1  0
  4  5  1  0
 36 28  1  1
 33 30  1  1
 30 38  1  0
 34 31  1  6
 31 39  1  0
 35 32  1  1
 32 40  1  0
 41 43  1  0
 15 19  2  0
 42 43  2  0
 16 22  2  0
 12 17  1  1
 17 19  1  0
 17 20  1  0
 18 19  1  0
 18 22  1  0
 18 23  1  0
  9 10  1  0
  9 11  1  0
 10 12  1  0
 11  5  1  1
 33 34  1  0
 33 35  1  0
 34 36  1  0
 35 37  1  0
 37 43  1  1
 20 21  2  0
 21 22  1  0
M  CHG  3   2  -1  26  -1  41  -1
M  END
>  <COMPND>  (100) 
    udp_gluA.pdb 

>  <AUTHOR>  (100) 
    GENERATED BY OPEN BABEL 3.1.1

>  <MASTER>  (100) 
        0    0    0    0    0    0    0    0   56    0   56    0

>  <minimizedAffinity>  (100) 
-7.37735

>  <CNNscore>  (100) 
0.5719690919

>  <CNNaffinity>  (100) 
4.2943921089

>  <CNN_VS>  (100) 
2.4562594891

>  <CNNaffinity_variance>  (100) 
0.4582954347

$$$$
101
     RDKit          3D

 43 45  0  0  0  0  0  0  0  0999 V2000
   22.6045   71.7718   -2.8773 P   0  0  2  0  0  0  0  0  0  0  0  0
   22.4329   73.3432   -2.5306 O   0  0  0  0  0  0  0  0  0  0  0  0
   23.9819   71.3658   -3.3128 O   0  0  0  0  0  0  0  0  0  0  0  0
   21.4171   71.4756   -3.9358 O   0  0  0  0  0  0  0  0  0  0  0  0
   20.5664   70.3677   -3.7050 C   0  0  0  0  0  0  0  0  0  0  0  0
   18.7403   71.5436   -4.7348 O   0  0  0  0  0  0  0  0  0  0  0  0
   16.9970   70.2911   -2.6411 O   0  0  0  0  0  0  0  0  0  0  0  0
   16.5143   68.7346   -4.8275 O   0  0  0  0  0  0  0  0  0  0  0  0
   18.1299   69.7462   -3.3179 C   0  0  1  0  0  0  0  0  0  0  0  0
   17.7654   69.3842   -4.7421 C   0  0  2  0  0  0  0  0  0  0  0  0
   19.1391   70.8677   -3.5225 C   0  0  1  0  0  0  0  0  0  0  0  0
   17.7669   70.7422   -5.4229 C   0  0  2  0  0  0  0  0  0  0  0  0
   16.3381   69.5930   -2.4990 H   0  0  0  0  0  0  0  0  0  0  0  0
   16.5652   67.8750   -4.3798 H   0  0  0  0  0  0  0  0  0  0  0  0
   15.9727   70.0727   -7.4988 O   0  0  0  0  0  0  0  0  0  0  0  0
   19.2581   70.4545  -10.7089 O   0  0  0  0  0  0  0  0  0  0  0  0
   18.1268   70.6594   -6.8102 N   0  0  0  0  0  0  0  0  0  0  0  0
   17.6109   70.2625   -9.0955 N   0  0  0  0  0  0  0  0  0  0  0  0
   17.1495   70.3147   -7.7736 C   0  0  0  0  0  0  0  0  0  0  0  0
   19.4336   70.9195   -7.2044 C   0  0  0  0  0  0  0  0  0  0  0  0
   19.8585   70.8659   -8.4683 C   0  0  0  0  0  0  0  0  0  0  0  0
   18.9005   70.5122   -9.5362 C   0  0  0  0  0  0  0  0  0  0  0  0
   16.9491   70.0226   -9.7838 H   0  0  0  0  0  0  0  0  0  0  0  0
   22.0818   71.0441   -1.5319 O   0  0  0  0  0  0  0  0  0  0  0  0
   21.5114   71.6549   -0.1480 P   0  0  2  0  0  0  0  0  0  0  0  0
   20.9154   70.3557    0.6118 O   0  0  0  0  0  0  0  0  0  0  0  0
   20.5252   72.7724   -0.3282 O   0  0  0  0  0  0  0  0  0  0  0  0
   22.8269   72.0527    0.6968 O   0  0  0  0  0  0  0  0  0  0  0  0
   24.4288   71.2655    2.2536 O   0  0  0  0  0  0  0  0  0  0  0  0
   22.7243   74.4114    4.3191 O   0  0  0  0  0  0  0  0  0  0  0  0
   21.0557   72.5753    2.7766 O   0  0  0  0  0  0  0  0  0  0  0  0
   25.3593   74.7056    3.1269 O   0  0  0  0  0  0  0  0  0  0  0  0
   23.1703   73.6995    3.1648 C   0  0  2  0  0  0  0  0  0  0  0  0
   22.4319   72.3641    3.0702 C   0  0  2  0  0  0  0  0  0  0  0  0
   24.6762   73.4662    3.3057 C   0  0  1  0  0  0  0  0  0  0  0  0
   23.0424   71.4772    1.9841 C   0  0  1  0  0  0  0  0  0  0  0  0
   25.1860   72.4737    2.2648 C   0  0  1  0  0  0  0  0  0  0  0  0
   21.7697   74.5711    4.2518 H   0  0  0  0  0  0  0  0  0  0  0  0
   20.6621   73.1376    3.4616 H   0  0  0  0  0  0  0  0  0  0  0  0
   25.0439   75.3463    3.7833 H   0  0  0  0  0  0  0  0  0  0  0  0
   26.8326   70.8252    1.9957 O   0  0  0  0  0  0  0  0  0  0  0  0
   27.3430   72.5956    3.3390 O   0  0  0  0  0  0  0  0  0  0  0  0
   26.5620   72.0040    2.6089 C   0  0  0  0  0  0  0  0  0  0  0  0
  1  4  1  0
  1 24  1  0
  1  2  1  1
  1  3  2  0
 25 28  1  0
 25 24  1  0
 25 26  1  1
 25 27  2  0
  6 11  1  0
  6 12  1  0
 29 36  1  0
 29 37  1  0
  9  7  1  1
  7 13  1  0
 10  8  1  1
  8 14  1  0
  4  5  1  0
 36 28  1  6
 33 30  1  1
 30 38  1  0
 34 31  1  6
 31 39  1  0
 35 32  1  6
 32 40  1  0
 41 43  1  0
 15 19  2  0
 42 43  2  0
 16 22  2  0
 12 17  1  6
 17 19  1  0
 17 20  1  0
 18 19  1  0
 18 22  1  0
 18 23  1  0
  9 10  1  0
  9 11  1  0
 10 12  1  0
 11  5  1  6
 33 34  1  0
 33 35  1  0
 34 36  1  0
 35 37  1  0
 37 43  1  1
 20 21  2  0
 21 22  1  0
M  CHG  3   2  -1  26  -1  41  -1
M  END
>  <COMPND>  (101) 
    udp_gluA.pdb 

>  <AUTHOR>  (101) 
    GENERATED BY OPEN BABEL 3.1.1

>  <MASTER>  (101) 
        0    0    0    0    0    0    0    0   56    0   56    0

>  <minimizedAffinity>  (101) 
-8.02330

>  <CNNscore>  (101) 
0.9412717223

>  <CNNaffinity>  (101) 
4.8706693649

>  <CNN_VS>  (101) 
4.5846233368

>  <CNNaffinity_variance>  (101) 
0.0378998034

$$$$
102
     RDKit          3D

 43 45  0  0  0  0  0  0  0  0999 V2000
   21.8502   72.5812   -4.7913 P   0  0  2  0  0  0  0  0  0  0  0  0
   20.9623   73.9137   -5.0261 O   0  0  0  0  0  0  0  0  0  0  0  0
   23.0834   72.4839   -5.6408 O   0  0  0  0  0  0  0  0  0  0  0  0
   20.7873   71.3723   -4.9547 O   0  0  0  0  0  0  0  0  0  0  0  0
   20.1915   70.8337   -3.7887 C   0  0  0  0  0  0  0  0  0  0  0  0
   18.3807   71.8466   -5.0023 O   0  0  0  0  0  0  0  0  0  0  0  0
   16.5745   70.6850   -2.9095 O   0  0  0  0  0  0  0  0  0  0  0  0
   16.2746   68.9452   -4.9877 O   0  0  0  0  0  0  0  0  0  0  0  0
   17.7635   70.1391   -3.4810 C   0  0  1  0  0  0  0  0  0  0  0  0
   17.4928   69.6529   -4.8891 C   0  0  2  0  0  0  0  0  0  0  0  0
   18.7379   71.2841   -3.7211 C   0  0  1  0  0  0  0  0  0  0  0  0
   17.4788   70.9532   -5.6745 C   0  0  2  0  0  0  0  0  0  0  0  0
   15.9365   69.9721   -2.7470 H   0  0  0  0  0  0  0  0  0  0  0  0
   16.3342   68.1256   -4.4712 H   0  0  0  0  0  0  0  0  0  0  0  0
   15.8072   70.1387   -7.8002 O   0  0  0  0  0  0  0  0  0  0  0  0
   19.2714   70.3189  -10.8351 O   0  0  0  0  0  0  0  0  0  0  0  0
   17.9179   70.7793   -7.0302 N   0  0  0  0  0  0  0  0  0  0  0  0
   17.5344   70.2283   -9.3095 N   0  0  0  0  0  0  0  0  0  0  0  0
   16.9977   70.3668   -8.0227 C   0  0  0  0  0  0  0  0  0  0  0  0
   19.2452   71.0181   -7.3654 C   0  0  0  0  0  0  0  0  0  0  0  0
   19.7419   70.8819   -8.5964 C   0  0  0  0  0  0  0  0  0  0  0  0
   18.8470   70.4534   -9.6914 C   0  0  0  0  0  0  0  0  0  0  0  0
   16.9133   69.9400  -10.0170 H   0  0  0  0  0  0  0  0  0  0  0  0
   22.1295   72.6070   -3.1994 O   0  0  0  0  0  0  0  0  0  0  0  0
   23.4789   72.3283   -2.3539 P   0  0  2  0  0  0  0  0  0  0  0  0
   24.3056   73.7112   -2.5102 O   0  0  0  0  0  0  0  0  0  0  0  0
   24.2340   71.1044   -2.7849 O   0  0  0  0  0  0  0  0  0  0  0  0
   23.0005   72.3119   -0.8133 O   0  0  0  0  0  0  0  0  0  0  0  0
   24.3868   71.1271    0.6979 O   0  0  0  0  0  0  0  0  0  0  0  0
   21.0043   71.7643    2.9828 O   0  0  0  0  0  0  0  0  0  0  0  0
   20.7708   70.9778    0.1790 O   0  0  0  0  0  0  0  0  0  0  0  0
   23.3965   73.3504    3.4436 O   0  0  0  0  0  0  0  0  0  0  0  0
   21.9764   72.0655    1.9817 C   0  0  2  0  0  0  0  0  0  0  0  0
   21.9823   70.9603    0.9252 C   0  0  2  0  0  0  0  0  0  0  0  0
   23.3437   72.1579    2.6628 C   0  0  1  0  0  0  0  0  0  0  0  0
   23.1610   71.1274   -0.0348 C   0  0  1  0  0  0  0  0  0  0  0  0
   24.4747   72.1946    1.6391 C   0  0  1  0  0  0  0  0  0  0  0  0
   20.1271   71.7006    2.5732 H   0  0  0  0  0  0  0  0  0  0  0  0
   20.0187   70.8725    0.7819 H   0  0  0  0  0  0  0  0  0  0  0  0
   22.6816   73.3397    4.0990 H   0  0  0  0  0  0  0  0  0  0  0  0
   26.1635   73.0286    3.0370 O   0  0  0  0  0  0  0  0  0  0  0  0
   26.4545   70.9311    2.1915 O   0  0  0  0  0  0  0  0  0  0  0  0
   25.7941   71.9536    2.2974 C   0  0  0  0  0  0  0  0  0  0  0  0
  1  4  1  0
  1 24  1  0
  1  2  1  6
  1  3  2  0
 25 28  1  0
 25 24  1  0
 25 26  1  1
 25 27  2  0
  6 11  1  0
  6 12  1  0
 29 36  1  0
 29 37  1  0
  9  7  1  6
  7 13  1  0
 10  8  1  1
  8 14  1  0
  4  5  1  0
 36 28  1  1
 33 30  1  1
 30 38  1  0
 34 31  1  6
 31 39  1  0
 35 32  1  6
 32 40  1  0
 41 43  1  0
 15 19  2  0
 42 43  2  0
 16 22  2  0
 12 17  1  6
 17 19  1  0
 17 20  1  0
 18 19  1  0
 18 22  1  0
 18 23  1  0
  9 10  1  0
  9 11  1  0
 10 12  1  0
 11  5  1  6
 33 34  1  0
 33 35  1  0
 34 36  1  0
 35 37  1  0
 37 43  1  1
 20 21  2  0
 21 22  1  0
M  CHG  3   2  -1  26  -1  41  -1
M  END
>  <COMPND>  (102) 
    udp_gluA.pdb 

>  <AUTHOR>  (102) 
    GENERATED BY OPEN BABEL 3.1.1

>  <MASTER>  (102) 
        0    0    0    0    0    0    0    0   56    0   56    0

>  <minimizedAffinity>  (102) 
-8.41173

>  <CNNscore>  (102) 
0.9052862525

>  <CNNaffinity>  (102) 
4.7904558182

>  <CNN_VS>  (102) 
4.3367338181

>  <CNNaffinity_variance>  (102) 
0.0356061235

$$$$
103
     RDKit          3D

 43 45  0  0  0  0  0  0  0  0999 V2000
   21.4905   72.2806   -2.9122 P   0  0  2  0  0  0  0  0  0  0  0  0
   20.4115   73.4594   -2.6574 O   0  0  0  0  0  0  0  0  0  0  0  0
   22.8684   72.7507   -3.2761 O   0  0  0  0  0  0  0  0  0  0  0  0
   20.7675   71.3193   -3.9944 O   0  0  0  0  0  0  0  0  0  0  0  0
   19.9474   70.2663   -3.5220 C   0  0  0  0  0  0  0  0  0  0  0  0
   18.2316   71.4813   -4.6869 O   0  0  0  0  0  0  0  0  0  0  0  0
   16.2836   70.1093   -2.8665 O   0  0  0  0  0  0  0  0  0  0  0  0
   16.0655   68.6654   -5.1694 O   0  0  0  0  0  0  0  0  0  0  0  0
   17.4912   69.6083   -3.4401 C   0  0  1  0  0  0  0  0  0  0  0  0
   17.2912   69.3185   -4.9126 C   0  0  2  0  0  0  0  0  0  0  0  0
   18.5025   70.7461   -3.4740 C   0  0  1  0  0  0  0  0  0  0  0  0
   17.3505   70.7101   -5.5190 C   0  0  2  0  0  0  0  0  0  0  0  0
   15.6220   69.4001   -2.8343 H   0  0  0  0  0  0  0  0  0  0  0  0
   16.0775   67.7840   -4.7633 H   0  0  0  0  0  0  0  0  0  0  0  0
   15.8015   70.1549   -7.8143 O   0  0  0  0  0  0  0  0  0  0  0  0
   19.4209   70.7076  -10.6142 O   0  0  0  0  0  0  0  0  0  0  0  0
   17.8627   70.7022   -6.8600 N   0  0  0  0  0  0  0  0  0  0  0  0
   17.6059   70.4297   -9.2065 N   0  0  0  0  0  0  0  0  0  0  0  0
   17.0003   70.4106   -7.9432 C   0  0  0  0  0  0  0  0  0  0  0  0
   19.2038   70.9824   -7.0920 C   0  0  0  0  0  0  0  0  0  0  0  0
   19.7666   70.9969   -8.3019 C   0  0  0  0  0  0  0  0  0  0  0  0
   18.9350   70.7021   -9.4871 C   0  0  0  0  0  0  0  0  0  0  0  0
   17.0259   70.2277   -9.9761 H   0  0  0  0  0  0  0  0  0  0  0  0
   21.4123   71.4161   -1.5487 O   0  0  0  0  0  0  0  0  0  0  0  0
   21.0281   71.8477   -0.0388 P   0  0  2  0  0  0  0  0  0  0  0  0
   21.1098   70.4520    0.7771 O   0  0  0  0  0  0  0  0  0  0  0  0
   19.7113   72.5586    0.0823 O   0  0  0  0  0  0  0  0  0  0  0  0
   22.2977   72.6973    0.4796 O   0  0  0  0  0  0  0  0  0  0  0  0
   21.7522   74.4939    1.9232 O   0  0  0  0  0  0  0  0  0  0  0  0
   25.7520   75.2042    1.1714 O   0  0  0  0  0  0  0  0  0  0  0  0
   23.9645   74.3743   -0.9851 O   0  0  0  0  0  0  0  0  0  0  0  0
   24.9229   74.0885    3.7245 O   0  0  0  0  0  0  0  0  0  0  0  0
   24.5832   74.4067    1.3606 C   0  0  2  0  0  0  0  0  0  0  0  0
   23.5355   74.7770    0.3104 C   0  0  2  0  0  0  0  0  0  0  0  0
   24.0465   74.6804    2.7673 C   0  0  1  0  0  0  0  0  0  0  0  0
   22.1929   74.1130    0.6192 C   0  0  1  0  0  0  0  0  0  0  0  0
   22.6507   74.0930    2.9552 C   0  0  1  0  0  0  0  0  0  0  0  0
   26.1108   75.0470    0.2838 H   0  0  0  0  0  0  0  0  0  0  0  0
   24.8160   74.7918   -1.1876 H   0  0  0  0  0  0  0  0  0  0  0  0
   25.8148   74.4537    3.6156 H   0  0  0  0  0  0  0  0  0  0  0  0
   20.8695   73.9580    4.4752 O   0  0  0  0  0  0  0  0  0  0  0  0
   22.4429   75.5636    4.8567 O   0  0  0  0  0  0  0  0  0  0  0  0
   22.0081   74.6369    4.1895 C   0  0  0  0  0  0  0  0  0  0  0  0
  1  4  1  0
  1 24  1  0
  1  2  1  1
  1  3  2  0
 25 28  1  0
 25 24  1  0
 25 26  1  1
 25 27  2  0
  6 11  1  0
  6 12  1  0
 29 36  1  0
 29 37  1  0
  9  7  1  6
  7 13  1  0
 10  8  1  1
  8 14  1  0
  4  5  1  0
 36 28  1  1
 33 30  1  6
 30 38  1  0
 34 31  1  6
 31 39  1  0
 35 32  1  1
 32 40  1  0
 41 43  1  0
 15 19  2  0
 42 43  2  0
 16 22  2  0
 12 17  1  6
 17 19  1  0
 17 20  1  0
 18 19  1  0
 18 22  1  0
 18 23  1  0
  9 10  1  0
  9 11  1  0
 10 12  1  0
 11  5  1  6
 33 34  1  0
 33 35  1  0
 34 36  1  0
 35 37  1  0
 37 43  1  1
 20 21  2  0
 21 22  1  0
M  CHG  3   2  -1  26  -1  41  -1
M  END
>  <COMPND>  (103) 
    udp_gluA.pdb 

>  <AUTHOR>  (103) 
    GENERATED BY OPEN BABEL 3.1.1

>  <MASTER>  (103) 
        0    0    0    0    0    0    0    0   56    0   56    0

>  <minimizedAffinity>  (103) 
-6.78188

>  <CNNscore>  (103) 
0.8979899287

>  <CNNaffinity>  (103) 
4.7023572922

>  <CNN_VS>  (103) 
4.2226696014

>  <CNNaffinity_variance>  (103) 
0.0720750466

$$$$
104
     RDKit          3D

 43 45  0  0  0  0  0  0  0  0999 V2000
   21.5185   73.0579   -4.9822 P   0  0  2  0  0  0  0  0  0  0  0  0
   21.5995   74.6480   -5.2718 O   0  0  0  0  0  0  0  0  0  0  0  0
   22.1253   72.1888   -6.0445 O   0  0  0  0  0  0  0  0  0  0  0  0
   19.9518   72.7986   -4.6725 O   0  0  0  0  0  0  0  0  0  0  0  0
   19.5990   72.1611   -3.4586 C   0  0  0  0  0  0  0  0  0  0  0  0
   17.5870   72.1759   -4.7736 O   0  0  0  0  0  0  0  0  0  0  0  0
   16.3987   70.4406   -2.6363 O   0  0  0  0  0  0  0  0  0  0  0  0
   17.0152   68.6413   -4.5904 O   0  0  0  0  0  0  0  0  0  0  0  0
   17.7322   70.4611   -3.1460 C   0  0  1  0  0  0  0  0  0  0  0  0
   17.7778   69.8279   -4.5205 C   0  0  2  0  0  0  0  0  0  0  0  0
   18.0970   71.9079   -3.4495 C   0  0  1  0  0  0  0  0  0  0  0  0
   17.2177   70.9354   -5.3967 C   0  0  2  0  0  0  0  0  0  0  0  0
   16.1431   69.5264   -2.4350 H   0  0  0  0  0  0  0  0  0  0  0  0
   17.4124   67.9674   -4.0158 H   0  0  0  0  0  0  0  0  0  0  0  0
   15.8142   71.7741   -7.6996 O   0  0  0  0  0  0  0  0  0  0  0  0
   19.3703   70.7711  -10.4550 O   0  0  0  0  0  0  0  0  0  0  0  0
   17.7530   70.9043   -6.7284 N   0  0  0  0  0  0  0  0  0  0  0  0
   17.5863   71.2728   -9.0699 N   0  0  0  0  0  0  0  0  0  0  0  0
   16.9648   71.3482   -7.8164 C   0  0  0  0  0  0  0  0  0  0  0  0
   19.0444   70.4398   -6.9461 C   0  0  0  0  0  0  0  0  0  0  0  0
   19.6232   70.3740   -8.1467 C   0  0  0  0  0  0  0  0  0  0  0  0
   18.8675   70.8178   -9.3364 C   0  0  0  0  0  0  0  0  0  0  0  0
   17.0565   71.5744   -9.8430 H   0  0  0  0  0  0  0  0  0  0  0  0
   22.2048   72.9189   -3.5253 O   0  0  0  0  0  0  0  0  0  0  0  0
   23.7137   72.5288   -3.0957 P   0  0  2  0  0  0  0  0  0  0  0  0
   24.6246   73.4383   -4.0772 O   0  0  0  0  0  0  0  0  0  0  0  0
   24.0121   71.0589   -3.1609 O   0  0  0  0  0  0  0  0  0  0  0  0
   23.9066   73.1870   -1.6355 O   0  0  0  0  0  0  0  0  0  0  0  0
   21.9620   72.9168   -0.3108 O   0  0  0  0  0  0  0  0  0  0  0  0
   24.3237   75.2664    2.1324 O   0  0  0  0  0  0  0  0  0  0  0  0
   24.1622   75.8058   -0.7341 O   0  0  0  0  0  0  0  0  0  0  0  0
   24.0055   72.4326    2.6978 O   0  0  0  0  0  0  0  0  0  0  0  0
   24.0564   74.2725    1.1431 C   0  0  2  0  0  0  0  0  0  0  0  0
   23.3115   74.9072   -0.0316 C   0  0  2  0  0  0  0  0  0  0  0  0
   23.2002   73.1808    1.7888 C   0  0  1  0  0  0  0  0  0  0  0  0
   22.8070   73.8379   -1.0015 C   0  0  1  0  0  0  0  0  0  0  0  0
   22.6315   72.2269    0.7422 C   0  0  1  0  0  0  0  0  0  0  0  0
   24.8667   75.9708    1.7449 H   0  0  0  0  0  0  0  0  0  0  0  0
   24.4862   76.4869   -0.1247 H   0  0  0  0  0  0  0  0  0  0  0  0
   24.3737   73.0281    3.3691 H   0  0  0  0  0  0  0  0  0  0  0  0
   21.1174   71.9009    2.5037 O   0  0  0  0  0  0  0  0  0  0  0  0
   21.1084   70.3575    0.8253 O   0  0  0  0  0  0  0  0  0  0  0  0
   21.5499   71.3795    1.3290 C   0  0  0  0  0  0  0  0  0  0  0  0
  1  4  1  0
  1 24  1  0
  1  2  1  6
  1  3  2  0
 25 28  1  0
 25 24  1  0
 25 26  1  6
 25 27  2  0
  6 11  1  0
  6 12  1  0
 29 36  1  0
 29 37  1  0
  9  7  1  6
  7 13  1  0
 10  8  1  1
  8 14  1  0
  4  5  1  0
 36 28  1  1
 33 30  1  1
 30 38  1  0
 34 31  1  6
 31 39  1  0
 35 32  1  1
 32 40  1  0
 41 43  1  0
 15 19  2  0
 42 43  2  0
 16 22  2  0
 12 17  1  6
 17 19  1  0
 17 20  1  0
 18 19  1  0
 18 22  1  0
 18 23  1  0
  9 10  1  0
  9 11  1  0
 10 12  1  0
 11  5  1  6
 33 34  1  0
 33 35  1  0
 34 36  1  0
 35 37  1  0
 37 43  1  1
 20 21  2  0
 21 22  1  0
M  CHG  3   2  -1  26  -1  41  -1
M  END
>  <COMPND>  (104) 
    udp_gluA.pdb 

>  <AUTHOR>  (104) 
    GENERATED BY OPEN BABEL 3.1.1

>  <MASTER>  (104) 
        0    0    0    0    0    0    0    0   56    0   56    0

>  <minimizedAffinity>  (104) 
-7.10551

>  <CNNscore>  (104) 
0.8875942826

>  <CNNaffinity>  (104) 
4.7114853859

>  <CNN_VS>  (104) 
4.1818876266

>  <CNNaffinity_variance>  (104) 
0.0735440701

$$$$
105
     RDKit          3D

 43 45  0  0  0  0  0  0  0  0999 V2000
   21.2776   72.9464   -2.1533 P   0  0  2  0  0  0  0  0  0  0  0  0
   22.3067   71.7606   -1.7613 O   0  0  0  0  0  0  0  0  0  0  0  0
   20.9562   73.9001   -1.0403 O   0  0  0  0  0  0  0  0  0  0  0  0
   20.0144   72.1673   -2.7978 O   0  0  0  0  0  0  0  0  0  0  0  0
   19.2377   72.8324   -3.7769 C   0  0  0  0  0  0  0  0  0  0  0  0
   17.2874   72.2926   -5.0741 O   0  0  0  0  0  0  0  0  0  0  0  0
   16.4149   70.6381   -2.7303 O   0  0  0  0  0  0  0  0  0  0  0  0
   17.4065   68.7648   -4.4460 O   0  0  0  0  0  0  0  0  0  0  0  0
   17.7292   70.8541   -3.2448 C   0  0  1  0  0  0  0  0  0  0  0  0
   17.9237   70.0764   -4.5291 C   0  0  2  0  0  0  0  0  0  0  0  0
   17.8131   72.2951   -3.7291 C   0  0  1  0  0  0  0  0  0  0  0  0
   17.1775   70.9365   -5.5347 C   0  0  2  0  0  0  0  0  0  0  0  0
   16.3371   69.7238   -2.4147 H   0  0  0  0  0  0  0  0  0  0  0  0
   17.9151   68.2575   -3.7932 H   0  0  0  0  0  0  0  0  0  0  0  0
   15.7035   70.2528   -7.8448 O   0  0  0  0  0  0  0  0  0  0  0  0
   19.4203   70.6160  -10.5462 O   0  0  0  0  0  0  0  0  0  0  0  0
   17.7350   70.8450   -6.8545 N   0  0  0  0  0  0  0  0  0  0  0  0
   17.5562   70.4334   -9.1879 N   0  0  0  0  0  0  0  0  0  0  0  0
   16.9078   70.4937   -7.9474 C   0  0  0  0  0  0  0  0  0  0  0  0
   19.0853   71.1033   -7.0564 C   0  0  0  0  0  0  0  0  0  0  0  0
   19.6891   71.0420   -8.2448 C   0  0  0  0  0  0  0  0  0  0  0  0
   18.8962   70.6810   -9.4383 C   0  0  0  0  0  0  0  0  0  0  0  0
   17.0013   70.1887   -9.9635 H   0  0  0  0  0  0  0  0  0  0  0  0
   21.9805   73.6261   -3.4405 O   0  0  0  0  0  0  0  0  0  0  0  0
   23.0500   73.0373   -4.5003 P   0  0  2  0  0  0  0  0  0  0  0  0
   22.1917   71.9352   -5.3183 O   0  0  0  0  0  0  0  0  0  0  0  0
   24.3063   72.5034   -3.8753 O   0  0  0  0  0  0  0  0  0  0  0  0
   23.2837   74.2358   -5.5546 O   0  0  0  0  0  0  0  0  0  0  0  0
   21.8282   76.0175   -6.1167 O   0  0  0  0  0  0  0  0  0  0  0  0
   23.8938   75.4717   -9.6528 O   0  0  0  0  0  0  0  0  0  0  0  0
   22.9732   73.1713   -8.1053 O   0  0  0  0  0  0  0  0  0  0  0  0
   24.5223   77.7265   -7.9288 O   0  0  0  0  0  0  0  0  0  0  0  0
   23.7132   75.4780   -8.2367 C   0  0  2  0  0  0  0  0  0  0  0  0
   22.5844   74.5179   -7.8605 C   0  0  2  0  0  0  0  0  0  0  0  0
   23.3620   76.9054   -7.8111 C   0  0  1  0  0  0  0  0  0  0  0  0
   22.2078   74.6674   -6.3858 C   0  0  1  0  0  0  0  0  0  0  0  0
   22.8762   76.9520   -6.3653 C   0  0  1  0  0  0  0  0  0  0  0  0
   24.1178   74.5746   -9.9464 H   0  0  0  0  0  0  0  0  0  0  0  0
   23.2137   73.0693   -9.0392 H   0  0  0  0  0  0  0  0  0  0  0  0
   24.8418   77.7054   -8.8444 H   0  0  0  0  0  0  0  0  0  0  0  0
   21.8596   78.8901   -7.2090 O   0  0  0  0  0  0  0  0  0  0  0  0
   22.0590   78.7221   -4.9438 O   0  0  0  0  0  0  0  0  0  0  0  0
   22.2322   78.2661   -6.0641 C   0  0  0  0  0  0  0  0  0  0  0  0
  1  4  1  0
  1 24  1  0
  1  2  1  1
  1  3  2  0
 25 28  1  0
 25 24  1  0
 25 26  1  6
 25 27  2  0
  6 11  1  0
  6 12  1  0
 29 36  1  0
 29 37  1  0
  9  7  1  6
  7 13  1  0
 10  8  1  1
  8 14  1  0
  4  5  1  0
 36 28  1  1
 33 30  1  6
 30 38  1  0
 34 31  1  1
 31 39  1  0
 35 32  1  1
 32 40  1  0
 41 43  1  0
 15 19  2  0
 42 43  2  0
 16 22  2  0
 12 17  1  6
 17 19  1  0
 17 20  1  0
 18 19  1  0
 18 22  1  0
 18 23  1  0
  9 10  1  0
  9 11  1  0
 10 12  1  0
 11  5  1  6
 33 34  1  0
 33 35  1  0
 34 36  1  0
 35 37  1  0
 37 43  1  6
 20 21  2  0
 21 22  1  0
M  CHG  3   2  -1  26  -1  41  -1
M  END
>  <COMPND>  (105) 
    udp_gluA.pdb 

>  <AUTHOR>  (105) 
    GENERATED BY OPEN BABEL 3.1.1

>  <MASTER>  (105) 
        0    0    0    0    0    0    0    0   56    0   56    0

>  <minimizedAffinity>  (105) 
-6.64054

>  <CNNscore>  (105) 
0.8244026303

>  <CNNaffinity>  (105) 
4.6900568008

>  <CNN_VS>  (105) 
3.8664951324

>  <CNNaffinity_variance>  (105) 
0.0792670473

$$$$
106
     RDKit          3D

 43 45  0  0  0  0  0  0  0  0999 V2000
   19.9082   72.8989   -1.3229 P   0  0  2  0  0  0  0  0  0  0  0  0
   18.6284   73.0385   -0.3423 O   0  0  0  0  0  0  0  0  0  0  0  0
   20.0758   74.0175   -2.3089 O   0  0  0  0  0  0  0  0  0  0  0  0
   19.7508   71.4194   -1.9588 O   0  0  0  0  0  0  0  0  0  0  0  0
   19.3642   71.3045   -3.3160 C   0  0  0  0  0  0  0  0  0  0  0  0
   17.5495   72.0401   -4.7099 O   0  0  0  0  0  0  0  0  0  0  0  0
   15.7647   70.4321   -2.9154 O   0  0  0  0  0  0  0  0  0  0  0  0
   16.0525   68.8039   -5.0838 O   0  0  0  0  0  0  0  0  0  0  0  0
   17.0955   70.1537   -3.3512 C   0  0  1  0  0  0  0  0  0  0  0  0
   17.0918   69.7172   -4.8009 C   0  0  2  0  0  0  0  0  0  0  0  0
   17.8536   71.4725   -3.4174 C   0  0  1  0  0  0  0  0  0  0  0  0
   16.9219   71.0402   -5.5282 C   0  0  2  0  0  0  0  0  0  0  0  0
   15.2607   69.6044   -2.8654 H   0  0  0  0  0  0  0  0  0  0  0  0
   16.2065   67.9781   -4.5977 H   0  0  0  0  0  0  0  0  0  0  0  0
   15.9769   72.4994   -7.7540 O   0  0  0  0  0  0  0  0  0  0  0  0
   19.3870   70.9568  -10.4438 O   0  0  0  0  0  0  0  0  0  0  0  0
   17.5436   71.0380   -6.8221 N   0  0  0  0  0  0  0  0  0  0  0  0
   17.6756   71.7289   -9.0918 N   0  0  0  0  0  0  0  0  0  0  0  0
   16.9886   71.8058   -7.8731 C   0  0  0  0  0  0  0  0  0  0  0  0
   18.6899   70.2833   -7.0395 C   0  0  0  0  0  0  0  0  0  0  0  0
   19.3337   70.2201   -8.2067 C   0  0  0  0  0  0  0  0  0  0  0  0
   18.8187   70.9921   -9.3566 C   0  0  0  0  0  0  0  0  0  0  0  0
   17.3070   72.2533   -9.8391 H   0  0  0  0  0  0  0  0  0  0  0  0
   21.1390   72.7215   -0.2902 O   0  0  0  0  0  0  0  0  0  0  0  0
   21.2020   72.0557    1.1818 P   0  0  2  0  0  0  0  0  0  0  0  0
   21.1097   70.4691    0.8743 O   0  0  0  0  0  0  0  0  0  0  0  0
   20.1567   72.5632    2.1324 O   0  0  0  0  0  0  0  0  0  0  0  0
   22.7215   72.2880    1.6713 O   0  0  0  0  0  0  0  0  0  0  0  0
   24.3524   73.6019    0.5655 O   0  0  0  0  0  0  0  0  0  0  0  0
   26.7039   70.8973    2.6207 O   0  0  0  0  0  0  0  0  0  0  0  0
   24.2713   70.0144    1.2652 O   0  0  0  0  0  0  0  0  0  0  0  0
   26.4540   73.6325    3.5729 O   0  0  0  0  0  0  0  0  0  0  0  0
   25.5639   71.7271    2.3974 C   0  0  2  0  0  0  0  0  0  0  0  0
   24.8637   71.2984    1.1076 C   0  0  2  0  0  0  0  0  0  0  0  0
   26.0474   73.1746    2.2847 C   0  0  1  0  0  0  0  0  0  0  0  0
   23.7792   72.3024    0.7143 C   0  0  1  0  0  0  0  0  0  0  0  0
   24.9434   74.0920    1.7670 C   0  0  1  0  0  0  0  0  0  0  0  0
   26.4211   69.9723    2.6955 H   0  0  0  0  0  0  0  0  0  0  0  0
   24.9537   69.3724    1.5152 H   0  0  0  0  0  0  0  0  0  0  0  0
   27.1564   73.0570    3.9139 H   0  0  0  0  0  0  0  0  0  0  0  0
   25.3926   75.5788    0.0093 O   0  0  0  0  0  0  0  0  0  0  0  0
   25.9930   76.2376    2.1080 O   0  0  0  0  0  0  0  0  0  0  0  0
   25.5034   75.4132    1.3507 C   0  0  0  0  0  0  0  0  0  0  0  0
  1  4  1  0
  1 24  1  0
  1  2  1  1
  1  3  2  0
 25 28  1  0
 25 24  1  0
 25 26  1  6
 25 27  2  0
  6 11  1  0
  6 12  1  0
 29 36  1  0
 29 37  1  0
  9  7  1  6
  7 13  1  0
 10  8  1  1
  8 14  1  0
  4  5  1  0
 36 28  1  1
 33 30  1  6
 30 38  1  0
 34 31  1  1
 31 39  1  0
 35 32  1  1
 32 40  1  0
 41 43  1  0
 15 19  2  0
 42 43  2  0
 16 22  2  0
 12 17  1  6
 17 19  1  0
 17 20  1  0
 18 19  1  0
 18 22  1  0
 18 23  1  0
  9 10  1  0
  9 11  1  0
 10 12  1  0
 11  5  1  6
 33 34  1  0
 33 35  1  0
 34 36  1  0
 35 37  1  0
 37 43  1  6
 20 21  2  0
 21 22  1  0
M  CHG  3   2  -1  26  -1  41  -1
M  END
>  <COMPND>  (106) 
    udp_gluA.pdb 

>  <AUTHOR>  (106) 
    GENERATED BY OPEN BABEL 3.1.1

>  <MASTER>  (106) 
        0    0    0    0    0    0    0    0   56    0   56    0

>  <minimizedAffinity>  (106) 
-6.88731

>  <CNNscore>  (106) 
0.7831299305

>  <CNNaffinity>  (106) 
4.4986009598

>  <CNN_VS>  (106) 
3.5229890347

>  <CNNaffinity_variance>  (106) 
0.0770489201

$$$$
107
     RDKit          3D

 43 45  0  0  0  0  0  0  0  0999 V2000
   21.8904   72.6596   -5.5749 P   0  0  2  0  0  0  0  0  0  0  0  0
   21.2825   74.1483   -5.3927 O   0  0  0  0  0  0  0  0  0  0  0  0
   23.1550   72.5858   -6.3793 O   0  0  0  0  0  0  0  0  0  0  0  0
   20.6446   71.7981   -6.1437 O   0  0  0  0  0  0  0  0  0  0  0  0
   20.1567   72.0899   -7.4403 C   0  0  0  0  0  0  0  0  0  0  0  0
   19.0083   70.0343   -6.9573 O   0  0  0  0  0  0  0  0  0  0  0  0
   18.2478   69.9943   -9.8575 O   0  0  0  0  0  0  0  0  0  0  0  0
   15.9767   70.9111   -8.6586 O   0  0  0  0  0  0  0  0  0  0  0  0
   18.3797   71.1075   -8.9732 C   0  0  1  0  0  0  0  0  0  0  0  0
   17.2092   71.1565   -8.0142 C   0  0  2  0  0  0  0  0  0  0  0  0
   19.5473   70.8277   -8.0368 C   0  0  1  0  0  0  0  0  0  0  0  0
   17.5736   70.0709   -7.0159 C   0  0  2  0  0  0  0  0  0  0  0  0
   17.5078   70.1500  -10.4657 H   0  0  0  0  0  0  0  0  0  0  0  0
   15.7897   71.6299   -9.2833 H   0  0  0  0  0  0  0  0  0  0  0  0
   16.3121   68.1498   -5.3745 O   0  0  0  0  0  0  0  0  0  0  0  0
   15.6390   71.2115   -1.9956 O   0  0  0  0  0  0  0  0  0  0  0  0
   17.0592   70.3389   -5.7027 N   0  0  0  0  0  0  0  0  0  0  0  0
   15.9771   69.6768   -3.6936 N   0  0  0  0  0  0  0  0  0  0  0  0
   16.4431   69.3034   -4.9610 C   0  0  0  0  0  0  0  0  0  0  0  0
   17.1689   71.6142   -5.1619 C   0  0  0  0  0  0  0  0  0  0  0  0
   16.7201   71.9549   -3.9522 C   0  0  0  0  0  0  0  0  0  0  0  0
   16.0627   70.9318   -3.1129 C   0  0  0  0  0  0  0  0  0  0  0  0
   15.5425   68.9732   -3.1593 H   0  0  0  0  0  0  0  0  0  0  0  0
   22.0295   72.1356   -4.0521 O   0  0  0  0  0  0  0  0  0  0  0  0
   23.2768   72.1787   -3.0245 P   0  0  2  0  0  0  0  0  0  0  0  0
   23.9128   73.6459   -3.2761 O   0  0  0  0  0  0  0  0  0  0  0  0
   24.2493   71.0468   -3.1886 O   0  0  0  0  0  0  0  0  0  0  0  0
   22.6001   72.2734   -1.5631 O   0  0  0  0  0  0  0  0  0  0  0  0
   23.8456   71.1336    0.0978 O   0  0  0  0  0  0  0  0  0  0  0  0
   20.4286   72.1725    2.1744 O   0  0  0  0  0  0  0  0  0  0  0  0
   20.2502   71.1708   -0.5640 O   0  0  0  0  0  0  0  0  0  0  0  0
   22.9020   73.6369    2.6089 O   0  0  0  0  0  0  0  0  0  0  0  0
   21.4561   72.3268    1.1954 C   0  0  2  0  0  0  0  0  0  0  0  0
   21.4285   71.1391    0.2331 C   0  0  2  0  0  0  0  0  0  0  0  0
   22.7995   72.3890    1.9256 C   0  0  1  0  0  0  0  0  0  0  0  0
   22.6514   71.1504   -0.6851 C   0  0  1  0  0  0  0  0  0  0  0  0
   23.9687   72.2683    0.9525 C   0  0  1  0  0  0  0  0  0  0  0  0
   19.5654   72.1305    1.7336 H   0  0  0  0  0  0  0  0  0  0  0  0
   19.4702   71.1641    0.0122 H   0  0  0  0  0  0  0  0  0  0  0  0
   22.1636   73.7263    3.2314 H   0  0  0  0  0  0  0  0  0  0  0  0
   25.7429   70.7858    1.3467 O   0  0  0  0  0  0  0  0  0  0  0  0
   25.7701   72.7648    2.4788 O   0  0  0  0  0  0  0  0  0  0  0  0
   25.2430   72.0001    1.6849 C   0  0  0  0  0  0  0  0  0  0  0  0
  1  4  1  0
  1 24  1  0
  1  2  1  1
  1  3  2  0
 25 28  1  0
 25 24  1  0
 25 26  1  6
 25 27  2  0
  6 11  1  0
  6 12  1  0
 29 36  1  0
 29 37  1  0
  9  7  1  6
  7 13  1  0
 10  8  1  6
  8 14  1  0
  4  5  1  0
 36 28  1  1
 33 30  1  1
 30 38  1  0
 34 31  1  6
 31 39  1  0
 35 32  1  6
 32 40  1  0
 41 43  1  0
 15 19  2  0
 42 43  2  0
 16 22  2  0
 12 17  1  1
 17 19  1  0
 17 20  1  0
 18 19  1  0
 18 22  1  0
 18 23  1  0
  9 10  1  0
  9 11  1  0
 10 12  1  0
 11  5  1  1
 33 34  1  0
 33 35  1  0
 34 36  1  0
 35 37  1  0
 37 43  1  1
 20 21  2  0
 21 22  1  0
M  CHG  3   2  -1  26  -1  41  -1
M  END
>  <COMPND>  (107) 
    udp_gluA.pdb 

>  <AUTHOR>  (107) 
    GENERATED BY OPEN BABEL 3.1.1

>  <MASTER>  (107) 
        0    0    0    0    0    0    0    0   56    0   56    0

>  <minimizedAffinity>  (107) 
-8.13722

>  <CNNscore>  (107) 
0.7764651775

>  <CNNaffinity>  (107) 
4.6127676964

>  <CNN_VS>  (107) 
3.5816535950

>  <CNNaffinity_variance>  (107) 
0.1249934435

$$$$
108
     RDKit          3D

 43 45  0  0  0  0  0  0  0  0999 V2000
   23.4654   73.7186   -4.0445 P   0  0  2  0  0  0  0  0  0  0  0  0
   24.2706   72.3181   -4.1412 O   0  0  0  0  0  0  0  0  0  0  0  0
   24.1558   74.8913   -4.6768 O   0  0  0  0  0  0  0  0  0  0  0  0
   23.1309   73.8663   -2.4683 O   0  0  0  0  0  0  0  0  0  0  0  0
   21.8092   73.6092   -2.0307 C   0  0  0  0  0  0  0  0  0  0  0  0
   22.9482   71.7192   -1.0778 O   0  0  0  0  0  0  0  0  0  0  0  0
   20.2303   70.5144   -0.6864 O   0  0  0  0  0  0  0  0  0  0  0  0
   20.8340   71.4448    1.8047 O   0  0  0  0  0  0  0  0  0  0  0  0
   20.6379   71.8785   -0.5797 C   0  0  1  0  0  0  0  0  0  0  0  0
   21.4234   72.0926    0.6968 C   0  0  2  0  0  0  0  0  0  0  0  0
   21.6901   72.1394   -1.6488 C   0  0  1  0  0  0  0  0  0  0  0  0
   22.7796   71.5123    0.3336 C   0  0  2  0  0  0  0  0  0  0  0  0
   19.5580   70.3238   -0.0131 H   0  0  0  0  0  0  0  0  0  0  0  0
   19.9733   71.8505    1.9961 H   0  0  0  0  0  0  0  0  0  0  0  0
   24.7230   70.1548    1.8689 O   0  0  0  0  0  0  0  0  0  0  0  0
   26.8639   74.0856    2.9688 O   0  0  0  0  0  0  0  0  0  0  0  0
   23.8560   72.1564    1.0318 N   0  0  0  0  0  0  0  0  0  0  0  0
   25.7868   72.1140    2.4161 N   0  0  0  0  0  0  0  0  0  0  0  0
   24.7784   71.3825    1.7749 C   0  0  0  0  0  0  0  0  0  0  0  0
   23.9909   73.5382    0.9751 C   0  0  0  0  0  0  0  0  0  0  0  0
   24.9574   74.2214    1.5915 C   0  0  0  0  0  0  0  0  0  0  0  0
   25.9617   73.4881    2.3897 C   0  0  0  0  0  0  0  0  0  0  0  0
   26.4398   71.5971    2.9412 H   0  0  0  0  0  0  0  0  0  0  0  0
   22.0279   73.3559   -4.6886 O   0  0  0  0  0  0  0  0  0  0  0  0
   21.4749   73.5027   -6.2007 P   0  0  2  0  0  0  0  0  0  0  0  0
   22.5915   72.7277   -7.0798 O   0  0  0  0  0  0  0  0  0  0  0  0
   21.2238   74.9194   -6.6297 O   0  0  0  0  0  0  0  0  0  0  0  0
   20.1769   72.5463   -6.2564 O   0  0  0  0  0  0  0  0  0  0  0  0
   19.7731   70.3629   -5.4327 O   0  0  0  0  0  0  0  0  0  0  0  0
   17.6165   70.3442   -8.9564 O   0  0  0  0  0  0  0  0  0  0  0  0
   20.2737   71.5538   -8.8529 O   0  0  0  0  0  0  0  0  0  0  0  0
   16.2423   70.5836   -6.4059 O   0  0  0  0  0  0  0  0  0  0  0  0
   18.1906   70.9199   -7.7829 C   0  0  2  0  0  0  0  0  0  0  0  0
   19.7097   70.7522   -7.8213 C   0  0  2  0  0  0  0  0  0  0  0  0
   17.6059   70.1974   -6.5672 C   0  0  1  0  0  0  0  0  0  0  0  0
   20.3377   71.1474   -6.4840 C   0  0  1  0  0  0  0  0  0  0  0  0
   18.3664   70.5483   -5.2917 C   0  0  1  0  0  0  0  0  0  0  0  0
   17.9734   70.7877   -9.7421 H   0  0  0  0  0  0  0  0  0  0  0  0
   19.8795   71.3086   -9.7043 H   0  0  0  0  0  0  0  0  0  0  0  0
   15.7472   70.3658   -7.2110 H   0  0  0  0  0  0  0  0  0  0  0  0
   18.9463   69.6491   -3.2044 O   0  0  0  0  0  0  0  0  0  0  0  0
   17.0205   68.8938   -4.1635 O   0  0  0  0  0  0  0  0  0  0  0  0
   18.0129   69.6063   -4.1872 C   0  0  0  0  0  0  0  0  0  0  0  0
  1  4  1  0
  1 24  1  0
  1  2  1  1
  1  3  2  0
 25 28  1  0
 25 24  1  0
 25 26  1  6
 25 27  2  0
  6 11  1  0
  6 12  1  0
 29 36  1  0
 29 37  1  0
  9  7  1  1
  7 13  1  0
 10  8  1  1
  8 14  1  0
  4  5  1  0
 36 28  1  1
 33 30  1  6
 30 38  1  0
 34 31  1  6
 31 39  1  0
 35 32  1  1
 32 40  1  0
 41 43  1  0
 15 19  2  0
 42 43  2  0
 16 22  2  0
 12 17  1  1
 17 19  1  0
 17 20  1  0
 18 19  1  0
 18 22  1  0
 18 23  1  0
  9 10  1  0
  9 11  1  0
 10 12  1  0
 11  5  1  1
 33 34  1  0
 33 35  1  0
 34 36  1  0
 35 37  1  0
 37 43  1  1
 20 21  2  0
 21 22  1  0
M  CHG  3   2  -1  26  -1  41  -1
M  END
>  <COMPND>  (108) 
    udp_gluA.pdb 

>  <AUTHOR>  (108) 
    GENERATED BY OPEN BABEL 3.1.1

>  <MASTER>  (108) 
        0    0    0    0    0    0    0    0   56    0   56    0

>  <minimizedAffinity>  (108) 
-7.70131

>  <CNNscore>  (108) 
0.7567855716

>  <CNNaffinity>  (108) 
4.4838399887

>  <CNN_VS>  (108) 
3.3933053017

>  <CNNaffinity_variance>  (108) 
0.1233854294

$$$$
109
     RDKit          3D

 43 45  0  0  0  0  0  0  0  0999 V2000
   21.9580   72.6569   -5.7587 P   0  0  2  0  0  0  0  0  0  0  0  0
   21.4215   74.1255   -5.3409 O   0  0  0  0  0  0  0  0  0  0  0  0
   23.0867   72.6524   -6.7475 O   0  0  0  0  0  0  0  0  0  0  0  0
   20.6202   71.8701   -6.2159 O   0  0  0  0  0  0  0  0  0  0  0  0
   20.0736   72.1504   -7.4916 C   0  0  0  0  0  0  0  0  0  0  0  0
   18.9537   70.0885   -6.9699 O   0  0  0  0  0  0  0  0  0  0  0  0
   18.1642   70.0018   -9.8613 O   0  0  0  0  0  0  0  0  0  0  0  0
   15.8951   70.9087   -8.6510 O   0  0  0  0  0  0  0  0  0  0  0  0
   18.2924   71.1279   -8.9930 C   0  0  1  0  0  0  0  0  0  0  0  0
   17.1312   71.1765   -8.0226 C   0  0  2  0  0  0  0  0  0  0  0  0
   19.4726   70.8737   -8.0652 C   0  0  1  0  0  0  0  0  0  0  0  0
   17.5181   70.1082   -7.0141 C   0  0  2  0  0  0  0  0  0  0  0  0
   17.4163   70.1412  -10.4638 H   0  0  0  0  0  0  0  0  0  0  0  0
   15.6935   71.6171   -9.2830 H   0  0  0  0  0  0  0  0  0  0  0  0
   16.3712   68.1771   -5.3019 O   0  0  0  0  0  0  0  0  0  0  0  0
   15.6182   71.2939   -1.9910 O   0  0  0  0  0  0  0  0  0  0  0  0
   17.0142   70.3878   -5.6993 N   0  0  0  0  0  0  0  0  0  0  0  0
   15.9963   69.7315   -3.6549 N   0  0  0  0  0  0  0  0  0  0  0  0
   16.4574   69.3459   -4.9205 C   0  0  0  0  0  0  0  0  0  0  0  0
   17.0758   71.6805   -5.1933 C   0  0  0  0  0  0  0  0  0  0  0  0
   16.6323   72.0327   -3.9849 C   0  0  0  0  0  0  0  0  0  0  0  0
   16.0353   71.0039   -3.1082 C   0  0  0  0  0  0  0  0  0  0  0  0
   15.6026   69.0237   -3.0952 H   0  0  0  0  0  0  0  0  0  0  0  0
   22.3087   71.9797   -4.3335 O   0  0  0  0  0  0  0  0  0  0  0  0
   23.5884   72.1550   -3.3612 P   0  0  2  0  0  0  0  0  0  0  0  0
   24.5287   73.1942   -4.1712 O   0  0  0  0  0  0  0  0  0  0  0  0
   24.2645   70.8656   -2.9947 O   0  0  0  0  0  0  0  0  0  0  0  0
   23.0347   73.0014   -2.1044 O   0  0  0  0  0  0  0  0  0  0  0  0
   21.2221   72.2572   -0.7741 O   0  0  0  0  0  0  0  0  0  0  0  0
   21.2410   76.3110    0.0227 O   0  0  0  0  0  0  0  0  0  0  0  0
   21.6444   75.3352   -2.7012 O   0  0  0  0  0  0  0  0  0  0  0  0
   22.2759   74.4332    1.9858 O   0  0  0  0  0  0  0  0  0  0  0  0
   21.8136   75.0434   -0.2987 C   0  0  2  0  0  0  0  0  0  0  0  0
   21.2167   74.5296   -1.6091 C   0  0  2  0  0  0  0  0  0  0  0  0
   21.4966   74.0776    0.8453 C   0  0  1  0  0  0  0  0  0  0  0  0
   21.6302   73.0801   -1.8675 C   0  0  1  0  0  0  0  0  0  0  0  0
   21.8206   72.6361    0.4634 C   0  0  1  0  0  0  0  0  0  0  0  0
   21.4296   76.9413   -0.6904 H   0  0  0  0  0  0  0  0  0  0  0  0
   21.3855   76.2564   -2.5438 H   0  0  0  0  0  0  0  0  0  0  0  0
   22.0792   75.3486    2.2391 H   0  0  0  0  0  0  0  0  0  0  0  0
   21.1900   70.4245    0.9246 O   0  0  0  0  0  0  0  0  0  0  0  0
   20.7926   71.9789    2.5449 O   0  0  0  0  0  0  0  0  0  0  0  0
   21.2123   71.6799    1.4370 C   0  0  0  0  0  0  0  0  0  0  0  0
  1  4  1  0
  1 24  1  0
  1  2  1  1
  1  3  2  0
 25 28  1  0
 25 24  1  0
 25 26  1  6
 25 27  2  0
  6 11  1  0
  6 12  1  0
 29 36  1  0
 29 37  1  0
  9  7  1  6
  7 13  1  0
 10  8  1  6
  8 14  1  0
  4  5  1  0
 36 28  1  1
 33 30  1  1
 30 38  1  0
 34 31  1  6
 31 39  1  0
 35 32  1  1
 32 40  1  0
 41 43  1  0
 15 19  2  0
 42 43  2  0
 16 22  2  0
 12 17  1  1
 17 19  1  0
 17 20  1  0
 18 19  1  0
 18 22  1  0
 18 23  1  0
  9 10  1  0
  9 11  1  0
 10 12  1  0
 11  5  1  1
 33 34  1  0
 33 35  1  0
 34 36  1  0
 35 37  1  0
 37 43  1  1
 20 21  2  0
 21 22  1  0
M  CHG  3   2  -1  26  -1  41  -1
M  END
>  <COMPND>  (109) 
    udp_gluA.pdb 

>  <AUTHOR>  (109) 
    GENERATED BY OPEN BABEL 3.1.1

>  <MASTER>  (109) 
        0    0    0    0    0    0    0    0   56    0   56    0

>  <minimizedAffinity>  (109) 
-8.02715

>  <CNNscore>  (109) 
0.7005288005

>  <CNNaffinity>  (109) 
4.4980697632

>  <CNN_VS>  (109) 
3.1510274410

>  <CNNaffinity_variance>  (109) 
0.3793676794

$$$$
110
     RDKit          3D

 43 45  0  0  0  0  0  0  0  0999 V2000
   20.9566   72.4853   -1.3891 P   0  0  2  0  0  0  0  0  0  0  0  0
   19.6088   72.5731   -0.4977 O   0  0  0  0  0  0  0  0  0  0  0  0
   21.1840   73.6481   -2.3099 O   0  0  0  0  0  0  0  0  0  0  0  0
   20.8586   71.0350   -2.0998 O   0  0  0  0  0  0  0  0  0  0  0  0
   20.2676   70.9497   -3.3835 C   0  0  0  0  0  0  0  0  0  0  0  0
   18.3737   71.9364   -4.4868 O   0  0  0  0  0  0  0  0  0  0  0  0
   16.6805   70.4333   -2.5208 O   0  0  0  0  0  0  0  0  0  0  0  0
   16.4975   68.8939   -4.7642 O   0  0  0  0  0  0  0  0  0  0  0  0
   17.9030   70.0415   -3.1457 C   0  0  1  0  0  0  0  0  0  0  0  0
   17.6583   69.6803   -4.5955 C   0  0  2  0  0  0  0  0  0  0  0  0
   18.7842   71.2770   -3.2694 C   0  0  1  0  0  0  0  0  0  0  0  0
   17.5375   71.0482   -5.2452 C   0  0  2  0  0  0  0  0  0  0  0  0
   16.1007   69.6603   -2.4308 H   0  0  0  0  0  0  0  0  0  0  0  0
   16.6244   68.0335   -4.3334 H   0  0  0  0  0  0  0  0  0  0  0  0
   16.2411   72.4310   -7.3390 O   0  0  0  0  0  0  0  0  0  0  0  0
   19.3120   70.9704  -10.4503 O   0  0  0  0  0  0  0  0  0  0  0  0
   17.9769   71.0465   -6.6119 N   0  0  0  0  0  0  0  0  0  0  0  0
   17.7712   71.7014   -8.8868 N   0  0  0  0  0  0  0  0  0  0  0  0
   17.2540   71.7740   -7.5867 C   0  0  0  0  0  0  0  0  0  0  0  0
   19.1121   70.3319   -6.9745 C   0  0  0  0  0  0  0  0  0  0  0  0
   19.5931   70.2722   -8.2179 C   0  0  0  0  0  0  0  0  0  0  0  0
   18.8961   71.0037   -9.2961 C   0  0  0  0  0  0  0  0  0  0  0  0
   17.2837   72.1981   -9.5831 H   0  0  0  0  0  0  0  0  0  0  0  0
   22.1121   72.2689   -0.2796 O   0  0  0  0  0  0  0  0  0  0  0  0
   22.2399   71.1981    0.9248 P   0  0  2  0  0  0  0  0  0  0  0  0
   23.7857   70.7256    0.8371 O   0  0  0  0  0  0  0  0  0  0  0  0
   21.2454   70.0754    0.8588 O   0  0  0  0  0  0  0  0  0  0  0  0
   22.1608   72.0844    2.2705 O   0  0  0  0  0  0  0  0  0  0  0  0
   20.9367   74.1116    2.3014 O   0  0  0  0  0  0  0  0  0  0  0  0
   23.3527   74.5376    5.6255 O   0  0  0  0  0  0  0  0  0  0  0  0
   24.4297   73.4357    3.1435 O   0  0  0  0  0  0  0  0  0  0  0  0
   20.5375   73.8852    5.9417 O   0  0  0  0  0  0  0  0  0  0  0  0
   22.5772   73.8265    4.6606 C   0  0  2  0  0  0  0  0  0  0  0  0
   23.1569   74.0602    3.2653 C   0  0  2  0  0  0  0  0  0  0  0  0
   21.1396   74.3460    4.7335 C   0  0  1  0  0  0  0  0  0  0  0  0
   22.2253   73.5068    2.1861 C   0  0  1  0  0  0  0  0  0  0  0  0
   20.3077   73.8505    3.5541 C   0  0  1  0  0  0  0  0  0  0  0  0
   24.2705   74.2243    5.5974 H   0  0  0  0  0  0  0  0  0  0  0  0
   25.0258   73.7820    3.8254 H   0  0  0  0  0  0  0  0  0  0  0  0
   21.0574   74.1937    6.7002 H   0  0  0  0  0  0  0  0  0  0  0  0
   19.0343   75.4170    2.3599 O   0  0  0  0  0  0  0  0  0  0  0  0
   18.0944   74.5262    4.2367 O   0  0  0  0  0  0  0  0  0  0  0  0
   19.0265   74.6123    3.4514 C   0  0  0  0  0  0  0  0  0  0  0  0
  1  4  1  0
  1 24  1  0
  1  2  1  1
  1  3  2  0
 25 28  1  0
 25 24  1  0
 25 26  1  6
 25 27  2  0
  6 11  1  0
  6 12  1  0
 29 36  1  0
 29 37  1  0
  9  7  1  6
  7 13  1  0
 10  8  1  1
  8 14  1  0
  4  5  1  0
 36 28  1  1
 33 30  1  1
 30 38  1  0
 34 31  1  1
 31 39  1  0
 35 32  1  1
 32 40  1  0
 41 43  1  0
 15 19  2  0
 42 43  2  0
 16 22  2  0
 12 17  1  6
 17 19  1  0
 17 20  1  0
 18 19  1  0
 18 22  1  0
 18 23  1  0
  9 10  1  0
  9 11  1  0
 10 12  1  0
 11  5  1  6
 33 34  1  0
 33 35  1  0
 34 36  1  0
 35 37  1  0
 37 43  1  6
 20 21  2  0
 21 22  1  0
M  CHG  3   2  -1  26  -1  41  -1
M  END
>  <COMPND>  (110) 
    udp_gluA.pdb 

>  <AUTHOR>  (110) 
    GENERATED BY OPEN BABEL 3.1.1

>  <MASTER>  (110) 
        0    0    0    0    0    0    0    0   56    0   56    0

>  <minimizedAffinity>  (110) 
-6.30579

>  <CNNscore>  (110) 
0.6956280470

>  <CNNaffinity>  (110) 
4.3624277115

>  <CNN_VS>  (110) 
3.0346269608

>  <CNNaffinity_variance>  (110) 
0.0207994096

$$$$
111
     RDKit          3D

 43 45  0  0  0  0  0  0  0  0999 V2000
   23.2256   73.5157   -4.2778 P   0  0  2  0  0  0  0  0  0  0  0  0
   24.2101   72.2385   -4.1423 O   0  0  0  0  0  0  0  0  0  0  0  0
   23.8410   74.7247   -4.9191 O   0  0  0  0  0  0  0  0  0  0  0  0
   22.6570   73.7287   -2.7780 O   0  0  0  0  0  0  0  0  0  0  0  0
   21.7727   74.8078   -2.5371 C   0  0  0  0  0  0  0  0  0  0  0  0
   20.8654   72.9924   -1.2491 O   0  0  0  0  0  0  0  0  0  0  0  0
   18.7556   74.9265   -0.3551 O   0  0  0  0  0  0  0  0  0  0  0  0
   20.4555   74.8717    1.7765 O   0  0  0  0  0  0  0  0  0  0  0  0
   20.1400   75.1570   -0.6175 C   0  0  1  0  0  0  0  0  0  0  0  0
   20.9874   74.5862    0.4997 C   0  0  2  0  0  0  0  0  0  0  0  0
   20.5449   74.2880   -1.8004 C   0  0  1  0  0  0  0  0  0  0  0  0
   20.9733   73.1013    0.1791 C   0  0  2  0  0  0  0  0  0  0  0  0
   18.4737   75.4711    0.3971 H   0  0  0  0  0  0  0  0  0  0  0  0
   20.4869   75.8291    1.9331 H   0  0  0  0  0  0  0  0  0  0  0  0
   21.1118   70.3749    0.9030 O   0  0  0  0  0  0  0  0  0  0  0  0
   25.6214   70.6571    1.8127 O   0  0  0  0  0  0  0  0  0  0  0  0
   22.1709   72.4365    0.6089 N   0  0  0  0  0  0  0  0  0  0  0  0
   23.3575   70.5183    1.3564 N   0  0  0  0  0  0  0  0  0  0  0  0
   22.1326   71.0638    0.9500 C   0  0  0  0  0  0  0  0  0  0  0  0
   23.3656   73.1418    0.6875 C   0  0  0  0  0  0  0  0  0  0  0  0
   24.5252   72.6080    1.0764 C   0  0  0  0  0  0  0  0  0  0  0  0
   24.5713   71.1794    1.4511 C   0  0  0  0  0  0  0  0  0  0  0  0
   23.3554   69.5646    1.6009 H   0  0  0  0  0  0  0  0  0  0  0  0
   21.9516   72.9099   -5.0668 O   0  0  0  0  0  0  0  0  0  0  0  0
   21.0336   73.5370   -6.2405 P   0  0  2  0  0  0  0  0  0  0  0  0
   21.9219   73.2980   -7.5725 O   0  0  0  0  0  0  0  0  0  0  0  0
   20.6335   74.9659   -6.0123 O   0  0  0  0  0  0  0  0  0  0  0  0
   19.7975   72.5107   -6.3859 O   0  0  0  0  0  0  0  0  0  0  0  0
   19.4370   70.3219   -5.5563 O   0  0  0  0  0  0  0  0  0  0  0  0
   17.6049   70.1316   -9.2543 O   0  0  0  0  0  0  0  0  0  0  0  0
   20.1756   71.4841   -8.9431 O   0  0  0  0  0  0  0  0  0  0  0  0
   15.9996   70.3366   -6.8394 O   0  0  0  0  0  0  0  0  0  0  0  0
   18.0419   70.7558   -8.0470 C   0  0  2  0  0  0  0  0  0  0  0  0
   19.5652   70.6697   -7.9487 C   0  0  2  0  0  0  0  0  0  0  0  0
   17.3904   70.0220   -6.8727 C   0  0  1  0  0  0  0  0  0  0  0  0
   20.0507   71.1190   -6.5699 C   0  0  1  0  0  0  0  0  0  0  0  0
   18.0156   70.4334   -5.5429 C   0  0  1  0  0  0  0  0  0  0  0  0
   18.0063   70.5813  -10.0146 H   0  0  0  0  0  0  0  0  0  0  0  0
   19.8717   71.2047   -9.8205 H   0  0  0  0  0  0  0  0  0  0  0  0
   15.5898   70.0799   -7.6802 H   0  0  0  0  0  0  0  0  0  0  0  0
   18.6823   69.1736   -3.6801 O   0  0  0  0  0  0  0  0  0  0  0  0
   16.4847   69.0629   -4.2780 O   0  0  0  0  0  0  0  0  0  0  0  0
   17.6154   69.4912   -4.4546 C   0  0  0  0  0  0  0  0  0  0  0  0
  1  4  1  0
  1 24  1  0
  1  2  1  1
  1  3  2  0
 25 28  1  0
 25 24  1  0
 25 26  1  6
 25 27  2  0
  6 11  1  0
  6 12  1  0
 29 36  1  0
 29 37  1  0
  9  7  1  1
  7 13  1  0
 10  8  1  1
  8 14  1  0
  4  5  1  0
 36 28  1  1
 33 30  1  6
 30 38  1  0
 34 31  1  6
 31 39  1  0
 35 32  1  1
 32 40  1  0
 41 43  1  0
 15 19  2  0
 42 43  2  0
 16 22  2  0
 12 17  1  6
 17 19  1  0
 17 20  1  0
 18 19  1  0
 18 22  1  0
 18 23  1  0
  9 10  1  0
  9 11  1  0
 10 12  1  0
 11  5  1  1
 33 34  1  0
 33 35  1  0
 34 36  1  0
 35 37  1  0
 37 43  1  1
 20 21  2  0
 21 22  1  0
M  CHG  3   2  -1  26  -1  41  -1
M  END
>  <COMPND>  (111) 
    udp_gluA.pdb 

>  <AUTHOR>  (111) 
    GENERATED BY OPEN BABEL 3.1.1

>  <MASTER>  (111) 
        0    0    0    0    0    0    0    0   56    0   56    0

>  <minimizedAffinity>  (111) 
-7.45819

>  <CNNscore>  (111) 
0.6121935844

>  <CNNaffinity>  (111) 
4.5317926407

>  <CNN_VS>  (111) 
2.7743344307

>  <CNNaffinity_variance>  (111) 
0.1358189732

$$$$
112
     RDKit          3D

 43 45  0  0  0  0  0  0  0  0999 V2000
   22.1486   73.0412   -1.9739 P   0  0  2  0  0  0  0  0  0  0  0  0
   22.6071   71.5047   -2.1927 O   0  0  0  0  0  0  0  0  0  0  0  0
   22.5650   73.9877   -3.0614 O   0  0  0  0  0  0  0  0  0  0  0  0
   22.6828   73.3984   -0.4890 O   0  0  0  0  0  0  0  0  0  0  0  0
   21.7561   73.8859    0.4639 C   0  0  0  0  0  0  0  0  0  0  0  0
   22.3833   71.8018    1.4841 O   0  0  0  0  0  0  0  0  0  0  0  0
   20.0078   72.1772    3.2750 O   0  0  0  0  0  0  0  0  0  0  0  0
   22.0818   72.9550    4.8654 O   0  0  0  0  0  0  0  0  0  0  0  0
   20.9049   73.1545    2.7471 C   0  0  1  0  0  0  0  0  0  0  0  0
   22.2348   73.0888    3.4678 C   0  0  2  0  0  0  0  0  0  0  0  0
   21.2860   72.7287    1.3358 C   0  0  1  0  0  0  0  0  0  0  0  0
   22.8788   71.8693    2.8306 C   0  0  2  0  0  0  0  0  0  0  0  0
   19.7502   72.4277    4.1764 H   0  0  0  0  0  0  0  0  0  0  0  0
   21.6680   73.7565    5.2235 H   0  0  0  0  0  0  0  0  0  0  0  0
   24.5995   69.7208    2.1984 O   0  0  0  0  0  0  0  0  0  0  0  0
   28.3580   72.3345    2.7329 O   0  0  0  0  0  0  0  0  0  0  0  0
   24.3111   71.9606    2.7971 N   0  0  0  0  0  0  0  0  0  0  0  0
   26.4698   71.0244    2.4662 N   0  0  0  0  0  0  0  0  0  0  0  0
   25.0835   70.8217    2.4678 C   0  0  0  0  0  0  0  0  0  0  0  0
   24.9361   73.1675    3.0865 C   0  0  0  0  0  0  0  0  0  0  0  0
   26.2586   73.3453    3.0808 C   0  0  0  0  0  0  0  0  0  0  0  0
   27.1376   72.2052    2.7478 C   0  0  0  0  0  0  0  0  0  0  0  0
   27.0285   70.2454    2.2418 H   0  0  0  0  0  0  0  0  0  0  0  0
   20.5505   72.9168   -1.7650 O   0  0  0  0  0  0  0  0  0  0  0  0
   19.5597   71.6454   -1.8889 P   0  0  2  0  0  0  0  0  0  0  0  0
   18.0974   72.2894   -1.6294 O   0  0  0  0  0  0  0  0  0  0  0  0
   19.9041   70.5049   -0.9754 O   0  0  0  0  0  0  0  0  0  0  0  0
   19.5674   71.2719   -3.4583 O   0  0  0  0  0  0  0  0  0  0  0  0
   20.2801   72.8112   -5.1111 O   0  0  0  0  0  0  0  0  0  0  0  0
   18.0173   70.1706   -7.3415 O   0  0  0  0  0  0  0  0  0  0  0  0
   17.0956   71.0594   -4.7157 O   0  0  0  0  0  0  0  0  0  0  0  0
   20.9199   70.0747   -7.4699 O   0  0  0  0  0  0  0  0  0  0  0  0
   18.8843   70.5698   -6.2800 C   0  0  2  0  0  0  0  0  0  0  0  0
   18.1905   71.6294   -5.4236 C   0  0  2  0  0  0  0  0  0  0  0  0
   20.1612   71.1403   -6.9014 C   0  0  1  0  0  0  0  0  0  0  0  0
   19.1656   72.2461   -4.4198 C   0  0  1  0  0  0  0  0  0  0  0  0
   21.0205   71.8482   -5.8578 C   0  0  1  0  0  0  0  0  0  0  0  0
   17.1989   69.8048   -6.9706 H   0  0  0  0  0  0  0  0  0  0  0  0
   16.4729   70.6660   -5.3465 H   0  0  0  0  0  0  0  0  0  0  0  0
   20.3843   69.6157   -8.1358 H   0  0  0  0  0  0  0  0  0  0  0  0
   21.5279   73.5526   -7.3872 O   0  0  0  0  0  0  0  0  0  0  0  0
   23.2777   72.5785   -6.2971 O   0  0  0  0  0  0  0  0  0  0  0  0
   22.0790   72.6738   -6.5138 C   0  0  0  0  0  0  0  0  0  0  0  0
  1  4  1  0
  1 24  1  0
  1  2  1  6
  1  3  2  0
 25 28  1  0
 25 24  1  0
 25 26  1  1
 25 27  2  0
  6 11  1  0
  6 12  1  0
 29 36  1  0
 29 37  1  0
  9  7  1  1
  7 13  1  0
 10  8  1  1
  8 14  1  0
  4  5  1  0
 36 28  1  1
 33 30  1  6
 30 38  1  0
 34 31  1  1
 31 39  1  0
 35 32  1  1
 32 40  1  0
 41 43  1  0
 15 19  2  0
 42 43  2  0
 16 22  2  0
 12 17  1  6
 17 19  1  0
 17 20  1  0
 18 19  1  0
 18 22  1  0
 18 23  1  0
  9 10  1  0
  9 11  1  0
 10 12  1  0
 11  5  1  6
 33 34  1  0
 33 35  1  0
 34 36  1  0
 35 37  1  0
 37 43  1  6
 20 21  2  0
 21 22  1  0
M  CHG  3   2  -1  26  -1  41  -1
M  END
>  <COMPND>  (112) 
    udp_gluA.pdb 

>  <AUTHOR>  (112) 
    GENERATED BY OPEN BABEL 3.1.1

>  <MASTER>  (112) 
        0    0    0    0    0    0    0    0   56    0   56    0

>  <minimizedAffinity>  (112) 
-6.82826

>  <CNNscore>  (112) 
0.6089733839

>  <CNNaffinity>  (112) 
4.2764940262

>  <CNN_VS>  (112) 
2.6042709351

>  <CNNaffinity_variance>  (112) 
0.1121660024

$$$$
113
     RDKit          3D

 43 45  0  0  0  0  0  0  0  0999 V2000
   22.0884   73.2859   -4.9351 P   0  0  2  0  0  0  0  0  0  0  0  0
   20.8875   74.3668   -4.8432 O   0  0  0  0  0  0  0  0  0  0  0  0
   23.3480   73.7913   -5.5752 O   0  0  0  0  0  0  0  0  0  0  0  0
   21.4039   72.0042   -5.6470 O   0  0  0  0  0  0  0  0  0  0  0  0
   20.7436   72.1912   -6.8853 C   0  0  0  0  0  0  0  0  0  0  0  0
   19.4382   70.2425   -6.3597 O   0  0  0  0  0  0  0  0  0  0  0  0
   19.3963   69.7036   -9.3092 O   0  0  0  0  0  0  0  0  0  0  0  0
   16.9387   70.8001   -8.8689 O   0  0  0  0  0  0  0  0  0  0  0  0
   19.3525   70.9521   -8.6180 C   0  0  1  0  0  0  0  0  0  0  0  0
   17.9883   71.1584   -7.9945 C   0  0  2  0  0  0  0  0  0  0  0  0
   20.2496   70.8425   -7.3927 C   0  0  1  0  0  0  0  0  0  0  0  0
   18.0620   70.2612   -6.7708 C   0  0  2  0  0  0  0  0  0  0  0  0
   18.8305   69.7493  -10.0962 H   0  0  0  0  0  0  0  0  0  0  0  0
   16.9339   71.4006   -9.6313 H   0  0  0  0  0  0  0  0  0  0  0  0
   16.7603   68.6088   -4.8861 O   0  0  0  0  0  0  0  0  0  0  0  0
   15.0004   72.2347   -2.6501 O   0  0  0  0  0  0  0  0  0  0  0  0
   17.2572   70.7471   -5.6858 N   0  0  0  0  0  0  0  0  0  0  0  0
   15.8842   70.4163   -3.7749 N   0  0  0  0  0  0  0  0  0  0  0  0
   16.6469   69.8327   -4.7951 C   0  0  0  0  0  0  0  0  0  0  0  0
   17.0805   72.1143   -5.5115 C   0  0  0  0  0  0  0  0  0  0  0  0
   16.3507   72.6556   -4.5342 C   0  0  0  0  0  0  0  0  0  0  0  0
   15.6786   71.7697   -3.5612 C   0  0  0  0  0  0  0  0  0  0  0  0
   15.4478   69.7996   -3.1435 H   0  0  0  0  0  0  0  0  0  0  0  0
   22.2593   72.8020   -3.4023 O   0  0  0  0  0  0  0  0  0  0  0  0
   22.4663   71.3280   -2.7714 P   0  0  2  0  0  0  0  0  0  0  0  0
   24.0521   71.0638   -2.9612 O   0  0  0  0  0  0  0  0  0  0  0  0
   21.5868   70.2711   -3.3742 O   0  0  0  0  0  0  0  0  0  0  0  0
   22.2749   71.5323   -1.1827 O   0  0  0  0  0  0  0  0  0  0  0  0
   22.0146   73.6326   -0.1197 O   0  0  0  0  0  0  0  0  0  0  0  0
   23.4891   71.3082    2.9611 O   0  0  0  0  0  0  0  0  0  0  0  0
   24.6032   71.0805    0.2701 O   0  0  0  0  0  0  0  0  0  0  0  0
   20.6698   72.0129    2.8854 O   0  0  0  0  0  0  0  0  0  0  0  0
   22.7571   71.5744    1.7647 C   0  0  2  0  0  0  0  0  0  0  0  0
   23.7075   72.1031    0.6902 C   0  0  2  0  0  0  0  0  0  0  0  0
   21.6858   72.6183    2.0881 C   0  0  1  0  0  0  0  0  0  0  0  0
   22.9306   72.6143   -0.5239 C   0  0  1  0  0  0  0  0  0  0  0  0
   21.0450   73.1708    0.8183 C   0  0  1  0  0  0  0  0  0  0  0  0
   24.1759   70.6473    2.7798 H   0  0  0  0  0  0  0  0  0  0  0  0
   25.0994   70.7513    1.0355 H   0  0  0  0  0  0  0  0  0  0  0  0
   21.0645   71.6570    3.6967 H   0  0  0  0  0  0  0  0  0  0  0  0
   19.0347   74.0788    1.6157 O   0  0  0  0  0  0  0  0  0  0  0  0
   20.6432   75.5468    0.9395 O   0  0  0  0  0  0  0  0  0  0  0  0
   20.2533   74.4023    1.1162 C   0  0  0  0  0  0  0  0  0  0  0  0
  1  4  1  0
  1 24  1  0
  1  2  1  1
  1  3  2  0
 25 28  1  0
 25 24  1  0
 25 26  1  1
 25 27  2  0
  6 11  1  0
  6 12  1  0
 29 36  1  0
 29 37  1  0
  9  7  1  1
  7 13  1  0
 10  8  1  6
  8 14  1  0
  4  5  1  0
 36 28  1  1
 33 30  1  1
 30 38  1  0
 34 31  1  6
 31 39  1  0
 35 32  1  1
 32 40  1  0
 41 43  1  0
 15 19  2  0
 42 43  2  0
 16 22  2  0
 12 17  1  1
 17 19  1  0
 17 20  1  0
 18 19  1  0
 18 22  1  0
 18 23  1  0
  9 10  1  0
  9 11  1  0
 10 12  1  0
 11  5  1  1
 33 34  1  0
 33 35  1  0
 34 36  1  0
 35 37  1  0
 37 43  1  1
 20 21  2  0
 21 22  1  0
M  CHG  3   2  -1  26  -1  41  -1
M  END
>  <COMPND>  (113) 
    udp_gluA.pdb 

>  <AUTHOR>  (113) 
    GENERATED BY OPEN BABEL 3.1.1

>  <MASTER>  (113) 
        0    0    0    0    0    0    0    0   56    0   56    0

>  <minimizedAffinity>  (113) 
-7.02455

>  <CNNscore>  (113) 
0.5696933866

>  <CNNaffinity>  (113) 
4.3890385628

>  <CNN_VS>  (113) 
2.5004062653

>  <CNNaffinity_variance>  (113) 
0.2010323256

$$$$
114
     RDKit          3D

 43 45  0  0  0  0  0  0  0  0999 V2000
   21.3842   74.5983   -4.8644 P   0  0  2  0  0  0  0  0  0  0  0  0
   20.8033   76.1087   -4.8578 O   0  0  0  0  0  0  0  0  0  0  0  0
   22.1350   74.2137   -6.1055 O   0  0  0  0  0  0  0  0  0  0  0  0
   20.0962   73.6851   -4.5110 O   0  0  0  0  0  0  0  0  0  0  0  0
   18.8068   74.1946   -4.7982 C   0  0  0  0  0  0  0  0  0  0  0  0
   17.1684   72.5920   -5.5228 O   0  0  0  0  0  0  0  0  0  0  0  0
   17.3070   71.4721   -2.7446 O   0  0  0  0  0  0  0  0  0  0  0  0
   18.8468   69.7284   -4.1675 O   0  0  0  0  0  0  0  0  0  0  0  0
   18.3487   72.0264   -3.5485 C   0  0  1  0  0  0  0  0  0  0  0  0
   18.7409   71.0546   -4.6412 C   0  0  2  0  0  0  0  0  0  0  0  0
   17.7616   73.1828   -4.3462 C   0  0  1  0  0  0  0  0  0  0  0  0
   17.6100   71.2302   -5.6403 C   0  0  2  0  0  0  0  0  0  0  0  0
   17.6582   70.7312   -2.2256 H   0  0  0  0  0  0  0  0  0  0  0  0
   19.5807   69.6686   -3.5352 H   0  0  0  0  0  0  0  0  0  0  0  0
   15.9246   70.2554   -7.6861 O   0  0  0  0  0  0  0  0  0  0  0  0
   19.3317   70.3493  -10.7888 O   0  0  0  0  0  0  0  0  0  0  0  0
   18.0307   70.9907   -6.9918 N   0  0  0  0  0  0  0  0  0  0  0  0
   17.6234   70.3021   -9.2292 N   0  0  0  0  0  0  0  0  0  0  0  0
   17.1050   70.4999   -7.9427 C   0  0  0  0  0  0  0  0  0  0  0  0
   19.3455   71.2430   -7.3640 C   0  0  0  0  0  0  0  0  0  0  0  0
   19.8250   71.0496   -8.5942 C   0  0  0  0  0  0  0  0  0  0  0  0
   18.9232   70.5378   -9.6470 C   0  0  0  0  0  0  0  0  0  0  0  0
   16.9982   69.9589   -9.9080 H   0  0  0  0  0  0  0  0  0  0  0  0
   22.2560   74.5389   -3.5045 O   0  0  0  0  0  0  0  0  0  0  0  0
   23.6564   73.8024   -3.1728 P   0  0  2  0  0  0  0  0  0  0  0  0
   24.6446   75.0324   -2.8110 O   0  0  0  0  0  0  0  0  0  0  0  0
   24.1574   72.9089   -4.2704 O   0  0  0  0  0  0  0  0  0  0  0  0
   23.4030   73.0561   -1.7652 O   0  0  0  0  0  0  0  0  0  0  0  0
   23.9215   71.1914   -0.4002 O   0  0  0  0  0  0  0  0  0  0  0  0
   19.9273   70.5402   -1.2314 O   0  0  0  0  0  0  0  0  0  0  0  0
   21.7452   71.4585   -3.3258 O   0  0  0  0  0  0  0  0  0  0  0  0
   20.7314   71.5316    1.3804 O   0  0  0  0  0  0  0  0  0  0  0  0
   21.0980   71.3212   -0.9916 C   0  0  2  0  0  0  0  0  0  0  0  0
   22.1563   70.9938   -2.0453 C   0  0  2  0  0  0  0  0  0  0  0  0
   21.6161   70.9795    0.4072 C   0  0  1  0  0  0  0  0  0  0  0  0
   23.4986   71.6349   -1.6901 C   0  0  1  0  0  0  0  0  0  0  0  0
   23.0127   71.5493    0.6386 C   0  0  1  0  0  0  0  0  0  0  0  0
   19.5802   70.7405   -2.1150 H   0  0  0  0  0  0  0  0  0  0  0  0
   20.8940   71.0560   -3.5574 H   0  0  0  0  0  0  0  0  0  0  0  0
   19.8389   71.1771    1.2441 H   0  0  0  0  0  0  0  0  0  0  0  0
   23.1759   71.5462    2.9785 O   0  0  0  0  0  0  0  0  0  0  0  0
   24.4509   70.0334    1.8448 O   0  0  0  0  0  0  0  0  0  0  0  0
   23.6374   70.9451    1.8539 C   0  0  0  0  0  0  0  0  0  0  0  0
  1  4  1  0
  1 24  1  0
  1  2  1  6
  1  3  2  0
 25 28  1  0
 25 24  1  0
 25 26  1  1
 25 27  2  0
  6 11  1  0
  6 12  1  0
 29 36  1  0
 29 37  1  0
  9  7  1  1
  7 13  1  0
 10  8  1  1
  8 14  1  0
  4  5  1  0
 36 28  1  1
 33 30  1  6
 30 38  1  0
 34 31  1  6
 31 39  1  0
 35 32  1  1
 32 40  1  0
 41 43  1  0
 15 19  2  0
 42 43  2  0
 16 22  2  0
 12 17  1  6
 17 19  1  0
 17 20  1  0
 18 19  1  0
 18 22  1  0
 18 23  1  0
  9 10  1  0
  9 11  1  0
 10 12  1  0
 11  5  1  6
 33 34  1  0
 33 35  1  0
 34 36  1  0
 35 37  1  0
 37 43  1  1
 20 21  2  0
 21 22  1  0
M  CHG  3   2  -1  26  -1  41  -1
M  END
>  <COMPND>  (114) 
    udp_gluA.pdb 

>  <AUTHOR>  (114) 
    GENERATED BY OPEN BABEL 3.1.1

>  <MASTER>  (114) 
        0    0    0    0    0    0    0    0   56    0   56    0

>  <minimizedAffinity>  (114) 
-7.41603

>  <CNNscore>  (114) 
0.5687257648

>  <CNNaffinity>  (114) 
4.3147377968

>  <CNN_VS>  (114) 
2.4539024830

>  <CNNaffinity_variance>  (114) 
0.0603285059

$$$$
115
     RDKit          3D

 43 45  0  0  0  0  0  0  0  0999 V2000
   23.1726   72.2731   -3.3897 P   0  0  2  0  0  0  0  0  0  0  0  0
   24.0752   70.9594   -3.1097 O   0  0  0  0  0  0  0  0  0  0  0  0
   23.7868   73.2772   -4.3204 O   0  0  0  0  0  0  0  0  0  0  0  0
   22.8088   72.8172   -1.9100 O   0  0  0  0  0  0  0  0  0  0  0  0
   23.8024   72.7545   -0.9034 C   0  0  0  0  0  0  0  0  0  0  0  0
   24.7364   71.2857    0.7543 O   0  0  0  0  0  0  0  0  0  0  0  0
   21.9178   70.4308    1.3163 O   0  0  0  0  0  0  0  0  0  0  0  0
   22.4306   72.1694    3.3536 O   0  0  0  0  0  0  0  0  0  0  0  0
   22.4175   71.7210    0.9638 C   0  0  1  0  0  0  0  0  0  0  0  0
   23.1348   72.3451    2.1421 C   0  0  2  0  0  0  0  0  0  0  0  0
   23.5513   71.5291   -0.0341 C   0  0  1  0  0  0  0  0  0  0  0  0
   24.4646   71.6107    2.1268 C   0  0  2  0  0  0  0  0  0  0  0  0
   21.1922   70.5277    1.9533 H   0  0  0  0  0  0  0  0  0  0  0  0
   21.5919   72.6561    3.3136 H   0  0  0  0  0  0  0  0  0  0  0  0
   27.1256   70.7113    2.4207 O   0  0  0  0  0  0  0  0  0  0  0  0
   28.5065   74.7751    4.1007 O   0  0  0  0  0  0  0  0  0  0  0  0
   25.5395   72.4129    2.6385 N   0  0  0  0  0  0  0  0  0  0  0  0
   27.8106   72.7359    3.2581 N   0  0  0  0  0  0  0  0  0  0  0  0
   26.8398   71.8652    2.7458 C   0  0  0  0  0  0  0  0  0  0  0  0
   25.3015   73.7260    3.0258 C   0  0  0  0  0  0  0  0  0  0  0  0
   26.2371   74.5438    3.5122 C   0  0  0  0  0  0  0  0  0  0  0  0
   27.6219   74.0491    3.6573 C   0  0  0  0  0  0  0  0  0  0  0  0
   28.7232   72.3764    3.3441 H   0  0  0  0  0  0  0  0  0  0  0  0
   21.7723   71.6488   -3.9018 O   0  0  0  0  0  0  0  0  0  0  0  0
   20.2589   72.2075   -3.7951 P   0  0  2  0  0  0  0  0  0  0  0  0
   20.4251   73.7873   -4.1066 O   0  0  0  0  0  0  0  0  0  0  0  0
   19.5803   71.9023   -2.4912 O   0  0  0  0  0  0  0  0  0  0  0  0
   19.5106   71.6128   -5.0947 O   0  0  0  0  0  0  0  0  0  0  0  0
   19.1184   71.9406   -7.4072 O   0  0  0  0  0  0  0  0  0  0  0  0
   15.2851   72.0955   -5.8742 O   0  0  0  0  0  0  0  0  0  0  0  0
   17.4883   73.4242   -4.4903 O   0  0  0  0  0  0  0  0  0  0  0  0
   16.1968   69.7243   -7.2875 O   0  0  0  0  0  0  0  0  0  0  0  0
   16.6463   71.6701   -5.9396 C   0  0  2  0  0  0  0  0  0  0  0  0
   17.5683   72.8821   -5.8035 C   0  0  2  0  0  0  0  0  0  0  0  0
   16.8634   70.9853   -7.2908 C   0  0  1  0  0  0  0  0  0  0  0  0
   19.0199   72.5009   -6.0973 C   0  0  1  0  0  0  0  0  0  0  0  0
   18.3462   70.7524   -7.5655 C   0  0  1  0  0  0  0  0  0  0  0  0
   15.1236   72.5337   -5.0238 H   0  0  0  0  0  0  0  0  0  0  0  0
   16.5698   73.6680   -4.2971 H   0  0  0  0  0  0  0  0  0  0  0  0
   15.2520   69.8584   -7.1135 H   0  0  0  0  0  0  0  0  0  0  0  0
   19.6182   71.0900   -9.5071 O   0  0  0  0  0  0  0  0  0  0  0  0
   17.9077   69.5875   -9.6324 O   0  0  0  0  0  0  0  0  0  0  0  0
   18.5705   70.3951   -8.9988 C   0  0  0  0  0  0  0  0  0  0  0  0
  1  4  1  0
  1 24  1  0
  1  2  1  1
  1  3  2  0
 25 28  1  0
 25 24  1  0
 25 26  1  6
 25 27  2  0
  6 11  1  0
  6 12  1  0
 29 36  1  0
 29 37  1  0
  9  7  1  1
  7 13  1  0
 10  8  1  1
  8 14  1  0
  4  5  1  0
 36 28  1  1
 33 30  1  6
 30 38  1  0
 34 31  1  1
 31 39  1  0
 35 32  1  1
 32 40  1  0
 41 43  1  0
 15 19  2  0
 42 43  2  0
 16 22  2  0
 12 17  1  6
 17 19  1  0
 17 20  1  0
 18 19  1  0
 18 22  1  0
 18 23  1  0
  9 10  1  0
  9 11  1  0
 10 12  1  0
 11  5  1  1
 33 34  1  0
 33 35  1  0
 34 36  1  0
 35 37  1  0
 37 43  1  6
 20 21  2  0
 21 22  1  0
M  CHG  3   2  -1  26  -1  41  -1
M  END
>  <COMPND>  (115) 
    udp_gluA.pdb 

>  <AUTHOR>  (115) 
    GENERATED BY OPEN BABEL 3.1.1

>  <MASTER>  (115) 
        0    0    0    0    0    0    0    0   56    0   56    0

>  <minimizedAffinity>  (115) 
-7.07669

>  <CNNscore>  (115) 
0.5581542253

>  <CNNaffinity>  (115) 
4.3090682030

>  <CNN_VS>  (115) 
2.4051246643

>  <CNNaffinity_variance>  (115) 
0.0393601879

$$$$
116
     RDKit          3D

 43 45  0  0  0  0  0  0  0  0999 V2000
   23.6447   72.3430   -3.4735 P   0  0  2  0  0  0  0  0  0  0  0  0
   24.1825   70.8406   -3.2043 O   0  0  0  0  0  0  0  0  0  0  0  0
   24.6583   73.2838   -4.0559 O   0  0  0  0  0  0  0  0  0  0  0  0
   23.0074   72.7876   -2.0543 O   0  0  0  0  0  0  0  0  0  0  0  0
   22.8008   71.7956   -1.0654 C   0  0  0  0  0  0  0  0  0  0  0  0
   21.0390   71.1938    0.4549 O   0  0  0  0  0  0  0  0  0  0  0  0
   19.1497   72.3297   -1.5777 O   0  0  0  0  0  0  0  0  0  0  0  0
   19.3167   74.3325    0.2654 O   0  0  0  0  0  0  0  0  0  0  0  0
   20.4566   72.7732   -1.2115 C   0  0  1  0  0  0  0  0  0  0  0  0
   20.4186   73.4583    0.1381 C   0  0  2  0  0  0  0  0  0  0  0  0
   21.3056   71.5432   -0.9206 C   0  0  1  0  0  0  0  0  0  0  0  0
   20.3405   72.2766    1.0896 C   0  0  2  0  0  0  0  0  0  0  0  0
   18.5888   73.0983   -1.7684 H   0  0  0  0  0  0  0  0  0  0  0  0
   19.4133   75.0678   -0.3607 H   0  0  0  0  0  0  0  0  0  0  0  0
   19.1780   73.8593    3.1195 O   0  0  0  0  0  0  0  0  0  0  0  0
   22.7979   73.2638    5.9098 O   0  0  0  0  0  0  0  0  0  0  0  0
   20.9573   72.5514    2.3564 N   0  0  0  0  0  0  0  0  0  0  0  0
   20.9824   73.5620    4.5069 N   0  0  0  0  0  0  0  0  0  0  0  0
   20.2885   73.3587    3.3068 C   0  0  0  0  0  0  0  0  0  0  0  0
   22.2090   72.0228    2.6476 C   0  0  0  0  0  0  0  0  0  0  0  0
   22.8578   72.2253    3.7960 C   0  0  0  0  0  0  0  0  0  0  0  0
   22.2287   73.0580    4.8421 C   0  0  0  0  0  0  0  0  0  0  0  0
   20.5378   74.1225    5.1832 H   0  0  0  0  0  0  0  0  0  0  0  0
   22.3408   72.1015   -4.3977 O   0  0  0  0  0  0  0  0  0  0  0  0
   21.7163   72.9802   -5.6025 P   0  0  2  0  0  0  0  0  0  0  0  0
   22.6663   72.6115   -6.8602 O   0  0  0  0  0  0  0  0  0  0  0  0
   21.6221   74.4494   -5.3084 O   0  0  0  0  0  0  0  0  0  0  0  0
   20.3056   72.2726   -5.9366 O   0  0  0  0  0  0  0  0  0  0  0  0
   19.6255   70.1358   -5.1745 O   0  0  0  0  0  0  0  0  0  0  0  0
   17.3884   70.5497   -8.6231 O   0  0  0  0  0  0  0  0  0  0  0  0
   20.1899   71.3763   -8.5671 O   0  0  0  0  0  0  0  0  0  0  0  0
   16.1336   70.8785   -6.0215 O   0  0  0  0  0  0  0  0  0  0  0  0
   18.0699   70.9953   -7.4505 C   0  0  2  0  0  0  0  0  0  0  0  0
   19.5493   70.6213   -7.5451 C   0  0  2  0  0  0  0  0  0  0  0  0
   17.4251   70.3144   -6.2412 C   0  0  1  0  0  0  0  0  0  0  0  0
   20.2637   70.8745   -6.2168 C   0  0  1  0  0  0  0  0  0  0  0  0
   18.2628   70.5079   -4.9805 C   0  0  1  0  0  0  0  0  0  0  0  0
   17.7811   70.9694   -9.4047 H   0  0  0  0  0  0  0  0  0  0  0  0
   19.7415   71.2206   -9.4127 H   0  0  0  0  0  0  0  0  0  0  0  0
   15.5904   70.7621   -6.8166 H   0  0  0  0  0  0  0  0  0  0  0  0
   16.8791   68.7170   -4.3645 O   0  0  0  0  0  0  0  0  0  0  0  0
   18.2265   69.5943   -2.7477 O   0  0  0  0  0  0  0  0  0  0  0  0
   17.8131   69.5821   -3.8975 C   0  0  0  0  0  0  0  0  0  0  0  0
  1  4  1  0
  1 24  1  0
  1  2  1  1
  1  3  2  0
 25 28  1  0
 25 24  1  0
 25 26  1  6
 25 27  2  0
  6 11  1  0
  6 12  1  0
 29 36  1  0
 29 37  1  0
  9  7  1  1
  7 13  1  0
 10  8  1  6
  8 14  1  0
  4  5  1  0
 36 28  1  1
 33 30  1  6
 30 38  1  0
 34 31  1  6
 31 39  1  0
 35 32  1  1
 32 40  1  0
 41 43  1  0
 15 19  2  0
 42 43  2  0
 16 22  2  0
 12 17  1  1
 17 19  1  0
 17 20  1  0
 18 19  1  0
 18 22  1  0
 18 23  1  0
  9 10  1  0
  9 11  1  0
 10 12  1  0
 11  5  1  1
 33 34  1  0
 33 35  1  0
 34 36  1  0
 35 37  1  0
 37 43  1  1
 20 21  2  0
 21 22  1  0
M  CHG  3   2  -1  26  -1  41  -1
M  END
>  <COMPND>  (116) 
    udp_gluA.pdb 

>  <AUTHOR>  (116) 
    GENERATED BY OPEN BABEL 3.1.1

>  <MASTER>  (116) 
        0    0    0    0    0    0    0    0   56    0   56    0

>  <minimizedAffinity>  (116) 
-7.41445

>  <CNNscore>  (116) 
0.5457133055

>  <CNNaffinity>  (116) 
4.1723666191

>  <CNN_VS>  (116) 
2.2769160271

>  <CNNaffinity_variance>  (116) 
0.1923283339

$$$$
117
     RDKit          3D

 43 45  0  0  0  0  0  0  0  0999 V2000
   22.4887   71.5317   -2.8088 P   0  0  2  0  0  0  0  0  0  0  0  0
   21.7299   72.8050   -3.4584 O   0  0  0  0  0  0  0  0  0  0  0  0
   23.8365   71.2302   -3.3955 O   0  0  0  0  0  0  0  0  0  0  0  0
   21.3985   70.3399   -2.9037 O   0  0  0  0  0  0  0  0  0  0  0  0
   20.2892   70.5054   -3.7677 C   0  0  0  0  0  0  0  0  0  0  0  0
   18.1413   71.4181   -3.1925 O   0  0  0  0  0  0  0  0  0  0  0  0
   17.3917   68.6380   -2.3551 O   0  0  0  0  0  0  0  0  0  0  0  0
   16.2214   68.8573   -4.8084 O   0  0  0  0  0  0  0  0  0  0  0  0
   18.2194   69.0634   -3.4380 C   0  0  1  0  0  0  0  0  0  0  0  0
   17.3704   69.6376   -4.5524 C   0  0  2  0  0  0  0  0  0  0  0  0
   19.0067   70.2823   -2.9768 C   0  0  1  0  0  0  0  0  0  0  0  0
   17.0323   71.0168   -4.0126 C   0  0  2  0  0  0  0  0  0  0  0  0
   16.8788   67.8601   -2.6260 H   0  0  0  0  0  0  0  0  0  0  0  0
   16.4896   67.9895   -5.1503 H   0  0  0  0  0  0  0  0  0  0  0  0
   14.7285   72.6223   -4.3149 O   0  0  0  0  0  0  0  0  0  0  0  0
   16.4417   74.6958   -8.0578 O   0  0  0  0  0  0  0  0  0  0  0  0
   16.8500   71.9845   -5.0573 N   0  0  0  0  0  0  0  0  0  0  0  0
   15.5835   73.6528   -6.1794 N   0  0  0  0  0  0  0  0  0  0  0  0
   15.6547   72.7392   -5.1195 C   0  0  0  0  0  0  0  0  0  0  0  0
   17.8481   72.1793   -6.0042 C   0  0  0  0  0  0  0  0  0  0  0  0
   17.7659   73.0539   -7.0087 C   0  0  0  0  0  0  0  0  0  0  0  0
   16.5495   73.8816   -7.1459 C   0  0  0  0  0  0  0  0  0  0  0  0
   14.7600   74.1883   -6.2446 H   0  0  0  0  0  0  0  0  0  0  0  0
   22.5047   71.8848   -1.2314 O   0  0  0  0  0  0  0  0  0  0  0  0
   21.2972   72.1755   -0.1965 P   0  0  2  0  0  0  0  0  0  0  0  0
   20.8783   70.6956    0.3083 O   0  0  0  0  0  0  0  0  0  0  0  0
   20.1664   72.9736   -0.7782 O   0  0  0  0  0  0  0  0  0  0  0  0
   22.0085   72.8555    1.0818 O   0  0  0  0  0  0  0  0  0  0  0  0
   23.9233   72.2893    2.3553 O   0  0  0  0  0  0  0  0  0  0  0  0
   21.3714   73.7279    5.2684 O   0  0  0  0  0  0  0  0  0  0  0  0
   20.3682   71.9826    3.1514 O   0  0  0  0  0  0  0  0  0  0  0  0
   23.5887   75.3600    4.3354 O   0  0  0  0  0  0  0  0  0  0  0  0
   21.9417   73.6415    3.9626 C   0  0  2  0  0  0  0  0  0  0  0  0
   21.7453   72.2293    3.4108 C   0  0  2  0  0  0  0  0  0  0  0  0
   23.4329   73.9663    4.0754 C   0  0  1  0  0  0  0  0  0  0  0  0
   22.5388   72.0316    2.1184 C   0  0  1  0  0  0  0  0  0  0  0  0
   24.1765   73.6243    2.7875 C   0  0  1  0  0  0  0  0  0  0  0  0
   20.4237   73.5254    5.2216 H   0  0  0  0  0  0  0  0  0  0  0  0
   19.8587   72.1065    3.9671 H   0  0  0  0  0  0  0  0  0  0  0  0
   23.1199   75.5909    5.1526 H   0  0  0  0  0  0  0  0  0  0  0  0
   26.1952   72.4364    2.6627 O   0  0  0  0  0  0  0  0  0  0  0  0
   26.2942   74.5764    3.4437 O   0  0  0  0  0  0  0  0  0  0  0  0
   25.6539   73.6301    3.0105 C   0  0  0  0  0  0  0  0  0  0  0  0
  1  4  1  0
  1 24  1  0
  1  2  1  6
  1  3  2  0
 25 28  1  0
 25 24  1  0
 25 26  1  1
 25 27  2  0
  6 11  1  0
  6 12  1  0
 29 36  1  0
 29 37  1  0
  9  7  1  1
  7 13  1  0
 10  8  1  1
  8 14  1  0
  4  5  1  0
 36 28  1  6
 33 30  1  1
 30 38  1  0
 34 31  1  6
 31 39  1  0
 35 32  1  6
 32 40  1  0
 41 43  1  0
 15 19  2  0
 42 43  2  0
 16 22  2  0
 12 17  1  6
 17 19  1  0
 17 20  1  0
 18 19  1  0
 18 22  1  0
 18 23  1  0
  9 10  1  0
  9 11  1  0
 10 12  1  0
 11  5  1  6
 33 34  1  0
 33 35  1  0
 34 36  1  0
 35 37  1  0
 37 43  1  1
 20 21  2  0
 21 22  1  0
M  CHG  3   2  -1  26  -1  41  -1
M  END
>  <COMPND>  (117) 
    udp_gluA.pdb 

>  <AUTHOR>  (117) 
    GENERATED BY OPEN BABEL 3.1.1

>  <MASTER>  (117) 
        0    0    0    0    0    0    0    0   56    0   56    0

>  <minimizedAffinity>  (117) 
-6.46439

>  <CNNscore>  (117) 
0.5129994154

>  <CNNaffinity>  (117) 
4.1569066048

>  <CNN_VS>  (117) 
2.1324906349

>  <CNNaffinity_variance>  (117) 
0.0670890212

$$$$
118
     RDKit          3D

 43 45  0  0  0  0  0  0  0  0999 V2000
   23.2748   72.4163   -3.4521 P   0  0  2  0  0  0  0  0  0  0  0  0
   23.7069   70.8758   -3.2091 O   0  0  0  0  0  0  0  0  0  0  0  0
   24.3285   73.2778   -4.0841 O   0  0  0  0  0  0  0  0  0  0  0  0
   22.7442   72.9041   -2.0034 O   0  0  0  0  0  0  0  0  0  0  0  0
   23.6377   72.8596   -0.9061 C   0  0  0  0  0  0  0  0  0  0  0  0
   24.5434   71.3102    0.6930 O   0  0  0  0  0  0  0  0  0  0  0  0
   21.7144   70.4403    1.1738 O   0  0  0  0  0  0  0  0  0  0  0  0
   22.2033   72.0782    3.2985 O   0  0  0  0  0  0  0  0  0  0  0  0
   22.2231   71.7438    0.8901 C   0  0  1  0  0  0  0  0  0  0  0  0
   22.9253   72.3086    2.1068 C   0  0  2  0  0  0  0  0  0  0  0  0
   23.3704   71.5952   -0.0997 C   0  0  1  0  0  0  0  0  0  0  0  0
   24.2529   71.5707    2.0754 C   0  0  2  0  0  0  0  0  0  0  0  0
   20.9800   70.5095    1.8044 H   0  0  0  0  0  0  0  0  0  0  0  0
   21.3668   72.5694    3.2698 H   0  0  0  0  0  0  0  0  0  0  0  0
   26.9270   70.6844    2.2762 O   0  0  0  0  0  0  0  0  0  0  0  0
   28.2749   74.6208    4.2590 O   0  0  0  0  0  0  0  0  0  0  0  0
   25.3229   72.3437    2.6398 N   0  0  0  0  0  0  0  0  0  0  0  0
   27.5956   72.6454    3.2645 N   0  0  0  0  0  0  0  0  0  0  0  0
   26.6305   71.8056    2.6932 C   0  0  0  0  0  0  0  0  0  0  0  0
   25.0729   73.6193    3.1309 C   0  0  0  0  0  0  0  0  0  0  0  0
   26.0032   74.4080    3.6725 C   0  0  0  0  0  0  0  0  0  0  0  0
   27.3950   73.9208    3.7671 C   0  0  0  0  0  0  0  0  0  0  0  0
   28.5130   72.2917    3.3145 H   0  0  0  0  0  0  0  0  0  0  0  0
   21.9123   72.2798   -4.3110 O   0  0  0  0  0  0  0  0  0  0  0  0
   20.5745   73.1874   -4.3307 P   0  0  2  0  0  0  0  0  0  0  0  0
   21.1353   74.6652   -4.6801 O   0  0  0  0  0  0  0  0  0  0  0  0
   19.7634   73.1161   -3.0694 O   0  0  0  0  0  0  0  0  0  0  0  0
   19.7864   72.7261   -5.6605 O   0  0  0  0  0  0  0  0  0  0  0  0
   17.5865   71.8910   -5.9293 O   0  0  0  0  0  0  0  0  0  0  0  0
   19.6179   69.8853   -8.9158 O   0  0  0  0  0  0  0  0  0  0  0  0
   20.8186   70.2170   -6.2733 O   0  0  0  0  0  0  0  0  0  0  0  0
   17.8809   72.1199   -9.5794 O   0  0  0  0  0  0  0  0  0  0  0  0
   19.3345   70.9740   -8.0370 C   0  0  2  0  0  0  0  0  0  0  0  0
   19.4613   70.5074   -6.5866 C   0  0  2  0  0  0  0  0  0  0  0  0
   17.9083   71.4512   -8.3198 C   0  0  1  0  0  0  0  0  0  0  0  0
   18.9448   71.5751   -5.6212 C   0  0  1  0  0  0  0  0  0  0  0  0
   17.4204   72.4173   -7.2440 C   0  0  1  0  0  0  0  0  0  0  0  0
   20.5194   69.5653   -8.7542 H   0  0  0  0  0  0  0  0  0  0  0  0
   21.1529   69.5404   -6.8822 H   0  0  0  0  0  0  0  0  0  0  0  0
   18.1894   71.5159  -10.2729 H   0  0  0  0  0  0  0  0  0  0  0  0
   15.3745   72.5915   -6.1102 O   0  0  0  0  0  0  0  0  0  0  0  0
   15.3245   72.7839   -8.3817 O   0  0  0  0  0  0  0  0  0  0  0  0
   15.9429   72.6171   -7.3411 C   0  0  0  0  0  0  0  0  0  0  0  0
  1  4  1  0
  1 24  1  0
  1  2  1  1
  1  3  2  0
 25 28  1  0
 25 24  1  0
 25 26  1  6
 25 27  2  0
  6 11  1  0
  6 12  1  0
 29 36  1  0
 29 37  1  0
  9  7  1  1
  7 13  1  0
 10  8  1  1
  8 14  1  0
  4  5  1  0
 36 28  1  6
 33 30  1  6
 30 38  1  0
 34 31  1  1
 31 39  1  0
 35 32  1  6
 32 40  1  0
 41 43  1  0
 15 19  2  0
 42 43  2  0
 16 22  2  0
 12 17  1  6
 17 19  1  0
 17 20  1  0
 18 19  1  0
 18 22  1  0
 18 23  1  0
  9 10  1  0
  9 11  1  0
 10 12  1  0
 11  5  1  1
 33 34  1  0
 33 35  1  0
 34 36  1  0
 35 37  1  0
 37 43  1  6
 20 21  2  0
 21 22  1  0
M  CHG  3   2  -1  26  -1  41  -1
M  END
>  <COMPND>  (118) 
    udp_gluA.pdb 

>  <AUTHOR>  (118) 
    GENERATED BY OPEN BABEL 3.1.1

>  <MASTER>  (118) 
        0    0    0    0    0    0    0    0   56    0   56    0

>  <minimizedAffinity>  (118) 
-6.88247

>  <CNNscore>  (118) 
0.4776664376

>  <CNNaffinity>  (118) 
4.2274436951

>  <CNN_VS>  (118) 
2.0193078518

>  <CNNaffinity_variance>  (118) 
0.0495753363

$$$$
119
     RDKit          3D

 43 45  0  0  0  0  0  0  0  0999 V2000
   15.3702   71.9334   -1.7324 P   0  0  2  0  0  0  0  0  0  0  0  0
   16.3781   72.7861   -0.7964 O   0  0  0  0  0  0  0  0  0  0  0  0
   14.1536   72.6790   -2.1970 O   0  0  0  0  0  0  0  0  0  0  0  0
   15.0866   70.5907   -0.8754 O   0  0  0  0  0  0  0  0  0  0  0  0
   13.8056   70.4146   -0.2986 C   0  0  0  0  0  0  0  0  0  0  0  0
   13.5050   68.1184    0.3456 O   0  0  0  0  0  0  0  0  0  0  0  0
   11.4195   67.9823   -1.8046 O   0  0  0  0  0  0  0  0  0  0  0  0
    9.9238   68.2462    0.4602 O   0  0  0  0  0  0  0  0  0  0  0  0
   11.7452   69.0618   -0.9288 C   0  0  1  0  0  0  0  0  0  0  0  0
   11.2324   68.7774    0.4670 C   0  0  2  0  0  0  0  0  0  0  0  0
   13.2535   69.0591   -0.7208 C   0  0  1  0  0  0  0  0  0  0  0  0
   12.2623   67.7884    0.9859 C   0  0  2  0  0  0  0  0  0  0  0  0
   10.4606   67.9636   -1.9525 H   0  0  0  0  0  0  0  0  0  0  0  0
    9.3057   68.9137    0.1220 H   0  0  0  0  0  0  0  0  0  0  0  0
   13.2141   65.6782    2.6038 O   0  0  0  0  0  0  0  0  0  0  0  0
   12.8794   68.2204    6.4339 O   0  0  0  0  0  0  0  0  0  0  0  0
   12.4336   67.8717    2.4088 N   0  0  0  0  0  0  0  0  0  0  0  0
   13.0455   66.9460    4.5100 N   0  0  0  0  0  0  0  0  0  0  0  0
   12.9183   66.7537    3.1280 C   0  0  0  0  0  0  0  0  0  0  0  0
   12.1248   69.0504    3.0768 C   0  0  0  0  0  0  0  0  0  0  0  0
   12.2514   69.2187    4.3945 C   0  0  0  0  0  0  0  0  0  0  0  0
   12.7506   68.0990    5.2194 C   0  0  0  0  0  0  0  0  0  0  0  0
   13.3792   66.1810    5.0323 H   0  0  0  0  0  0  0  0  0  0  0  0
   16.3335   71.4098   -2.9201 O   0  0  0  0  0  0  0  0  0  0  0  0
   17.3145   70.1275   -3.0037 P   0  0  2  0  0  0  0  0  0  0  0  0
   16.2878   68.8862   -3.1628 O   0  0  0  0  0  0  0  0  0  0  0  0
   18.2628   70.0012   -1.8467 O   0  0  0  0  0  0  0  0  0  0  0  0
   18.0291   70.2521   -4.4446 O   0  0  0  0  0  0  0  0  0  0  0  0
   19.2525   71.9590   -5.5396 O   0  0  0  0  0  0  0  0  0  0  0  0
   17.0155   70.4037   -8.6451 O   0  0  0  0  0  0  0  0  0  0  0  0
   15.8092   70.8274   -6.0184 O   0  0  0  0  0  0  0  0  0  0  0  0
   19.8436   69.7688   -8.4233 O   0  0  0  0  0  0  0  0  0  0  0  0
   17.7391   70.3683   -7.4151 C   0  0  2  0  0  0  0  0  0  0  0  0
   17.0864   71.3175   -6.4098 C   0  0  2  0  0  0  0  0  0  0  0  0
   19.1784   70.8029   -7.7004 C   0  0  1  0  0  0  0  0  0  0  0  0
   17.9599   71.4812   -5.1652 C   0  0  1  0  0  0  0  0  0  0  0  0
   19.9469   71.0673   -6.4089 C   0  0  1  0  0  0  0  0  0  0  0  0
   16.0976   70.1313   -8.4885 H   0  0  0  0  0  0  0  0  0  0  0  0
   15.2498   70.7208   -6.8033 H   0  0  0  0  0  0  0  0  0  0  0  0
   19.3644   69.5907   -9.2476 H   0  0  0  0  0  0  0  0  0  0  0  0
   21.3232   72.0904   -8.0091 O   0  0  0  0  0  0  0  0  0  0  0  0
   22.0586   72.0925   -5.8508 O   0  0  0  0  0  0  0  0  0  0  0  0
   21.2207   71.7962   -6.6893 C   0  0  0  0  0  0  0  0  0  0  0  0
  1  4  1  0
  1 24  1  0
  1  2  1  1
  1  3  2  0
 25 28  1  0
 25 24  1  0
 25 26  1  6
 25 27  2  0
  6 11  1  0
  6 12  1  0
 29 36  1  0
 29 37  1  0
  9  7  1  6
  7 13  1  0
 10  8  1  6
  8 14  1  0
  4  5  1  0
 36 28  1  6
 33 30  1  6
 30 38  1  0
 34 31  1  1
 31 39  1  0
 35 32  1  1
 32 40  1  0
 41 43  1  0
 15 19  2  0
 42 43  2  0
 16 22  2  0
 12 17  1  1
 17 19  1  0
 17 20  1  0
 18 19  1  0
 18 22  1  0
 18 23  1  0
  9 10  1  0
  9 11  1  0
 10 12  1  0
 11  5  1  1
 33 34  1  0
 33 35  1  0
 34 36  1  0
 35 37  1  0
 37 43  1  6
 20 21  2  0
 21 22  1  0
M  CHG  3   2  -1  26  -1  41  -1
M  END
>  <COMPND>  (119) 
    udp_gluA.pdb 

>  <AUTHOR>  (119) 
    GENERATED BY OPEN BABEL 3.1.1

>  <MASTER>  (119) 
        0    0    0    0    0    0    0    0   56    0   56    0

>  <minimizedAffinity>  (119) 
-6.66192

>  <CNNscore>  (119) 
0.4678892791

>  <CNNaffinity>  (119) 
4.1264834404

>  <CNN_VS>  (119) 
1.9307373762

>  <CNNaffinity_variance>  (119) 
0.1016799212

$$$$
120
     RDKit          3D

 43 45  0  0  0  0  0  0  0  0999 V2000
   21.8172   71.8831   -2.4845 P   0  0  2  0  0  0  0  0  0  0  0  0
   21.1976   73.3543   -2.2186 O   0  0  0  0  0  0  0  0  0  0  0  0
   20.8764   70.7431   -2.2253 O   0  0  0  0  0  0  0  0  0  0  0  0
   23.1851   71.8757   -1.6203 O   0  0  0  0  0  0  0  0  0  0  0  0
   23.2613   72.6948   -0.4680 C   0  0  0  0  0  0  0  0  0  0  0  0
   23.6214   71.8868    1.7669 O   0  0  0  0  0  0  0  0  0  0  0  0
   20.6363   71.6992    1.9807 O   0  0  0  0  0  0  0  0  0  0  0  0
   21.1847   74.0148    3.3124 O   0  0  0  0  0  0  0  0  0  0  0  0
   21.4345   72.6694    1.3024 C   0  0  1  0  0  0  0  0  0  0  0  0
   22.0813   73.6063    2.3005 C   0  0  2  0  0  0  0  0  0  0  0  0
   22.6405   71.9539    0.7093 C   0  0  1  0  0  0  0  0  0  0  0  0
   23.2213   72.7575    2.8370 C   0  0  2  0  0  0  0  0  0  0  0  0
   19.8595   72.1329    2.3682 H   0  0  0  0  0  0  0  0  0  0  0  0
   20.4779   74.5521    2.9204 H   0  0  0  0  0  0  0  0  0  0  0  0
   23.4328   74.0755    5.3259 O   0  0  0  0  0  0  0  0  0  0  0  0
   27.5945   75.7615    4.2855 O   0  0  0  0  0  0  0  0  0  0  0  0
   24.3491   73.5477    3.2425 N   0  0  0  0  0  0  0  0  0  0  0  0
   25.5049   74.9148    4.8050 N   0  0  0  0  0  0  0  0  0  0  0  0
   24.3557   74.1679    4.5143 C   0  0  0  0  0  0  0  0  0  0  0  0
   25.4327   73.7005    2.3862 C   0  0  0  0  0  0  0  0  0  0  0  0
   26.5212   74.4155    2.6773 C   0  0  0  0  0  0  0  0  0  0  0  0
   26.6075   75.0965    3.9858 C   0  0  0  0  0  0  0  0  0  0  0  0
   25.5317   75.3577    5.6838 H   0  0  0  0  0  0  0  0  0  0  0  0
   22.3500   71.9835   -4.0073 O   0  0  0  0  0  0  0  0  0  0  0  0
   21.8235   72.8588   -5.2605 P   0  0  2  0  0  0  0  0  0  0  0  0
   22.8001   72.4010   -6.4676 O   0  0  0  0  0  0  0  0  0  0  0  0
   21.8004   74.3391   -5.0113 O   0  0  0  0  0  0  0  0  0  0  0  0
   20.3896   72.2200   -5.6323 O   0  0  0  0  0  0  0  0  0  0  0  0
   19.5444   70.0506   -5.1982 O   0  0  0  0  0  0  0  0  0  0  0  0
   17.6680   70.9872   -8.7577 O   0  0  0  0  0  0  0  0  0  0  0  0
   20.4856   71.6434   -8.3515 O   0  0  0  0  0  0  0  0  0  0  0  0
   16.1864   71.0812   -6.2583 O   0  0  0  0  0  0  0  0  0  0  0  0
   18.2537   71.2546   -7.4835 C   0  0  2  0  0  0  0  0  0  0  0  0
   19.7170   70.8118   -7.4899 C   0  0  2  0  0  0  0  0  0  0  0  0
   17.4662   70.4749   -6.4281 C   0  0  1  0  0  0  0  0  0  0  0  0
   20.3119   70.8685   -6.0821 C   0  0  1  0  0  0  0  0  0  0  0  0
   18.1875   70.4734   -5.0833 C   0  0  1  0  0  0  0  0  0  0  0  0
   18.1521   71.4722   -9.4445 H   0  0  0  0  0  0  0  0  0  0  0  0
   20.1136   71.6124   -9.2465 H   0  0  0  0  0  0  0  0  0  0  0  0
   15.7169   71.0886   -7.1071 H   0  0  0  0  0  0  0  0  0  0  0  0
   18.5703   68.7612   -3.5266 O   0  0  0  0  0  0  0  0  0  0  0  0
   16.3987   69.2672   -4.0032 O   0  0  0  0  0  0  0  0  0  0  0  0
   17.5952   69.4547   -4.1649 C   0  0  0  0  0  0  0  0  0  0  0  0
  1  4  1  0
  1 24  1  0
  1  2  1  1
  1  3  2  0
 25 28  1  0
 25 24  1  0
 25 26  1  6
 25 27  2  0
  6 11  1  0
  6 12  1  0
 29 36  1  0
 29 37  1  0
  9  7  1  1
  7 13  1  0
 10  8  1  1
  8 14  1  0
  4  5  1  0
 36 28  1  1
 33 30  1  6
 30 38  1  0
 34 31  1  6
 31 39  1  0
 35 32  1  1
 32 40  1  0
 41 43  1  0
 15 19  2  0
 42 43  2  0
 16 22  2  0
 12 17  1  6
 17 19  1  0
 17 20  1  0
 18 19  1  0
 18 22  1  0
 18 23  1  0
  9 10  1  0
  9 11  1  0
 10 12  1  0
 11  5  1  6
 33 34  1  0
 33 35  1  0
 34 36  1  0
 35 37  1  0
 37 43  1  1
 20 21  2  0
 21 22  1  0
M  CHG  3   2  -1  26  -1  41  -1
M  END
>  <COMPND>  (120) 
    udp_gluA.pdb 

>  <AUTHOR>  (120) 
    GENERATED BY OPEN BABEL 3.1.1

>  <MASTER>  (120) 
        0    0    0    0    0    0    0    0   56    0   56    0

>  <minimizedAffinity>  (120) 
-6.32729

>  <CNNscore>  (120) 
0.4620991349

>  <CNNaffinity>  (120) 
4.1017217636

>  <CNN_VS>  (120) 
1.8954020739

>  <CNNaffinity_variance>  (120) 
0.1874687523

$$$$
121
     RDKit          3D

 43 45  0  0  0  0  0  0  0  0999 V2000
   22.6251   71.9074   -2.8787 P   0  0  2  0  0  0  0  0  0  0  0  0
   24.0161   71.6681   -3.6703 O   0  0  0  0  0  0  0  0  0  0  0  0
   22.4987   71.1647   -1.5809 O   0  0  0  0  0  0  0  0  0  0  0  0
   21.4885   71.5873   -3.9850 O   0  0  0  0  0  0  0  0  0  0  0  0
   20.6368   70.4756   -3.7771 C   0  0  0  0  0  0  0  0  0  0  0  0
   18.7908   71.6227   -4.8037 O   0  0  0  0  0  0  0  0  0  0  0  0
   17.0835   70.4050   -2.6604 O   0  0  0  0  0  0  0  0  0  0  0  0
   16.5766   68.8028   -4.8080 O   0  0  0  0  0  0  0  0  0  0  0  0
   18.2090   69.8515   -3.3425 C   0  0  1  0  0  0  0  0  0  0  0  0
   17.8258   69.4594   -4.7538 C   0  0  2  0  0  0  0  0  0  0  0  0
   19.2100   70.9730   -3.5841 C   0  0  1  0  0  0  0  0  0  0  0  0
   17.8112   70.8035   -5.4616 C   0  0  2  0  0  0  0  0  0  0  0  0
   16.4300   69.7070   -2.4949 H   0  0  0  0  0  0  0  0  0  0  0  0
   16.6378   67.9526   -4.3440 H   0  0  0  0  0  0  0  0  0  0  0  0
   15.9937   70.0718   -7.4957 O   0  0  0  0  0  0  0  0  0  0  0  0
   19.2274   70.4168  -10.7618 O   0  0  0  0  0  0  0  0  0  0  0  0
   18.1515   70.6944   -6.8520 N   0  0  0  0  0  0  0  0  0  0  0  0
   17.6062   70.2433   -9.1203 N   0  0  0  0  0  0  0  0  0  0  0  0
   17.1638   70.3194   -7.7931 C   0  0  0  0  0  0  0  0  0  0  0  0
   19.4498   70.9589   -7.2711 C   0  0  0  0  0  0  0  0  0  0  0  0
   19.8565   70.8823   -8.5397 C   0  0  0  0  0  0  0  0  0  0  0  0
   18.8866   70.4963   -9.5855 C   0  0  0  0  0  0  0  0  0  0  0  0
   16.9369   69.9821   -9.7934 H   0  0  0  0  0  0  0  0  0  0  0  0
   22.5570   73.5167   -2.7430 O   0  0  0  0  0  0  0  0  0  0  0  0
   21.6772   74.6130   -3.5415 P   0  0  2  0  0  0  0  0  0  0  0  0
   22.1769   76.0180   -2.9119 O   0  0  0  0  0  0  0  0  0  0  0  0
   20.1947   74.3910   -3.4595 O   0  0  0  0  0  0  0  0  0  0  0  0
   22.2737   74.6034   -5.0404 O   0  0  0  0  0  0  0  0  0  0  0  0
   20.8199   75.3718   -6.7450 O   0  0  0  0  0  0  0  0  0  0  0  0
   23.8658   73.6571   -8.9474 O   0  0  0  0  0  0  0  0  0  0  0  0
   22.8501   72.3377   -6.5471 O   0  0  0  0  0  0  0  0  0  0  0  0
   23.6721   76.5496   -8.7300 O   0  0  0  0  0  0  0  0  0  0  0  0
   23.2875   74.3447   -7.8380 C   0  0  2  0  0  0  0  0  0  0  0  0
   22.2343   73.4550   -7.1771 C   0  0  2  0  0  0  0  0  0  0  0  0
   22.6449   75.6311   -8.3617 C   0  0  1  0  0  0  0  0  0  0  0  0
   21.4344   74.2366   -6.1340 C   0  0  1  0  0  0  0  0  0  0  0  0
   21.7631   76.2848   -7.3017 C   0  0  1  0  0  0  0  0  0  0  0  0
   24.2802   72.8360   -8.6388 H   0  0  0  0  0  0  0  0  0  0  0  0
   23.3596   71.8373   -7.2031 H   0  0  0  0  0  0  0  0  0  0  0  0
   24.2406   76.1456   -9.4041 H   0  0  0  0  0  0  0  0  0  0  0  0
   20.4032   78.1641   -6.9543 O   0  0  0  0  0  0  0  0  0  0  0  0
   20.6533   77.4441   -9.1033 O   0  0  0  0  0  0  0  0  0  0  0  0
   20.8932   77.3363   -7.9101 C   0  0  0  0  0  0  0  0  0  0  0  0
  1  4  1  0
  1 24  1  0
  1  2  1  6
  1  3  2  0
 25 28  1  0
 25 24  1  0
 25 26  1  1
 25 27  2  0
  6 11  1  0
  6 12  1  0
 29 36  1  0
 29 37  1  0
  9  7  1  1
  7 13  1  0
 10  8  1  1
  8 14  1  0
  4  5  1  0
 36 28  1  1
 33 30  1  6
 30 38  1  0
 34 31  1  1
 31 39  1  0
 35 32  1  1
 32 40  1  0
 41 43  1  0
 15 19  2  0
 42 43  2  0
 16 22  2  0
 12 17  1  6
 17 19  1  0
 17 20  1  0
 18 19  1  0
 18 22  1  0
 18 23  1  0
  9 10  1  0
  9 11  1  0
 10 12  1  0
 11  5  1  6
 33 34  1  0
 33 35  1  0
 34 36  1  0
 35 37  1  0
 37 43  1  6
 20 21  2  0
 21 22  1  0
M  CHG  3   2  -1  26  -1  41  -1
M  END
>  <COMPND>  (121) 
    udp_gluA.pdb 

>  <AUTHOR>  (121) 
    GENERATED BY OPEN BABEL 3.1.1

>  <MASTER>  (121) 
        0    0    0    0    0    0    0    0   56    0   56    0

>  <minimizedAffinity>  (121) 
-7.18444

>  <CNNscore>  (121) 
0.9181776643

>  <CNNaffinity>  (121) 
4.7503280640

>  <CNN_VS>  (121) 
4.3616452217

>  <CNNaffinity_variance>  (121) 
0.1879576296

$$$$
122
     RDKit          3D

 43 45  0  0  0  0  0  0  0  0999 V2000
   22.6073   72.6578   -4.1103 P   0  0  2  0  0  0  0  0  0  0  0  0
   22.0391   72.7614   -5.6220 O   0  0  0  0  0  0  0  0  0  0  0  0
   23.8896   71.8916   -3.9666 O   0  0  0  0  0  0  0  0  0  0  0  0
   21.3517   72.0918   -3.2611 O   0  0  0  0  0  0  0  0  0  0  0  0
   20.5700   71.0528   -3.8213 C   0  0  0  0  0  0  0  0  0  0  0  0
   18.6139   71.9267   -4.9113 O   0  0  0  0  0  0  0  0  0  0  0  0
   17.0397   70.6483   -2.7024 O   0  0  0  0  0  0  0  0  0  0  0  0
   16.7285   68.8812   -4.7558 O   0  0  0  0  0  0  0  0  0  0  0  0
   18.2243   70.1866   -3.3521 C   0  0  1  0  0  0  0  0  0  0  0  0
   17.8962   69.6753   -4.7389 C   0  0  2  0  0  0  0  0  0  0  0  0
   19.0954   71.3976   -3.6568 C   0  0  1  0  0  0  0  0  0  0  0  0
   17.7362   70.9674   -5.5217 C   0  0  2  0  0  0  0  0  0  0  0  0
   16.4672   69.8920   -2.4977 H   0  0  0  0  0  0  0  0  0  0  0  0
   16.8813   68.0706   -4.2444 H   0  0  0  0  0  0  0  0  0  0  0  0
   15.9741   70.0752   -7.5405 O   0  0  0  0  0  0  0  0  0  0  0  0
   19.2229   70.4359  -10.7900 O   0  0  0  0  0  0  0  0  0  0  0  0
   18.0953   70.8189   -6.9036 N   0  0  0  0  0  0  0  0  0  0  0  0
   17.5941   70.2547   -9.1568 N   0  0  0  0  0  0  0  0  0  0  0  0
   17.1350   70.3631   -7.8375 C   0  0  0  0  0  0  0  0  0  0  0  0
   19.3848   71.1246   -7.3218 C   0  0  0  0  0  0  0  0  0  0  0  0
   19.8076   71.0164   -8.5829 C   0  0  0  0  0  0  0  0  0  0  0  0
   18.8667   70.5463   -9.6207 C   0  0  0  0  0  0  0  0  0  0  0  0
   16.9440   69.9374   -9.8247 H   0  0  0  0  0  0  0  0  0  0  0  0
   22.6915   74.2042   -3.6474 O   0  0  0  0  0  0  0  0  0  0  0  0
   23.7781   74.9822   -2.7376 P   0  0  2  0  0  0  0  0  0  0  0  0
   23.1361   76.4594   -2.5768 O   0  0  0  0  0  0  0  0  0  0  0  0
   25.1711   74.9709   -3.2973 O   0  0  0  0  0  0  0  0  0  0  0  0
   23.6389   74.3164   -1.2748 O   0  0  0  0  0  0  0  0  0  0  0  0
   21.6816   73.5641   -0.1737 O   0  0  0  0  0  0  0  0  0  0  0  0
   24.0509   74.7082    3.0115 O   0  0  0  0  0  0  0  0  0  0  0  0
   23.9167   76.3520    0.6001 O   0  0  0  0  0  0  0  0  0  0  0  0
   23.6972   71.8895    2.3944 O   0  0  0  0  0  0  0  0  0  0  0  0
   23.7800   74.1971    1.7064 C   0  0  2  0  0  0  0  0  0  0  0  0
   23.0509   75.2586    0.8822 C   0  0  2  0  0  0  0  0  0  0  0  0
   22.9070   72.9494    1.8590 C   0  0  1  0  0  0  0  0  0  0  0  0
   22.5419   74.6735   -0.4359 C   0  0  1  0  0  0  0  0  0  0  0  0
   22.3356   72.5017    0.5168 C   0  0  1  0  0  0  0  0  0  0  0  0
   24.6045   75.5018    2.9396 H   0  0  0  0  0  0  0  0  0  0  0  0
   24.2437   76.7279    1.4321 H   0  0  0  0  0  0  0  0  0  0  0  0
   24.0670   72.1617    3.2489 H   0  0  0  0  0  0  0  0  0  0  0  0
   20.8769   71.4428    2.0176 O   0  0  0  0  0  0  0  0  0  0  0  0
   20.7346   70.8347   -0.1754 O   0  0  0  0  0  0  0  0  0  0  0  0
   21.2404   71.5045    0.7126 C   0  0  0  0  0  0  0  0  0  0  0  0
  1  4  1  0
  1 24  1  0
  1  2  1  6
  1  3  2  0
 25 28  1  0
 25 24  1  0
 25 26  1  1
 25 27  2  0
  6 11  1  0
  6 12  1  0
 29 36  1  0
 29 37  1  0
  9  7  1  6
  7 13  1  0
 10  8  1  1
  8 14  1  0
  4  5  1  0
 36 28  1  6
 33 30  1  1
 30 38  1  0
 34 31  1  6
 31 39  1  0
 35 32  1  6
 32 40  1  0
 41 43  1  0
 15 19  2  0
 42 43  2  0
 16 22  2  0
 12 17  1  6
 17 19  1  0
 17 20  1  0
 18 19  1  0
 18 22  1  0
 18 23  1  0
  9 10  1  0
  9 11  1  0
 10 12  1  0
 11  5  1  6
 33 34  1  0
 33 35  1  0
 34 36  1  0
 35 37  1  0
 37 43  1  1
 20 21  2  0
 21 22  1  0
M  CHG  3   2  -1  26  -1  41  -1
M  END
>  <COMPND>  (122) 
    udp_gluA.pdb 

>  <AUTHOR>  (122) 
    GENERATED BY OPEN BABEL 3.1.1

>  <MASTER>  (122) 
        0    0    0    0    0    0    0    0   56    0   56    0

>  <minimizedAffinity>  (122) 
-6.96648

>  <CNNscore>  (122) 
0.9047792554

>  <CNNaffinity>  (122) 
4.7673583031

>  <CNN_VS>  (122) 
4.3134069443

>  <CNNaffinity_variance>  (122) 
0.0973255560

$$$$
123
     RDKit          3D

 43 45  0  0  0  0  0  0  0  0999 V2000
   23.4360   72.0917   -3.2922 P   0  0  2  0  0  0  0  0  0  0  0  0
   24.2944   73.1070   -4.2147 O   0  0  0  0  0  0  0  0  0  0  0  0
   24.1195   70.7948   -2.9721 O   0  0  0  0  0  0  0  0  0  0  0  0
   22.0199   71.9676   -4.0649 O   0  0  0  0  0  0  0  0  0  0  0  0
   21.2463   70.7972   -3.8750 C   0  0  0  0  0  0  0  0  0  0  0  0
   19.2185   71.7743   -4.7183 O   0  0  0  0  0  0  0  0  0  0  0  0
   17.8514   70.5096   -2.3681 O   0  0  0  0  0  0  0  0  0  0  0  0
   17.2344   68.8046   -4.4049 O   0  0  0  0  0  0  0  0  0  0  0  0
   18.9340   70.0157   -3.1572 C   0  0  1  0  0  0  0  0  0  0  0  0
   18.4294   69.5503   -4.5066 C   0  0  2  0  0  0  0  0  0  0  0  0
   19.8159   71.1973   -3.5369 C   0  0  1  0  0  0  0  0  0  0  0  0
   18.2371   70.8657   -5.2421 C   0  0  2  0  0  0  0  0  0  0  0  0
   17.2740   69.7725   -2.1134 H   0  0  0  0  0  0  0  0  0  0  0  0
   17.4094   67.9769   -3.9293 H   0  0  0  0  0  0  0  0  0  0  0  0
   16.2570   69.9715   -7.0467 O   0  0  0  0  0  0  0  0  0  0  0  0
   19.0916   70.4032  -10.6554 O   0  0  0  0  0  0  0  0  0  0  0  0
   18.4308   70.7349   -6.6585 N   0  0  0  0  0  0  0  0  0  0  0  0
   17.6710   70.1864   -8.8421 N   0  0  0  0  0  0  0  0  0  0  0  0
   17.3711   70.2764   -7.4765 C   0  0  0  0  0  0  0  0  0  0  0  0
   19.6578   71.0604   -7.2237 C   0  0  0  0  0  0  0  0  0  0  0  0
   19.9286   70.9695   -8.5272 C   0  0  0  0  0  0  0  0  0  0  0  0
   18.8760   70.4979   -9.4509 C   0  0  0  0  0  0  0  0  0  0  0  0
   16.9496   69.8676   -9.4314 H   0  0  0  0  0  0  0  0  0  0  0  0
   23.0686   72.9952   -2.0031 O   0  0  0  0  0  0  0  0  0  0  0  0
   22.1516   72.6768   -0.7103 P   0  0  2  0  0  0  0  0  0  0  0  0
   22.0543   71.0610   -0.7147 O   0  0  0  0  0  0  0  0  0  0  0  0
   20.8232   73.3763   -0.7102 O   0  0  0  0  0  0  0  0  0  0  0  0
   23.0915   73.0247    0.5538 O   0  0  0  0  0  0  0  0  0  0  0  0
   24.8245   72.1736    1.9256 O   0  0  0  0  0  0  0  0  0  0  0  0
   21.8582   72.9403    4.6971 O   0  0  0  0  0  0  0  0  0  0  0  0
   21.2020   71.7214    2.1246 O   0  0  0  0  0  0  0  0  0  0  0  0
   24.1425   74.7243    4.4734 O   0  0  0  0  0  0  0  0  0  0  0  0
   22.6062   73.1449    3.4985 C   0  0  2  0  0  0  0  0  0  0  0  0
   22.5233   71.8938    2.6237 C   0  0  2  0  0  0  0  0  0  0  0  0
   24.0588   73.4255    3.8897 C   0  0  1  0  0  0  0  0  0  0  0  0
   23.4930   71.9855    1.4447 C   0  0  1  0  0  0  0  0  0  0  0  0
   24.9822   73.3758    2.6759 C   0  0  1  0  0  0  0  0  0  0  0  0
   20.9315   72.7601    4.4734 H   0  0  0  0  0  0  0  0  0  0  0  0
   20.5813   71.6628    2.8673 H   0  0  0  0  0  0  0  0  0  0  0  0
   23.5592   74.7693    5.2471 H   0  0  0  0  0  0  0  0  0  0  0  0
   26.7987   74.5043    3.6393 O   0  0  0  0  0  0  0  0  0  0  0  0
   27.1432   72.3478    2.9836 O   0  0  0  0  0  0  0  0  0  0  0  0
   26.4137   73.3211    3.1002 C   0  0  0  0  0  0  0  0  0  0  0  0
  1  4  1  0
  1 24  1  0
  1  2  1  6
  1  3  2  0
 25 28  1  0
 25 24  1  0
 25 26  1  1
 25 27  2  0
  6 11  1  0
  6 12  1  0
 29 36  1  0
 29 37  1  0
  9  7  1  1
  7 13  1  0
 10  8  1  1
  8 14  1  0
  4  5  1  0
 36 28  1  6
 33 30  1  1
 30 38  1  0
 34 31  1  6
 31 39  1  0
 35 32  1  6
 32 40  1  0
 41 43  1  0
 15 19  2  0
 42 43  2  0
 16 22  2  0
 12 17  1  6
 17 19  1  0
 17 20  1  0
 18 19  1  0
 18 22  1  0
 18 23  1  0
  9 10  1  0
  9 11  1  0
 10 12  1  0
 11  5  1  6
 33 34  1  0
 33 35  1  0
 34 36  1  0
 35 37  1  0
 37 43  1  1
 20 21  2  0
 21 22  1  0
M  CHG  3   2  -1  26  -1  41  -1
M  END
>  <COMPND>  (123) 
    udp_gluA.pdb 

>  <AUTHOR>  (123) 
    GENERATED BY OPEN BABEL 3.1.1

>  <MASTER>  (123) 
        0    0    0    0    0    0    0    0   56    0   56    0

>  <minimizedAffinity>  (123) 
-7.80011

>  <CNNscore>  (123) 
0.8932959437

>  <CNNaffinity>  (123) 
4.6831536293

>  <CNN_VS>  (123) 
4.1834421158

>  <CNNaffinity_variance>  (123) 
0.0189727452

$$$$
124
     RDKit          3D

 43 45  0  0  0  0  0  0  0  0999 V2000
   20.3853   71.6778   -0.8933 P   0  0  2  0  0  0  0  0  0  0  0  0
   20.7548   70.5426    0.1993 O   0  0  0  0  0  0  0  0  0  0  0  0
   19.3346   72.6571   -0.4588 O   0  0  0  0  0  0  0  0  0  0  0  0
   20.0485   70.8336   -2.2319 O   0  0  0  0  0  0  0  0  0  0  0  0
   19.6348   71.5372   -3.3887 C   0  0  0  0  0  0  0  0  0  0  0  0
   17.7118   71.9911   -4.7576 O   0  0  0  0  0  0  0  0  0  0  0  0
   16.1512   70.3664   -2.7785 O   0  0  0  0  0  0  0  0  0  0  0  0
   16.5208   68.6102   -4.8316 O   0  0  0  0  0  0  0  0  0  0  0  0
   17.4872   70.1807   -3.2467 C   0  0  1  0  0  0  0  0  0  0  0  0
   17.4766   69.6355   -4.6591 C   0  0  2  0  0  0  0  0  0  0  0  0
   18.1125   71.5553   -3.4404 C   0  0  1  0  0  0  0  0  0  0  0  0
   17.1559   70.8770   -5.4739 C   0  0  2  0  0  0  0  0  0  0  0  0
   15.7310   69.5016   -2.6473 H   0  0  0  0  0  0  0  0  0  0  0  0
   16.7698   67.8422   -4.2929 H   0  0  0  0  0  0  0  0  0  0  0  0
   15.7323   70.1934   -7.8154 O   0  0  0  0  0  0  0  0  0  0  0  0
   19.4643   70.7422  -10.4640 O   0  0  0  0  0  0  0  0  0  0  0  0
   17.7309   70.8333   -6.7885 N   0  0  0  0  0  0  0  0  0  0  0  0
   17.5926   70.4664   -9.1321 N   0  0  0  0  0  0  0  0  0  0  0  0
   16.9286   70.4775   -7.8984 C   0  0  0  0  0  0  0  0  0  0  0  0
   19.0737   71.1421   -6.9688 C   0  0  0  0  0  0  0  0  0  0  0  0
   19.6925   71.1272   -8.1510 C   0  0  0  0  0  0  0  0  0  0  0  0
   18.9260   70.7651   -9.3613 C   0  0  0  0  0  0  0  0  0  0  0  0
   17.0552   70.2197   -9.9193 H   0  0  0  0  0  0  0  0  0  0  0  0
   21.8218   72.3373   -1.2314 O   0  0  0  0  0  0  0  0  0  0  0  0
   23.1543   72.4985   -0.3302 P   0  0  2  0  0  0  0  0  0  0  0  0
   23.8437   73.8367   -0.9254 O   0  0  0  0  0  0  0  0  0  0  0  0
   24.0467   71.2913   -0.3291 O   0  0  0  0  0  0  0  0  0  0  0  0
   22.6133   72.9325    1.1263 O   0  0  0  0  0  0  0  0  0  0  0  0
   24.2553   72.5656    2.7932 O   0  0  0  0  0  0  0  0  0  0  0  0
   21.0149   73.7693    5.0557 O   0  0  0  0  0  0  0  0  0  0  0  0
   20.6571   71.9187    2.8238 O   0  0  0  0  0  0  0  0  0  0  0  0
   23.2173   75.6035    4.5697 O   0  0  0  0  0  0  0  0  0  0  0  0
   21.8573   73.7295    3.9039 C   0  0  2  0  0  0  0  0  0  0  0  0
   21.9172   72.3007    3.3629 C   0  0  2  0  0  0  0  0  0  0  0  0
   23.2525   74.1993    4.3218 C   0  0  1  0  0  0  0  0  0  0  0  0
   22.9841   72.1721    2.2747 C   0  0  1  0  0  0  0  0  0  0  0  0
   24.2835   73.9221    3.2316 C   0  0  1  0  0  0  0  0  0  0  0  0
   20.1226   73.4748    4.8143 H   0  0  0  0  0  0  0  0  0  0  0  0
   19.9753   71.9982    3.5088 H   0  0  0  0  0  0  0  0  0  0  0  0
   22.5647   75.7935    5.2617 H   0  0  0  0  0  0  0  0  0  0  0  0
   26.5765   73.5652    2.8908 O   0  0  0  0  0  0  0  0  0  0  0  0
   25.9604   74.5870    4.8338 O   0  0  0  0  0  0  0  0  0  0  0  0
   25.6715   74.0741    3.7631 C   0  0  0  0  0  0  0  0  0  0  0  0
  1  4  1  0
  1 24  1  0
  1  2  1  1
  1  3  2  0
 25 28  1  0
 25 24  1  0
 25 26  1  6
 25 27  2  0
  6 11  1  0
  6 12  1  0
 29 36  1  0
 29 37  1  0
  9  7  1  6
  7 13  1  0
 10  8  1  1
  8 14  1  0
  4  5  1  0
 36 28  1  6
 33 30  1  1
 30 38  1  0
 34 31  1  6
 31 39  1  0
 35 32  1  6
 32 40  1  0
 41 43  1  0
 15 19  2  0
 42 43  2  0
 16 22  2  0
 12 17  1  6
 17 19  1  0
 17 20  1  0
 18 19  1  0
 18 22  1  0
 18 23  1  0
  9 10  1  0
  9 11  1  0
 10 12  1  0
 11  5  1  6
 33 34  1  0
 33 35  1  0
 34 36  1  0
 35 37  1  0
 37 43  1  1
 20 21  2  0
 21 22  1  0
M  CHG  3   2  -1  26  -1  41  -1
M  END
>  <COMPND>  (124) 
    udp_gluA.pdb 

>  <AUTHOR>  (124) 
    GENERATED BY OPEN BABEL 3.1.1

>  <MASTER>  (124) 
        0    0    0    0    0    0    0    0   56    0   56    0

>  <minimizedAffinity>  (124) 
-7.43081

>  <CNNscore>  (124) 
0.8867028952

>  <CNNaffinity>  (124) 
4.5582103729

>  <CNN_VS>  (124) 
4.0417785645

>  <CNNaffinity_variance>  (124) 
0.0403729156

$$$$
125
     RDKit          3D

 43 45  0  0  0  0  0  0  0  0999 V2000
   20.5340   71.2627   -1.1068 P   0  0  2  0  0  0  0  0  0  0  0  0
   20.9003   70.4978    0.2715 O   0  0  0  0  0  0  0  0  0  0  0  0
   20.1198   72.6959   -0.9452 O   0  0  0  0  0  0  0  0  0  0  0  0
   19.4483   70.2928   -1.8127 O   0  0  0  0  0  0  0  0  0  0  0  0
   19.1685   70.4791   -3.1880 C   0  0  0  0  0  0  0  0  0  0  0  0
   17.5099   71.4988   -4.5976 O   0  0  0  0  0  0  0  0  0  0  0  0
   15.4935   69.8779   -3.0817 O   0  0  0  0  0  0  0  0  0  0  0  0
   15.7916   68.4529   -5.3874 O   0  0  0  0  0  0  0  0  0  0  0  0
   16.8237   69.5327   -3.4688 C   0  0  1  0  0  0  0  0  0  0  0  0
   16.8789   69.2431   -4.9539 C   0  0  2  0  0  0  0  0  0  0  0  0
   17.6853   70.7829   -3.3558 C   0  0  1  0  0  0  0  0  0  0  0  0
   16.8598   70.6408   -5.5487 C   0  0  2  0  0  0  0  0  0  0  0  0
   14.9242   69.0946   -3.1457 H   0  0  0  0  0  0  0  0  0  0  0  0
   15.8491   67.5732   -4.9815 H   0  0  0  0  0  0  0  0  0  0  0  0
   15.6606   70.2468   -8.0752 O   0  0  0  0  0  0  0  0  0  0  0  0
   19.6476   70.9448  -10.2798 O   0  0  0  0  0  0  0  0  0  0  0  0
   17.5611   70.7138   -6.7991 N   0  0  0  0  0  0  0  0  0  0  0  0
   17.6477   70.5938   -9.1707 N   0  0  0  0  0  0  0  0  0  0  0  0
   16.8652   70.4996   -8.0123 C   0  0  0  0  0  0  0  0  0  0  0  0
   18.9216   70.9964   -6.8159 C   0  0  0  0  0  0  0  0  0  0  0  0
   19.6540   71.0831   -7.9280 C   0  0  0  0  0  0  0  0  0  0  0  0
   19.0034   70.8717   -9.2377 C   0  0  0  0  0  0  0  0  0  0  0  0
   17.1856   70.4464  -10.0275 H   0  0  0  0  0  0  0  0  0  0  0  0
   21.8582   71.0419   -2.0072 O   0  0  0  0  0  0  0  0  0  0  0  0
   23.2626   71.8418   -2.0435 P   0  0  2  0  0  0  0  0  0  0  0  0
   24.1964   70.9074   -2.9790 O   0  0  0  0  0  0  0  0  0  0  0  0
   23.8401   72.1340   -0.6888 O   0  0  0  0  0  0  0  0  0  0  0  0
   22.9659   73.1492   -2.9409 O   0  0  0  0  0  0  0  0  0  0  0  0
   23.9465   74.0410   -4.9036 O   0  0  0  0  0  0  0  0  0  0  0  0
   23.1269   77.4654   -2.7427 O   0  0  0  0  0  0  0  0  0  0  0  0
   24.2258   75.1054   -1.4171 O   0  0  0  0  0  0  0  0  0  0  0  0
   21.4513   76.7292   -5.0013 O   0  0  0  0  0  0  0  0  0  0  0  0
   22.9197   76.1253   -3.1891 C   0  0  2  0  0  0  0  0  0  0  0  0
   24.1355   75.2717   -2.8274 C   0  0  2  0  0  0  0  0  0  0  0  0
   22.7243   76.1572   -4.7066 C   0  0  1  0  0  0  0  0  0  0  0  0
   24.0527   73.8944   -3.4870 C   0  0  1  0  0  0  0  0  0  0  0  0
   22.7792   74.7546   -5.3050 C   0  0  1  0  0  0  0  0  0  0  0  0
   23.2536   77.4700   -1.7808 H   0  0  0  0  0  0  0  0  0  0  0  0
   24.2784   75.9754   -0.9921 H   0  0  0  0  0  0  0  0  0  0  0  0
   21.4033   77.6222   -4.6258 H   0  0  0  0  0  0  0  0  0  0  0  0
   23.1997   76.0813   -7.1929 O   0  0  0  0  0  0  0  0  0  0  0  0
   22.7996   73.8647   -7.5475 O   0  0  0  0  0  0  0  0  0  0  0  0
   22.9185   74.8170   -6.7912 C   0  0  0  0  0  0  0  0  0  0  0  0
  1  4  1  0
  1 24  1  0
  1  2  1  1
  1  3  2  0
 25 28  1  0
 25 24  1  0
 25 26  1  6
 25 27  2  0
  6 11  1  0
  6 12  1  0
 29 36  1  0
 29 37  1  0
  9  7  1  6
  7 13  1  0
 10  8  1  6
  8 14  1  0
  4  5  1  0
 36 28  1  1
 33 30  1  6
 30 38  1  0
 34 31  1  1
 31 39  1  0
 35 32  1  1
 32 40  1  0
 41 43  1  0
 15 19  2  0
 42 43  2  0
 16 22  2  0
 12 17  1  6
 17 19  1  0
 17 20  1  0
 18 19  1  0
 18 22  1  0
 18 23  1  0
  9 10  1  0
  9 11  1  0
 10 12  1  0
 11  5  1  6
 33 34  1  0
 33 35  1  0
 34 36  1  0
 35 37  1  0
 37 43  1  6
 20 21  2  0
 21 22  1  0
M  CHG  3   2  -1  26  -1  41  -1
M  END
>  <COMPND>  (125) 
    udp_gluA.pdb 

>  <AUTHOR>  (125) 
    GENERATED BY OPEN BABEL 3.1.1

>  <MASTER>  (125) 
        0    0    0    0    0    0    0    0   56    0   56    0

>  <minimizedAffinity>  (125) 
-7.44721

>  <CNNscore>  (125) 
0.8611326218

>  <CNNaffinity>  (125) 
4.6489071846

>  <CNN_VS>  (125) 
4.0033254623

>  <CNNaffinity_variance>  (125) 
0.1966591328

$$$$
126
     RDKit          3D

 43 45  0  0  0  0  0  0  0  0999 V2000
   21.8932   72.6317   -4.6577 P   0  0  2  0  0  0  0  0  0  0  0  0
   21.0636   73.9487   -5.1008 O   0  0  0  0  0  0  0  0  0  0  0  0
   23.2116   72.4504   -5.3510 O   0  0  0  0  0  0  0  0  0  0  0  0
   20.8317   71.4243   -4.8400 O   0  0  0  0  0  0  0  0  0  0  0  0
   20.2217   70.8801   -3.6840 C   0  0  0  0  0  0  0  0  0  0  0  0
   18.4252   71.9062   -4.9076 O   0  0  0  0  0  0  0  0  0  0  0  0
   16.5992   70.7611   -2.8229 O   0  0  0  0  0  0  0  0  0  0  0  0
   16.2959   69.0217   -4.9010 O   0  0  0  0  0  0  0  0  0  0  0  0
   17.7867   70.2051   -3.3879 C   0  0  1  0  0  0  0  0  0  0  0  0
   17.5192   69.7198   -4.7969 C   0  0  2  0  0  0  0  0  0  0  0  0
   18.7714   71.3421   -3.6241 C   0  0  1  0  0  0  0  0  0  0  0  0
   17.5196   71.0194   -5.5835 C   0  0  2  0  0  0  0  0  0  0  0  0
   15.9548   70.0534   -2.6630 H   0  0  0  0  0  0  0  0  0  0  0  0
   16.3463   68.2022   -4.3834 H   0  0  0  0  0  0  0  0  0  0  0  0
   15.8576   70.1924   -7.7120 O   0  0  0  0  0  0  0  0  0  0  0  0
   19.3327   70.3671  -10.7347 O   0  0  0  0  0  0  0  0  0  0  0  0
   17.9641   70.8407   -6.9368 N   0  0  0  0  0  0  0  0  0  0  0  0
   17.5902   70.2792   -9.2152 N   0  0  0  0  0  0  0  0  0  0  0  0
   17.0485   70.4220   -7.9310 C   0  0  0  0  0  0  0  0  0  0  0  0
   19.2921   71.0808   -7.2681 C   0  0  0  0  0  0  0  0  0  0  0  0
   19.7937   70.9405   -8.4967 C   0  0  0  0  0  0  0  0  0  0  0  0
   18.9038   70.5056   -9.5931 C   0  0  0  0  0  0  0  0  0  0  0  0
   16.9724   69.9867   -9.9238 H   0  0  0  0  0  0  0  0  0  0  0  0
   21.9928   72.7888   -3.0520 O   0  0  0  0  0  0  0  0  0  0  0  0
   22.5831   73.9837   -2.1370 P   0  0  2  0  0  0  0  0  0  0  0  0
   21.2997   74.9436   -1.9091 O   0  0  0  0  0  0  0  0  0  0  0  0
   23.7774   74.6774   -2.7254 O   0  0  0  0  0  0  0  0  0  0  0  0
   22.8450   73.3054   -0.6970 O   0  0  0  0  0  0  0  0  0  0  0  0
   23.6844   71.2290    0.0734 O   0  0  0  0  0  0  0  0  0  0  0  0
   20.4930   71.8441    2.6239 O   0  0  0  0  0  0  0  0  0  0  0  0
   20.2458   72.4343   -0.2266 O   0  0  0  0  0  0  0  0  0  0  0  0
   23.2124   72.2639    3.5617 O   0  0  0  0  0  0  0  0  0  0  0  0
   21.5842   72.2258    1.7862 C   0  0  2  0  0  0  0  0  0  0  0  0
   21.3335   71.7304    0.3617 C   0  0  2  0  0  0  0  0  0  0  0  0
   22.8583   71.5952    2.3526 C   0  0  1  0  0  0  0  0  0  0  0  0
   22.5768   71.9170   -0.5091 C   0  0  1  0  0  0  0  0  0  0  0  0
   24.0214   71.7124    1.3718 C   0  0  1  0  0  0  0  0  0  0  0  0
   19.6722   72.2333    2.2833 H   0  0  0  0  0  0  0  0  0  0  0  0
   19.4536   72.3205    0.3210 H   0  0  0  0  0  0  0  0  0  0  0  0
   22.4804   72.1969    4.1946 H   0  0  0  0  0  0  0  0  0  0  0  0
   24.7429   69.9308    2.7160 O   0  0  0  0  0  0  0  0  0  0  0  0
   26.2859   70.8806    1.3317 O   0  0  0  0  0  0  0  0  0  0  0  0
   25.1502   70.8221    1.7786 C   0  0  0  0  0  0  0  0  0  0  0  0
  1  4  1  0
  1 24  1  0
  1  2  1  6
  1  3  2  0
 25 28  1  0
 25 24  1  0
 25 26  1  1
 25 27  2  0
  6 11  1  0
  6 12  1  0
 29 36  1  0
 29 37  1  0
  9  7  1  6
  7 13  1  0
 10  8  1  1
  8 14  1  0
  4  5  1  0
 36 28  1  1
 33 30  1  1
 30 38  1  0
 34 31  1  6
 31 39  1  0
 35 32  1  1
 32 40  1  0
 41 43  1  0
 15 19  2  0
 42 43  2  0
 16 22  2  0
 12 17  1  6
 17 19  1  0
 17 20  1  0
 18 19  1  0
 18 22  1  0
 18 23  1  0
  9 10  1  0
  9 11  1  0
 10 12  1  0
 11  5  1  6
 33 34  1  0
 33 35  1  0
 34 36  1  0
 35 37  1  0
 37 43  1  1
 20 21  2  0
 21 22  1  0
M  CHG  3   2  -1  26  -1  41  -1
M  END
>  <COMPND>  (126) 
    udp_gluA.pdb 

>  <AUTHOR>  (126) 
    GENERATED BY OPEN BABEL 3.1.1

>  <MASTER>  (126) 
        0    0    0    0    0    0    0    0   56    0   56    0

>  <minimizedAffinity>  (126) 
-7.84798

>  <CNNscore>  (126) 
0.8525101542

>  <CNNaffinity>  (126) 
4.5884618759

>  <CNN_VS>  (126) 
3.9117102623

>  <CNNaffinity_variance>  (126) 
0.0454267599

$$$$
127
     RDKit          3D

 43 45  0  0  0  0  0  0  0  0999 V2000
   22.3532   71.8918   -3.1377 P   0  0  2  0  0  0  0  0  0  0  0  0
   23.7727   71.8210   -3.9116 O   0  0  0  0  0  0  0  0  0  0  0  0
   22.3529   71.2989   -1.7592 O   0  0  0  0  0  0  0  0  0  0  0  0
   21.3071   71.2373   -4.1842 O   0  0  0  0  0  0  0  0  0  0  0  0
   20.4252   70.2320   -3.7193 C   0  0  0  0  0  0  0  0  0  0  0  0
   18.7101   71.5400   -4.7801 O   0  0  0  0  0  0  0  0  0  0  0  0
   16.8334   70.3904   -2.7436 O   0  0  0  0  0  0  0  0  0  0  0  0
   16.3004   68.8913   -4.9583 O   0  0  0  0  0  0  0  0  0  0  0  0
   17.9430   69.7754   -3.3986 C   0  0  1  0  0  0  0  0  0  0  0  0
   17.5904   69.4527   -4.8352 C   0  0  2  0  0  0  0  0  0  0  0  0
   19.0313   70.8270   -3.5661 C   0  0  1  0  0  0  0  0  0  0  0  0
   17.7017   70.8139   -5.5007 C   0  0  2  0  0  0  0  0  0  0  0  0
   16.1250   69.7377   -2.6254 H   0  0  0  0  0  0  0  0  0  0  0  0
   16.2811   68.0260   -4.5191 H   0  0  0  0  0  0  0  0  0  0  0  0
   15.9381   70.1819   -7.6142 O   0  0  0  0  0  0  0  0  0  0  0  0
   19.3008   70.4799  -10.7523 O   0  0  0  0  0  0  0  0  0  0  0  0
   18.0898   70.7196   -6.8796 N   0  0  0  0  0  0  0  0  0  0  0  0
   17.6148   70.3299   -9.1750 N   0  0  0  0  0  0  0  0  0  0  0  0
   17.1260   70.3957   -7.8636 C   0  0  0  0  0  0  0  0  0  0  0  0
   19.4107   70.9483   -7.2456 C   0  0  0  0  0  0  0  0  0  0  0  0
   19.8616   70.8821   -8.4998 C   0  0  0  0  0  0  0  0  0  0  0  0
   18.9192   70.5485   -9.5878 C   0  0  0  0  0  0  0  0  0  0  0  0
   16.9628   70.1040   -9.8772 H   0  0  0  0  0  0  0  0  0  0  0  0
   21.9872   73.4652   -3.1940 O   0  0  0  0  0  0  0  0  0  0  0  0
   22.5790   74.7229   -2.3684 P   0  0  2  0  0  0  0  0  0  0  0  0
   23.8587   74.0933   -1.6025 O   0  0  0  0  0  0  0  0  0  0  0  0
   21.5832   75.3892   -1.4638 O   0  0  0  0  0  0  0  0  0  0  0  0
   23.2129   75.6895   -3.4937 O   0  0  0  0  0  0  0  0  0  0  0  0
   23.8850   74.8606   -5.6080 O   0  0  0  0  0  0  0  0  0  0  0  0
   25.9948   78.4056   -5.3855 O   0  0  0  0  0  0  0  0  0  0  0  0
   25.7819   76.6601   -3.0526 O   0  0  0  0  0  0  0  0  0  0  0  0
   23.6336   78.2162   -7.0707 O   0  0  0  0  0  0  0  0  0  0  0  0
   24.8992   77.5236   -5.1410 C   0  0  2  0  0  0  0  0  0  0  0  0
   25.3913   76.2973   -4.3719 C   0  0  2  0  0  0  0  0  0  0  0  0
   24.3177   77.1057   -6.4934 C   0  0  1  0  0  0  0  0  0  0  0  0
   24.3011   75.2278   -4.2922 C   0  0  1  0  0  0  0  0  0  0  0  0
   23.3323   75.9503   -6.3430 C   0  0  1  0  0  0  0  0  0  0  0  0
   26.3805   78.6845   -4.5400 H   0  0  0  0  0  0  0  0  0  0  0  0
   26.4733   77.3387   -3.0956 H   0  0  0  0  0  0  0  0  0  0  0  0
   24.2497   78.9585   -7.1716 H   0  0  0  0  0  0  0  0  0  0  0  0
   22.1601   76.1151   -8.3680 O   0  0  0  0  0  0  0  0  0  0  0  0
   23.4890   74.2845   -8.0814 O   0  0  0  0  0  0  0  0  0  0  0  0
   23.0259   75.3381   -7.6710 C   0  0  0  0  0  0  0  0  0  0  0  0
  1  4  1  0
  1 24  1  0
  1  2  1  6
  1  3  2  0
 25 28  1  0
 25 24  1  0
 25 26  1  1
 25 27  2  0
  6 11  1  0
  6 12  1  0
 29 36  1  0
 29 37  1  0
  9  7  1  1
  7 13  1  0
 10  8  1  1
  8 14  1  0
  4  5  1  0
 36 28  1  1
 33 30  1  6
 30 38  1  0
 34 31  1  1
 31 39  1  0
 35 32  1  1
 32 40  1  0
 41 43  1  0
 15 19  2  0
 42 43  2  0
 16 22  2  0
 12 17  1  6
 17 19  1  0
 17 20  1  0
 18 19  1  0
 18 22  1  0
 18 23  1  0
  9 10  1  0
  9 11  1  0
 10 12  1  0
 11  5  1  6
 33 34  1  0
 33 35  1  0
 34 36  1  0
 35 37  1  0
 37 43  1  6
 20 21  2  0
 21 22  1  0
M  CHG  3   2  -1  26  -1  41  -1
M  END
>  <COMPND>  (127) 
    udp_gluA.pdb 

>  <AUTHOR>  (127) 
    GENERATED BY OPEN BABEL 3.1.1

>  <MASTER>  (127) 
        0    0    0    0    0    0    0    0   56    0   56    0

>  <minimizedAffinity>  (127) 
-6.73596

>  <CNNscore>  (127) 
0.8392159939

>  <CNNaffinity>  (127) 
4.6113524437

>  <CNN_VS>  (127) 
3.8699207306

>  <CNNaffinity_variance>  (127) 
0.2212563753

$$$$
128
     RDKit          3D

 43 45  0  0  0  0  0  0  0  0999 V2000
   22.8565   71.6736   -2.3033 P   0  0  2  0  0  0  0  0  0  0  0  0
   22.5404   73.2360   -2.0243 O   0  0  0  0  0  0  0  0  0  0  0  0
   23.9381   71.4161   -3.3111 O   0  0  0  0  0  0  0  0  0  0  0  0
   21.4085   71.0400   -2.6492 O   0  0  0  0  0  0  0  0  0  0  0  0
   20.8076   71.3640   -3.8895 C   0  0  0  0  0  0  0  0  0  0  0  0
   18.7471   72.0479   -4.9212 O   0  0  0  0  0  0  0  0  0  0  0  0
   17.3678   70.7358   -2.6045 O   0  0  0  0  0  0  0  0  0  0  0  0
   17.1090   68.8768   -4.5826 O   0  0  0  0  0  0  0  0  0  0  0  0
   18.5566   70.3413   -3.2897 C   0  0  1  0  0  0  0  0  0  0  0  0
   18.2120   69.7566   -4.6431 C   0  0  2  0  0  0  0  0  0  0  0  0
   19.3189   71.6026   -3.6722 C   0  0  1  0  0  0  0  0  0  0  0  0
   17.9212   71.0037   -5.4605 C   0  0  2  0  0  0  0  0  0  0  0  0
   16.8638   69.9466   -2.3499 H   0  0  0  0  0  0  0  0  0  0  0  0
   17.3444   68.0991   -4.0518 H   0  0  0  0  0  0  0  0  0  0  0  0
   16.1387   69.9415   -7.3765 O   0  0  0  0  0  0  0  0  0  0  0  0
   19.2272   70.3927  -10.7679 O   0  0  0  0  0  0  0  0  0  0  0  0
   18.2337   70.8325   -6.8512 N   0  0  0  0  0  0  0  0  0  0  0  0
   17.6790   70.1663   -9.0636 N   0  0  0  0  0  0  0  0  0  0  0  0
   17.2669   70.2894   -7.7302 C   0  0  0  0  0  0  0  0  0  0  0  0
   19.4841   71.2019   -7.3317 C   0  0  0  0  0  0  0  0  0  0  0  0
   19.8623   71.0787   -8.6055 C   0  0  0  0  0  0  0  0  0  0  0  0
   18.9117   70.5191   -9.5887 C   0  0  0  0  0  0  0  0  0  0  0  0
   17.0238   69.7887   -9.6940 H   0  0  0  0  0  0  0  0  0  0  0  0
   23.1623   71.0956   -0.8250 O   0  0  0  0  0  0  0  0  0  0  0  0
   22.5003   71.4431    0.6084 P   0  0  2  0  0  0  0  0  0  0  0  0
   22.7205   70.0824    1.4571 O   0  0  0  0  0  0  0  0  0  0  0  0
   21.0724   71.9005    0.5326 O   0  0  0  0  0  0  0  0  0  0  0  0
   23.5099   72.5085    1.2780 O   0  0  0  0  0  0  0  0  0  0  0  0
   22.6957   73.9106    3.0044 O   0  0  0  0  0  0  0  0  0  0  0  0
   26.2003   75.8262    1.9480 O   0  0  0  0  0  0  0  0  0  0  0  0
   24.4300   74.7389   -0.1057 O   0  0  0  0  0  0  0  0  0  0  0  0
   26.0730   74.2614    4.3947 O   0  0  0  0  0  0  0  0  0  0  0  0
   25.3346   74.7084    2.1452 C   0  0  2  0  0  0  0  0  0  0  0  0
   24.0904   74.8641    1.2704 C   0  0  2  0  0  0  0  0  0  0  0  0
   24.9436   74.6681    3.6242 C   0  0  1  0  0  0  0  0  0  0  0  0
   23.0392   73.8104    1.6218 C   0  0  1  0  0  0  0  0  0  0  0  0
   23.8039   73.6844    3.8726 C   0  0  1  0  0  0  0  0  0  0  0  0
   26.4619   75.8722    1.0149 H   0  0  0  0  0  0  0  0  0  0  0  0
   25.0969   75.4043   -0.3356 H   0  0  0  0  0  0  0  0  0  0  0  0
   26.8057   74.8793    4.2455 H   0  0  0  0  0  0  0  0  0  0  0  0
   23.6131   75.0739    5.7526 O   0  0  0  0  0  0  0  0  0  0  0  0
   22.4707   73.1011    5.7971 O   0  0  0  0  0  0  0  0  0  0  0  0
   23.2137   73.8881    5.2300 C   0  0  0  0  0  0  0  0  0  0  0  0
  1  4  1  0
  1 24  1  0
  1  2  1  1
  1  3  2  0
 25 28  1  0
 25 24  1  0
 25 26  1  1
 25 27  2  0
  6 11  1  0
  6 12  1  0
 29 36  1  0
 29 37  1  0
  9  7  1  6
  7 13  1  0
 10  8  1  1
  8 14  1  0
  4  5  1  0
 36 28  1  1
 33 30  1  1
 30 38  1  0
 34 31  1  6
 31 39  1  0
 35 32  1  1
 32 40  1  0
 41 43  1  0
 15 19  2  0
 42 43  2  0
 16 22  2  0
 12 17  1  6
 17 19  1  0
 17 20  1  0
 18 19  1  0
 18 22  1  0
 18 23  1  0
  9 10  1  0
  9 11  1  0
 10 12  1  0
 11  5  1  6
 33 34  1  0
 33 35  1  0
 34 36  1  0
 35 37  1  0
 37 43  1  1
 20 21  2  0
 21 22  1  0
M  CHG  3   2  -1  26  -1  41  -1
M  END
>  <COMPND>  (128) 
    udp_gluA.pdb 

>  <AUTHOR>  (128) 
    GENERATED BY OPEN BABEL 3.1.1

>  <MASTER>  (128) 
        0    0    0    0    0    0    0    0   56    0   56    0

>  <minimizedAffinity>  (128) 
-7.09712

>  <CNNscore>  (128) 
0.8286575079

>  <CNNaffinity>  (128) 
4.5694108009

>  <CNN_VS>  (128) 
3.7864766121

>  <CNNaffinity_variance>  (128) 
0.0896853805

$$$$
129
     RDKit          3D

 43 45  0  0  0  0  0  0  0  0999 V2000
   21.8812   72.6292   -5.5276 P   0  0  2  0  0  0  0  0  0  0  0  0
   21.2691   74.1073   -5.2839 O   0  0  0  0  0  0  0  0  0  0  0  0
   23.1338   72.5904   -6.3531 O   0  0  0  0  0  0  0  0  0  0  0  0
   20.6309   71.7817   -6.1078 O   0  0  0  0  0  0  0  0  0  0  0  0
   20.1525   72.0849   -7.4053 C   0  0  0  0  0  0  0  0  0  0  0  0
   18.9681   70.0483   -6.9288 O   0  0  0  0  0  0  0  0  0  0  0  0
   18.2075   70.0307   -9.8293 O   0  0  0  0  0  0  0  0  0  0  0  0
   15.9526   70.9835   -8.6277 O   0  0  0  0  0  0  0  0  0  0  0  0
   18.3588   71.1386   -8.9414 C   0  0  1  0  0  0  0  0  0  0  0  0
   17.1891   71.2053   -7.9824 C   0  0  2  0  0  0  0  0  0  0  0  0
   19.5211   70.8355   -8.0058 C   0  0  1  0  0  0  0  0  0  0  0  0
   17.5342   70.1103   -6.9875 C   0  0  2  0  0  0  0  0  0  0  0  0
   17.4705   70.2013  -10.4370 H   0  0  0  0  0  0  0  0  0  0  0  0
   15.7784   71.7075   -9.2502 H   0  0  0  0  0  0  0  0  0  0  0  0
   16.3490   68.1775   -5.3034 O   0  0  0  0  0  0  0  0  0  0  0  0
   15.6134   71.2706   -1.9664 O   0  0  0  0  0  0  0  0  0  0  0  0
   17.0245   70.3833   -5.6736 N   0  0  0  0  0  0  0  0  0  0  0  0
   15.9829   69.7201   -3.6434 N   0  0  0  0  0  0  0  0  0  0  0  0
   16.4480   69.3411   -4.9095 C   0  0  0  0  0  0  0  0  0  0  0  0
   17.0996   71.6699   -5.1539 C   0  0  0  0  0  0  0  0  0  0  0  0
   16.6520   72.0158   -3.9453 C   0  0  0  0  0  0  0  0  0  0  0  0
   16.0349   70.9863   -3.0835 C   0  0  0  0  0  0  0  0  0  0  0  0
   15.5756   69.0121   -3.0938 H   0  0  0  0  0  0  0  0  0  0  0  0
   22.0459   72.0525   -4.0266 O   0  0  0  0  0  0  0  0  0  0  0  0
   23.2890   72.1174   -2.9950 P   0  0  2  0  0  0  0  0  0  0  0  0
   23.9212   73.5821   -3.2693 O   0  0  0  0  0  0  0  0  0  0  0  0
   24.2658   70.9860   -3.1358 O   0  0  0  0  0  0  0  0  0  0  0  0
   22.6062   72.2350   -1.5382 O   0  0  0  0  0  0  0  0  0  0  0  0
   23.8209   71.0890    0.1412 O   0  0  0  0  0  0  0  0  0  0  0  0
   20.4037   72.1955    2.1824 O   0  0  0  0  0  0  0  0  0  0  0  0
   20.2318   71.1759   -0.5499 O   0  0  0  0  0  0  0  0  0  0  0  0
   22.8957   73.6253    2.6259 O   0  0  0  0  0  0  0  0  0  0  0  0
   21.4412   72.3267    1.2106 C   0  0  2  0  0  0  0  0  0  0  0  0
   21.4031   71.1323    0.2570 C   0  0  2  0  0  0  0  0  0  0  0  0
   22.7796   72.3740    1.9512 C   0  0  1  0  0  0  0  0  0  0  0  0
   22.6333   71.1180   -0.6514 C   0  0  1  0  0  0  0  0  0  0  0  0
   23.9544   72.2282    0.9884 C   0  0  1  0  0  0  0  0  0  0  0  0
   19.5435   72.1633    1.7349 H   0  0  0  0  0  0  0  0  0  0  0  0
   19.4473   71.1855    0.0201 H   0  0  0  0  0  0  0  0  0  0  0  0
   22.1537   73.7307    3.2417 H   0  0  0  0  0  0  0  0  0  0  0  0
   25.8357   70.8483    1.2300 O   0  0  0  0  0  0  0  0  0  0  0  0
   25.6461   72.6093    2.6660 O   0  0  0  0  0  0  0  0  0  0  0  0
   25.2186   71.9461    1.7330 C   0  0  0  0  0  0  0  0  0  0  0  0
  1  4  1  0
  1 24  1  0
  1  2  1  1
  1  3  2  0
 25 28  1  0
 25 24  1  0
 25 26  1  6
 25 27  2  0
  6 11  1  0
  6 12  1  0
 29 36  1  0
 29 37  1  0
  9  7  1  6
  7 13  1  0
 10  8  1  6
  8 14  1  0
  4  5  1  0
 36 28  1  1
 33 30  1  1
 30 38  1  0
 34 31  1  6
 31 39  1  0
 35 32  1  6
 32 40  1  0
 41 43  1  0
 15 19  2  0
 42 43  2  0
 16 22  2  0
 12 17  1  1
 17 19  1  0
 17 20  1  0
 18 19  1  0
 18 22  1  0
 18 23  1  0
  9 10  1  0
  9 11  1  0
 10 12  1  0
 11  5  1  1
 33 34  1  0
 33 35  1  0
 34 36  1  0
 35 37  1  0
 37 43  1  1
 20 21  2  0
 21 22  1  0
M  CHG  3   2  -1  26  -1  41  -1
M  END
>  <COMPND>  (129) 
    udp_gluA.pdb 

>  <AUTHOR>  (129) 
    GENERATED BY OPEN BABEL 3.1.1

>  <MASTER>  (129) 
        0    0    0    0    0    0    0    0   56    0   56    0

>  <minimizedAffinity>  (129) 
-8.13838

>  <CNNscore>  (129) 
0.7723419070

>  <CNNaffinity>  (129) 
4.6098508835

>  <CNN_VS>  (129) 
3.5603809357

>  <CNNaffinity_variance>  (129) 
0.1178540960

$$$$
130
     RDKit          3D

 43 45  0  0  0  0  0  0  0  0999 V2000
   23.4714   73.7337   -4.0338 P   0  0  2  0  0  0  0  0  0  0  0  0
   24.2829   72.3378   -4.1429 O   0  0  0  0  0  0  0  0  0  0  0  0
   24.1544   74.9142   -4.6596 O   0  0  0  0  0  0  0  0  0  0  0  0
   23.1407   73.8685   -2.4557 O   0  0  0  0  0  0  0  0  0  0  0  0
   21.8191   73.6119   -2.0175 C   0  0  0  0  0  0  0  0  0  0  0  0
   22.9604   71.7222   -1.0668 O   0  0  0  0  0  0  0  0  0  0  0  0
   20.2432   70.5205   -0.6617 O   0  0  0  0  0  0  0  0  0  0  0  0
   20.8587   71.4541    1.8254 O   0  0  0  0  0  0  0  0  0  0  0  0
   20.6525   71.8844   -0.5588 C   0  0  1  0  0  0  0  0  0  0  0  0
   21.4438   72.0996    0.7139 C   0  0  2  0  0  0  0  0  0  0  0  0
   21.7003   72.1427   -1.6329 C   0  0  1  0  0  0  0  0  0  0  0  0
   22.7979   71.5175    0.3456 C   0  0  2  0  0  0  0  0  0  0  0  0
   19.5737   70.3316    0.0148 H   0  0  0  0  0  0  0  0  0  0  0  0
   19.9992   71.8608    2.0199 H   0  0  0  0  0  0  0  0  0  0  0  0
   24.7359   70.1623    1.8897 O   0  0  0  0  0  0  0  0  0  0  0  0
   26.8966   74.0908    2.9583 O   0  0  0  0  0  0  0  0  0  0  0  0
   23.8779   72.1616    1.0381 N   0  0  0  0  0  0  0  0  0  0  0  0
   25.8096   72.1203    2.4212 N   0  0  0  0  0  0  0  0  0  0  0  0
   24.7972   71.3889    1.7863 C   0  0  0  0  0  0  0  0  0  0  0  0
   24.0195   73.5423    0.9709 C   0  0  0  0  0  0  0  0  0  0  0  0
   24.9897   74.2254    1.5814 C   0  0  0  0  0  0  0  0  0  0  0  0
   25.9911   73.4933    2.3844 C   0  0  0  0  0  0  0  0  0  0  0  0
   26.4605   71.6042    2.9498 H   0  0  0  0  0  0  0  0  0  0  0  0
   22.0338   73.3688   -4.6764 O   0  0  0  0  0  0  0  0  0  0  0  0
   21.4711   73.5366   -6.1827 P   0  0  2  0  0  0  0  0  0  0  0  0
   22.5887   72.7852   -7.0809 O   0  0  0  0  0  0  0  0  0  0  0  0
   21.2067   74.9582   -6.5865 O   0  0  0  0  0  0  0  0  0  0  0  0
   20.1803   72.5711   -6.2474 O   0  0  0  0  0  0  0  0  0  0  0  0
   19.8068   70.3851   -5.4160 O   0  0  0  0  0  0  0  0  0  0  0  0
   17.6131   70.3396   -8.9166 O   0  0  0  0  0  0  0  0  0  0  0  0
   20.2592   71.5753   -8.8432 O   0  0  0  0  0  0  0  0  0  0  0  0
   16.2638   70.5696   -6.3519 O   0  0  0  0  0  0  0  0  0  0  0  0
   18.1939   70.9227   -7.7501 C   0  0  2  0  0  0  0  0  0  0  0  0
   19.7141   70.7700   -7.8044 C   0  0  2  0  0  0  0  0  0  0  0  0
   17.6293   70.1965   -6.5271 C   0  0  1  0  0  0  0  0  0  0  0  0
   20.3524   71.1734   -6.4745 C   0  0  1  0  0  0  0  0  0  0  0  0
   18.3999   70.5570   -5.2603 C   0  0  1  0  0  0  0  0  0  0  0  0
   17.9572   70.7852   -9.7067 H   0  0  0  0  0  0  0  0  0  0  0  0
   19.8584   71.3249   -9.6900 H   0  0  0  0  0  0  0  0  0  0  0  0
   15.7623   70.3456   -7.1514 H   0  0  0  0  0  0  0  0  0  0  0  0
   18.9362   69.7615   -3.1200 O   0  0  0  0  0  0  0  0  0  0  0  0
   17.1411   68.8166   -4.1612 O   0  0  0  0  0  0  0  0  0  0  0  0
   18.0675   69.6133   -4.1506 C   0  0  0  0  0  0  0  0  0  0  0  0
  1  4  1  0
  1 24  1  0
  1  2  1  1
  1  3  2  0
 25 28  1  0
 25 24  1  0
 25 26  1  6
 25 27  2  0
  6 11  1  0
  6 12  1  0
 29 36  1  0
 29 37  1  0
  9  7  1  1
  7 13  1  0
 10  8  1  1
  8 14  1  0
  4  5  1  0
 36 28  1  1
 33 30  1  6
 30 38  1  0
 34 31  1  6
 31 39  1  0
 35 32  1  1
 32 40  1  0
 41 43  1  0
 15 19  2  0
 42 43  2  0
 16 22  2  0
 12 17  1  1
 17 19  1  0
 17 20  1  0
 18 19  1  0
 18 22  1  0
 18 23  1  0
  9 10  1  0
  9 11  1  0
 10 12  1  0
 11  5  1  1
 33 34  1  0
 33 35  1  0
 34 36  1  0
 35 37  1  0
 37 43  1  1
 20 21  2  0
 21 22  1  0
M  CHG  3   2  -1  26  -1  41  -1
M  END
>  <COMPND>  (130) 
    udp_gluA.pdb 

>  <AUTHOR>  (130) 
    GENERATED BY OPEN BABEL 3.1.1

>  <MASTER>  (130) 
        0    0    0    0    0    0    0    0   56    0   56    0

>  <minimizedAffinity>  (130) 
-7.68698

>  <CNNscore>  (130) 
0.7625051141

>  <CNNaffinity>  (130) 
4.4866919518

>  <CNN_VS>  (130) 
3.4211256504

>  <CNNaffinity_variance>  (130) 
0.1168795973

$$$$
131
     RDKit          3D

 43 45  0  0  0  0  0  0  0  0999 V2000
   20.8244   71.6354   -0.6557 P   0  0  2  0  0  0  0  0  0  0  0  0
   22.1769   72.4994   -0.8636 O   0  0  0  0  0  0  0  0  0  0  0  0
   20.8721   70.6451    0.4707 O   0  0  0  0  0  0  0  0  0  0  0  0
   20.5285   71.0182   -2.1218 O   0  0  0  0  0  0  0  0  0  0  0  0
   20.3745   71.9086   -3.2118 C   0  0  0  0  0  0  0  0  0  0  0  0
   20.8366   70.6919   -5.2326 O   0  0  0  0  0  0  0  0  0  0  0  0
   23.1766   72.5333   -5.5858 O   0  0  0  0  0  0  0  0  0  0  0  0
   21.3261   73.5880   -7.2885 O   0  0  0  0  0  0  0  0  0  0  0  0
   21.8813   72.8101   -5.0527 C   0  0  1  0  0  0  0  0  0  0  0  0
   20.8578   72.8691   -6.1668 C   0  0  2  0  0  0  0  0  0  0  0  0
   21.4262   71.5884   -4.2662 C   0  0  1  0  0  0  0  0  0  0  0  0
   20.6337   71.3970   -6.4675 C   0  0  2  0  0  0  0  0  0  0  0  0
   23.4886   73.2998   -6.0927 H   0  0  0  0  0  0  0  0  0  0  0  0
   21.4528   74.5192   -7.0459 H   0  0  0  0  0  0  0  0  0  0  0  0
   20.0263   69.6538   -8.6050 O   0  0  0  0  0  0  0  0  0  0  0  0
   15.5040   70.4526   -8.2116 O   0  0  0  0  0  0  0  0  0  0  0  0
   19.3060   71.1310   -6.9444 N   0  0  0  0  0  0  0  0  0  0  0  0
   17.7746   70.0541   -8.4077 N   0  0  0  0  0  0  0  0  0  0  0  0
   19.1097   70.2387   -8.0249 C   0  0  0  0  0  0  0  0  0  0  0  0
   18.2163   71.7489   -6.3431 C   0  0  0  0  0  0  0  0  0  0  0  0
   16.9495   71.5629   -6.7191 C   0  0  0  0  0  0  0  0  0  0  0  0
   16.6578   70.6466   -7.8409 C   0  0  0  0  0  0  0  0  0  0  0  0
   17.6130   69.4388   -9.1592 H   0  0  0  0  0  0  0  0  0  0  0  0
   19.6865   72.7734   -0.5041 O   0  0  0  0  0  0  0  0  0  0  0  0
   19.6683   74.1500    0.3434 P   0  0  2  0  0  0  0  0  0  0  0  0
   18.1435   74.2336    0.8804 O   0  0  0  0  0  0  0  0  0  0  0  0
   20.1186   75.3554   -0.4300 O   0  0  0  0  0  0  0  0  0  0  0  0
   20.5464   73.8323    1.6589 O   0  0  0  0  0  0  0  0  0  0  0  0
   20.7386   75.1103    3.6436 O   0  0  0  0  0  0  0  0  0  0  0  0
   24.4334   73.2704    3.4674 O   0  0  0  0  0  0  0  0  0  0  0  0
   23.2079   74.3658    1.0523 O   0  0  0  0  0  0  0  0  0  0  0  0
   22.4224   72.3287    5.3435 O   0  0  0  0  0  0  0  0  0  0  0  0
   23.0252   73.3879    3.2651 C   0  0  2  0  0  0  0  0  0  0  0  0
   22.7351   74.5962    2.3744 C   0  0  2  0  0  0  0  0  0  0  0  0
   22.3639   73.5645    4.6338 C   0  0  1  0  0  0  0  0  0  0  0  0
   21.2352   74.8904    2.3228 C   0  0  1  0  0  0  0  0  0  0  0  0
   20.9018   73.9795    4.4967 C   0  0  1  0  0  0  0  0  0  0  0  0
   24.8750   73.1573    2.6109 H   0  0  0  0  0  0  0  0  0  0  0  0
   24.1590   74.1782    1.0776 H   0  0  0  0  0  0  0  0  0  0  0  0
   23.3477   72.0532    5.4374 H   0  0  0  0  0  0  0  0  0  0  0  0
   21.3731   74.7235    6.6707 O   0  0  0  0  0  0  0  0  0  0  0  0
   19.1784   74.6127    6.0621 O   0  0  0  0  0  0  0  0  0  0  0  0
   20.3634   74.4645    5.8033 C   0  0  0  0  0  0  0  0  0  0  0  0
  1  4  1  0
  1 24  1  0
  1  2  1  6
  1  3  2  0
 25 28  1  0
 25 24  1  0
 25 26  1  1
 25 27  2  0
  6 11  1  0
  6 12  1  0
 29 36  1  0
 29 37  1  0
  9  7  1  6
  7 13  1  0
 10  8  1  6
  8 14  1  0
  4  5  1  0
 36 28  1  1
 33 30  1  1
 30 38  1  0
 34 31  1  6
 31 39  1  0
 35 32  1  6
 32 40  1  0
 41 43  1  0
 15 19  2  0
 42 43  2  0
 16 22  2  0
 12 17  1  1
 17 19  1  0
 17 20  1  0
 18 19  1  0
 18 22  1  0
 18 23  1  0
  9 10  1  0
  9 11  1  0
 10 12  1  0
 11  5  1  1
 33 34  1  0
 33 35  1  0
 34 36  1  0
 35 37  1  0
 37 43  1  1
 20 21  2  0
 21 22  1  0
M  CHG  3   2  -1  26  -1  41  -1
M  END
>  <COMPND>  (131) 
    udp_gluA.pdb 

>  <AUTHOR>  (131) 
    GENERATED BY OPEN BABEL 3.1.1

>  <MASTER>  (131) 
        0    0    0    0    0    0    0    0   56    0   56    0

>  <minimizedAffinity>  (131) 
-6.31639

>  <CNNscore>  (131) 
0.6777686477

>  <CNNaffinity>  (131) 
4.3245239258

>  <CNN_VS>  (131) 
2.9310266972

>  <CNNaffinity_variance>  (131) 
0.0442321785

$$$$
132
     RDKit          3D

 43 45  0  0  0  0  0  0  0  0999 V2000
   21.9416   72.6745   -5.7831 P   0  0  2  0  0  0  0  0  0  0  0  0
   21.4593   74.1596   -5.3582 O   0  0  0  0  0  0  0  0  0  0  0  0
   23.0593   72.6333   -6.7836 O   0  0  0  0  0  0  0  0  0  0  0  0
   20.5733   71.9339   -6.2274 O   0  0  0  0  0  0  0  0  0  0  0  0
   20.0553   72.1893   -7.5200 C   0  0  0  0  0  0  0  0  0  0  0  0
   18.9949   70.0992   -6.9863 O   0  0  0  0  0  0  0  0  0  0  0  0
   18.1688   69.9959   -9.8670 O   0  0  0  0  0  0  0  0  0  0  0  0
   15.8941   70.8439   -8.6248 O   0  0  0  0  0  0  0  0  0  0  0  0
   18.2803   71.1239   -8.9988 C   0  0  1  0  0  0  0  0  0  0  0  0
   17.1315   71.1420   -8.0128 C   0  0  2  0  0  0  0  0  0  0  0  0
   19.4789   70.8984   -8.0874 C   0  0  1  0  0  0  0  0  0  0  0  0
   17.5588   70.0828   -7.0112 C   0  0  2  0  0  0  0  0  0  0  0  0
   17.4095   70.1170  -10.4591 H   0  0  0  0  0  0  0  0  0  0  0  0
   15.6663   71.5477   -9.2531 H   0  0  0  0  0  0  0  0  0  0  0  0
   16.3092   68.1622   -5.3600 O   0  0  0  0  0  0  0  0  0  0  0  0
   15.7066   71.2124   -1.9574 O   0  0  0  0  0  0  0  0  0  0  0  0
   17.0658   70.3480   -5.6893 N   0  0  0  0  0  0  0  0  0  0  0  0
   16.0093   69.6835   -3.6673 N   0  0  0  0  0  0  0  0  0  0  0  0
   16.4539   69.3130   -4.9433 C   0  0  0  0  0  0  0  0  0  0  0  0
   17.1919   71.6200   -5.1443 C   0  0  0  0  0  0  0  0  0  0  0  0
   16.7633   71.9580   -3.9266 C   0  0  0  0  0  0  0  0  0  0  0  0
   16.1117   70.9352   -3.0823 C   0  0  0  0  0  0  0  0  0  0  0  0
   15.5781   68.9803   -3.1298 H   0  0  0  0  0  0  0  0  0  0  0  0
   22.2839   71.9837   -4.3624 O   0  0  0  0  0  0  0  0  0  0  0  0
   23.5509   72.1608   -3.3739 P   0  0  2  0  0  0  0  0  0  0  0  0
   24.5109   73.1829   -4.1826 O   0  0  0  0  0  0  0  0  0  0  0  0
   24.2114   70.8708   -2.9823 O   0  0  0  0  0  0  0  0  0  0  0  0
   22.9858   73.0266   -2.1355 O   0  0  0  0  0  0  0  0  0  0  0  0
   21.2193   72.2588   -0.7574 O   0  0  0  0  0  0  0  0  0  0  0  0
   21.1094   76.3317   -0.0739 O   0  0  0  0  0  0  0  0  0  0  0  0
   21.5072   75.2938   -2.7755 O   0  0  0  0  0  0  0  0  0  0  0  0
   22.2366   74.5466    1.9246 O   0  0  0  0  0  0  0  0  0  0  0  0
   21.7209   75.0759   -0.3686 C   0  0  2  0  0  0  0  0  0  0  0  0
   21.1234   74.5052   -1.6550 C   0  0  2  0  0  0  0  0  0  0  0  0
   21.4539   74.1325    0.8064 C   0  0  1  0  0  0  0  0  0  0  0  0
   21.5831   73.0639   -1.8794 C   0  0  1  0  0  0  0  0  0  0  0  0
   21.8221   72.6928    0.4597 C   0  0  1  0  0  0  0  0  0  0  0  0
   21.2659   76.9477   -0.8069 H   0  0  0  0  0  0  0  0  0  0  0  0
   21.2189   76.2097   -2.6397 H   0  0  0  0  0  0  0  0  0  0  0  0
   22.0121   75.4616    2.1554 H   0  0  0  0  0  0  0  0  0  0  0  0
   21.7068   70.4839    1.2403 O   0  0  0  0  0  0  0  0  0  0  0  0
   20.5066   72.0533    2.3786 O   0  0  0  0  0  0  0  0  0  0  0  0
   21.2612   71.7442    1.4687 C   0  0  0  0  0  0  0  0  0  0  0  0
  1  4  1  0
  1 24  1  0
  1  2  1  1
  1  3  2  0
 25 28  1  0
 25 24  1  0
 25 26  1  6
 25 27  2  0
  6 11  1  0
  6 12  1  0
 29 36  1  0
 29 37  1  0
  9  7  1  6
  7 13  1  0
 10  8  1  6
  8 14  1  0
  4  5  1  0
 36 28  1  1
 33 30  1  1
 30 38  1  0
 34 31  1  6
 31 39  1  0
 35 32  1  1
 32 40  1  0
 41 43  1  0
 15 19  2  0
 42 43  2  0
 16 22  2  0
 12 17  1  1
 17 19  1  0
 17 20  1  0
 18 19  1  0
 18 22  1  0
 18 23  1  0
  9 10  1  0
  9 11  1  0
 10 12  1  0
 11  5  1  1
 33 34  1  0
 33 35  1  0
 34 36  1  0
 35 37  1  0
 37 43  1  1
 20 21  2  0
 21 22  1  0
M  CHG  3   2  -1  26  -1  41  -1
M  END
>  <COMPND>  (132) 
    udp_gluA.pdb 

>  <AUTHOR>  (132) 
    GENERATED BY OPEN BABEL 3.1.1

>  <MASTER>  (132) 
        0    0    0    0    0    0    0    0   56    0   56    0

>  <minimizedAffinity>  (132) 
-7.84718

>  <CNNscore>  (132) 
0.6614710093

>  <CNNaffinity>  (132) 
4.4347596169

>  <CNN_VS>  (132) 
2.9334650040

>  <CNNaffinity_variance>  (132) 
0.4113164544

$$$$
133
     RDKit          3D

 43 45  0  0  0  0  0  0  0  0999 V2000
   23.4868   71.9650   -3.2226 P   0  0  2  0  0  0  0  0  0  0  0  0
   24.1686   73.0930   -4.1615 O   0  0  0  0  0  0  0  0  0  0  0  0
   24.3355   70.7535   -2.9699 O   0  0  0  0  0  0  0  0  0  0  0  0
   22.0565   71.6866   -3.9259 O   0  0  0  0  0  0  0  0  0  0  0  0
   21.6359   72.5487   -4.9672 C   0  0  0  0  0  0  0  0  0  0  0  0
   20.7206   70.5544   -5.9483 O   0  0  0  0  0  0  0  0  0  0  0  0
   21.0816   71.9147   -8.5961 O   0  0  0  0  0  0  0  0  0  0  0  0
   18.4183   72.2467   -8.1139 O   0  0  0  0  0  0  0  0  0  0  0  0
   20.7107   72.4741   -7.3360 C   0  0  1  0  0  0  0  0  0  0  0  0
   19.2791   72.1115   -7.0025 C   0  0  2  0  0  0  0  0  0  0  0  0
   21.4863   71.7410   -6.2500 C   0  0  1  0  0  0  0  0  0  0  0  0
   19.4178   70.6704   -6.5422 C   0  0  2  0  0  0  0  0  0  0  0  0
   20.5987   72.3672   -9.3059 H   0  0  0  0  0  0  0  0  0  0  0  0
   18.3631   73.1817   -8.3682 H   0  0  0  0  0  0  0  0  0  0  0  0
   16.8067   69.7978   -7.1726 O   0  0  0  0  0  0  0  0  0  0  0  0
   15.7001   69.3077   -2.7252 O   0  0  0  0  0  0  0  0  0  0  0  0
   18.4269   70.3083   -5.5686 N   0  0  0  0  0  0  0  0  0  0  0  0
   16.2577   69.5555   -4.9569 N   0  0  0  0  0  0  0  0  0  0  0  0
   17.1451   69.8830   -5.9906 C   0  0  0  0  0  0  0  0  0  0  0  0
   18.7290   70.3745   -4.2139 C   0  0  0  0  0  0  0  0  0  0  0  0
   17.8727   70.0590   -3.2402 C   0  0  0  0  0  0  0  0  0  0  0  0
   16.5119   69.6061   -3.5959 C   0  0  0  0  0  0  0  0  0  0  0  0
   15.3584   69.2587   -5.2261 H   0  0  0  0  0  0  0  0  0  0  0  0
   23.0836   72.7935   -1.8945 O   0  0  0  0  0  0  0  0  0  0  0  0
   21.7805   72.7032   -0.9420 P   0  0  2  0  0  0  0  0  0  0  0  0
   21.3869   71.1341   -1.0015 O   0  0  0  0  0  0  0  0  0  0  0  0
   20.6687   73.6347   -1.3294 O   0  0  0  0  0  0  0  0  0  0  0  0
   22.3491   72.9239    0.5515 O   0  0  0  0  0  0  0  0  0  0  0  0
   23.9987   71.6211    1.6427 O   0  0  0  0  0  0  0  0  0  0  0  0
   21.8158   73.0634    4.8400 O   0  0  0  0  0  0  0  0  0  0  0  0
   20.4630   72.1172    2.4298 O   0  0  0  0  0  0  0  0  0  0  0  0
   24.4182   74.2003    4.2184 O   0  0  0  0  0  0  0  0  0  0  0  0
   22.3894   73.0959    3.5331 C   0  0  2  0  0  0  0  0  0  0  0  0
   21.8461   71.9300    2.7067 C   0  0  2  0  0  0  0  0  0  0  0  0
   23.9084   72.9816    3.6804 C   0  0  1  0  0  0  0  0  0  0  0  0
   22.6048   71.7954    1.3857 C   0  0  1  0  0  0  0  0  0  0  0  0
   24.5806   72.7234    2.3351 C   0  0  1  0  0  0  0  0  0  0  0  0
   20.8507   73.1346    4.7715 H   0  0  0  0  0  0  0  0  0  0  0  0
   19.9756   72.2037    3.2637 H   0  0  0  0  0  0  0  0  0  0  0  0
   23.9982   74.3764    5.0748 H   0  0  0  0  0  0  0  0  0  0  0  0
   26.1887   71.0445    2.0235 O   0  0  0  0  0  0  0  0  0  0  0  0
   26.8713   72.9600    3.0550 O   0  0  0  0  0  0  0  0  0  0  0  0
   25.9978   72.2900    2.5247 C   0  0  0  0  0  0  0  0  0  0  0  0
  1  4  1  0
  1 24  1  0
  1  2  1  6
  1  3  2  0
 25 28  1  0
 25 24  1  0
 25 26  1  1
 25 27  2  0
  6 11  1  0
  6 12  1  0
 29 36  1  0
 29 37  1  0
  9  7  1  6
  7 13  1  0
 10  8  1  6
  8 14  1  0
  4  5  1  0
 36 28  1  6
 33 30  1  1
 30 38  1  0
 34 31  1  6
 31 39  1  0
 35 32  1  6
 32 40  1  0
 41 43  1  0
 15 19  2  0
 42 43  2  0
 16 22  2  0
 12 17  1  1
 17 19  1  0
 17 20  1  0
 18 19  1  0
 18 22  1  0
 18 23  1  0
  9 10  1  0
  9 11  1  0
 10 12  1  0
 11  5  1  1
 33 34  1  0
 33 35  1  0
 34 36  1  0
 35 37  1  0
 37 43  1  1
 20 21  2  0
 21 22  1  0
M  CHG  3   2  -1  26  -1  41  -1
M  END
>  <COMPND>  (133) 
    udp_gluA.pdb 

>  <AUTHOR>  (133) 
    GENERATED BY OPEN BABEL 3.1.1

>  <MASTER>  (133) 
        0    0    0    0    0    0    0    0   56    0   56    0

>  <minimizedAffinity>  (133) 
-7.76639

>  <CNNscore>  (133) 
0.6219099760

>  <CNNaffinity>  (133) 
4.3667984009

>  <CNN_VS>  (133) 
2.7157554626

>  <CNNaffinity_variance>  (133) 
0.1158536673

$$$$
134
     RDKit          3D

 43 45  0  0  0  0  0  0  0  0999 V2000
   22.9926   73.3824   -3.5160 P   0  0  2  0  0  0  0  0  0  0  0  0
   24.1960   72.7348   -4.3829 O   0  0  0  0  0  0  0  0  0  0  0  0
   23.2576   74.7661   -2.9992 O   0  0  0  0  0  0  0  0  0  0  0  0
   22.6760   72.2616   -2.3929 O   0  0  0  0  0  0  0  0  0  0  0  0
   22.0139   71.0748   -2.7899 C   0  0  0  0  0  0  0  0  0  0  0  0
   20.7458   71.9401   -0.9404 O   0  0  0  0  0  0  0  0  0  0  0  0
   18.5968   70.0132   -1.7532 O   0  0  0  0  0  0  0  0  0  0  0  0
   17.6951   72.3762   -2.7727 O   0  0  0  0  0  0  0  0  0  0  0  0
   19.4990   70.7583   -2.5713 C   0  0  1  0  0  0  0  0  0  0  0  0
   19.0889   72.2152   -2.6115 C   0  0  2  0  0  0  0  0  0  0  0  0
   20.8396   70.8245   -1.8525 C   0  0  1  0  0  0  0  0  0  0  0  0
   19.5841   72.7195   -1.2668 C   0  0  2  0  0  0  0  0  0  0  0  0
   17.7330   69.9574   -2.1918 H   0  0  0  0  0  0  0  0  0  0  0  0
   17.4295   72.0406   -3.6438 H   0  0  0  0  0  0  0  0  0  0  0  0
   20.9156   74.0731    0.8240 O   0  0  0  0  0  0  0  0  0  0  0  0
   20.9305   78.0462   -1.5123 O   0  0  0  0  0  0  0  0  0  0  0  0
   19.9481   74.1077   -1.3024 N   0  0  0  0  0  0  0  0  0  0  0  0
   20.9209   76.0509   -0.3412 N   0  0  0  0  0  0  0  0  0  0  0  0
   20.6147   74.6911   -0.1990 C   0  0  0  0  0  0  0  0  0  0  0  0
   19.6466   74.8753   -2.4208 C   0  0  0  0  0  0  0  0  0  0  0  0
   19.9450   76.1703   -2.5418 C   0  0  0  0  0  0  0  0  0  0  0  0
   20.6410   76.8562   -1.4334 C   0  0  0  0  0  0  0  0  0  0  0  0
   21.3832   76.4797    0.4149 H   0  0  0  0  0  0  0  0  0  0  0  0
   21.7249   73.2670   -4.5122 O   0  0  0  0  0  0  0  0  0  0  0  0
   21.6290   73.3601   -6.1233 P   0  0  2  0  0  0  0  0  0  0  0  0
   22.7896   72.3480   -6.6220 O   0  0  0  0  0  0  0  0  0  0  0  0
   21.7482   74.7542   -6.6677 O   0  0  0  0  0  0  0  0  0  0  0  0
   20.2489   72.6120   -6.4951 O   0  0  0  0  0  0  0  0  0  0  0  0
   19.2250   70.5268   -6.0339 O   0  0  0  0  0  0  0  0  0  0  0  0
   18.5203   70.9317  -10.0845 O   0  0  0  0  0  0  0  0  0  0  0  0
   21.1178   71.6465   -8.9546 O   0  0  0  0  0  0  0  0  0  0  0  0
   16.3734   71.3846   -8.1774 O   0  0  0  0  0  0  0  0  0  0  0  0
   18.7152   71.3828   -8.7442 C   0  0  2  0  0  0  0  0  0  0  0  0
   20.0960   70.9472   -8.2533 C   0  0  2  0  0  0  0  0  0  0  0  0
   17.6205   70.7630   -7.8727 C   0  0  1  0  0  0  0  0  0  0  0  0
   20.2517   71.2093   -6.7546 C   0  0  1  0  0  0  0  0  0  0  0  0
   17.9131   70.9587   -6.3878 C   0  0  1  0  0  0  0  0  0  0  0  0
   19.2047   71.3128  -10.6569 H   0  0  0  0  0  0  0  0  0  0  0  0
   21.0248   71.4848   -9.9062 H   0  0  0  0  0  0  0  0  0  0  0  0
   16.1755   71.2674   -9.1197 H   0  0  0  0  0  0  0  0  0  0  0  0
   16.6041   69.0159   -6.2716 O   0  0  0  0  0  0  0  0  0  0  0  0
   16.7432   70.2906   -4.3862 O   0  0  0  0  0  0  0  0  0  0  0  0
   17.0353   70.0829   -5.5543 C   0  0  0  0  0  0  0  0  0  0  0  0
  1  4  1  0
  1 24  1  0
  1  2  1  6
  1  3  2  0
 25 28  1  0
 25 24  1  0
 25 26  1  6
 25 27  2  0
  6 11  1  0
  6 12  1  0
 29 36  1  0
 29 37  1  0
  9  7  1  1
  7 13  1  0
 10  8  1  1
  8 14  1  0
  4  5  1  0
 36 28  1  6
 33 30  1  6
 30 38  1  0
 34 31  1  6
 31 39  1  0
 35 32  1  6
 32 40  1  0
 41 43  1  0
 15 19  2  0
 42 43  2  0
 16 22  2  0
 12 17  1  6
 17 19  1  0
 17 20  1  0
 18 19  1  0
 18 22  1  0
 18 23  1  0
  9 10  1  0
  9 11  1  0
 10 12  1  0
 11  5  1  6
 33 34  1  0
 33 35  1  0
 34 36  1  0
 35 37  1  0
 37 43  1  1
 20 21  2  0
 21 22  1  0
M  CHG  3   2  -1  26  -1  41  -1
M  END
>  <COMPND>  (134) 
    udp_gluA.pdb 

>  <AUTHOR>  (134) 
    GENERATED BY OPEN BABEL 3.1.1

>  <MASTER>  (134) 
        0    0    0    0    0    0    0    0   56    0   56    0

>  <minimizedAffinity>  (134) 
-6.34537

>  <CNNscore>  (134) 
0.6215794086

>  <CNNaffinity>  (134) 
4.2076754570

>  <CNN_VS>  (134) 
2.6154043674

>  <CNNaffinity_variance>  (134) 
0.0741594136

$$$$
135
     RDKit          3D

 43 45  0  0  0  0  0  0  0  0999 V2000
   21.7306   72.7109   -5.4329 P   0  0  2  0  0  0  0  0  0  0  0  0
   21.3150   74.2749   -5.4289 O   0  0  0  0  0  0  0  0  0  0  0  0
   22.9945   72.3931   -6.1767 O   0  0  0  0  0  0  0  0  0  0  0  0
   20.3985   71.9563   -5.9564 O   0  0  0  0  0  0  0  0  0  0  0  0
   19.9858   72.1637   -7.2948 C   0  0  0  0  0  0  0  0  0  0  0  0
   18.7705   70.1674   -6.7330 O   0  0  0  0  0  0  0  0  0  0  0  0
   18.1679   69.9335   -9.6610 O   0  0  0  0  0  0  0  0  0  0  0  0
   15.8545   70.9716   -8.6576 O   0  0  0  0  0  0  0  0  0  0  0  0
   18.2747   71.1045   -8.8512 C   0  0  1  0  0  0  0  0  0  0  0  0
   17.0551   71.2416   -7.9646 C   0  0  2  0  0  0  0  0  0  0  0  0
   19.3836   70.8726   -7.8340 C   0  0  1  0  0  0  0  0  0  0  0  0
   17.3421   70.2240   -6.8738 C   0  0  2  0  0  0  0  0  0  0  0  0
   17.4654   70.0578  -10.3188 H   0  0  0  0  0  0  0  0  0  0  0  0
   15.7167   71.6471   -9.3408 H   0  0  0  0  0  0  0  0  0  0  0  0
   16.7146   68.4000   -4.8108 O   0  0  0  0  0  0  0  0  0  0  0  0
   15.1230   71.7547   -2.0800 O   0  0  0  0  0  0  0  0  0  0  0  0
   16.7630   70.5937   -5.6133 N   0  0  0  0  0  0  0  0  0  0  0  0
   15.9215   70.0725   -3.4531 N   0  0  0  0  0  0  0  0  0  0  0  0
   16.4864   69.5998   -4.6449 C   0  0  0  0  0  0  0  0  0  0  0  0
   16.4767   71.9269   -5.3460 C   0  0  0  0  0  0  0  0  0  0  0  0
   15.9384   72.3622   -4.2051 C   0  0  0  0  0  0  0  0  0  0  0  0
   15.6182   71.3879   -3.1414 C   0  0  0  0  0  0  0  0  0  0  0  0
   15.7182   69.3987   -2.7645 H   0  0  0  0  0  0  0  0  0  0  0  0
   21.7637   72.3402   -3.8599 O   0  0  0  0  0  0  0  0  0  0  0  0
   20.7664   71.4403   -2.9602 P   0  0  2  0  0  0  0  0  0  0  0  0
   20.9962   69.9452   -3.5364 O   0  0  0  0  0  0  0  0  0  0  0  0
   19.3367   71.8980   -2.9806 O   0  0  0  0  0  0  0  0  0  0  0  0
   21.4422   71.4205   -1.4955 O   0  0  0  0  0  0  0  0  0  0  0  0
   21.0733   73.5133   -0.4498 O   0  0  0  0  0  0  0  0  0  0  0  0
   23.3209   71.5355    2.3971 O   0  0  0  0  0  0  0  0  0  0  0  0
   24.0119   71.3381   -0.4345 O   0  0  0  0  0  0  0  0  0  0  0  0
   20.4565   71.8642    2.7692 O   0  0  0  0  0  0  0  0  0  0  0  0
   22.3782   71.6524    1.3314 C   0  0  2  0  0  0  0  0  0  0  0  0
   23.0647   72.2531    0.1045 C   0  0  2  0  0  0  0  0  0  0  0  0
   21.2411   72.5613    1.8034 C   0  0  1  0  0  0  0  0  0  0  0  0
   22.0423   72.6060   -0.9766 C   0  0  1  0  0  0  0  0  0  0  0  0
   20.3372   72.9705    0.6441 C   0  0  1  0  0  0  0  0  0  0  0  0
   24.0529   70.9621    2.1201 H   0  0  0  0  0  0  0  0  0  0  0  0
   24.6636   71.1096    0.2463 H   0  0  0  0  0  0  0  0  0  0  0  0
   21.0201   71.5980    3.5125 H   0  0  0  0  0  0  0  0  0  0  0  0
   18.8676   74.6613   -0.0508 O   0  0  0  0  0  0  0  0  0  0  0  0
   19.2519   74.4729    2.1888 O   0  0  0  0  0  0  0  0  0  0  0  0
   19.4441   74.1005    1.0410 C   0  0  0  0  0  0  0  0  0  0  0  0
  1  4  1  0
  1 24  1  0
  1  2  1  1
  1  3  2  0
 25 28  1  0
 25 24  1  0
 25 26  1  6
 25 27  2  0
  6 11  1  0
  6 12  1  0
 29 36  1  0
 29 37  1  0
  9  7  1  6
  7 13  1  0
 10  8  1  6
  8 14  1  0
  4  5  1  0
 36 28  1  1
 33 30  1  1
 30 38  1  0
 34 31  1  6
 31 39  1  0
 35 32  1  1
 32 40  1  0
 41 43  1  0
 15 19  2  0
 42 43  2  0
 16 22  2  0
 12 17  1  1
 17 19  1  0
 17 20  1  0
 18 19  1  0
 18 22  1  0
 18 23  1  0
  9 10  1  0
  9 11  1  0
 10 12  1  0
 11  5  1  1
 33 34  1  0
 33 35  1  0
 34 36  1  0
 35 37  1  0
 37 43  1  1
 20 21  2  0
 21 22  1  0
M  CHG  3   2  -1  26  -1  41  -1
M  END
>  <COMPND>  (135) 
    udp_gluA.pdb 

>  <AUTHOR>  (135) 
    GENERATED BY OPEN BABEL 3.1.1

>  <MASTER>  (135) 
        0    0    0    0    0    0    0    0   56    0   56    0

>  <minimizedAffinity>  (135) 
-7.02830

>  <CNNscore>  (135) 
0.6098552942

>  <CNNaffinity>  (135) 
4.4050598145

>  <CNN_VS>  (135) 
2.6864490509

>  <CNNaffinity_variance>  (135) 
0.3205014467

$$$$
136
     RDKit          3D

 43 45  0  0  0  0  0  0  0  0999 V2000
   23.6530   72.3871   -3.4085 P   0  0  2  0  0  0  0  0  0  0  0  0
   24.1583   70.8634   -3.2044 O   0  0  0  0  0  0  0  0  0  0  0  0
   24.6624   73.3125   -4.0224 O   0  0  0  0  0  0  0  0  0  0  0  0
   23.1059   72.8141   -1.9469 O   0  0  0  0  0  0  0  0  0  0  0  0
   22.8760   71.7983   -0.9878 C   0  0  0  0  0  0  0  0  0  0  0  0
   21.0839   71.2178    0.5052 O   0  0  0  0  0  0  0  0  0  0  0  0
   19.2391   72.3654   -1.5615 O   0  0  0  0  0  0  0  0  0  0  0  0
   19.3948   74.3721    0.2783 O   0  0  0  0  0  0  0  0  0  0  0  0
   20.5439   72.7975   -1.1752 C   0  0  1  0  0  0  0  0  0  0  0  0
   20.4903   73.4871    0.1716 C   0  0  2  0  0  0  0  0  0  0  0  0
   21.3763   71.5605   -0.8668 C   0  0  1  0  0  0  0  0  0  0  0  0
   20.3853   72.3091    1.1251 C   0  0  2  0  0  0  0  0  0  0  0  0
   18.6886   73.1386   -1.7636 H   0  0  0  0  0  0  0  0  0  0  0  0
   19.5087   75.1045   -0.3483 H   0  0  0  0  0  0  0  0  0  0  0  0
   19.1740   73.8509    3.1579 O   0  0  0  0  0  0  0  0  0  0  0  0
   22.7743   73.2907    5.9807 O   0  0  0  0  0  0  0  0  0  0  0  0
   20.9839   72.5820    2.4011 N   0  0  0  0  0  0  0  0  0  0  0  0
   20.9688   73.5713    4.5615 N   0  0  0  0  0  0  0  0  0  0  0  0
   20.2912   73.3680    3.3521 C   0  0  0  0  0  0  0  0  0  0  0  0
   22.2416   72.0724    2.7004 C   0  0  0  0  0  0  0  0  0  0  0  0
   22.8746   72.2746    3.8576 C   0  0  0  0  0  0  0  0  0  0  0  0
   22.2201   73.0858    4.9050 C   0  0  0  0  0  0  0  0  0  0  0  0
   20.5072   74.1171    5.2385 H   0  0  0  0  0  0  0  0  0  0  0  0
   22.2950   72.2073   -4.2666 O   0  0  0  0  0  0  0  0  0  0  0  0
   21.7717   72.9634   -5.5963 P   0  0  2  0  0  0  0  0  0  0  0  0
   22.7773   72.4281   -6.7462 O   0  0  0  0  0  0  0  0  0  0  0  0
   21.7141   74.4585   -5.4722 O   0  0  0  0  0  0  0  0  0  0  0  0
   20.3575   72.2648   -5.9346 O   0  0  0  0  0  0  0  0  0  0  0  0
   19.6919   70.1267   -5.1635 O   0  0  0  0  0  0  0  0  0  0  0  0
   17.3800   70.5523   -8.5608 O   0  0  0  0  0  0  0  0  0  0  0  0
   20.1829   71.3757   -8.5642 O   0  0  0  0  0  0  0  0  0  0  0  0
   16.1831   70.8755   -5.9314 O   0  0  0  0  0  0  0  0  0  0  0  0
   18.0876   70.9940   -7.4023 C   0  0  2  0  0  0  0  0  0  0  0  0
   19.5642   70.6187   -7.5305 C   0  0  2  0  0  0  0  0  0  0  0  0
   17.4688   70.3105   -6.1810 C   0  0  1  0  0  0  0  0  0  0  0  0
   20.3079   70.8676   -6.2175 C   0  0  1  0  0  0  0  0  0  0  0  0
   18.3342   70.4998   -4.9385 C   0  0  1  0  0  0  0  0  0  0  0  0
   17.7559   70.9737   -9.3498 H   0  0  0  0  0  0  0  0  0  0  0  0
   19.7159   71.2228   -9.4002 H   0  0  0  0  0  0  0  0  0  0  0  0
   15.6224   70.7618   -6.7147 H   0  0  0  0  0  0  0  0  0  0  0  0
   17.1120   68.5894   -4.3400 O   0  0  0  0  0  0  0  0  0  0  0  0
   18.2282   69.6743   -2.6738 O   0  0  0  0  0  0  0  0  0  0  0  0
   17.9074   69.5715   -3.8483 C   0  0  0  0  0  0  0  0  0  0  0  0
  1  4  1  0
  1 24  1  0
  1  2  1  1
  1  3  2  0
 25 28  1  0
 25 24  1  0
 25 26  1  6
 25 27  2  0
  6 11  1  0
  6 12  1  0
 29 36  1  0
 29 37  1  0
  9  7  1  1
  7 13  1  0
 10  8  1  6
  8 14  1  0
  4  5  1  0
 36 28  1  1
 33 30  1  6
 30 38  1  0
 34 31  1  6
 31 39  1  0
 35 32  1  1
 32 40  1  0
 41 43  1  0
 15 19  2  0
 42 43  2  0
 16 22  2  0
 12 17  1  1
 17 19  1  0
 17 20  1  0
 18 19  1  0
 18 22  1  0
 18 23  1  0
  9 10  1  0
  9 11  1  0
 10 12  1  0
 11  5  1  1
 33 34  1  0
 33 35  1  0
 34 36  1  0
 35 37  1  0
 37 43  1  1
 20 21  2  0
 21 22  1  0
M  CHG  3   2  -1  26  -1  41  -1
M  END
>  <COMPND>  (136) 
    udp_gluA.pdb 

>  <AUTHOR>  (136) 
    GENERATED BY OPEN BABEL 3.1.1

>  <MASTER>  (136) 
        0    0    0    0    0    0    0    0   56    0   56    0

>  <minimizedAffinity>  (136) 
-7.45497

>  <CNNscore>  (136) 
0.5475583076

>  <CNNaffinity>  (136) 
4.1699566841

>  <CNN_VS>  (136) 
2.2832944393

>  <CNNaffinity_variance>  (136) 
0.1944494396

$$$$
137
     RDKit          3D

 43 45  0  0  0  0  0  0  0  0999 V2000
   21.1904   71.4872   -2.5588 P   0  0  2  0  0  0  0  0  0  0  0  0
   20.6037   72.9479   -2.1833 O   0  0  0  0  0  0  0  0  0  0  0  0
   20.1578   70.4084   -2.7063 O   0  0  0  0  0  0  0  0  0  0  0  0
   22.3259   71.2243   -1.4366 O   0  0  0  0  0  0  0  0  0  0  0  0
   21.9418   71.2212   -0.0739 C   0  0  0  0  0  0  0  0  0  0  0  0
   24.2292   71.9027    0.2100 O   0  0  0  0  0  0  0  0  0  0  0  0
   23.9582   70.9763    3.0490 O   0  0  0  0  0  0  0  0  0  0  0  0
   23.6936   73.6807    3.2769 O   0  0  0  0  0  0  0  0  0  0  0  0
   22.9934   71.6113    2.2096 C   0  0  1  0  0  0  0  0  0  0  0  0
   23.3208   73.0812    2.0537 C   0  0  2  0  0  0  0  0  0  0  0  0
   23.1877   71.0895    0.7925 C   0  0  1  0  0  0  0  0  0  0  0  0
   24.4595   73.0458    1.0488 C   0  0  2  0  0  0  0  0  0  0  0  0
   23.8536   71.2939    3.9600 H   0  0  0  0  0  0  0  0  0  0  0  0
   22.9349   73.6793    3.8822 H   0  0  0  0  0  0  0  0  0  0  0  0
   25.8867   75.3921    1.7081 O   0  0  0  0  0  0  0  0  0  0  0  0
   24.5617   77.5060   -2.1675 O   0  0  0  0  0  0  0  0  0  0  0  0
   24.5047   74.2242    0.2301 N   0  0  0  0  0  0  0  0  0  0  0  0
   25.2246   76.4430   -0.2223 N   0  0  0  0  0  0  0  0  0  0  0  0
   25.2512   75.3493    0.6530 C   0  0  0  0  0  0  0  0  0  0  0  0
   23.8166   74.2570   -0.9767 C   0  0  0  0  0  0  0  0  0  0  0  0
   23.8008   75.3068   -1.8005 C   0  0  0  0  0  0  0  0  0  0  0  0
   24.5547   76.5231   -1.4324 C   0  0  0  0  0  0  0  0  0  0  0  0
   25.7354   77.2389    0.0517 H   0  0  0  0  0  0  0  0  0  0  0  0
   22.0574   71.7762   -3.8922 O   0  0  0  0  0  0  0  0  0  0  0  0
   21.8197   72.8143   -5.1085 P   0  0  2  0  0  0  0  0  0  0  0  0
   23.0040   72.4436   -6.1479 O   0  0  0  0  0  0  0  0  0  0  0  0
   21.7921   74.2561   -4.6911 O   0  0  0  0  0  0  0  0  0  0  0  0
   20.4706   72.2997   -5.8280 O   0  0  0  0  0  0  0  0  0  0  0  0
   19.4285   70.1735   -5.7791 O   0  0  0  0  0  0  0  0  0  0  0  0
   18.4883   71.4833   -9.5829 O   0  0  0  0  0  0  0  0  0  0  0  0
   21.1656   71.9028   -8.4918 O   0  0  0  0  0  0  0  0  0  0  0  0
   16.4725   71.5161   -7.4886 O   0  0  0  0  0  0  0  0  0  0  0  0
   18.7748   71.6204   -8.1911 C   0  0  2  0  0  0  0  0  0  0  0  0
   20.1725   71.0733   -7.9000 C   0  0  2  0  0  0  0  0  0  0  0  0
   17.7211   70.8308   -7.4114 C   0  0  1  0  0  0  0  0  0  0  0  0
   20.4250   70.9911   -6.3939 C   0  0  1  0  0  0  0  0  0  0  0  0
   18.1078   70.6856   -5.9424 C   0  0  1  0  0  0  0  0  0  0  0  0
   19.1453   71.9769  -10.0986 H   0  0  0  0  0  0  0  0  0  0  0  0
   21.0113   71.9597   -9.4475 H   0  0  0  0  0  0  0  0  0  0  0  0
   16.2150   71.6152   -8.4185 H   0  0  0  0  0  0  0  0  0  0  0  0
   16.4472   69.0445   -6.1676 O   0  0  0  0  0  0  0  0  0  0  0  0
   17.2958   69.3858   -4.0789 O   0  0  0  0  0  0  0  0  0  0  0  0
   17.2622   69.6531   -5.2707 C   0  0  0  0  0  0  0  0  0  0  0  0
  1  4  1  0
  1 24  1  0
  1  2  1  1
  1  3  2  0
 25 28  1  0
 25 24  1  0
 25 26  1  6
 25 27  2  0
  6 11  1  0
  6 12  1  0
 29 36  1  0
 29 37  1  0
  9  7  1  1
  7 13  1  0
 10  8  1  1
  8 14  1  0
  4  5  1  0
 36 28  1  1
 33 30  1  6
 30 38  1  0
 34 31  1  6
 31 39  1  0
 35 32  1  1
 32 40  1  0
 41 43  1  0
 15 19  2  0
 42 43  2  0
 16 22  2  0
 12 17  1  6
 17 19  1  0
 17 20  1  0
 18 19  1  0
 18 22  1  0
 18 23  1  0
  9 10  1  0
  9 11  1  0
 10 12  1  0
 11  5  1  6
 33 34  1  0
 33 35  1  0
 34 36  1  0
 35 37  1  0
 37 43  1  1
 20 21  2  0
 21 22  1  0
M  CHG  3   2  -1  26  -1  41  -1
M  END
>  <COMPND>  (137) 
    udp_gluA.pdb 

>  <AUTHOR>  (137) 
    GENERATED BY OPEN BABEL 3.1.1

>  <MASTER>  (137) 
        0    0    0    0    0    0    0    0   56    0   56    0

>  <minimizedAffinity>  (137) 
-6.50905

>  <CNNscore>  (137) 
0.5337237120

>  <CNNaffinity>  (137) 
4.1663837433

>  <CNN_VS>  (137) 
2.2236979008

>  <CNNaffinity_variance>  (137) 
0.0036049280

$$$$
138
     RDKit          3D

 43 45  0  0  0  0  0  0  0  0999 V2000
   23.1081   72.8675   -1.9976 P   0  0  2  0  0  0  0  0  0  0  0  0
   24.0898   73.9260   -1.2664 O   0  0  0  0  0  0  0  0  0  0  0  0
   23.7567   71.5756   -2.4004 O   0  0  0  0  0  0  0  0  0  0  0  0
   22.4398   73.7223   -3.1978 O   0  0  0  0  0  0  0  0  0  0  0  0
   21.2213   73.2659   -3.7559 C   0  0  0  0  0  0  0  0  0  0  0  0
   20.8694   71.0796   -4.6909 O   0  0  0  0  0  0  0  0  0  0  0  0
   21.7490   72.2592   -7.3036 O   0  0  0  0  0  0  0  0  0  0  0  0
   19.0343   72.2085   -7.5566 O   0  0  0  0  0  0  0  0  0  0  0  0
   20.9841   72.8545   -6.2553 C   0  0  1  0  0  0  0  0  0  0  0  0
   19.5750   72.3007   -6.2551 C   0  0  2  0  0  0  0  0  0  0  0  0
   21.5277   72.3428   -4.9283 C   0  0  1  0  0  0  0  0  0  0  0  0
   19.7704   70.9414   -5.6055 C   0  0  2  0  0  0  0  0  0  0  0  0
   21.4201   72.5712   -8.1616 H   0  0  0  0  0  0  0  0  0  0  0  0
   18.9289   73.0994   -7.9268 H   0  0  0  0  0  0  0  0  0  0  0  0
   17.4491   69.8661   -6.8018 O   0  0  0  0  0  0  0  0  0  0  0  0
   15.3789   69.3169   -2.7206 O   0  0  0  0  0  0  0  0  0  0  0  0
   18.6101   70.5093   -4.8791 N   0  0  0  0  0  0  0  0  0  0  0  0
   16.4198   69.5945   -4.7681 N   0  0  0  0  0  0  0  0  0  0  0  0
   17.4963   69.9838   -5.5759 C   0  0  0  0  0  0  0  0  0  0  0  0
   18.5834   70.6063   -3.4932 C   0  0  0  0  0  0  0  0  0  0  0  0
   17.5501   70.2310   -2.7367 C   0  0  0  0  0  0  0  0  0  0  0  0
   16.3465   69.6722   -3.3867 C   0  0  0  0  0  0  0  0  0  0  0  0
   15.6321   69.2275   -5.2308 H   0  0  0  0  0  0  0  0  0  0  0  0
   21.8933   72.7108   -0.9428 O   0  0  0  0  0  0  0  0  0  0  0  0
   21.5229   71.5145    0.0796 P   0  0  2  0  0  0  0  0  0  0  0  0
   22.9451   70.7795    0.3195 O   0  0  0  0  0  0  0  0  0  0  0  0
   20.4311   70.6055   -0.4057 O   0  0  0  0  0  0  0  0  0  0  0  0
   21.2060   72.2544    1.4777 O   0  0  0  0  0  0  0  0  0  0  0  0
   20.4193   74.3143    2.3421 O   0  0  0  0  0  0  0  0  0  0  0  0
   23.9691   73.8391    4.4016 O   0  0  0  0  0  0  0  0  0  0  0  0
   23.8154   73.2146    1.5519 O   0  0  0  0  0  0  0  0  0  0  0  0
   21.4323   73.3471    5.7334 O   0  0  0  0  0  0  0  0  0  0  0  0
   22.7804   73.4104    3.7375 C   0  0  2  0  0  0  0  0  0  0  0  0
   22.8026   73.8922    2.2867 C   0  0  2  0  0  0  0  0  0  0  0  0
   21.5825   74.0086    4.4787 C   0  0  1  0  0  0  0  0  0  0  0  0
   21.4521   73.6532    1.6100 C   0  0  1  0  0  0  0  0  0  0  0  0
   20.2928   73.8398    3.6808 C   0  0  1  0  0  0  0  0  0  0  0  0
   24.7437   73.4712    3.9480 H   0  0  0  0  0  0  0  0  0  0  0  0
   24.6750   73.3617    1.9759 H   0  0  0  0  0  0  0  0  0  0  0  0
   22.2465   73.4468    6.2510 H   0  0  0  0  0  0  0  0  0  0  0  0
   18.0401   74.4856    3.5827 O   0  0  0  0  0  0  0  0  0  0  0  0
   19.3415   75.4879    5.1641 O   0  0  0  0  0  0  0  0  0  0  0  0
   19.2066   74.6997    4.2402 C   0  0  0  0  0  0  0  0  0  0  0  0
  1  4  1  0
  1 24  1  0
  1  2  1  1
  1  3  2  0
 25 28  1  0
 25 24  1  0
 25 26  1  1
 25 27  2  0
  6 11  1  0
  6 12  1  0
 29 36  1  0
 29 37  1  0
  9  7  1  6
  7 13  1  0
 10  8  1  6
  8 14  1  0
  4  5  1  0
 36 28  1  1
 33 30  1  1
 30 38  1  0
 34 31  1  6
 31 39  1  0
 35 32  1  1
 32 40  1  0
 41 43  1  0
 15 19  2  0
 42 43  2  0
 16 22  2  0
 12 17  1  1
 17 19  1  0
 17 20  1  0
 18 19  1  0
 18 22  1  0
 18 23  1  0
  9 10  1  0
  9 11  1  0
 10 12  1  0
 11  5  1  1
 33 34  1  0
 33 35  1  0
 34 36  1  0
 35 37  1  0
 37 43  1  1
 20 21  2  0
 21 22  1  0
M  CHG  3   2  -1  26  -1  41  -1
M  END
>  <COMPND>  (138) 
    udp_gluA.pdb 

>  <AUTHOR>  (138) 
    GENERATED BY OPEN BABEL 3.1.1

>  <MASTER>  (138) 
        0    0    0    0    0    0    0    0   56    0   56    0

>  <minimizedAffinity>  (138) 
-5.97541

>  <CNNscore>  (138) 
0.5274862051

>  <CNNaffinity>  (138) 
4.0555925369

>  <CNN_VS>  (138) 
2.1392691135

>  <CNNaffinity_variance>  (138) 
0.1428462565

$$$$
139
     RDKit          3D

 43 45  0  0  0  0  0  0  0  0999 V2000
   16.6277   69.4880   -2.1495 P   0  0  2  0  0  0  0  0  0  0  0  0
   16.3496   69.3298   -3.7359 O   0  0  0  0  0  0  0  0  0  0  0  0
   16.1931   68.3220   -1.3108 O   0  0  0  0  0  0  0  0  0  0  0  0
   15.9542   70.9112   -1.7770 O   0  0  0  0  0  0  0  0  0  0  0  0
   14.8518   70.9257   -0.8888 C   0  0  0  0  0  0  0  0  0  0  0  0
   13.2133   69.2879   -1.5297 O   0  0  0  0  0  0  0  0  0  0  0  0
   11.4451   71.6047   -2.2349 O   0  0  0  0  0  0  0  0  0  0  0  0
   10.4737   70.8311    0.1929 O   0  0  0  0  0  0  0  0  0  0  0  0
   12.3836   71.4766   -1.1665 C   0  0  1  0  0  0  0  0  0  0  0  0
   11.8316   70.5658   -0.0904 C   0  0  2  0  0  0  0  0  0  0  0  0
   13.5739   70.6781   -1.6801 C   0  0  1  0  0  0  0  0  0  0  0  0
   12.0437   69.1911   -0.7014 C   0  0  2  0  0  0  0  0  0  0  0  0
   10.6755   72.1115   -1.9306 H   0  0  0  0  0  0  0  0  0  0  0  0
   10.3915   71.7173    0.5802 H   0  0  0  0  0  0  0  0  0  0  0  0
   11.1388   66.5250   -0.9237 O   0  0  0  0  0  0  0  0  0  0  0  0
   12.9214   65.3859    3.1713 O   0  0  0  0  0  0  0  0  0  0  0  0
   12.2576   68.1770    0.2919 N   0  0  0  0  0  0  0  0  0  0  0  0
   12.0266   65.9605    1.1165 N   0  0  0  0  0  0  0  0  0  0  0  0
   11.7615   66.8685    0.0829 C   0  0  0  0  0  0  0  0  0  0  0  0
   12.9528   68.4819    1.4558 C   0  0  0  0  0  0  0  0  0  0  0  0
   13.1978   67.6057    2.4321 C   0  0  0  0  0  0  0  0  0  0  0  0
   12.7128   66.2169    2.2925 C   0  0  0  0  0  0  0  0  0  0  0  0
   11.6893   65.0436    0.9946 H   0  0  0  0  0  0  0  0  0  0  0  0
   18.2109   69.8081   -2.0887 O   0  0  0  0  0  0  0  0  0  0  0  0
   19.0207   71.1962   -2.2656 P   0  0  2  0  0  0  0  0  0  0  0  0
   20.5639   70.7529   -2.0599 O   0  0  0  0  0  0  0  0  0  0  0  0
   18.5658   72.2954   -1.3498 O   0  0  0  0  0  0  0  0  0  0  0  0
   18.9023   71.5418   -3.8369 O   0  0  0  0  0  0  0  0  0  0  0  0
   18.6537   70.0987   -5.6983 O   0  0  0  0  0  0  0  0  0  0  0  0
   20.8586   73.1925   -7.3216 O   0  0  0  0  0  0  0  0  0  0  0  0
   21.4850   72.1653   -4.6595 O   0  0  0  0  0  0  0  0  0  0  0  0
   18.0208   72.9590   -7.9076 O   0  0  0  0  0  0  0  0  0  0  0  0
   19.9023   72.5922   -6.4480 C   0  0  2  0  0  0  0  0  0  0  0  0
   20.5931   71.5427   -5.5768 C   0  0  2  0  0  0  0  0  0  0  0  0
   18.8191   71.9393   -7.3096 C   0  0  1  0  0  0  0  0  0  0  0  0
   19.5680   70.7205   -4.7945 C   0  0  1  0  0  0  0  0  0  0  0  0
   17.9136   71.0366   -6.4767 C   0  0  1  0  0  0  0  0  0  0  0  0
   21.5570   73.6138   -6.7962 H   0  0  0  0  0  0  0  0  0  0  0  0
   22.1381   72.6890   -5.1490 H   0  0  0  0  0  0  0  0  0  0  0  0
   18.5852   73.5406   -8.4405 H   0  0  0  0  0  0  0  0  0  0  0  0
   17.6435   70.0490   -8.5869 O   0  0  0  0  0  0  0  0  0  0  0  0
   16.0426   69.6143   -7.0225 O   0  0  0  0  0  0  0  0  0  0  0  0
   17.0831   70.1606   -7.3571 C   0  0  0  0  0  0  0  0  0  0  0  0
  1  4  1  0
  1 24  1  0
  1  2  1  6
  1  3  2  0
 25 28  1  0
 25 24  1  0
 25 26  1  1
 25 27  2  0
  6 11  1  0
  6 12  1  0
 29 36  1  0
 29 37  1  0
  9  7  1  6
  7 13  1  0
 10  8  1  6
  8 14  1  0
  4  5  1  0
 36 28  1  1
 33 30  1  6
 30 38  1  0
 34 31  1  1
 31 39  1  0
 35 32  1  1
 32 40  1  0
 41 43  1  0
 15 19  2  0
 42 43  2  0
 16 22  2  0
 12 17  1  1
 17 19  1  0
 17 20  1  0
 18 19  1  0
 18 22  1  0
 18 23  1  0
  9 10  1  0
  9 11  1  0
 10 12  1  0
 11  5  1  1
 33 34  1  0
 33 35  1  0
 34 36  1  0
 35 37  1  0
 37 43  1  6
 20 21  2  0
 21 22  1  0
M  CHG  3   2  -1  26  -1  41  -1
M  END
>  <COMPND>  (139) 
    udp_gluA.pdb 

>  <AUTHOR>  (139) 
    GENERATED BY OPEN BABEL 3.1.1

>  <MASTER>  (139) 
        0    0    0    0    0    0    0    0   56    0   56    0

>  <minimizedAffinity>  (139) 
-6.66357

>  <CNNscore>  (139) 
0.5121512413

>  <CNNaffinity>  (139) 
4.2687482834

>  <CNN_VS>  (139) 
2.1862447262

>  <CNNaffinity_variance>  (139) 
0.0772365704

$$$$
140
     RDKit          3D

 43 45  0  0  0  0  0  0  0  0999 V2000
   23.4852   72.3500   -3.2191 P   0  0  2  0  0  0  0  0  0  0  0  0
   24.2074   70.9126   -3.0422 O   0  0  0  0  0  0  0  0  0  0  0  0
   24.4013   73.4772   -3.5958 O   0  0  0  0  0  0  0  0  0  0  0  0
   22.6629   72.5440   -1.8392 O   0  0  0  0  0  0  0  0  0  0  0  0
   23.3905   72.7003   -0.6348 C   0  0  0  0  0  0  0  0  0  0  0  0
   23.8826   71.6712    1.4810 O   0  0  0  0  0  0  0  0  0  0  0  0
   21.3535   70.1066    1.0976 O   0  0  0  0  0  0  0  0  0  0  0  0
   20.5879   72.0588    2.8409 O   0  0  0  0  0  0  0  0  0  0  0  0
   21.6446   71.4566    0.7354 C   0  0  1  0  0  0  0  0  0  0  0  0
   21.6614   72.3376    1.9665 C   0  0  2  0  0  0  0  0  0  0  0  0
   23.0960   71.5181    0.2796 C   0  0  1  0  0  0  0  0  0  0  0  0
   23.0129   72.0038    2.5748 C   0  0  2  0  0  0  0  0  0  0  0  0
   20.4311   70.0422    1.3923 H   0  0  0  0  0  0  0  0  0  0  0  0
   19.7503   72.2884    2.4078 H   0  0  0  0  0  0  0  0  0  0  0  0
   22.4603   72.5807    5.2837 O   0  0  0  0  0  0  0  0  0  0  0  0
   25.2279   76.2663    5.2529 O   0  0  0  0  0  0  0  0  0  0  0  0
   23.5754   73.1079    3.2995 N   0  0  0  0  0  0  0  0  0  0  0  0
   23.8385   74.4164    5.2655 N   0  0  0  0  0  0  0  0  0  0  0  0
   23.2324   73.3091    4.6574 C   0  0  0  0  0  0  0  0  0  0  0  0
   24.4570   73.9759    2.6667 C   0  0  0  0  0  0  0  0  0  0  0  0
   25.0268   75.0270    3.2595 C   0  0  0  0  0  0  0  0  0  0  0  0
   24.7207   75.3082    4.6774 C   0  0  0  0  0  0  0  0  0  0  0  0
   23.6133   74.5781    6.2102 H   0  0  0  0  0  0  0  0  0  0  0  0
   22.3201   72.0406   -4.2960 O   0  0  0  0  0  0  0  0  0  0  0  0
   21.7924   72.8942   -5.5635 P   0  0  2  0  0  0  0  0  0  0  0  0
   22.8029   72.4571   -6.7502 O   0  0  0  0  0  0  0  0  0  0  0  0
   21.7240   74.3746   -5.3235 O   0  0  0  0  0  0  0  0  0  0  0  0
   20.3836   72.2139   -5.9572 O   0  0  0  0  0  0  0  0  0  0  0  0
   19.6803   70.0539   -5.2873 O   0  0  0  0  0  0  0  0  0  0  0  0
   17.4870   70.6182   -8.7426 O   0  0  0  0  0  0  0  0  0  0  0  0
   20.2931   71.4220   -8.6219 O   0  0  0  0  0  0  0  0  0  0  0  0
   16.2037   70.8540   -6.1449 O   0  0  0  0  0  0  0  0  0  0  0  0
   18.1575   71.0128   -7.5457 C   0  0  2  0  0  0  0  0  0  0  0  0
   19.6354   70.6322   -7.6378 C   0  0  2  0  0  0  0  0  0  0  0  0
   17.4939   70.2897   -6.3715 C   0  0  1  0  0  0  0  0  0  0  0  0
   20.3357   70.8282   -6.2924 C   0  0  1  0  0  0  0  0  0  0  0  0
   18.3179   70.4279   -5.0946 C   0  0  1  0  0  0  0  0  0  0  0  0
   17.8918   71.0654   -9.5026 H   0  0  0  0  0  0  0  0  0  0  0  0
   19.8537   71.3027   -9.4781 H   0  0  0  0  0  0  0  0  0  0  0  0
   15.6692   70.7727   -6.9502 H   0  0  0  0  0  0  0  0  0  0  0  0
   16.8890   68.6478   -4.5551 O   0  0  0  0  0  0  0  0  0  0  0  0
   18.2696   69.4092   -2.9080 O   0  0  0  0  0  0  0  0  0  0  0  0
   17.8493   69.4636   -4.0540 C   0  0  0  0  0  0  0  0  0  0  0  0
  1  4  1  0
  1 24  1  0
  1  2  1  1
  1  3  2  0
 25 28  1  0
 25 24  1  0
 25 26  1  6
 25 27  2  0
  6 11  1  0
  6 12  1  0
 29 36  1  0
 29 37  1  0
  9  7  1  1
  7 13  1  0
 10  8  1  1
  8 14  1  0
  4  5  1  0
 36 28  1  1
 33 30  1  6
 30 38  1  0
 34 31  1  6
 31 39  1  0
 35 32  1  1
 32 40  1  0
 41 43  1  0
 15 19  2  0
 42 43  2  0
 16 22  2  0
 12 17  1  6
 17 19  1  0
 17 20  1  0
 18 19  1  0
 18 22  1  0
 18 23  1  0
  9 10  1  0
  9 11  1  0
 10 12  1  0
 11  5  1  6
 33 34  1  0
 33 35  1  0
 34 36  1  0
 35 37  1  0
 37 43  1  1
 20 21  2  0
 21 22  1  0
M  CHG  3   2  -1  26  -1  41  -1
M  END
>  <COMPND>  (140) 
    udp_gluA.pdb 

>  <AUTHOR>  (140) 
    GENERATED BY OPEN BABEL 3.1.1

>  <MASTER>  (140) 
        0    0    0    0    0    0    0    0   56    0   56    0

>  <minimizedAffinity>  (140) 
-7.75968

>  <CNNscore>  (140) 
0.5059787035

>  <CNNaffinity>  (140) 
4.2411513329

>  <CNN_VS>  (140) 
2.1459321976

>  <CNNaffinity_variance>  (140) 
0.1408210099

$$$$
141
     RDKit          3D

 43 45  0  0  0  0  0  0  0  0999 V2000
   22.8613   71.6740   -3.2768 P   0  0  2  0  0  0  0  0  0  0  0  0
   22.5474   71.9162   -4.8457 O   0  0  0  0  0  0  0  0  0  0  0  0
   24.2288   71.1317   -2.9807 O   0  0  0  0  0  0  0  0  0  0  0  0
   21.6209   70.7685   -2.7676 O   0  0  0  0  0  0  0  0  0  0  0  0
   20.7289   70.2401   -3.7318 C   0  0  0  0  0  0  0  0  0  0  0  0
   18.9370   71.5204   -4.6948 O   0  0  0  0  0  0  0  0  0  0  0  0
   17.2047   70.3749   -2.5319 O   0  0  0  0  0  0  0  0  0  0  0  0
   16.5478   68.8473   -4.6932 O   0  0  0  0  0  0  0  0  0  0  0  0
   18.2768   69.7635   -3.2498 C   0  0  1  0  0  0  0  0  0  0  0  0
   17.8373   69.4222   -4.6579 C   0  0  2  0  0  0  0  0  0  0  0  0
   19.3416   70.8235   -3.4966 C   0  0  1  0  0  0  0  0  0  0  0  0
   17.8924   70.7771   -5.3427 C   0  0  2  0  0  0  0  0  0  0  0  0
   16.5119   69.7169   -2.3625 H   0  0  0  0  0  0  0  0  0  0  0  0
   16.5651   67.9866   -4.2450 H   0  0  0  0  0  0  0  0  0  0  0  0
   15.9831   70.2153   -7.3465 O   0  0  0  0  0  0  0  0  0  0  0  0
   19.1602   70.3967  -10.6808 O   0  0  0  0  0  0  0  0  0  0  0  0
   18.1934   70.6719   -6.7424 N   0  0  0  0  0  0  0  0  0  0  0  0
   17.5675   70.3052   -9.0051 N   0  0  0  0  0  0  0  0  0  0  0  0
   17.1610   70.3859   -7.6668 C   0  0  0  0  0  0  0  0  0  0  0  0
   19.4974   70.8526   -7.1869 C   0  0  0  0  0  0  0  0  0  0  0  0
   19.8696   70.7727   -8.4660 C   0  0  0  0  0  0  0  0  0  0  0  0
   18.8519   70.4766   -9.4955 C   0  0  0  0  0  0  0  0  0  0  0  0
   16.8666   70.1050   -9.6670 H   0  0  0  0  0  0  0  0  0  0  0  0
   22.5521   73.1173   -2.6178 O   0  0  0  0  0  0  0  0  0  0  0  0
   23.5405   74.3251   -2.1957 P   0  0  2  0  0  0  0  0  0  0  0  0
   22.5195   75.5052   -1.7654 O   0  0  0  0  0  0  0  0  0  0  0  0
   24.5244   74.7162   -3.2601 O   0  0  0  0  0  0  0  0  0  0  0  0
   24.2102   73.8407   -0.8103 O   0  0  0  0  0  0  0  0  0  0  0  0
   22.5062   73.3034    0.7443 O   0  0  0  0  0  0  0  0  0  0  0  0
   25.9179   72.7029    2.9955 O   0  0  0  0  0  0  0  0  0  0  0  0
   25.7012   75.0149    1.2230 O   0  0  0  0  0  0  0  0  0  0  0  0
   24.4358   70.4279    1.9569 O   0  0  0  0  0  0  0  0  0  0  0  0
   25.1299   72.7301    1.8054 C   0  0  2  0  0  0  0  0  0  0  0  0
   24.6219   74.1512    1.5603 C   0  0  2  0  0  0  0  0  0  0  0  0
   23.9536   71.7697    1.9950 C   0  0  1  0  0  0  0  0  0  0  0  0
   23.5917   74.1767    0.4304 C   0  0  1  0  0  0  0  0  0  0  0  0
   22.9093   71.9441    0.8961 C   0  0  1  0  0  0  0  0  0  0  0  0
   26.6716   73.3060    2.8983 H   0  0  0  0  0  0  0  0  0  0  0  0
   26.3589   75.0034    1.9355 H   0  0  0  0  0  0  0  0  0  0  0  0
   25.1014   70.3036    2.6515 H   0  0  0  0  0  0  0  0  0  0  0  0
   21.2951   71.5261    2.5457 O   0  0  0  0  0  0  0  0  0  0  0  0
   20.9814   70.5454    0.5113 O   0  0  0  0  0  0  0  0  0  0  0  0
   21.6349   71.2550    1.2612 C   0  0  0  0  0  0  0  0  0  0  0  0
  1  4  1  0
  1 24  1  0
  1  2  1  6
  1  3  2  0
 25 28  1  0
 25 24  1  0
 25 26  1  1
 25 27  2  0
  6 11  1  0
  6 12  1  0
 29 36  1  0
 29 37  1  0
  9  7  1  1
  7 13  1  0
 10  8  1  1
  8 14  1  0
  4  5  1  0
 36 28  1  6
 33 30  1  1
 30 38  1  0
 34 31  1  6
 31 39  1  0
 35 32  1  6
 32 40  1  0
 41 43  1  0
 15 19  2  0
 42 43  2  0
 16 22  2  0
 12 17  1  6
 17 19  1  0
 17 20  1  0
 18 19  1  0
 18 22  1  0
 18 23  1  0
  9 10  1  0
  9 11  1  0
 10 12  1  0
 11  5  1  6
 33 34  1  0
 33 35  1  0
 34 36  1  0
 35 37  1  0
 37 43  1  1
 20 21  2  0
 21 22  1  0
M  CHG  3   2  -1  26  -1  41  -1
M  END
>  <COMPND>  (141) 
    udp_gluA.pdb 

>  <AUTHOR>  (141) 
    GENERATED BY OPEN BABEL 3.1.1

>  <MASTER>  (141) 
        0    0    0    0    0    0    0    0   56    0   56    0

>  <minimizedAffinity>  (141) 
-7.84816

>  <CNNscore>  (141) 
0.9428986907

>  <CNNaffinity>  (141) 
4.9059352875

>  <CNN_VS>  (141) 
4.6258001328

>  <CNNaffinity_variance>  (141) 
0.0498500466

$$$$
142
     RDKit          3D

 43 45  0  0  0  0  0  0  0  0999 V2000
   23.0632   71.7403   -2.7528 P   0  0  2  0  0  0  0  0  0  0  0  0
   23.3864   73.3131   -2.5516 O   0  0  0  0  0  0  0  0  0  0  0  0
   24.2232   70.9094   -3.2174 O   0  0  0  0  0  0  0  0  0  0  0  0
   21.7623   71.7309   -3.7149 O   0  0  0  0  0  0  0  0  0  0  0  0
   20.9360   70.5813   -3.7234 C   0  0  0  0  0  0  0  0  0  0  0  0
   18.9863   71.6375   -4.6514 O   0  0  0  0  0  0  0  0  0  0  0  0
   17.4486   70.3204   -2.4396 O   0  0  0  0  0  0  0  0  0  0  0  0
   16.9223   68.7069   -4.5740 O   0  0  0  0  0  0  0  0  0  0  0  0
   18.5671   69.8299   -3.1791 C   0  0  1  0  0  0  0  0  0  0  0  0
   18.1373   69.4269   -4.5738 C   0  0  2  0  0  0  0  0  0  0  0  0
   19.4964   71.0031   -3.4586 C   0  0  1  0  0  0  0  0  0  0  0  0
   18.0198   70.7726   -5.2688 C   0  0  2  0  0  0  0  0  0  0  0  0
   16.8405   69.5886   -2.2491 H   0  0  0  0  0  0  0  0  0  0  0  0
   17.0493   67.8582   -4.1206 H   0  0  0  0  0  0  0  0  0  0  0  0
   16.1231   70.0418   -7.2297 O   0  0  0  0  0  0  0  0  0  0  0  0
   19.1995   70.4869  -10.6329 O   0  0  0  0  0  0  0  0  0  0  0  0
   18.2982   70.6895   -6.6746 N   0  0  0  0  0  0  0  0  0  0  0  0
   17.6574   70.2632   -8.9227 N   0  0  0  0  0  0  0  0  0  0  0  0
   17.2746   70.3125   -7.5758 C   0  0  0  0  0  0  0  0  0  0  0  0
   19.5718   70.9809   -7.1479 C   0  0  0  0  0  0  0  0  0  0  0  0
   19.9216   70.9296   -8.4346 C   0  0  0  0  0  0  0  0  0  0  0  0
   18.9112   70.5435   -9.4413 C   0  0  0  0  0  0  0  0  0  0  0  0
   16.9623   70.0012   -9.5688 H   0  0  0  0  0  0  0  0  0  0  0  0
   22.4571   71.3080   -1.3180 O   0  0  0  0  0  0  0  0  0  0  0  0
   21.3654   72.0269   -0.3667 P   0  0  2  0  0  0  0  0  0  0  0  0
   20.4733   70.7890    0.1736 O   0  0  0  0  0  0  0  0  0  0  0  0
   20.5756   73.1090   -1.0444 O   0  0  0  0  0  0  0  0  0  0  0  0
   22.2043   72.5170    0.9212 O   0  0  0  0  0  0  0  0  0  0  0  0
   23.9979   71.4915    2.0789 O   0  0  0  0  0  0  0  0  0  0  0  0
   22.0258   73.4410    5.1413 O   0  0  0  0  0  0  0  0  0  0  0  0
   20.5214   72.0201    3.0792 O   0  0  0  0  0  0  0  0  0  0  0  0
   24.5116   74.5187    4.0875 O   0  0  0  0  0  0  0  0  0  0  0  0
   22.4860   73.2453    3.8042 C   0  0  2  0  0  0  0  0  0  0  0  0
   21.9300   71.9295    3.2591 C   0  0  2  0  0  0  0  0  0  0  0  0
   24.0155   73.2062    3.8313 C   0  0  1  0  0  0  0  0  0  0  0  0
   22.5808   71.5728    1.9219 C   0  0  1  0  0  0  0  0  0  0  0  0
   24.5841   72.7208    2.5010 C   0  0  1  0  0  0  0  0  0  0  0  0
   21.0561   73.4691    5.1489 H   0  0  0  0  0  0  0  0  0  0  0  0
   20.1019   72.2466    3.9237 H   0  0  0  0  0  0  0  0  0  0  0  0
   24.1570   74.8394    4.9315 H   0  0  0  0  0  0  0  0  0  0  0  0
   26.2340   71.0584    2.3754 O   0  0  0  0  0  0  0  0  0  0  0  0
   26.9155   73.1595    2.9410 O   0  0  0  0  0  0  0  0  0  0  0  0
   26.0308   72.3733    2.6376 C   0  0  0  0  0  0  0  0  0  0  0  0
  1  4  1  0
  1 24  1  0
  1  2  1  1
  1  3  2  0
 25 28  1  0
 25 24  1  0
 25 26  1  1
 25 27  2  0
  6 11  1  0
  6 12  1  0
 29 36  1  0
 29 37  1  0
  9  7  1  1
  7 13  1  0
 10  8  1  1
  8 14  1  0
  4  5  1  0
 36 28  1  6
 33 30  1  1
 30 38  1  0
 34 31  1  6
 31 39  1  0
 35 32  1  6
 32 40  1  0
 41 43  1  0
 15 19  2  0
 42 43  2  0
 16 22  2  0
 12 17  1  6
 17 19  1  0
 17 20  1  0
 18 19  1  0
 18 22  1  0
 18 23  1  0
  9 10  1  0
  9 11  1  0
 10 12  1  0
 11  5  1  6
 33 34  1  0
 33 35  1  0
 34 36  1  0
 35 37  1  0
 37 43  1  1
 20 21  2  0
 21 22  1  0
M  CHG  3   2  -1  26  -1  41  -1
M  END
>  <COMPND>  (142) 
    udp_gluA.pdb 

>  <AUTHOR>  (142) 
    GENERATED BY OPEN BABEL 3.1.1

>  <MASTER>  (142) 
        0    0    0    0    0    0    0    0   56    0   56    0

>  <minimizedAffinity>  (142) 
-8.05146

>  <CNNscore>  (142) 
0.9329346418

>  <CNNaffinity>  (142) 
4.7900152206

>  <CNN_VS>  (142) 
4.4687709808

>  <CNNaffinity_variance>  (142) 
0.0249334387

$$$$
143
     RDKit          3D

 43 45  0  0  0  0  0  0  0  0999 V2000
   22.3709   71.6079   -2.9746 P   0  0  2  0  0  0  0  0  0  0  0  0
   22.0019   73.1778   -2.8399 O   0  0  0  0  0  0  0  0  0  0  0  0
   23.8231   71.3169   -3.2159 O   0  0  0  0  0  0  0  0  0  0  0  0
   21.3482   71.0639   -4.1041 O   0  0  0  0  0  0  0  0  0  0  0  0
   20.4137   70.0630   -3.7445 C   0  0  0  0  0  0  0  0  0  0  0  0
   18.7353   71.4296   -4.7900 O   0  0  0  0  0  0  0  0  0  0  0  0
   16.8349   70.3334   -2.7459 O   0  0  0  0  0  0  0  0  0  0  0  0
   16.2404   68.8605   -4.9625 O   0  0  0  0  0  0  0  0  0  0  0  0
   17.9201   69.6854   -3.4100 C   0  0  1  0  0  0  0  0  0  0  0  0
   17.5486   69.3796   -4.8455 C   0  0  2  0  0  0  0  0  0  0  0  0
   19.0407   70.7020   -3.5806 C   0  0  1  0  0  0  0  0  0  0  0  0
   17.6996   70.7390   -5.5068 C   0  0  2  0  0  0  0  0  0  0  0  0
   16.1066   69.7034   -2.6256 H   0  0  0  0  0  0  0  0  0  0  0  0
   16.1959   67.9947   -4.5263 H   0  0  0  0  0  0  0  0  0  0  0  0
   15.8928   70.2410   -7.6196 O   0  0  0  0  0  0  0  0  0  0  0  0
   19.2556   70.3697  -10.7690 O   0  0  0  0  0  0  0  0  0  0  0  0
   18.0761   70.6374   -6.8884 N   0  0  0  0  0  0  0  0  0  0  0  0
   17.5695   70.3046   -9.1860 N   0  0  0  0  0  0  0  0  0  0  0  0
   17.0905   70.3847   -7.8718 C   0  0  0  0  0  0  0  0  0  0  0  0
   19.4071   70.7891   -7.2576 C   0  0  0  0  0  0  0  0  0  0  0  0
   19.8484   70.7102   -8.5145 C   0  0  0  0  0  0  0  0  0  0  0  0
   18.8833   70.4478   -9.6021 C   0  0  0  0  0  0  0  0  0  0  0  0
   16.9022   70.1273   -9.8879 H   0  0  0  0  0  0  0  0  0  0  0  0
   21.7753   70.9768   -1.6108 O   0  0  0  0  0  0  0  0  0  0  0  0
   21.2315   71.6845   -0.2628 P   0  0  2  0  0  0  0  0  0  0  0  0
   21.1043   70.4505    0.7772 O   0  0  0  0  0  0  0  0  0  0  0  0
   19.9659   72.4706   -0.4474 O   0  0  0  0  0  0  0  0  0  0  0  0
   22.4822   72.5469    0.2798 O   0  0  0  0  0  0  0  0  0  0  0  0
   22.2277   73.7496    2.3042 O   0  0  0  0  0  0  0  0  0  0  0  0
   25.6361   75.4707    0.7267 O   0  0  0  0  0  0  0  0  0  0  0  0
   23.3531   74.8623   -0.9916 O   0  0  0  0  0  0  0  0  0  0  0  0
   25.8395   73.5827    2.9278 O   0  0  0  0  0  0  0  0  0  0  0  0
   24.7024   74.4199    0.9756 C   0  0  2  0  0  0  0  0  0  0  0  0
   23.3298   74.8151    0.4304 C   0  0  2  0  0  0  0  0  0  0  0  0
   24.6308   74.1994    2.4883 C   0  0  1  0  0  0  0  0  0  0  0  0
   22.2565   73.8220    0.8782 C   0  0  1  0  0  0  0  0  0  0  0  0
   23.4585   73.2983    2.8651 C   0  0  1  0  0  0  0  0  0  0  0  0
   25.6982   75.6287   -0.2286 H   0  0  0  0  0  0  0  0  0  0  0  0
   24.0321   75.4905   -1.2827 H   0  0  0  0  0  0  0  0  0  0  0  0
   26.5936   74.1462    2.6939 H   0  0  0  0  0  0  0  0  0  0  0  0
   23.7679   74.4567    4.8810 O   0  0  0  0  0  0  0  0  0  0  0  0
   22.5577   72.5261    4.9660 O   0  0  0  0  0  0  0  0  0  0  0  0
   23.1976   73.3541    4.3352 C   0  0  0  0  0  0  0  0  0  0  0  0
  1  4  1  0
  1 24  1  0
  1  2  1  1
  1  3  2  0
 25 28  1  0
 25 24  1  0
 25 26  1  1
 25 27  2  0
  6 11  1  0
  6 12  1  0
 29 36  1  0
 29 37  1  0
  9  7  1  1
  7 13  1  0
 10  8  1  1
  8 14  1  0
  4  5  1  0
 36 28  1  6
 33 30  1  1
 30 38  1  0
 34 31  1  6
 31 39  1  0
 35 32  1  6
 32 40  1  0
 41 43  1  0
 15 19  2  0
 42 43  2  0
 16 22  2  0
 12 17  1  6
 17 19  1  0
 17 20  1  0
 18 19  1  0
 18 22  1  0
 18 23  1  0
  9 10  1  0
  9 11  1  0
 10 12  1  0
 11  5  1  6
 33 34  1  0
 33 35  1  0
 34 36  1  0
 35 37  1  0
 37 43  1  1
 20 21  2  0
 21 22  1  0
M  CHG  3   2  -1  26  -1  41  -1
M  END
>  <COMPND>  (143) 
    udp_gluA.pdb 

>  <AUTHOR>  (143) 
    GENERATED BY OPEN BABEL 3.1.1

>  <MASTER>  (143) 
        0    0    0    0    0    0    0    0   56    0   56    0

>  <minimizedAffinity>  (143) 
-7.55200

>  <CNNscore>  (143) 
0.9268382192

>  <CNNaffinity>  (143) 
4.8127260208

>  <CNN_VS>  (143) 
4.4606184959

>  <CNNaffinity_variance>  (143) 
0.0417136438

$$$$
144
     RDKit          3D

 43 45  0  0  0  0  0  0  0  0999 V2000
   22.8152   71.6166   -2.6737 P   0  0  2  0  0  0  0  0  0  0  0  0
   24.2133   70.9548   -3.1491 O   0  0  0  0  0  0  0  0  0  0  0  0
   22.3518   71.2050   -1.3070 O   0  0  0  0  0  0  0  0  0  0  0  0
   21.7977   71.2898   -3.8885 O   0  0  0  0  0  0  0  0  0  0  0  0
   20.8579   70.2443   -3.7207 C   0  0  0  0  0  0  0  0  0  0  0  0
   19.0648   71.5407   -4.6597 O   0  0  0  0  0  0  0  0  0  0  0  0
   17.3606   70.4389   -2.4522 O   0  0  0  0  0  0  0  0  0  0  0  0
   16.6396   68.9012   -4.5857 O   0  0  0  0  0  0  0  0  0  0  0  0
   18.4096   69.8063   -3.1856 C   0  0  1  0  0  0  0  0  0  0  0  0
   17.9373   69.4584   -4.5814 C   0  0  2  0  0  0  0  0  0  0  0  0
   19.4837   70.8490   -3.4633 C   0  0  1  0  0  0  0  0  0  0  0  0
   17.9974   70.8062   -5.2797 C   0  0  2  0  0  0  0  0  0  0  0  0
   16.6623   69.7922   -2.2630 H   0  0  0  0  0  0  0  0  0  0  0  0
   16.6541   68.0445   -4.1300 H   0  0  0  0  0  0  0  0  0  0  0  0
   16.0409   70.2523   -7.2398 O   0  0  0  0  0  0  0  0  0  0  0  0
   19.1527   70.3600  -10.6383 O   0  0  0  0  0  0  0  0  0  0  0  0
   18.2687   70.6842   -6.6841 N   0  0  0  0  0  0  0  0  0  0  0  0
   17.5928   70.3055   -8.9304 N   0  0  0  0  0  0  0  0  0  0  0  0
   17.2143   70.4039   -7.5850 C   0  0  0  0  0  0  0  0  0  0  0  0
   19.5660   70.8431   -7.1563 C   0  0  0  0  0  0  0  0  0  0  0  0
   19.9113   70.7465   -8.4416 C   0  0  0  0  0  0  0  0  0  0  0  0
   18.8693   70.4549   -9.4479 C   0  0  0  0  0  0  0  0  0  0  0  0
   16.8762   70.1089   -9.5763 H   0  0  0  0  0  0  0  0  0  0  0  0
   23.0872   73.2008   -2.8437 O   0  0  0  0  0  0  0  0  0  0  0  0
   22.1183   74.3972   -3.3371 P   0  0  2  0  0  0  0  0  0  0  0  0
   22.7344   75.7000   -2.5998 O   0  0  0  0  0  0  0  0  0  0  0  0
   20.6611   74.1625   -3.0625 O   0  0  0  0  0  0  0  0  0  0  0  0
   22.4815   74.6016   -4.8956 O   0  0  0  0  0  0  0  0  0  0  0  0
   20.8704   75.3375   -6.4679 O   0  0  0  0  0  0  0  0  0  0  0  0
   23.6983   73.5866   -8.9186 O   0  0  0  0  0  0  0  0  0  0  0  0
   22.9187   72.3096   -6.4094 O   0  0  0  0  0  0  0  0  0  0  0  0
   23.5180   76.4823   -8.7355 O   0  0  0  0  0  0  0  0  0  0  0  0
   23.2260   74.2935   -7.7717 C   0  0  2  0  0  0  0  0  0  0  0  0
   22.2427   73.4148   -6.9980 C   0  0  2  0  0  0  0  0  0  0  0  0
   22.5330   75.5695   -8.2550 C   0  0  1  0  0  0  0  0  0  0  0  0
   21.5433   74.2142   -5.8978 C   0  0  1  0  0  0  0  0  0  0  0  0
   21.7539   76.2413   -7.1279 C   0  0  1  0  0  0  0  0  0  0  0  0
   24.1425   72.7716   -8.6360 H   0  0  0  0  0  0  0  0  0  0  0  0
   23.3650   71.7980   -7.1018 H   0  0  0  0  0  0  0  0  0  0  0  0
   24.0211   76.0668   -9.4532 H   0  0  0  0  0  0  0  0  0  0  0  0
   19.5749   77.1078   -7.1794 O   0  0  0  0  0  0  0  0  0  0  0  0
   21.1463   78.1688   -8.4458 O   0  0  0  0  0  0  0  0  0  0  0  0
   20.8274   77.2807   -7.6697 C   0  0  0  0  0  0  0  0  0  0  0  0
  1  4  1  0
  1 24  1  0
  1  2  1  6
  1  3  2  0
 25 28  1  0
 25 24  1  0
 25 26  1  1
 25 27  2  0
  6 11  1  0
  6 12  1  0
 29 36  1  0
 29 37  1  0
  9  7  1  1
  7 13  1  0
 10  8  1  1
  8 14  1  0
  4  5  1  0
 36 28  1  1
 33 30  1  6
 30 38  1  0
 34 31  1  1
 31 39  1  0
 35 32  1  1
 32 40  1  0
 41 43  1  0
 15 19  2  0
 42 43  2  0
 16 22  2  0
 12 17  1  6
 17 19  1  0
 17 20  1  0
 18 19  1  0
 18 22  1  0
 18 23  1  0
  9 10  1  0
  9 11  1  0
 10 12  1  0
 11  5  1  6
 33 34  1  0
 33 35  1  0
 34 36  1  0
 35 37  1  0
 37 43  1  6
 20 21  2  0
 21 22  1  0
M  CHG  3   2  -1  26  -1  41  -1
M  END
>  <COMPND>  (144) 
    udp_gluA.pdb 

>  <AUTHOR>  (144) 
    GENERATED BY OPEN BABEL 3.1.1

>  <MASTER>  (144) 
        0    0    0    0    0    0    0    0   56    0   56    0

>  <minimizedAffinity>  (144) 
-7.31380

>  <CNNscore>  (144) 
0.9208147526

>  <CNNaffinity>  (144) 
4.7699642181

>  <CNN_VS>  (144) 
4.3922533989

>  <CNNaffinity_variance>  (144) 
0.2398935854

$$$$
145
     RDKit          3D

 43 45  0  0  0  0  0  0  0  0999 V2000
   20.8102   71.5662   -1.3897 P   0  0  2  0  0  0  0  0  0  0  0  0
   20.7613   70.8229    0.0470 O   0  0  0  0  0  0  0  0  0  0  0  0
   19.7668   72.6259   -1.5907 O   0  0  0  0  0  0  0  0  0  0  0  0
   20.7915   70.3504   -2.4571 O   0  0  0  0  0  0  0  0  0  0  0  0
   20.2877   70.5992   -3.7566 C   0  0  0  0  0  0  0  0  0  0  0  0
   18.4803   71.7048   -4.8918 O   0  0  0  0  0  0  0  0  0  0  0  0
   16.6791   70.4621   -2.8417 O   0  0  0  0  0  0  0  0  0  0  0  0
   16.3261   68.8411   -5.0059 O   0  0  0  0  0  0  0  0  0  0  0  0
   17.8521   69.9284   -3.4563 C   0  0  1  0  0  0  0  0  0  0  0  0
   17.5570   69.5228   -4.8848 C   0  0  2  0  0  0  0  0  0  0  0  0
   18.8428   71.0688   -3.6470 C   0  0  1  0  0  0  0  0  0  0  0  0
   17.5559   70.8634   -5.5995 C   0  0  2  0  0  0  0  0  0  0  0  0
   16.0312   69.7519   -2.7096 H   0  0  0  0  0  0  0  0  0  0  0  0
   16.3778   67.9942   -4.5346 H   0  0  0  0  0  0  0  0  0  0  0  0
   15.8462   70.1918   -7.7448 O   0  0  0  0  0  0  0  0  0  0  0  0
   19.2779   70.4774  -10.8084 O   0  0  0  0  0  0  0  0  0  0  0  0
   17.9763   70.7552   -6.9678 N   0  0  0  0  0  0  0  0  0  0  0  0
   17.5572   70.3337   -9.2685 N   0  0  0  0  0  0  0  0  0  0  0  0
   17.0379   70.4118   -7.9695 C   0  0  0  0  0  0  0  0  0  0  0  0
   19.3035   70.9896   -7.3062 C   0  0  0  0  0  0  0  0  0  0  0  0
   19.7837   70.9115   -8.5488 C   0  0  0  0  0  0  0  0  0  0  0  0
   18.8691   70.5573   -9.6540 C   0  0  0  0  0  0  0  0  0  0  0  0
   16.9233   70.0941   -9.9826 H   0  0  0  0  0  0  0  0  0  0  0  0
   22.3345   72.0981   -1.4714 O   0  0  0  0  0  0  0  0  0  0  0  0
   23.0845   73.0043   -2.5804 P   0  0  2  0  0  0  0  0  0  0  0  0
   23.9739   71.9271   -3.3982 O   0  0  0  0  0  0  0  0  0  0  0  0
   23.8701   74.1498   -2.0108 O   0  0  0  0  0  0  0  0  0  0  0  0
   21.9207   73.4371   -3.6104 O   0  0  0  0  0  0  0  0  0  0  0  0
   22.6924   75.4849   -4.5160 O   0  0  0  0  0  0  0  0  0  0  0  0
   19.2938   74.7997   -6.7628 O   0  0  0  0  0  0  0  0  0  0  0  0
   19.2913   74.3016   -3.8842 O   0  0  0  0  0  0  0  0  0  0  0  0
   21.9225   74.3409   -7.9161 O   0  0  0  0  0  0  0  0  0  0  0  0
   20.4524   74.4411   -6.0098 C   0  0  2  0  0  0  0  0  0  0  0  0
   20.3251   74.9826   -4.5857 C   0  0  2  0  0  0  0  0  0  0  0  0
   21.6738   75.0490   -6.7032 C   0  0  1  0  0  0  0  0  0  0  0  0
   21.6383   74.8197   -3.8190 C   0  0  1  0  0  0  0  0  0  0  0  0
   22.9166   74.9592   -5.8223 C   0  0  1  0  0  0  0  0  0  0  0  0
   18.5048   74.4244   -6.3409 H   0  0  0  0  0  0  0  0  0  0  0  0
   18.4552   74.4006   -4.3653 H   0  0  0  0  0  0  0  0  0  0  0  0
   21.1390   74.3902   -8.4858 H   0  0  0  0  0  0  0  0  0  0  0  0
   24.4385   76.6926   -5.3975 O   0  0  0  0  0  0  0  0  0  0  0  0
   24.4554   75.7827   -7.4882 O   0  0  0  0  0  0  0  0  0  0  0  0
   24.0069   75.8322   -6.3527 C   0  0  0  0  0  0  0  0  0  0  0  0
  1  4  1  0
  1 24  1  0
  1  2  1  1
  1  3  2  0
 25 28  1  0
 25 24  1  0
 25 26  1  6
 25 27  2  0
  6 11  1  0
  6 12  1  0
 29 36  1  0
 29 37  1  0
  9  7  1  6
  7 13  1  0
 10  8  1  1
  8 14  1  0
  4  5  1  0
 36 28  1  6
 33 30  1  6
 30 38  1  0
 34 31  1  1
 31 39  1  0
 35 32  1  6
 32 40  1  0
 41 43  1  0
 15 19  2  0
 42 43  2  0
 16 22  2  0
 12 17  1  6
 17 19  1  0
 17 20  1  0
 18 19  1  0
 18 22  1  0
 18 23  1  0
  9 10  1  0
  9 11  1  0
 10 12  1  0
 11  5  1  6
 33 34  1  0
 33 35  1  0
 34 36  1  0
 35 37  1  0
 37 43  1  6
 20 21  2  0
 21 22  1  0
M  CHG  3   2  -1  26  -1  41  -1
M  END
>  <COMPND>  (145) 
    udp_gluA.pdb 

>  <AUTHOR>  (145) 
    GENERATED BY OPEN BABEL 3.1.1

>  <MASTER>  (145) 
        0    0    0    0    0    0    0    0   56    0   56    0

>  <minimizedAffinity>  (145) 
-7.12835

>  <CNNscore>  (145) 
0.8933579922

>  <CNNaffinity>  (145) 
4.5502147675

>  <CNN_VS>  (145) 
4.0649704933

>  <CNNaffinity_variance>  (145) 
0.3463420868

$$$$
146
     RDKit          3D

 43 45  0  0  0  0  0  0  0  0999 V2000
   22.4077   71.8072   -2.0267 P   0  0  2  0  0  0  0  0  0  0  0  0
   22.5693   72.9354   -3.1755 O   0  0  0  0  0  0  0  0  0  0  0  0
   23.6516   71.0219   -1.7305 O   0  0  0  0  0  0  0  0  0  0  0  0
   21.1286   70.9417   -2.5092 O   0  0  0  0  0  0  0  0  0  0  0  0
   20.5714   71.2112   -3.7826 C   0  0  0  0  0  0  0  0  0  0  0  0
   18.5907   72.0173   -4.8801 O   0  0  0  0  0  0  0  0  0  0  0  0
   17.0548   70.7189   -2.6559 O   0  0  0  0  0  0  0  0  0  0  0  0
   16.7925   68.9213   -4.6896 O   0  0  0  0  0  0  0  0  0  0  0  0
   18.2516   70.2840   -3.3016 C   0  0  1  0  0  0  0  0  0  0  0  0
   17.9373   69.7484   -4.6824 C   0  0  2  0  0  0  0  0  0  0  0  0
   19.0877   71.5159   -3.6204 C   0  0  1  0  0  0  0  0  0  0  0  0
   17.7401   71.0268   -5.4792 C   0  0  2  0  0  0  0  0  0  0  0  0
   16.5041   69.9490   -2.4424 H   0  0  0  0  0  0  0  0  0  0  0  0
   16.9686   68.1211   -4.1695 H   0  0  0  0  0  0  0  0  0  0  0  0
   15.9673   70.1819   -7.5089 O   0  0  0  0  0  0  0  0  0  0  0  0
   19.2397   70.4741  -10.7416 O   0  0  0  0  0  0  0  0  0  0  0  0
   18.1024   70.8735   -6.8598 N   0  0  0  0  0  0  0  0  0  0  0  0
   17.5991   70.3272   -9.1169 N   0  0  0  0  0  0  0  0  0  0  0  0
   17.1362   70.4430   -7.7995 C   0  0  0  0  0  0  0  0  0  0  0  0
   19.4008   71.1497   -7.2708 C   0  0  0  0  0  0  0  0  0  0  0  0
   19.8271   71.0348   -8.5301 C   0  0  0  0  0  0  0  0  0  0  0  0
   18.8805   70.5898   -9.5738 C   0  0  0  0  0  0  0  0  0  0  0  0
   16.9450   70.0272   -9.7887 H   0  0  0  0  0  0  0  0  0  0  0  0
   21.8267   72.6463   -0.7732 O   0  0  0  0  0  0  0  0  0  0  0  0
   20.7855   72.2302    0.3915 P   0  0  2  0  0  0  0  0  0  0  0  0
   20.8770   70.6141    0.4093 O   0  0  0  0  0  0  0  0  0  0  0  0
   19.3976   72.7689    0.1980 O   0  0  0  0  0  0  0  0  0  0  0  0
   21.4984   72.6935    1.7625 O   0  0  0  0  0  0  0  0  0  0  0  0
   20.6074   74.5102    2.9933 O   0  0  0  0  0  0  0  0  0  0  0  0
   24.4106   74.2059    4.5779 O   0  0  0  0  0  0  0  0  0  0  0  0
   23.9804   73.9473    1.7000 O   0  0  0  0  0  0  0  0  0  0  0  0
   22.1206   73.2368    6.0838 O   0  0  0  0  0  0  0  0  0  0  0  0
   23.2027   73.7261    3.9874 C   0  0  2  0  0  0  0  0  0  0  0  0
   22.9977   74.3935    2.6273 C   0  0  2  0  0  0  0  0  0  0  0  0
   22.0466   74.0708    4.9291 C   0  0  1  0  0  0  0  0  0  0  0  0
   21.6083   74.0823    2.0690 C   0  0  1  0  0  0  0  0  0  0  0  0
   20.6951   73.8520    4.2552 C   0  0  1  0  0  0  0  0  0  0  0  0
   25.1594   73.9982    3.9970 H   0  0  0  0  0  0  0  0  0  0  0  0
   24.8644   74.1414    2.0480 H   0  0  0  0  0  0  0  0  0  0  0  0
   22.9763   73.3663    6.5219 H   0  0  0  0  0  0  0  0  0  0  0  0
   18.3956   74.2658    4.4618 O   0  0  0  0  0  0  0  0  0  0  0  0
   19.7569   75.1300    6.0740 O   0  0  0  0  0  0  0  0  0  0  0  0
   19.5993   74.4917    5.0441 C   0  0  0  0  0  0  0  0  0  0  0  0
  1  4  1  0
  1 24  1  0
  1  2  1  6
  1  3  2  0
 25 28  1  0
 25 24  1  0
 25 26  1  1
 25 27  2  0
  6 11  1  0
  6 12  1  0
 29 36  1  0
 29 37  1  0
  9  7  1  6
  7 13  1  0
 10  8  1  1
  8 14  1  0
  4  5  1  0
 36 28  1  1
 33 30  1  1
 30 38  1  0
 34 31  1  6
 31 39  1  0
 35 32  1  1
 32 40  1  0
 41 43  1  0
 15 19  2  0
 42 43  2  0
 16 22  2  0
 12 17  1  6
 17 19  1  0
 17 20  1  0
 18 19  1  0
 18 22  1  0
 18 23  1  0
  9 10  1  0
  9 11  1  0
 10 12  1  0
 11  5  1  6
 33 34  1  0
 33 35  1  0
 34 36  1  0
 35 37  1  0
 37 43  1  1
 20 21  2  0
 21 22  1  0
M  CHG  3   2  -1  26  -1  41  -1
M  END
>  <COMPND>  (146) 
    udp_gluA.pdb 

>  <AUTHOR>  (146) 
    GENERATED BY OPEN BABEL 3.1.1

>  <MASTER>  (146) 
        0    0    0    0    0    0    0    0   56    0   56    0

>  <minimizedAffinity>  (146) 
-6.73445

>  <CNNscore>  (146) 
0.8915245533

>  <CNNaffinity>  (146) 
4.6478743553

>  <CNN_VS>  (146) 
4.1436939240

>  <CNNaffinity_variance>  (146) 
0.0731146187

$$$$
147
     RDKit          3D

 43 45  0  0  0  0  0  0  0  0999 V2000
   22.8357   71.7041   -2.3439 P   0  0  2  0  0  0  0  0  0  0  0  0
   24.0503   70.8992   -3.0479 O   0  0  0  0  0  0  0  0  0  0  0  0
   23.1098   72.1660   -0.9427 O   0  0  0  0  0  0  0  0  0  0  0  0
   21.5628   70.7216   -2.5235 O   0  0  0  0  0  0  0  0  0  0  0  0
   20.8689   70.7327   -3.7575 C   0  0  0  0  0  0  0  0  0  0  0  0
   18.9098   71.7391   -4.7203 O   0  0  0  0  0  0  0  0  0  0  0  0
   17.3792   70.4571   -2.4831 O   0  0  0  0  0  0  0  0  0  0  0  0
   16.8847   68.7839   -4.5788 O   0  0  0  0  0  0  0  0  0  0  0  0
   18.5077   69.9633   -3.2051 C   0  0  1  0  0  0  0  0  0  0  0  0
   18.0899   69.5199   -4.5911 C   0  0  2  0  0  0  0  0  0  0  0  0
   19.4226   71.1416   -3.5098 C   0  0  1  0  0  0  0  0  0  0  0  0
   17.9578   70.8462   -5.3201 C   0  0  2  0  0  0  0  0  0  0  0  0
   16.7800   69.7222   -2.2770 H   0  0  0  0  0  0  0  0  0  0  0  0
   17.0208   67.9486   -4.1037 H   0  0  0  0  0  0  0  0  0  0  0  0
   16.0768   70.0544   -7.2724 O   0  0  0  0  0  0  0  0  0  0  0  0
   19.1670   70.4418  -10.6701 O   0  0  0  0  0  0  0  0  0  0  0  0
   18.2440   70.7317   -6.7222 N   0  0  0  0  0  0  0  0  0  0  0  0
   17.6180   70.2471   -8.9626 N   0  0  0  0  0  0  0  0  0  0  0  0
   17.2279   70.3256   -7.6192 C   0  0  0  0  0  0  0  0  0  0  0  0
   19.5178   71.0215   -7.1960 C   0  0  0  0  0  0  0  0  0  0  0  0
   19.8746   70.9422   -8.4794 C   0  0  0  0  0  0  0  0  0  0  0  0
   18.8723   70.5245   -9.4816 C   0  0  0  0  0  0  0  0  0  0  0  0
   16.9281   69.9645   -9.6057 H   0  0  0  0  0  0  0  0  0  0  0  0
   22.5292   72.8919   -3.3966 O   0  0  0  0  0  0  0  0  0  0  0  0
   23.4286   73.5123   -4.5882 P   0  0  2  0  0  0  0  0  0  0  0  0
   23.2438   72.4408   -5.7874 O   0  0  0  0  0  0  0  0  0  0  0  0
   24.8571   73.7754   -4.2086 O   0  0  0  0  0  0  0  0  0  0  0  0
   22.6151   74.8163   -5.0785 O   0  0  0  0  0  0  0  0  0  0  0  0
   21.2228   75.3905   -6.9063 O   0  0  0  0  0  0  0  0  0  0  0  0
   23.6150   78.7435   -6.5860 O   0  0  0  0  0  0  0  0  0  0  0  0
   24.7660   76.0720   -6.3166 O   0  0  0  0  0  0  0  0  0  0  0  0
   20.8677   78.8150   -5.6380 O   0  0  0  0  0  0  0  0  0  0  0  0
   22.8968   77.6049   -6.1109 C   0  0  2  0  0  0  0  0  0  0  0  0
   23.4454   76.3409   -6.7733 C   0  0  2  0  0  0  0  0  0  0  0  0
   21.4206   77.7945   -6.4671 C   0  0  1  0  0  0  0  0  0  0  0  0
   22.5575   75.1337   -6.4680 C   0  0  1  0  0  0  0  0  0  0  0  0
   20.6264   76.5091   -6.2536 C   0  0  1  0  0  0  0  0  0  0  0  0
   24.5559   78.6453   -6.3709 H   0  0  0  0  0  0  0  0  0  0  0  0
   25.3348   76.8340   -6.5069 H   0  0  0  0  0  0  0  0  0  0  0  0
   21.3644   79.6386   -5.7643 H   0  0  0  0  0  0  0  0  0  0  0  0
   19.2504   77.6270   -7.7892 O   0  0  0  0  0  0  0  0  0  0  0  0
   18.3426   75.8559   -6.6764 O   0  0  0  0  0  0  0  0  0  0  0  0
   19.2843   76.6006   -6.9036 C   0  0  0  0  0  0  0  0  0  0  0  0
  1  4  1  0
  1 24  1  0
  1  2  1  6
  1  3  2  0
 25 28  1  0
 25 24  1  0
 25 26  1  6
 25 27  2  0
  6 11  1  0
  6 12  1  0
 29 36  1  0
 29 37  1  0
  9  7  1  1
  7 13  1  0
 10  8  1  1
  8 14  1  0
  4  5  1  0
 36 28  1  1
 33 30  1  6
 30 38  1  0
 34 31  1  1
 31 39  1  0
 35 32  1  1
 32 40  1  0
 41 43  1  0
 15 19  2  0
 42 43  2  0
 16 22  2  0
 12 17  1  6
 17 19  1  0
 17 20  1  0
 18 19  1  0
 18 22  1  0
 18 23  1  0
  9 10  1  0
  9 11  1  0
 10 12  1  0
 11  5  1  6
 33 34  1  0
 33 35  1  0
 34 36  1  0
 35 37  1  0
 37 43  1  6
 20 21  2  0
 21 22  1  0
M  CHG  3   2  -1  26  -1  41  -1
M  END
>  <COMPND>  (147) 
    udp_gluA.pdb 

>  <AUTHOR>  (147) 
    GENERATED BY OPEN BABEL 3.1.1

>  <MASTER>  (147) 
        0    0    0    0    0    0    0    0   56    0   56    0

>  <minimizedAffinity>  (147) 
-6.95601

>  <CNNscore>  (147) 
0.8702240586

>  <CNNaffinity>  (147) 
4.6751456261

>  <CNN_VS>  (147) 
4.0684242249

>  <CNNaffinity_variance>  (147) 
0.1195822582

$$$$
148
     RDKit          3D

 43 45  0  0  0  0  0  0  0  0999 V2000
   20.4940   71.7586   -0.9960 P   0  0  2  0  0  0  0  0  0  0  0  0
   20.5989   70.6383    0.1671 O   0  0  0  0  0  0  0  0  0  0  0  0
   19.4566   72.8177   -0.7638 O   0  0  0  0  0  0  0  0  0  0  0  0
   20.3244   70.8946   -2.3535 O   0  0  0  0  0  0  0  0  0  0  0  0
   19.8388   71.5457   -3.5131 C   0  0  0  0  0  0  0  0  0  0  0  0
   17.8457   71.9236   -4.8024 O   0  0  0  0  0  0  0  0  0  0  0  0
   16.4274   70.2566   -2.7528 O   0  0  0  0  0  0  0  0  0  0  0  0
   16.7732   68.5025   -4.8118 O   0  0  0  0  0  0  0  0  0  0  0  0
   17.7484   70.1153   -3.2755 C   0  0  1  0  0  0  0  0  0  0  0  0
   17.6984   69.5619   -4.6839 C   0  0  2  0  0  0  0  0  0  0  0  0
   18.3160   71.5099   -3.5013 C   0  0  1  0  0  0  0  0  0  0  0  0
   17.3003   70.7864   -5.4900 C   0  0  2  0  0  0  0  0  0  0  0  0
   16.0439   69.3783   -2.6003 H   0  0  0  0  0  0  0  0  0  0  0  0
   17.0713   67.7469   -4.2806 H   0  0  0  0  0  0  0  0  0  0  0  0
   15.7599   70.2221   -7.7890 O   0  0  0  0  0  0  0  0  0  0  0  0
   19.4048   70.6944  -10.5704 O   0  0  0  0  0  0  0  0  0  0  0  0
   17.8213   70.7553   -6.8273 N   0  0  0  0  0  0  0  0  0  0  0  0
   17.5769   70.4568   -9.1720 N   0  0  0  0  0  0  0  0  0  0  0  0
   16.9626   70.4611   -7.9127 C   0  0  0  0  0  0  0  0  0  0  0  0
   19.1674   71.0158   -7.0534 C   0  0  0  0  0  0  0  0  0  0  0  0
   19.7385   71.0082   -8.2595 C   0  0  0  0  0  0  0  0  0  0  0  0
   18.9113   70.7090   -9.4468 C   0  0  0  0  0  0  0  0  0  0  0  0
   16.9997   70.2526   -9.9429 H   0  0  0  0  0  0  0  0  0  0  0  0
   22.0089   72.3121   -1.1045 O   0  0  0  0  0  0  0  0  0  0  0  0
   22.6740   73.6924   -0.5887 P   0  0  2  0  0  0  0  0  0  0  0  0
   24.1173   73.2205   -0.0277 O   0  0  0  0  0  0  0  0  0  0  0  0
   21.8390   74.4439    0.4072 O   0  0  0  0  0  0  0  0  0  0  0  0
   23.0096   74.5135   -1.9362 O   0  0  0  0  0  0  0  0  0  0  0  0
   23.5202   73.3946   -3.9602 O   0  0  0  0  0  0  0  0  0  0  0  0
   25.0633   77.1608   -4.6692 O   0  0  0  0  0  0  0  0  0  0  0  0
   25.4315   75.8743   -2.0723 O   0  0  0  0  0  0  0  0  0  0  0  0
   22.5606   76.3524   -5.9077 O   0  0  0  0  0  0  0  0  0  0  0  0
   24.1599   76.2064   -4.1116 C   0  0  2  0  0  0  0  0  0  0  0  0
   24.9331   75.2216   -3.2342 C   0  0  2  0  0  0  0  0  0  0  0  0
   23.4787   75.4690   -5.2666 C   0  0  1  0  0  0  0  0  0  0  0  0
   24.0425   74.0543   -2.8063 C   0  0  1  0  0  0  0  0  0  0  0  0
   22.7134   74.2450   -4.7719 C   0  0  1  0  0  0  0  0  0  0  0  0
   25.5081   77.6418   -3.9536 H   0  0  0  0  0  0  0  0  0  0  0  0
   25.9973   76.6163   -2.3364 H   0  0  0  0  0  0  0  0  0  0  0  0
   23.0351   77.1358   -6.2271 H   0  0  0  0  0  0  0  0  0  0  0  0
   21.1840   73.7855   -6.4899 O   0  0  0  0  0  0  0  0  0  0  0  0
   22.9705   72.3836   -6.2852 O   0  0  0  0  0  0  0  0  0  0  0  0
   22.3350   73.3588   -5.9137 C   0  0  0  0  0  0  0  0  0  0  0  0
  1  4  1  0
  1 24  1  0
  1  2  1  1
  1  3  2  0
 25 28  1  0
 25 24  1  0
 25 26  1  1
 25 27  2  0
  6 11  1  0
  6 12  1  0
 29 36  1  0
 29 37  1  0
  9  7  1  6
  7 13  1  0
 10  8  1  1
  8 14  1  0
  4  5  1  0
 36 28  1  1
 33 30  1  6
 30 38  1  0
 34 31  1  1
 31 39  1  0
 35 32  1  1
 32 40  1  0
 41 43  1  0
 15 19  2  0
 42 43  2  0
 16 22  2  0
 12 17  1  6
 17 19  1  0
 17 20  1  0
 18 19  1  0
 18 22  1  0
 18 23  1  0
  9 10  1  0
  9 11  1  0
 10 12  1  0
 11  5  1  6
 33 34  1  0
 33 35  1  0
 34 36  1  0
 35 37  1  0
 37 43  1  6
 20 21  2  0
 21 22  1  0
M  CHG  3   2  -1  26  -1  41  -1
M  END
>  <COMPND>  (148) 
    udp_gluA.pdb 

>  <AUTHOR>  (148) 
    GENERATED BY OPEN BABEL 3.1.1

>  <MASTER>  (148) 
        0    0    0    0    0    0    0    0   56    0   56    0

>  <minimizedAffinity>  (148) 
-6.79944

>  <CNNscore>  (148) 
0.8584436178

>  <CNNaffinity>  (148) 
4.7106213570

>  <CNN_VS>  (148) 
4.0438027382

>  <CNNaffinity_variance>  (148) 
0.1590303630

$$$$
149
     RDKit          3D

 43 45  0  0  0  0  0  0  0  0999 V2000
   20.7970   71.3247   -1.7615 P   0  0  2  0  0  0  0  0  0  0  0  0
   21.1598   70.3616   -3.0104 O   0  0  0  0  0  0  0  0  0  0  0  0
   20.4159   70.6087   -0.4990 O   0  0  0  0  0  0  0  0  0  0  0  0
   19.6834   72.3344   -2.3602 O   0  0  0  0  0  0  0  0  0  0  0  0
   19.3181   72.2074   -3.7222 C   0  0  0  0  0  0  0  0  0  0  0  0
   17.4155   72.1455   -5.1898 O   0  0  0  0  0  0  0  0  0  0  0  0
   16.0336   70.5918   -3.0293 O   0  0  0  0  0  0  0  0  0  0  0  0
   16.7691   68.6419   -4.7880 O   0  0  0  0  0  0  0  0  0  0  0  0
   17.4030   70.5580   -3.4318 C   0  0  1  0  0  0  0  0  0  0  0  0
   17.5446   69.8215   -4.7471 C   0  0  2  0  0  0  0  0  0  0  0  0
   17.8157   71.9731   -3.8130 C   0  0  1  0  0  0  0  0  0  0  0  0
   17.0742   70.8656   -5.7454 C   0  0  2  0  0  0  0  0  0  0  0  0
   15.7471   69.6986   -2.7809 H   0  0  0  0  0  0  0  0  0  0  0  0
   17.1083   68.0092   -4.1349 H   0  0  0  0  0  0  0  0  0  0  0  0
   15.6989   70.4243   -8.1724 O   0  0  0  0  0  0  0  0  0  0  0  0
   19.6208   70.3491  -10.5926 O   0  0  0  0  0  0  0  0  0  0  0  0
   17.7112   70.7269   -7.0244 N   0  0  0  0  0  0  0  0  0  0  0  0
   17.6536   70.3862   -9.3753 N   0  0  0  0  0  0  0  0  0  0  0  0
   16.9285   70.5074   -8.1826 C   0  0  0  0  0  0  0  0  0  0  0  0
   19.0948   70.8102   -7.1229 C   0  0  0  0  0  0  0  0  0  0  0  0
   19.7717   70.6928   -8.2669 C   0  0  0  0  0  0  0  0  0  0  0  0
   19.0291   70.4612   -9.5232 C   0  0  0  0  0  0  0  0  0  0  0  0
   17.1305   70.2309  -10.1949 H   0  0  0  0  0  0  0  0  0  0  0  0
   22.1072   72.2629   -1.6343 O   0  0  0  0  0  0  0  0  0  0  0  0
   22.2836   73.7695   -1.0751 P   0  0  2  0  0  0  0  0  0  0  0  0
   20.7717   74.2000   -0.6888 O   0  0  0  0  0  0  0  0  0  0  0  0
   22.9680   74.7045   -2.0297 O   0  0  0  0  0  0  0  0  0  0  0  0
   23.0321   73.5947    0.3432 O   0  0  0  0  0  0  0  0  0  0  0  0
   24.4538   71.9863    1.3438 O   0  0  0  0  0  0  0  0  0  0  0  0
   21.8780   72.8787    4.4481 O   0  0  0  0  0  0  0  0  0  0  0  0
   20.8614   72.5452    1.7297 O   0  0  0  0  0  0  0  0  0  0  0  0
   24.5836   73.9421    4.4454 O   0  0  0  0  0  0  0  0  0  0  0  0
   22.6388   73.1424    3.2693 C   0  0  2  0  0  0  0  0  0  0  0  0
   22.1807   72.2121    2.1458 C   0  0  2  0  0  0  0  0  0  0  0  0
   24.1142   72.8983    3.5942 C   0  0  1  0  0  0  0  0  0  0  0  0
   23.1203   72.3033    0.9427 C   0  0  1  0  0  0  0  0  0  0  0  0
   24.9674   72.8796    2.3292 C   0  0  1  0  0  0  0  0  0  0  0  0
   20.9367   73.0272    4.2657 H   0  0  0  0  0  0  0  0  0  0  0  0
   20.2598   72.4896    2.4883 H   0  0  0  0  0  0  0  0  0  0  0  0
   24.0487   73.9648    5.2543 H   0  0  0  0  0  0  0  0  0  0  0  0
   26.4571   71.0866    2.0699 O   0  0  0  0  0  0  0  0  0  0  0  0
   27.2001   72.8946    3.2438 O   0  0  0  0  0  0  0  0  0  0  0  0
   26.3243   72.3221    2.6128 C   0  0  0  0  0  0  0  0  0  0  0  0
  1  4  1  0
  1 24  1  0
  1  2  1  6
  1  3  2  0
 25 28  1  0
 25 24  1  0
 25 26  1  1
 25 27  2  0
  6 11  1  0
  6 12  1  0
 29 36  1  0
 29 37  1  0
  9  7  1  6
  7 13  1  0
 10  8  1  1
  8 14  1  0
  4  5  1  0
 36 28  1  1
 33 30  1  1
 30 38  1  0
 34 31  1  6
 31 39  1  0
 35 32  1  1
 32 40  1  0
 41 43  1  0
 15 19  2  0
 42 43  2  0
 16 22  2  0
 12 17  1  6
 17 19  1  0
 17 20  1  0
 18 19  1  0
 18 22  1  0
 18 23  1  0
  9 10  1  0
  9 11  1  0
 10 12  1  0
 11  5  1  6
 33 34  1  0
 33 35  1  0
 34 36  1  0
 35 37  1  0
 37 43  1  1
 20 21  2  0
 21 22  1  0
M  CHG  3   2  -1  26  -1  41  -1
M  END
>  <COMPND>  (149) 
    udp_gluA.pdb 

>  <AUTHOR>  (149) 
    GENERATED BY OPEN BABEL 3.1.1

>  <MASTER>  (149) 
        0    0    0    0    0    0    0    0   56    0   56    0

>  <minimizedAffinity>  (149) 
-6.93999

>  <CNNscore>  (149) 
0.8583049178

>  <CNNaffinity>  (149) 
4.6334033012

>  <CNN_VS>  (149) 
3.9768729210

>  <CNNaffinity_variance>  (149) 
0.0694246888

$$$$
150
     RDKit          3D

 43 45  0  0  0  0  0  0  0  0999 V2000
   21.3412   72.7845   -4.5109 P   0  0  2  0  0  0  0  0  0  0  0  0
   21.5057   74.3939   -4.4675 O   0  0  0  0  0  0  0  0  0  0  0  0
   22.0100   72.1104   -5.6728 O   0  0  0  0  0  0  0  0  0  0  0  0
   19.7443   72.5539   -4.3889 O   0  0  0  0  0  0  0  0  0  0  0  0
   19.2700   71.5738   -3.4839 C   0  0  0  0  0  0  0  0  0  0  0  0
   17.3948   71.8366   -4.9645 O   0  0  0  0  0  0  0  0  0  0  0  0
   15.8618   70.1423   -3.0226 O   0  0  0  0  0  0  0  0  0  0  0  0
   16.4805   68.3701   -5.0006 O   0  0  0  0  0  0  0  0  0  0  0  0
   17.2318   70.0529   -3.4145 C   0  0  1  0  0  0  0  0  0  0  0  0
   17.3414   69.4730   -4.8088 C   0  0  2  0  0  0  0  0  0  0  0  0
   17.7561   71.4680   -3.6158 C   0  0  1  0  0  0  0  0  0  0  0  0
   16.9686   70.6636   -5.6756 C   0  0  2  0  0  0  0  0  0  0  0  0
   15.5047   69.2501   -2.8881 H   0  0  0  0  0  0  0  0  0  0  0  0
   16.7595   67.6385   -4.4271 H   0  0  0  0  0  0  0  0  0  0  0  0
   15.6089   70.5261   -8.1473 O   0  0  0  0  0  0  0  0  0  0  0  0
   19.5558   70.5518  -10.5276 O   0  0  0  0  0  0  0  0  0  0  0  0
   17.6162   70.6331   -6.9565 N   0  0  0  0  0  0  0  0  0  0  0  0
   17.5760   70.5380   -9.3304 N   0  0  0  0  0  0  0  0  0  0  0  0
   16.8408   70.5634   -8.1380 C   0  0  0  0  0  0  0  0  0  0  0  0
   19.0030   70.6737   -7.0336 C   0  0  0  0  0  0  0  0  0  0  0  0
   19.6897   70.6489   -8.1775 C   0  0  0  0  0  0  0  0  0  0  0  0
   18.9551   70.5757   -9.4576 C   0  0  0  0  0  0  0  0  0  0  0  0
   17.0580   70.4876  -10.1662 H   0  0  0  0  0  0  0  0  0  0  0  0
   21.8866   72.3247   -3.0605 O   0  0  0  0  0  0  0  0  0  0  0  0
   23.3904   72.2212   -2.4759 P   0  0  2  0  0  0  0  0  0  0  0  0
   24.0511   73.6362   -2.9021 O   0  0  0  0  0  0  0  0  0  0  0  0
   24.1524   71.0163   -2.9465 O   0  0  0  0  0  0  0  0  0  0  0  0
   23.2150   72.3194   -0.8753 O   0  0  0  0  0  0  0  0  0  0  0  0
   24.5716   71.2159    0.7219 O   0  0  0  0  0  0  0  0  0  0  0  0
   21.0528   71.7359    2.8233 O   0  0  0  0  0  0  0  0  0  0  0  0
   20.9965   70.9030    0.0238 O   0  0  0  0  0  0  0  0  0  0  0  0
   23.3486   73.4302    3.3796 O   0  0  0  0  0  0  0  0  0  0  0  0
   22.0610   72.0657    1.8680 C   0  0  2  0  0  0  0  0  0  0  0  0
   22.1679   70.9480    0.8303 C   0  0  2  0  0  0  0  0  0  0  0  0
   23.3866   72.2263    2.6156 C   0  0  1  0  0  0  0  0  0  0  0  0
   23.3858   71.1534   -0.0716 C   0  0  1  0  0  0  0  0  0  0  0  0
   24.5658   72.2985    1.6498 C   0  0  1  0  0  0  0  0  0  0  0  0
   20.2012   71.6288    2.3711 H   0  0  0  0  0  0  0  0  0  0  0  0
   20.2197   70.7732    0.5896 H   0  0  0  0  0  0  0  0  0  0  0  0
   22.6023   73.3972    3.9983 H   0  0  0  0  0  0  0  0  0  0  0  0
   26.3252   70.8591    2.2277 O   0  0  0  0  0  0  0  0  0  0  0  0
   26.4261   72.9951    3.0192 O   0  0  0  0  0  0  0  0  0  0  0  0
   25.8589   72.1237    2.3774 C   0  0  0  0  0  0  0  0  0  0  0  0
  1  4  1  0
  1 24  1  0
  1  2  1  6
  1  3  2  0
 25 28  1  0
 25 24  1  0
 25 26  1  6
 25 27  2  0
  6 11  1  0
  6 12  1  0
 29 36  1  0
 29 37  1  0
  9  7  1  6
  7 13  1  0
 10  8  1  1
  8 14  1  0
  4  5  1  0
 36 28  1  1
 33 30  1  1
 30 38  1  0
 34 31  1  6
 31 39  1  0
 35 32  1  6
 32 40  1  0
 41 43  1  0
 15 19  2  0
 42 43  2  0
 16 22  2  0
 12 17  1  6
 17 19  1  0
 17 20  1  0
 18 19  1  0
 18 22  1  0
 18 23  1  0
  9 10  1  0
  9 11  1  0
 10 12  1  0
 11  5  1  6
 33 34  1  0
 33 35  1  0
 34 36  1  0
 35 37  1  0
 37 43  1  1
 20 21  2  0
 21 22  1  0
M  CHG  3   2  -1  26  -1  41  -1
M  END
>  <COMPND>  (150) 
    udp_gluA.pdb 

>  <AUTHOR>  (150) 
    GENERATED BY OPEN BABEL 3.1.1

>  <MASTER>  (150) 
        0    0    0    0    0    0    0    0   56    0   56    0

>  <minimizedAffinity>  (150) 
-7.96543

>  <CNNscore>  (150) 
0.8510356545

>  <CNNaffinity>  (150) 
4.8060321808

>  <CNN_VS>  (150) 
4.0901045799

>  <CNNaffinity_variance>  (150) 
0.0351414308

$$$$
151
     RDKit          3D

 43 45  0  0  0  0  0  0  0  0999 V2000
   22.8635   72.7108   -4.1533 P   0  0  2  0  0  0  0  0  0  0  0  0
   23.1874   73.8091   -5.2968 O   0  0  0  0  0  0  0  0  0  0  0  0
   24.0260   71.8497   -3.7545 O   0  0  0  0  0  0  0  0  0  0  0  0
   21.5702   71.9244   -4.7251 O   0  0  0  0  0  0  0  0  0  0  0  0
   20.9505   70.9537   -3.9016 C   0  0  0  0  0  0  0  0  0  0  0  0
   18.9724   71.9093   -4.8770 O   0  0  0  0  0  0  0  0  0  0  0  0
   17.4811   70.7152   -2.5658 O   0  0  0  0  0  0  0  0  0  0  0  0
   16.9654   68.9531   -4.5820 O   0  0  0  0  0  0  0  0  0  0  0  0
   18.6017   70.1970   -3.2829 C   0  0  1  0  0  0  0  0  0  0  0  0
   18.1664   69.6937   -4.6428 C   0  0  2  0  0  0  0  0  0  0  0  0
   19.5058   71.3657   -3.6501 C   0  0  1  0  0  0  0  0  0  0  0  0
   18.0167   70.9875   -5.4248 C   0  0  2  0  0  0  0  0  0  0  0  0
   16.8889   69.9868   -2.3203 H   0  0  0  0  0  0  0  0  0  0  0  0
   17.1129   68.1392   -4.0743 H   0  0  0  0  0  0  0  0  0  0  0  0
   16.1131   70.1017   -7.3138 O   0  0  0  0  0  0  0  0  0  0  0  0
   19.1508   70.3646  -10.7702 O   0  0  0  0  0  0  0  0  0  0  0  0
   18.2833   70.8156   -6.8249 N   0  0  0  0  0  0  0  0  0  0  0  0
   17.6281   70.2325   -9.0333 N   0  0  0  0  0  0  0  0  0  0  0  0
   17.2571   70.3653   -7.6888 C   0  0  0  0  0  0  0  0  0  0  0  0
   19.5480   71.0933   -7.3293 C   0  0  0  0  0  0  0  0  0  0  0  0
   19.8866   70.9620   -8.6134 C   0  0  0  0  0  0  0  0  0  0  0  0
   18.8728   70.4957   -9.5820 C   0  0  0  0  0  0  0  0  0  0  0  0
   16.9310   69.9184   -9.6536 H   0  0  0  0  0  0  0  0  0  0  0  0
   22.2457   73.6044   -2.9564 O   0  0  0  0  0  0  0  0  0  0  0  0
   22.9623   74.5561   -1.8635 P   0  0  2  0  0  0  0  0  0  0  0  0
   22.1493   75.9495   -1.9967 O   0  0  0  0  0  0  0  0  0  0  0  0
   24.4474   74.6872   -2.0406 O   0  0  0  0  0  0  0  0  0  0  0  0
   22.5087   73.9547   -0.4370 O   0  0  0  0  0  0  0  0  0  0  0  0
   23.5162   73.6434    1.6837 O   0  0  0  0  0  0  0  0  0  0  0  0
   21.4870   70.0794    1.1856 O   0  0  0  0  0  0  0  0  0  0  0  0
   22.9473   71.2760   -1.0437 O   0  0  0  0  0  0  0  0  0  0  0  0
   20.4462   72.1120    2.9845 O   0  0  0  0  0  0  0  0  0  0  0  0
   21.7157   71.4806    1.0365 C   0  0  2  0  0  0  0  0  0  0  0  0
   23.0408   71.7083    0.3088 C   0  0  2  0  0  0  0  0  0  0  0  0
   21.7618   72.1035    2.4336 C   0  0  1  0  0  0  0  0  0  0  0  0
   23.4315   73.1866    0.3332 C   0  0  1  0  0  0  0  0  0  0  0  0
   22.2804   73.5379    2.3871 C   0  0  1  0  0  0  0  0  0  0  0  0
   21.4538   69.6620    0.3104 H   0  0  0  0  0  0  0  0  0  0  0  0
   22.6995   70.3388   -1.0667 H   0  0  0  0  0  0  0  0  0  0  0  0
   20.1044   71.2049    3.0195 H   0  0  0  0  0  0  0  0  0  0  0  0
   22.3995   73.0524    4.6787 O   0  0  0  0  0  0  0  0  0  0  0  0
   23.0711   75.1292    4.0192 O   0  0  0  0  0  0  0  0  0  0  0  0
   22.6319   74.0195    3.7570 C   0  0  0  0  0  0  0  0  0  0  0  0
  1  4  1  0
  1 24  1  0
  1  2  1  6
  1  3  2  0
 25 28  1  0
 25 24  1  0
 25 26  1  6
 25 27  2  0
  6 11  1  0
  6 12  1  0
 29 36  1  0
 29 37  1  0
  9  7  1  1
  7 13  1  0
 10  8  1  1
  8 14  1  0
  4  5  1  0
 36 28  1  6
 33 30  1  1
 30 38  1  0
 34 31  1  6
 31 39  1  0
 35 32  1  6
 32 40  1  0
 41 43  1  0
 15 19  2  0
 42 43  2  0
 16 22  2  0
 12 17  1  6
 17 19  1  0
 17 20  1  0
 18 19  1  0
 18 22  1  0
 18 23  1  0
  9 10  1  0
  9 11  1  0
 10 12  1  0
 11  5  1  6
 33 34  1  0
 33 35  1  0
 34 36  1  0
 35 37  1  0
 37 43  1  1
 20 21  2  0
 21 22  1  0
M  CHG  3   2  -1  26  -1  41  -1
M  END
>  <COMPND>  (151) 
    udp_gluA.pdb 

>  <AUTHOR>  (151) 
    GENERATED BY OPEN BABEL 3.1.1

>  <MASTER>  (151) 
        0    0    0    0    0    0    0    0   56    0   56    0

>  <minimizedAffinity>  (151) 
-7.72170

>  <CNNscore>  (151) 
0.8440392613

>  <CNNaffinity>  (151) 
4.6591286659

>  <CNN_VS>  (151) 
3.9324874878

>  <CNNaffinity_variance>  (151) 
0.0249596890

$$$$
152
     RDKit          3D

 43 45  0  0  0  0  0  0  0  0999 V2000
   22.9599   72.8901   -4.3178 P   0  0  2  0  0  0  0  0  0  0  0  0
   22.4175   72.7408   -5.8351 O   0  0  0  0  0  0  0  0  0  0  0  0
   24.2735   72.2177   -4.0455 O   0  0  0  0  0  0  0  0  0  0  0  0
   21.7156   72.3947   -3.4099 O   0  0  0  0  0  0  0  0  0  0  0  0
   20.9772   71.2636   -3.8341 C   0  0  0  0  0  0  0  0  0  0  0  0
   18.8871   71.9763   -4.7833 O   0  0  0  0  0  0  0  0  0  0  0  0
   17.5792   70.6312   -2.4441 O   0  0  0  0  0  0  0  0  0  0  0  0
   17.2428   68.8084   -4.4442 O   0  0  0  0  0  0  0  0  0  0  0  0
   18.7419   70.2424   -3.1760 C   0  0  1  0  0  0  0  0  0  0  0  0
   18.3483   69.6834   -4.5268 C   0  0  2  0  0  0  0  0  0  0  0  0
   19.4982   71.5062   -3.5623 C   0  0  1  0  0  0  0  0  0  0  0  0
   18.0373   70.9460   -5.3122 C   0  0  2  0  0  0  0  0  0  0  0  0
   17.0796   69.8402   -2.1863 H   0  0  0  0  0  0  0  0  0  0  0  0
   17.4915   68.0204   -3.9352 H   0  0  0  0  0  0  0  0  0  0  0  0
   16.1820   69.9344   -7.1860 O   0  0  0  0  0  0  0  0  0  0  0  0
   19.1595   70.4208  -10.6706 O   0  0  0  0  0  0  0  0  0  0  0  0
   18.3015   70.7976   -6.7155 N   0  0  0  0  0  0  0  0  0  0  0  0
   17.6671   70.1766   -8.9196 N   0  0  0  0  0  0  0  0  0  0  0  0
   17.3010   70.2789   -7.5711 C   0  0  0  0  0  0  0  0  0  0  0  0
   19.5385   71.1650   -7.2310 C   0  0  0  0  0  0  0  0  0  0  0  0
   19.8727   71.0618   -8.5188 C   0  0  0  0  0  0  0  0  0  0  0  0
   18.8847   70.5284   -9.4793 C   0  0  0  0  0  0  0  0  0  0  0  0
   16.9877   69.8163   -9.5343 H   0  0  0  0  0  0  0  0  0  0  0  0
   22.9623   74.4902   -4.0890 O   0  0  0  0  0  0  0  0  0  0  0  0
   23.9505   75.6409   -4.6483 P   0  0  2  0  0  0  0  0  0  0  0  0
   25.4182   75.1067   -4.2232 O   0  0  0  0  0  0  0  0  0  0  0  0
   23.6285   77.0221   -4.1557 O   0  0  0  0  0  0  0  0  0  0  0  0
   23.9056   75.4749   -6.2524 O   0  0  0  0  0  0  0  0  0  0  0  0
   25.0460   77.3484   -7.1458 O   0  0  0  0  0  0  0  0  0  0  0  0
   24.0905   75.2367  -10.5656 O   0  0  0  0  0  0  0  0  0  0  0  0
   22.1444   75.5149   -8.4047 O   0  0  0  0  0  0  0  0  0  0  0  0
   26.8120   75.2058   -9.5442 O   0  0  0  0  0  0  0  0  0  0  0  0
   24.4369   75.4028   -9.1907 C   0  0  2  0  0  0  0  0  0  0  0  0
   23.3659   76.2396   -8.4906 C   0  0  2  0  0  0  0  0  0  0  0  0
   25.7920   76.1111   -9.1266 C   0  0  1  0  0  0  0  0  0  0  0  0
   23.8124   76.6318   -7.0815 C   0  0  1  0  0  0  0  0  0  0  0  0
   26.1079   76.5822   -7.7100 C   0  0  1  0  0  0  0  0  0  0  0  0
   23.2325   74.7885  -10.6312 H   0  0  0  0  0  0  0  0  0  0  0  0
   21.8553   75.2626   -9.2953 H   0  0  0  0  0  0  0  0  0  0  0  0
   26.6228   74.8982  -10.4444 H   0  0  0  0  0  0  0  0  0  0  0  0
   26.9606   78.6296   -8.4730 O   0  0  0  0  0  0  0  0  0  0  0  0
   28.3043   77.3844   -7.1154 O   0  0  0  0  0  0  0  0  0  0  0  0
   27.2509   77.5444   -7.7135 C   0  0  0  0  0  0  0  0  0  0  0  0
  1  4  1  0
  1 24  1  0
  1  2  1  6
  1  3  2  0
 25 28  1  0
 25 24  1  0
 25 26  1  1
 25 27  2  0
  6 11  1  0
  6 12  1  0
 29 36  1  0
 29 37  1  0
  9  7  1  1
  7 13  1  0
 10  8  1  1
  8 14  1  0
  4  5  1  0
 36 28  1  1
 33 30  1  6
 30 38  1  0
 34 31  1  1
 31 39  1  0
 35 32  1  1
 32 40  1  0
 41 43  1  0
 15 19  2  0
 42 43  2  0
 16 22  2  0
 12 17  1  6
 17 19  1  0
 17 20  1  0
 18 19  1  0
 18 22  1  0
 18 23  1  0
  9 10  1  0
  9 11  1  0
 10 12  1  0
 11  5  1  6
 33 34  1  0
 33 35  1  0
 34 36  1  0
 35 37  1  0
 37 43  1  6
 20 21  2  0
 21 22  1  0
M  CHG  3   2  -1  26  -1  41  -1
M  END
>  <COMPND>  (152) 
    udp_gluA.pdb 

>  <AUTHOR>  (152) 
    GENERATED BY OPEN BABEL 3.1.1

>  <MASTER>  (152) 
        0    0    0    0    0    0    0    0   56    0   56    0

>  <minimizedAffinity>  (152) 
-7.02541

>  <CNNscore>  (152) 
0.7870179415

>  <CNNaffinity>  (152) 
4.6626992226

>  <CNN_VS>  (152) 
3.6696279049

>  <CNNaffinity_variance>  (152) 
0.1825021803

$$$$
153
     RDKit          3D

 43 45  0  0  0  0  0  0  0  0999 V2000
   21.8727   72.6273   -5.5585 P   0  0  2  0  0  0  0  0  0  0  0  0
   21.1388   74.0582   -5.3772 O   0  0  0  0  0  0  0  0  0  0  0  0
   23.1587   72.6682   -6.3307 O   0  0  0  0  0  0  0  0  0  0  0  0
   20.7173   71.6726   -6.1680 O   0  0  0  0  0  0  0  0  0  0  0  0
   20.1341   72.0248   -7.4090 C   0  0  0  0  0  0  0  0  0  0  0  0
   18.9044   70.0116   -6.9481 O   0  0  0  0  0  0  0  0  0  0  0  0
   18.1643   70.0197   -9.8539 O   0  0  0  0  0  0  0  0  0  0  0  0
   15.9211   71.0150   -8.6650 O   0  0  0  0  0  0  0  0  0  0  0  0
   18.3322   71.1212   -8.9611 C   0  0  1  0  0  0  0  0  0  0  0  0
   17.1573   71.2088   -8.0102 C   0  0  2  0  0  0  0  0  0  0  0  0
   19.4812   70.7908   -8.0184 C   0  0  1  0  0  0  0  0  0  0  0  0
   17.4725   70.1035   -7.0168 C   0  0  2  0  0  0  0  0  0  0  0  0
   17.4353   70.2076  -10.4663 H   0  0  0  0  0  0  0  0  0  0  0  0
   15.7664   71.7445   -9.2861 H   0  0  0  0  0  0  0  0  0  0  0  0
   16.3813   68.1583   -5.2841 O   0  0  0  0  0  0  0  0  0  0  0  0
   15.5330   71.2879   -2.0085 O   0  0  0  0  0  0  0  0  0  0  0  0
   16.9592   70.3825   -5.7055 N   0  0  0  0  0  0  0  0  0  0  0  0
   15.9589   69.7191   -3.6547 N   0  0  0  0  0  0  0  0  0  0  0  0
   16.4326   69.3333   -4.9156 C   0  0  0  0  0  0  0  0  0  0  0  0
   16.9820   71.6820   -5.2137 C   0  0  0  0  0  0  0  0  0  0  0  0
   16.5270   72.0343   -4.0097 C   0  0  0  0  0  0  0  0  0  0  0  0
   15.9597   70.9981   -3.1221 C   0  0  0  0  0  0  0  0  0  0  0  0
   15.5857   69.0062   -3.0874 H   0  0  0  0  0  0  0  0  0  0  0  0
   22.0168   72.0981   -4.0380 O   0  0  0  0  0  0  0  0  0  0  0  0
   23.2459   72.1952   -2.9923 P   0  0  2  0  0  0  0  0  0  0  0  0
   23.7959   73.7024   -3.2069 O   0  0  0  0  0  0  0  0  0  0  0  0
   24.2866   71.1268   -3.1643 O   0  0  0  0  0  0  0  0  0  0  0  0
   22.5460   72.2203   -1.5391 O   0  0  0  0  0  0  0  0  0  0  0  0
   23.8739   71.0973    0.0686 O   0  0  0  0  0  0  0  0  0  0  0  0
   20.4870   71.9975    2.2565 O   0  0  0  0  0  0  0  0  0  0  0  0
   20.2615   71.0295   -0.4906 O   0  0  0  0  0  0  0  0  0  0  0  0
   22.9248   73.5334    2.6428 O   0  0  0  0  0  0  0  0  0  0  0  0
   21.4806   72.1982    1.2512 C   0  0  2  0  0  0  0  0  0  0  0  0
   21.4626   71.0240    0.2723 C   0  0  2  0  0  0  0  0  0  0  0  0
   22.8419   72.2928    1.9440 C   0  0  1  0  0  0  0  0  0  0  0  0
   22.6577   71.0871   -0.6799 C   0  0  1  0  0  0  0  0  0  0  0  0
   23.9857   72.2231    0.9365 C   0  0  1  0  0  0  0  0  0  0  0  0
   19.6132   71.9344    1.8396 H   0  0  0  0  0  0  0  0  0  0  0  0
   19.4990   70.9899    0.1072 H   0  0  0  0  0  0  0  0  0  0  0  0
   22.2020   73.5905    3.2872 H   0  0  0  0  0  0  0  0  0  0  0  0
   25.7201   73.1167    2.2384 O   0  0  0  0  0  0  0  0  0  0  0  0
   25.8875   70.9204    1.6490 O   0  0  0  0  0  0  0  0  0  0  0  0
   25.2884   71.9851    1.6284 C   0  0  0  0  0  0  0  0  0  0  0  0
  1  4  1  0
  1 24  1  0
  1  2  1  1
  1  3  2  0
 25 28  1  0
 25 24  1  0
 25 26  1  6
 25 27  2  0
  6 11  1  0
  6 12  1  0
 29 36  1  0
 29 37  1  0
  9  7  1  6
  7 13  1  0
 10  8  1  6
  8 14  1  0
  4  5  1  0
 36 28  1  1
 33 30  1  1
 30 38  1  0
 34 31  1  6
 31 39  1  0
 35 32  1  6
 32 40  1  0
 41 43  1  0
 15 19  2  0
 42 43  2  0
 16 22  2  0
 12 17  1  1
 17 19  1  0
 17 20  1  0
 18 19  1  0
 18 22  1  0
 18 23  1  0
  9 10  1  0
  9 11  1  0
 10 12  1  0
 11  5  1  1
 33 34  1  0
 33 35  1  0
 34 36  1  0
 35 37  1  0
 37 43  1  1
 20 21  2  0
 21 22  1  0
M  CHG  3   2  -1  26  -1  41  -1
M  END
>  <COMPND>  (153) 
    udp_gluA.pdb 

>  <AUTHOR>  (153) 
    GENERATED BY OPEN BABEL 3.1.1

>  <MASTER>  (153) 
        0    0    0    0    0    0    0    0   56    0   56    0

>  <minimizedAffinity>  (153) 
-8.11004

>  <CNNscore>  (153) 
0.7682930231

>  <CNNaffinity>  (153) 
4.6203618050

>  <CNN_VS>  (153) 
3.5497918129

>  <CNNaffinity_variance>  (153) 
0.1127400398

$$$$
154
     RDKit          3D

 43 45  0  0  0  0  0  0  0  0999 V2000
   20.1967   73.8219   -4.6331 P   0  0  2  0  0  0  0  0  0  0  0  0
   19.6104   75.3040   -4.9134 O   0  0  0  0  0  0  0  0  0  0  0  0
   20.3035   72.9433   -5.8449 O   0  0  0  0  0  0  0  0  0  0  0  0
   19.2675   73.2567   -3.4352 O   0  0  0  0  0  0  0  0  0  0  0  0
   18.8594   71.9016   -3.4779 C   0  0  0  0  0  0  0  0  0  0  0  0
   17.0877   72.2424   -5.0661 O   0  0  0  0  0  0  0  0  0  0  0  0
   15.3886   70.5678   -3.2495 O   0  0  0  0  0  0  0  0  0  0  0  0
   16.0758   68.8061   -5.2143 O   0  0  0  0  0  0  0  0  0  0  0  0
   16.7770   70.4424   -3.5581 C   0  0  1  0  0  0  0  0  0  0  0  0
   16.9553   69.8795   -4.9522 C   0  0  2  0  0  0  0  0  0  0  0  0
   17.3541   71.8438   -3.7040 C   0  0  1  0  0  0  0  0  0  0  0  0
   16.6719   71.0932   -5.8209 C   0  0  2  0  0  0  0  0  0  0  0  0
   14.9978   69.6850   -3.1515 H   0  0  0  0  0  0  0  0  0  0  0  0
   16.2973   68.0583   -4.6366 H   0  0  0  0  0  0  0  0  0  0  0  0
   16.0972   72.7339   -8.0468 O   0  0  0  0  0  0  0  0  0  0  0  0
   19.5168   70.8850  -10.5232 O   0  0  0  0  0  0  0  0  0  0  0  0
   17.3962   71.0613   -7.0600 N   0  0  0  0  0  0  0  0  0  0  0  0
   17.8002   71.8107   -9.2784 N   0  0  0  0  0  0  0  0  0  0  0  0
   17.0265   71.9273   -8.1162 C   0  0  0  0  0  0  0  0  0  0  0  0
   18.4598   70.1813   -7.2192 C   0  0  0  0  0  0  0  0  0  0  0  0
   19.1880   70.0818   -8.3330 C   0  0  0  0  0  0  0  0  0  0  0  0
   18.8668   70.9506   -9.4842 C   0  0  0  0  0  0  0  0  0  0  0  0
   17.5605   72.4020  -10.0282 H   0  0  0  0  0  0  0  0  0  0  0  0
   21.6019   74.1215   -3.8927 O   0  0  0  0  0  0  0  0  0  0  0  0
   22.9934   73.2985   -3.8833 P   0  0  2  0  0  0  0  0  0  0  0  0
   23.9812   74.2321   -4.7624 O   0  0  0  0  0  0  0  0  0  0  0  0
   22.8764   71.8854   -4.3767 O   0  0  0  0  0  0  0  0  0  0  0  0
   23.5405   73.4367   -2.3720 O   0  0  0  0  0  0  0  0  0  0  0  0
   21.8089   72.8747   -0.8571 O   0  0  0  0  0  0  0  0  0  0  0  0
   24.8630   73.9375    1.7140 O   0  0  0  0  0  0  0  0  0  0  0  0
   24.3421   75.5058   -0.6950 O   0  0  0  0  0  0  0  0  0  0  0  0
   24.1958   71.1356    1.3201 O   0  0  0  0  0  0  0  0  0  0  0  0
   24.2915   73.4058    0.5188 C   0  0  2  0  0  0  0  0  0  0  0  0
   23.4812   74.4925   -0.1885 C   0  0  2  0  0  0  0  0  0  0  0  0
   23.3860   72.2350    0.9077 C   0  0  1  0  0  0  0  0  0  0  0  0
   22.6696   73.9051   -1.3439 C   0  0  1  0  0  0  0  0  0  0  0  0
   22.5179   71.7885   -0.2651 C   0  0  1  0  0  0  0  0  0  0  0  0
   25.4425   74.6831    1.4916 H   0  0  0  0  0  0  0  0  0  0  0  0
   24.8604   75.8828    0.0328 H   0  0  0  0  0  0  0  0  0  0  0  0
   24.7534   71.4066    2.0661 H   0  0  0  0  0  0  0  0  0  0  0  0
   20.5185   70.6806   -0.7908 O   0  0  0  0  0  0  0  0  0  0  0  0
   21.3436   70.3942    1.3154 O   0  0  0  0  0  0  0  0  0  0  0  0
   21.4218   70.8859    0.1996 C   0  0  0  0  0  0  0  0  0  0  0  0
  1  4  1  0
  1 24  1  0
  1  2  1  6
  1  3  2  0
 25 28  1  0
 25 24  1  0
 25 26  1  6
 25 27  2  0
  6 11  1  0
  6 12  1  0
 29 36  1  0
 29 37  1  0
  9  7  1  6
  7 13  1  0
 10  8  1  6
  8 14  1  0
  4  5  1  0
 36 28  1  6
 33 30  1  1
 30 38  1  0
 34 31  1  6
 31 39  1  0
 35 32  1  6
 32 40  1  0
 41 43  1  0
 15 19  2  0
 42 43  2  0
 16 22  2  0
 12 17  1  6
 17 19  1  0
 17 20  1  0
 18 19  1  0
 18 22  1  0
 18 23  1  0
  9 10  1  0
  9 11  1  0
 10 12  1  0
 11  5  1  6
 33 34  1  0
 33 35  1  0
 34 36  1  0
 35 37  1  0
 37 43  1  1
 20 21  2  0
 21 22  1  0
M  CHG  3   2  -1  26  -1  41  -1
M  END
>  <COMPND>  (154) 
    udp_gluA.pdb 

>  <AUTHOR>  (154) 
    GENERATED BY OPEN BABEL 3.1.1

>  <MASTER>  (154) 
        0    0    0    0    0    0    0    0   56    0   56    0

>  <minimizedAffinity>  (154) 
-6.79851

>  <CNNscore>  (154) 
0.7627688050

>  <CNNaffinity>  (154) 
4.5141191483

>  <CNN_VS>  (154) 
3.4432291985

>  <CNNaffinity_variance>  (154) 
0.1251473129

$$$$
155
     RDKit          3D

 43 45  0  0  0  0  0  0  0  0999 V2000
   23.6417   72.6007   -3.5151 P   0  0  2  0  0  0  0  0  0  0  0  0
   24.0220   71.1034   -3.0332 O   0  0  0  0  0  0  0  0  0  0  0  0
   24.7092   73.3036   -4.3013 O   0  0  0  0  0  0  0  0  0  0  0  0
   23.1700   73.3387   -2.1547 O   0  0  0  0  0  0  0  0  0  0  0  0
   22.3532   74.4905   -2.2585 C   0  0  0  0  0  0  0  0  0  0  0  0
   21.1333   72.9554   -0.8682 O   0  0  0  0  0  0  0  0  0  0  0  0
   19.3282   75.2620   -0.2257 O   0  0  0  0  0  0  0  0  0  0  0  0
   20.9334   75.1307    1.9747 O   0  0  0  0  0  0  0  0  0  0  0  0
   20.7389   75.2526   -0.4459 C   0  0  1  0  0  0  0  0  0  0  0  0
   21.4519   74.6569    0.7495 C   0  0  2  0  0  0  0  0  0  0  0  0
   21.0374   74.2322   -1.5359 C   0  0  1  0  0  0  0  0  0  0  0  0
   21.2140   73.1698    0.5499 C   0  0  2  0  0  0  0  0  0  0  0  0
   19.1130   75.9067    0.4669 H   0  0  0  0  0  0  0  0  0  0  0  0
   21.1103   76.0817    2.0545 H   0  0  0  0  0  0  0  0  0  0  0  0
   21.0901   70.3672    0.8764 O   0  0  0  0  0  0  0  0  0  0  0  0
   25.3584   70.1970    2.6074 O   0  0  0  0  0  0  0  0  0  0  0  0
   22.2785   72.3680    1.0835 N   0  0  0  0  0  0  0  0  0  0  0  0
   23.2157   70.2852    1.7392 N   0  0  0  0  0  0  0  0  0  0  0  0
   22.1145   70.9680    1.2059 C   0  0  0  0  0  0  0  0  0  0  0  0
   23.4685   72.9681    1.4771 C   0  0  0  0  0  0  0  0  0  0  0  0
   24.5093   72.3041    1.9835 C   0  0  0  0  0  0  0  0  0  0  0  0
   24.4194   70.8381    2.1454 C   0  0  0  0  0  0  0  0  0  0  0  0
   23.1244   69.3097    1.8360 H   0  0  0  0  0  0  0  0  0  0  0  0
   22.2518   72.3836   -4.3113 O   0  0  0  0  0  0  0  0  0  0  0  0
   21.6918   73.0544   -5.6715 P   0  0  2  0  0  0  0  0  0  0  0  0
   22.7184   72.5139   -6.8003 O   0  0  0  0  0  0  0  0  0  0  0  0
   21.5664   74.5494   -5.6146 O   0  0  0  0  0  0  0  0  0  0  0  0
   20.3102   72.2776   -5.9722 O   0  0  0  0  0  0  0  0  0  0  0  0
   19.6664   70.0957   -5.3135 O   0  0  0  0  0  0  0  0  0  0  0  0
   17.6131   70.5402   -8.8708 O   0  0  0  0  0  0  0  0  0  0  0  0
   20.3751   71.4610   -8.6302 O   0  0  0  0  0  0  0  0  0  0  0  0
   16.2029   70.7436   -6.3368 O   0  0  0  0  0  0  0  0  0  0  0  0
   18.2110   70.9721   -7.6485 C   0  0  2  0  0  0  0  0  0  0  0  0
   19.7060   70.6526   -7.6693 C   0  0  2  0  0  0  0  0  0  0  0  0
   17.5244   70.2316   -6.4987 C   0  0  1  0  0  0  0  0  0  0  0  0
   20.3349   70.8885   -6.2954 C   0  0  1  0  0  0  0  0  0  0  0  0
   18.2823   70.4143   -5.1870 C   0  0  1  0  0  0  0  0  0  0  0  0
   18.0336   70.9976   -9.6160 H   0  0  0  0  0  0  0  0  0  0  0  0
   19.9809   71.3165   -9.5044 H   0  0  0  0  0  0  0  0  0  0  0  0
   15.7098   70.6335   -7.1648 H   0  0  0  0  0  0  0  0  0  0  0  0
   16.6732   68.8215   -4.5743 O   0  0  0  0  0  0  0  0  0  0  0  0
   18.3576   69.2223   -3.0906 O   0  0  0  0  0  0  0  0  0  0  0  0
   17.8065   69.4399   -4.1592 C   0  0  0  0  0  0  0  0  0  0  0  0
  1  4  1  0
  1 24  1  0
  1  2  1  1
  1  3  2  0
 25 28  1  0
 25 24  1  0
 25 26  1  6
 25 27  2  0
  6 11  1  0
  6 12  1  0
 29 36  1  0
 29 37  1  0
  9  7  1  1
  7 13  1  0
 10  8  1  1
  8 14  1  0
  4  5  1  0
 36 28  1  1
 33 30  1  6
 30 38  1  0
 34 31  1  6
 31 39  1  0
 35 32  1  1
 32 40  1  0
 41 43  1  0
 15 19  2  0
 42 43  2  0
 16 22  2  0
 12 17  1  6
 17 19  1  0
 17 20  1  0
 18 19  1  0
 18 22  1  0
 18 23  1  0
  9 10  1  0
  9 11  1  0
 10 12  1  0
 11  5  1  1
 33 34  1  0
 33 35  1  0
 34 36  1  0
 35 37  1  0
 37 43  1  1
 20 21  2  0
 21 22  1  0
M  CHG  3   2  -1  26  -1  41  -1
M  END
>  <COMPND>  (155) 
    udp_gluA.pdb 

>  <AUTHOR>  (155) 
    GENERATED BY OPEN BABEL 3.1.1

>  <MASTER>  (155) 
        0    0    0    0    0    0    0    0   56    0   56    0

>  <minimizedAffinity>  (155) 
-7.71402

>  <CNNscore>  (155) 
0.7495484352

>  <CNNaffinity>  (155) 
4.5676860809

>  <CNN_VS>  (155) 
3.4237020016

>  <CNNaffinity_variance>  (155) 
0.1028133184

$$$$
156
     RDKit          3D

 43 45  0  0  0  0  0  0  0  0999 V2000
   23.5178   73.7457   -4.0289 P   0  0  2  0  0  0  0  0  0  0  0  0
   24.2750   72.3226   -4.1716 O   0  0  0  0  0  0  0  0  0  0  0  0
   24.2347   74.9096   -4.6478 O   0  0  0  0  0  0  0  0  0  0  0  0
   23.2163   73.8682   -2.4440 O   0  0  0  0  0  0  0  0  0  0  0  0
   21.8986   73.6272   -1.9858 C   0  0  0  0  0  0  0  0  0  0  0  0
   23.0245   71.7560   -0.9816 O   0  0  0  0  0  0  0  0  0  0  0  0
   20.3018   70.5566   -0.6073 O   0  0  0  0  0  0  0  0  0  0  0  0
   20.8689   71.5336    1.8746 O   0  0  0  0  0  0  0  0  0  0  0  0
   20.7072   71.9228   -0.5201 C   0  0  1  0  0  0  0  0  0  0  0  0
   21.4740   72.1611    0.7635 C   0  0  2  0  0  0  0  0  0  0  0  0
   21.7747   72.1646   -1.5785 C   0  0  1  0  0  0  0  0  0  0  0  0
   22.8356   71.5752    0.4309 C   0  0  2  0  0  0  0  0  0  0  0  0
   19.6199   70.3781    0.0596 H   0  0  0  0  0  0  0  0  0  0  0  0
   20.0053   71.9421    2.0460 H   0  0  0  0  0  0  0  0  0  0  0  0
   24.9335   70.2343    1.7640 O   0  0  0  0  0  0  0  0  0  0  0  0
   26.8710   74.2007    3.0898 O   0  0  0  0  0  0  0  0  0  0  0  0
   23.9014   72.2329    1.1325 N   0  0  0  0  0  0  0  0  0  0  0  0
   25.8959   72.2110    2.4239 N   0  0  0  0  0  0  0  0  0  0  0  0
   24.9062   71.4664    1.7689 C   0  0  0  0  0  0  0  0  0  0  0  0
   23.9453   73.6208    1.1838 C   0  0  0  0  0  0  0  0  0  0  0  0
   24.8951   74.3165    1.8120 C   0  0  0  0  0  0  0  0  0  0  0  0
   25.9816   73.5916    2.5030 C   0  0  0  0  0  0  0  0  0  0  0  0
   26.6051   71.6993    2.8761 H   0  0  0  0  0  0  0  0  0  0  0  0
   22.0580   73.4443   -4.6543 O   0  0  0  0  0  0  0  0  0  0  0  0
   21.5029   73.5783   -6.1668 P   0  0  2  0  0  0  0  0  0  0  0  0
   22.6311   72.8175   -7.0435 O   0  0  0  0  0  0  0  0  0  0  0  0
   21.2307   74.9897   -6.6000 O   0  0  0  0  0  0  0  0  0  0  0  0
   20.2195   72.6024   -6.2197 O   0  0  0  0  0  0  0  0  0  0  0  0
   19.8731   70.4231   -5.3595 O   0  0  0  0  0  0  0  0  0  0  0  0
   17.6479   70.3170   -8.8387 O   0  0  0  0  0  0  0  0  0  0  0  0
   20.2834   71.5769   -8.8043 O   0  0  0  0  0  0  0  0  0  0  0  0
   16.3202   70.5652   -6.2645 O   0  0  0  0  0  0  0  0  0  0  0  0
   18.2341   70.9190   -7.6846 C   0  0  2  0  0  0  0  0  0  0  0  0
   19.7552   70.7790   -7.7512 C   0  0  2  0  0  0  0  0  0  0  0  0
   17.6873   70.2022   -6.4480 C   0  0  1  0  0  0  0  0  0  0  0  0
   20.4019   71.2037   -6.4321 C   0  0  1  0  0  0  0  0  0  0  0  0
   18.4662   70.5843   -5.1927 C   0  0  1  0  0  0  0  0  0  0  0  0
   17.9808   70.7564   -9.6371 H   0  0  0  0  0  0  0  0  0  0  0  0
   19.8771   71.3130   -9.6444 H   0  0  0  0  0  0  0  0  0  0  0  0
   15.8134   70.3275   -7.0566 H   0  0  0  0  0  0  0  0  0  0  0  0
   17.2110   68.7498   -4.4440 O   0  0  0  0  0  0  0  0  0  0  0  0
   18.6698   69.6860   -2.9627 O   0  0  0  0  0  0  0  0  0  0  0  0
   18.1525   69.6509   -4.0691 C   0  0  0  0  0  0  0  0  0  0  0  0
  1  4  1  0
  1 24  1  0
  1  2  1  1
  1  3  2  0
 25 28  1  0
 25 24  1  0
 25 26  1  6
 25 27  2  0
  6 11  1  0
  6 12  1  0
 29 36  1  0
 29 37  1  0
  9  7  1  1
  7 13  1  0
 10  8  1  1
  8 14  1  0
  4  5  1  0
 36 28  1  1
 33 30  1  6
 30 38  1  0
 34 31  1  6
 31 39  1  0
 35 32  1  1
 32 40  1  0
 41 43  1  0
 15 19  2  0
 42 43  2  0
 16 22  2  0
 12 17  1  1
 17 19  1  0
 17 20  1  0
 18 19  1  0
 18 22  1  0
 18 23  1  0
  9 10  1  0
  9 11  1  0
 10 12  1  0
 11  5  1  1
 33 34  1  0
 33 35  1  0
 34 36  1  0
 35 37  1  0
 37 43  1  1
 20 21  2  0
 21 22  1  0
M  CHG  3   2  -1  26  -1  41  -1
M  END
>  <COMPND>  (156) 
    udp_gluA.pdb 

>  <AUTHOR>  (156) 
    GENERATED BY OPEN BABEL 3.1.1

>  <MASTER>  (156) 
        0    0    0    0    0    0    0    0   56    0   56    0

>  <minimizedAffinity>  (156) 
-7.59160

>  <CNNscore>  (156) 
0.7445721030

>  <CNNaffinity>  (156) 
4.4772119522

>  <CNN_VS>  (156) 
3.3336071968

>  <CNNaffinity_variance>  (156) 
0.1210030690

$$$$
157
     RDKit          3D

 43 45  0  0  0  0  0  0  0  0999 V2000
   21.9709   72.6441   -5.8322 P   0  0  2  0  0  0  0  0  0  0  0  0
   21.2394   74.0255   -5.4134 O   0  0  0  0  0  0  0  0  0  0  0  0
   23.1462   72.8029   -6.7514 O   0  0  0  0  0  0  0  0  0  0  0  0
   20.7651   71.7186   -6.3868 O   0  0  0  0  0  0  0  0  0  0  0  0
   20.2107   72.0187   -7.6545 C   0  0  0  0  0  0  0  0  0  0  0  0
   19.0663   69.9746   -7.1163 O   0  0  0  0  0  0  0  0  0  0  0  0
   18.1625   69.9457   -9.9753 O   0  0  0  0  0  0  0  0  0  0  0  0
   15.9633   70.8847   -8.6646 O   0  0  0  0  0  0  0  0  0  0  0  0
   18.3497   71.0564   -9.0979 C   0  0  1  0  0  0  0  0  0  0  0  0
   17.2288   71.1167   -8.0820 C   0  0  2  0  0  0  0  0  0  0  0  0
   19.5593   70.7635   -8.2207 C   0  0  1  0  0  0  0  0  0  0  0  0
   17.6308   70.0262   -7.1037 C   0  0  2  0  0  0  0  0  0  0  0  0
   17.3950   70.1097  -10.5459 H   0  0  0  0  0  0  0  0  0  0  0  0
   15.7531   71.6061   -9.2789 H   0  0  0  0  0  0  0  0  0  0  0  0
   16.2086   68.1934   -5.4929 O   0  0  0  0  0  0  0  0  0  0  0  0
   15.9711   71.1775   -1.9883 O   0  0  0  0  0  0  0  0  0  0  0  0
   17.1851   70.2982   -5.7664 N   0  0  0  0  0  0  0  0  0  0  0  0
   16.0908   69.6818   -3.7493 N   0  0  0  0  0  0  0  0  0  0  0  0
   16.4780   69.3087   -5.0431 C   0  0  0  0  0  0  0  0  0  0  0  0
   17.4503   71.5318   -5.1844 C   0  0  0  0  0  0  0  0  0  0  0  0
   17.0748   71.8727   -3.9501 C   0  0  0  0  0  0  0  0  0  0  0  0
   16.3308   70.8964   -3.1275 C   0  0  0  0  0  0  0  0  0  0  0  0
   15.5954   69.0101   -3.2270 H   0  0  0  0  0  0  0  0  0  0  0  0
   22.3188   71.9705   -4.4046 O   0  0  0  0  0  0  0  0  0  0  0  0
   23.5787   72.1765   -3.4126 P   0  0  2  0  0  0  0  0  0  0  0  0
   24.5212   73.2138   -4.2224 O   0  0  0  0  0  0  0  0  0  0  0  0
   24.2631   70.9013   -3.0134 O   0  0  0  0  0  0  0  0  0  0  0  0
   22.9926   73.0361   -2.1797 O   0  0  0  0  0  0  0  0  0  0  0  0
   21.1779   72.2662   -0.8669 O   0  0  0  0  0  0  0  0  0  0  0  0
   21.1113   76.3243   -0.0955 O   0  0  0  0  0  0  0  0  0  0  0  0
   21.5664   75.3398   -2.8081 O   0  0  0  0  0  0  0  0  0  0  0  0
   22.1568   74.4782    1.8919 O   0  0  0  0  0  0  0  0  0  0  0  0
   21.7114   75.0657   -0.4019 C   0  0  2  0  0  0  0  0  0  0  0  0
   21.1404   74.5329   -1.7163 C   0  0  2  0  0  0  0  0  0  0  0  0
   21.3984   74.1011    0.7442 C   0  0  1  0  0  0  0  0  0  0  0  0
   21.5841   73.0899   -1.9605 C   0  0  1  0  0  0  0  0  0  0  0  0
   21.7540   72.6637    0.3753 C   0  0  1  0  0  0  0  0  0  0  0  0
   21.2969   76.9537   -0.8101 H   0  0  0  0  0  0  0  0  0  0  0  0
   21.2884   76.2569   -2.6596 H   0  0  0  0  0  0  0  0  0  0  0  0
   21.9399   75.3913    2.1370 H   0  0  0  0  0  0  0  0  0  0  0  0
   21.0915   70.4568    0.8140 O   0  0  0  0  0  0  0  0  0  0  0  0
   20.7662   71.9893    2.4708 O   0  0  0  0  0  0  0  0  0  0  0  0
   21.1517   71.7021    1.3474 C   0  0  0  0  0  0  0  0  0  0  0  0
  1  4  1  0
  1 24  1  0
  1  2  1  1
  1  3  2  0
 25 28  1  0
 25 24  1  0
 25 26  1  6
 25 27  2  0
  6 11  1  0
  6 12  1  0
 29 36  1  0
 29 37  1  0
  9  7  1  6
  7 13  1  0
 10  8  1  6
  8 14  1  0
  4  5  1  0
 36 28  1  1
 33 30  1  1
 30 38  1  0
 34 31  1  6
 31 39  1  0
 35 32  1  1
 32 40  1  0
 41 43  1  0
 15 19  2  0
 42 43  2  0
 16 22  2  0
 12 17  1  1
 17 19  1  0
 17 20  1  0
 18 19  1  0
 18 22  1  0
 18 23  1  0
  9 10  1  0
  9 11  1  0
 10 12  1  0
 11  5  1  1
 33 34  1  0
 33 35  1  0
 34 36  1  0
 35 37  1  0
 37 43  1  1
 20 21  2  0
 21 22  1  0
M  CHG  3   2  -1  26  -1  41  -1
M  END
>  <COMPND>  (157) 
    udp_gluA.pdb 

>  <AUTHOR>  (157) 
    GENERATED BY OPEN BABEL 3.1.1

>  <MASTER>  (157) 
        0    0    0    0    0    0    0    0   56    0   56    0

>  <minimizedAffinity>  (157) 
-8.05046

>  <CNNscore>  (157) 
0.7257575393

>  <CNNaffinity>  (157) 
4.5360765457

>  <CNN_VS>  (157) 
3.2920918465

>  <CNNaffinity_variance>  (157) 
0.3808259070

$$$$
158
     RDKit          3D

 43 45  0  0  0  0  0  0  0  0999 V2000
   22.9532   73.5194   -4.7767 P   0  0  2  0  0  0  0  0  0  0  0  0
   24.0361   72.4107   -4.3108 O   0  0  0  0  0  0  0  0  0  0  0  0
   23.1560   74.0602   -6.1617 O   0  0  0  0  0  0  0  0  0  0  0  0
   22.9796   74.6131   -3.5846 O   0  0  0  0  0  0  0  0  0  0  0  0
   24.2144   75.2202   -3.2511 C   0  0  0  0  0  0  0  0  0  0  0  0
   22.8883   75.7236   -1.3106 O   0  0  0  0  0  0  0  0  0  0  0  0
   25.1083   77.5700   -0.5021 O   0  0  0  0  0  0  0  0  0  0  0  0
   25.5641   75.3748    1.0501 O   0  0  0  0  0  0  0  0  0  0  0  0
   25.1794   76.3063   -1.1627 C   0  0  1  0  0  0  0  0  0  0  0  0
   24.9014   75.1862   -0.1827 C   0  0  2  0  0  0  0  0  0  0  0  0
   23.9914   76.2036   -2.1094 C   0  0  1  0  0  0  0  0  0  0  0  0
   23.3895   75.2513   -0.0499 C   0  0  2  0  0  0  0  0  0  0  0  0
   25.8574   77.6587    0.1084 H   0  0  0  0  0  0  0  0  0  0  0  0
   26.5235   75.3242    0.9125 H   0  0  0  0  0  0  0  0  0  0  0  0
   23.1030   74.1670    2.5421 O   0  0  0  0  0  0  0  0  0  0  0  0
   21.1458   70.3238    0.9163 O   0  0  0  0  0  0  0  0  0  0  0  0
   22.8085   73.9694    0.2328 N   0  0  0  0  0  0  0  0  0  0  0  0
   22.1294   72.2535    1.7298 N   0  0  0  0  0  0  0  0  0  0  0  0
   22.7118   73.5178    1.5703 C   0  0  0  0  0  0  0  0  0  0  0  0
   22.3407   73.1753   -0.8071 C   0  0  0  0  0  0  0  0  0  0  0  0
   21.7878   71.9724   -0.6394 C   0  0  0  0  0  0  0  0  0  0  0  0
   21.6501   71.4266    0.7268 C   0  0  0  0  0  0  0  0  0  0  0  0
   22.0532   71.9169    2.6519 H   0  0  0  0  0  0  0  0  0  0  0  0
   21.5414   72.7664   -4.5479 O   0  0  0  0  0  0  0  0  0  0  0  0
   20.0290   73.2165   -4.8998 P   0  0  2  0  0  0  0  0  0  0  0  0
   20.1704   74.8056   -5.1739 O   0  0  0  0  0  0  0  0  0  0  0  0
   19.0192   72.8578   -3.8484 O   0  0  0  0  0  0  0  0  0  0  0  0
   19.7392   72.5771   -6.3523 O   0  0  0  0  0  0  0  0  0  0  0  0
   18.9909   70.3700   -5.9306 O   0  0  0  0  0  0  0  0  0  0  0  0
   18.6195   70.6132  -10.0380 O   0  0  0  0  0  0  0  0  0  0  0  0
   20.9671   71.7179   -8.6954 O   0  0  0  0  0  0  0  0  0  0  0  0
   16.2596   70.7697   -8.3477 O   0  0  0  0  0  0  0  0  0  0  0  0
   18.6195   71.1058   -8.6981 C   0  0  2  0  0  0  0  0  0  0  0  0
   19.9966   70.8850   -8.0717 C   0  0  2  0  0  0  0  0  0  0  0  0
   17.5495   70.3429   -7.9138 C   0  0  1  0  0  0  0  0  0  0  0  0
   19.9706   71.1869   -6.5727 C   0  0  1  0  0  0  0  0  0  0  0  0
   17.6693   70.5991   -6.4142 C   0  0  1  0  0  0  0  0  0  0  0  0
   19.2920   71.0835  -10.5556 H   0  0  0  0  0  0  0  0  0  0  0  0
   20.9888   71.5318   -9.6468 H   0  0  0  0  0  0  0  0  0  0  0  0
   16.1705   70.6123   -9.3006 H   0  0  0  0  0  0  0  0  0  0  0  0
   16.2728   68.7155   -6.4737 O   0  0  0  0  0  0  0  0  0  0  0  0
   16.7246   69.6111   -4.4261 O   0  0  0  0  0  0  0  0  0  0  0  0
   16.8537   69.6145   -5.6411 C   0  0  0  0  0  0  0  0  0  0  0  0
  1  4  1  0
  1 24  1  0
  1  2  1  1
  1  3  2  0
 25 28  1  0
 25 24  1  0
 25 26  1  6
 25 27  2  0
  6 11  1  0
  6 12  1  0
 29 36  1  0
 29 37  1  0
  9  7  1  1
  7 13  1  0
 10  8  1  1
  8 14  1  0
  4  5  1  0
 36 28  1  6
 33 30  1  6
 30 38  1  0
 34 31  1  6
 31 39  1  0
 35 32  1  6
 32 40  1  0
 41 43  1  0
 15 19  2  0
 42 43  2  0
 16 22  2  0
 12 17  1  6
 17 19  1  0
 17 20  1  0
 18 19  1  0
 18 22  1  0
 18 23  1  0
  9 10  1  0
  9 11  1  0
 10 12  1  0
 11  5  1  6
 33 34  1  0
 33 35  1  0
 34 36  1  0
 35 37  1  0
 37 43  1  1
 20 21  2  0
 21 22  1  0
M  CHG  3   2  -1  26  -1  41  -1
M  END
>  <COMPND>  (158) 
    udp_gluA.pdb 

>  <AUTHOR>  (158) 
    GENERATED BY OPEN BABEL 3.1.1

>  <MASTER>  (158) 
        0    0    0    0    0    0    0    0   56    0   56    0

>  <minimizedAffinity>  (158) 
-6.87935

>  <CNNscore>  (158) 
0.6581465006

>  <CNNaffinity>  (158) 
4.4127349854

>  <CNN_VS>  (158) 
2.9042260647

>  <CNNaffinity_variance>  (158) 
0.1707944870

$$$$
159
     RDKit          3D

 43 45  0  0  0  0  0  0  0  0999 V2000
   23.0864   73.1273   -4.3938 P   0  0  2  0  0  0  0  0  0  0  0  0
   22.6621   73.1120   -5.9554 O   0  0  0  0  0  0  0  0  0  0  0  0
   24.2763   72.2792   -4.0522 O   0  0  0  0  0  0  0  0  0  0  0  0
   21.7160   72.7615   -3.6152 O   0  0  0  0  0  0  0  0  0  0  0  0
   21.0347   71.5718   -3.9684 C   0  0  0  0  0  0  0  0  0  0  0  0
   18.8938   72.1378   -4.9031 O   0  0  0  0  0  0  0  0  0  0  0  0
   17.6992   70.8119   -2.4934 O   0  0  0  0  0  0  0  0  0  0  0  0
   17.4273   68.9019   -4.4207 O   0  0  0  0  0  0  0  0  0  0  0  0
   18.8686   70.4586   -3.2326 C   0  0  1  0  0  0  0  0  0  0  0  0
   18.4828   69.8305   -4.5551 C   0  0  2  0  0  0  0  0  0  0  0  0
   19.5495   71.7456   -3.6778 C   0  0  1  0  0  0  0  0  0  0  0  0
   18.0916   71.0454   -5.3790 C   0  0  2  0  0  0  0  0  0  0  0  0
   17.2470   70.0056   -2.1983 H   0  0  0  0  0  0  0  0  0  0  0  0
   17.7263   68.1473   -3.8887 H   0  0  0  0  0  0  0  0  0  0  0  0
   16.2324   69.9402   -7.1952 O   0  0  0  0  0  0  0  0  0  0  0  0
   19.1517   70.3809  -10.7346 O   0  0  0  0  0  0  0  0  0  0  0  0
   18.3397   70.8599   -6.7808 N   0  0  0  0  0  0  0  0  0  0  0  0
   17.6885   70.1598   -8.9561 N   0  0  0  0  0  0  0  0  0  0  0  0
   17.3386   70.2955   -7.6062 C   0  0  0  0  0  0  0  0  0  0  0  0
   19.5618   71.2364   -7.3246 C   0  0  0  0  0  0  0  0  0  0  0  0
   19.8807   71.1010   -8.6133 C   0  0  0  0  0  0  0  0  0  0  0  0
   18.8909   70.5190   -9.5433 C   0  0  0  0  0  0  0  0  0  0  0  0
   17.0084   69.7674   -9.5500 H   0  0  0  0  0  0  0  0  0  0  0  0
   23.2712   74.7029   -4.0834 O   0  0  0  0  0  0  0  0  0  0  0  0
   24.4105   75.7503   -4.5508 P   0  0  2  0  0  0  0  0  0  0  0  0
   25.7719   74.8787   -4.4648 O   0  0  0  0  0  0  0  0  0  0  0  0
   24.4401   77.0235   -3.7557 O   0  0  0  0  0  0  0  0  0  0  0  0
   24.1563   75.9535   -6.1309 O   0  0  0  0  0  0  0  0  0  0  0  0
   25.5297   75.7173   -8.0458 O   0  0  0  0  0  0  0  0  0  0  0  0
   23.2741   79.0349   -9.0329 O   0  0  0  0  0  0  0  0  0  0  0  0
   24.3434   78.7213   -6.3324 O   0  0  0  0  0  0  0  0  0  0  0  0
   22.6903   76.4593  -10.2480 O   0  0  0  0  0  0  0  0  0  0  0  0
   23.5376   77.7748   -8.4159 C   0  0  2  0  0  0  0  0  0  0  0  0
   24.7110   77.9153   -7.4460 C   0  0  2  0  0  0  0  0  0  0  0  0
   23.8764   76.7697   -9.5191 C   0  0  1  0  0  0  0  0  0  0  0  0
   25.1699   76.5468   -6.9404 C   0  0  1  0  0  0  0  0  0  0  0  0
   24.4452   75.4776   -8.9400 C   0  0  1  0  0  0  0  0  0  0  0  0
   23.0564   79.6898   -8.3510 H   0  0  0  0  0  0  0  0  0  0  0  0
   24.0509   79.5911   -6.6459 H   0  0  0  0  0  0  0  0  0  0  0  0
   22.3181   77.2733  -10.6217 H   0  0  0  0  0  0  0  0  0  0  0  0
   26.0618   75.3338  -10.6333 O   0  0  0  0  0  0  0  0  0  0  0  0
   24.7447   73.5036  -10.2946 O   0  0  0  0  0  0  0  0  0  0  0  0
   25.0716   74.6465  -10.0119 C   0  0  0  0  0  0  0  0  0  0  0  0
  1  4  1  0
  1 24  1  0
  1  2  1  6
  1  3  2  0
 25 28  1  0
 25 24  1  0
 25 26  1  6
 25 27  2  0
  6 11  1  0
  6 12  1  0
 29 36  1  0
 29 37  1  0
  9  7  1  1
  7 13  1  0
 10  8  1  1
  8 14  1  0
  4  5  1  0
 36 28  1  6
 33 30  1  6
 30 38  1  0
 34 31  1  1
 31 39  1  0
 35 32  1  1
 32 40  1  0
 41 43  1  0
 15 19  2  0
 42 43  2  0
 16 22  2  0
 12 17  1  6
 17 19  1  0
 17 20  1  0
 18 19  1  0
 18 22  1  0
 18 23  1  0
  9 10  1  0
  9 11  1  0
 10 12  1  0
 11  5  1  6
 33 34  1  0
 33 35  1  0
 34 36  1  0
 35 37  1  0
 37 43  1  6
 20 21  2  0
 21 22  1  0
M  CHG  3   2  -1  26  -1  41  -1
M  END
>  <COMPND>  (159) 
    udp_gluA.pdb 

>  <AUTHOR>  (159) 
    GENERATED BY OPEN BABEL 3.1.1

>  <MASTER>  (159) 
        0    0    0    0    0    0    0    0   56    0   56    0

>  <minimizedAffinity>  (159) 
-7.00510

>  <CNNscore>  (159) 
0.6409177184

>  <CNNaffinity>  (159) 
4.4837102890

>  <CNN_VS>  (159) 
2.8736894131

>  <CNNaffinity_variance>  (159) 
0.1398075819

$$$$
160
     RDKit          3D

 43 45  0  0  0  0  0  0  0  0999 V2000
   23.0555   71.7237   -2.5215 P   0  0  2  0  0  0  0  0  0  0  0  0
   23.3094   73.2744   -2.1344 O   0  0  0  0  0  0  0  0  0  0  0  0
   24.2384   71.0173   -3.1161 O   0  0  0  0  0  0  0  0  0  0  0  0
   21.7262   71.7659   -3.4429 O   0  0  0  0  0  0  0  0  0  0  0  0
   21.6666   72.7046   -4.5012 C   0  0  0  0  0  0  0  0  0  0  0  0
   20.8573   70.7467   -5.6368 O   0  0  0  0  0  0  0  0  0  0  0  0
   21.3893   72.2330   -8.1861 O   0  0  0  0  0  0  0  0  0  0  0  0
   18.6929   72.5089   -7.8872 O   0  0  0  0  0  0  0  0  0  0  0  0
   20.9184   72.7286   -6.9327 C   0  0  1  0  0  0  0  0  0  0  0  0
   19.4722   72.3329   -6.7226 C   0  0  2  0  0  0  0  0  0  0  0  0
   21.6240   71.9556   -5.8269 C   0  0  1  0  0  0  0  0  0  0  0  0
   19.5998   70.8738   -6.3193 C   0  0  2  0  0  0  0  0  0  0  0  0
   20.9525   72.7119   -8.9083 H   0  0  0  0  0  0  0  0  0  0  0  0
   18.6417   73.4539   -8.1022 H   0  0  0  0  0  0  0  0  0  0  0  0
   17.0906   69.9064   -7.1823 O   0  0  0  0  0  0  0  0  0  0  0  0
   15.6331   69.2935   -2.8529 O   0  0  0  0  0  0  0  0  0  0  0  0
   18.5462   70.4545   -5.4389 N   0  0  0  0  0  0  0  0  0  0  0  0
   16.3667   69.6030   -5.0252 N   0  0  0  0  0  0  0  0  0  0  0  0
   17.3238   69.9846   -5.9747 C   0  0  0  0  0  0  0  0  0  0  0  0
   18.7294   70.5092   -4.0626 C   0  0  0  0  0  0  0  0  0  0  0  0
   17.8079   70.1419   -3.1700 C   0  0  0  0  0  0  0  0  0  0  0  0
   16.5025   69.6400   -3.6469 C   0  0  0  0  0  0  0  0  0  0  0  0
   15.5068   69.2744   -5.3742 H   0  0  0  0  0  0  0  0  0  0  0  0
   22.5175   71.0874   -1.1364 O   0  0  0  0  0  0  0  0  0  0  0  0
   21.6140   71.7236    0.0437 P   0  0  2  0  0  0  0  0  0  0  0  0
   21.0213   70.4205    0.7992 O   0  0  0  0  0  0  0  0  0  0  0  0
   20.5692   72.6902   -0.4338 O   0  0  0  0  0  0  0  0  0  0  0  0
   22.6785   72.3477    1.0829 O   0  0  0  0  0  0  0  0  0  0  0  0
   24.4655   71.4767    2.3701 O   0  0  0  0  0  0  0  0  0  0  0  0
   22.7358   74.1315    5.0211 O   0  0  0  0  0  0  0  0  0  0  0  0
   21.0691   72.4094    3.3505 O   0  0  0  0  0  0  0  0  0  0  0  0
   25.2254   74.8164    3.6856 O   0  0  0  0  0  0  0  0  0  0  0  0
   23.1253   73.6367    3.7399 C   0  0  2  0  0  0  0  0  0  0  0  0
   22.4776   72.2729    3.4995 C   0  0  2  0  0  0  0  0  0  0  0  0
   24.6505   73.5117    3.7250 C   0  0  1  0  0  0  0  0  0  0  0  0
   23.0490   71.6093    2.2457 C   0  0  1  0  0  0  0  0  0  0  0  0
   25.1334   72.7289    2.5074 C   0  0  1  0  0  0  0  0  0  0  0  0
   21.7701   74.2192    5.0541 H   0  0  0  0  0  0  0  0  0  0  0  0
   20.6999   72.8300    4.1424 H   0  0  0  0  0  0  0  0  0  0  0  0
   24.9259   75.3252    4.4553 H   0  0  0  0  0  0  0  0  0  0  0  0
   26.7617   71.0657    2.2182 O   0  0  0  0  0  0  0  0  0  0  0  0
   27.4428   73.0402    3.1328 O   0  0  0  0  0  0  0  0  0  0  0  0
   26.5645   72.3302    2.6665 C   0  0  0  0  0  0  0  0  0  0  0  0
  1  4  1  0
  1 24  1  0
  1  2  1  1
  1  3  2  0
 25 28  1  0
 25 24  1  0
 25 26  1  1
 25 27  2  0
  6 11  1  0
  6 12  1  0
 29 36  1  0
 29 37  1  0
  9  7  1  6
  7 13  1  0
 10  8  1  6
  8 14  1  0
  4  5  1  0
 36 28  1  6
 33 30  1  1
 30 38  1  0
 34 31  1  6
 31 39  1  0
 35 32  1  6
 32 40  1  0
 41 43  1  0
 15 19  2  0
 42 43  2  0
 16 22  2  0
 12 17  1  1
 17 19  1  0
 17 20  1  0
 18 19  1  0
 18 22  1  0
 18 23  1  0
  9 10  1  0
  9 11  1  0
 10 12  1  0
 11  5  1  1
 33 34  1  0
 33 35  1  0
 34 36  1  0
 35 37  1  0
 37 43  1  1
 20 21  2  0
 21 22  1  0
M  CHG  3   2  -1  26  -1  41  -1
M  END
>  <COMPND>  (160) 
    udp_gluA.pdb 

>  <AUTHOR>  (160) 
    GENERATED BY OPEN BABEL 3.1.1

>  <MASTER>  (160) 
        0    0    0    0    0    0    0    0   56    0   56    0

>  <minimizedAffinity>  (160) 
-7.78164

>  <CNNscore>  (160) 
0.6075537801

>  <CNNaffinity>  (160) 
4.3012142181

>  <CNN_VS>  (160) 
2.6132190228

>  <CNNaffinity_variance>  (160) 
0.1746418327

$$$$
161
     RDKit          3D

 43 45  0  0  0  0  0  0  0  0999 V2000
   22.9842   71.6825   -2.7032 P   0  0  2  0  0  0  0  0  0  0  0  0
   23.1682   73.2518   -2.3535 O   0  0  0  0  0  0  0  0  0  0  0  0
   24.2293   70.9872   -3.1700 O   0  0  0  0  0  0  0  0  0  0  0  0
   21.7372   71.6577   -3.7338 O   0  0  0  0  0  0  0  0  0  0  0  0
   20.8816   70.5296   -3.7329 C   0  0  0  0  0  0  0  0  0  0  0  0
   18.9619   71.6290   -4.6731 O   0  0  0  0  0  0  0  0  0  0  0  0
   17.3861   70.3691   -2.4547 O   0  0  0  0  0  0  0  0  0  0  0  0
   16.8223   68.7537   -4.5780 O   0  0  0  0  0  0  0  0  0  0  0  0
   18.4930   69.8441   -3.1881 C   0  0  1  0  0  0  0  0  0  0  0  0
   18.0556   69.4418   -4.5806 C   0  0  2  0  0  0  0  0  0  0  0  0
   19.4530   70.9907   -3.4744 C   0  0  1  0  0  0  0  0  0  0  0  0
   17.9744   70.7849   -5.2860 C   0  0  2  0  0  0  0  0  0  0  0  0
   16.7588   69.6548   -2.2600 H   0  0  0  0  0  0  0  0  0  0  0  0
   16.9263   67.9055   -4.1180 H   0  0  0  0  0  0  0  0  0  0  0  0
   16.0750   70.0425   -7.2398 O   0  0  0  0  0  0  0  0  0  0  0  0
   19.1563   70.4302  -10.6455 O   0  0  0  0  0  0  0  0  0  0  0  0
   18.2534   70.6839   -6.6906 N   0  0  0  0  0  0  0  0  0  0  0  0
   17.6117   70.2353   -8.9341 N   0  0  0  0  0  0  0  0  0  0  0  0
   17.2282   70.3025   -7.5882 C   0  0  0  0  0  0  0  0  0  0  0  0
   19.5290   70.9624   -7.1661 C   0  0  0  0  0  0  0  0  0  0  0  0
   19.8794   70.8941   -8.4519 C   0  0  0  0  0  0  0  0  0  0  0  0
   18.8675   70.5023   -9.4549 C   0  0  0  0  0  0  0  0  0  0  0  0
   16.9155   69.9699   -9.5777 H   0  0  0  0  0  0  0  0  0  0  0  0
   22.3456   71.0807   -1.3456 O   0  0  0  0  0  0  0  0  0  0  0  0
   21.4204   71.7684   -0.2121 P   0  0  2  0  0  0  0  0  0  0  0  0
   20.7060   70.5025    0.5002 O   0  0  0  0  0  0  0  0  0  0  0  0
   20.4665   72.8011   -0.7390 O   0  0  0  0  0  0  0  0  0  0  0  0
   22.4632   72.3197    0.8883 O   0  0  0  0  0  0  0  0  0  0  0  0
   24.2140   71.3835    2.1797 O   0  0  0  0  0  0  0  0  0  0  0  0
   22.3539   73.8348    4.9365 O   0  0  0  0  0  0  0  0  0  0  0  0
   20.7721   72.2110    3.0938 O   0  0  0  0  0  0  0  0  0  0  0  0
   24.8809   74.6352    3.7430 O   0  0  0  0  0  0  0  0  0  0  0  0
   22.7962   73.4317    3.6404 C   0  0  2  0  0  0  0  0  0  0  0  0
   22.1760   72.0801    3.2854 C   0  0  2  0  0  0  0  0  0  0  0  0
   24.3225   73.3246    3.6737 C   0  0  1  0  0  0  0  0  0  0  0  0
   22.8013   71.5087    2.0121 C   0  0  1  0  0  0  0  0  0  0  0  0
   24.8596   72.6309    2.4251 C   0  0  1  0  0  0  0  0  0  0  0  0
   21.3866   73.9094    4.9395 H   0  0  0  0  0  0  0  0  0  0  0  0
   20.3689   72.5733    3.8979 H   0  0  0  0  0  0  0  0  0  0  0  0
   24.5469   75.0877    4.5333 H   0  0  0  0  0  0  0  0  0  0  0  0
   26.5252   71.0194    2.0642 O   0  0  0  0  0  0  0  0  0  0  0  0
   27.1360   72.9164    3.1722 O   0  0  0  0  0  0  0  0  0  0  0  0
   26.2892   72.2381    2.6101 C   0  0  0  0  0  0  0  0  0  0  0  0
  1  4  1  0
  1 24  1  0
  1  2  1  1
  1  3  2  0
 25 28  1  0
 25 24  1  0
 25 26  1  1
 25 27  2  0
  6 11  1  0
  6 12  1  0
 29 36  1  0
 29 37  1  0
  9  7  1  1
  7 13  1  0
 10  8  1  1
  8 14  1  0
  4  5  1  0
 36 28  1  6
 33 30  1  1
 30 38  1  0
 34 31  1  6
 31 39  1  0
 35 32  1  6
 32 40  1  0
 41 43  1  0
 15 19  2  0
 42 43  2  0
 16 22  2  0
 12 17  1  6
 17 19  1  0
 17 20  1  0
 18 19  1  0
 18 22  1  0
 18 23  1  0
  9 10  1  0
  9 11  1  0
 10 12  1  0
 11  5  1  6
 33 34  1  0
 33 35  1  0
 34 36  1  0
 35 37  1  0
 37 43  1  1
 20 21  2  0
 21 22  1  0
M  CHG  3   2  -1  26  -1  41  -1
M  END
>  <COMPND>  (161) 
    udp_gluA.pdb 

>  <AUTHOR>  (161) 
    GENERATED BY OPEN BABEL 3.1.1

>  <MASTER>  (161) 
        0    0    0    0    0    0    0    0   56    0   56    0

>  <minimizedAffinity>  (161) 
-8.24995

>  <CNNscore>  (161) 
0.9423816204

>  <CNNaffinity>  (161) 
4.8290414810

>  <CNN_VS>  (161) 
4.5507998466

>  <CNNaffinity_variance>  (161) 
0.0291236192

$$$$
162
     RDKit          3D

 43 45  0  0  0  0  0  0  0  0999 V2000
   21.0479   75.3140   -4.1211 P   0  0  2  0  0  0  0  0  0  0  0  0
   21.1215   76.1043   -2.7109 O   0  0  0  0  0  0  0  0  0  0  0  0
   20.8514   76.1860   -5.3265 O   0  0  0  0  0  0  0  0  0  0  0  0
   19.9126   74.1874   -3.8764 O   0  0  0  0  0  0  0  0  0  0  0  0
   18.8344   74.1043   -4.7903 C   0  0  0  0  0  0  0  0  0  0  0  0
   17.2318   72.4416   -5.4571 O   0  0  0  0  0  0  0  0  0  0  0  0
   17.5334   71.3115   -2.6961 O   0  0  0  0  0  0  0  0  0  0  0  0
   19.0793   69.6396   -4.1964 O   0  0  0  0  0  0  0  0  0  0  0  0
   18.5169   71.9120   -3.5391 C   0  0  1  0  0  0  0  0  0  0  0  0
   18.9005   70.9634   -4.6549 C   0  0  2  0  0  0  0  0  0  0  0  0
   17.8506   73.0487   -4.3022 C   0  0  1  0  0  0  0  0  0  0  0  0
   17.7219   71.0994   -5.6038 C   0  0  2  0  0  0  0  0  0  0  0  0
   17.9356   70.5822   -2.1981 H   0  0  0  0  0  0  0  0  0  0  0  0
   19.8413   69.6055   -3.5962 H   0  0  0  0  0  0  0  0  0  0  0  0
   15.9812   70.1013   -7.5913 O   0  0  0  0  0  0  0  0  0  0  0  0
   19.2565   70.3177  -10.8269 O   0  0  0  0  0  0  0  0  0  0  0  0
   18.0937   70.8851   -6.9737 N   0  0  0  0  0  0  0  0  0  0  0  0
   17.6144   70.2091   -9.2007 N   0  0  0  0  0  0  0  0  0  0  0  0
   17.1435   70.3797   -7.8922 C   0  0  0  0  0  0  0  0  0  0  0  0
   19.3854   71.1760   -7.3954 C   0  0  0  0  0  0  0  0  0  0  0  0
   19.8196   71.0082   -8.6461 C   0  0  0  0  0  0  0  0  0  0  0  0
   18.8897   70.4835   -9.6675 C   0  0  0  0  0  0  0  0  0  0  0  0
   16.9715   69.8564   -9.8577 H   0  0  0  0  0  0  0  0  0  0  0  0
   22.4170   74.4548   -4.1276 O   0  0  0  0  0  0  0  0  0  0  0  0
   22.6729   72.8647   -3.9869 P   0  0  2  0  0  0  0  0  0  0  0  0
   24.2835   72.7388   -4.0887 O   0  0  0  0  0  0  0  0  0  0  0  0
   21.9231   72.0297   -4.9842 O   0  0  0  0  0  0  0  0  0  0  0  0
   22.3349   72.5305   -2.4453 O   0  0  0  0  0  0  0  0  0  0  0  0
   22.3547   74.0066   -0.5933 O   0  0  0  0  0  0  0  0  0  0  0  0
   23.2848   70.4007    1.1957 O   0  0  0  0  0  0  0  0  0  0  0  0
   24.4855   71.1373   -1.3636 O   0  0  0  0  0  0  0  0  0  0  0  0
   20.6193   71.5258    1.4794 O   0  0  0  0  0  0  0  0  0  0  0  0
   22.6661   71.2585    0.2368 C   0  0  2  0  0  0  0  0  0  0  0  0
   23.7418   72.0233   -0.5350 C   0  0  2  0  0  0  0  0  0  0  0  0
   21.7576   72.2325    0.9902 C   0  0  1  0  0  0  0  0  0  0  0  0
   23.1183   73.1147   -1.4062 C   0  0  1  0  0  0  0  0  0  0  0  0
   21.2777   73.3618    0.0830 C   0  0  1  0  0  0  0  0  0  0  0  0
   23.8672   69.7728    0.7399 H   0  0  0  0  0  0  0  0  0  0  0  0
   24.8837   70.4420   -0.8174 H   0  0  0  0  0  0  0  0  0  0  0  0
   20.9110   70.8041    2.0581 H   0  0  0  0  0  0  0  0  0  0  0  0
   19.7368   75.1283    0.1642 O   0  0  0  0  0  0  0  0  0  0  0  0
   20.9798   74.7454    2.0371 O   0  0  0  0  0  0  0  0  0  0  0  0
   20.6757   74.4683    0.8865 C   0  0  0  0  0  0  0  0  0  0  0  0
  1  4  1  0
  1 24  1  0
  1  2  1  1
  1  3  2  0
 25 28  1  0
 25 24  1  0
 25 26  1  1
 25 27  2  0
  6 11  1  0
  6 12  1  0
 29 36  1  0
 29 37  1  0
  9  7  1  1
  7 13  1  0
 10  8  1  1
  8 14  1  0
  4  5  1  0
 36 28  1  6
 33 30  1  1
 30 38  1  0
 34 31  1  6
 31 39  1  0
 35 32  1  6
 32 40  1  0
 41 43  1  0
 15 19  2  0
 42 43  2  0
 16 22  2  0
 12 17  1  6
 17 19  1  0
 17 20  1  0
 18 19  1  0
 18 22  1  0
 18 23  1  0
  9 10  1  0
  9 11  1  0
 10 12  1  0
 11  5  1  6
 33 34  1  0
 33 35  1  0
 34 36  1  0
 35 37  1  0
 37 43  1  1
 20 21  2  0
 21 22  1  0
M  CHG  3   2  -1  26  -1  41  -1
M  END
>  <COMPND>  (162) 
    udp_gluA.pdb 

>  <AUTHOR>  (162) 
    GENERATED BY OPEN BABEL 3.1.1

>  <MASTER>  (162) 
        0    0    0    0    0    0    0    0   56    0   56    0

>  <minimizedAffinity>  (162) 
-6.32225

>  <CNNscore>  (162) 
0.8628547788

>  <CNNaffinity>  (162) 
4.5844893456

>  <CNN_VS>  (162) 
3.9557485580

>  <CNNaffinity_variance>  (162) 
0.0542578027

$$$$
163
     RDKit          3D

 43 45  0  0  0  0  0  0  0  0999 V2000
   22.9086   72.1460   -3.8180 P   0  0  2  0  0  0  0  0  0  0  0  0
   23.4769   73.1009   -4.9944 O   0  0  0  0  0  0  0  0  0  0  0  0
   23.9286   71.2462   -3.1841 O   0  0  0  0  0  0  0  0  0  0  0  0
   21.6424   71.4031   -4.4982 O   0  0  0  0  0  0  0  0  0  0  0  0
   20.9258   70.4515   -3.7332 C   0  0  0  0  0  0  0  0  0  0  0  0
   19.0565   71.6415   -4.6644 O   0  0  0  0  0  0  0  0  0  0  0  0
   17.4354   70.4683   -2.4312 O   0  0  0  0  0  0  0  0  0  0  0  0
   16.7779   68.8760   -4.5451 O   0  0  0  0  0  0  0  0  0  0  0  0
   18.5099   69.8868   -3.1700 C   0  0  1  0  0  0  0  0  0  0  0  0
   18.0437   69.5023   -4.5582 C   0  0  2  0  0  0  0  0  0  0  0  0
   19.5235   70.9835   -3.4668 C   0  0  1  0  0  0  0  0  0  0  0  0
   18.0243   70.8454   -5.2678 C   0  0  2  0  0  0  0  0  0  0  0  0
   16.7748   69.7865   -2.2298 H   0  0  0  0  0  0  0  0  0  0  0  0
   16.8429   68.0252   -4.0828 H   0  0  0  0  0  0  0  0  0  0  0  0
   16.0889   70.1392   -7.1997 O   0  0  0  0  0  0  0  0  0  0  0  0
   19.1501   70.4185  -10.6341 O   0  0  0  0  0  0  0  0  0  0  0  0
   18.2883   70.7263   -6.6738 N   0  0  0  0  0  0  0  0  0  0  0  0
   17.6156   70.2780   -8.9082 N   0  0  0  0  0  0  0  0  0  0  0  0
   17.2457   70.3656   -7.5597 C   0  0  0  0  0  0  0  0  0  0  0  0
   19.5668   70.9670   -7.1622 C   0  0  0  0  0  0  0  0  0  0  0  0
   19.9042   70.8796   -8.4504 C   0  0  0  0  0  0  0  0  0  0  0  0
   18.8736   70.5073   -9.4417 C   0  0  0  0  0  0  0  0  0  0  0  0
   16.9071   70.0264   -9.5439 H   0  0  0  0  0  0  0  0  0  0  0  0
   22.2128   73.1947   -2.8037 O   0  0  0  0  0  0  0  0  0  0  0  0
   22.8564   74.2469   -1.7585 P   0  0  2  0  0  0  0  0  0  0  0  0
   21.8545   75.5153   -1.8463 O   0  0  0  0  0  0  0  0  0  0  0  0
   24.2966   74.5767   -2.0249 O   0  0  0  0  0  0  0  0  0  0  0  0
   22.5742   73.6050   -0.3056 O   0  0  0  0  0  0  0  0  0  0  0  0
   23.2427   71.4051    0.2626 O   0  0  0  0  0  0  0  0  0  0  0  0
   20.2736   72.1262    3.0433 O   0  0  0  0  0  0  0  0  0  0  0  0
   19.9306   72.9534    0.2625 O   0  0  0  0  0  0  0  0  0  0  0  0
   23.0686   72.2110    3.8379 O   0  0  0  0  0  0  0  0  0  0  0  0
   21.3498   72.4647    2.1686 C   0  0  2  0  0  0  0  0  0  0  0  0
   20.9731   72.1058    0.7310 C   0  0  2  0  0  0  0  0  0  0  0  0
   22.5836   71.6736    2.6089 C   0  0  1  0  0  0  0  0  0  0  0  0
   22.1792   72.2385   -0.2000 C   0  0  1  0  0  0  0  0  0  0  0  0
   23.6971   71.7535    1.5685 C   0  0  1  0  0  0  0  0  0  0  0  0
   19.4783   72.6171    2.7827 H   0  0  0  0  0  0  0  0  0  0  0  0
   19.1622   72.8744    0.8488 H   0  0  0  0  0  0  0  0  0  0  0  0
   22.3694   72.1662    4.5086 H   0  0  0  0  0  0  0  0  0  0  0  0
   25.7200   70.7777    0.8924 O   0  0  0  0  0  0  0  0  0  0  0  0
   24.7509   69.9567    2.7860 O   0  0  0  0  0  0  0  0  0  0  0  0
   24.7517   70.7308    1.8406 C   0  0  0  0  0  0  0  0  0  0  0  0
  1  4  1  0
  1 24  1  0
  1  2  1  6
  1  3  2  0
 25 28  1  0
 25 24  1  0
 25 26  1  1
 25 27  2  0
  6 11  1  0
  6 12  1  0
 29 36  1  0
 29 37  1  0
  9  7  1  1
  7 13  1  0
 10  8  1  1
  8 14  1  0
  4  5  1  0
 36 28  1  1
 33 30  1  1
 30 38  1  0
 34 31  1  6
 31 39  1  0
 35 32  1  1
 32 40  1  0
 41 43  1  0
 15 19  2  0
 42 43  2  0
 16 22  2  0
 12 17  1  6
 17 19  1  0
 17 20  1  0
 18 19  1  0
 18 22  1  0
 18 23  1  0
  9 10  1  0
  9 11  1  0
 10 12  1  0
 11  5  1  6
 33 34  1  0
 33 35  1  0
 34 36  1  0
 35 37  1  0
 37 43  1  1
 20 21  2  0
 21 22  1  0
M  CHG  3   2  -1  26  -1  41  -1
M  END
>  <COMPND>  (163) 
    udp_gluA.pdb 

>  <AUTHOR>  (163) 
    GENERATED BY OPEN BABEL 3.1.1

>  <MASTER>  (163) 
        0    0    0    0    0    0    0    0   56    0   56    0

>  <minimizedAffinity>  (163) 
-8.04207

>  <CNNscore>  (163) 
0.8569951653

>  <CNNaffinity>  (163) 
4.7019286156

>  <CNN_VS>  (163) 
4.0295300484

>  <CNNaffinity_variance>  (163) 
0.0360098183

$$$$
164
     RDKit          3D

 43 45  0  0  0  0  0  0  0  0999 V2000
   22.1145   71.6613   -2.1650 P   0  0  2  0  0  0  0  0  0  0  0  0
   23.6342   71.3352   -2.6155 O   0  0  0  0  0  0  0  0  0  0  0  0
   21.5951   70.8227   -1.0342 O   0  0  0  0  0  0  0  0  0  0  0  0
   21.2739   71.5782   -3.5450 O   0  0  0  0  0  0  0  0  0  0  0  0
   20.3607   70.5101   -3.7172 C   0  0  0  0  0  0  0  0  0  0  0  0
   18.6059   71.7056   -4.8436 O   0  0  0  0  0  0  0  0  0  0  0  0
   16.7519   70.5435   -2.7933 O   0  0  0  0  0  0  0  0  0  0  0  0
   16.3160   68.9495   -4.9625 O   0  0  0  0  0  0  0  0  0  0  0  0
   17.8964   69.9562   -3.4129 C   0  0  1  0  0  0  0  0  0  0  0  0
   17.5786   69.5706   -4.8421 C   0  0  2  0  0  0  0  0  0  0  0  0
   18.9404   71.0482   -3.6021 C   0  0  1  0  0  0  0  0  0  0  0  0
   17.6403   70.9124   -5.5519 C   0  0  2  0  0  0  0  0  0  0  0  0
   16.0709   69.8648   -2.6621 H   0  0  0  0  0  0  0  0  0  0  0  0
   16.3280   68.0993   -4.4945 H   0  0  0  0  0  0  0  0  0  0  0  0
   15.9242   70.1828   -7.6730 O   0  0  0  0  0  0  0  0  0  0  0  0
   19.3275   70.4712  -10.7679 O   0  0  0  0  0  0  0  0  0  0  0  0
   18.0517   70.7893   -6.9218 N   0  0  0  0  0  0  0  0  0  0  0  0
   17.6211   70.3261   -9.2123 N   0  0  0  0  0  0  0  0  0  0  0  0
   17.1107   70.4167   -7.9106 C   0  0  0  0  0  0  0  0  0  0  0  0
   19.3726   71.0379   -7.2743 C   0  0  0  0  0  0  0  0  0  0  0  0
   19.8443   70.9476   -8.5193 C   0  0  0  0  0  0  0  0  0  0  0  0
   18.9265   70.5630   -9.6116 C   0  0  0  0  0  0  0  0  0  0  0  0
   16.9852   70.0663   -9.9176 H   0  0  0  0  0  0  0  0  0  0  0  0
   22.1586   73.2483   -1.8613 O   0  0  0  0  0  0  0  0  0  0  0  0
   21.0015   74.3752   -1.9326 P   0  0  2  0  0  0  0  0  0  0  0  0
   21.5485   75.5302   -0.9391 O   0  0  0  0  0  0  0  0  0  0  0  0
   19.6283   73.8699   -1.5966 O   0  0  0  0  0  0  0  0  0  0  0  0
   21.1387   75.0098   -3.4093 O   0  0  0  0  0  0  0  0  0  0  0  0
   22.8790   74.4926   -4.9302 O   0  0  0  0  0  0  0  0  0  0  0  0
   21.6759   78.2134   -6.2631 O   0  0  0  0  0  0  0  0  0  0  0  0
   21.9306   77.6761   -3.4029 O   0  0  0  0  0  0  0  0  0  0  0  0
   20.9112   75.8213   -7.7274 O   0  0  0  0  0  0  0  0  0  0  0  0
   21.5103   76.9249   -5.6712 C   0  0  2  0  0  0  0  0  0  0  0  0
   22.3992   76.8128   -4.4323 C   0  0  2  0  0  0  0  0  0  0  0  0
   21.9084   75.8730   -6.7089 C   0  0  1  0  0  0  0  0  0  0  0  0
   22.4246   75.3773   -3.9053 C   0  0  1  0  0  0  0  0  0  0  0  0
   22.0344   74.4888   -6.0790 C   0  0  1  0  0  0  0  0  0  0  0  0
   21.4288   78.8982   -5.6218 H   0  0  0  0  0  0  0  0  0  0  0  0
   21.9116   78.5886   -3.7305 H   0  0  0  0  0  0  0  0  0  0  0  0
   20.8209   76.6963   -8.1363 H   0  0  0  0  0  0  0  0  0  0  0  0
   22.8564   72.3213   -6.4365 O   0  0  0  0  0  0  0  0  0  0  0  0
   23.1352   73.8307   -8.1227 O   0  0  0  0  0  0  0  0  0  0  0  0
   22.7318   73.5462   -7.0049 C   0  0  0  0  0  0  0  0  0  0  0  0
  1  4  1  0
  1 24  1  0
  1  2  1  6
  1  3  2  0
 25 28  1  0
 25 24  1  0
 25 26  1  1
 25 27  2  0
  6 11  1  0
  6 12  1  0
 29 36  1  0
 29 37  1  0
  9  7  1  6
  7 13  1  0
 10  8  1  1
  8 14  1  0
  4  5  1  0
 36 28  1  6
 33 30  1  6
 30 38  1  0
 34 31  1  1
 31 39  1  0
 35 32  1  6
 32 40  1  0
 41 43  1  0
 15 19  2  0
 42 43  2  0
 16 22  2  0
 12 17  1  6
 17 19  1  0
 17 20  1  0
 18 19  1  0
 18 22  1  0
 18 23  1  0
  9 10  1  0
  9 11  1  0
 10 12  1  0
 11  5  1  6
 33 34  1  0
 33 35  1  0
 34 36  1  0
 35 37  1  0
 37 43  1  6
 20 21  2  0
 21 22  1  0
M  CHG  3   2  -1  26  -1  41  -1
M  END
>  <COMPND>  (164) 
    udp_gluA.pdb 

>  <AUTHOR>  (164) 
    GENERATED BY OPEN BABEL 3.1.1

>  <MASTER>  (164) 
        0    0    0    0    0    0    0    0   56    0   56    0

>  <minimizedAffinity>  (164) 
-6.62603

>  <CNNscore>  (164) 
0.8558642864

>  <CNNaffinity>  (164) 
4.6030874252

>  <CNN_VS>  (164) 
3.9396181107

>  <CNNaffinity_variance>  (164) 
0.2815649807

$$$$
165
     RDKit          3D

 43 45  0  0  0  0  0  0  0  0999 V2000
   22.6585   72.6936   -3.8004 P   0  0  2  0  0  0  0  0  0  0  0  0
   22.0607   72.9000   -5.2900 O   0  0  0  0  0  0  0  0  0  0  0  0
   24.0675   72.1799   -3.7487 O   0  0  0  0  0  0  0  0  0  0  0  0
   21.5491   71.7777   -3.0599 O   0  0  0  0  0  0  0  0  0  0  0  0
   20.7354   70.9302   -3.8500 C   0  0  0  0  0  0  0  0  0  0  0  0
   18.7858   71.8690   -4.8968 O   0  0  0  0  0  0  0  0  0  0  0  0
   17.2177   70.6314   -2.6604 O   0  0  0  0  0  0  0  0  0  0  0  0
   16.8098   68.8831   -4.7129 O   0  0  0  0  0  0  0  0  0  0  0  0
   18.3739   70.1357   -3.3357 C   0  0  1  0  0  0  0  0  0  0  0  0
   18.0019   69.6404   -4.7172 C   0  0  2  0  0  0  0  0  0  0  0  0
   19.2760   71.3202   -3.6542 C   0  0  1  0  0  0  0  0  0  0  0  0
   17.8663   70.9399   -5.4923 C   0  0  2  0  0  0  0  0  0  0  0  0
   16.6261   69.8926   -2.4466 H   0  0  0  0  0  0  0  0  0  0  0  0
   16.9476   68.0661   -4.2075 H   0  0  0  0  0  0  0  0  0  0  0  0
   16.0644   70.0146   -7.4604 O   0  0  0  0  0  0  0  0  0  0  0  0
   19.2268   70.3883  -10.7925 O   0  0  0  0  0  0  0  0  0  0  0  0
   18.1925   70.7858   -6.8818 N   0  0  0  0  0  0  0  0  0  0  0  0
   17.6415   70.2007   -9.1179 N   0  0  0  0  0  0  0  0  0  0  0  0
   17.2143   70.3131   -7.7883 C   0  0  0  0  0  0  0  0  0  0  0  0
   19.4676   71.1027   -7.3341 C   0  0  0  0  0  0  0  0  0  0  0  0
   19.8600   70.9904   -8.6047 C   0  0  0  0  0  0  0  0  0  0  0  0
   18.8987   70.5029   -9.6154 C   0  0  0  0  0  0  0  0  0  0  0  0
   16.9785   69.8717   -9.7671 H   0  0  0  0  0  0  0  0  0  0  0  0
   22.4453   74.1441   -3.1196 O   0  0  0  0  0  0  0  0  0  0  0  0
   23.0579   74.7819   -1.7662 P   0  0  2  0  0  0  0  0  0  0  0  0
   22.2186   76.1549   -1.5915 O   0  0  0  0  0  0  0  0  0  0  0  0
   24.5476   74.9667   -1.7921 O   0  0  0  0  0  0  0  0  0  0  0  0
   22.5226   73.8241   -0.5837 O   0  0  0  0  0  0  0  0  0  0  0  0
   23.3988   73.7870    1.6163 O   0  0  0  0  0  0  0  0  0  0  0  0
   21.7394   70.0161    1.3087 O   0  0  0  0  0  0  0  0  0  0  0  0
   23.2429   71.1587   -0.9203 O   0  0  0  0  0  0  0  0  0  0  0  0
   20.3933   72.0814    2.8493 O   0  0  0  0  0  0  0  0  0  0  0  0
   21.8513   71.4156    1.0504 C   0  0  2  0  0  0  0  0  0  0  0  0
   23.1995   71.7083    0.3915 C   0  0  2  0  0  0  0  0  0  0  0  0
   21.7406   72.1535    2.3866 C   0  0  1  0  0  0  0  0  0  0  0  0
   23.4529   73.2142    0.3093 C   0  0  1  0  0  0  0  0  0  0  0  0
   22.1301   73.6222    2.2458 C   0  0  1  0  0  0  0  0  0  0  0  0
   21.8070   69.5266    0.4738 H   0  0  0  0  0  0  0  0  0  0  0  0
   23.0826   70.2034   -0.8756 H   0  0  0  0  0  0  0  0  0  0  0  0
   20.1329   71.1517    2.9429 H   0  0  0  0  0  0  0  0  0  0  0  0
   23.1040   75.3605    3.4832 O   0  0  0  0  0  0  0  0  0  0  0  0
   21.8808   73.8209    4.6374 O   0  0  0  0  0  0  0  0  0  0  0  0
   22.3374   74.2468    3.5872 C   0  0  0  0  0  0  0  0  0  0  0  0
  1  4  1  0
  1 24  1  0
  1  2  1  6
  1  3  2  0
 25 28  1  0
 25 24  1  0
 25 26  1  1
 25 27  2  0
  6 11  1  0
  6 12  1  0
 29 36  1  0
 29 37  1  0
  9  7  1  6
  7 13  1  0
 10  8  1  1
  8 14  1  0
  4  5  1  0
 36 28  1  6
 33 30  1  1
 30 38  1  0
 34 31  1  6
 31 39  1  0
 35 32  1  6
 32 40  1  0
 41 43  1  0
 15 19  2  0
 42 43  2  0
 16 22  2  0
 12 17  1  6
 17 19  1  0
 17 20  1  0
 18 19  1  0
 18 22  1  0
 18 23  1  0
  9 10  1  0
  9 11  1  0
 10 12  1  0
 11  5  1  6
 33 34  1  0
 33 35  1  0
 34 36  1  0
 35 37  1  0
 37 43  1  1
 20 21  2  0
 21 22  1  0
M  CHG  3   2  -1  26  -1  41  -1
M  END
>  <COMPND>  (165) 
    udp_gluA.pdb 

>  <AUTHOR>  (165) 
    GENERATED BY OPEN BABEL 3.1.1

>  <MASTER>  (165) 
        0    0    0    0    0    0    0    0   56    0   56    0

>  <minimizedAffinity>  (165) 
-7.44286

>  <CNNscore>  (165) 
0.8441380858

>  <CNNaffinity>  (165) 
4.6161851883

>  <CNN_VS>  (165) 
3.8966977596

>  <CNNaffinity_variance>  (165) 
0.0197998341

$$$$
166
     RDKit          3D

 43 45  0  0  0  0  0  0  0  0999 V2000
   20.8581   71.7677   -1.3496 P   0  0  2  0  0  0  0  0  0  0  0  0
   21.7473   70.9406   -0.2800 O   0  0  0  0  0  0  0  0  0  0  0  0
   20.3517   73.0935   -0.8620 O   0  0  0  0  0  0  0  0  0  0  0  0
   19.7248   70.7101   -1.8132 O   0  0  0  0  0  0  0  0  0  0  0  0
   19.3526   70.6730   -3.1787 C   0  0  0  0  0  0  0  0  0  0  0  0
   17.5877   71.5733   -4.5396 O   0  0  0  0  0  0  0  0  0  0  0  0
   15.7199   69.8959   -2.8997 O   0  0  0  0  0  0  0  0  0  0  0  0
   15.9921   68.4274   -5.1812 O   0  0  0  0  0  0  0  0  0  0  0  0
   17.0483   69.6061   -3.3354 C   0  0  1  0  0  0  0  0  0  0  0  0
   17.0557   69.2809   -4.8140 C   0  0  2  0  0  0  0  0  0  0  0  0
   17.8503   70.8996   -3.2897 C   0  0  1  0  0  0  0  0  0  0  0  0
   16.9420   70.6600   -5.4409 C   0  0  2  0  0  0  0  0  0  0  0  0
   15.1882   69.0844   -2.9203 H   0  0  0  0  0  0  0  0  0  0  0  0
   16.1104   67.5625   -4.7571 H   0  0  0  0  0  0  0  0  0  0  0  0
   15.6408   70.2169   -7.9081 O   0  0  0  0  0  0  0  0  0  0  0  0
   19.5117   70.9722  -10.2934 O   0  0  0  0  0  0  0  0  0  0  0  0
   17.5859   70.7345   -6.7218 N   0  0  0  0  0  0  0  0  0  0  0  0
   17.5702   70.5925   -9.0937 N   0  0  0  0  0  0  0  0  0  0  0  0
   16.8416   70.4943   -7.9010 C   0  0  0  0  0  0  0  0  0  0  0  0
   18.9382   71.0439   -6.8013 C   0  0  0  0  0  0  0  0  0  0  0  0
   19.6189   71.1341   -7.9456 C   0  0  0  0  0  0  0  0  0  0  0  0
   18.9156   70.8968   -9.2232 C   0  0  0  0  0  0  0  0  0  0  0  0
   17.0738   70.4275   -9.9278 H   0  0  0  0  0  0  0  0  0  0  0  0
   21.8275   71.8507   -2.6405 O   0  0  0  0  0  0  0  0  0  0  0  0
   23.1342   72.7575   -2.9300 P   0  0  2  0  0  0  0  0  0  0  0  0
   24.1797   71.7039   -3.5760 O   0  0  0  0  0  0  0  0  0  0  0  0
   23.6561   73.4876   -1.7265 O   0  0  0  0  0  0  0  0  0  0  0  0
   22.7063   73.7116   -4.1584 O   0  0  0  0  0  0  0  0  0  0  0  0
   20.5197   74.2226   -4.9114 O   0  0  0  0  0  0  0  0  0  0  0  0
   22.7099   74.5600   -8.3982 O   0  0  0  0  0  0  0  0  0  0  0  0
   23.2159   72.3649   -6.5381 O   0  0  0  0  0  0  0  0  0  0  0  0
   21.8114   76.9467   -7.0027 O   0  0  0  0  0  0  0  0  0  0  0  0
   22.4809   74.6322   -6.9909 C   0  0  2  0  0  0  0  0  0  0  0  0
   22.1031   73.2483   -6.4622 C   0  0  2  0  0  0  0  0  0  0  0  0
   21.3414   75.6243   -6.7475 C   0  0  1  0  0  0  0  0  0  0  0  0
   21.6285   73.3281   -5.0106 C   0  0  1  0  0  0  0  0  0  0  0  0
   20.8397   75.5542   -5.3081 C   0  0  1  0  0  0  0  0  0  0  0  0
   23.4302   73.9351   -8.5771 H   0  0  0  0  0  0  0  0  0  0  0  0
   23.5224   72.3098   -7.4564 H   0  0  0  0  0  0  0  0  0  0  0  0
   22.1337   77.0047   -7.9156 H   0  0  0  0  0  0  0  0  0  0  0  0
   19.5288   77.0336   -4.0453 O   0  0  0  0  0  0  0  0  0  0  0  0
   18.6001   76.1847   -5.9469 O   0  0  0  0  0  0  0  0  0  0  0  0
   19.5356   76.2693   -5.1655 C   0  0  0  0  0  0  0  0  0  0  0  0
  1  4  1  0
  1 24  1  0
  1  2  1  1
  1  3  2  0
 25 28  1  0
 25 24  1  0
 25 26  1  6
 25 27  2  0
  6 11  1  0
  6 12  1  0
 29 36  1  0
 29 37  1  0
  9  7  1  6
  7 13  1  0
 10  8  1  1
  8 14  1  0
  4  5  1  0
 36 28  1  1
 33 30  1  6
 30 38  1  0
 34 31  1  1
 31 39  1  0
 35 32  1  1
 32 40  1  0
 41 43  1  0
 15 19  2  0
 42 43  2  0
 16 22  2  0
 12 17  1  6
 17 19  1  0
 17 20  1  0
 18 19  1  0
 18 22  1  0
 18 23  1  0
  9 10  1  0
  9 11  1  0
 10 12  1  0
 11  5  1  6
 33 34  1  0
 33 35  1  0
 34 36  1  0
 35 37  1  0
 37 43  1  6
 20 21  2  0
 21 22  1  0
M  CHG  3   2  -1  26  -1  41  -1
M  END
>  <COMPND>  (166) 
    udp_gluA.pdb 

>  <AUTHOR>  (166) 
    GENERATED BY OPEN BABEL 3.1.1

>  <MASTER>  (166) 
        0    0    0    0    0    0    0    0   56    0   56    0

>  <minimizedAffinity>  (166) 
-7.12850

>  <CNNscore>  (166) 
0.8203263879

>  <CNNaffinity>  (166) 
4.6204223633

>  <CNN_VS>  (166) 
3.7902543545

>  <CNNaffinity_variance>  (166) 
0.6710907817

$$$$
167
     RDKit          3D

 43 45  0  0  0  0  0  0  0  0999 V2000
   21.0595   74.7678   -4.9846 P   0  0  2  0  0  0  0  0  0  0  0  0
   21.3490   75.9040   -3.8692 O   0  0  0  0  0  0  0  0  0  0  0  0
   20.7366   75.2914   -6.3533 O   0  0  0  0  0  0  0  0  0  0  0  0
   19.9263   73.8348   -4.3038 O   0  0  0  0  0  0  0  0  0  0  0  0
   18.5726   74.0464   -4.6604 C   0  0  0  0  0  0  0  0  0  0  0  0
   17.1592   72.2121   -5.3049 O   0  0  0  0  0  0  0  0  0  0  0  0
   17.6845   71.0907   -2.5740 O   0  0  0  0  0  0  0  0  0  0  0  0
   19.3691   69.6361   -4.1495 O   0  0  0  0  0  0  0  0  0  0  0  0
   18.5608   71.8158   -3.4370 C   0  0  1  0  0  0  0  0  0  0  0  0
   19.0183   70.9346   -4.5800 C   0  0  2  0  0  0  0  0  0  0  0  0
   17.7387   72.8740   -4.1598 C   0  0  1  0  0  0  0  0  0  0  0  0
   17.8013   70.9404   -5.4893 C   0  0  2  0  0  0  0  0  0  0  0  0
   18.1872   70.4085   -2.1011 H   0  0  0  0  0  0  0  0  0  0  0  0
   20.1490   69.6859   -3.5740 H   0  0  0  0  0  0  0  0  0  0  0  0
   16.0559   69.9493   -7.4762 O   0  0  0  0  0  0  0  0  0  0  0  0
   19.2494   70.4069  -10.7681 O   0  0  0  0  0  0  0  0  0  0  0  0
   18.1508   70.7901   -6.8735 N   0  0  0  0  0  0  0  0  0  0  0  0
   17.6484   70.1772   -9.1137 N   0  0  0  0  0  0  0  0  0  0  0  0
   17.2001   70.2824   -7.7904 C   0  0  0  0  0  0  0  0  0  0  0  0
   19.4212   71.1450   -7.3106 C   0  0  0  0  0  0  0  0  0  0  0  0
   19.8339   71.0391   -8.5752 C   0  0  0  0  0  0  0  0  0  0  0  0
   18.9021   70.5166   -9.5961 C   0  0  0  0  0  0  0  0  0  0  0  0
   17.0049   69.8243   -9.7699 H   0  0  0  0  0  0  0  0  0  0  0  0
   22.3832   73.8428   -4.9124 O   0  0  0  0  0  0  0  0  0  0  0  0
   22.8028   72.6687   -3.8834 P   0  0  2  0  0  0  0  0  0  0  0  0
   24.4048   72.5548   -4.0856 O   0  0  0  0  0  0  0  0  0  0  0  0
   22.0608   71.3792   -4.0846 O   0  0  0  0  0  0  0  0  0  0  0  0
   22.6227   73.3234   -2.4200 O   0  0  0  0  0  0  0  0  0  0  0  0
   22.6625   71.8590   -0.5590 O   0  0  0  0  0  0  0  0  0  0  0  0
   21.1590   75.3188    1.1256 O   0  0  0  0  0  0  0  0  0  0  0  0
   20.2424   74.4318   -1.5027 O   0  0  0  0  0  0  0  0  0  0  0  0
   23.9198   74.5436    1.6030 O   0  0  0  0  0  0  0  0  0  0  0  0
   21.9469   74.5459    0.2201 C   0  0  2  0  0  0  0  0  0  0  0  0
   21.0335   73.6491   -0.6160 C   0  0  2  0  0  0  0  0  0  0  0  0
   22.9175   73.6967    1.0439 C   0  0  1  0  0  0  0  0  0  0  0  0
   21.8498   72.6452   -1.4313 C   0  0  1  0  0  0  0  0  0  0  0  0
   23.5991   72.6369    0.1832 C   0  0  1  0  0  0  0  0  0  0  0  0
   20.5344   75.8667    0.6246 H   0  0  0  0  0  0  0  0  0  0  0  0
   19.7220   75.0713   -0.9921 H   0  0  0  0  0  0  0  0  0  0  0  0
   23.4992   75.2229    2.1531 H   0  0  0  0  0  0  0  0  0  0  0  0
   23.5511   70.4750    1.0916 O   0  0  0  0  0  0  0  0  0  0  0  0
   25.3470   71.7811    1.6093 O   0  0  0  0  0  0  0  0  0  0  0  0
   24.2798   71.6173    1.0372 C   0  0  0  0  0  0  0  0  0  0  0  0
  1  4  1  0
  1 24  1  0
  1  2  1  1
  1  3  2  0
 25 28  1  0
 25 24  1  0
 25 26  1  6
 25 27  2  0
  6 11  1  0
  6 12  1  0
 29 36  1  0
 29 37  1  0
  9  7  1  1
  7 13  1  0
 10  8  1  1
  8 14  1  0
  4  5  1  0
 36 28  1  6
 33 30  1  1
 30 38  1  0
 34 31  1  6
 31 39  1  0
 35 32  1  6
 32 40  1  0
 41 43  1  0
 15 19  2  0
 42 43  2  0
 16 22  2  0
 12 17  1  6
 17 19  1  0
 17 20  1  0
 18 19  1  0
 18 22  1  0
 18 23  1  0
  9 10  1  0
  9 11  1  0
 10 12  1  0
 11  5  1  6
 33 34  1  0
 33 35  1  0
 34 36  1  0
 35 37  1  0
 37 43  1  1
 20 21  2  0
 21 22  1  0
M  CHG  3   2  -1  26  -1  41  -1
M  END
>  <COMPND>  (167) 
    udp_gluA.pdb 

>  <AUTHOR>  (167) 
    GENERATED BY OPEN BABEL 3.1.1

>  <MASTER>  (167) 
        0    0    0    0    0    0    0    0   56    0   56    0

>  <minimizedAffinity>  (167) 
-6.45194

>  <CNNscore>  (167) 
0.8006169796

>  <CNNaffinity>  (167) 
4.4766135216

>  <CNN_VS>  (167) 
3.5840528011

>  <CNNaffinity_variance>  (167) 
0.0126480656

$$$$
168
     RDKit          3D

 43 45  0  0  0  0  0  0  0  0999 V2000
   20.3703   74.7788   -2.8114 P   0  0  2  0  0  0  0  0  0  0  0  0
   20.6618   76.3055   -3.2622 O   0  0  0  0  0  0  0  0  0  0  0  0
   19.2495   74.6117   -1.8277 O   0  0  0  0  0  0  0  0  0  0  0  0
   21.8153   74.2334   -2.3294 O   0  0  0  0  0  0  0  0  0  0  0  0
   22.0289   74.0152   -0.9469 C   0  0  0  0  0  0  0  0  0  0  0  0
   23.3357   72.1077   -0.2900 O   0  0  0  0  0  0  0  0  0  0  0  0
   20.7260   70.7655    0.3260 O   0  0  0  0  0  0  0  0  0  0  0  0
   21.5994   71.5308    2.7933 O   0  0  0  0  0  0  0  0  0  0  0  0
   21.0997   72.1335    0.4913 C   0  0  1  0  0  0  0  0  0  0  0  0
   22.0280   72.2836    1.6779 C   0  0  2  0  0  0  0  0  0  0  0  0
   22.0045   72.5172   -0.6716 C   0  0  1  0  0  0  0  0  0  0  0  0
   23.3476   71.7888    1.1106 C   0  0  2  0  0  0  0  0  0  0  0  0
   20.1474   70.4974    1.0575 H   0  0  0  0  0  0  0  0  0  0  0  0
   20.7560   71.8850    3.1177 H   0  0  0  0  0  0  0  0  0  0  0  0
   25.4979   70.4018    2.3059 O   0  0  0  0  0  0  0  0  0  0  0  0
   27.6392   74.3241    3.4347 O   0  0  0  0  0  0  0  0  0  0  0  0
   24.4800   72.4227    1.7242 N   0  0  0  0  0  0  0  0  0  0  0  0
   26.5618   72.3566    2.8679 N   0  0  0  0  0  0  0  0  0  0  0  0
   25.5062   71.6341    2.2963 C   0  0  0  0  0  0  0  0  0  0  0  0
   24.5671   73.8092    1.7537 C   0  0  0  0  0  0  0  0  0  0  0  0
   25.5797   74.4836    2.3020 C   0  0  0  0  0  0  0  0  0  0  0  0
   26.6924   73.7349    2.9221 C   0  0  0  0  0  0  0  0  0  0  0  0
   27.2872   71.8293    3.2743 H   0  0  0  0  0  0  0  0  0  0  0  0
   20.1474   74.0204   -4.2213 O   0  0  0  0  0  0  0  0  0  0  0  0
   20.9267   72.7714   -4.8895 P   0  0  2  0  0  0  0  0  0  0  0  0
   20.7904   71.6092   -3.7710 O   0  0  0  0  0  0  0  0  0  0  0  0
   22.3393   73.0741   -5.2979 O   0  0  0  0  0  0  0  0  0  0  0  0
   19.9697   72.2899   -6.0957 O   0  0  0  0  0  0  0  0  0  0  0  0
   19.0498   70.1076   -6.1211 O   0  0  0  0  0  0  0  0  0  0  0  0
   18.6618   71.2295  -10.0782 O   0  0  0  0  0  0  0  0  0  0  0  0
   21.1030   71.8461   -8.5966 O   0  0  0  0  0  0  0  0  0  0  0  0
   16.3377   71.2114   -8.3321 O   0  0  0  0  0  0  0  0  0  0  0  0
   18.7137   71.4305   -8.6658 C   0  0  2  0  0  0  0  0  0  0  0  0
   20.0742   70.9787   -8.1342 C   0  0  2  0  0  0  0  0  0  0  0  0
   17.5929   70.6055   -8.0292 C   0  0  1  0  0  0  0  0  0  0  0  0
   20.0862   70.9626   -6.6051 C   0  0  1  0  0  0  0  0  0  0  0  0
   17.7466   70.5335   -6.5127 C   0  0  1  0  0  0  0  0  0  0  0  0
   19.3653   71.7443  -10.5042 H   0  0  0  0  0  0  0  0  0  0  0  0
   21.1009   71.8614   -9.5662 H   0  0  0  0  0  0  0  0  0  0  0  0
   16.2275   71.2634   -9.2943 H   0  0  0  0  0  0  0  0  0  0  0  0
   17.1986   69.2145   -4.6522 O   0  0  0  0  0  0  0  0  0  0  0  0
   15.9548   68.9178   -6.5401 O   0  0  0  0  0  0  0  0  0  0  0  0
   16.8614   69.4751   -5.9396 C   0  0  0  0  0  0  0  0  0  0  0  0
  1  4  1  0
  1 24  1  0
  1  2  1  6
  1  3  2  0
 25 28  1  0
 25 24  1  0
 25 26  1  1
 25 27  2  0
  6 11  1  0
  6 12  1  0
 29 36  1  0
 29 37  1  0
  9  7  1  6
  7 13  1  0
 10  8  1  1
  8 14  1  0
  4  5  1  0
 36 28  1  1
 33 30  1  6
 30 38  1  0
 34 31  1  1
 31 39  1  0
 35 32  1  1
 32 40  1  0
 41 43  1  0
 15 19  2  0
 42 43  2  0
 16 22  2  0
 12 17  1  1
 17 19  1  0
 17 20  1  0
 18 19  1  0
 18 22  1  0
 18 23  1  0
  9 10  1  0
  9 11  1  0
 10 12  1  0
 11  5  1  1
 33 34  1  0
 33 35  1  0
 34 36  1  0
 35 37  1  0
 37 43  1  6
 20 21  2  0
 21 22  1  0
M  CHG  3   2  -1  26  -1  41  -1
M  END
>  <COMPND>  (168) 
    udp_gluA.pdb 

>  <AUTHOR>  (168) 
    GENERATED BY OPEN BABEL 3.1.1

>  <MASTER>  (168) 
        0    0    0    0    0    0    0    0   56    0   56    0

>  <minimizedAffinity>  (168) 
-6.69274

>  <CNNscore>  (168) 
0.7844700813

>  <CNNaffinity>  (168) 
4.4517221451

>  <CNN_VS>  (168) 
3.4922428131

>  <CNNaffinity_variance>  (168) 
0.1278021187

$$$$
169
     RDKit          3D

 43 45  0  0  0  0  0  0  0  0999 V2000
   21.8594   72.6245   -5.4820 P   0  0  2  0  0  0  0  0  0  0  0  0
   21.2231   74.0909   -5.2293 O   0  0  0  0  0  0  0  0  0  0  0  0
   23.1168   72.6121   -6.3010 O   0  0  0  0  0  0  0  0  0  0  0  0
   20.6256   71.7626   -6.0757 O   0  0  0  0  0  0  0  0  0  0  0  0
   20.1551   72.0632   -7.3768 C   0  0  0  0  0  0  0  0  0  0  0  0
   18.9724   70.0254   -6.9011 O   0  0  0  0  0  0  0  0  0  0  0  0
   18.2135   70.0072   -9.8020 O   0  0  0  0  0  0  0  0  0  0  0  0
   15.9570   70.9578   -8.6016 O   0  0  0  0  0  0  0  0  0  0  0  0
   18.3632   71.1152   -8.9140 C   0  0  1  0  0  0  0  0  0  0  0  0
   17.1929   71.1807   -7.9556 C   0  0  2  0  0  0  0  0  0  0  0  0
   19.5252   70.8132   -7.9777 C   0  0  1  0  0  0  0  0  0  0  0  0
   17.5385   70.0860   -6.9606 C   0  0  2  0  0  0  0  0  0  0  0  0
   17.4766   70.1771  -10.4101 H   0  0  0  0  0  0  0  0  0  0  0  0
   15.7824   71.6816   -9.2242 H   0  0  0  0  0  0  0  0  0  0  0  0
   16.2948   68.1667   -5.3035 O   0  0  0  0  0  0  0  0  0  0  0  0
   15.6169   71.2433   -1.9391 O   0  0  0  0  0  0  0  0  0  0  0  0
   17.0278   70.3584   -5.6469 N   0  0  0  0  0  0  0  0  0  0  0  0
   15.9574   69.7011   -3.6298 N   0  0  0  0  0  0  0  0  0  0  0  0
   16.4207   69.3234   -4.8970 C   0  0  0  0  0  0  0  0  0  0  0  0
   17.1320   71.6373   -5.1136 C   0  0  0  0  0  0  0  0  0  0  0  0
   16.6859   71.9821   -3.9042 C   0  0  0  0  0  0  0  0  0  0  0  0
   16.0378   70.9599   -3.0566 C   0  0  0  0  0  0  0  0  0  0  0  0
   15.5291   68.9980   -3.0899 H   0  0  0  0  0  0  0  0  0  0  0  0
   22.0252   72.0381   -3.9848 O   0  0  0  0  0  0  0  0  0  0  0  0
   23.2764   72.0776   -2.9619 P   0  0  2  0  0  0  0  0  0  0  0  0
   23.9146   73.5436   -3.2147 O   0  0  0  0  0  0  0  0  0  0  0  0
   24.2458   70.9437   -3.1305 O   0  0  0  0  0  0  0  0  0  0  0  0
   22.6054   72.1726   -1.4979 O   0  0  0  0  0  0  0  0  0  0  0  0
   23.9083   71.1394    0.1886 O   0  0  0  0  0  0  0  0  0  0  0  0
   20.4350   72.0338    2.2391 O   0  0  0  0  0  0  0  0  0  0  0  0
   20.3176   70.9644   -0.4770 O   0  0  0  0  0  0  0  0  0  0  0  0
   22.8233   73.6410    2.6436 O   0  0  0  0  0  0  0  0  0  0  0  0
   21.4545   72.2230    1.2578 C   0  0  2  0  0  0  0  0  0  0  0  0
   21.4942   71.0149    0.3216 C   0  0  2  0  0  0  0  0  0  0  0  0
   22.7910   72.3749    1.9877 C   0  0  1  0  0  0  0  0  0  0  0  0
   22.7165   71.0735   -0.5956 C   0  0  1  0  0  0  0  0  0  0  0  0
   23.9670   72.2975    1.0183 C   0  0  1  0  0  0  0  0  0  0  0  0
   19.5763   71.9348    1.7985 H   0  0  0  0  0  0  0  0  0  0  0  0
   19.5380   70.9274    0.0985 H   0  0  0  0  0  0  0  0  0  0  0  0
   22.0798   73.7032    3.2634 H   0  0  0  0  0  0  0  0  0  0  0  0
   25.6830   73.2966    2.2668 O   0  0  0  0  0  0  0  0  0  0  0  0
   25.8405   71.0530    1.8916 O   0  0  0  0  0  0  0  0  0  0  0  0
   25.2526   72.1158    1.7575 C   0  0  0  0  0  0  0  0  0  0  0  0
  1  4  1  0
  1 24  1  0
  1  2  1  1
  1  3  2  0
 25 28  1  0
 25 24  1  0
 25 26  1  6
 25 27  2  0
  6 11  1  0
  6 12  1  0
 29 36  1  0
 29 37  1  0
  9  7  1  6
  7 13  1  0
 10  8  1  6
  8 14  1  0
  4  5  1  0
 36 28  1  6
 33 30  1  1
 30 38  1  0
 34 31  1  6
 31 39  1  0
 35 32  1  6
 32 40  1  0
 41 43  1  0
 15 19  2  0
 42 43  2  0
 16 22  2  0
 12 17  1  1
 17 19  1  0
 17 20  1  0
 18 19  1  0
 18 22  1  0
 18 23  1  0
  9 10  1  0
  9 11  1  0
 10 12  1  0
 11  5  1  1
 33 34  1  0
 33 35  1  0
 34 36  1  0
 35 37  1  0
 37 43  1  1
 20 21  2  0
 21 22  1  0
M  CHG  3   2  -1  26  -1  41  -1
M  END
>  <COMPND>  (169) 
    udp_gluA.pdb 

>  <AUTHOR>  (169) 
    GENERATED BY OPEN BABEL 3.1.1

>  <MASTER>  (169) 
        0    0    0    0    0    0    0    0   56    0   56    0

>  <minimizedAffinity>  (169) 
-8.12242

>  <CNNscore>  (169) 
0.7819669843

>  <CNNaffinity>  (169) 
4.6436033249

>  <CNN_VS>  (169) 
3.6311445236

>  <CNNaffinity_variance>  (169) 
0.0940672010

$$$$
170
     RDKit          3D

 43 45  0  0  0  0  0  0  0  0999 V2000
   20.5877   71.2847   -1.1358 P   0  0  2  0  0  0  0  0  0  0  0  0
   20.9180   70.6401    0.3114 O   0  0  0  0  0  0  0  0  0  0  0  0
   19.9934   72.6620   -1.0951 O   0  0  0  0  0  0  0  0  0  0  0  0
   19.6921   70.1544   -1.8693 O   0  0  0  0  0  0  0  0  0  0  0  0
   19.3530   70.3392   -3.2315 C   0  0  0  0  0  0  0  0  0  0  0  0
   17.6612   71.4197   -4.5535 O   0  0  0  0  0  0  0  0  0  0  0  0
   15.6729   69.8167   -2.9823 O   0  0  0  0  0  0  0  0  0  0  0  0
   15.8434   68.4265   -5.3221 O   0  0  0  0  0  0  0  0  0  0  0  0
   16.9779   69.4494   -3.4303 C   0  0  1  0  0  0  0  0  0  0  0  0
   16.9652   69.1850   -4.9210 C   0  0  2  0  0  0  0  0  0  0  0  0
   17.8714   70.6783   -3.3323 C   0  0  1  0  0  0  0  0  0  0  0  0
   16.9532   70.5931   -5.4910 C   0  0  2  0  0  0  0  0  0  0  0  0
   15.0839   69.0474   -3.0358 H   0  0  0  0  0  0  0  0  0  0  0  0
   15.8978   67.5387   -4.9337 H   0  0  0  0  0  0  0  0  0  0  0  0
   15.6590   70.1870   -7.9682 O   0  0  0  0  0  0  0  0  0  0  0  0
   19.5488   70.9239  -10.3284 O   0  0  0  0  0  0  0  0  0  0  0  0
   17.6039   70.6729   -6.7681 N   0  0  0  0  0  0  0  0  0  0  0  0
   17.5978   70.5534   -9.1413 N   0  0  0  0  0  0  0  0  0  0  0  0
   16.8626   70.4516   -7.9529 C   0  0  0  0  0  0  0  0  0  0  0  0
   18.9597   70.9688   -6.8385 C   0  0  0  0  0  0  0  0  0  0  0  0
   19.6468   71.0625   -7.9787 C   0  0  0  0  0  0  0  0  0  0  0  0
   18.9470   70.8446   -9.2618 C   0  0  0  0  0  0  0  0  0  0  0  0
   17.1037   70.4014   -9.9792 H   0  0  0  0  0  0  0  0  0  0  0  0
   22.0036   71.1849   -1.9092 O   0  0  0  0  0  0  0  0  0  0  0  0
   22.9354   72.3292   -2.5695 P   0  0  2  0  0  0  0  0  0  0  0  0
   24.0913   71.4785   -3.3182 O   0  0  0  0  0  0  0  0  0  0  0  0
   23.4505   73.3445   -1.5907 O   0  0  0  0  0  0  0  0  0  0  0  0
   22.0434   72.9441   -3.7648 O   0  0  0  0  0  0  0  0  0  0  0  0
   22.6758   75.1642   -4.2943 O   0  0  0  0  0  0  0  0  0  0  0  0
   19.3256   74.6578   -6.6582 O   0  0  0  0  0  0  0  0  0  0  0  0
   19.3620   73.6685   -3.9097 O   0  0  0  0  0  0  0  0  0  0  0  0
   21.9767   74.5796   -7.8485 O   0  0  0  0  0  0  0  0  0  0  0  0
   20.5070   74.2508   -5.9678 C   0  0  2  0  0  0  0  0  0  0  0  0
   20.3469   74.5273   -4.4727 C   0  0  2  0  0  0  0  0  0  0  0  0
   21.6840   75.0486   -6.5336 C   0  0  1  0  0  0  0  0  0  0  0  0
   21.6695   74.3203   -3.7333 C   0  0  1  0  0  0  0  0  0  0  0  0
   22.9317   74.8890   -5.6698 C   0  0  1  0  0  0  0  0  0  0  0  0
   18.5642   74.1639   -6.3153 H   0  0  0  0  0  0  0  0  0  0  0  0
   18.5201   73.7944   -4.3743 H   0  0  0  0  0  0  0  0  0  0  0  0
   21.1905   74.6755   -8.4084 H   0  0  0  0  0  0  0  0  0  0  0  0
   23.4291   76.8610   -6.8384 O   0  0  0  0  0  0  0  0  0  0  0  0
   25.1225   75.8998   -5.6520 O   0  0  0  0  0  0  0  0  0  0  0  0
   23.9608   75.9105   -6.0304 C   0  0  0  0  0  0  0  0  0  0  0  0
  1  4  1  0
  1 24  1  0
  1  2  1  1
  1  3  2  0
 25 28  1  0
 25 24  1  0
 25 26  1  6
 25 27  2  0
  6 11  1  0
  6 12  1  0
 29 36  1  0
 29 37  1  0
  9  7  1  6
  7 13  1  0
 10  8  1  1
  8 14  1  0
  4  5  1  0
 36 28  1  6
 33 30  1  6
 30 38  1  0
 34 31  1  1
 31 39  1  0
 35 32  1  6
 32 40  1  0
 41 43  1  0
 15 19  2  0
 42 43  2  0
 16 22  2  0
 12 17  1  6
 17 19  1  0
 17 20  1  0
 18 19  1  0
 18 22  1  0
 18 23  1  0
  9 10  1  0
  9 11  1  0
 10 12  1  0
 11  5  1  6
 33 34  1  0
 33 35  1  0
 34 36  1  0
 35 37  1  0
 37 43  1  6
 20 21  2  0
 21 22  1  0
M  CHG  3   2  -1  26  -1  41  -1
M  END
>  <COMPND>  (170) 
    udp_gluA.pdb 

>  <AUTHOR>  (170) 
    GENERATED BY OPEN BABEL 3.1.1

>  <MASTER>  (170) 
        0    0    0    0    0    0    0    0   56    0   56    0

>  <minimizedAffinity>  (170) 
-7.56875

>  <CNNscore>  (170) 
0.7684411407

>  <CNNaffinity>  (170) 
4.4763369560

>  <CNN_VS>  (170) 
3.4398014545

>  <CNNaffinity_variance>  (170) 
0.5354501009

$$$$
171
     RDKit          3D

 43 45  0  0  0  0  0  0  0  0999 V2000
   23.4871   72.1500   -3.3696 P   0  0  2  0  0  0  0  0  0  0  0  0
   24.3004   73.0803   -4.4146 O   0  0  0  0  0  0  0  0  0  0  0  0
   24.1125   70.8148   -3.0904 O   0  0  0  0  0  0  0  0  0  0  0  0
   21.9858   72.1106   -3.9715 O   0  0  0  0  0  0  0  0  0  0  0  0
   21.2291   70.9231   -3.8237 C   0  0  0  0  0  0  0  0  0  0  0  0
   19.1820   71.8396   -4.6883 O   0  0  0  0  0  0  0  0  0  0  0  0
   17.8344   70.5672   -2.3311 O   0  0  0  0  0  0  0  0  0  0  0  0
   17.2713   68.8246   -4.3515 O   0  0  0  0  0  0  0  0  0  0  0  0
   18.9333   70.0919   -3.1089 C   0  0  1  0  0  0  0  0  0  0  0  0
   18.4478   69.5990   -4.4556 C   0  0  2  0  0  0  0  0  0  0  0  0
   19.7873   71.2910   -3.4975 C   0  0  1  0  0  0  0  0  0  0  0  0
   18.2265   70.9007   -5.2069 C   0  0  2  0  0  0  0  0  0  0  0  0
   17.2742   69.8188   -2.0710 H   0  0  0  0  0  0  0  0  0  0  0  0
   17.4644   68.0069   -3.8657 H   0  0  0  0  0  0  0  0  0  0  0  0
   16.2685   69.9682   -7.0160 O   0  0  0  0  0  0  0  0  0  0  0  0
   19.1221   70.3979  -10.6099 O   0  0  0  0  0  0  0  0  0  0  0  0
   18.4310   70.7591   -6.6207 N   0  0  0  0  0  0  0  0  0  0  0  0
   17.6919   70.1821   -8.8041 N   0  0  0  0  0  0  0  0  0  0  0  0
   17.3820   70.2814   -7.4413 C   0  0  0  0  0  0  0  0  0  0  0  0
   19.6581   71.0929   -7.1809 C   0  0  0  0  0  0  0  0  0  0  0  0
   19.9386   70.9930   -8.4817 C   0  0  0  0  0  0  0  0  0  0  0  0
   18.8974   70.5013   -9.4078 C   0  0  0  0  0  0  0  0  0  0  0  0
   16.9780   69.8500   -9.3951 H   0  0  0  0  0  0  0  0  0  0  0  0
   23.3347   73.1061   -2.0752 O   0  0  0  0  0  0  0  0  0  0  0  0
   22.8140   72.7900   -0.5776 P   0  0  2  0  0  0  0  0  0  0  0  0
   23.4126   74.0191    0.2892 O   0  0  0  0  0  0  0  0  0  0  0  0
   23.1946   71.4303   -0.0674 O   0  0  0  0  0  0  0  0  0  0  0  0
   21.2252   73.0647   -0.6303 O   0  0  0  0  0  0  0  0  0  0  0  0
   20.6124   75.1180   -1.6391 O   0  0  0  0  0  0  0  0  0  0  0  0
   17.0207   73.8702   -0.0234 O   0  0  0  0  0  0  0  0  0  0  0  0
   19.5032   73.5876    1.4904 O   0  0  0  0  0  0  0  0  0  0  0  0
   17.4910   73.6444   -2.8832 O   0  0  0  0  0  0  0  0  0  0  0  0
   18.3085   73.7083   -0.6177 C   0  0  2  0  0  0  0  0  0  0  0  0
   19.3715   74.3336    0.2860 C   0  0  2  0  0  0  0  0  0  0  0  0
   18.2915   74.4048   -1.9802 C   0  0  1  0  0  0  0  0  0  0  0  0
   20.7276   74.3848   -0.4190 C   0  0  1  0  0  0  0  0  0  0  0  0
   19.6975   74.5284   -2.5603 C   0  0  1  0  0  0  0  0  0  0  0  0
   17.0076   73.4355    0.8439 H   0  0  0  0  0  0  0  0  0  0  0  0
   18.6463   73.5508    1.9429 H   0  0  0  0  0  0  0  0  0  0  0  0
   16.5935   73.5582   -2.5257 H   0  0  0  0  0  0  0  0  0  0  0  0
   20.4586   76.5779   -3.4098 O   0  0  0  0  0  0  0  0  0  0  0  0
   19.1441   75.3100   -4.7748 O   0  0  0  0  0  0  0  0  0  0  0  0
   19.7154   75.4838   -3.7088 C   0  0  0  0  0  0  0  0  0  0  0  0
  1  4  1  0
  1 24  1  0
  1  2  1  6
  1  3  2  0
 25 28  1  0
 25 24  1  0
 25 26  1  1
 25 27  2  0
  6 11  1  0
  6 12  1  0
 29 36  1  0
 29 37  1  0
  9  7  1  1
  7 13  1  0
 10  8  1  1
  8 14  1  0
  4  5  1  0
 36 28  1  6
 33 30  1  1
 30 38  1  0
 34 31  1  1
 31 39  1  0
 35 32  1  6
 32 40  1  0
 41 43  1  0
 15 19  2  0
 42 43  2  0
 16 22  2  0
 12 17  1  6
 17 19  1  0
 17 20  1  0
 18 19  1  0
 18 22  1  0
 18 23  1  0
  9 10  1  0
  9 11  1  0
 10 12  1  0
 11  5  1  6
 33 34  1  0
 33 35  1  0
 34 36  1  0
 35 37  1  0
 37 43  1  6
 20 21  2  0
 21 22  1  0
M  CHG  3   2  -1  26  -1  41  -1
M  END
>  <COMPND>  (171) 
    udp_gluA.pdb 

>  <AUTHOR>  (171) 
    GENERATED BY OPEN BABEL 3.1.1

>  <MASTER>  (171) 
        0    0    0    0    0    0    0    0   56    0   56    0

>  <minimizedAffinity>  (171) 
-6.54887

>  <CNNscore>  (171) 
0.7561120987

>  <CNNaffinity>  (171) 
4.4437875748

>  <CNN_VS>  (171) 
3.3600015640

>  <CNNaffinity_variance>  (171) 
0.2062510997

$$$$
172
     RDKit          3D

 43 45  0  0  0  0  0  0  0  0999 V2000
   23.3778   73.7383   -4.1046 P   0  0  2  0  0  0  0  0  0  0  0  0
   24.2155   72.3589   -4.2248 O   0  0  0  0  0  0  0  0  0  0  0  0
   24.0253   74.9307   -4.7454 O   0  0  0  0  0  0  0  0  0  0  0  0
   23.0727   73.8708   -2.5211 O   0  0  0  0  0  0  0  0  0  0  0  0
   21.7589   73.6112   -2.0617 C   0  0  0  0  0  0  0  0  0  0  0  0
   22.9152   71.7325   -1.1072 O   0  0  0  0  0  0  0  0  0  0  0  0
   20.2070   70.5146   -0.6905 O   0  0  0  0  0  0  0  0  0  0  0  0
   20.8229   71.4612    1.7916 O   0  0  0  0  0  0  0  0  0  0  0  0
   20.6076   71.8815   -0.5936 C   0  0  1  0  0  0  0  0  0  0  0  0
   21.4009   72.1065    0.6762 C   0  0  2  0  0  0  0  0  0  0  0  0
   21.6508   72.1428   -1.6715 C   0  0  1  0  0  0  0  0  0  0  0  0
   22.7577   71.5319    0.3064 C   0  0  2  0  0  0  0  0  0  0  0  0
   19.5405   70.3237   -0.0115 H   0  0  0  0  0  0  0  0  0  0  0  0
   19.9614   71.8630    1.9870 H   0  0  0  0  0  0  0  0  0  0  0  0
   24.7227   70.1928    1.8303 O   0  0  0  0  0  0  0  0  0  0  0  0
   26.8458   74.1415    2.8997 O   0  0  0  0  0  0  0  0  0  0  0  0
   23.8354   72.1856    0.9936 N   0  0  0  0  0  0  0  0  0  0  0  0
   25.7777   72.1608    2.3623 N   0  0  0  0  0  0  0  0  0  0  0  0
   24.7691   71.4204    1.7318 C   0  0  0  0  0  0  0  0  0  0  0  0
   23.9605   73.5681    0.9313 C   0  0  0  0  0  0  0  0  0  0  0  0
   24.9273   74.2598    1.5375 C   0  0  0  0  0  0  0  0  0  0  0  0
   25.9430   73.5360    2.3299 C   0  0  0  0  0  0  0  0  0  0  0  0
   26.4383   71.6501    2.8838 H   0  0  0  0  0  0  0  0  0  0  0  0
   21.9367   73.3425   -4.7204 O   0  0  0  0  0  0  0  0  0  0  0  0
   21.3051   73.5907   -6.1878 P   0  0  2  0  0  0  0  0  0  0  0  0
   22.4075   72.9414   -7.1796 O   0  0  0  0  0  0  0  0  0  0  0  0
   20.9772   75.0258   -6.4825 O   0  0  0  0  0  0  0  0  0  0  0  0
   20.0451   72.5863   -6.2663 O   0  0  0  0  0  0  0  0  0  0  0  0
   19.7081   70.4001   -5.4200 O   0  0  0  0  0  0  0  0  0  0  0  0
   17.6236   70.2527   -8.9839 O   0  0  0  0  0  0  0  0  0  0  0  0
   20.2305   71.5640   -8.8463 O   0  0  0  0  0  0  0  0  0  0  0  0
   16.1914   70.4731   -6.4637 O   0  0  0  0  0  0  0  0  0  0  0  0
   18.1522   70.8652   -7.8077 C   0  0  2  0  0  0  0  0  0  0  0  0
   19.6771   70.7552   -7.8146 C   0  0  2  0  0  0  0  0  0  0  0  0
   17.5715   70.1371   -6.5935 C   0  0  1  0  0  0  0  0  0  0  0  0
   20.2632   71.1916   -6.4712 C   0  0  1  0  0  0  0  0  0  0  0  0
   18.2929   70.5335   -5.3086 C   0  0  1  0  0  0  0  0  0  0  0  0
   17.9788   70.6990   -9.7687 H   0  0  0  0  0  0  0  0  0  0  0  0
   19.8627   71.2927   -9.7016 H   0  0  0  0  0  0  0  0  0  0  0  0
   15.7208   70.2259   -7.2751 H   0  0  0  0  0  0  0  0  0  0  0  0
   18.8005   69.7624   -3.1524 O   0  0  0  0  0  0  0  0  0  0  0  0
   17.0397   68.7828   -4.2197 O   0  0  0  0  0  0  0  0  0  0  0  0
   17.9537   69.5934   -4.1980 C   0  0  0  0  0  0  0  0  0  0  0  0
  1  4  1  0
  1 24  1  0
  1  2  1  1
  1  3  2  0
 25 28  1  0
 25 24  1  0
 25 26  1  6
 25 27  2  0
  6 11  1  0
  6 12  1  0
 29 36  1  0
 29 37  1  0
  9  7  1  1
  7 13  1  0
 10  8  1  1
  8 14  1  0
  4  5  1  0
 36 28  1  1
 33 30  1  6
 30 38  1  0
 34 31  1  6
 31 39  1  0
 35 32  1  1
 32 40  1  0
 41 43  1  0
 15 19  2  0
 42 43  2  0
 16 22  2  0
 12 17  1  1
 17 19  1  0
 17 20  1  0
 18 19  1  0
 18 22  1  0
 18 23  1  0
  9 10  1  0
  9 11  1  0
 10 12  1  0
 11  5  1  1
 33 34  1  0
 33 35  1  0
 34 36  1  0
 35 37  1  0
 37 43  1  1
 20 21  2  0
 21 22  1  0
M  CHG  3   2  -1  26  -1  41  -1
M  END
>  <COMPND>  (172) 
    udp_gluA.pdb 

>  <AUTHOR>  (172) 
    GENERATED BY OPEN BABEL 3.1.1

>  <MASTER>  (172) 
        0    0    0    0    0    0    0    0   56    0   56    0

>  <minimizedAffinity>  (172) 
-7.65468

>  <CNNscore>  (172) 
0.7471617460

>  <CNNaffinity>  (172) 
4.4934072495

>  <CNN_VS>  (172) 
3.3573019505

>  <CNNaffinity_variance>  (172) 
0.1219425574

$$$$
173
     RDKit          3D

 43 45  0  0  0  0  0  0  0  0999 V2000
   19.2733   73.0041   -1.5857 P   0  0  2  0  0  0  0  0  0  0  0  0
   18.8423   71.5473   -2.1430 O   0  0  0  0  0  0  0  0  0  0  0  0
   18.1498   73.9905   -1.4556 O   0  0  0  0  0  0  0  0  0  0  0  0
   20.4887   73.4478   -2.5572 O   0  0  0  0  0  0  0  0  0  0  0  0
   20.2830   73.4109   -3.9575 C   0  0  0  0  0  0  0  0  0  0  0  0
   20.5800   71.3064   -5.0803 O   0  0  0  0  0  0  0  0  0  0  0  0
   23.2538   72.3550   -5.9418 O   0  0  0  0  0  0  0  0  0  0  0  0
   21.7271   72.7110   -8.1731 O   0  0  0  0  0  0  0  0  0  0  0  0
   22.0181   73.0524   -5.7833 C   0  0  1  0  0  0  0  0  0  0  0  0
   21.0763   72.7149   -6.9197 C   0  0  2  0  0  0  0  0  0  0  0  0
   21.2943   72.4585   -4.5826 C   0  0  1  0  0  0  0  0  0  0  0  0
   20.5759   71.3383   -6.5164 C   0  0  2  0  0  0  0  0  0  0  0  0
   23.7343   72.7170   -6.7033 H   0  0  0  0  0  0  0  0  0  0  0  0
   22.0266   73.6097   -8.3846 H   0  0  0  0  0  0  0  0  0  0  0  0
   19.9606   70.2242   -9.0376 O   0  0  0  0  0  0  0  0  0  0  0  0
   15.4295   70.3928   -8.2101 O   0  0  0  0  0  0  0  0  0  0  0  0
   19.2438   71.0804   -6.9854 N   0  0  0  0  0  0  0  0  0  0  0  0
   17.7045   70.3102   -8.6234 N   0  0  0  0  0  0  0  0  0  0  0  0
   19.0437   70.5183   -8.2684 C   0  0  0  0  0  0  0  0  0  0  0  0
   18.1537   71.3815   -6.1779 C   0  0  0  0  0  0  0  0  0  0  0  0
   16.8829   71.1773   -6.5301 C   0  0  0  0  0  0  0  0  0  0  0  0
   16.5870   70.5941   -7.8551 C   0  0  0  0  0  0  0  0  0  0  0  0
   17.5399   69.9217   -9.5130 H   0  0  0  0  0  0  0  0  0  0  0  0
   20.0259   72.6540   -0.1987 O   0  0  0  0  0  0  0  0  0  0  0  0
   21.3179   71.7306    0.1040 P   0  0  2  0  0  0  0  0  0  0  0  0
   21.9207   71.4429   -1.3705 O   0  0  0  0  0  0  0  0  0  0  0  0
   21.0181   70.4944    0.9015 O   0  0  0  0  0  0  0  0  0  0  0  0
   22.3825   72.7289    0.7914 O   0  0  0  0  0  0  0  0  0  0  0  0
   23.9219   72.0199    2.4458 O   0  0  0  0  0  0  0  0  0  0  0  0
   23.7685   76.0913    3.1299 O   0  0  0  0  0  0  0  0  0  0  0  0
   21.3257   74.5913    2.5665 O   0  0  0  0  0  0  0  0  0  0  0  0
   26.0645   74.9236    1.7824 O   0  0  0  0  0  0  0  0  0  0  0  0
   23.7222   74.8989    2.3463 C   0  0  2  0  0  0  0  0  0  0  0  0
   22.5900   74.0015    2.8465 C   0  0  2  0  0  0  0  0  0  0  0  0
   25.0690   74.1864    2.4895 C   0  0  1  0  0  0  0  0  0  0  0  0
   22.6532   72.6227    2.1879 C   0  0  1  0  0  0  0  0  0  0  0  0
   25.0139   72.7715    1.9206 C   0  0  1  0  0  0  0  0  0  0  0  0
   22.9230   76.5611    3.0544 H   0  0  0  0  0  0  0  0  0  0  0  0
   21.2789   75.4667    2.9812 H   0  0  0  0  0  0  0  0  0  0  0  0
   26.1096   75.8262    2.1347 H   0  0  0  0  0  0  0  0  0  0  0  0
   26.9230   72.6614    3.2788 O   0  0  0  0  0  0  0  0  0  0  0  0
   26.4973   70.8687    1.9357 O   0  0  0  0  0  0  0  0  0  0  0  0
   26.2048   71.9794    2.3525 C   0  0  0  0  0  0  0  0  0  0  0  0
  1  4  1  0
  1 24  1  0
  1  2  1  6
  1  3  2  0
 25 28  1  0
 25 24  1  0
 25 26  1  6
 25 27  2  0
  6 11  1  0
  6 12  1  0
 29 36  1  0
 29 37  1  0
  9  7  1  6
  7 13  1  0
 10  8  1  6
  8 14  1  0
  4  5  1  0
 36 28  1  6
 33 30  1  1
 30 38  1  0
 34 31  1  6
 31 39  1  0
 35 32  1  6
 32 40  1  0
 41 43  1  0
 15 19  2  0
 42 43  2  0
 16 22  2  0
 12 17  1  1
 17 19  1  0
 17 20  1  0
 18 19  1  0
 18 22  1  0
 18 23  1  0
  9 10  1  0
  9 11  1  0
 10 12  1  0
 11  5  1  6
 33 34  1  0
 33 35  1  0
 34 36  1  0
 35 37  1  0
 37 43  1  1
 20 21  2  0
 21 22  1  0
M  CHG  3   2  -1  26  -1  41  -1
M  END
>  <COMPND>  (173) 
    udp_gluA.pdb 

>  <AUTHOR>  (173) 
    GENERATED BY OPEN BABEL 3.1.1

>  <MASTER>  (173) 
        0    0    0    0    0    0    0    0   56    0   56    0

>  <minimizedAffinity>  (173) 
-6.68797

>  <CNNscore>  (173) 
0.7459382415

>  <CNNaffinity>  (173) 
4.3241190910

>  <CNN_VS>  (173) 
3.2255258560

>  <CNNaffinity_variance>  (173) 
0.0577982664

$$$$
174
     RDKit          3D

 43 45  0  0  0  0  0  0  0  0999 V2000
   20.2609   72.2208   -0.8209 P   0  0  2  0  0  0  0  0  0  0  0  0
   20.5002   70.6808   -0.3851 O   0  0  0  0  0  0  0  0  0  0  0  0
   18.8220   72.6360   -0.9160 O   0  0  0  0  0  0  0  0  0  0  0  0
   21.1293   72.3805   -2.1767 O   0  0  0  0  0  0  0  0  0  0  0  0
   20.4804   72.1944   -3.4211 C   0  0  0  0  0  0  0  0  0  0  0  0
   20.8515   70.7673   -5.3194 O   0  0  0  0  0  0  0  0  0  0  0  0
   23.2866   72.4316   -5.8598 O   0  0  0  0  0  0  0  0  0  0  0  0
   21.4790   73.4230   -7.6448 O   0  0  0  0  0  0  0  0  0  0  0  0
   22.0147   72.8305   -5.3482 C   0  0  1  0  0  0  0  0  0  0  0  0
   20.9837   72.8414   -6.4570 C   0  0  2  0  0  0  0  0  0  0  0  0
   21.5008   71.7167   -4.4463 C   0  0  1  0  0  0  0  0  0  0  0  0
   20.6746   71.3624   -6.6147 C   0  0  2  0  0  0  0  0  0  0  0  0
   23.6351   73.1276   -6.4392 H   0  0  0  0  0  0  0  0  0  0  0  0
   21.6601   74.3643   -7.4928 H   0  0  0  0  0  0  0  0  0  0  0  0
   19.9086   71.0912   -9.3195 O   0  0  0  0  0  0  0  0  0  0  0  0
   15.4833   70.4648   -8.1932 O   0  0  0  0  0  0  0  0  0  0  0  0
   19.3290   71.1279   -7.0565 N   0  0  0  0  0  0  0  0  0  0  0  0
   17.7051   70.7805   -8.7561 N   0  0  0  0  0  0  0  0  0  0  0  0
   19.0508   71.0072   -8.4386 C   0  0  0  0  0  0  0  0  0  0  0  0
   18.3027   71.0182   -6.1261 C   0  0  0  0  0  0  0  0  0  0  0  0
   17.0248   70.8020   -6.4440 C   0  0  0  0  0  0  0  0  0  0  0  0
   16.6493   70.6647   -7.8665 C   0  0  0  0  0  0  0  0  0  0  0  0
   17.4865   70.6950   -9.7122 H   0  0  0  0  0  0  0  0  0  0  0  0
   21.1289   73.0445    0.2658 O   0  0  0  0  0  0  0  0  0  0  0  0
   22.7062   73.3951    0.3189 P   0  0  2  0  0  0  0  0  0  0  0  0
   22.7995   74.8018   -0.4767 O   0  0  0  0  0  0  0  0  0  0  0  0
   23.5957   72.3158   -0.2269 O   0  0  0  0  0  0  0  0  0  0  0  0
   22.9884   73.7796    1.8600 O   0  0  0  0  0  0  0  0  0  0  0  0
   24.8298   73.3012    3.2706 O   0  0  0  0  0  0  0  0  0  0  0  0
   21.6795   73.2141    5.9420 O   0  0  0  0  0  0  0  0  0  0  0  0
   21.4154   71.9944    3.3005 O   0  0  0  0  0  0  0  0  0  0  0  0
   23.4781   75.4971    5.8808 O   0  0  0  0  0  0  0  0  0  0  0  0
   22.3948   73.6453    4.7843 C   0  0  2  0  0  0  0  0  0  0  0  0
   22.6408   72.4520    3.8607 C   0  0  2  0  0  0  0  0  0  0  0  0
   23.7253   74.2439    5.2462 C   0  0  1  0  0  0  0  0  0  0  0  0
   23.5977   72.8252    2.7276 C   0  0  1  0  0  0  0  0  0  0  0  0
   24.6721   74.4706    4.0711 C   0  0  1  0  0  0  0  0  0  0  0  0
   20.8302   72.8299    5.6730 H   0  0  0  0  0  0  0  0  0  0  0  0
   20.8033   71.7561    4.0139 H   0  0  0  0  0  0  0  0  0  0  0  0
   22.8766   75.3668    6.6305 H   0  0  0  0  0  0  0  0  0  0  0  0
   26.1767   76.0129    4.9977 O   0  0  0  0  0  0  0  0  0  0  0  0
   26.9722   73.9231    4.5517 O   0  0  0  0  0  0  0  0  0  0  0  0
   26.0610   74.7372    4.5528 C   0  0  0  0  0  0  0  0  0  0  0  0
  1  4  1  0
  1 24  1  0
  1  2  1  1
  1  3  2  0
 25 28  1  0
 25 24  1  0
 25 26  1  6
 25 27  2  0
  6 11  1  0
  6 12  1  0
 29 36  1  0
 29 37  1  0
  9  7  1  6
  7 13  1  0
 10  8  1  6
  8 14  1  0
  4  5  1  0
 36 28  1  1
 33 30  1  1
 30 38  1  0
 34 31  1  6
 31 39  1  0
 35 32  1  6
 32 40  1  0
 41 43  1  0
 15 19  2  0
 42 43  2  0
 16 22  2  0
 12 17  1  1
 17 19  1  0
 17 20  1  0
 18 19  1  0
 18 22  1  0
 18 23  1  0
  9 10  1  0
  9 11  1  0
 10 12  1  0
 11  5  1  1
 33 34  1  0
 33 35  1  0
 34 36  1  0
 35 37  1  0
 37 43  1  1
 20 21  2  0
 21 22  1  0
M  CHG  3   2  -1  26  -1  41  -1
M  END
>  <COMPND>  (174) 
    udp_gluA.pdb 

>  <AUTHOR>  (174) 
    GENERATED BY OPEN BABEL 3.1.1

>  <MASTER>  (174) 
        0    0    0    0    0    0    0    0   56    0   56    0

>  <minimizedAffinity>  (174) 
-6.78532

>  <CNNscore>  (174) 
0.7192876339

>  <CNNaffinity>  (174) 
4.2263264656

>  <CNN_VS>  (174) 
3.0399444103

>  <CNNaffinity_variance>  (174) 
0.0799460039

$$$$
175
     RDKit          3D

 43 45  0  0  0  0  0  0  0  0999 V2000
   23.6542   72.5922   -3.5508 P   0  0  2  0  0  0  0  0  0  0  0  0
   24.0614   71.0878   -3.1152 O   0  0  0  0  0  0  0  0  0  0  0  0
   24.7194   73.3480   -4.2897 O   0  0  0  0  0  0  0  0  0  0  0  0
   23.1386   73.2691   -2.1746 O   0  0  0  0  0  0  0  0  0  0  0  0
   22.4043   74.4773   -2.2491 C   0  0  0  0  0  0  0  0  0  0  0  0
   21.1167   73.0296   -0.8264 O   0  0  0  0  0  0  0  0  0  0  0  0
   19.4552   75.4427   -0.1879 O   0  0  0  0  0  0  0  0  0  0  0  0
   21.0788   75.2429    1.9939 O   0  0  0  0  0  0  0  0  0  0  0  0
   20.8600   75.3500   -0.4254 C   0  0  1  0  0  0  0  0  0  0  0  0
   21.5533   74.7271    0.7678 C   0  0  2  0  0  0  0  0  0  0  0  0
   21.0854   74.3027   -1.5073 C   0  0  1  0  0  0  0  0  0  0  0  0
   21.2280   73.2541    0.5880 C   0  0  2  0  0  0  0  0  0  0  0  0
   19.2863   76.1060    0.5000 H   0  0  0  0  0  0  0  0  0  0  0  0
   21.3109   76.1829    2.0607 H   0  0  0  0  0  0  0  0  0  0  0  0
   21.0060   70.4468    0.8038 O   0  0  0  0  0  0  0  0  0  0  0  0
   25.2191   70.0715    2.6350 O   0  0  0  0  0  0  0  0  0  0  0  0
   22.2518   72.3983    1.1174 N   0  0  0  0  0  0  0  0  0  0  0  0
   23.1042   70.2627    1.7166 N   0  0  0  0  0  0  0  0  0  0  0  0
   22.0400   71.0008    1.1820 C   0  0  0  0  0  0  0  0  0  0  0  0
   23.4494   72.9437    1.5639 C   0  0  0  0  0  0  0  0  0  0  0  0
   24.4547   72.2273    2.0708 C   0  0  0  0  0  0  0  0  0  0  0  0
   24.3136   70.7600    2.1742 C   0  0  0  0  0  0  0  0  0  0  0  0
   22.9792   69.2878    1.7736 H   0  0  0  0  0  0  0  0  0  0  0  0
   22.2856   72.3713   -4.3821 O   0  0  0  0  0  0  0  0  0  0  0  0
   21.7649   73.0299   -5.7637 P   0  0  2  0  0  0  0  0  0  0  0  0
   22.7902   72.4355   -6.8663 O   0  0  0  0  0  0  0  0  0  0  0  0
   21.6840   74.5289   -5.7393 O   0  0  0  0  0  0  0  0  0  0  0  0
   20.3648   72.2887   -6.0683 O   0  0  0  0  0  0  0  0  0  0  0  0
   19.6716   70.1189   -5.4197 O   0  0  0  0  0  0  0  0  0  0  0  0
   17.6184   70.6320   -8.9679 O   0  0  0  0  0  0  0  0  0  0  0  0
   20.4022   71.4858   -8.7310 O   0  0  0  0  0  0  0  0  0  0  0  0
   16.2213   70.8543   -6.4283 O   0  0  0  0  0  0  0  0  0  0  0  0
   18.2301   71.0427   -7.7451 C   0  0  2  0  0  0  0  0  0  0  0  0
   19.7171   70.6880   -7.7724 C   0  0  2  0  0  0  0  0  0  0  0  0
   17.5297   70.3121   -6.5972 C   0  0  1  0  0  0  0  0  0  0  0  0
   20.3557   70.9012   -6.3993 C   0  0  1  0  0  0  0  0  0  0  0  0
   18.2958   70.4694   -5.2870 C   0  0  1  0  0  0  0  0  0  0  0  0
   18.0473   71.0835   -9.7118 H   0  0  0  0  0  0  0  0  0  0  0  0
   20.0020   71.3557   -9.6047 H   0  0  0  0  0  0  0  0  0  0  0  0
   15.7232   70.7606   -7.2553 H   0  0  0  0  0  0  0  0  0  0  0  0
   18.7406   69.2895   -3.3092 O   0  0  0  0  0  0  0  0  0  0  0  0
   16.6999   68.9695   -4.2747 O   0  0  0  0  0  0  0  0  0  0  0  0
   17.8002   69.5007   -4.2631 C   0  0  0  0  0  0  0  0  0  0  0  0
  1  4  1  0
  1 24  1  0
  1  2  1  1
  1  3  2  0
 25 28  1  0
 25 24  1  0
 25 26  1  6
 25 27  2  0
  6 11  1  0
  6 12  1  0
 29 36  1  0
 29 37  1  0
  9  7  1  1
  7 13  1  0
 10  8  1  1
  8 14  1  0
  4  5  1  0
 36 28  1  1
 33 30  1  6
 30 38  1  0
 34 31  1  6
 31 39  1  0
 35 32  1  1
 32 40  1  0
 41 43  1  0
 15 19  2  0
 42 43  2  0
 16 22  2  0
 12 17  1  6
 17 19  1  0
 17 20  1  0
 18 19  1  0
 18 22  1  0
 18 23  1  0
  9 10  1  0
  9 11  1  0
 10 12  1  0
 11  5  1  1
 33 34  1  0
 33 35  1  0
 34 36  1  0
 35 37  1  0
 37 43  1  1
 20 21  2  0
 21 22  1  0
M  CHG  3   2  -1  26  -1  41  -1
M  END
>  <COMPND>  (175) 
    udp_gluA.pdb 

>  <AUTHOR>  (175) 
    GENERATED BY OPEN BABEL 3.1.1

>  <MASTER>  (175) 
        0    0    0    0    0    0    0    0   56    0   56    0

>  <minimizedAffinity>  (175) 
-7.74998

>  <CNNscore>  (175) 
0.7148602009

>  <CNNaffinity>  (175) 
4.5501499176

>  <CNN_VS>  (175) 
3.2527210712

>  <CNNaffinity_variance>  (175) 
0.0996047035

$$$$
176
     RDKit          3D

 43 45  0  0  0  0  0  0  0  0999 V2000
   21.9380   72.6539   -5.7785 P   0  0  2  0  0  0  0  0  0  0  0  0
   21.4328   74.1300   -5.3487 O   0  0  0  0  0  0  0  0  0  0  0  0
   23.0572   72.6335   -6.7780 O   0  0  0  0  0  0  0  0  0  0  0  0
   20.5816   71.8943   -6.2269 O   0  0  0  0  0  0  0  0  0  0  0  0
   20.0709   72.1327   -7.5257 C   0  0  0  0  0  0  0  0  0  0  0  0
   18.9347   70.0945   -6.9492 O   0  0  0  0  0  0  0  0  0  0  0  0
   18.1586   69.9278   -9.8408 O   0  0  0  0  0  0  0  0  0  0  0  0
   15.8898   70.8849   -8.6691 O   0  0  0  0  0  0  0  0  0  0  0  0
   18.2902   71.0781   -9.0053 C   0  0  1  0  0  0  0  0  0  0  0  0
   17.1247   71.1629   -8.0427 C   0  0  2  0  0  0  0  0  0  0  0  0
   19.4641   70.8436   -8.0645 C   0  0  1  0  0  0  0  0  0  0  0  0
   17.4995   70.1223   -7.0013 C   0  0  2  0  0  0  0  0  0  0  0  0
   17.4146   70.0542  -10.4508 H   0  0  0  0  0  0  0  0  0  0  0  0
   15.6961   71.5756   -9.3228 H   0  0  0  0  0  0  0  0  0  0  0  0
   16.3888   68.2390   -5.2136 O   0  0  0  0  0  0  0  0  0  0  0  0
   15.5802   71.4686   -2.0262 O   0  0  0  0  0  0  0  0  0  0  0  0
   16.9911   70.4438   -5.6978 N   0  0  0  0  0  0  0  0  0  0  0  0
   15.9862   69.8495   -3.6282 N   0  0  0  0  0  0  0  0  0  0  0  0
   16.4538   69.4231   -4.8783 C   0  0  0  0  0  0  0  0  0  0  0  0
   17.0292   71.7562   -5.2427 C   0  0  0  0  0  0  0  0  0  0  0  0
   16.5798   72.1473   -4.0486 C   0  0  0  0  0  0  0  0  0  0  0  0
   16.0021   71.1429   -3.1317 C   0  0  0  0  0  0  0  0  0  0  0  0
   15.6057   69.1571   -3.0407 H   0  0  0  0  0  0  0  0  0  0  0  0
   22.2894   71.9632   -4.3599 O   0  0  0  0  0  0  0  0  0  0  0  0
   23.5599   72.1446   -3.3769 P   0  0  2  0  0  0  0  0  0  0  0  0
   24.5163   73.1644   -4.1928 O   0  0  0  0  0  0  0  0  0  0  0  0
   24.2228   70.8563   -2.9832 O   0  0  0  0  0  0  0  0  0  0  0  0
   22.9991   73.0144   -2.1394 O   0  0  0  0  0  0  0  0  0  0  0  0
   21.1731   72.2777   -0.8233 O   0  0  0  0  0  0  0  0  0  0  0  0
   21.2036   76.3310   -0.0249 O   0  0  0  0  0  0  0  0  0  0  0  0
   21.6236   75.3545   -2.7460 O   0  0  0  0  0  0  0  0  0  0  0  0
   22.2150   74.4480    1.9455 O   0  0  0  0  0  0  0  0  0  0  0  0
   21.7731   75.0610   -0.3423 C   0  0  2  0  0  0  0  0  0  0  0  0
   21.1840   74.5503   -1.6575 C   0  0  2  0  0  0  0  0  0  0  0  0
   21.4431   74.0962    0.7988 C   0  0  1  0  0  0  0  0  0  0  0  0
   21.5932   73.0992   -1.9133 C   0  0  1  0  0  0  0  0  0  0  0  0
   21.7637   72.6535    0.4189 C   0  0  1  0  0  0  0  0  0  0  0  0
   21.4004   76.9607   -0.7362 H   0  0  0  0  0  0  0  0  0  0  0  0
   21.3675   76.2767   -2.5902 H   0  0  0  0  0  0  0  0  0  0  0  0
   22.0204   75.3642    2.1976 H   0  0  0  0  0  0  0  0  0  0  0  0
   21.2893   70.4210    0.9596 O   0  0  0  0  0  0  0  0  0  0  0  0
   20.5832   72.0188    2.4251 O   0  0  0  0  0  0  0  0  0  0  0  0
   21.1437   71.6996    1.3874 C   0  0  0  0  0  0  0  0  0  0  0  0
  1  4  1  0
  1 24  1  0
  1  2  1  1
  1  3  2  0
 25 28  1  0
 25 24  1  0
 25 26  1  6
 25 27  2  0
  6 11  1  0
  6 12  1  0
 29 36  1  0
 29 37  1  0
  9  7  1  6
  7 13  1  0
 10  8  1  6
  8 14  1  0
  4  5  1  0
 36 28  1  1
 33 30  1  1
 30 38  1  0
 34 31  1  6
 31 39  1  0
 35 32  1  1
 32 40  1  0
 41 43  1  0
 15 19  2  0
 42 43  2  0
 16 22  2  0
 12 17  1  1
 17 19  1  0
 17 20  1  0
 18 19  1  0
 18 22  1  0
 18 23  1  0
  9 10  1  0
  9 11  1  0
 10 12  1  0
 11  5  1  1
 33 34  1  0
 33 35  1  0
 34 36  1  0
 35 37  1  0
 37 43  1  1
 20 21  2  0
 21 22  1  0
M  CHG  3   2  -1  26  -1  41  -1
M  END
>  <COMPND>  (176) 
    udp_gluA.pdb 

>  <AUTHOR>  (176) 
    GENERATED BY OPEN BABEL 3.1.1

>  <MASTER>  (176) 
        0    0    0    0    0    0    0    0   56    0   56    0

>  <minimizedAffinity>  (176) 
-7.98088

>  <CNNscore>  (176) 
0.6982626915

>  <CNNaffinity>  (176) 
4.4997882843

>  <CNN_VS>  (176) 
3.1420342922

>  <CNNaffinity_variance>  (176) 
0.3577854931

$$$$
177
     RDKit          3D

 43 45  0  0  0  0  0  0  0  0999 V2000
   19.5605   74.7121   -3.1557 P   0  0  2  0  0  0  0  0  0  0  0  0
   19.2326   75.8044   -4.3038 O   0  0  0  0  0  0  0  0  0  0  0  0
   18.4954   74.5519   -2.1109 O   0  0  0  0  0  0  0  0  0  0  0  0
   21.0200   75.1481   -2.6101 O   0  0  0  0  0  0  0  0  0  0  0  0
   21.6450   76.2820   -3.1830 C   0  0  0  0  0  0  0  0  0  0  0  0
   23.4449   75.4304   -1.8367 O   0  0  0  0  0  0  0  0  0  0  0  0
   25.1376   75.6313   -4.3036 O   0  0  0  0  0  0  0  0  0  0  0  0
   24.5340   72.9737   -4.2099 O   0  0  0  0  0  0  0  0  0  0  0  0
   23.7598   75.2784   -4.1794 C   0  0  1  0  0  0  0  0  0  0  0  0
   23.6257   73.8787   -3.6180 C   0  0  2  0  0  0  0  0  0  0  0  0
   23.1559   76.1265   -3.0684 C   0  0  1  0  0  0  0  0  0  0  0  0
   23.9027   74.1034   -2.1413 C   0  0  2  0  0  0  0  0  0  0  0  0
   25.5450   75.1022   -5.0077 H   0  0  0  0  0  0  0  0  0  0  0  0
   24.3155   72.8643   -5.1492 H   0  0  0  0  0  0  0  0  0  0  0  0
   24.2974   73.8547    0.6442 O   0  0  0  0  0  0  0  0  0  0  0  0
   21.1820   70.4733    0.9680 O   0  0  0  0  0  0  0  0  0  0  0  0
   23.2080   73.1663   -1.3046 N   0  0  0  0  0  0  0  0  0  0  0  0
   22.7461   72.1701    0.8026 N   0  0  0  0  0  0  0  0  0  0  0  0
   23.4802   73.1222    0.0832 C   0  0  0  0  0  0  0  0  0  0  0  0
   22.2685   72.3055   -1.8589 C   0  0  0  0  0  0  0  0  0  0  0  0
   21.5765   71.4033   -1.1603 C   0  0  0  0  0  0  0  0  0  0  0  0
   21.8019   71.2919    0.2958 C   0  0  0  0  0  0  0  0  0  0  0  0
   22.9199   72.1193    1.7704 H   0  0  0  0  0  0  0  0  0  0  0  0
   19.8754   73.3744   -4.0067 O   0  0  0  0  0  0  0  0  0  0  0  0
   20.4070   73.1804   -5.5212 P   0  0  2  0  0  0  0  0  0  0  0  0
   21.7004   72.2243   -5.3396 O   0  0  0  0  0  0  0  0  0  0  0  0
   20.6848   74.4657   -6.2456 O   0  0  0  0  0  0  0  0  0  0  0  0
   19.3014   72.2403   -6.2257 O   0  0  0  0  0  0  0  0  0  0  0  0
   18.7211   70.0278   -5.6113 O   0  0  0  0  0  0  0  0  0  0  0  0
   17.8072   70.0487   -9.6403 O   0  0  0  0  0  0  0  0  0  0  0  0
   20.2538   71.3165   -8.6702 O   0  0  0  0  0  0  0  0  0  0  0  0
   15.6825   70.1912   -7.6613 O   0  0  0  0  0  0  0  0  0  0  0  0
   17.9579   70.6075   -8.3353 C   0  0  2  0  0  0  0  0  0  0  0  0
   19.4138   70.4762   -7.8874 C   0  0  2  0  0  0  0  0  0  0  0  0
   17.0369   69.8410   -7.3833 C   0  0  1  0  0  0  0  0  0  0  0  0
   19.5686   70.8517   -6.4130 C   0  0  1  0  0  0  0  0  0  0  0  0
   17.3384   70.1769   -5.9256 C   0  0  1  0  0  0  0  0  0  0  0  0
   18.3832   70.5201  -10.2626 H   0  0  0  0  0  0  0  0  0  0  0  0
   20.1604   71.0840   -9.6070 H   0  0  0  0  0  0  0  0  0  0  0  0
   15.4778   69.9825   -8.5861 H   0  0  0  0  0  0  0  0  0  0  0  0
   16.2143   68.1304   -5.7022 O   0  0  0  0  0  0  0  0  0  0  0  0
   16.5701   69.3349   -3.7991 O   0  0  0  0  0  0  0  0  0  0  0  0
   16.6786   69.1992   -5.0086 C   0  0  0  0  0  0  0  0  0  0  0  0
  1  4  1  0
  1 24  1  0
  1  2  1  6
  1  3  2  0
 25 28  1  0
 25 24  1  0
 25 26  1  1
 25 27  2  0
  6 11  1  0
  6 12  1  0
 29 36  1  0
 29 37  1  0
  9  7  1  1
  7 13  1  0
 10  8  1  6
  8 14  1  0
  4  5  1  0
 36 28  1  6
 33 30  1  6
 30 38  1  0
 34 31  1  6
 31 39  1  0
 35 32  1  6
 32 40  1  0
 41 43  1  0
 15 19  2  0
 42 43  2  0
 16 22  2  0
 12 17  1  1
 17 19  1  0
 17 20  1  0
 18 19  1  0
 18 22  1  0
 18 23  1  0
  9 10  1  0
  9 11  1  0
 10 12  1  0
 11  5  1  6
 33 34  1  0
 33 35  1  0
 34 36  1  0
 35 37  1  0
 37 43  1  1
 20 21  2  0
 21 22  1  0
M  CHG  3   2  -1  26  -1  41  -1
M  END
>  <COMPND>  (177) 
    udp_gluA.pdb 

>  <AUTHOR>  (177) 
    GENERATED BY OPEN BABEL 3.1.1

>  <MASTER>  (177) 
        0    0    0    0    0    0    0    0   56    0   56    0

>  <minimizedAffinity>  (177) 
-7.03241

>  <CNNscore>  (177) 
0.6060488224

>  <CNNaffinity>  (177) 
4.2943258286

>  <CNN_VS>  (177) 
2.6025710106

>  <CNNaffinity_variance>  (177) 
0.2632566094

$$$$
178
     RDKit          3D

 43 45  0  0  0  0  0  0  0  0999 V2000
   23.0514   71.7756   -2.5132 P   0  0  2  0  0  0  0  0  0  0  0  0
   23.3134   73.3256   -2.1288 O   0  0  0  0  0  0  0  0  0  0  0  0
   24.2168   71.0744   -3.1471 O   0  0  0  0  0  0  0  0  0  0  0  0
   21.6937   71.8175   -3.3923 O   0  0  0  0  0  0  0  0  0  0  0  0
   21.6144   72.7315   -4.4706 C   0  0  0  0  0  0  0  0  0  0  0  0
   20.8318   70.7418   -5.5690 O   0  0  0  0  0  0  0  0  0  0  0  0
   21.3705   72.1766   -8.1463 O   0  0  0  0  0  0  0  0  0  0  0  0
   18.6694   72.4340   -7.8743 O   0  0  0  0  0  0  0  0  0  0  0  0
   20.8852   72.6952   -6.9077 C   0  0  1  0  0  0  0  0  0  0  0  0
   19.4410   72.2909   -6.7001 C   0  0  2  0  0  0  0  0  0  0  0  0
   21.5891   71.9532   -5.7798 C   0  0  1  0  0  0  0  0  0  0  0  0
   19.5786   70.8422   -6.2638 C   0  0  2  0  0  0  0  0  0  0  0  0
   20.9350   72.6355   -8.8822 H   0  0  0  0  0  0  0  0  0  0  0  0
   18.6113   73.3736   -8.1104 H   0  0  0  0  0  0  0  0  0  0  0  0
   17.0734   69.8630   -7.1248 O   0  0  0  0  0  0  0  0  0  0  0  0
   15.5999   69.3004   -2.7939 O   0  0  0  0  0  0  0  0  0  0  0  0
   18.5220   70.4326   -5.3825 N   0  0  0  0  0  0  0  0  0  0  0  0
   16.3415   69.5847   -4.9670 N   0  0  0  0  0  0  0  0  0  0  0  0
   17.3019   69.9556   -5.9173 C   0  0  0  0  0  0  0  0  0  0  0  0
   18.7000   70.5038   -4.0062 C   0  0  0  0  0  0  0  0  0  0  0  0
   17.7753   70.1465   -3.1129 C   0  0  0  0  0  0  0  0  0  0  0  0
   16.4720   69.6381   -3.5887 C   0  0  0  0  0  0  0  0  0  0  0  0
   15.4831   69.2514   -5.3153 H   0  0  0  0  0  0  0  0  0  0  0  0
   22.5587   71.1331   -1.1141 O   0  0  0  0  0  0  0  0  0  0  0  0
   21.5872   71.7174    0.0385 P   0  0  2  0  0  0  0  0  0  0  0  0
   21.0098   70.3817    0.7476 O   0  0  0  0  0  0  0  0  0  0  0  0
   20.5298   72.6566   -0.4651 O   0  0  0  0  0  0  0  0  0  0  0  0
   22.5870   72.3583    1.1303 O   0  0  0  0  0  0  0  0  0  0  0  0
   24.3243   71.3516    2.3863 O   0  0  0  0  0  0  0  0  0  0  0  0
   22.9499   74.2313    5.0104 O   0  0  0  0  0  0  0  0  0  0  0  0
   21.0690   72.6363    3.4443 O   0  0  0  0  0  0  0  0  0  0  0  0
   25.4472   74.6350    3.5782 O   0  0  0  0  0  0  0  0  0  0  0  0
   23.2461   73.6673    3.7329 C   0  0  2  0  0  0  0  0  0  0  0  0
   22.4620   72.3672    3.5532 C   0  0  2  0  0  0  0  0  0  0  0  0
   24.7507   73.3939    3.6740 C   0  0  1  0  0  0  0  0  0  0  0  0
   22.9238   71.6182    2.3023 C   0  0  1  0  0  0  0  0  0  0  0  0
   25.1142   72.5360    2.4656 C   0  0  1  0  0  0  0  0  0  0  0  0
   21.9989   74.4135    5.0710 H   0  0  0  0  0  0  0  0  0  0  0  0
   20.7693   73.1117    4.2346 H   0  0  0  0  0  0  0  0  0  0  0  0
   25.2245   75.1906    4.3414 H   0  0  0  0  0  0  0  0  0  0  0  0
   26.6628   70.8926    1.8310 O   0  0  0  0  0  0  0  0  0  0  0  0
   27.3848   72.4977    3.2806 O   0  0  0  0  0  0  0  0  0  0  0  0
   26.5047   72.0041    2.5916 C   0  0  0  0  0  0  0  0  0  0  0  0
  1  4  1  0
  1 24  1  0
  1  2  1  1
  1  3  2  0
 25 28  1  0
 25 24  1  0
 25 26  1  1
 25 27  2  0
  6 11  1  0
  6 12  1  0
 29 36  1  0
 29 37  1  0
  9  7  1  6
  7 13  1  0
 10  8  1  6
  8 14  1  0
  4  5  1  0
 36 28  1  6
 33 30  1  1
 30 38  1  0
 34 31  1  6
 31 39  1  0
 35 32  1  6
 32 40  1  0
 41 43  1  0
 15 19  2  0
 42 43  2  0
 16 22  2  0
 12 17  1  1
 17 19  1  0
 17 20  1  0
 18 19  1  0
 18 22  1  0
 18 23  1  0
  9 10  1  0
  9 11  1  0
 10 12  1  0
 11  5  1  1
 33 34  1  0
 33 35  1  0
 34 36  1  0
 35 37  1  0
 37 43  1  1
 20 21  2  0
 21 22  1  0
M  CHG  3   2  -1  26  -1  41  -1
M  END
>  <COMPND>  (178) 
    udp_gluA.pdb 

>  <AUTHOR>  (178) 
    GENERATED BY OPEN BABEL 3.1.1

>  <MASTER>  (178) 
        0    0    0    0    0    0    0    0   56    0   56    0

>  <minimizedAffinity>  (178) 
-7.77728

>  <CNNscore>  (178) 
0.6034432054

>  <CNNaffinity>  (178) 
4.2733964920

>  <CNN_VS>  (178) 
2.5787520409

>  <CNNaffinity_variance>  (178) 
0.1973817497

$$$$
179
     RDKit          3D

 43 45  0  0  0  0  0  0  0  0999 V2000
   23.2182   71.8640   -2.8320 P   0  0  2  0  0  0  0  0  0  0  0  0
   23.5496   73.4291   -3.0761 O   0  0  0  0  0  0  0  0  0  0  0  0
   24.3799   70.9333   -3.0216 O   0  0  0  0  0  0  0  0  0  0  0  0
   21.9343   71.5868   -3.7768 O   0  0  0  0  0  0  0  0  0  0  0  0
   21.6521   72.5019   -4.8196 C   0  0  0  0  0  0  0  0  0  0  0  0
   20.7149   70.5539   -5.8707 O   0  0  0  0  0  0  0  0  0  0  0  0
   21.1382   71.9828   -8.4727 O   0  0  0  0  0  0  0  0  0  0  0  0
   18.4747   72.3500   -8.0176 O   0  0  0  0  0  0  0  0  0  0  0  0
   20.7595   72.5125   -7.2020 C   0  0  1  0  0  0  0  0  0  0  0  0
   19.3169   72.1670   -6.8989 C   0  0  2  0  0  0  0  0  0  0  0  0
   21.5061   71.7343   -6.1272 C   0  0  1  0  0  0  0  0  0  0  0  0
   19.4230   70.7109   -6.4788 C   0  0  2  0  0  0  0  0  0  0  0  0
   20.6737   72.4644   -9.1755 H   0  0  0  0  0  0  0  0  0  0  0  0
   18.4401   73.2928   -8.2455 H   0  0  0  0  0  0  0  0  0  0  0  0
   16.8437   69.7938   -7.1734 O   0  0  0  0  0  0  0  0  0  0  0  0
   15.6252   69.3138   -2.7542 O   0  0  0  0  0  0  0  0  0  0  0  0
   18.4120   70.3394   -5.5298 N   0  0  0  0  0  0  0  0  0  0  0  0
   16.2389   69.5566   -4.9717 N   0  0  0  0  0  0  0  0  0  0  0  0
   17.1487   69.8915   -5.9833 C   0  0  0  0  0  0  0  0  0  0  0  0
   18.6763   70.4186   -4.1679 C   0  0  0  0  0  0  0  0  0  0  0  0
   17.7991   70.0958   -3.2155 C   0  0  0  0  0  0  0  0  0  0  0  0
   16.4556   69.6194   -3.6047 C   0  0  0  0  0  0  0  0  0  0  0  0
   15.3519   69.2440   -5.2630 H   0  0  0  0  0  0  0  0  0  0  0  0
   22.5839   71.8550   -1.3452 O   0  0  0  0  0  0  0  0  0  0  0  0
   21.0776   72.1405   -0.8321 P   0  0  2  0  0  0  0  0  0  0  0  0
   20.4209   70.6622   -0.7719 O   0  0  0  0  0  0  0  0  0  0  0  0
   20.3156   73.1219   -1.6749 O   0  0  0  0  0  0  0  0  0  0  0  0
   21.2467   72.5741    0.7125 O   0  0  0  0  0  0  0  0  0  0  0  0
   22.4739   74.4804    1.3977 O   0  0  0  0  0  0  0  0  0  0  0  0
   22.4967   72.1863    4.8335 O   0  0  0  0  0  0  0  0  0  0  0  0
   22.9225   70.9469    2.2225 O   0  0  0  0  0  0  0  0  0  0  0  0
   20.7494   74.5012    4.6362 O   0  0  0  0  0  0  0  0  0  0  0  0
   21.9669   72.6936    3.6088 C   0  0  2  0  0  0  0  0  0  0  0  0
   22.9150   72.3499    2.4597 C   0  0  2  0  0  0  0  0  0  0  0  0
   21.8264   74.2112    3.7471 C   0  0  1  0  0  0  0  0  0  0  0  0
   22.5016   73.0699    1.1753 C   0  0  1  0  0  0  0  0  0  0  0  0
   21.5379   74.8690    2.4007 C   0  0  1  0  0  0  0  0  0  0  0  0
   22.5949   71.2232    4.7691 H   0  0  0  0  0  0  0  0  0  0  0  0
   23.1837   70.4838    3.0334 H   0  0  0  0  0  0  0  0  0  0  0  0
   20.9206   74.0881    5.4970 H   0  0  0  0  0  0  0  0  0  0  0  0
   20.6386   76.9420    3.0294 O   0  0  0  0  0  0  0  0  0  0  0  0
   22.7252   76.9492    2.1102 O   0  0  0  0  0  0  0  0  0  0  0  0
   21.7280   76.3487    2.4817 C   0  0  0  0  0  0  0  0  0  0  0  0
  1  4  1  0
  1 24  1  0
  1  2  1  6
  1  3  2  0
 25 28  1  0
 25 24  1  0
 25 26  1  1
 25 27  2  0
  6 11  1  0
  6 12  1  0
 29 36  1  0
 29 37  1  0
  9  7  1  6
  7 13  1  0
 10  8  1  6
  8 14  1  0
  4  5  1  0
 36 28  1  1
 33 30  1  1
 30 38  1  0
 34 31  1  6
 31 39  1  0
 35 32  1  1
 32 40  1  0
 41 43  1  0
 15 19  2  0
 42 43  2  0
 16 22  2  0
 12 17  1  1
 17 19  1  0
 17 20  1  0
 18 19  1  0
 18 22  1  0
 18 23  1  0
  9 10  1  0
  9 11  1  0
 10 12  1  0
 11  5  1  1
 33 34  1  0
 33 35  1  0
 34 36  1  0
 35 37  1  0
 37 43  1  1
 20 21  2  0
 21 22  1  0
M  CHG  3   2  -1  26  -1  41  -1
M  END
>  <COMPND>  (179) 
    udp_gluA.pdb 

>  <AUTHOR>  (179) 
    GENERATED BY OPEN BABEL 3.1.1

>  <MASTER>  (179) 
        0    0    0    0    0    0    0    0   56    0   56    0

>  <minimizedAffinity>  (179) 
-6.90522

>  <CNNscore>  (179) 
0.6009383202

>  <CNNaffinity>  (179) 
4.3026275635

>  <CNN_VS>  (179) 
2.5856137276

>  <CNNaffinity_variance>  (179) 
0.2024422884

$$$$
180
     RDKit          3D

 43 45  0  0  0  0  0  0  0  0999 V2000
   17.8878   73.4837   -2.7667 P   0  0  2  0  0  0  0  0  0  0  0  0
   17.1333   74.6911   -3.5359 O   0  0  0  0  0  0  0  0  0  0  0  0
   16.9885   72.5676   -1.9897 O   0  0  0  0  0  0  0  0  0  0  0  0
   19.0407   74.2290   -1.9103 O   0  0  0  0  0  0  0  0  0  0  0  0
   19.9497   73.4374   -1.1676 C   0  0  0  0  0  0  0  0  0  0  0  0
   20.2022   72.2810    0.9244 O   0  0  0  0  0  0  0  0  0  0  0  0
   18.7554   74.5957    2.1655 O   0  0  0  0  0  0  0  0  0  0  0  0
   21.3608   75.1290    2.7685 O   0  0  0  0  0  0  0  0  0  0  0  0
   19.6904   74.5881    1.0865 C   0  0  1  0  0  0  0  0  0  0  0  0
   21.0935   74.3664    1.6103 C   0  0  2  0  0  0  0  0  0  0  0  0
   19.4528   73.3264    0.2680 C   0  0  1  0  0  0  0  0  0  0  0  0
   21.0966   72.8715    1.8809 C   0  0  2  0  0  0  0  0  0  0  0  0
   18.8878   75.3928    2.7029 H   0  0  0  0  0  0  0  0  0  0  0  0
   21.3479   76.0732    2.5441 H   0  0  0  0  0  0  0  0  0  0  0  0
   22.7557   72.0738    4.0227 O   0  0  0  0  0  0  0  0  0  0  0  0
   26.0749   70.6478    1.1602 O   0  0  0  0  0  0  0  0  0  0  0  0
   22.3992   72.2889    1.7238 N   0  0  0  0  0  0  0  0  0  0  0  0
   24.4077   71.3653    2.5950 N   0  0  0  0  0  0  0  0  0  0  0  0
   23.1513   71.9234    2.8652 C   0  0  0  0  0  0  0  0  0  0  0  0
   22.9182   72.0834    0.4512 C   0  0  0  0  0  0  0  0  0  0  0  0
   24.1173   71.5502    0.2095 C   0  0  0  0  0  0  0  0  0  0  0  0
   24.9671   71.1418    1.3473 C   0  0  0  0  0  0  0  0  0  0  0  0
   24.9506   71.1048    3.3739 H   0  0  0  0  0  0  0  0  0  0  0  0
   18.7217   72.7646   -3.9500 O   0  0  0  0  0  0  0  0  0  0  0  0
   19.8700   73.3328   -4.9360 P   0  0  2  0  0  0  0  0  0  0  0  0
   21.2116   72.6013   -4.4017 O   0  0  0  0  0  0  0  0  0  0  0  0
   19.9581   74.8309   -4.9798 O   0  0  0  0  0  0  0  0  0  0  0  0
   19.5671   72.6381   -6.3601 O   0  0  0  0  0  0  0  0  0  0  0  0
   18.8789   70.4096   -5.9488 O   0  0  0  0  0  0  0  0  0  0  0  0
   18.7151   70.5923  -10.0728 O   0  0  0  0  0  0  0  0  0  0  0  0
   20.9470   71.7987   -8.6245 O   0  0  0  0  0  0  0  0  0  0  0  0
   16.2655   70.6800   -8.5099 O   0  0  0  0  0  0  0  0  0  0  0  0
   18.6267   71.0997   -8.7414 C   0  0  2  0  0  0  0  0  0  0  0  0
   19.9762   70.9374   -8.0412 C   0  0  2  0  0  0  0  0  0  0  0  0
   17.5457   70.3064   -8.0038 C   0  0  1  0  0  0  0  0  0  0  0  0
   19.8604   71.2551   -6.5498 C   0  0  1  0  0  0  0  0  0  0  0  0
   17.5770   70.5838   -6.5036 C   0  0  1  0  0  0  0  0  0  0  0  0
   19.3962   71.0814  -10.5609 H   0  0  0  0  0  0  0  0  0  0  0  0
   21.0255   71.6028   -9.5710 H   0  0  0  0  0  0  0  0  0  0  0  0
   16.2324   70.5086   -9.4641 H   0  0  0  0  0  0  0  0  0  0  0  0
   16.5703   69.9692   -4.4762 O   0  0  0  0  0  0  0  0  0  0  0  0
   16.3139   68.5452   -6.2385 O   0  0  0  0  0  0  0  0  0  0  0  0
   16.7585   69.5784   -5.7611 C   0  0  0  0  0  0  0  0  0  0  0  0
  1  4  1  0
  1 24  1  0
  1  2  1  6
  1  3  2  0
 25 28  1  0
 25 24  1  0
 25 26  1  1
 25 27  2  0
  6 11  1  0
  6 12  1  0
 29 36  1  0
 29 37  1  0
  9  7  1  1
  7 13  1  0
 10  8  1  1
  8 14  1  0
  4  5  1  0
 36 28  1  6
 33 30  1  6
 30 38  1  0
 34 31  1  6
 31 39  1  0
 35 32  1  6
 32 40  1  0
 41 43  1  0
 15 19  2  0
 42 43  2  0
 16 22  2  0
 12 17  1  6
 17 19  1  0
 17 20  1  0
 18 19  1  0
 18 22  1  0
 18 23  1  0
  9 10  1  0
  9 11  1  0
 10 12  1  0
 11  5  1  6
 33 34  1  0
 33 35  1  0
 34 36  1  0
 35 37  1  0
 37 43  1  1
 20 21  2  0
 21 22  1  0
M  CHG  3   2  -1  26  -1  41  -1
M  END
>  <COMPND>  (180) 
    udp_gluA.pdb 

>  <AUTHOR>  (180) 
    GENERATED BY OPEN BABEL 3.1.1

>  <MASTER>  (180) 
        0    0    0    0    0    0    0    0   56    0   56    0

>  <minimizedAffinity>  (180) 
-6.58358

>  <CNNscore>  (180) 
0.5929847360

>  <CNNaffinity>  (180) 
4.2607002258

>  <CNN_VS>  (180) 
2.5265302658

>  <CNNaffinity_variance>  (180) 
0.1508568823

$$$$
181
     RDKit          3D

 43 45  0  0  0  0  0  0  0  0999 V2000
   22.9991   71.7096   -2.6684 P   0  0  2  0  0  0  0  0  0  0  0  0
   23.2292   73.2613   -2.2709 O   0  0  0  0  0  0  0  0  0  0  0  0
   24.2210   70.9954   -3.1670 O   0  0  0  0  0  0  0  0  0  0  0  0
   21.7445   71.7519   -3.6892 O   0  0  0  0  0  0  0  0  0  0  0  0
   20.8958   70.6212   -3.7647 C   0  0  0  0  0  0  0  0  0  0  0  0
   18.9570   71.6852   -4.7064 O   0  0  0  0  0  0  0  0  0  0  0  0
   17.4054   70.4100   -2.4798 O   0  0  0  0  0  0  0  0  0  0  0  0
   16.8643   68.7762   -4.5950 O   0  0  0  0  0  0  0  0  0  0  0  0
   18.5194   69.8997   -3.2127 C   0  0  1  0  0  0  0  0  0  0  0  0
   18.0863   69.4841   -4.6027 C   0  0  2  0  0  0  0  0  0  0  0  0
   19.4603   71.0603   -3.5058 C   0  0  1  0  0  0  0  0  0  0  0  0
   17.9823   70.8225   -5.3139 C   0  0  2  0  0  0  0  0  0  0  0  0
   16.7900   69.6865   -2.2809 H   0  0  0  0  0  0  0  0  0  0  0  0
   16.9828   67.9318   -4.1313 H   0  0  0  0  0  0  0  0  0  0  0  0
   16.0862   70.0618   -7.2639 O   0  0  0  0  0  0  0  0  0  0  0  0
   19.1614   70.4619  -10.6737 O   0  0  0  0  0  0  0  0  0  0  0  0
   18.2606   70.7197   -6.7185 N   0  0  0  0  0  0  0  0  0  0  0  0
   17.6199   70.2608   -8.9602 N   0  0  0  0  0  0  0  0  0  0  0  0
   17.2373   70.3288   -7.6141 C   0  0  0  0  0  0  0  0  0  0  0  0
   19.5338   71.0058   -7.1961 C   0  0  0  0  0  0  0  0  0  0  0  0
   19.8835   70.9366   -8.4821 C   0  0  0  0  0  0  0  0  0  0  0  0
   18.8733   70.5351   -9.4830 C   0  0  0  0  0  0  0  0  0  0  0  0
   16.9249   69.9889   -9.6024 H   0  0  0  0  0  0  0  0  0  0  0  0
   22.3539   71.0828   -1.3254 O   0  0  0  0  0  0  0  0  0  0  0  0
   21.4483   71.7571   -0.1683 P   0  0  2  0  0  0  0  0  0  0  0  0
   20.7679   70.4813    0.5594 O   0  0  0  0  0  0  0  0  0  0  0  0
   20.4687   72.7783   -0.6696 O   0  0  0  0  0  0  0  0  0  0  0  0
   22.5110   72.3202    0.9070 O   0  0  0  0  0  0  0  0  0  0  0  0
   24.2744   71.4243    2.2097 O   0  0  0  0  0  0  0  0  0  0  0  0
   22.3755   73.8771    4.9385 O   0  0  0  0  0  0  0  0  0  0  0  0
   20.8197   72.2100    3.1123 O   0  0  0  0  0  0  0  0  0  0  0  0
   24.8913   74.7023    3.7382 O   0  0  0  0  0  0  0  0  0  0  0  0
   22.8249   73.4667    3.6471 C   0  0  2  0  0  0  0  0  0  0  0  0
   22.2252   72.1022    3.3063 C   0  0  2  0  0  0  0  0  0  0  0  0
   24.3526   73.3828    3.6827 C   0  0  1  0  0  0  0  0  0  0  0  0
   22.8601   71.5266    2.0397 C   0  0  1  0  0  0  0  0  0  0  0  0
   24.9011   72.6838    2.4421 C   0  0  1  0  0  0  0  0  0  0  0  0
   21.4072   73.9373    4.9400 H   0  0  0  0  0  0  0  0  0  0  0  0
   20.4104   72.5749    3.9121 H   0  0  0  0  0  0  0  0  0  0  0  0
   24.5499   75.1582    4.5234 H   0  0  0  0  0  0  0  0  0  0  0  0
   26.5541   71.0304    2.2545 O   0  0  0  0  0  0  0  0  0  0  0  0
   27.2012   73.0608    3.0655 O   0  0  0  0  0  0  0  0  0  0  0  0
   26.3362   72.3144    2.6323 C   0  0  0  0  0  0  0  0  0  0  0  0
  1  4  1  0
  1 24  1  0
  1  2  1  1
  1  3  2  0
 25 28  1  0
 25 24  1  0
 25 26  1  1
 25 27  2  0
  6 11  1  0
  6 12  1  0
 29 36  1  0
 29 37  1  0
  9  7  1  1
  7 13  1  0
 10  8  1  1
  8 14  1  0
  4  5  1  0
 36 28  1  6
 33 30  1  1
 30 38  1  0
 34 31  1  6
 31 39  1  0
 35 32  1  6
 32 40  1  0
 41 43  1  0
 15 19  2  0
 42 43  2  0
 16 22  2  0
 12 17  1  6
 17 19  1  0
 17 20  1  0
 18 19  1  0
 18 22  1  0
 18 23  1  0
  9 10  1  0
  9 11  1  0
 10 12  1  0
 11  5  1  6
 33 34  1  0
 33 35  1  0
 34 36  1  0
 35 37  1  0
 37 43  1  1
 20 21  2  0
 21 22  1  0
M  CHG  3   2  -1  26  -1  41  -1
M  END
>  <COMPND>  (181) 
    udp_gluA.pdb 

>  <AUTHOR>  (181) 
    GENERATED BY OPEN BABEL 3.1.1

>  <MASTER>  (181) 
        0    0    0    0    0    0    0    0   56    0   56    0

>  <minimizedAffinity>  (181) 
-8.23237

>  <CNNscore>  (181) 
0.9390582442

>  <CNNaffinity>  (181) 
4.8164329529

>  <CNN_VS>  (181) 
4.5229110718

>  <CNNaffinity_variance>  (181) 
0.0284060575

$$$$
182
     RDKit          3D

 43 45  0  0  0  0  0  0  0  0999 V2000
   22.4916   71.6954   -2.3335 P   0  0  2  0  0  0  0  0  0  0  0  0
   23.8927   71.0436   -2.8139 O   0  0  0  0  0  0  0  0  0  0  0  0
   22.5100   72.2937   -0.9574 O   0  0  0  0  0  0  0  0  0  0  0  0
   21.4117   70.5143   -2.5717 O   0  0  0  0  0  0  0  0  0  0  0  0
   20.7191   70.4702   -3.8057 C   0  0  0  0  0  0  0  0  0  0  0  0
   18.8374   71.5999   -4.7859 O   0  0  0  0  0  0  0  0  0  0  0  0
   17.1809   70.2971   -2.6528 O   0  0  0  0  0  0  0  0  0  0  0  0
   16.6844   68.7335   -4.8309 O   0  0  0  0  0  0  0  0  0  0  0  0
   18.3103   69.7838   -3.3594 C   0  0  1  0  0  0  0  0  0  0  0  0
   17.9198   69.4156   -4.7751 C   0  0  2  0  0  0  0  0  0  0  0  0
   19.2842   70.9320   -3.5861 C   0  0  1  0  0  0  0  0  0  0  0  0
   17.8683   70.7748   -5.4518 C   0  0  2  0  0  0  0  0  0  0  0  0
   16.5444   69.5816   -2.4963 H   0  0  0  0  0  0  0  0  0  0  0  0
   16.7691   67.8744   -4.3872 H   0  0  0  0  0  0  0  0  0  0  0  0
   16.0413   70.0605   -7.4836 O   0  0  0  0  0  0  0  0  0  0  0  0
   19.2330   70.5386  -10.7743 O   0  0  0  0  0  0  0  0  0  0  0  0
   18.1953   70.7046   -6.8478 N   0  0  0  0  0  0  0  0  0  0  0  0
   17.6330   70.2983   -9.1205 N   0  0  0  0  0  0  0  0  0  0  0  0
   17.2038   70.3352   -7.7873 C   0  0  0  0  0  0  0  0  0  0  0  0
   19.4842   71.0012   -7.2741 C   0  0  0  0  0  0  0  0  0  0  0  0
   19.8783   70.9618   -8.5484 C   0  0  0  0  0  0  0  0  0  0  0  0
   18.9037   70.5842   -9.5929 C   0  0  0  0  0  0  0  0  0  0  0  0
   16.9608   70.0417   -9.7926 H   0  0  0  0  0  0  0  0  0  0  0  0
   22.1530   72.7417   -3.5182 O   0  0  0  0  0  0  0  0  0  0  0  0
   22.2724   74.3529   -3.5776 P   0  0  2  0  0  0  0  0  0  0  0  0
   23.6575   74.6502   -2.7943 O   0  0  0  0  0  0  0  0  0  0  0  0
   21.0808   75.0795   -3.0243 O   0  0  0  0  0  0  0  0  0  0  0  0
   22.5995   74.6823   -5.1225 O   0  0  0  0  0  0  0  0  0  0  0  0
   21.0653   75.4987   -6.7316 O   0  0  0  0  0  0  0  0  0  0  0  0
   23.8089   73.5280   -9.1100 O   0  0  0  0  0  0  0  0  0  0  0  0
   22.9075   72.3436   -6.5962 O   0  0  0  0  0  0  0  0  0  0  0  0
   23.8178   76.4317   -8.9711 O   0  0  0  0  0  0  0  0  0  0  0  0
   23.3666   74.2819   -7.9813 C   0  0  2  0  0  0  0  0  0  0  0  0
   22.3155   73.4818   -7.2116 C   0  0  2  0  0  0  0  0  0  0  0  0
   22.7671   75.5933   -8.4940 C   0  0  1  0  0  0  0  0  0  0  0  0
   21.6534   74.3424   -6.1345 C   0  0  1  0  0  0  0  0  0  0  0  0
   22.0168   76.3322   -7.3896 C   0  0  1  0  0  0  0  0  0  0  0  0
   24.1937   72.6899   -8.8086 H   0  0  0  0  0  0  0  0  0  0  0  0
   23.3298   71.7932   -7.2738 H   0  0  0  0  0  0  0  0  0  0  0  0
   24.3034   75.9731   -9.6744 H   0  0  0  0  0  0  0  0  0  0  0  0
   21.9186   78.5204   -8.2285 O   0  0  0  0  0  0  0  0  0  0  0  0
   19.9676   77.3420   -8.1656 O   0  0  0  0  0  0  0  0  0  0  0  0
   21.1696   77.4219   -7.9614 C   0  0  0  0  0  0  0  0  0  0  0  0
  1  4  1  0
  1 24  1  0
  1  2  1  6
  1  3  2  0
 25 28  1  0
 25 24  1  0
 25 26  1  1
 25 27  2  0
  6 11  1  0
  6 12  1  0
 29 36  1  0
 29 37  1  0
  9  7  1  1
  7 13  1  0
 10  8  1  1
  8 14  1  0
  4  5  1  0
 36 28  1  1
 33 30  1  6
 30 38  1  0
 34 31  1  1
 31 39  1  0
 35 32  1  1
 32 40  1  0
 41 43  1  0
 15 19  2  0
 42 43  2  0
 16 22  2  0
 12 17  1  6
 17 19  1  0
 17 20  1  0
 18 19  1  0
 18 22  1  0
 18 23  1  0
  9 10  1  0
  9 11  1  0
 10 12  1  0
 11  5  1  6
 33 34  1  0
 33 35  1  0
 34 36  1  0
 35 37  1  0
 37 43  1  6
 20 21  2  0
 21 22  1  0
M  CHG  3   2  -1  26  -1  41  -1
M  END
>  <COMPND>  (182) 
    udp_gluA.pdb 

>  <AUTHOR>  (182) 
    GENERATED BY OPEN BABEL 3.1.1

>  <MASTER>  (182) 
        0    0    0    0    0    0    0    0   56    0   56    0

>  <minimizedAffinity>  (182) 
-7.05663

>  <CNNscore>  (182) 
0.8949967027

>  <CNNaffinity>  (182) 
4.7338953018

>  <CNN_VS>  (182) 
4.2368206978

>  <CNNaffinity_variance>  (182) 
0.1813737452

$$$$
183
     RDKit          3D

 43 45  0  0  0  0  0  0  0  0999 V2000
   23.1931   72.5752   -3.9857 P   0  0  2  0  0  0  0  0  0  0  0  0
   23.0954   72.4457   -5.5958 O   0  0  0  0  0  0  0  0  0  0  0  0
   24.1620   71.6342   -3.3320 O   0  0  0  0  0  0  0  0  0  0  0  0
   21.6567   72.4563   -3.4924 O   0  0  0  0  0  0  0  0  0  0  0  0
   20.9058   71.3227   -3.8869 C   0  0  0  0  0  0  0  0  0  0  0  0
   18.8400   72.0510   -4.8768 O   0  0  0  0  0  0  0  0  0  0  0  0
   17.4806   70.7766   -2.5275 O   0  0  0  0  0  0  0  0  0  0  0  0
   17.1375   68.9190   -4.4942 O   0  0  0  0  0  0  0  0  0  0  0  0
   18.6453   70.3533   -3.2365 C   0  0  1  0  0  0  0  0  0  0  0  0
   18.2588   69.7733   -4.5806 C   0  0  2  0  0  0  0  0  0  0  0  0
   19.4278   71.5959   -3.6389 C   0  0  1  0  0  0  0  0  0  0  0  0
   17.9792   71.0246   -5.3954 C   0  0  2  0  0  0  0  0  0  0  0  0
   16.9643   69.9997   -2.2600 H   0  0  0  0  0  0  0  0  0  0  0  0
   17.3664   68.1375   -3.9661 H   0  0  0  0  0  0  0  0  0  0  0  0
   16.1263   70.0172   -7.2738 O   0  0  0  0  0  0  0  0  0  0  0  0
   19.1584   70.3697  -10.7272 O   0  0  0  0  0  0  0  0  0  0  0  0
   18.2581   70.8428   -6.7919 N   0  0  0  0  0  0  0  0  0  0  0  0
   17.6386   70.1927   -8.9918 N   0  0  0  0  0  0  0  0  0  0  0  0
   17.2575   70.3295   -7.6505 C   0  0  0  0  0  0  0  0  0  0  0  0
   19.5095   71.1729   -7.2979 C   0  0  0  0  0  0  0  0  0  0  0  0
   19.8579   71.0371   -8.5789 C   0  0  0  0  0  0  0  0  0  0  0  0
   18.8708   70.5067   -9.5420 C   0  0  0  0  0  0  0  0  0  0  0  0
   16.9593   69.8354   -9.6084 H   0  0  0  0  0  0  0  0  0  0  0  0
   23.5246   74.1421   -3.7671 O   0  0  0  0  0  0  0  0  0  0  0  0
   23.5694   75.0402   -2.4235 P   0  0  2  0  0  0  0  0  0  0  0  0
   22.0995   75.7168   -2.3817 O   0  0  0  0  0  0  0  0  0  0  0  0
   24.7039   76.0225   -2.3769 O   0  0  0  0  0  0  0  0  0  0  0  0
   23.5599   73.9707   -1.2158 O   0  0  0  0  0  0  0  0  0  0  0  0
   22.0887   73.5371    0.5888 O   0  0  0  0  0  0  0  0  0  0  0  0
   25.7788   72.9683    2.3573 O   0  0  0  0  0  0  0  0  0  0  0  0
   25.3423   75.2035    0.5276 O   0  0  0  0  0  0  0  0  0  0  0  0
   24.1327   70.6798    1.6475 O   0  0  0  0  0  0  0  0  0  0  0  0
   24.8292   72.9587    1.2914 C   0  0  2  0  0  0  0  0  0  0  0  0
   24.3108   74.3774    1.0550 C   0  0  2  0  0  0  0  0  0  0  0  0
   23.6792   72.0315    1.6911 C   0  0  1  0  0  0  0  0  0  0  0  0
   23.1299   74.3736    0.0832 C   0  0  1  0  0  0  0  0  0  0  0  0
   22.4909   72.1780    0.7450 C   0  0  1  0  0  0  0  0  0  0  0  0
   26.5191   73.5512    2.1258 H   0  0  0  0  0  0  0  0  0  0  0  0
   26.0949   75.2103    1.1390 H   0  0  0  0  0  0  0  0  0  0  0  0
   24.8890   70.5731    2.2452 H   0  0  0  0  0  0  0  0  0  0  0  0
   21.0195   70.3520    0.7001 O   0  0  0  0  0  0  0  0  0  0  0  0
   20.5936   71.9937    2.2241 O   0  0  0  0  0  0  0  0  0  0  0  0
   21.2726   71.5315    1.3194 C   0  0  0  0  0  0  0  0  0  0  0  0
  1  4  1  0
  1 24  1  0
  1  2  1  6
  1  3  2  0
 25 28  1  0
 25 24  1  0
 25 26  1  1
 25 27  2  0
  6 11  1  0
  6 12  1  0
 29 36  1  0
 29 37  1  0
  9  7  1  1
  7 13  1  0
 10  8  1  1
  8 14  1  0
  4  5  1  0
 36 28  1  6
 33 30  1  1
 30 38  1  0
 34 31  1  6
 31 39  1  0
 35 32  1  6
 32 40  1  0
 41 43  1  0
 15 19  2  0
 42 43  2  0
 16 22  2  0
 12 17  1  6
 17 19  1  0
 17 20  1  0
 18 19  1  0
 18 22  1  0
 18 23  1  0
  9 10  1  0
  9 11  1  0
 10 12  1  0
 11  5  1  6
 33 34  1  0
 33 35  1  0
 34 36  1  0
 35 37  1  0
 37 43  1  1
 20 21  2  0
 21 22  1  0
M  CHG  3   2  -1  26  -1  41  -1
M  END
>  <COMPND>  (183) 
    udp_gluA.pdb 

>  <AUTHOR>  (183) 
    GENERATED BY OPEN BABEL 3.1.1

>  <MASTER>  (183) 
        0    0    0    0    0    0    0    0   56    0   56    0

>  <minimizedAffinity>  (183) 
-7.65077

>  <CNNscore>  (183) 
0.8849605918

>  <CNNaffinity>  (183) 
4.7612695694

>  <CNN_VS>  (183) 
4.2135357857

>  <CNNaffinity_variance>  (183) 
0.0553289540

$$$$
184
     RDKit          3D

 43 45  0  0  0  0  0  0  0  0999 V2000
   22.9579   72.2032   -3.8461 P   0  0  2  0  0  0  0  0  0  0  0  0
   23.4952   73.1779   -5.0209 O   0  0  0  0  0  0  0  0  0  0  0  0
   23.9720   71.2335   -3.3140 O   0  0  0  0  0  0  0  0  0  0  0  0
   21.6170   71.5462   -4.4693 O   0  0  0  0  0  0  0  0  0  0  0  0
   20.9229   70.5753   -3.7077 C   0  0  0  0  0  0  0  0  0  0  0  0
   19.0204   71.7002   -4.6525 O   0  0  0  0  0  0  0  0  0  0  0  0
   17.4325   70.5041   -2.4076 O   0  0  0  0  0  0  0  0  0  0  0  0
   16.8234   68.8708   -4.5046 O   0  0  0  0  0  0  0  0  0  0  0  0
   18.5241   69.9464   -3.1397 C   0  0  1  0  0  0  0  0  0  0  0  0
   18.0704   69.5335   -4.5239 C   0  0  2  0  0  0  0  0  0  0  0  0
   19.5055   71.0690   -3.4477 C   0  0  1  0  0  0  0  0  0  0  0  0
   18.0124   70.8679   -5.2478 C   0  0  2  0  0  0  0  0  0  0  0  0
   16.7920   69.8056   -2.1993 H   0  0  0  0  0  0  0  0  0  0  0  0
   16.9129   68.0272   -4.0331 H   0  0  0  0  0  0  0  0  0  0  0  0
   16.0874   70.1340   -7.1798 O   0  0  0  0  0  0  0  0  0  0  0  0
   19.1549   70.4139  -10.6084 O   0  0  0  0  0  0  0  0  0  0  0  0
   18.2809   70.7414   -6.6524 N   0  0  0  0  0  0  0  0  0  0  0  0
   17.6173   70.2731   -8.8854 N   0  0  0  0  0  0  0  0  0  0  0  0
   17.2432   70.3669   -7.5385 C   0  0  0  0  0  0  0  0  0  0  0  0
   19.5587   70.9887   -7.1393 C   0  0  0  0  0  0  0  0  0  0  0  0
   19.9000   70.8953   -8.4259 C   0  0  0  0  0  0  0  0  0  0  0  0
   18.8748   70.5085   -9.4173 C   0  0  0  0  0  0  0  0  0  0  0  0
   16.9123   70.0119   -9.5211 H   0  0  0  0  0  0  0  0  0  0  0  0
   22.3787   73.2408   -2.7503 O   0  0  0  0  0  0  0  0  0  0  0  0
   23.1339   74.2853   -1.7745 P   0  0  2  0  0  0  0  0  0  0  0  0
   22.0699   75.4973   -1.6356 O   0  0  0  0  0  0  0  0  0  0  0  0
   24.4919   74.7068   -2.2564 O   0  0  0  0  0  0  0  0  0  0  0  0
   23.1287   73.5712   -0.3280 O   0  0  0  0  0  0  0  0  0  0  0  0
   23.9243   71.4637    0.4034 O   0  0  0  0  0  0  0  0  0  0  0  0
   20.5400   71.9365    2.7252 O   0  0  0  0  0  0  0  0  0  0  0  0
   20.5087   72.6649   -0.1038 O   0  0  0  0  0  0  0  0  0  0  0  0
   23.1749   72.3234    3.8907 O   0  0  0  0  0  0  0  0  0  0  0  0
   21.6892   72.3645    1.9944 C   0  0  2  0  0  0  0  0  0  0  0  0
   21.5539   71.9385    0.5323 C   0  0  2  0  0  0  0  0  0  0  0  0
   22.9213   71.7132    2.6267 C   0  0  1  0  0  0  0  0  0  0  0  0
   22.8590   72.1739   -0.2292 C   0  0  1  0  0  0  0  0  0  0  0  0
   24.1557   71.8844    1.7460 C   0  0  1  0  0  0  0  0  0  0  0  0
   19.7445   72.3379    2.3413 H   0  0  0  0  0  0  0  0  0  0  0  0
   19.6776   72.5203    0.3744 H   0  0  0  0  0  0  0  0  0  0  0  0
   22.3968   72.2217    4.4608 H   0  0  0  0  0  0  0  0  0  0  0  0
   24.7540   69.8762    2.7998 O   0  0  0  0  0  0  0  0  0  0  0  0
   26.4499   71.1984    2.0417 O   0  0  0  0  0  0  0  0  0  0  0  0
   25.2574   70.9809    2.1955 C   0  0  0  0  0  0  0  0  0  0  0  0
  1  4  1  0
  1 24  1  0
  1  2  1  6
  1  3  2  0
 25 28  1  0
 25 24  1  0
 25 26  1  1
 25 27  2  0
  6 11  1  0
  6 12  1  0
 29 36  1  0
 29 37  1  0
  9  7  1  1
  7 13  1  0
 10  8  1  1
  8 14  1  0
  4  5  1  0
 36 28  1  1
 33 30  1  1
 30 38  1  0
 34 31  1  6
 31 39  1  0
 35 32  1  1
 32 40  1  0
 41 43  1  0
 15 19  2  0
 42 43  2  0
 16 22  2  0
 12 17  1  6
 17 19  1  0
 17 20  1  0
 18 19  1  0
 18 22  1  0
 18 23  1  0
  9 10  1  0
  9 11  1  0
 10 12  1  0
 11  5  1  6
 33 34  1  0
 33 35  1  0
 34 36  1  0
 35 37  1  0
 37 43  1  1
 20 21  2  0
 21 22  1  0
M  CHG  3   2  -1  26  -1  41  -1
M  END
>  <COMPND>  (184) 
    udp_gluA.pdb 

>  <AUTHOR>  (184) 
    GENERATED BY OPEN BABEL 3.1.1

>  <MASTER>  (184) 
        0    0    0    0    0    0    0    0   56    0   56    0

>  <minimizedAffinity>  (184) 
-7.97683

>  <CNNscore>  (184) 
0.8680121899

>  <CNNaffinity>  (184) 
4.6947016716

>  <CNN_VS>  (184) 
4.0750584602

>  <CNNaffinity_variance>  (184) 
0.0336295366

$$$$
185
     RDKit          3D

 43 45  0  0  0  0  0  0  0  0999 V2000
   20.6639   73.2134   -3.0659 P   0  0  2  0  0  0  0  0  0  0  0  0
   20.2007   73.2275   -1.5153 O   0  0  0  0  0  0  0  0  0  0  0  0
   21.0557   74.5508   -3.6222 O   0  0  0  0  0  0  0  0  0  0  0  0
   19.4487   72.4643   -3.8275 O   0  0  0  0  0  0  0  0  0  0  0  0
   18.8980   71.2998   -3.2399 C   0  0  0  0  0  0  0  0  0  0  0  0
   17.1258   71.8302   -4.7746 O   0  0  0  0  0  0  0  0  0  0  0  0
   15.3967   70.0341   -3.1086 O   0  0  0  0  0  0  0  0  0  0  0  0
   16.0285   68.4482   -5.2350 O   0  0  0  0  0  0  0  0  0  0  0  0
   16.7797   69.9049   -3.4389 C   0  0  1  0  0  0  0  0  0  0  0  0
   16.9358   69.4710   -4.8810 C   0  0  2  0  0  0  0  0  0  0  0  0
   17.3904   71.2995   -3.4580 C   0  0  1  0  0  0  0  0  0  0  0  0
   16.6772   70.7671   -5.6301 C   0  0  2  0  0  0  0  0  0  0  0  0
   14.9849   69.1556   -3.0903 H   0  0  0  0  0  0  0  0  0  0  0  0
   16.2349   67.6444   -4.7316 H   0  0  0  0  0  0  0  0  0  0  0  0
   15.6425   71.8848   -8.0085 O   0  0  0  0  0  0  0  0  0  0  0  0
   19.5128   70.9699  -10.3382 O   0  0  0  0  0  0  0  0  0  0  0  0
   17.3930   70.8340   -6.8727 N   0  0  0  0  0  0  0  0  0  0  0  0
   17.5707   71.4271   -9.1668 N   0  0  0  0  0  0  0  0  0  0  0  0
   16.7822   71.4157   -8.0087 C   0  0  0  0  0  0  0  0  0  0  0  0
   18.6849   70.3291   -6.9570 C   0  0  0  0  0  0  0  0  0  0  0  0
   19.4241   70.3472   -8.0678 C   0  0  0  0  0  0  0  0  0  0  0  0
   18.8597   70.9367   -9.2996 C   0  0  0  0  0  0  0  0  0  0  0  0
   17.1661   71.8252   -9.9712 H   0  0  0  0  0  0  0  0  0  0  0  0
   21.8411   72.1059   -3.0829 O   0  0  0  0  0  0  0  0  0  0  0  0
   23.3397   72.1404   -2.4773 P   0  0  2  0  0  0  0  0  0  0  0  0
   23.8832   73.6000   -2.9182 O   0  0  0  0  0  0  0  0  0  0  0  0
   24.2084   70.9980   -2.9181 O   0  0  0  0  0  0  0  0  0  0  0  0
   23.1337   72.2477   -0.8809 O   0  0  0  0  0  0  0  0  0  0  0  0
   24.4670   71.1025    0.7066 O   0  0  0  0  0  0  0  0  0  0  0  0
   21.0025   71.7820    2.8522 O   0  0  0  0  0  0  0  0  0  0  0  0
   20.8725   70.9300    0.0608 O   0  0  0  0  0  0  0  0  0  0  0  0
   23.3729   73.3857    3.3621 O   0  0  0  0  0  0  0  0  0  0  0  0
   22.0096   72.0629    1.8801 C   0  0  2  0  0  0  0  0  0  0  0  0
   22.0562   70.9336    0.8505 C   0  0  2  0  0  0  0  0  0  0  0  0
   23.3510   72.1753    2.6079 C   0  0  1  0  0  0  0  0  0  0  0  0
   23.2685   71.0821   -0.0698 C   0  0  1  0  0  0  0  0  0  0  0  0
   24.5183   72.1918    1.6252 C   0  0  1  0  0  0  0  0  0  0  0  0
   20.1409   71.7061    2.4127 H   0  0  0  0  0  0  0  0  0  0  0  0
   20.0993   70.8364    0.6385 H   0  0  0  0  0  0  0  0  0  0  0  0
   22.6348   73.3880    3.9914 H   0  0  0  0  0  0  0  0  0  0  0  0
   26.2213   73.1067    2.9535 O   0  0  0  0  0  0  0  0  0  0  0  0
   26.4262   70.9134    2.3649 O   0  0  0  0  0  0  0  0  0  0  0  0
   25.8135   71.9701    2.3363 C   0  0  0  0  0  0  0  0  0  0  0  0
  1  4  1  0
  1 24  1  0
  1  2  1  1
  1  3  2  0
 25 28  1  0
 25 24  1  0
 25 26  1  6
 25 27  2  0
  6 11  1  0
  6 12  1  0
 29 36  1  0
 29 37  1  0
  9  7  1  6
  7 13  1  0
 10  8  1  6
  8 14  1  0
  4  5  1  0
 36 28  1  1
 33 30  1  1
 30 38  1  0
 34 31  1  6
 31 39  1  0
 35 32  1  6
 32 40  1  0
 41 43  1  0
 15 19  2  0
 42 43  2  0
 16 22  2  0
 12 17  1  6
 17 19  1  0
 17 20  1  0
 18 19  1  0
 18 22  1  0
 18 23  1  0
  9 10  1  0
  9 11  1  0
 10 12  1  0
 11  5  1  6
 33 34  1  0
 33 35  1  0
 34 36  1  0
 35 37  1  0
 37 43  1  1
 20 21  2  0
 21 22  1  0
M  CHG  3   2  -1  26  -1  41  -1
M  END
>  <COMPND>  (185) 
    udp_gluA.pdb 

>  <AUTHOR>  (185) 
    GENERATED BY OPEN BABEL 3.1.1

>  <MASTER>  (185) 
        0    0    0    0    0    0    0    0   56    0   56    0

>  <minimizedAffinity>  (185) 
-7.67399

>  <CNNscore>  (185) 
0.8645901680

>  <CNNaffinity>  (185) 
4.6837306023

>  <CNN_VS>  (185) 
4.0495076180

>  <CNNaffinity_variance>  (185) 
0.0442289934

$$$$
186
     RDKit          3D

 43 45  0  0  0  0  0  0  0  0999 V2000
   21.8268   71.8414   -1.5956 P   0  0  2  0  0  0  0  0  0  0  0  0
   21.7423   73.3376   -2.2063 O   0  0  0  0  0  0  0  0  0  0  0  0
   23.2179   71.3082   -1.4155 O   0  0  0  0  0  0  0  0  0  0  0  0
   20.8608   70.9728   -2.5602 O   0  0  0  0  0  0  0  0  0  0  0  0
   20.3523   71.5815   -3.7330 C   0  0  0  0  0  0  0  0  0  0  0  0
   18.3148   72.1048   -4.8959 O   0  0  0  0  0  0  0  0  0  0  0  0
   16.8959   70.6988   -2.6595 O   0  0  0  0  0  0  0  0  0  0  0  0
   16.9020   68.8199   -4.6358 O   0  0  0  0  0  0  0  0  0  0  0  0
   18.1516   70.3933   -3.2665 C   0  0  1  0  0  0  0  0  0  0  0  0
   17.9373   69.7805   -4.6342 C   0  0  2  0  0  0  0  0  0  0  0  0
   18.8392   71.7075   -3.6104 C   0  0  1  0  0  0  0  0  0  0  0  0
   17.6052   70.9996   -5.4776 C   0  0  2  0  0  0  0  0  0  0  0  0
   16.4379   69.8745   -2.4308 H   0  0  0  0  0  0  0  0  0  0  0  0
   17.1616   68.0638   -4.0855 H   0  0  0  0  0  0  0  0  0  0  0  0
   15.9475   70.0151   -7.5414 O   0  0  0  0  0  0  0  0  0  0  0  0
   19.2871   70.4629  -10.6863 O   0  0  0  0  0  0  0  0  0  0  0  0
   18.0160   70.8486   -6.8448 N   0  0  0  0  0  0  0  0  0  0  0  0
   17.6127   70.2381   -9.1056 N   0  0  0  0  0  0  0  0  0  0  0  0
   17.1058   70.3445   -7.8037 C   0  0  0  0  0  0  0  0  0  0  0  0
   19.3059   71.1992   -7.2242 C   0  0  0  0  0  0  0  0  0  0  0  0
   19.7746   71.0924   -8.4691 C   0  0  0  0  0  0  0  0  0  0  0  0
   18.8879   70.5735   -9.5310 C   0  0  0  0  0  0  0  0  0  0  0  0
   16.9981   69.8877   -9.7902 H   0  0  0  0  0  0  0  0  0  0  0  0
   20.9682   71.9574   -0.2309 O   0  0  0  0  0  0  0  0  0  0  0  0
   21.3999   71.7610    1.3146 P   0  0  2  0  0  0  0  0  0  0  0  0
   21.9559   70.2412    1.3531 O   0  0  0  0  0  0  0  0  0  0  0  0
   20.3038   72.0436    2.3009 O   0  0  0  0  0  0  0  0  0  0  0  0
   22.7139   72.6799    1.4925 O   0  0  0  0  0  0  0  0  0  0  0  0
   22.5681   74.1954    3.3067 O   0  0  0  0  0  0  0  0  0  0  0  0
   26.0451   75.4361    1.4520 O   0  0  0  0  0  0  0  0  0  0  0  0
   23.6994   74.7115   -0.1314 O   0  0  0  0  0  0  0  0  0  0  0  0
   26.1740   73.9034    3.9188 O   0  0  0  0  0  0  0  0  0  0  0  0
   25.0545   74.4967    1.8695 C   0  0  2  0  0  0  0  0  0  0  0  0
   23.6986   74.8870    1.2806 C   0  0  2  0  0  0  0  0  0  0  0  0
   24.9969   74.5183    3.3986 C   0  0  1  0  0  0  0  0  0  0  0  0
   22.5758   74.0438    1.8867 C   0  0  1  0  0  0  0  0  0  0  0  0
   23.7794   73.7610    3.9209 C   0  0  1  0  0  0  0  0  0  0  0  0
   26.0995   75.4399    0.4834 H   0  0  0  0  0  0  0  0  0  0  0  0
   24.4096   75.2435   -0.5225 H   0  0  0  0  0  0  0  0  0  0  0  0
   26.9563   74.3758    3.5937 H   0  0  0  0  0  0  0  0  0  0  0  0
   22.5832   73.2543    5.8738 O   0  0  0  0  0  0  0  0  0  0  0  0
   24.1447   74.9103    6.0107 O   0  0  0  0  0  0  0  0  0  0  0  0
   23.5486   74.0602    5.3664 C   0  0  0  0  0  0  0  0  0  0  0  0
  1  4  1  0
  1 24  1  0
  1  2  1  6
  1  3  2  0
 25 28  1  0
 25 24  1  0
 25 26  1  6
 25 27  2  0
  6 11  1  0
  6 12  1  0
 29 36  1  0
 29 37  1  0
  9  7  1  6
  7 13  1  0
 10  8  1  1
  8 14  1  0
  4  5  1  0
 36 28  1  1
 33 30  1  6
 30 38  1  0
 34 31  1  6
 31 39  1  0
 35 32  1  1
 32 40  1  0
 41 43  1  0
 15 19  2  0
 42 43  2  0
 16 22  2  0
 12 17  1  6
 17 19  1  0
 17 20  1  0
 18 19  1  0
 18 22  1  0
 18 23  1  0
  9 10  1  0
  9 11  1  0
 10 12  1  0
 11  5  1  6
 33 34  1  0
 33 35  1  0
 34 36  1  0
 35 37  1  0
 37 43  1  1
 20 21  2  0
 21 22  1  0
M  CHG  3   2  -1  26  -1  41  -1
M  END
>  <COMPND>  (186) 
    udp_gluA.pdb 

>  <AUTHOR>  (186) 
    GENERATED BY OPEN BABEL 3.1.1

>  <MASTER>  (186) 
        0    0    0    0    0    0    0    0   56    0   56    0

>  <minimizedAffinity>  (186) 
-6.99731

>  <CNNscore>  (186) 
0.8373951912

>  <CNNaffinity>  (186) 
4.5905179977

>  <CNN_VS>  (186) 
3.8440775871

>  <CNNaffinity_variance>  (186) 
0.1381159127

$$$$
187
     RDKit          3D

 43 45  0  0  0  0  0  0  0  0999 V2000
   21.8970   72.5948   -5.5128 P   0  0  2  0  0  0  0  0  0  0  0  0
   21.2208   74.0446   -5.2685 O   0  0  0  0  0  0  0  0  0  0  0  0
   23.1640   72.6140   -6.3167 O   0  0  0  0  0  0  0  0  0  0  0  0
   20.6925   71.7018   -6.1209 O   0  0  0  0  0  0  0  0  0  0  0  0
   20.2011   72.0179   -7.4105 C   0  0  0  0  0  0  0  0  0  0  0  0
   18.9762   70.0061   -6.9307 O   0  0  0  0  0  0  0  0  0  0  0  0
   18.2184   69.9969   -9.8319 O   0  0  0  0  0  0  0  0  0  0  0  0
   15.9815   70.9969   -8.6350 O   0  0  0  0  0  0  0  0  0  0  0  0
   18.3906   71.1037   -8.9465 C   0  0  1  0  0  0  0  0  0  0  0  0
   17.2215   71.1957   -7.9889 C   0  0  2  0  0  0  0  0  0  0  0  0
   19.5457   70.7798   -8.0088 C   0  0  1  0  0  0  0  0  0  0  0  0
   17.5439   70.0964   -6.9911 C   0  0  2  0  0  0  0  0  0  0  0  0
   17.4855   70.1807  -10.4409 H   0  0  0  0  0  0  0  0  0  0  0  0
   15.8223   71.7227   -9.2593 H   0  0  0  0  0  0  0  0  0  0  0  0
   16.3260   68.1895   -5.3008 O   0  0  0  0  0  0  0  0  0  0  0  0
   15.6409   71.3060   -1.9748 O   0  0  0  0  0  0  0  0  0  0  0  0
   17.0383   70.3824   -5.6783 N   0  0  0  0  0  0  0  0  0  0  0  0
   15.9850   69.7438   -3.6463 N   0  0  0  0  0  0  0  0  0  0  0  0
   16.4442   69.3527   -4.9109 C   0  0  0  0  0  0  0  0  0  0  0  0
   17.1346   71.6693   -5.1631 C   0  0  0  0  0  0  0  0  0  0  0  0
   16.6924   72.0269   -3.9559 C   0  0  0  0  0  0  0  0  0  0  0  0
   16.0579   71.0109   -3.0907 C   0  0  0  0  0  0  0  0  0  0  0  0
   15.5658   69.0445   -3.0943 H   0  0  0  0  0  0  0  0  0  0  0  0
   22.0596   72.0129   -4.0136 O   0  0  0  0  0  0  0  0  0  0  0  0
   23.2939   72.0917   -2.9725 P   0  0  2  0  0  0  0  0  0  0  0  0
   23.8967   73.5727   -3.2249 O   0  0  0  0  0  0  0  0  0  0  0  0
   24.2955   70.9830   -3.1197 O   0  0  0  0  0  0  0  0  0  0  0  0
   22.5988   72.1773   -1.5192 O   0  0  0  0  0  0  0  0  0  0  0  0
   23.9259   71.1774    0.1684 O   0  0  0  0  0  0  0  0  0  0  0  0
   20.4562   72.0499    2.2342 O   0  0  0  0  0  0  0  0  0  0  0  0
   20.3332   70.9516   -0.4701 O   0  0  0  0  0  0  0  0  0  0  0  0
   22.8272   73.6903    2.6057 O   0  0  0  0  0  0  0  0  0  0  0  0
   21.4664   72.2415    1.2439 C   0  0  2  0  0  0  0  0  0  0  0  0
   21.5145   71.0246    0.3197 C   0  0  2  0  0  0  0  0  0  0  0  0
   22.8060   72.4172    1.9628 C   0  0  1  0  0  0  0  0  0  0  0  0
   22.7297   71.0888   -0.6066 C   0  0  1  0  0  0  0  0  0  0  0  0
   23.9761   72.3445    0.9860 C   0  0  1  0  0  0  0  0  0  0  0  0
   19.5957   71.9358    1.8007 H   0  0  0  0  0  0  0  0  0  0  0  0
   19.5581   70.9109    0.1113 H   0  0  0  0  0  0  0  0  0  0  0  0
   22.0873   73.7496    3.2300 H   0  0  0  0  0  0  0  0  0  0  0  0
   25.7847   70.9482    1.5161 O   0  0  0  0  0  0  0  0  0  0  0  0
   25.7970   73.0484    2.4038 O   0  0  0  0  0  0  0  0  0  0  0  0
   25.2690   72.1860    1.7179 C   0  0  0  0  0  0  0  0  0  0  0  0
  1  4  1  0
  1 24  1  0
  1  2  1  1
  1  3  2  0
 25 28  1  0
 25 24  1  0
 25 26  1  6
 25 27  2  0
  6 11  1  0
  6 12  1  0
 29 36  1  0
 29 37  1  0
  9  7  1  6
  7 13  1  0
 10  8  1  6
  8 14  1  0
  4  5  1  0
 36 28  1  6
 33 30  1  1
 30 38  1  0
 34 31  1  6
 31 39  1  0
 35 32  1  6
 32 40  1  0
 41 43  1  0
 15 19  2  0
 42 43  2  0
 16 22  2  0
 12 17  1  1
 17 19  1  0
 17 20  1  0
 18 19  1  0
 18 22  1  0
 18 23  1  0
  9 10  1  0
  9 11  1  0
 10 12  1  0
 11  5  1  1
 33 34  1  0
 33 35  1  0
 34 36  1  0
 35 37  1  0
 37 43  1  1
 20 21  2  0
 21 22  1  0
M  CHG  3   2  -1  26  -1  41  -1
M  END
>  <COMPND>  (187) 
    udp_gluA.pdb 

>  <AUTHOR>  (187) 
    GENERATED BY OPEN BABEL 3.1.1

>  <MASTER>  (187) 
        0    0    0    0    0    0    0    0   56    0   56    0

>  <minimizedAffinity>  (187) 
-8.22235

>  <CNNscore>  (187) 
0.7829086781

>  <CNNaffinity>  (187) 
4.6474657059

>  <CNN_VS>  (187) 
3.6385412216

>  <CNNaffinity_variance>  (187) 
0.1013200656

$$$$
188
     RDKit          3D

 43 45  0  0  0  0  0  0  0  0999 V2000
   23.5125   72.6921   -3.6515 P   0  0  2  0  0  0  0  0  0  0  0  0
   24.0325   71.2191   -3.2289 O   0  0  0  0  0  0  0  0  0  0  0  0
   24.5078   73.5226   -4.4074 O   0  0  0  0  0  0  0  0  0  0  0  0
   22.9766   73.3279   -2.2635 O   0  0  0  0  0  0  0  0  0  0  0  0
   22.0523   74.3988   -2.3228 C   0  0  0  0  0  0  0  0  0  0  0  0
   21.0781   72.7869   -0.8294 O   0  0  0  0  0  0  0  0  0  0  0  0
   19.1050   74.9258   -0.1062 O   0  0  0  0  0  0  0  0  0  0  0  0
   20.8543   74.9973    1.9845 O   0  0  0  0  0  0  0  0  0  0  0  0
   20.4928   75.0452   -0.4195 C   0  0  1  0  0  0  0  0  0  0  0  0
   21.3356   74.5472    0.7354 C   0  0  2  0  0  0  0  0  0  0  0  0
   20.8169   74.0334   -1.5101 C   0  0  1  0  0  0  0  0  0  0  0  0
   21.2294   73.0401    0.5764 C   0  0  2  0  0  0  0  0  0  0  0  0
   18.8741   75.5627    0.5886 H   0  0  0  0  0  0  0  0  0  0  0  0
   20.9438   75.9623    2.0367 H   0  0  0  0  0  0  0  0  0  0  0  0
   21.3231   70.2860    1.1951 O   0  0  0  0  0  0  0  0  0  0  0  0
   25.7686   70.5192    2.3898 O   0  0  0  0  0  0  0  0  0  0  0  0
   22.3983   72.3552    1.0510 N   0  0  0  0  0  0  0  0  0  0  0  0
   23.5368   70.4050    1.7905 N   0  0  0  0  0  0  0  0  0  0  0  0
   22.3392   70.9698    1.3327 C   0  0  0  0  0  0  0  0  0  0  0  0
   23.5861   73.0536    1.2313 C   0  0  0  0  0  0  0  0  0  0  0  0
   24.7196   72.5014    1.6683 C   0  0  0  0  0  0  0  0  0  0  0  0
   24.7427   71.0586    1.9863 C   0  0  0  0  0  0  0  0  0  0  0  0
   23.5197   69.4421    1.9952 H   0  0  0  0  0  0  0  0  0  0  0  0
   22.1474   72.3774   -4.4580 O   0  0  0  0  0  0  0  0  0  0  0  0
   21.5250   73.0451   -5.7923 P   0  0  2  0  0  0  0  0  0  0  0  0
   22.4910   72.4923   -6.9677 O   0  0  0  0  0  0  0  0  0  0  0  0
   21.4119   74.5411   -5.7371 O   0  0  0  0  0  0  0  0  0  0  0  0
   20.1254   72.2759   -6.0202 O   0  0  0  0  0  0  0  0  0  0  0  0
   19.4552   70.1181   -5.3103 O   0  0  0  0  0  0  0  0  0  0  0  0
   17.3672   70.5240   -8.8519 O   0  0  0  0  0  0  0  0  0  0  0  0
   20.1460   71.4053   -8.6618 O   0  0  0  0  0  0  0  0  0  0  0  0
   15.9905   70.8004   -6.3065 O   0  0  0  0  0  0  0  0  0  0  0  0
   17.9862   70.9706   -7.6456 C   0  0  2  0  0  0  0  0  0  0  0  0
   19.4757   70.6270   -7.6770 C   0  0  2  0  0  0  0  0  0  0  0  0
   17.3017   70.2643   -6.4732 C   0  0  1  0  0  0  0  0  0  0  0  0
   20.1245   70.8803   -6.3155 C   0  0  1  0  0  0  0  0  0  0  0  0
   18.0779   70.4611   -5.1742 C   0  0  1  0  0  0  0  0  0  0  0  0
   17.7860   70.9596   -9.6109 H   0  0  0  0  0  0  0  0  0  0  0  0
   19.7392   71.2497   -9.5282 H   0  0  0  0  0  0  0  0  0  0  0  0
   15.4860   70.6817   -7.1264 H   0  0  0  0  0  0  0  0  0  0  0  0
   18.5721   69.2861   -3.2053 O   0  0  0  0  0  0  0  0  0  0  0  0
   16.4851   69.0145   -4.0827 O   0  0  0  0  0  0  0  0  0  0  0  0
   17.5990   69.5152   -4.1216 C   0  0  0  0  0  0  0  0  0  0  0  0
  1  4  1  0
  1 24  1  0
  1  2  1  1
  1  3  2  0
 25 28  1  0
 25 24  1  0
 25 26  1  6
 25 27  2  0
  6 11  1  0
  6 12  1  0
 29 36  1  0
 29 37  1  0
  9  7  1  1
  7 13  1  0
 10  8  1  1
  8 14  1  0
  4  5  1  0
 36 28  1  1
 33 30  1  6
 30 38  1  0
 34 31  1  6
 31 39  1  0
 35 32  1  1
 32 40  1  0
 41 43  1  0
 15 19  2  0
 42 43  2  0
 16 22  2  0
 12 17  1  6
 17 19  1  0
 17 20  1  0
 18 19  1  0
 18 22  1  0
 18 23  1  0
  9 10  1  0
  9 11  1  0
 10 12  1  0
 11  5  1  1
 33 34  1  0
 33 35  1  0
 34 36  1  0
 35 37  1  0
 37 43  1  1
 20 21  2  0
 21 22  1  0
M  CHG  3   2  -1  26  -1  41  -1
M  END
>  <COMPND>  (188) 
    udp_gluA.pdb 

>  <AUTHOR>  (188) 
    GENERATED BY OPEN BABEL 3.1.1

>  <MASTER>  (188) 
        0    0    0    0    0    0    0    0   56    0   56    0

>  <minimizedAffinity>  (188) 
-7.52450

>  <CNNscore>  (188) 
0.7543467283

>  <CNNaffinity>  (188) 
4.6066350937

>  <CNN_VS>  (188) 
3.4750001431

>  <CNNaffinity_variance>  (188) 
0.0776119530

$$$$
189
     RDKit          3D

 43 45  0  0  0  0  0  0  0  0999 V2000
   21.1316   75.1695   -3.4627 P   0  0  2  0  0  0  0  0  0  0  0  0
   22.6331   75.5628   -3.9207 O   0  0  0  0  0  0  0  0  0  0  0  0
   20.1872   76.3275   -3.3258 O   0  0  0  0  0  0  0  0  0  0  0  0
   21.3525   74.2814   -2.1284 O   0  0  0  0  0  0  0  0  0  0  0  0
   22.5237   73.4923   -2.0276 C   0  0  0  0  0  0  0  0  0  0  0  0
   23.2517   71.4718   -0.9482 O   0  0  0  0  0  0  0  0  0  0  0  0
   20.3499   70.7343   -0.7841 O   0  0  0  0  0  0  0  0  0  0  0  0
   20.8810   71.6278    1.7369 O   0  0  0  0  0  0  0  0  0  0  0  0
   20.9645   72.0172   -0.6618 C   0  0  1  0  0  0  0  0  0  0  0  0
   21.6616   72.1389    0.6767 C   0  0  2  0  0  0  0  0  0  0  0  0
   22.1333   72.0729   -1.6360 C   0  0  1  0  0  0  0  0  0  0  0  0
   22.9307   71.3365    0.4454 C   0  0  2  0  0  0  0  0  0  0  0  0
   19.6000   70.6749   -0.1711 H   0  0  0  0  0  0  0  0  0  0  0  0
   20.0851   72.1728    1.8442 H   0  0  0  0  0  0  0  0  0  0  0  0
   24.6167   69.6941    2.0064 O   0  0  0  0  0  0  0  0  0  0  0  0
   27.1323   73.2938    3.4057 O   0  0  0  0  0  0  0  0  0  0  0  0
   24.0339   71.8184    1.2275 N   0  0  0  0  0  0  0  0  0  0  0  0
   25.8674   71.4887    2.7026 N   0  0  0  0  0  0  0  0  0  0  0  0
   24.8184   70.9096    1.9764 C   0  0  0  0  0  0  0  0  0  0  0  0
   24.3301   73.1759    1.2464 C   0  0  0  0  0  0  0  0  0  0  0  0
   25.3333   73.7130    1.9435 C   0  0  0  0  0  0  0  0  0  0  0  0
   26.2007   72.8325    2.7533 C   0  0  0  0  0  0  0  0  0  0  0  0
   26.4263   70.8761    3.2334 H   0  0  0  0  0  0  0  0  0  0  0  0
   20.6931   74.0694   -4.5629 O   0  0  0  0  0  0  0  0  0  0  0  0
   19.3959   73.1080   -4.6440 P   0  0  2  0  0  0  0  0  0  0  0  0
   18.1586   74.1489   -4.5662 O   0  0  0  0  0  0  0  0  0  0  0  0
   19.3628   72.0291   -3.6006 O   0  0  0  0  0  0  0  0  0  0  0  0
   19.3800   72.5695   -6.1646 O   0  0  0  0  0  0  0  0  0  0  0  0
   18.8053   70.2897   -5.8795 O   0  0  0  0  0  0  0  0  0  0  0  0
   18.5736   70.7082   -9.9830 O   0  0  0  0  0  0  0  0  0  0  0  0
   20.7658   71.9340   -8.4909 O   0  0  0  0  0  0  0  0  0  0  0  0
   16.1454   70.5838   -8.3896 O   0  0  0  0  0  0  0  0  0  0  0  0
   18.4802   71.1309   -8.6227 C   0  0  2  0  0  0  0  0  0  0  0  0
   19.8458   70.9933   -7.9491 C   0  0  2  0  0  0  0  0  0  0  0  0
   17.4491   70.2437   -7.9216 C   0  0  1  0  0  0  0  0  0  0  0  0
   19.7364   71.2161   -6.4401 C   0  0  1  0  0  0  0  0  0  0  0  0
   17.4887   70.4329   -6.4079 C   0  0  1  0  0  0  0  0  0  0  0  0
   19.2234   71.2580  -10.4487 H   0  0  0  0  0  0  0  0  0  0  0  0
   20.8399   71.7985   -9.4483 H   0  0  0  0  0  0  0  0  0  0  0  0
   16.1068   70.4678   -9.3518 H   0  0  0  0  0  0  0  0  0  0  0  0
   16.8422   69.4656   -4.3713 O   0  0  0  0  0  0  0  0  0  0  0  0
   16.0921   68.4696   -6.2803 O   0  0  0  0  0  0  0  0  0  0  0  0
   16.7301   69.3466   -5.7175 C   0  0  0  0  0  0  0  0  0  0  0  0
  1  4  1  0
  1 24  1  0
  1  2  1  6
  1  3  2  0
 25 28  1  0
 25 24  1  0
 25 26  1  6
 25 27  2  0
  6 11  1  0
  6 12  1  0
 29 36  1  0
 29 37  1  0
  9  7  1  1
  7 13  1  0
 10  8  1  1
  8 14  1  0
  4  5  1  0
 36 28  1  6
 33 30  1  6
 30 38  1  0
 34 31  1  6
 31 39  1  0
 35 32  1  6
 32 40  1  0
 41 43  1  0
 15 19  2  0
 42 43  2  0
 16 22  2  0
 12 17  1  1
 17 19  1  0
 17 20  1  0
 18 19  1  0
 18 22  1  0
 18 23  1  0
  9 10  1  0
  9 11  1  0
 10 12  1  0
 11  5  1  1
 33 34  1  0
 33 35  1  0
 34 36  1  0
 35 37  1  0
 37 43  1  1
 20 21  2  0
 21 22  1  0
M  CHG  3   2  -1  26  -1  41  -1
M  END
>  <COMPND>  (189) 
    udp_gluA.pdb 

>  <AUTHOR>  (189) 
    GENERATED BY OPEN BABEL 3.1.1

>  <MASTER>  (189) 
        0    0    0    0    0    0    0    0   56    0   56    0

>  <minimizedAffinity>  (189) 
-7.08529

>  <CNNscore>  (189) 
0.7484610677

>  <CNNaffinity>  (189) 
4.3890924454

>  <CNN_VS>  (189) 
3.2850649357

>  <CNNaffinity_variance>  (189) 
0.1053310260

$$$$
190
     RDKit          3D

 43 45  0  0  0  0  0  0  0  0999 V2000
   20.5161   73.5494   -0.8384 P   0  0  2  0  0  0  0  0  0  0  0  0
   19.1797   74.2001   -0.1984 O   0  0  0  0  0  0  0  0  0  0  0  0
   21.7667   74.3571   -0.6503 O   0  0  0  0  0  0  0  0  0  0  0  0
   20.1023   73.2420   -2.3721 O   0  0  0  0  0  0  0  0  0  0  0  0
   19.9511   71.8929   -2.7742 C   0  0  0  0  0  0  0  0  0  0  0  0
   20.5952   70.6179   -4.7074 O   0  0  0  0  0  0  0  0  0  0  0  0
   23.0157   72.3833   -4.8348 O   0  0  0  0  0  0  0  0  0  0  0  0
   21.3976   73.4514   -6.7523 O   0  0  0  0  0  0  0  0  0  0  0  0
   21.6787   72.7090   -4.4540 C   0  0  1  0  0  0  0  0  0  0  0  0
   20.7864   72.7719   -5.6755 C   0  0  2  0  0  0  0  0  0  0  0  0
   21.1021   71.5190   -3.6992 C   0  0  1  0  0  0  0  0  0  0  0  0
   20.5515   71.3003   -5.9706 C   0  0  2  0  0  0  0  0  0  0  0  0
   23.4051   73.1288   -5.3188 H   0  0  0  0  0  0  0  0  0  0  0  0
   21.5254   74.3839   -6.5153 H   0  0  0  0  0  0  0  0  0  0  0  0
   20.1855   69.8601   -8.3724 O   0  0  0  0  0  0  0  0  0  0  0  0
   15.6156   70.4463   -8.2412 O   0  0  0  0  0  0  0  0  0  0  0  0
   19.2769   71.0616   -6.5865 N   0  0  0  0  0  0  0  0  0  0  0  0
   17.9099   70.1543   -8.3053 N   0  0  0  0  0  0  0  0  0  0  0  0
   19.2026   70.3262   -7.7930 C   0  0  0  0  0  0  0  0  0  0  0  0
   18.1185   71.5516   -5.9957 C   0  0  0  0  0  0  0  0  0  0  0  0
   16.8934   71.3796   -6.4958 C   0  0  0  0  0  0  0  0  0  0  0  0
   16.7283   70.6232   -7.7544 C   0  0  0  0  0  0  0  0  0  0  0  0
   17.8330   69.6473   -9.1458 H   0  0  0  0  0  0  0  0  0  0  0  0
   20.5583   72.0776   -0.1714 O   0  0  0  0  0  0  0  0  0  0  0  0
   21.7266   71.3160    0.6462 P   0  0  2  0  0  0  0  0  0  0  0  0
   22.9801   71.3549   -0.3773 O   0  0  0  0  0  0  0  0  0  0  0  0
   21.3534   69.9393    1.1147 O   0  0  0  0  0  0  0  0  0  0  0  0
   22.1329   72.3377    1.8266 O   0  0  0  0  0  0  0  0  0  0  0  0
   24.0580   71.4294    2.8651 O   0  0  0  0  0  0  0  0  0  0  0  0
   23.5498   74.9489    4.9682 O   0  0  0  0  0  0  0  0  0  0  0  0
   21.2471   73.2851    4.2871 O   0  0  0  0  0  0  0  0  0  0  0  0
   25.6415   74.7379    2.9604 O   0  0  0  0  0  0  0  0  0  0  0  0
   23.4889   74.0915    3.8284 C   0  0  2  0  0  0  0  0  0  0  0  0
   22.6048   72.8844    4.1428 C   0  0  2  0  0  0  0  0  0  0  0  0
   24.9132   73.6373    3.5016 C   0  0  1  0  0  0  0  0  0  0  0  0
   22.6990   71.8340    3.0352 C   0  0  1  0  0  0  0  0  0  0  0  0
   24.9158   72.5020    2.4820 C   0  0  1  0  0  0  0  0  0  0  0  0
   22.6557   75.2501    5.1946 H   0  0  0  0  0  0  0  0  0  0  0  0
   21.1800   73.9517    4.9881 H   0  0  0  0  0  0  0  0  0  0  0  0
   25.6473   75.4674    3.5995 H   0  0  0  0  0  0  0  0  0  0  0  0
   27.1412   72.4912    3.2232 O   0  0  0  0  0  0  0  0  0  0  0  0
   26.5324   70.8738    1.7357 O   0  0  0  0  0  0  0  0  0  0  0  0
   26.2589   71.8506    2.4169 C   0  0  0  0  0  0  0  0  0  0  0  0
  1  4  1  0
  1 24  1  0
  1  2  1  1
  1  3  2  0
 25 28  1  0
 25 24  1  0
 25 26  1  6
 25 27  2  0
  6 11  1  0
  6 12  1  0
 29 36  1  0
 29 37  1  0
  9  7  1  6
  7 13  1  0
 10  8  1  6
  8 14  1  0
  4  5  1  0
 36 28  1  6
 33 30  1  1
 30 38  1  0
 34 31  1  6
 31 39  1  0
 35 32  1  6
 32 40  1  0
 41 43  1  0
 15 19  2  0
 42 43  2  0
 16 22  2  0
 12 17  1  1
 17 19  1  0
 17 20  1  0
 18 19  1  0
 18 22  1  0
 18 23  1  0
  9 10  1  0
  9 11  1  0
 10 12  1  0
 11  5  1  1
 33 34  1  0
 33 35  1  0
 34 36  1  0
 35 37  1  0
 37 43  1  1
 20 21  2  0
 21 22  1  0
M  CHG  3   2  -1  26  -1  41  -1
M  END
>  <COMPND>  (190) 
    udp_gluA.pdb 

>  <AUTHOR>  (190) 
    GENERATED BY OPEN BABEL 3.1.1

>  <MASTER>  (190) 
        0    0    0    0    0    0    0    0   56    0   56    0

>  <minimizedAffinity>  (190) 
-6.47562

>  <CNNscore>  (190) 
0.7343404889

>  <CNNaffinity>  (190) 
4.2755670547

>  <CNN_VS>  (190) 
3.1397221088

>  <CNNaffinity_variance>  (190) 
0.0432894863

$$$$
191
     RDKit          3D

 43 45  0  0  0  0  0  0  0  0999 V2000
   21.9659   72.6123   -5.8246 P   0  0  2  0  0  0  0  0  0  0  0  0
   21.3024   74.0321   -5.4213 O   0  0  0  0  0  0  0  0  0  0  0  0
   23.1303   72.7019   -6.7670 O   0  0  0  0  0  0  0  0  0  0  0  0
   20.7115   71.7296   -6.3397 O   0  0  0  0  0  0  0  0  0  0  0  0
   20.1346   72.0422   -7.5944 C   0  0  0  0  0  0  0  0  0  0  0  0
   18.9734   70.0036   -7.0716 O   0  0  0  0  0  0  0  0  0  0  0  0
   18.1173   69.9730   -9.9453 O   0  0  0  0  0  0  0  0  0  0  0  0
   15.9003   70.9230   -8.6732 O   0  0  0  0  0  0  0  0  0  0  0  0
   18.2943   71.0846   -9.0669 C   0  0  1  0  0  0  0  0  0  0  0  0
   17.1567   71.1511   -8.0699 C   0  0  2  0  0  0  0  0  0  0  0  0
   19.4878   70.7886   -8.1691 C   0  0  1  0  0  0  0  0  0  0  0  0
   17.5382   70.0609   -7.0831 C   0  0  2  0  0  0  0  0  0  0  0  0
   17.3600   70.1390  -10.5289 H   0  0  0  0  0  0  0  0  0  0  0  0
   15.7032   71.6441   -9.2921 H   0  0  0  0  0  0  0  0  0  0  0  0
   16.3040   68.1590   -5.3990 O   0  0  0  0  0  0  0  0  0  0  0  0
   15.7865   71.2320   -2.0030 O   0  0  0  0  0  0  0  0  0  0  0  0
   17.0713   70.3370   -5.7540 N   0  0  0  0  0  0  0  0  0  0  0  0
   16.0465   69.6916   -3.7096 N   0  0  0  0  0  0  0  0  0  0  0  0
   16.4651   69.3109   -4.9913 C   0  0  0  0  0  0  0  0  0  0  0  0
   17.2170   71.6109   -5.2184 C   0  0  0  0  0  0  0  0  0  0  0  0
   16.8131   71.9588   -3.9950 C   0  0  0  0  0  0  0  0  0  0  0  0
   16.1691   70.9457   -3.1334 C   0  0  0  0  0  0  0  0  0  0  0  0
   15.6197   68.9947   -3.1605 H   0  0  0  0  0  0  0  0  0  0  0  0
   22.3101   71.9520   -4.3899 O   0  0  0  0  0  0  0  0  0  0  0  0
   23.5656   72.1697   -3.3950 P   0  0  2  0  0  0  0  0  0  0  0  0
   24.4946   73.2250   -4.1974 O   0  0  0  0  0  0  0  0  0  0  0  0
   24.2673   70.9019   -3.0024 O   0  0  0  0  0  0  0  0  0  0  0  0
   22.9659   73.0138   -2.1579 O   0  0  0  0  0  0  0  0  0  0  0  0
   21.1424   72.2578   -0.8492 O   0  0  0  0  0  0  0  0  0  0  0  0
   21.0487   76.3284   -0.1497 O   0  0  0  0  0  0  0  0  0  0  0  0
   21.5347   75.2990   -2.8402 O   0  0  0  0  0  0  0  0  0  0  0  0
   22.0839   74.5225    1.8796 O   0  0  0  0  0  0  0  0  0  0  0  0
   21.6578   75.0677   -0.4282 C   0  0  2  0  0  0  0  0  0  0  0  0
   21.1021   74.5091   -1.7385 C   0  0  2  0  0  0  0  0  0  0  0  0
   21.3385   74.1217    0.7315 C   0  0  1  0  0  0  0  0  0  0  0  0
   21.5551   73.0643   -1.9531 C   0  0  1  0  0  0  0  0  0  0  0  0
   21.7045   72.6799    0.3913 C   0  0  1  0  0  0  0  0  0  0  0  0
   21.2381   76.9461   -0.8735 H   0  0  0  0  0  0  0  0  0  0  0  0
   21.2509   76.2171   -2.7105 H   0  0  0  0  0  0  0  0  0  0  0  0
   21.8603   75.4387    2.1066 H   0  0  0  0  0  0  0  0  0  0  0  0
   21.1502   70.4601    0.9080 O   0  0  0  0  0  0  0  0  0  0  0  0
   20.6198   72.0512    2.4527 O   0  0  0  0  0  0  0  0  0  0  0  0
   21.0976   71.7324    1.3743 C   0  0  0  0  0  0  0  0  0  0  0  0
  1  4  1  0
  1 24  1  0
  1  2  1  1
  1  3  2  0
 25 28  1  0
 25 24  1  0
 25 26  1  6
 25 27  2  0
  6 11  1  0
  6 12  1  0
 29 36  1  0
 29 37  1  0
  9  7  1  6
  7 13  1  0
 10  8  1  6
  8 14  1  0
  4  5  1  0
 36 28  1  1
 33 30  1  1
 30 38  1  0
 34 31  1  6
 31 39  1  0
 35 32  1  1
 32 40  1  0
 41 43  1  0
 15 19  2  0
 42 43  2  0
 16 22  2  0
 12 17  1  1
 17 19  1  0
 17 20  1  0
 18 19  1  0
 18 22  1  0
 18 23  1  0
  9 10  1  0
  9 11  1  0
 10 12  1  0
 11  5  1  1
 33 34  1  0
 33 35  1  0
 34 36  1  0
 35 37  1  0
 37 43  1  1
 20 21  2  0
 21 22  1  0
M  CHG  3   2  -1  26  -1  41  -1
M  END
>  <COMPND>  (191) 
    udp_gluA.pdb 

>  <AUTHOR>  (191) 
    GENERATED BY OPEN BABEL 3.1.1

>  <MASTER>  (191) 
        0    0    0    0    0    0    0    0   56    0   56    0

>  <minimizedAffinity>  (191) 
-8.05415

>  <CNNscore>  (191) 
0.7091447115

>  <CNNaffinity>  (191) 
4.5137634277

>  <CNN_VS>  (191) 
3.2009115219

>  <CNNaffinity_variance>  (191) 
0.3710821271

$$$$
192
     RDKit          3D

 43 45  0  0  0  0  0  0  0  0999 V2000
   23.5570   72.3565   -3.6296 P   0  0  2  0  0  0  0  0  0  0  0  0
   24.6523   73.3270   -4.3205 O   0  0  0  0  0  0  0  0  0  0  0  0
   24.1133   71.0971   -3.0328 O   0  0  0  0  0  0  0  0  0  0  0  0
   22.4371   72.1539   -4.7797 O   0  0  0  0  0  0  0  0  0  0  0  0
   21.1653   72.7485   -4.5972 C   0  0  0  0  0  0  0  0  0  0  0  0
   20.0556   72.3615   -6.6940 O   0  0  0  0  0  0  0  0  0  0  0  0
   19.7629   75.3401   -6.8764 O   0  0  0  0  0  0  0  0  0  0  0  0
   17.2902   74.5484   -6.0429 O   0  0  0  0  0  0  0  0  0  0  0  0
   19.7005   74.4947   -5.7276 C   0  0  1  0  0  0  0  0  0  0  0  0
   18.3929   73.7318   -5.7086 C   0  0  2  0  0  0  0  0  0  0  0  0
   20.7186   73.3774   -5.9107 C   0  0  1  0  0  0  0  0  0  0  0  0
   18.6478   72.6434   -6.7373 C   0  0  2  0  0  0  0  0  0  0  0  0
   19.1210   76.0618   -6.7825 H   0  0  0  0  0  0  0  0  0  0  0  0
   17.1692   75.2249   -5.3576 H   0  0  0  0  0  0  0  0  0  0  0  0
   16.6463   71.5547   -8.4062 O   0  0  0  0  0  0  0  0  0  0  0  0
   15.9263   68.0161   -5.5419 O   0  0  0  0  0  0  0  0  0  0  0  0
   17.9213   71.4386   -6.4519 N   0  0  0  0  0  0  0  0  0  0  0  0
   16.2889   69.7939   -6.9775 N   0  0  0  0  0  0  0  0  0  0  0  0
   16.9355   70.9777   -7.3563 C   0  0  0  0  0  0  0  0  0  0  0  0
   18.1886   70.7266   -5.2889 C   0  0  0  0  0  0  0  0  0  0  0  0
   17.5640   69.5996   -4.9415 C   0  0  0  0  0  0  0  0  0  0  0  0
   16.5197   69.0507   -5.8312 C   0  0  0  0  0  0  0  0  0  0  0  0
   15.5971   69.4544   -7.5904 H   0  0  0  0  0  0  0  0  0  0  0  0
   22.8207   73.3340   -2.5736 O   0  0  0  0  0  0  0  0  0  0  0  0
   22.0222   73.0100   -1.2057 P   0  0  2  0  0  0  0  0  0  0  0  0
   21.7521   71.4170   -1.3036 O   0  0  0  0  0  0  0  0  0  0  0  0
   20.7847   73.8359   -1.0047 O   0  0  0  0  0  0  0  0  0  0  0  0
   23.1270   73.1648   -0.0405 O   0  0  0  0  0  0  0  0  0  0  0  0
   23.7788   71.7215    1.7206 O   0  0  0  0  0  0  0  0  0  0  0  0
   24.1746   75.4352    3.4870 O   0  0  0  0  0  0  0  0  0  0  0  0
   21.8717   74.8400    1.7909 O   0  0  0  0  0  0  0  0  0  0  0  0
   26.5331   73.9705    2.6252 O   0  0  0  0  0  0  0  0  0  0  0  0
   24.1910   74.4944    2.4135 C   0  0  2  0  0  0  0  0  0  0  0  0
   22.8035   73.8713    2.2578 C   0  0  2  0  0  0  0  0  0  0  0  0
   25.2245   73.4158    2.7456 C   0  0  1  0  0  0  0  0  0  0  0  0
   22.8372   72.6990    1.2763 C   0  0  1  0  0  0  0  0  0  0  0  0
   25.1106   72.2246    1.7987 C   0  0  1  0  0  0  0  0  0  0  0  0
   23.5247   76.1304    3.2981 H   0  0  0  0  0  0  0  0  0  0  0  0
   21.8454   75.5869    2.4088 H   0  0  0  0  0  0  0  0  0  0  0  0
   26.6187   74.7297    3.2227 H   0  0  0  0  0  0  0  0  0  0  0  0
   25.0400   70.0811    2.7483 O   0  0  0  0  0  0  0  0  0  0  0  0
   27.0995   70.9795    2.3606 O   0  0  0  0  0  0  0  0  0  0  0  0
   25.8806   71.0558    2.3215 C   0  0  0  0  0  0  0  0  0  0  0  0
  1  4  1  0
  1 24  1  0
  1  2  1  6
  1  3  2  0
 25 28  1  0
 25 24  1  0
 25 26  1  6
 25 27  2  0
  6 11  1  0
  6 12  1  0
 29 36  1  0
 29 37  1  0
  9  7  1  6
  7 13  1  0
 10  8  1  6
  8 14  1  0
  4  5  1  0
 36 28  1  6
 33 30  1  1
 30 38  1  0
 34 31  1  6
 31 39  1  0
 35 32  1  6
 32 40  1  0
 41 43  1  0
 15 19  2  0
 42 43  2  0
 16 22  2  0
 12 17  1  1
 17 19  1  0
 17 20  1  0
 18 19  1  0
 18 22  1  0
 18 23  1  0
  9 10  1  0
  9 11  1  0
 10 12  1  0
 11  5  1  1
 33 34  1  0
 33 35  1  0
 34 36  1  0
 35 37  1  0
 37 43  1  1
 20 21  2  0
 21 22  1  0
M  CHG  3   2  -1  26  -1  41  -1
M  END
>  <COMPND>  (192) 
    udp_gluA.pdb 

>  <AUTHOR>  (192) 
    GENERATED BY OPEN BABEL 3.1.1

>  <MASTER>  (192) 
        0    0    0    0    0    0    0    0   56    0   56    0

>  <minimizedAffinity>  (192) 
-6.72758

>  <CNNscore>  (192) 
0.7007393837

>  <CNNaffinity>  (192) 
4.3315138817

>  <CNN_VS>  (192) 
3.0352623463

>  <CNNaffinity_variance>  (192) 
0.0639328957

$$$$
193
     RDKit          3D

 43 45  0  0  0  0  0  0  0  0999 V2000
   23.3249   73.7570   -4.1858 P   0  0  2  0  0  0  0  0  0  0  0  0
   24.2034   72.4003   -4.2673 O   0  0  0  0  0  0  0  0  0  0  0  0
   23.9379   74.9500   -4.8586 O   0  0  0  0  0  0  0  0  0  0  0  0
   23.0133   73.9238   -2.6069 O   0  0  0  0  0  0  0  0  0  0  0  0
   21.7074   73.6367   -2.1415 C   0  0  0  0  0  0  0  0  0  0  0  0
   22.8929   71.7634   -1.2124 O   0  0  0  0  0  0  0  0  0  0  0  0
   20.2053   70.4893   -0.8313 O   0  0  0  0  0  0  0  0  0  0  0  0
   20.7907   71.4049    1.6697 O   0  0  0  0  0  0  0  0  0  0  0  0
   20.5803   71.8616   -0.7092 C   0  0  1  0  0  0  0  0  0  0  0  0
   21.3626   72.0794    0.5686 C   0  0  2  0  0  0  0  0  0  0  0  0
   21.6242   72.1600   -1.7767 C   0  0  1  0  0  0  0  0  0  0  0  0
   22.7317   71.5361    0.1968 C   0  0  2  0  0  0  0  0  0  0  0  0
   19.5389   70.2749   -0.1594 H   0  0  0  0  0  0  0  0  0  0  0  0
   19.9208   71.7875    1.8670 H   0  0  0  0  0  0  0  0  0  0  0  0
   24.6699   70.2131    1.7682 O   0  0  0  0  0  0  0  0  0  0  0  0
   26.7596   74.1753    2.8535 O   0  0  0  0  0  0  0  0  0  0  0  0
   23.7935   72.1976    0.9010 N   0  0  0  0  0  0  0  0  0  0  0  0
   25.7082   72.1878    2.3081 N   0  0  0  0  0  0  0  0  0  0  0  0
   24.7146   71.4402    1.6625 C   0  0  0  0  0  0  0  0  0  0  0  0
   23.9157   73.5800    0.8320 C   0  0  0  0  0  0  0  0  0  0  0  0
   24.8682   74.2787    1.4527 C   0  0  0  0  0  0  0  0  0  0  0  0
   25.8701   73.5633    2.2699 C   0  0  0  0  0  0  0  0  0  0  0  0
   26.3599   71.6826    2.8460 H   0  0  0  0  0  0  0  0  0  0  0  0
   21.8972   73.3018   -4.7919 O   0  0  0  0  0  0  0  0  0  0  0  0
   21.1717   73.6688   -6.1892 P   0  0  2  0  0  0  0  0  0  0  0  0
   22.2330   73.1618   -7.3014 O   0  0  0  0  0  0  0  0  0  0  0  0
   20.7813   75.1125   -6.3198 O   0  0  0  0  0  0  0  0  0  0  0  0
   19.9419   72.6303   -6.2969 O   0  0  0  0  0  0  0  0  0  0  0  0
   19.6503   70.4477   -5.4249 O   0  0  0  0  0  0  0  0  0  0  0  0
   17.6410   70.1898   -9.0255 O   0  0  0  0  0  0  0  0  0  0  0  0
   20.2066   71.5769   -8.8574 O   0  0  0  0  0  0  0  0  0  0  0  0
   16.1540   70.4053   -6.5368 O   0  0  0  0  0  0  0  0  0  0  0  0
   18.1289   70.8340   -7.8486 C   0  0  2  0  0  0  0  0  0  0  0  0
   19.6562   70.7675   -7.8247 C   0  0  2  0  0  0  0  0  0  0  0  0
   17.5454   70.1070   -6.6350 C   0  0  1  0  0  0  0  0  0  0  0  0
   20.2033   71.2396   -6.4769 C   0  0  1  0  0  0  0  0  0  0  0  0
   18.2300   70.5423   -5.3426 C   0  0  1  0  0  0  0  0  0  0  0  0
   17.9988   70.6348   -9.8098 H   0  0  0  0  0  0  0  0  0  0  0  0
   19.8635   71.2830   -9.7155 H   0  0  0  0  0  0  0  0  0  0  0  0
   15.7066   70.1332   -7.3532 H   0  0  0  0  0  0  0  0  0  0  0  0
   18.9509   69.4719   -3.3840 O   0  0  0  0  0  0  0  0  0  0  0  0
   16.8219   69.0445   -4.0796 O   0  0  0  0  0  0  0  0  0  0  0  0
   17.8958   69.6088   -4.2249 C   0  0  0  0  0  0  0  0  0  0  0  0
  1  4  1  0
  1 24  1  0
  1  2  1  1
  1  3  2  0
 25 28  1  0
 25 24  1  0
 25 26  1  6
 25 27  2  0
  6 11  1  0
  6 12  1  0
 29 36  1  0
 29 37  1  0
  9  7  1  6
  7 13  1  0
 10  8  1  1
  8 14  1  0
  4  5  1  0
 36 28  1  1
 33 30  1  6
 30 38  1  0
 34 31  1  6
 31 39  1  0
 35 32  1  1
 32 40  1  0
 41 43  1  0
 15 19  2  0
 42 43  2  0
 16 22  2  0
 12 17  1  1
 17 19  1  0
 17 20  1  0
 18 19  1  0
 18 22  1  0
 18 23  1  0
  9 10  1  0
  9 11  1  0
 10 12  1  0
 11  5  1  1
 33 34  1  0
 33 35  1  0
 34 36  1  0
 35 37  1  0
 37 43  1  1
 20 21  2  0
 21 22  1  0
M  CHG  3   2  -1  26  -1  41  -1
M  END
>  <COMPND>  (193) 
    udp_gluA.pdb 

>  <AUTHOR>  (193) 
    GENERATED BY OPEN BABEL 3.1.1

>  <MASTER>  (193) 
        0    0    0    0    0    0    0    0   56    0   56    0

>  <minimizedAffinity>  (193) 
-7.63267

>  <CNNscore>  (193) 
0.6943027377

>  <CNNaffinity>  (193) 
4.4453821182

>  <CNN_VS>  (193) 
3.0864410400

>  <CNNaffinity_variance>  (193) 
0.1307813227

$$$$
194
     RDKit          3D

 43 45  0  0  0  0  0  0  0  0999 V2000
   23.4545   73.6770   -3.7091 P   0  0  2  0  0  0  0  0  0  0  0  0
   23.5404   74.3161   -5.1933 O   0  0  0  0  0  0  0  0  0  0  0  0
   24.3188   72.4704   -3.4879 O   0  0  0  0  0  0  0  0  0  0  0  0
   21.8691   73.4587   -3.4712 O   0  0  0  0  0  0  0  0  0  0  0  0
   21.1022   72.8820   -4.5123 C   0  0  0  0  0  0  0  0  0  0  0  0
   18.8008   72.6802   -5.1760 O   0  0  0  0  0  0  0  0  0  0  0  0
   18.3193   71.4808   -2.4703 O   0  0  0  0  0  0  0  0  0  0  0  0
   18.4119   69.2866   -4.0868 O   0  0  0  0  0  0  0  0  0  0  0  0
   19.4528   71.3490   -3.3284 C   0  0  1  0  0  0  0  0  0  0  0  0
   19.1267   70.4356   -4.4910 C   0  0  2  0  0  0  0  0  0  0  0  0
   19.6726   72.6851   -4.0248 C   0  0  1  0  0  0  0  0  0  0  0  0
   18.3082   71.3478   -5.3887 C   0  0  2  0  0  0  0  0  0  0  0  0
   18.1590   70.6394   -2.0142 H   0  0  0  0  0  0  0  0  0  0  0  0
   18.9757   68.7387   -3.5177 H   0  0  0  0  0  0  0  0  0  0  0  0
   16.1485   70.7359   -7.1028 O   0  0  0  0  0  0  0  0  0  0  0  0
   18.9521   70.0877  -10.7033 O   0  0  0  0  0  0  0  0  0  0  0  0
   18.4453   71.0156   -6.7786 N   0  0  0  0  0  0  0  0  0  0  0  0
   17.5470   70.4127   -8.8942 N   0  0  0  0  0  0  0  0  0  0  0  0
   17.2964   70.7243   -7.5514 C   0  0  0  0  0  0  0  0  0  0  0  0
   19.7058   70.9823   -7.3626 C   0  0  0  0  0  0  0  0  0  0  0  0
   19.9288   70.6837   -8.6440 C   0  0  0  0  0  0  0  0  0  0  0  0
   18.7822   70.3661   -9.5202 C   0  0  0  0  0  0  0  0  0  0  0  0
   16.7628   70.2042   -9.4517 H   0  0  0  0  0  0  0  0  0  0  0  0
   23.7959   74.9343   -2.7523 O   0  0  0  0  0  0  0  0  0  0  0  0
   23.7787   75.0781   -1.1421 P   0  0  2  0  0  0  0  0  0  0  0  0
   22.7370   76.2913   -0.8902 O   0  0  0  0  0  0  0  0  0  0  0  0
   25.1326   75.2881   -0.5281 O   0  0  0  0  0  0  0  0  0  0  0  0
   23.0044   73.7620   -0.6218 O   0  0  0  0  0  0  0  0  0  0  0  0
   24.1287   72.9192    1.2847 O   0  0  0  0  0  0  0  0  0  0  0  0
   21.0906   70.1597    0.8121 O   0  0  0  0  0  0  0  0  0  0  0  0
   22.5524   71.1649   -1.5089 O   0  0  0  0  0  0  0  0  0  0  0  0
   20.9285   72.1631    2.9123 O   0  0  0  0  0  0  0  0  0  0  0  0
   21.7034   71.4474    0.7462 C   0  0  2  0  0  0  0  0  0  0  0  0
   22.9360   71.3820   -0.1560 C   0  0  2  0  0  0  0  0  0  0  0  0
   22.1040   71.8538    2.1661 C   0  0  1  0  0  0  0  0  0  0  0  0
   23.7464   72.6761   -0.0696 C   0  0  1  0  0  0  0  0  0  0  0  0
   23.0139   73.0788    2.1592 C   0  0  1  0  0  0  0  0  0  0  0  0
   20.8276   69.8806   -0.0791 H   0  0  0  0  0  0  0  0  0  0  0  0
   22.0375   70.3456   -1.5711 H   0  0  0  0  0  0  0  0  0  0  0  0
   20.3407   71.3916    2.9243 H   0  0  0  0  0  0  0  0  0  0  0  0
   25.0024   73.3954    3.3623 O   0  0  0  0  0  0  0  0  0  0  0  0
   23.0646   73.3067    4.5607 O   0  0  0  0  0  0  0  0  0  0  0  0
   23.6587   73.2681    3.4937 C   0  0  0  0  0  0  0  0  0  0  0  0
  1  4  1  0
  1 24  1  0
  1  2  1  6
  1  3  2  0
 25 28  1  0
 25 24  1  0
 25 26  1  6
 25 27  2  0
  6 11  1  0
  6 12  1  0
 29 36  1  0
 29 37  1  0
  9  7  1  1
  7 13  1  0
 10  8  1  1
  8 14  1  0
  4  5  1  0
 36 28  1  1
 33 30  1  1
 30 38  1  0
 34 31  1  6
 31 39  1  0
 35 32  1  1
 32 40  1  0
 41 43  1  0
 15 19  2  0
 42 43  2  0
 16 22  2  0
 12 17  1  6
 17 19  1  0
 17 20  1  0
 18 19  1  0
 18 22  1  0
 18 23  1  0
  9 10  1  0
  9 11  1  0
 10 12  1  0
 11  5  1  6
 33 34  1  0
 33 35  1  0
 34 36  1  0
 35 37  1  0
 37 43  1  1
 20 21  2  0
 21 22  1  0
M  CHG  3   2  -1  26  -1  41  -1
M  END
>  <COMPND>  (194) 
    udp_gluA.pdb 

>  <AUTHOR>  (194) 
    GENERATED BY OPEN BABEL 3.1.1

>  <MASTER>  (194) 
        0    0    0    0    0    0    0    0   56    0   56    0

>  <minimizedAffinity>  (194) 
-6.99507

>  <CNNscore>  (194) 
0.6906403303

>  <CNNaffinity>  (194) 
4.4424428940

>  <CNN_VS>  (194) 
3.0681302547

>  <CNNaffinity_variance>  (194) 
0.0856150836

$$$$
195
     RDKit          3D

 43 45  0  0  0  0  0  0  0  0999 V2000
   23.4962   71.9633   -3.2672 P   0  0  2  0  0  0  0  0  0  0  0  0
   24.1989   73.0602   -4.2273 O   0  0  0  0  0  0  0  0  0  0  0  0
   24.3547   70.7824   -2.9202 O   0  0  0  0  0  0  0  0  0  0  0  0
   22.1046   71.6233   -4.0193 O   0  0  0  0  0  0  0  0  0  0  0  0
   21.6557   72.4977   -5.0384 C   0  0  0  0  0  0  0  0  0  0  0  0
   20.6949   70.5273   -6.0244 O   0  0  0  0  0  0  0  0  0  0  0  0
   21.0324   71.9096   -8.6639 O   0  0  0  0  0  0  0  0  0  0  0  0
   18.3826   72.2755   -8.1342 O   0  0  0  0  0  0  0  0  0  0  0  0
   20.6906   72.4612   -7.3921 C   0  0  1  0  0  0  0  0  0  0  0  0
   19.2595   72.1161   -7.0386 C   0  0  2  0  0  0  0  0  0  0  0  0
   21.4730   71.7056   -6.3267 C   0  0  1  0  0  0  0  0  0  0  0  0
   19.3844   70.6684   -6.5954 C   0  0  2  0  0  0  0  0  0  0  0  0
   20.5447   72.3765   -9.3608 H   0  0  0  0  0  0  0  0  0  0  0  0
   18.3371   73.2138   -8.3781 H   0  0  0  0  0  0  0  0  0  0  0  0
   16.7737   69.7722   -7.1933 O   0  0  0  0  0  0  0  0  0  0  0  0
   15.7089   69.3243   -2.7313 O   0  0  0  0  0  0  0  0  0  0  0  0
   18.4044   70.3108   -5.6092 N   0  0  0  0  0  0  0  0  0  0  0  0
   16.2455   69.5509   -4.9704 N   0  0  0  0  0  0  0  0  0  0  0  0
   17.1217   69.8726   -6.0153 C   0  0  0  0  0  0  0  0  0  0  0  0
   18.7178   70.3940   -4.2580 C   0  0  0  0  0  0  0  0  0  0  0  0
   17.8720   70.0838   -3.2735 C   0  0  0  0  0  0  0  0  0  0  0  0
   16.5112   69.6182   -3.6122 C   0  0  0  0  0  0  0  0  0  0  0  0
   15.3459   69.2453   -5.2283 H   0  0  0  0  0  0  0  0  0  0  0  0
   23.0182   72.8441   -1.9990 O   0  0  0  0  0  0  0  0  0  0  0  0
   21.7520   72.6775   -1.0078 P   0  0  2  0  0  0  0  0  0  0  0  0
   21.4293   71.0931   -1.0830 O   0  0  0  0  0  0  0  0  0  0  0  0
   20.5866   73.5626   -1.3434 O   0  0  0  0  0  0  0  0  0  0  0  0
   22.3576   72.9000    0.4708 O   0  0  0  0  0  0  0  0  0  0  0  0
   23.9859   71.5917    1.5871 O   0  0  0  0  0  0  0  0  0  0  0  0
   21.7820   73.0716    4.7527 O   0  0  0  0  0  0  0  0  0  0  0  0
   20.4464   72.1201    2.3350 O   0  0  0  0  0  0  0  0  0  0  0  0
   24.3992   74.1843    4.1503 O   0  0  0  0  0  0  0  0  0  0  0  0
   22.3690   73.0911    3.4515 C   0  0  2  0  0  0  0  0  0  0  0  0
   21.8251   71.9240    2.6271 C   0  0  2  0  0  0  0  0  0  0  0  0
   23.8855   72.9661    3.6150 C   0  0  1  0  0  0  0  0  0  0  0  0
   22.5960   71.7750    1.3148 C   0  0  1  0  0  0  0  0  0  0  0  0
   24.5693   72.6940    2.2783 C   0  0  1  0  0  0  0  0  0  0  0  0
   20.8181   73.1498    4.6739 H   0  0  0  0  0  0  0  0  0  0  0  0
   19.9512   72.2158    3.1632 H   0  0  0  0  0  0  0  0  0  0  0  0
   23.9719   74.3692    5.0012 H   0  0  0  0  0  0  0  0  0  0  0  0
   26.1127   70.9290    2.2128 O   0  0  0  0  0  0  0  0  0  0  0  0
   26.8973   72.9738    2.8472 O   0  0  0  0  0  0  0  0  0  0  0  0
   25.9811   72.2509    2.4852 C   0  0  0  0  0  0  0  0  0  0  0  0
  1  4  1  0
  1 24  1  0
  1  2  1  6
  1  3  2  0
 25 28  1  0
 25 24  1  0
 25 26  1  1
 25 27  2  0
  6 11  1  0
  6 12  1  0
 29 36  1  0
 29 37  1  0
  9  7  1  6
  7 13  1  0
 10  8  1  6
  8 14  1  0
  4  5  1  0
 36 28  1  6
 33 30  1  1
 30 38  1  0
 34 31  1  6
 31 39  1  0
 35 32  1  6
 32 40  1  0
 41 43  1  0
 15 19  2  0
 42 43  2  0
 16 22  2  0
 12 17  1  1
 17 19  1  0
 17 20  1  0
 18 19  1  0
 18 22  1  0
 18 23  1  0
  9 10  1  0
  9 11  1  0
 10 12  1  0
 11  5  1  1
 33 34  1  0
 33 35  1  0
 34 36  1  0
 35 37  1  0
 37 43  1  1
 20 21  2  0
 21 22  1  0
M  CHG  3   2  -1  26  -1  41  -1
M  END
>  <COMPND>  (195) 
    udp_gluA.pdb 

>  <AUTHOR>  (195) 
    GENERATED BY OPEN BABEL 3.1.1

>  <MASTER>  (195) 
        0    0    0    0    0    0    0    0   56    0   56    0

>  <minimizedAffinity>  (195) 
-7.75940

>  <CNNscore>  (195) 
0.6497903466

>  <CNNaffinity>  (195) 
4.4002614021

>  <CNN_VS>  (195) 
2.8592474461

>  <CNNaffinity_variance>  (195) 
0.0999043807

$$$$
196
     RDKit          3D

 43 45  0  0  0  0  0  0  0  0999 V2000
   22.6383   73.1580   -3.9224 P   0  0  2  0  0  0  0  0  0  0  0  0
   23.9895   72.2838   -4.0924 O   0  0  0  0  0  0  0  0  0  0  0  0
   22.7581   74.5961   -4.3339 O   0  0  0  0  0  0  0  0  0  0  0  0
   22.2000   72.9010   -2.3862 O   0  0  0  0  0  0  0  0  0  0  0  0
   23.2140   72.7089   -1.4169 C   0  0  0  0  0  0  0  0  0  0  0  0
   24.0617   71.1006    0.1555 O   0  0  0  0  0  0  0  0  0  0  0  0
   21.1958   70.4560    0.7579 O   0  0  0  0  0  0  0  0  0  0  0  0
   21.8979   72.0600    2.8484 O   0  0  0  0  0  0  0  0  0  0  0  0
   21.7922   71.7147    0.4439 C   0  0  1  0  0  0  0  0  0  0  0  0
   22.5858   72.2282    1.6265 C   0  0  2  0  0  0  0  0  0  0  0  0
   22.8827   71.4727   -0.5908 C   0  0  1  0  0  0  0  0  0  0  0  0
   23.8496   71.3890    1.5466 C   0  0  2  0  0  0  0  0  0  0  0  0
   20.4958   70.5851    1.4173 H   0  0  0  0  0  0  0  0  0  0  0  0
   21.1016   72.6149    2.8501 H   0  0  0  0  0  0  0  0  0  0  0  0
   24.0125   74.1888    1.8798 O   0  0  0  0  0  0  0  0  0  0  0  0
   28.3085   73.9260    3.5289 O   0  0  0  0  0  0  0  0  0  0  0  0
   24.9988   72.0786    2.0610 N   0  0  0  0  0  0  0  0  0  0  0  0
   26.1524   74.0554    2.6999 N   0  0  0  0  0  0  0  0  0  0  0  0
   24.9780   73.4877    2.1884 C   0  0  0  0  0  0  0  0  0  0  0  0
   26.1287   71.3611    2.4343 C   0  0  0  0  0  0  0  0  0  0  0  0
   27.2406   71.9162    2.9204 C   0  0  0  0  0  0  0  0  0  0  0  0
   27.3014   73.3835    3.0843 C   0  0  0  0  0  0  0  0  0  0  0  0
   26.1624   75.0352    2.7958 H   0  0  0  0  0  0  0  0  0  0  0  0
   21.5478   72.3069   -4.7587 O   0  0  0  0  0  0  0  0  0  0  0  0
   20.3741   71.3105   -4.2656 P   0  0  2  0  0  0  0  0  0  0  0  0
   19.5508   72.2079   -3.1992 O   0  0  0  0  0  0  0  0  0  0  0  0
   20.8663   70.0005   -3.7220 O   0  0  0  0  0  0  0  0  0  0  0  0
   19.3876   71.1802   -5.5354 O   0  0  0  0  0  0  0  0  0  0  0  0
   19.4846   71.7035   -7.8432 O   0  0  0  0  0  0  0  0  0  0  0  0
   15.6889   72.9952   -6.8470 O   0  0  0  0  0  0  0  0  0  0  0  0
   17.9442   73.5103   -5.0630 O   0  0  0  0  0  0  0  0  0  0  0  0
   16.0464   70.5141   -8.3191 O   0  0  0  0  0  0  0  0  0  0  0  0
   16.8482   72.1667   -6.7599 C   0  0  2  0  0  0  0  0  0  0  0  0
   18.0618   73.0216   -6.3942 C   0  0  2  0  0  0  0  0  0  0  0  0
   17.0571   71.5010   -8.1220 C   0  0  1  0  0  0  0  0  0  0  0  0
   19.3557   72.2154   -6.5163 C   0  0  1  0  0  0  0  0  0  0  0  0
   18.4224   70.8250   -8.2081 C   0  0  1  0  0  0  0  0  0  0  0  0
   15.5363   73.4289   -5.9926 H   0  0  0  0  0  0  0  0  0  0  0  0
   17.1252   74.0226   -4.9783 H   0  0  0  0  0  0  0  0  0  0  0  0
   15.1723   70.9313   -8.2665 H   0  0  0  0  0  0  0  0  0  0  0  0
   18.1065   69.3369   -9.9934 O   0  0  0  0  0  0  0  0  0  0  0  0
   19.4940   71.1106  -10.3509 O   0  0  0  0  0  0  0  0  0  0  0  0
   18.7507   70.4709   -9.6220 C   0  0  0  0  0  0  0  0  0  0  0  0
  1  4  1  0
  1 24  1  0
  1  2  1  1
  1  3  2  0
 25 28  1  0
 25 24  1  0
 25 26  1  1
 25 27  2  0
  6 11  1  0
  6 12  1  0
 29 36  1  0
 29 37  1  0
  9  7  1  1
  7 13  1  0
 10  8  1  1
  8 14  1  0
  4  5  1  0
 36 28  1  1
 33 30  1  6
 30 38  1  0
 34 31  1  1
 31 39  1  0
 35 32  1  1
 32 40  1  0
 41 43  1  0
 15 19  2  0
 42 43  2  0
 16 22  2  0
 12 17  1  6
 17 19  1  0
 17 20  1  0
 18 19  1  0
 18 22  1  0
 18 23  1  0
  9 10  1  0
  9 11  1  0
 10 12  1  0
 11  5  1  1
 33 34  1  0
 33 35  1  0
 34 36  1  0
 35 37  1  0
 37 43  1  6
 20 21  2  0
 21 22  1  0
M  CHG  3   2  -1  26  -1  41  -1
M  END
>  <COMPND>  (196) 
    udp_gluA.pdb 

>  <AUTHOR>  (196) 
    GENERATED BY OPEN BABEL 3.1.1

>  <MASTER>  (196) 
        0    0    0    0    0    0    0    0   56    0   56    0

>  <minimizedAffinity>  (196) 
-7.11191

>  <CNNscore>  (196) 
0.6181147099

>  <CNNaffinity>  (196) 
4.3784298897

>  <CNN_VS>  (196) 
2.7063720226

>  <CNNaffinity_variance>  (196) 
0.1066817865

$$$$
197
     RDKit          3D

 43 45  0  0  0  0  0  0  0  0999 V2000
   17.1171   74.6132   -2.6628 P   0  0  2  0  0  0  0  0  0  0  0  0
   17.0153   74.2219   -1.0958 O   0  0  0  0  0  0  0  0  0  0  0  0
   15.8939   75.2694   -3.2327 O   0  0  0  0  0  0  0  0  0  0  0  0
   17.5734   73.2356   -3.3783 O   0  0  0  0  0  0  0  0  0  0  0  0
   17.9640   72.1468   -2.5620 C   0  0  0  0  0  0  0  0  0  0  0  0
   16.4967   70.9638   -4.0537 O   0  0  0  0  0  0  0  0  0  0  0  0
   16.3622   68.8415   -1.9396 O   0  0  0  0  0  0  0  0  0  0  0  0
   18.1360   67.7922   -3.7254 O   0  0  0  0  0  0  0  0  0  0  0  0
   17.4638   69.6636   -2.3260 C   0  0  1  0  0  0  0  0  0  0  0  0
   18.0250   69.1982   -3.6529 C   0  0  2  0  0  0  0  0  0  0  0  0
   16.9210   71.0425   -2.6756 C   0  0  1  0  0  0  0  0  0  0  0  0
   17.0113   69.7563   -4.6372 C   0  0  2  0  0  0  0  0  0  0  0  0
   16.6843   67.9550   -1.7115 H   0  0  0  0  0  0  0  0  0  0  0  0
   18.7932   67.4860   -3.0801 H   0  0  0  0  0  0  0  0  0  0  0  0
   15.6891   69.4598   -7.1152 O   0  0  0  0  0  0  0  0  0  0  0  0
   19.3562   70.9750   -9.4604 O   0  0  0  0  0  0  0  0  0  0  0  0
   17.5971   70.0659   -5.9107 N   0  0  0  0  0  0  0  0  0  0  0  0
   17.5171   70.2138   -8.2810 N   0  0  0  0  0  0  0  0  0  0  0  0
   16.8472   69.8810   -7.0963 C   0  0  0  0  0  0  0  0  0  0  0  0
   18.8986   70.5481   -5.9766 C   0  0  0  0  0  0  0  0  0  0  0  0
   19.5238   70.8611   -7.1133 C   0  0  0  0  0  0  0  0  0  0  0  0
   18.8108   70.6961   -8.3970 C   0  0  0  0  0  0  0  0  0  0  0  0
   17.0160   70.0915   -9.1196 H   0  0  0  0  0  0  0  0  0  0  0  0
   18.4565   75.5160   -2.7251 O   0  0  0  0  0  0  0  0  0  0  0  0
   19.0978   76.3818   -3.9304 P   0  0  2  0  0  0  0  0  0  0  0  0
   20.1219   77.3763   -3.1673 O   0  0  0  0  0  0  0  0  0  0  0  0
   18.0865   77.0791   -4.7936 O   0  0  0  0  0  0  0  0  0  0  0  0
   20.0490   75.3443   -4.7185 O   0  0  0  0  0  0  0  0  0  0  0  0
   22.3867   75.1993   -4.3675 O   0  0  0  0  0  0  0  0  0  0  0  0
   22.0002   73.5629   -8.1412 O   0  0  0  0  0  0  0  0  0  0  0  0
   20.4842   75.9472   -7.3987 O   0  0  0  0  0  0  0  0  0  0  0  0
   22.4612   71.8414   -5.8445 O   0  0  0  0  0  0  0  0  0  0  0  0
   21.5959   73.8733   -6.8078 C   0  0  2  0  0  0  0  0  0  0  0  0
   21.5437   75.3908   -6.6289 C   0  0  2  0  0  0  0  0  0  0  0  0
   22.6180   73.2591   -5.8486 C   0  0  1  0  0  0  0  0  0  0  0  0
   21.3398   75.7618   -5.1594 C   0  0  1  0  0  0  0  0  0  0  0  0
   22.4266   73.7752   -4.4254 C   0  0  1  0  0  0  0  0  0  0  0  0
   21.3653   73.9432   -8.7686 H   0  0  0  0  0  0  0  0  0  0  0  0
   20.6071   75.7155   -8.3323 H   0  0  0  0  0  0  0  0  0  0  0  0
   22.5804   71.5003   -6.7446 H   0  0  0  0  0  0  0  0  0  0  0  0
   23.3747   73.7639   -2.2800 O   0  0  0  0  0  0  0  0  0  0  0  0
   24.6447   72.9352   -3.9828 O   0  0  0  0  0  0  0  0  0  0  0  0
   23.6082   73.4379   -3.5754 C   0  0  0  0  0  0  0  0  0  0  0  0
  1  4  1  0
  1 24  1  0
  1  2  1  1
  1  3  2  0
 25 28  1  0
 25 24  1  0
 25 26  1  1
 25 27  2  0
  6 11  1  0
  6 12  1  0
 29 36  1  0
 29 37  1  0
  9  7  1  6
  7 13  1  0
 10  8  1  1
  8 14  1  0
  4  5  1  0
 36 28  1  1
 33 30  1  6
 30 38  1  0
 34 31  1  6
 31 39  1  0
 35 32  1  1
 32 40  1  0
 41 43  1  0
 15 19  2  0
 42 43  2  0
 16 22  2  0
 12 17  1  6
 17 19  1  0
 17 20  1  0
 18 19  1  0
 18 22  1  0
 18 23  1  0
  9 10  1  0
  9 11  1  0
 10 12  1  0
 11  5  1  6
 33 34  1  0
 33 35  1  0
 34 36  1  0
 35 37  1  0
 37 43  1  1
 20 21  2  0
 21 22  1  0
M  CHG  3   2  -1  26  -1  41  -1
M  END
>  <COMPND>  (197) 
    udp_gluA.pdb 

>  <AUTHOR>  (197) 
    GENERATED BY OPEN BABEL 3.1.1

>  <MASTER>  (197) 
        0    0    0    0    0    0    0    0   56    0   56    0

>  <minimizedAffinity>  (197) 
-5.79466

>  <CNNscore>  (197) 
0.6158513427

>  <CNNaffinity>  (197) 
4.3201780319

>  <CNN_VS>  (197) 
2.6605875492

>  <CNNaffinity_variance>  (197) 
0.1979856044

$$$$
198
     RDKit          3D

 43 45  0  0  0  0  0  0  0  0999 V2000
   20.5290   76.1653   -4.7078 P   0  0  2  0  0  0  0  0  0  0  0  0
   22.1184   76.1756   -5.0119 O   0  0  0  0  0  0  0  0  0  0  0  0
   19.8390   77.4842   -4.8981 O   0  0  0  0  0  0  0  0  0  0  0  0
   20.4210   75.5231   -3.2267 O   0  0  0  0  0  0  0  0  0  0  0  0
   19.5184   76.1027   -2.3026 C   0  0  0  0  0  0  0  0  0  0  0  0
   19.0041   73.7548   -2.3302 O   0  0  0  0  0  0  0  0  0  0  0  0
   17.4200   74.2623    0.1648 O   0  0  0  0  0  0  0  0  0  0  0  0
   19.7318   73.1897    1.1347 O   0  0  0  0  0  0  0  0  0  0  0  0
   18.6457   74.8560   -0.2638 C   0  0  1  0  0  0  0  0  0  0  0  0
   19.7885   73.8769   -0.0978 C   0  0  2  0  0  0  0  0  0  0  0  0
   18.5843   75.0206   -1.7762 C   0  0  1  0  0  0  0  0  0  0  0  0
   19.5909   72.9565   -1.2902 C   0  0  2  0  0  0  0  0  0  0  0  0
   17.4356   74.1471    1.1282 H   0  0  0  0  0  0  0  0  0  0  0  0
   19.8634   73.8187    1.8619 H   0  0  0  0  0  0  0  0  0  0  0  0
   19.8093   70.5236   -2.7079 O   0  0  0  0  0  0  0  0  0  0  0  0
   24.3857   70.9345   -3.0705 O   0  0  0  0  0  0  0  0  0  0  0  0
   20.8273   72.4042   -1.7669 N   0  0  0  0  0  0  0  0  0  0  0  0
   22.0885   70.7300   -2.8862 N   0  0  0  0  0  0  0  0  0  0  0  0
   20.8275   71.1754   -2.4684 C   0  0  0  0  0  0  0  0  0  0  0  0
   22.0211   73.0782   -1.5401 C   0  0  0  0  0  0  0  0  0  0  0  0
   23.2154   72.6412   -1.9446 C   0  0  0  0  0  0  0  0  0  0  0  0
   23.3033   71.3647   -2.6838 C   0  0  0  0  0  0  0  0  0  0  0  0
   22.1142   69.8757   -3.3749 H   0  0  0  0  0  0  0  0  0  0  0  0
   19.9851   74.9773   -5.6595 O   0  0  0  0  0  0  0  0  0  0  0  0
   20.7525   73.7292   -6.3429 P   0  0  2  0  0  0  0  0  0  0  0  0
   21.4657   73.0003   -5.0857 O   0  0  0  0  0  0  0  0  0  0  0  0
   21.6920   74.1146   -7.4486 O   0  0  0  0  0  0  0  0  0  0  0  0
   19.5760   72.7182   -6.7858 O   0  0  0  0  0  0  0  0  0  0  0  0
   18.9149   70.5855   -5.9960 O   0  0  0  0  0  0  0  0  0  0  0  0
   18.2411   70.2244  -10.0560 O   0  0  0  0  0  0  0  0  0  0  0  0
   20.6518   71.5450   -9.0667 O   0  0  0  0  0  0  0  0  0  0  0  0
   16.0066   70.5919   -8.2331 O   0  0  0  0  0  0  0  0  0  0  0  0
   18.3260   70.9063   -8.8047 C   0  0  2  0  0  0  0  0  0  0  0  0
   19.7499   70.7980   -8.2585 C   0  0  2  0  0  0  0  0  0  0  0  0
   17.3348   70.2506   -7.8406 C   0  0  1  0  0  0  0  0  0  0  0  0
   19.8250   71.3141   -6.8208 C   0  0  1  0  0  0  0  0  0  0  0  0
   17.5564   70.7235   -6.4068 C   0  0  1  0  0  0  0  0  0  0  0  0
   18.8625   70.6239  -10.6850 H   0  0  0  0  0  0  0  0  0  0  0  0
   20.6091   71.2230   -9.9804 H   0  0  0  0  0  0  0  0  0  0  0  0
   15.8527   70.2965   -9.1441 H   0  0  0  0  0  0  0  0  0  0  0  0
   16.3949   68.7172   -6.0502 O   0  0  0  0  0  0  0  0  0  0  0  0
   16.6342   70.1124   -4.2627 O   0  0  0  0  0  0  0  0  0  0  0  0
   16.8236   69.8504   -5.4410 C   0  0  0  0  0  0  0  0  0  0  0  0
  1  4  1  0
  1 24  1  0
  1  2  1  6
  1  3  2  0
 25 28  1  0
 25 24  1  0
 25 26  1  1
 25 27  2  0
  6 11  1  0
  6 12  1  0
 29 36  1  0
 29 37  1  0
  9  7  1  6
  7 13  1  0
 10  8  1  1
  8 14  1  0
  4  5  1  0
 36 28  1  6
 33 30  1  6
 30 38  1  0
 34 31  1  6
 31 39  1  0
 35 32  1  6
 32 40  1  0
 41 43  1  0
 15 19  2  0
 42 43  2  0
 16 22  2  0
 12 17  1  6
 17 19  1  0
 17 20  1  0
 18 19  1  0
 18 22  1  0
 18 23  1  0
  9 10  1  0
  9 11  1  0
 10 12  1  0
 11  5  1  6
 33 34  1  0
 33 35  1  0
 34 36  1  0
 35 37  1  0
 37 43  1  1
 20 21  2  0
 21 22  1  0
M  CHG  3   2  -1  26  -1  41  -1
M  END
>  <COMPND>  (198) 
    udp_gluA.pdb 

>  <AUTHOR>  (198) 
    GENERATED BY OPEN BABEL 3.1.1

>  <MASTER>  (198) 
        0    0    0    0    0    0    0    0   56    0   56    0

>  <minimizedAffinity>  (198) 
-6.21041

>  <CNNscore>  (198) 
0.6116056442

>  <CNNaffinity>  (198) 
4.5034284592

>  <CNN_VS>  (198) 
2.7543222904

>  <CNNaffinity_variance>  (198) 
0.2602406144

$$$$
199
     RDKit          3D

 43 45  0  0  0  0  0  0  0  0999 V2000
   21.8845   72.9883   -6.0610 P   0  0  2  0  0  0  0  0  0  0  0  0
   21.3796   74.4783   -6.4399 O   0  0  0  0  0  0  0  0  0  0  0  0
   23.0712   72.5038   -6.8414 O   0  0  0  0  0  0  0  0  0  0  0  0
   20.5485   72.0834   -6.1798 O   0  0  0  0  0  0  0  0  0  0  0  0
   19.7002   72.2737   -7.2973 C   0  0  0  0  0  0  0  0  0  0  0  0
   18.6693   70.2060   -6.6342 O   0  0  0  0  0  0  0  0  0  0  0  0
   18.0246   69.8122   -9.5360 O   0  0  0  0  0  0  0  0  0  0  0  0
   15.6548   70.6918   -8.5132 O   0  0  0  0  0  0  0  0  0  0  0  0
   18.0504   71.0179   -8.7716 C   0  0  1  0  0  0  0  0  0  0  0  0
   16.8433   71.0866   -7.8604 C   0  0  2  0  0  0  0  0  0  0  0  0
   19.1968   70.9175   -7.7747 C   0  0  1  0  0  0  0  0  0  0  0  0
   17.2385   70.1384   -6.7413 C   0  0  2  0  0  0  0  0  0  0  0  0
   17.3000   69.8528  -10.1802 H   0  0  0  0  0  0  0  0  0  0  0  0
   15.4458   71.3272   -9.2165 H   0  0  0  0  0  0  0  0  0  0  0  0
   17.0451   68.4159   -4.5114 O   0  0  0  0  0  0  0  0  0  0  0  0
   14.9918   71.6561   -1.9562 O   0  0  0  0  0  0  0  0  0  0  0  0
   16.6580   70.5061   -5.4809 N   0  0  0  0  0  0  0  0  0  0  0  0
   16.0217   70.0310   -3.2413 N   0  0  0  0  0  0  0  0  0  0  0  0
   16.6099   69.5657   -4.4247 C   0  0  0  0  0  0  0  0  0  0  0  0
   16.1460   71.7851   -5.2999 C   0  0  0  0  0  0  0  0  0  0  0  0
   15.5884   72.2142   -4.1659 C   0  0  0  0  0  0  0  0  0  0  0  0
   15.4981   71.2934   -3.0138 C   0  0  0  0  0  0  0  0  0  0  0  0
   15.9750   69.3936   -2.4924 H   0  0  0  0  0  0  0  0  0  0  0  0
   22.1204   73.0801   -4.4645 O   0  0  0  0  0  0  0  0  0  0  0  0
   23.3830   73.6132   -3.6070 P   0  0  2  0  0  0  0  0  0  0  0  0
   23.2521   75.2228   -3.7177 O   0  0  0  0  0  0  0  0  0  0  0  0
   24.7074   73.0680   -4.0572 O   0  0  0  0  0  0  0  0  0  0  0  0
   23.0074   73.2786   -2.0743 O   0  0  0  0  0  0  0  0  0  0  0  0
   20.6548   73.1773   -1.8212 O   0  0  0  0  0  0  0  0  0  0  0  0
   21.9430   72.6147    2.0636 O   0  0  0  0  0  0  0  0  0  0  0  0
   23.2158   74.6146    0.3563 O   0  0  0  0  0  0  0  0  0  0  0  0
   20.9661   70.3607    0.5093 O   0  0  0  0  0  0  0  0  0  0  0  0
   22.0158   72.5253    0.6407 C   0  0  2  0  0  0  0  0  0  0  0  0
   22.0092   73.9307    0.0386 C   0  0  2  0  0  0  0  0  0  0  0  0
   20.8009   71.7321    0.1539 C   0  0  1  0  0  0  0  0  0  0  0  0
   21.8544   73.8738   -1.4818 C   0  0  1  0  0  0  0  0  0  0  0  0
   20.6436   71.8279   -1.3609 C   0  0  1  0  0  0  0  0  0  0  0  0
   22.7051   73.1149    2.3957 H   0  0  0  0  0  0  0  0  0  0  0  0
   23.3206   74.6542    1.3195 H   0  0  0  0  0  0  0  0  0  0  0  0
   21.0675   70.2858    1.4711 H   0  0  0  0  0  0  0  0  0  0  0  0
   18.5929   72.3343   -2.3806 O   0  0  0  0  0  0  0  0  0  0  0  0
   18.8810   70.2018   -1.6267 O   0  0  0  0  0  0  0  0  0  0  0  0
   19.2971   71.3395   -1.7862 C   0  0  0  0  0  0  0  0  0  0  0  0
  1  4  1  0
  1 24  1  0
  1  2  1  6
  1  3  2  0
 25 28  1  0
 25 24  1  0
 25 26  1  1
 25 27  2  0
  6 11  1  0
  6 12  1  0
 29 36  1  0
 29 37  1  0
  9  7  1  6
  7 13  1  0
 10  8  1  6
  8 14  1  0
  4  5  1  0
 36 28  1  6
 33 30  1  1
 30 38  1  0
 34 31  1  6
 31 39  1  0
 35 32  1  6
 32 40  1  0
 41 43  1  0
 15 19  2  0
 42 43  2  0
 16 22  2  0
 12 17  1  1
 17 19  1  0
 17 20  1  0
 18 19  1  0
 18 22  1  0
 18 23  1  0
  9 10  1  0
  9 11  1  0
 10 12  1  0
 11  5  1  1
 33 34  1  0
 33 35  1  0
 34 36  1  0
 35 37  1  0
 37 43  1  1
 20 21  2  0
 21 22  1  0
M  CHG  3   2  -1  26  -1  41  -1
M  END
>  <COMPND>  (199) 
    udp_gluA.pdb 

>  <AUTHOR>  (199) 
    GENERATED BY OPEN BABEL 3.1.1

>  <MASTER>  (199) 
        0    0    0    0    0    0    0    0   56    0   56    0

>  <minimizedAffinity>  (199) 
-7.30604

>  <CNNscore>  (199) 
0.5982688665

>  <CNNaffinity>  (199) 
4.3992776871

>  <CNN_VS>  (199) 
2.6319508553

>  <CNNaffinity_variance>  (199) 
0.5068129301

$$$$
200
     RDKit          3D

 43 45  0  0  0  0  0  0  0  0999 V2000
   23.0314   74.6338   -1.3566 P   0  0  2  0  0  0  0  0  0  0  0  0
   24.2601   75.5652   -1.8482 O   0  0  0  0  0  0  0  0  0  0  0  0
   21.6739   75.0839   -1.8110 O   0  0  0  0  0  0  0  0  0  0  0  0
   23.2380   74.5315    0.2449 O   0  0  0  0  0  0  0  0  0  0  0  0
   22.1188   74.7428    1.0859 C   0  0  0  0  0  0  0  0  0  0  0  0
   22.6156   72.4098    1.3829 O   0  0  0  0  0  0  0  0  0  0  0  0
   20.2032   72.3134    3.1611 O   0  0  0  0  0  0  0  0  0  0  0  0
   22.2583   72.4204    4.9503 O   0  0  0  0  0  0  0  0  0  0  0  0
   21.1612   73.3588    2.9937 C   0  0  1  0  0  0  0  0  0  0  0  0
   22.4625   72.9911    3.6746 C   0  0  2  0  0  0  0  0  0  0  0  0
   21.5677   73.3929    1.5268 C   0  0  1  0  0  0  0  0  0  0  0  0
   23.0698   72.0106    2.6858 C   0  0  2  0  0  0  0  0  0  0  0  0
   19.9283   72.2721    4.0909 H   0  0  0  0  0  0  0  0  0  0  0  0
   21.8706   73.0840    5.5430 H   0  0  0  0  0  0  0  0  0  0  0  0
   24.7031   69.7771    2.1197 O   0  0  0  0  0  0  0  0  0  0  0  0
   28.5652   72.2005    2.7942 O   0  0  0  0  0  0  0  0  0  0  0  0
   24.5051   72.0300    2.7062 N   0  0  0  0  0  0  0  0  0  0  0  0
   26.6251   70.9859    2.4572 N   0  0  0  0  0  0  0  0  0  0  0  0
   25.2312   70.8530    2.4066 C   0  0  0  0  0  0  0  0  0  0  0  0
   25.1785   73.2047    3.0184 C   0  0  0  0  0  0  0  0  0  0  0  0
   26.5076   73.3159    3.0624 C   0  0  0  0  0  0  0  0  0  0  0  0
   27.3402   72.1325    2.7632 C   0  0  0  0  0  0  0  0  0  0  0  0
   27.1520   70.1794    2.2543 H   0  0  0  0  0  0  0  0  0  0  0  0
   23.4612   73.1637   -1.8731 O   0  0  0  0  0  0  0  0  0  0  0  0
   23.6357   72.5728   -3.3678 P   0  0  2  0  0  0  0  0  0  0  0  0
   24.0008   71.0170   -3.1102 O   0  0  0  0  0  0  0  0  0  0  0  0
   24.6359   73.3116   -4.2091 O   0  0  0  0  0  0  0  0  0  0  0  0
   22.1411   72.5453   -3.9742 O   0  0  0  0  0  0  0  0  0  0  0  0
   20.5490   70.7977   -3.8315 O   0  0  0  0  0  0  0  0  0  0  0  0
   19.4928   72.6086   -7.3915 O   0  0  0  0  0  0  0  0  0  0  0  0
   22.3046   72.1778   -6.7263 O   0  0  0  0  0  0  0  0  0  0  0  0
   17.8924   73.0407   -5.0034 O   0  0  0  0  0  0  0  0  0  0  0  0
   20.0023   72.5520   -6.0591 C   0  0  2  0  0  0  0  0  0  0  0  0
   21.2098   71.6154   -6.0123 C   0  0  2  0  0  0  0  0  0  0  0  0
   18.8884   72.0301   -5.1487 C   0  0  1  0  0  0  0  0  0  0  0  0
   21.6403   71.3495   -4.5691 C   0  0  1  0  0  0  0  0  0  0  0  0
   19.4226   71.6694   -3.7655 C   0  0  1  0  0  0  0  0  0  0  0  0
   20.1834   72.9375   -7.9882 H   0  0  0  0  0  0  0  0  0  0  0  0
   22.0384   72.3494   -7.6428 H   0  0  0  0  0  0  0  0  0  0  0  0
   17.5443   73.2795   -5.8767 H   0  0  0  0  0  0  0  0  0  0  0  0
   17.5443   71.6770   -2.3606 O   0  0  0  0  0  0  0  0  0  0  0  0
   18.3862   69.6447   -2.9606 O   0  0  0  0  0  0  0  0  0  0  0  0
   18.4204   70.8653   -3.0030 C   0  0  0  0  0  0  0  0  0  0  0  0
  1  4  1  0
  1 24  1  0
  1  2  1  6
  1  3  2  0
 25 28  1  0
 25 24  1  0
 25 26  1  1
 25 27  2  0
  6 11  1  0
  6 12  1  0
 29 36  1  0
 29 37  1  0
  9  7  1  6
  7 13  1  0
 10  8  1  1
  8 14  1  0
  4  5  1  0
 36 28  1  1
 33 30  1  6
 30 38  1  0
 34 31  1  6
 31 39  1  0
 35 32  1  1
 32 40  1  0
 41 43  1  0
 15 19  2  0
 42 43  2  0
 16 22  2  0
 12 17  1  6
 17 19  1  0
 17 20  1  0
 18 19  1  0
 18 22  1  0
 18 23  1  0
  9 10  1  0
  9 11  1  0
 10 12  1  0
 11  5  1  1
 33 34  1  0
 33 35  1  0
 34 36  1  0
 35 37  1  0
 37 43  1  1
 20 21  2  0
 21 22  1  0
M  CHG  3   2  -1  26  -1  41  -1
M  END
