1
     RDKit          3D

 43 45  0  0  0  0  0  0  0  0999 V2000
   23.0595   71.7779   -2.5283 P   0  0  2  0  0  0  0  0  0  0  0  0
   23.4241   73.2690   -2.0173 O   0  0  0  0  0  0  0  0  0  0  0  0
   24.2028   71.0183   -3.1343 O   0  0  0  0  0  0  0  0  0  0  0  0
   21.7758   71.9993   -3.4881 O   0  0  0  0  0  0  0  0  0  0  0  0
   20.9609   70.8817   -3.7958 C   0  0  0  0  0  0  0  0  0  0  0  0
   18.9503   71.8026   -4.7356 O   0  0  0  0  0  0  0  0  0  0  0  0
   17.5079   70.4928   -2.4564 O   0  0  0  0  0  0  0  0  0  0  0  0
   17.0394   68.7751   -4.5220 O   0  0  0  0  0  0  0  0  0  0  0  0
   18.6402   70.0317   -3.1917 C   0  0  1  0  0  0  0  0  0  0  0  0
   18.2166   69.5555   -4.5655 C   0  0  2  0  0  0  0  0  0  0  0  0
   19.5058   71.2400   -3.5267 C   0  0  1  0  0  0  0  0  0  0  0  0
   18.0216   70.8669   -5.3073 C   0  0  2  0  0  0  0  0  0  0  0  0
   16.9402   69.7386   -2.2307 H   0  0  0  0  0  0  0  0  0  0  0  0
   17.2147   67.9518   -4.0401 H   0  0  0  0  0  0  0  0  0  0  0  0
   16.1352   69.9920   -7.2188 O   0  0  0  0  0  0  0  0  0  0  0  0
   19.1538   70.4401  -10.6725 O   0  0  0  0  0  0  0  0  0  0  0  0
   18.2876   70.7458   -6.7130 N   0  0  0  0  0  0  0  0  0  0  0  0
   17.6397   70.2160   -8.9370 N   0  0  0  0  0  0  0  0  0  0  0  0
   17.2714   70.2960   -7.5879 C   0  0  0  0  0  0  0  0  0  0  0  0
   19.5445   71.0717   -7.2111 C   0  0  0  0  0  0  0  0  0  0  0  0
   19.8801   70.9886   -8.5001 C   0  0  0  0  0  0  0  0  0  0  0  0
   18.8760   70.5273   -9.4804 C   0  0  0  0  0  0  0  0  0  0  0  0
   16.9480   69.9047   -9.5650 H   0  0  0  0  0  0  0  0  0  0  0  0
   22.4164   71.0905   -1.2143 O   0  0  0  0  0  0  0  0  0  0  0  0
   21.5039   71.7084   -0.0317 P   0  0  2  0  0  0  0  0  0  0  0  0
   20.9697   70.3960    0.7492 O   0  0  0  0  0  0  0  0  0  0  0  0
   20.4186   72.6293   -0.5093 O   0  0  0  0  0  0  0  0  0  0  0  0
   22.5576   72.3871    0.9851 O   0  0  0  0  0  0  0  0  0  0  0  0
   24.3131   71.7772    2.4557 O   0  0  0  0  0  0  0  0  0  0  0  0
   21.9673   73.9295    5.0854 O   0  0  0  0  0  0  0  0  0  0  0  0
   24.4424   75.0476    4.1517 O   0  0  0  0  0  0  0  0  0  0  0  0
   20.7235   72.2260    3.1030 O   0  0  0  0  0  0  0  0  0  0  0  0
   22.5548   73.6167    3.8196 C   0  0  1  0  0  0  0  0  0  0  0  0
   24.0761   73.6830    3.9674 C   0  0  1  0  0  0  0  0  0  0  0  0
   22.1161   72.2155    3.3983 C   0  0  2  0  0  0  0  0  0  0  0  0
   24.7785   73.1033    2.7322 C   0  0  1  0  0  0  0  0  0  0  0  0
   22.9104   71.7141    2.1909 C   0  0  1  0  0  0  0  0  0  0  0  0
   22.2416   74.8182    5.3585 H   0  0  0  0  0  0  0  0  0  0  0  0
   23.9918   75.4017    4.9345 H   0  0  0  0  0  0  0  0  0  0  0  0
   20.2317   72.5449    3.8751 H   0  0  0  0  0  0  0  0  0  0  0  0
   26.7303   71.7539    2.4520 O   0  0  0  0  0  0  0  0  0  0  0  0
   26.2910   73.0145    2.9234 C   0  0  0  0  0  0  0  0  0  0  0  0
   27.6913   71.6833    2.5671 H   0  0  0  0  0  0  0  0  0  0  0  0
 25 28  1  0
 25 24  1  0
 25 26  1  1
 25 27  2  0
  1  4  1  0
  1 24  1  0
  1  2  1  1
  1  3  2  0
  6 11  1  0
  6 12  1  0
 29 36  1  0
 29 37  1  0
  9  7  1  1
  7 13  1  0
 10  8  1  1
  8 14  1  0
 37 28  1  6
  4  5  1  0
 33 30  1  1
 30 38  1  0
 34 31  1  6
 31 39  1  0
 35 32  1  6
 32 40  1  0
 41 42  1  0
 41 43  1  0
 15 19  2  0
 16 22  2  0
 12 17  1  6
 17 19  1  0
 17 20  1  0
 18 19  1  0
 18 22  1  0
 18 23  1  0
  9 10  1  0
  9 11  1  0
 10 12  1  0
 11  5  1  6
 33 34  1  0
 33 35  1  0
 34 36  1  0
 35 37  1  0
 36 42  1  1
 20 21  2  0
 21 22  1  0
M  CHG  2   2  -1  26  -1
M  END
>  <COMPND>  (1) 
    8629 

>  <AUTHOR>  (1) 
    GENERATED BY OPEN BABEL 3.1.1

>  <MASTER>  (1) 
        0    0    0    0    0    0    0    0   58    0   58    0

>  <minimizedAffinity>  (1) 
-7.93331

>  <CNNscore>  (1) 
0.9338286519

>  <CNNaffinity>  (1) 
4.7640028000

>  <CNN_VS>  (1) 
4.4487624168

>  <CNNaffinity_variance>  (1) 
0.0442052931

$$$$
2
     RDKit          3D

 43 45  0  0  0  0  0  0  0  0999 V2000
   22.7870   71.6098   -3.1193 P   0  0  2  0  0  0  0  0  0  0  0  0
   22.3635   72.1871   -4.5700 O   0  0  0  0  0  0  0  0  0  0  0  0
   24.1576   71.0027   -3.0542 O   0  0  0  0  0  0  0  0  0  0  0  0
   21.5642   70.6285   -2.7196 O   0  0  0  0  0  0  0  0  0  0  0  0
   20.6934   70.1815   -3.7443 C   0  0  0  0  0  0  0  0  0  0  0  0
   18.9155   71.4817   -4.7047 O   0  0  0  0  0  0  0  0  0  0  0  0
   17.1646   70.3250   -2.5629 O   0  0  0  0  0  0  0  0  0  0  0  0
   16.5104   68.8215   -4.7419 O   0  0  0  0  0  0  0  0  0  0  0  0
   18.2360   69.7141   -3.2801 C   0  0  1  0  0  0  0  0  0  0  0  0
   17.8037   69.3887   -4.6946 C   0  0  2  0  0  0  0  0  0  0  0  0
   19.3091   70.7708   -3.5105 C   0  0  1  0  0  0  0  0  0  0  0  0
   17.8698   70.7503   -5.3653 C   0  0  2  0  0  0  0  0  0  0  0  0
   16.4670   69.6693   -2.4036 H   0  0  0  0  0  0  0  0  0  0  0  0
   16.5201   67.9568   -4.3026 H   0  0  0  0  0  0  0  0  0  0  0  0
   15.9720   70.2036   -7.3846 O   0  0  0  0  0  0  0  0  0  0  0  0
   19.1668   70.4153  -10.6997 O   0  0  0  0  0  0  0  0  0  0  0  0
   18.1781   70.6572   -6.7645 N   0  0  0  0  0  0  0  0  0  0  0  0
   17.5643   70.3096   -9.0336 N   0  0  0  0  0  0  0  0  0  0  0  0
   17.1519   70.3774   -7.6967 C   0  0  0  0  0  0  0  0  0  0  0  0
   19.4857   70.8429   -7.1998 C   0  0  0  0  0  0  0  0  0  0  0  0
   19.8628   70.7737   -8.4782 C   0  0  0  0  0  0  0  0  0  0  0  0
   18.8517   70.4854   -9.5158 C   0  0  0  0  0  0  0  0  0  0  0  0
   16.8665   70.1154   -9.7008 H   0  0  0  0  0  0  0  0  0  0  0  0
   22.5670   72.8801   -2.1442 O   0  0  0  0  0  0  0  0  0  0  0  0
   23.4515   74.2151   -1.9240 P   0  0  2  0  0  0  0  0  0  0  0  0
   22.3559   75.3153   -1.4693 O   0  0  0  0  0  0  0  0  0  0  0  0
   24.2712   74.6139   -3.1169 O   0  0  0  0  0  0  0  0  0  0  0  0
   24.3110   73.9203   -0.5902 O   0  0  0  0  0  0  0  0  0  0  0  0
   22.7965   72.9890    0.9768 O   0  0  0  0  0  0  0  0  0  0  0  0
   26.2089   73.0299    3.3016 O   0  0  0  0  0  0  0  0  0  0  0  0
   25.2020   70.5317    2.3050 O   0  0  0  0  0  0  0  0  0  0  0  0
   25.6682   75.2236    1.4918 O   0  0  0  0  0  0  0  0  0  0  0  0
   25.4585   72.9001    2.0910 C   0  0  1  0  0  0  0  0  0  0  0  0
   24.4644   71.7501    2.2640 C   0  0  1  0  0  0  0  0  0  0  0  0
   24.7226   74.2104    1.8169 C   0  0  2  0  0  0  0  0  0  0  0  0
   23.4466   71.7202    1.1158 C   0  0  1  0  0  0  0  0  0  0  0  0
   23.6996   74.0585    0.6898 C   0  0  1  0  0  0  0  0  0  0  0  0
   26.6790   72.2015    3.4811 H   0  0  0  0  0  0  0  0  0  0  0  0
   25.8414   70.5638    3.0339 H   0  0  0  0  0  0  0  0  0  0  0  0
   26.3101   75.3102    2.2132 H   0  0  0  0  0  0  0  0  0  0  0  0
   21.2223   71.3341    1.8983 O   0  0  0  0  0  0  0  0  0  0  0  0
   22.3519   70.6812    1.3488 C   0  0  0  0  0  0  0  0  0  0  0  0
   20.5174   70.6851    2.0516 H   0  0  0  0  0  0  0  0  0  0  0  0
 25 28  1  0
 25 24  1  0
 25 26  1  1
 25 27  2  0
  1  4  1  0
  1 24  1  0
  1  2  1  6
  1  3  2  0
  6 11  1  0
  6 12  1  0
 29 36  1  0
 29 37  1  0
  9  7  1  1
  7 13  1  0
 10  8  1  1
  8 14  1  0
 37 28  1  6
  4  5  1  0
 33 30  1  1
 30 38  1  0
 34 31  1  6
 31 39  1  0
 35 32  1  6
 32 40  1  0
 41 42  1  0
 41 43  1  0
 15 19  2  0
 16 22  2  0
 12 17  1  6
 17 19  1  0
 17 20  1  0
 18 19  1  0
 18 22  1  0
 18 23  1  0
  9 10  1  0
  9 11  1  0
 10 12  1  0
 11  5  1  6
 33 34  1  0
 33 35  1  0
 34 36  1  0
 35 37  1  0
 36 42  1  1
 20 21  2  0
 21 22  1  0
M  CHG  2   2  -1  26  -1
M  END
>  <COMPND>  (2) 
    8629 

>  <AUTHOR>  (2) 
    GENERATED BY OPEN BABEL 3.1.1

>  <MASTER>  (2) 
        0    0    0    0    0    0    0    0   58    0   58    0

>  <minimizedAffinity>  (2) 
-7.64908

>  <CNNscore>  (2) 
0.9046142101

>  <CNNaffinity>  (2) 
4.7528758049

>  <CNN_VS>  (2) 
4.2995190620

>  <CNNaffinity_variance>  (2) 
0.0343230963

$$$$
3
     RDKit          3D

 43 45  0  0  0  0  0  0  0  0999 V2000
   22.4787   71.8719   -2.8541 P   0  0  2  0  0  0  0  0  0  0  0  0
   21.8364   72.8766   -3.9474 O   0  0  0  0  0  0  0  0  0  0  0  0
   23.8517   71.3665   -3.1872 O   0  0  0  0  0  0  0  0  0  0  0  0
   21.3421   70.7379   -2.6536 O   0  0  0  0  0  0  0  0  0  0  0  0
   20.5692   70.3495   -3.7760 C   0  0  0  0  0  0  0  0  0  0  0  0
   18.7250   71.5100   -4.7888 O   0  0  0  0  0  0  0  0  0  0  0  0
   17.0076   70.2216   -2.6955 O   0  0  0  0  0  0  0  0  0  0  0  0
   16.5327   68.6733   -4.8895 O   0  0  0  0  0  0  0  0  0  0  0  0
   18.1426   69.6949   -3.3809 C   0  0  1  0  0  0  0  0  0  0  0  0
   17.7769   69.3380   -4.8066 C   0  0  2  0  0  0  0  0  0  0  0  0
   19.1377   70.8308   -3.5827 C   0  0  1  0  0  0  0  0  0  0  0  0
   17.7576   70.7009   -5.4775 C   0  0  2  0  0  0  0  0  0  0  0  0
   16.3581   69.5143   -2.5549 H   0  0  0  0  0  0  0  0  0  0  0  0
   16.5962   67.8117   -4.4486 H   0  0  0  0  0  0  0  0  0  0  0  0
   15.9562   70.0488   -7.5531 O   0  0  0  0  0  0  0  0  0  0  0  0
   19.2281   70.4665  -10.7721 O   0  0  0  0  0  0  0  0  0  0  0  0
   18.1118   70.6323   -6.8672 N   0  0  0  0  0  0  0  0  0  0  0  0
   17.5868   70.2575   -9.1542 N   0  0  0  0  0  0  0  0  0  0  0  0
   17.1321   70.2948   -7.8299 C   0  0  0  0  0  0  0  0  0  0  0  0
   19.4179   70.8983   -7.2634 C   0  0  0  0  0  0  0  0  0  0  0  0
   19.8358   70.8573   -8.5303 C   0  0  0  0  0  0  0  0  0  0  0  0
   18.8747   70.5127   -9.5978 C   0  0  0  0  0  0  0  0  0  0  0  0
   16.9219   70.0242   -9.8421 H   0  0  0  0  0  0  0  0  0  0  0  0
   22.3894   72.7223   -1.4823 O   0  0  0  0  0  0  0  0  0  0  0  0
   23.4536   72.9135   -0.2806 P   0  0  2  0  0  0  0  0  0  0  0  0
   24.3474   74.1690   -0.7729 O   0  0  0  0  0  0  0  0  0  0  0  0
   24.2446   71.6792    0.0430 O   0  0  0  0  0  0  0  0  0  0  0  0
   22.5819   73.4909    0.9489 O   0  0  0  0  0  0  0  0  0  0  0  0
   23.4253   73.8173    3.1395 O   0  0  0  0  0  0  0  0  0  0  0  0
   19.4435   73.2098    4.0492 O   0  0  0  0  0  0  0  0  0  0  0  0
   20.5626   75.8455    4.2710 O   0  0  0  0  0  0  0  0  0  0  0  0
   20.6953   71.6672    1.9438 O   0  0  0  0  0  0  0  0  0  0  0  0
   20.5442   73.6760    3.2640 C   0  0  1  0  0  0  0  0  0  0  0  0
   21.3482   74.6682    4.1067 C   0  0  1  0  0  0  0  0  0  0  0  0
   21.4117   72.4842    2.8633 C   0  0  2  0  0  0  0  0  0  0  0  0
   22.6861   75.0079    3.4360 C   0  0  1  0  0  0  0  0  0  0  0  0
   22.7398   72.9329    2.2508 C   0  0  1  0  0  0  0  0  0  0  0  0
   18.8884   73.9616    4.3065 H   0  0  0  0  0  0  0  0  0  0  0  0
   19.7204   75.6171    4.6950 H   0  0  0  0  0  0  0  0  0  0  0  0
   19.8569   71.3894    2.3434 H   0  0  0  0  0  0  0  0  0  0  0  0
   23.1752   77.2227    4.1871 O   0  0  0  0  0  0  0  0  0  0  0  0
   23.5718   75.8714    4.3316 C   0  0  0  0  0  0  0  0  0  0  0  0
   23.7301   77.7840    4.7516 H   0  0  0  0  0  0  0  0  0  0  0  0
 25 28  1  0
 25 24  1  0
 25 26  1  6
 25 27  2  0
  1  4  1  0
  1 24  1  0
  1  2  1  6
  1  3  2  0
  6 11  1  0
  6 12  1  0
 29 36  1  0
 29 37  1  0
  9  7  1  1
  7 13  1  0
 10  8  1  1
  8 14  1  0
 37 28  1  6
  4  5  1  0
 33 30  1  1
 30 38  1  0
 34 31  1  6
 31 39  1  0
 35 32  1  6
 32 40  1  0
 41 42  1  0
 41 43  1  0
 15 19  2  0
 16 22  2  0
 12 17  1  6
 17 19  1  0
 17 20  1  0
 18 19  1  0
 18 22  1  0
 18 23  1  0
  9 10  1  0
  9 11  1  0
 10 12  1  0
 11  5  1  6
 33 34  1  0
 33 35  1  0
 34 36  1  0
 35 37  1  0
 36 42  1  1
 20 21  2  0
 21 22  1  0
M  CHG  2   2  -1  26  -1
M  END
>  <COMPND>  (3) 
    8629 

>  <AUTHOR>  (3) 
    GENERATED BY OPEN BABEL 3.1.1

>  <MASTER>  (3) 
        0    0    0    0    0    0    0    0   58    0   58    0

>  <minimizedAffinity>  (3) 
-6.99105

>  <CNNscore>  (3) 
0.8852763176

>  <CNNaffinity>  (3) 
4.5849962234

>  <CNN_VS>  (3) 
4.0589885712

>  <CNNaffinity_variance>  (3) 
0.0657834560

$$$$
4
     RDKit          3D

 43 45  0  0  0  0  0  0  0  0999 V2000
   20.6682   72.1477   -3.9904 P   0  0  2  0  0  0  0  0  0  0  0  0
   20.0492   72.5692   -2.5564 O   0  0  0  0  0  0  0  0  0  0  0  0
   20.8888   73.2847   -4.9444 O   0  0  0  0  0  0  0  0  0  0  0  0
   19.6811   70.9758   -4.5102 O   0  0  0  0  0  0  0  0  0  0  0  0
   19.0083   70.1823   -3.5482 C   0  0  0  0  0  0  0  0  0  0  0  0
   17.2741   71.2077   -4.8577 O   0  0  0  0  0  0  0  0  0  0  0  0
   15.3722   69.3878   -3.4219 O   0  0  0  0  0  0  0  0  0  0  0  0
   15.6947   68.1358   -5.8230 O   0  0  0  0  0  0  0  0  0  0  0  0
   16.7088   69.1372   -3.8532 C   0  0  1  0  0  0  0  0  0  0  0  0
   16.7503   68.9506   -5.3555 C   0  0  2  0  0  0  0  0  0  0  0  0
   17.5094   70.4204   -3.6698 C   0  0  1  0  0  0  0  0  0  0  0  0
   16.6486   70.3822   -5.8538 C   0  0  2  0  0  0  0  0  0  0  0  0
   14.8416   68.5823   -3.5293 H   0  0  0  0  0  0  0  0  0  0  0  0
   15.8042   67.2356   -5.4790 H   0  0  0  0  0  0  0  0  0  0  0  0
   16.1711   72.5471   -7.6040 O   0  0  0  0  0  0  0  0  0  0  0  0
   19.2839   71.0175  -10.6392 O   0  0  0  0  0  0  0  0  0  0  0  0
   17.3204   70.5747   -7.1079 N   0  0  0  0  0  0  0  0  0  0  0  0
   17.7215   71.7838   -9.1138 N   0  0  0  0  0  0  0  0  0  0  0  0
   17.0065   71.6947   -7.9127 C   0  0  0  0  0  0  0  0  0  0  0  0
   18.2789   69.6591   -7.5283 C   0  0  0  0  0  0  0  0  0  0  0  0
   18.9510   69.7577   -8.6772 C   0  0  0  0  0  0  0  0  0  0  0  0
   18.6826   70.8987   -9.5761 C   0  0  0  0  0  0  0  0  0  0  0  0
   17.5193   72.5557   -9.6909 H   0  0  0  0  0  0  0  0  0  0  0  0
   22.0085   71.3404   -3.5846 O   0  0  0  0  0  0  0  0  0  0  0  0
   23.3729   71.8371   -2.8741 P   0  0  2  0  0  0  0  0  0  0  0  0
   23.6568   73.2673   -3.5751 O   0  0  0  0  0  0  0  0  0  0  0  0
   24.5096   70.8616   -2.9748 O   0  0  0  0  0  0  0  0  0  0  0  0
   22.9371   72.2027   -1.3637 O   0  0  0  0  0  0  0  0  0  0  0  0
   24.2341   71.5563    0.5116 O   0  0  0  0  0  0  0  0  0  0  0  0
   20.5542   71.9220    2.3489 O   0  0  0  0  0  0  0  0  0  0  0  0
   22.5872   73.8896    2.8422 O   0  0  0  0  0  0  0  0  0  0  0  0
   20.7319   70.8159   -0.3203 O   0  0  0  0  0  0  0  0  0  0  0  0
   21.5820   72.2568    1.4124 C   0  0  1  0  0  0  0  0  0  0  0  0
   22.8373   72.6444    2.1964 C   0  0  1  0  0  0  0  0  0  0  0  0
   21.8573   71.0480    0.5200 C   0  0  2  0  0  0  0  0  0  0  0  0
   24.0558   72.7580    1.2703 C   0  0  1  0  0  0  0  0  0  0  0  0
   23.1178   71.2446   -0.3242 C   0  0  1  0  0  0  0  0  0  0  0  0
   20.3743   72.6854    2.9183 H   0  0  0  0  0  0  0  0  0  0  0  0
   21.8152   73.8044    3.4236 H   0  0  0  0  0  0  0  0  0  0  0  0
   19.9405   70.6927    0.2260 H   0  0  0  0  0  0  0  0  0  0  0  0
   25.4553   74.3694    2.3444 O   0  0  0  0  0  0  0  0  0  0  0  0
   25.3479   72.9886    2.0509 C   0  0  0  0  0  0  0  0  0  0  0  0
   26.2730   74.5311    2.8413 H   0  0  0  0  0  0  0  0  0  0  0  0
 25 28  1  0
 25 24  1  0
 25 26  1  6
 25 27  2  0
  1  4  1  0
  1 24  1  0
  1  2  1  1
  1  3  2  0
  6 11  1  0
  6 12  1  0
 29 36  1  0
 29 37  1  0
  9  7  1  6
  7 13  1  0
 10  8  1  6
  8 14  1  0
 37 28  1  6
  4  5  1  0
 33 30  1  1
 30 38  1  0
 34 31  1  6
 31 39  1  0
 35 32  1  6
 32 40  1  0
 41 42  1  0
 41 43  1  0
 15 19  2  0
 16 22  2  0
 12 17  1  6
 17 19  1  0
 17 20  1  0
 18 19  1  0
 18 22  1  0
 18 23  1  0
  9 10  1  0
  9 11  1  0
 10 12  1  0
 11  5  1  6
 33 34  1  0
 33 35  1  0
 34 36  1  0
 35 37  1  0
 36 42  1  1
 20 21  2  0
 21 22  1  0
M  CHG  2   2  -1  26  -1
M  END
>  <COMPND>  (4) 
    8629 

>  <AUTHOR>  (4) 
    GENERATED BY OPEN BABEL 3.1.1

>  <MASTER>  (4) 
        0    0    0    0    0    0    0    0   58    0   58    0

>  <minimizedAffinity>  (4) 
-7.38465

>  <CNNscore>  (4) 
0.8767030239

>  <CNNaffinity>  (4) 
4.6242203712

>  <CNN_VS>  (4) 
4.0540680885

>  <CNNaffinity_variance>  (4) 
0.1143300384

$$$$
5
     RDKit          3D

 43 45  0  0  0  0  0  0  0  0999 V2000
   22.0782   72.8031   -4.6392 P   0  0  2  0  0  0  0  0  0  0  0  0
   21.3496   74.0816   -5.3117 O   0  0  0  0  0  0  0  0  0  0  0  0
   23.4961   72.5795   -5.0760 O   0  0  0  0  0  0  0  0  0  0  0  0
   21.0555   71.5811   -4.9199 O   0  0  0  0  0  0  0  0  0  0  0  0
   20.4954   70.8999   -3.8109 C   0  0  0  0  0  0  0  0  0  0  0  0
   18.5964   71.8572   -4.9293 O   0  0  0  0  0  0  0  0  0  0  0  0
   16.9328   70.6203   -2.7629 O   0  0  0  0  0  0  0  0  0  0  0  0
   16.5939   68.8832   -4.8376 O   0  0  0  0  0  0  0  0  0  0  0  0
   18.1102   70.1190   -3.3937 C   0  0  1  0  0  0  0  0  0  0  0  0
   17.7911   69.6325   -4.7919 C   0  0  2  0  0  0  0  0  0  0  0  0
   19.0330   71.2994   -3.6705 C   0  0  1  0  0  0  0  0  0  0  0  0
   17.6944   70.9368   -5.5650 C   0  0  2  0  0  0  0  0  0  0  0  0
   16.3282   69.8845   -2.5760 H   0  0  0  0  0  0  0  0  0  0  0  0
   16.7059   68.0634   -4.3317 H   0  0  0  0  0  0  0  0  0  0  0  0
   15.9600   70.0546   -7.6123 O   0  0  0  0  0  0  0  0  0  0  0  0
   19.2616   70.3992  -10.8094 O   0  0  0  0  0  0  0  0  0  0  0  0
   18.0743   70.7871   -6.9414 N   0  0  0  0  0  0  0  0  0  0  0  0
   17.6053   70.2270   -9.2026 N   0  0  0  0  0  0  0  0  0  0  0  0
   17.1275   70.3361   -7.8904 C   0  0  0  0  0  0  0  0  0  0  0  0
   19.3731   71.0865   -7.3383 C   0  0  0  0  0  0  0  0  0  0  0  0
   19.8133   70.9759   -8.5934 C   0  0  0  0  0  0  0  0  0  0  0  0
   18.8871   70.5113   -9.6462 C   0  0  0  0  0  0  0  0  0  0  0  0
   16.9634   69.9143   -9.8808 H   0  0  0  0  0  0  0  0  0  0  0  0
   21.8965   73.0725   -3.0558 O   0  0  0  0  0  0  0  0  0  0  0  0
   22.5988   74.1481   -2.0745 P   0  0  2  0  0  0  0  0  0  0  0  0
   21.7258   75.4899   -2.3093 O   0  0  0  0  0  0  0  0  0  0  0  0
   24.0724   74.3200   -2.3040 O   0  0  0  0  0  0  0  0  0  0  0  0
   22.2058   73.6613   -0.5867 O   0  0  0  0  0  0  0  0  0  0  0  0
   23.0341   71.5069   -0.0489 O   0  0  0  0  0  0  0  0  0  0  0  0
   20.4163   72.0133    3.1041 O   0  0  0  0  0  0  0  0  0  0  0  0
   23.2460   72.1556    3.5737 O   0  0  0  0  0  0  0  0  0  0  0  0
   19.6995   72.9635    0.4653 O   0  0  0  0  0  0  0  0  0  0  0  0
   21.3666   72.4299    2.1198 C   0  0  1  0  0  0  0  0  0  0  0  0
   22.6726   71.6708    2.3627 C   0  0  1  0  0  0  0  0  0  0  0  0
   20.8145   72.1190    0.7299 C   0  0  2  0  0  0  0  0  0  0  0  0
   23.6497   71.8616    1.1949 C   0  0  1  0  0  0  0  0  0  0  0  0
   21.8806   72.2934   -0.3533 C   0  0  1  0  0  0  0  0  0  0  0  0
   20.7605   72.2083    3.9889 H   0  0  0  0  0  0  0  0  0  0  0  0
   22.6187   72.0297    4.3030 H   0  0  0  0  0  0  0  0  0  0  0  0
   19.0317   72.8435    1.1578 H   0  0  0  0  0  0  0  0  0  0  0  0
   24.6551   70.0331    2.3587 O   0  0  0  0  0  0  0  0  0  0  0  0
   24.8940   70.9885    1.3418 C   0  0  0  0  0  0  0  0  0  0  0  0
   25.4385   69.4701    2.4631 H   0  0  0  0  0  0  0  0  0  0  0  0
 25 28  1  0
 25 24  1  0
 25 26  1  6
 25 27  2  0
  1  4  1  0
  1 24  1  0
  1  2  1  6
  1  3  2  0
  6 11  1  0
  6 12  1  0
 29 36  1  0
 29 37  1  0
  9  7  1  6
  7 13  1  0
 10  8  1  1
  8 14  1  0
 37 28  1  1
  4  5  1  0
 33 30  1  1
 30 38  1  0
 34 31  1  1
 31 39  1  0
 35 32  1  6
 32 40  1  0
 41 42  1  0
 41 43  1  0
 15 19  2  0
 16 22  2  0
 12 17  1  6
 17 19  1  0
 17 20  1  0
 18 19  1  0
 18 22  1  0
 18 23  1  0
  9 10  1  0
  9 11  1  0
 10 12  1  0
 11  5  1  6
 33 34  1  0
 33 35  1  0
 34 36  1  0
 35 37  1  0
 36 42  1  1
 20 21  2  0
 21 22  1  0
M  CHG  2   2  -1  26  -1
M  END
>  <COMPND>  (5) 
    8629 

>  <AUTHOR>  (5) 
    GENERATED BY OPEN BABEL 3.1.1

>  <MASTER>  (5) 
        0    0    0    0    0    0    0    0   58    0   58    0

>  <minimizedAffinity>  (5) 
-7.61097

>  <CNNscore>  (5) 
0.8344000578

>  <CNNaffinity>  (5) 
4.5746603012

>  <CNN_VS>  (5) 
3.8170967102

>  <CNNaffinity_variance>  (5) 
0.0419076793

$$$$
6
     RDKit          3D

 43 45  0  0  0  0  0  0  0  0999 V2000
   21.8408   72.5630   -5.4570 P   0  0  2  0  0  0  0  0  0  0  0  0
   20.9961   73.9124   -5.1689 O   0  0  0  0  0  0  0  0  0  0  0  0
   23.1246   72.7667   -6.2064 O   0  0  0  0  0  0  0  0  0  0  0  0
   20.7676   71.5751   -6.1573 O   0  0  0  0  0  0  0  0  0  0  0  0
   20.2549   71.9273   -7.4305 C   0  0  0  0  0  0  0  0  0  0  0  0
   18.9907   69.9361   -6.9711 O   0  0  0  0  0  0  0  0  0  0  0  0
   18.2140   69.9863   -9.8668 O   0  0  0  0  0  0  0  0  0  0  0  0
   16.0066   71.0170   -8.6414 O   0  0  0  0  0  0  0  0  0  0  0  0
   18.4152   71.0755   -8.9677 C   0  0  1  0  0  0  0  0  0  0  0  0
   17.2551   71.1796   -7.9998 C   0  0  2  0  0  0  0  0  0  0  0  0
   19.5700   70.7129   -8.0423 C   0  0  1  0  0  0  0  0  0  0  0  0
   17.5598   70.0583   -7.0210 C   0  0  2  0  0  0  0  0  0  0  0  0
   17.4813   70.1948  -10.4682 H   0  0  0  0  0  0  0  0  0  0  0  0
   15.8589   71.7548   -9.2534 H   0  0  0  0  0  0  0  0  0  0  0  0
   16.3252   68.1501   -5.3440 O   0  0  0  0  0  0  0  0  0  0  0  0
   15.7153   71.2356   -1.9751 O   0  0  0  0  0  0  0  0  0  0  0  0
   17.0692   70.3356   -5.7005 N   0  0  0  0  0  0  0  0  0  0  0  0
   16.0227   69.6879   -3.6678 N   0  0  0  0  0  0  0  0  0  0  0  0
   16.4645   69.3069   -4.9412 C   0  0  0  0  0  0  0  0  0  0  0  0
   17.1902   71.6158   -5.1709 C   0  0  0  0  0  0  0  0  0  0  0  0
   16.7625   71.9632   -3.9553 C   0  0  0  0  0  0  0  0  0  0  0  0
   16.1191   70.9473   -3.0975 C   0  0  0  0  0  0  0  0  0  0  0  0
   15.5978   68.9878   -3.1209 H   0  0  0  0  0  0  0  0  0  0  0  0
   22.0164   71.9225   -3.9833 O   0  0  0  0  0  0  0  0  0  0  0  0
   23.2067   72.0648   -2.8990 P   0  0  2  0  0  0  0  0  0  0  0  0
   23.7573   73.5657   -3.1471 O   0  0  0  0  0  0  0  0  0  0  0  0
   24.2570   70.9963   -2.9944 O   0  0  0  0  0  0  0  0  0  0  0  0
   22.4540   72.1372   -1.4731 O   0  0  0  0  0  0  0  0  0  0  0  0
   24.0257   71.8182    0.2718 O   0  0  0  0  0  0  0  0  0  0  0  0
   20.5530   71.8301    2.5059 O   0  0  0  0  0  0  0  0  0  0  0  0
   22.3278   74.0845    2.6318 O   0  0  0  0  0  0  0  0  0  0  0  0
   20.5945   70.5532   -0.0917 O   0  0  0  0  0  0  0  0  0  0  0  0
   21.4149   72.2255    1.4353 C   0  0  1  0  0  0  0  0  0  0  0  0
   22.6803   72.8375    2.0394 C   0  0  1  0  0  0  0  0  0  0  0  0
   21.7602   70.9986    0.5933 C   0  0  2  0  0  0  0  0  0  0  0  0
   23.7623   73.0407    0.9702 C   0  0  1  0  0  0  0  0  0  0  0  0
   22.8807   71.2957   -0.4049 C   0  0  1  0  0  0  0  0  0  0  0  0
   20.3296   72.6047    3.0441 H   0  0  0  0  0  0  0  0  0  0  0  0
   21.6436   73.9423    3.3047 H   0  0  0  0  0  0  0  0  0  0  0  0
   19.8927   70.3682    0.5511 H   0  0  0  0  0  0  0  0  0  0  0  0
   25.0812   73.1891    2.9570 O   0  0  0  0  0  0  0  0  0  0  0  0
   25.0858   73.5022    1.5764 C   0  0  0  0  0  0  0  0  0  0  0  0
   25.9177   73.4769    3.3560 H   0  0  0  0  0  0  0  0  0  0  0  0
 25 28  1  0
 25 24  1  0
 25 26  1  6
 25 27  2  0
  1  4  1  0
  1 24  1  0
  1  2  1  1
  1  3  2  0
  6 11  1  0
  6 12  1  0
 29 36  1  0
 29 37  1  0
  9  7  1  6
  7 13  1  0
 10  8  1  6
  8 14  1  0
 37 28  1  6
  4  5  1  0
 33 30  1  1
 30 38  1  0
 34 31  1  6
 31 39  1  0
 35 32  1  6
 32 40  1  0
 41 42  1  0
 41 43  1  0
 15 19  2  0
 16 22  2  0
 12 17  1  1
 17 19  1  0
 17 20  1  0
 18 19  1  0
 18 22  1  0
 18 23  1  0
  9 10  1  0
  9 11  1  0
 10 12  1  0
 11  5  1  1
 33 34  1  0
 33 35  1  0
 34 36  1  0
 35 37  1  0
 36 42  1  1
 20 21  2  0
 21 22  1  0
M  CHG  2   2  -1  26  -1
M  END
>  <COMPND>  (6) 
    8629 

>  <AUTHOR>  (6) 
    GENERATED BY OPEN BABEL 3.1.1

>  <MASTER>  (6) 
        0    0    0    0    0    0    0    0   58    0   58    0

>  <minimizedAffinity>  (6) 
-7.92971

>  <CNNscore>  (6) 
0.8078731894

>  <CNNaffinity>  (6) 
4.5496721268

>  <CNN_VS>  (6) 
3.6755580902

>  <CNNaffinity_variance>  (6) 
0.1853136122

$$$$
7
     RDKit          3D

 43 45  0  0  0  0  0  0  0  0999 V2000
   23.4314   72.7203   -3.7786 P   0  0  2  0  0  0  0  0  0  0  0  0
   23.9731   71.2594   -3.3430 O   0  0  0  0  0  0  0  0  0  0  0  0
   24.4535   73.6085   -4.4250 O   0  0  0  0  0  0  0  0  0  0  0  0
   22.7492   73.2994   -2.4305 O   0  0  0  0  0  0  0  0  0  0  0  0
   22.7923   74.6964   -2.1974 C   0  0  0  0  0  0  0  0  0  0  0  0
   21.4574   73.9270   -0.3535 O   0  0  0  0  0  0  0  0  0  0  0  0
   20.8895   76.8189    0.1991 O   0  0  0  0  0  0  0  0  0  0  0  0
   22.8068   76.2263    2.0456 O   0  0  0  0  0  0  0  0  0  0  0  0
   22.0885   76.2099   -0.2772 C   0  0  1  0  0  0  0  0  0  0  0  0
   22.7886   75.4766    0.8479 C   0  0  2  0  0  0  0  0  0  0  0  0
   21.6975   75.0676   -1.2065 C   0  0  1  0  0  0  0  0  0  0  0  0
   21.9577   74.2100    0.9635 C   0  0  2  0  0  0  0  0  0  0  0  0
   21.1137   77.5517    0.7946 H   0  0  0  0  0  0  0  0  0  0  0  0
   23.3478   77.0216    1.9212 H   0  0  0  0  0  0  0  0  0  0  0  0
   20.8799   71.9743    2.3119 O   0  0  0  0  0  0  0  0  0  0  0  0
   25.0133   69.9672    2.6699 O   0  0  0  0  0  0  0  0  0  0  0  0
   22.7293   73.0886    1.4201 N   0  0  0  0  0  0  0  0  0  0  0  0
   22.9389   70.9767    2.4889 N   0  0  0  0  0  0  0  0  0  0  0  0
   22.0913   72.0173    2.0877 C   0  0  0  0  0  0  0  0  0  0  0  0
   24.1028   73.0585    1.2043 C   0  0  0  0  0  0  0  0  0  0  0  0
   24.8970   72.0594    1.5942 C   0  0  0  0  0  0  0  0  0  0  0  0
   24.3096   70.9015    2.2986 C   0  0  0  0  0  0  0  0  0  0  0  0
   22.5166   70.2197    2.9563 H   0  0  0  0  0  0  0  0  0  0  0  0
   22.1570   72.3725   -4.7102 O   0  0  0  0  0  0  0  0  0  0  0  0
   20.6636   72.9905   -4.7399 P   0  0  2  0  0  0  0  0  0  0  0  0
   20.9213   74.5737   -4.9512 O   0  0  0  0  0  0  0  0  0  0  0  0
   19.8341   72.6536   -3.5347 O   0  0  0  0  0  0  0  0  0  0  0  0
   20.0414   72.4881   -6.1418 O   0  0  0  0  0  0  0  0  0  0  0  0
   19.2226   70.2698   -5.9821 O   0  0  0  0  0  0  0  0  0  0  0  0
   18.9265   70.7898  -10.0677 O   0  0  0  0  0  0  0  0  0  0  0  0
   16.5426   70.7528   -8.4667 O   0  0  0  0  0  0  0  0  0  0  0  0
   21.1874   71.8888   -8.6323 O   0  0  0  0  0  0  0  0  0  0  0  0
   18.8823   71.1932   -8.6964 C   0  0  1  0  0  0  0  0  0  0  0  0
   17.8217   70.3523   -7.9831 C   0  0  1  0  0  0  0  0  0  0  0  0
   20.2563   70.9726   -8.0666 C   0  0  2  0  0  0  0  0  0  0  0  0
   17.8995   70.5368   -6.4616 C   0  0  1  0  0  0  0  0  0  0  0  0
   20.2128   71.1321   -6.5458 C   0  0  1  0  0  0  0  0  0  0  0  0
   18.0572   70.9278  -10.4737 H   0  0  0  0  0  0  0  0  0  0  0  0
   16.5068   70.6318   -9.4286 H   0  0  0  0  0  0  0  0  0  0  0  0
   21.2058   71.7777   -9.5952 H   0  0  0  0  0  0  0  0  0  0  0  0
   16.0779   70.3621   -4.9254 O   0  0  0  0  0  0  0  0  0  0  0  0
   16.9573   69.5896   -5.7217 C   0  0  0  0  0  0  0  0  0  0  0  0
   15.4721   69.7725   -4.4488 H   0  0  0  0  0  0  0  0  0  0  0  0
 25 28  1  0
 25 24  1  0
 25 26  1  6
 25 27  2  0
  1  4  1  0
  1 24  1  0
  1  2  1  1
  1  3  2  0
  6 11  1  0
  6 12  1  0
 29 36  1  0
 29 37  1  0
  9  7  1  1
  7 13  1  0
 10  8  1  1
  8 14  1  0
 37 28  1  6
  4  5  1  0
 33 30  1  6
 30 38  1  0
 34 31  1  6
 31 39  1  0
 35 32  1  6
 32 40  1  0
 41 42  1  0
 41 43  1  0
 15 19  2  0
 16 22  2  0
 12 17  1  6
 17 19  1  0
 17 20  1  0
 18 19  1  0
 18 22  1  0
 18 23  1  0
  9 10  1  0
  9 11  1  0
 10 12  1  0
 11  5  1  6
 33 34  1  0
 33 35  1  0
 34 36  1  0
 35 37  1  0
 36 42  1  1
 20 21  2  0
 21 22  1  0
M  CHG  2   2  -1  26  -1
M  END
>  <COMPND>  (7) 
    8629 

>  <AUTHOR>  (7) 
    GENERATED BY OPEN BABEL 3.1.1

>  <MASTER>  (7) 
        0    0    0    0    0    0    0    0   58    0   58    0

>  <minimizedAffinity>  (7) 
-7.14690

>  <CNNscore>  (7) 
0.7654546499

>  <CNNaffinity>  (7) 
4.5244598389

>  <CNN_VS>  (7) 
3.4632687569

>  <CNNaffinity_variance>  (7) 
0.2024356127

$$$$
8
     RDKit          3D

 43 45  0  0  0  0  0  0  0  0999 V2000
   21.1236   74.0184   -4.7628 P   0  0  2  0  0  0  0  0  0  0  0  0
   20.4024   75.4285   -5.0927 O   0  0  0  0  0  0  0  0  0  0  0  0
   21.4121   73.1591   -5.9585 O   0  0  0  0  0  0  0  0  0  0  0  0
   20.1770   73.3533   -3.6316 O   0  0  0  0  0  0  0  0  0  0  0  0
   19.8840   71.9700   -3.7229 C   0  0  0  0  0  0  0  0  0  0  0  0
   17.8303   72.0160   -4.9695 O   0  0  0  0  0  0  0  0  0  0  0  0
   16.6525   70.4085   -2.7290 O   0  0  0  0  0  0  0  0  0  0  0  0
   17.1314   68.5145   -4.6317 O   0  0  0  0  0  0  0  0  0  0  0  0
   17.9663   70.3570   -3.2828 C   0  0  1  0  0  0  0  0  0  0  0  0
   17.9411   69.6726   -4.6335 C   0  0  2  0  0  0  0  0  0  0  0  0
   18.3753   71.7771   -3.6533 C   0  0  1  0  0  0  0  0  0  0  0  0
   17.3924   70.7682   -5.5317 C   0  0  2  0  0  0  0  0  0  0  0  0
   16.3697   69.5129   -2.4843 H   0  0  0  0  0  0  0  0  0  0  0  0
   17.5223   67.8474   -4.0461 H   0  0  0  0  0  0  0  0  0  0  0  0
   15.7618   70.2767   -7.7850 O   0  0  0  0  0  0  0  0  0  0  0  0
   19.3692   70.3998  -10.6508 O   0  0  0  0  0  0  0  0  0  0  0  0
   17.8791   70.6673   -6.8786 N   0  0  0  0  0  0  0  0  0  0  0  0
   17.5593   70.3386   -9.2102 N   0  0  0  0  0  0  0  0  0  0  0  0
   16.9769   70.4172   -7.9387 C   0  0  0  0  0  0  0  0  0  0  0  0
   19.2373   70.8161   -7.1376 C   0  0  0  0  0  0  0  0  0  0  0  0
   19.7770   70.7371   -8.3557 C   0  0  0  0  0  0  0  0  0  0  0  0
   18.9033   70.4782   -9.5183 C   0  0  0  0  0  0  0  0  0  0  0  0
   16.9501   70.1646   -9.9641 H   0  0  0  0  0  0  0  0  0  0  0  0
   22.4314   74.4662   -3.9249 O   0  0  0  0  0  0  0  0  0  0  0  0
   23.6734   73.6032   -3.3543 P   0  0  2  0  0  0  0  0  0  0  0  0
   24.6565   74.7307   -2.7380 O   0  0  0  0  0  0  0  0  0  0  0  0
   24.3191   72.7075   -4.3714 O   0  0  0  0  0  0  0  0  0  0  0  0
   23.0784   72.8333   -2.0666 O   0  0  0  0  0  0  0  0  0  0  0  0
   22.5054   74.5666   -0.5554 O   0  0  0  0  0  0  0  0  0  0  0  0
   21.2843   71.3146    1.6770 O   0  0  0  0  0  0  0  0  0  0  0  0
   19.3178   73.0305    0.4784 O   0  0  0  0  0  0  0  0  0  0  0  0
   23.7016   71.1527    0.0927 O   0  0  0  0  0  0  0  0  0  0  0  0
   21.5054   72.0634    0.4788 C   0  0  1  0  0  0  0  0  0  0  0  0
   20.7008   73.3615    0.5691 C   0  0  1  0  0  0  0  0  0  0  0  0
   22.9973   72.3636    0.3460 C   0  0  2  0  0  0  0  0  0  0  0  0
   21.0919   74.3348   -0.5511 C   0  0  1  0  0  0  0  0  0  0  0  0
   23.2723   73.3792   -0.7645 C   0  0  1  0  0  0  0  0  0  0  0  0
   20.3390   71.1202    1.7671 H   0  0  0  0  0  0  0  0  0  0  0  0
   19.0840   72.4151    1.1910 H   0  0  0  0  0  0  0  0  0  0  0  0
   23.5194   70.5183    0.8028 H   0  0  0  0  0  0  0  0  0  0  0  0
   20.7883   76.5145   -1.4815 O   0  0  0  0  0  0  0  0  0  0  0  0
   20.4172   75.6951   -0.3882 C   0  0  0  0  0  0  0  0  0  0  0  0
   20.3660   77.3835   -1.3914 H   0  0  0  0  0  0  0  0  0  0  0  0
 25 28  1  0
 25 24  1  0
 25 26  1  1
 25 27  2  0
  1  4  1  0
  1 24  1  0
  1  2  1  6
  1  3  2  0
  6 11  1  0
  6 12  1  0
 29 36  1  0
 29 37  1  0
  9  7  1  6
  7 13  1  0
 10  8  1  1
  8 14  1  0
 37 28  1  6
  4  5  1  0
 33 30  1  1
 30 38  1  0
 34 31  1  6
 31 39  1  0
 35 32  1  6
 32 40  1  0
 41 42  1  0
 41 43  1  0
 15 19  2  0
 16 22  2  0
 12 17  1  6
 17 19  1  0
 17 20  1  0
 18 19  1  0
 18 22  1  0
 18 23  1  0
  9 10  1  0
  9 11  1  0
 10 12  1  0
 11  5  1  6
 33 34  1  0
 33 35  1  0
 34 36  1  0
 35 37  1  0
 36 42  1  1
 20 21  2  0
 21 22  1  0
M  CHG  2   2  -1  26  -1
M  END
>  <COMPND>  (8) 
    8629 

>  <AUTHOR>  (8) 
    GENERATED BY OPEN BABEL 3.1.1

>  <MASTER>  (8) 
        0    0    0    0    0    0    0    0   58    0   58    0

>  <minimizedAffinity>  (8) 
-6.57571

>  <CNNscore>  (8) 
0.7493468523

>  <CNNaffinity>  (8) 
4.5010280609

>  <CNN_VS>  (8) 
3.3728311062

>  <CNNaffinity_variance>  (8) 
0.0764128640

$$$$
9
     RDKit          3D

 43 45  0  0  0  0  0  0  0  0999 V2000
   21.7397   72.6568   -5.4868 P   0  0  2  0  0  0  0  0  0  0  0  0
   21.0261   74.0316   -5.9539 O   0  0  0  0  0  0  0  0  0  0  0  0
   23.2352   72.6460   -5.6081 O   0  0  0  0  0  0  0  0  0  0  0  0
   20.9588   71.5111   -6.3207 O   0  0  0  0  0  0  0  0  0  0  0  0
   20.5931   71.7822   -7.6625 C   0  0  0  0  0  0  0  0  0  0  0  0
   19.1708   69.9477   -7.0415 O   0  0  0  0  0  0  0  0  0  0  0  0
   18.1293   70.0481   -9.8514 O   0  0  0  0  0  0  0  0  0  0  0  0
   16.1746   71.3298   -8.4469 O   0  0  0  0  0  0  0  0  0  0  0  0
   18.5328   71.1193   -9.0000 C   0  0  1  0  0  0  0  0  0  0  0  0
   17.4892   71.3619   -7.9296 C   0  0  2  0  0  0  0  0  0  0  0  0
   19.7251   70.6432   -8.1797 C   0  0  1  0  0  0  0  0  0  0  0  0
   17.7634   70.2258   -6.9590 C   0  0  2  0  0  0  0  0  0  0  0  0
   17.3691   70.3286  -10.3857 H   0  0  0  0  0  0  0  0  0  0  0  0
   16.0494   72.0720   -9.0587 H   0  0  0  0  0  0  0  0  0  0  0  0
   16.4197   68.5155   -5.1570 O   0  0  0  0  0  0  0  0  0  0  0  0
   16.5548   71.6577   -1.7881 O   0  0  0  0  0  0  0  0  0  0  0  0
   17.4350   70.5712   -5.6047 N   0  0  0  0  0  0  0  0  0  0  0  0
   16.4882   70.0814   -3.4809 N   0  0  0  0  0  0  0  0  0  0  0  0
   16.7579   69.6404   -4.7828 C   0  0  0  0  0  0  0  0  0  0  0  0
   17.7839   71.8209   -5.1041 C   0  0  0  0  0  0  0  0  0  0  0  0
   17.5183   72.2266   -3.8607 C   0  0  0  0  0  0  0  0  0  0  0  0
   16.8135   71.3141   -2.9374 C   0  0  0  0  0  0  0  0  0  0  0  0
   16.0169   69.4499   -2.8904 H   0  0  0  0  0  0  0  0  0  0  0  0
   21.1854   72.4525   -3.9821 O   0  0  0  0  0  0  0  0  0  0  0  0
   21.2225   71.1673   -3.0025 P   0  0  2  0  0  0  0  0  0  0  0  0
   22.7997   70.8200   -2.9056 O   0  0  0  0  0  0  0  0  0  0  0  0
   20.3631   70.0228   -3.4561 O   0  0  0  0  0  0  0  0  0  0  0  0
   20.8437   71.7522   -1.5467 O   0  0  0  0  0  0  0  0  0  0  0  0
   22.1879   73.4953   -0.6687 O   0  0  0  0  0  0  0  0  0  0  0  0
   20.4001   72.2163    2.8268 O   0  0  0  0  0  0  0  0  0  0  0  0
   19.6124   74.7222    1.6658 O   0  0  0  0  0  0  0  0  0  0  0  0
   21.1933   70.2862    0.8206 O   0  0  0  0  0  0  0  0  0  0  0  0
   20.4686   72.5017    1.4271 C   0  0  1  0  0  0  0  0  0  0  0  0
   20.7656   73.9927    1.2556 C   0  0  1  0  0  0  0  0  0  0  0  0
   21.5758   71.6573    0.7991 C   0  0  2  0  0  0  0  0  0  0  0  0
   21.1169   74.3236   -0.2011 C   0  0  1  0  0  0  0  0  0  0  0  0
   21.8806   72.1003   -0.6330 C   0  0  1  0  0  0  0  0  0  0  0  0
   19.6987   72.7490    3.2316 H   0  0  0  0  0  0  0  0  0  0  0  0
   19.4010   74.5039    2.5871 H   0  0  0  0  0  0  0  0  0  0  0  0
   21.0033   70.0179    1.7326 H   0  0  0  0  0  0  0  0  0  0  0  0
   20.4501   76.6179   -0.1722 O   0  0  0  0  0  0  0  0  0  0  0  0
   21.5695   75.7729   -0.3653 C   0  0  0  0  0  0  0  0  0  0  0  0
   20.7233   77.5435   -0.2734 H   0  0  0  0  0  0  0  0  0  0  0  0
 25 28  1  0
 25 24  1  0
 25 26  1  1
 25 27  2  0
  1  4  1  0
  1 24  1  0
  1  2  1  6
  1  3  2  0
  6 11  1  0
  6 12  1  0
 29 36  1  0
 29 37  1  0
  9  7  1  6
  7 13  1  0
 10  8  1  6
  8 14  1  0
 37 28  1  6
  4  5  1  0
 33 30  1  1
 30 38  1  0
 34 31  1  6
 31 39  1  0
 35 32  1  6
 32 40  1  0
 41 42  1  0
 41 43  1  0
 15 19  2  0
 16 22  2  0
 12 17  1  1
 17 19  1  0
 17 20  1  0
 18 19  1  0
 18 22  1  0
 18 23  1  0
  9 10  1  0
  9 11  1  0
 10 12  1  0
 11  5  1  1
 33 34  1  0
 33 35  1  0
 34 36  1  0
 35 37  1  0
 36 42  1  1
 20 21  2  0
 21 22  1  0
M  CHG  2   2  -1  26  -1
M  END
>  <COMPND>  (9) 
    8629 

>  <AUTHOR>  (9) 
    GENERATED BY OPEN BABEL 3.1.1

>  <MASTER>  (9) 
        0    0    0    0    0    0    0    0   58    0   58    0

>  <minimizedAffinity>  (9) 
-6.99123

>  <CNNscore>  (9) 
0.7342004776

>  <CNNaffinity>  (9) 
4.5351524353

>  <CNN_VS>  (9) 
3.3297111988

>  <CNNaffinity_variance>  (9) 
0.1250361502

$$$$
10
     RDKit          3D

 43 45  0  0  0  0  0  0  0  0999 V2000
   21.2567   71.9515   -4.9960 P   0  0  2  0  0  0  0  0  0  0  0  0
   20.3498   73.2884   -5.0835 O   0  0  0  0  0  0  0  0  0  0  0  0
   22.6807   72.1777   -4.5810 O   0  0  0  0  0  0  0  0  0  0  0  0
   21.0484   71.2459   -6.4371 O   0  0  0  0  0  0  0  0  0  0  0  0
   20.1199   71.8176   -7.3419 C   0  0  0  0  0  0  0  0  0  0  0  0
   18.6506   69.9530   -6.9699 O   0  0  0  0  0  0  0  0  0  0  0  0
   17.9279   70.1838   -9.8708 O   0  0  0  0  0  0  0  0  0  0  0  0
   15.8196   71.3939   -8.6349 O   0  0  0  0  0  0  0  0  0  0  0  0
   18.2262   71.2145   -8.9305 C   0  0  1  0  0  0  0  0  0  0  0  0
   17.0682   71.4042   -7.9732 C   0  0  2  0  0  0  0  0  0  0  0  0
   19.3232   70.7025   -8.0053 C   0  0  1  0  0  0  0  0  0  0  0  0
   17.2408   70.2241   -7.0321 C   0  0  2  0  0  0  0  0  0  0  0  0
   17.2300   70.4878  -10.4728 H   0  0  0  0  0  0  0  0  0  0  0  0
   15.7581   72.1639   -9.2215 H   0  0  0  0  0  0  0  0  0  0  0  0
   16.5726   68.2502   -5.1255 O   0  0  0  0  0  0  0  0  0  0  0  0
   15.4088   71.4164   -1.9852 O   0  0  0  0  0  0  0  0  0  0  0  0
   16.7610   70.5045   -5.7083 N   0  0  0  0  0  0  0  0  0  0  0  0
   15.9938   69.8283   -3.5634 N   0  0  0  0  0  0  0  0  0  0  0  0
   16.4531   69.4406   -4.8286 C   0  0  0  0  0  0  0  0  0  0  0  0
   16.6005   71.8223   -5.2940 C   0  0  0  0  0  0  0  0  0  0  0  0
   16.1602   72.1752   -4.0845 C   0  0  0  0  0  0  0  0  0  0  0  0
   15.8163   71.1242   -3.1052 C   0  0  0  0  0  0  0  0  0  0  0  0
   15.7727   69.1041   -2.9338 H   0  0  0  0  0  0  0  0  0  0  0  0
   20.4086   71.0015   -4.0004 O   0  0  0  0  0  0  0  0  0  0  0  0
   19.8234   71.2713   -2.5179 P   0  0  2  0  0  0  0  0  0  0  0  0
   18.9413   69.9480   -2.2207 O   0  0  0  0  0  0  0  0  0  0  0  0
   19.0694   72.5621   -2.3796 O   0  0  0  0  0  0  0  0  0  0  0  0
   21.1025   71.1361   -1.5429 O   0  0  0  0  0  0  0  0  0  0  0  0
   21.3613   72.9996   -0.1018 O   0  0  0  0  0  0  0  0  0  0  0  0
   24.9993   71.1559    0.5439 O   0  0  0  0  0  0  0  0  0  0  0  0
   22.9878   71.0799    2.5923 O   0  0  0  0  0  0  0  0  0  0  0  0
   23.8498   71.1914   -2.1126 O   0  0  0  0  0  0  0  0  0  0  0  0
   23.5943   71.2101    0.2824 C   0  0  1  0  0  0  0  0  0  0  0  0
   22.9164   71.9291    1.4504 C   0  0  1  0  0  0  0  0  0  0  0  0
   23.3585   71.9660   -1.0240 C   0  0  2  0  0  0  0  0  0  0  0  0
   21.4546   72.2622    1.1227 C   0  0  1  0  0  0  0  0  0  0  0  0
   21.8777   72.2902   -1.2296 C   0  0  1  0  0  0  0  0  0  0  0  0
   25.1559   70.6768    1.3718 H   0  0  0  0  0  0  0  0  0  0  0  0
   23.9160   70.8768    2.7883 H   0  0  0  0  0  0  0  0  0  0  0  0
   24.7881   70.9930   -1.9707 H   0  0  0  0  0  0  0  0  0  0  0  0
   20.2556   72.2566    3.1894 O   0  0  0  0  0  0  0  0  0  0  0  0
   20.8055   73.1171    2.2089 C   0  0  0  0  0  0  0  0  0  0  0  0
   19.8392   72.7870    3.8873 H   0  0  0  0  0  0  0  0  0  0  0  0
 25 28  1  0
 25 24  1  0
 25 26  1  1
 25 27  2  0
  1  4  1  0
  1 24  1  0
  1  2  1  6
  1  3  2  0
  6 11  1  0
  6 12  1  0
 29 36  1  0
 29 37  1  0
  9  7  1  6
  7 13  1  0
 10  8  1  6
  8 14  1  0
 37 28  1  1
  4  5  1  0
 33 30  1  1
 30 38  1  0
 34 31  1  1
 31 39  1  0
 35 32  1  6
 32 40  1  0
 41 42  1  0
 41 43  1  0
 15 19  2  0
 16 22  2  0
 12 17  1  1
 17 19  1  0
 17 20  1  0
 18 19  1  0
 18 22  1  0
 18 23  1  0
  9 10  1  0
  9 11  1  0
 10 12  1  0
 11  5  1  1
 33 34  1  0
 33 35  1  0
 34 36  1  0
 35 37  1  0
 36 42  1  1
 20 21  2  0
 21 22  1  0
M  CHG  2   2  -1  26  -1
M  END
>  <COMPND>  (10) 
    8629 

>  <AUTHOR>  (10) 
    GENERATED BY OPEN BABEL 3.1.1

>  <MASTER>  (10) 
        0    0    0    0    0    0    0    0   58    0   58    0

>  <minimizedAffinity>  (10) 
-7.07987

>  <CNNscore>  (10) 
0.7273972631

>  <CNNaffinity>  (10) 
4.4586892128

>  <CNN_VS>  (10) 
3.2432384491

>  <CNNaffinity_variance>  (10) 
0.3748348355

$$$$
11
     RDKit          3D

 43 45  0  0  0  0  0  0  0  0999 V2000
   23.3511   73.6652   -3.9862 P   0  0  2  0  0  0  0  0  0  0  0  0
   23.1066   75.2642   -3.9574 O   0  0  0  0  0  0  0  0  0  0  0  0
   24.7699   73.2454   -4.2362 O   0  0  0  0  0  0  0  0  0  0  0  0
   22.2603   73.1245   -5.0519 O   0  0  0  0  0  0  0  0  0  0  0  0
   21.8992   71.7549   -5.0140 C   0  0  0  0  0  0  0  0  0  0  0  0
   20.5192   70.2438   -6.2734 O   0  0  0  0  0  0  0  0  0  0  0  0
   20.9158   72.1076   -8.5885 O   0  0  0  0  0  0  0  0  0  0  0  0
   18.4263   72.7816   -7.7025 O   0  0  0  0  0  0  0  0  0  0  0  0
   20.7761   72.4092   -7.2011 C   0  0  1  0  0  0  0  0  0  0  0  0
   19.3352   72.2364   -6.7679 C   0  0  2  0  0  0  0  0  0  0  0  0
   21.4798   71.3139   -6.4096 C   0  0  1  0  0  0  0  0  0  0  0  0
   19.2198   70.7259   -6.6529 C   0  0  2  0  0  0  0  0  0  0  0  0
   20.4744   72.7936   -9.1144 H   0  0  0  0  0  0  0  0  0  0  0  0
   18.5388   73.7443   -7.7392 H   0  0  0  0  0  0  0  0  0  0  0  0
   16.4682   70.3301   -7.1526 O   0  0  0  0  0  0  0  0  0  0  0  0
   15.6490   69.1841   -2.7643 O   0  0  0  0  0  0  0  0  0  0  0  0
   18.2647   70.3236   -5.6593 N   0  0  0  0  0  0  0  0  0  0  0  0
   16.0626   69.7596   -4.9672 N   0  0  0  0  0  0  0  0  0  0  0  0
   16.9060   70.1537   -6.0138 C   0  0  0  0  0  0  0  0  0  0  0  0
   18.6782   70.1016   -4.3503 C   0  0  0  0  0  0  0  0  0  0  0  0
   17.8611   69.7274   -3.3636 C   0  0  0  0  0  0  0  0  0  0  0  0
   16.4258   69.5278   -3.6499 C   0  0  0  0  0  0  0  0  0  0  0  0
   15.1115   69.6354   -5.1905 H   0  0  0  0  0  0  0  0  0  0  0  0
   22.7457   73.1793   -2.5683 O   0  0  0  0  0  0  0  0  0  0  0  0
   22.8592   71.7646   -1.7944 P   0  0  2  0  0  0  0  0  0  0  0  0
   24.1770   71.0896   -2.4466 O   0  0  0  0  0  0  0  0  0  0  0  0
   21.6232   70.9166   -1.8780 O   0  0  0  0  0  0  0  0  0  0  0  0
   23.3021   72.1552   -0.2923 O   0  0  0  0  0  0  0  0  0  0  0  0
   24.7288   71.1372    1.3029 O   0  0  0  0  0  0  0  0  0  0  0  0
   21.6437   72.2682    3.8036 O   0  0  0  0  0  0  0  0  0  0  0  0
   24.1422   73.6807    3.9059 O   0  0  0  0  0  0  0  0  0  0  0  0
   21.0597   71.2760    1.1477 O   0  0  0  0  0  0  0  0  0  0  0  0
   22.5319   72.3963    2.6901 C   0  0  1  0  0  0  0  0  0  0  0  0
   23.9654   72.4427    3.2229 C   0  0  1  0  0  0  0  0  0  0  0  0
   22.3425   71.1993    1.7602 C   0  0  2  0  0  0  0  0  0  0  0  0
   24.9845   72.3109    2.0832 C   0  0  1  0  0  0  0  0  0  0  0  0
   23.4366   71.1343    0.6931 C   0  0  1  0  0  0  0  0  0  0  0  0
   21.7586   73.0254    4.3977 H   0  0  0  0  0  0  0  0  0  0  0  0
   23.4923   73.7516    4.6227 H   0  0  0  0  0  0  0  0  0  0  0  0
   20.3759   71.3162    1.8337 H   0  0  0  0  0  0  0  0  0  0  0  0
   26.8671   73.4891    2.9645 O   0  0  0  0  0  0  0  0  0  0  0  0
   26.4150   72.1964    2.6055 C   0  0  0  0  0  0  0  0  0  0  0  0
   27.7762   73.4316    3.2990 H   0  0  0  0  0  0  0  0  0  0  0  0
 25 28  1  0
 25 24  1  0
 25 26  1  6
 25 27  2  0
  1  4  1  0
  1 24  1  0
  1  2  1  1
  1  3  2  0
  6 11  1  0
  6 12  1  0
 29 36  1  0
 29 37  1  0
  9  7  1  6
  7 13  1  0
 10  8  1  6
  8 14  1  0
 37 28  1  6
  4  5  1  0
 33 30  1  1
 30 38  1  0
 34 31  1  6
 31 39  1  0
 35 32  1  6
 32 40  1  0
 41 42  1  0
 41 43  1  0
 15 19  2  0
 16 22  2  0
 12 17  1  1
 17 19  1  0
 17 20  1  0
 18 19  1  0
 18 22  1  0
 18 23  1  0
  9 10  1  0
  9 11  1  0
 10 12  1  0
 11  5  1  1
 33 34  1  0
 33 35  1  0
 34 36  1  0
 35 37  1  0
 36 42  1  1
 20 21  2  0
 21 22  1  0
M  CHG  2   2  -1  26  -1
M  END
>  <COMPND>  (11) 
    8629 

>  <AUTHOR>  (11) 
    GENERATED BY OPEN BABEL 3.1.1

>  <MASTER>  (11) 
        0    0    0    0    0    0    0    0   58    0   58    0

>  <minimizedAffinity>  (11) 
-7.19807

>  <CNNscore>  (11) 
0.7195194960

>  <CNNaffinity>  (11) 
4.4351992607

>  <CNN_VS>  (11) 
3.1912124157

>  <CNNaffinity_variance>  (11) 
0.0493346862

$$$$
12
     RDKit          3D

 43 45  0  0  0  0  0  0  0  0999 V2000
   23.1767   73.4905   -4.0404 P   0  0  2  0  0  0  0  0  0  0  0  0
   23.1170   74.0145   -5.5699 O   0  0  0  0  0  0  0  0  0  0  0  0
   24.2312   72.4594   -3.7645 O   0  0  0  0  0  0  0  0  0  0  0  0
   21.6549   73.0413   -3.7240 O   0  0  0  0  0  0  0  0  0  0  0  0
   20.6329   73.4349   -4.6232 C   0  0  0  0  0  0  0  0  0  0  0  0
   18.4290   72.7095   -5.2479 O   0  0  0  0  0  0  0  0  0  0  0  0
   18.2819   71.4386   -2.5361 O   0  0  0  0  0  0  0  0  0  0  0  0
   18.8482   69.3191   -4.1560 O   0  0  0  0  0  0  0  0  0  0  0  0
   19.4001   71.5673   -3.4127 C   0  0  1  0  0  0  0  0  0  0  0  0
   19.2735   70.6009   -4.5718 C   0  0  2  0  0  0  0  0  0  0  0  0
   19.2957   72.9173   -4.1113 C   0  0  1  0  0  0  0  0  0  0  0  0
   18.2516   71.2985   -5.4535 C   0  0  2  0  0  0  0  0  0  0  0  0
   18.3269   70.5840   -2.0783 H   0  0  0  0  0  0  0  0  0  0  0  0
   19.5319   68.9166   -3.5980 H   0  0  0  0  0  0  0  0  0  0  0  0
   16.2905   70.1213   -7.1106 O   0  0  0  0  0  0  0  0  0  0  0  0
   19.0761   70.2102  -10.7813 O   0  0  0  0  0  0  0  0  0  0  0  0
   18.4374   71.0032   -6.8462 N   0  0  0  0  0  0  0  0  0  0  0  0
   17.6790   70.1667   -8.9370 N   0  0  0  0  0  0  0  0  0  0  0  0
   17.3894   70.4106   -7.5885 C   0  0  0  0  0  0  0  0  0  0  0  0
   19.6481   71.3011   -7.4623 C   0  0  0  0  0  0  0  0  0  0  0  0
   19.9088   71.0610   -8.7490 C   0  0  0  0  0  0  0  0  0  0  0  0
   18.8670   70.4436   -9.5948 C   0  0  0  0  0  0  0  0  0  0  0  0
   16.9639   69.7540   -9.4737 H   0  0  0  0  0  0  0  0  0  0  0  0
   23.3353   74.8583   -3.1936 O   0  0  0  0  0  0  0  0  0  0  0  0
   23.5695   75.1075   -1.6137 P   0  0  2  0  0  0  0  0  0  0  0  0
   22.6595   76.4090   -1.3045 O   0  0  0  0  0  0  0  0  0  0  0  0
   25.0112   75.2524   -1.2207 O   0  0  0  0  0  0  0  0  0  0  0  0
   22.7979   73.8891   -0.8891 O   0  0  0  0  0  0  0  0  0  0  0  0
   23.7874   73.3364    1.1922 O   0  0  0  0  0  0  0  0  0  0  0  0
   21.1919   70.1456    0.8276 O   0  0  0  0  0  0  0  0  0  0  0  0
   20.6363   72.2139    2.7412 O   0  0  0  0  0  0  0  0  0  0  0  0
   22.5683   71.1615   -1.5076 O   0  0  0  0  0  0  0  0  0  0  0  0
   21.6170   71.5030    0.6787 C   0  0  1  0  0  0  0  0  0  0  0  0
   21.8863   72.0767    2.0712 C   0  0  1  0  0  0  0  0  0  0  0  0
   22.8853   71.5384   -0.1719 C   0  0  2  0  0  0  0  0  0  0  0  0
   22.5972   73.4339    1.9832 C   0  0  1  0  0  0  0  0  0  0  0  0
   23.5401   72.9208   -0.1524 C   0  0  1  0  0  0  0  0  0  0  0  0
   20.3867   70.1161    1.3664 H   0  0  0  0  0  0  0  0  0  0  0  0
   20.1975   71.3500    2.7896 H   0  0  0  0  0  0  0  0  0  0  0  0
   22.1547   70.2847   -1.5065 H   0  0  0  0  0  0  0  0  0  0  0  0
   22.3854   75.1979    3.5808 O   0  0  0  0  0  0  0  0  0  0  0  0
   23.0163   73.9502    3.3579 C   0  0  0  0  0  0  0  0  0  0  0  0
   22.6427   75.5385    4.4523 H   0  0  0  0  0  0  0  0  0  0  0  0
 25 28  1  0
 25 24  1  0
 25 26  1  1
 25 27  2  0
  1  4  1  0
  1 24  1  0
  1  2  1  6
  1  3  2  0
  6 11  1  0
  6 12  1  0
 29 36  1  0
 29 37  1  0
  9  7  1  1
  7 13  1  0
 10  8  1  1
  8 14  1  0
 37 28  1  1
  4  5  1  0
 33 30  1  1
 30 38  1  0
 34 31  1  6
 31 39  1  0
 35 32  1  6
 32 40  1  0
 41 42  1  0
 41 43  1  0
 15 19  2  0
 16 22  2  0
 12 17  1  6
 17 19  1  0
 17 20  1  0
 18 19  1  0
 18 22  1  0
 18 23  1  0
  9 10  1  0
  9 11  1  0
 10 12  1  0
 11  5  1  6
 33 34  1  0
 33 35  1  0
 34 36  1  0
 35 37  1  0
 36 42  1  1
 20 21  2  0
 21 22  1  0
M  CHG  2   2  -1  26  -1
M  END
>  <COMPND>  (12) 
    8629 

>  <AUTHOR>  (12) 
    GENERATED BY OPEN BABEL 3.1.1

>  <MASTER>  (12) 
        0    0    0    0    0    0    0    0   58    0   58    0

>  <minimizedAffinity>  (12) 
-6.91111

>  <CNNscore>  (12) 
0.6921041012

>  <CNNaffinity>  (12) 
4.3982281685

>  <CNN_VS>  (12) 
3.0440318584

>  <CNNaffinity_variance>  (12) 
0.1039656997

$$$$
13
     RDKit          3D

 43 45  0  0  0  0  0  0  0  0999 V2000
   20.9327   74.4571   -4.7115 P   0  0  2  0  0  0  0  0  0  0  0  0
   20.3417   75.9599   -4.6134 O   0  0  0  0  0  0  0  0  0  0  0  0
   20.9249   73.8616   -6.0887 O   0  0  0  0  0  0  0  0  0  0  0  0
   20.1039   73.6396   -3.5878 O   0  0  0  0  0  0  0  0  0  0  0  0
   19.8368   72.2660   -3.8106 C   0  0  0  0  0  0  0  0  0  0  0  0
   17.7838   72.2121   -5.0580 O   0  0  0  0  0  0  0  0  0  0  0  0
   16.6483   70.6522   -2.7627 O   0  0  0  0  0  0  0  0  0  0  0  0
   17.1807   68.7067   -4.5979 O   0  0  0  0  0  0  0  0  0  0  0  0
   17.9636   70.6174   -3.3143 C   0  0  1  0  0  0  0  0  0  0  0  0
   17.9584   69.8858   -4.6403 C   0  0  2  0  0  0  0  0  0  0  0  0
   18.3339   72.0344   -3.7343 C   0  0  1  0  0  0  0  0  0  0  0  0
   17.3807   70.9339   -5.5762 C   0  0  2  0  0  0  0  0  0  0  0  0
   16.3898   69.7584   -2.4868 H   0  0  0  0  0  0  0  0  0  0  0  0
   17.5891   68.0715   -3.9894 H   0  0  0  0  0  0  0  0  0  0  0  0
   15.7712   70.2908   -7.8064 O   0  0  0  0  0  0  0  0  0  0  0  0
   19.3716   70.4425  -10.6796 O   0  0  0  0  0  0  0  0  0  0  0  0
   17.8713   70.7993   -6.9188 N   0  0  0  0  0  0  0  0  0  0  0  0
   17.5652   70.3670   -9.2352 N   0  0  0  0  0  0  0  0  0  0  0  0
   16.9798   70.4726   -7.9671 C   0  0  0  0  0  0  0  0  0  0  0  0
   19.2227   70.9909   -7.1853 C   0  0  0  0  0  0  0  0  0  0  0  0
   19.7654   70.8853   -8.4000 C   0  0  0  0  0  0  0  0  0  0  0  0
   18.9027   70.5469   -9.5504 C   0  0  0  0  0  0  0  0  0  0  0  0
   16.9634   70.1399   -9.9809 H   0  0  0  0  0  0  0  0  0  0  0  0
   22.4001   74.5996   -4.0486 O   0  0  0  0  0  0  0  0  0  0  0  0
   23.6204   73.5457   -3.9347 P   0  0  2  0  0  0  0  0  0  0  0  0
   24.9333   74.4850   -4.0432 O   0  0  0  0  0  0  0  0  0  0  0  0
   23.5694   72.4340   -4.9423 O   0  0  0  0  0  0  0  0  0  0  0  0
   23.5954   73.0563   -2.3969 O   0  0  0  0  0  0  0  0  0  0  0  0
   21.8196   73.0431   -0.8275 O   0  0  0  0  0  0  0  0  0  0  0  0
   24.9376   73.9806    1.7121 O   0  0  0  0  0  0  0  0  0  0  0  0
   23.7609   71.3629    1.8177 O   0  0  0  0  0  0  0  0  0  0  0  0
   24.8590   75.1049   -0.9542 O   0  0  0  0  0  0  0  0  0  0  0  0
   24.3145   73.3422    0.5943 C   0  0  1  0  0  0  0  0  0  0  0  0
   23.1798   72.4594    1.1174 C   0  0  1  0  0  0  0  0  0  0  0  0
   23.7715   74.4112   -0.3522 C   0  0  2  0  0  0  0  0  0  0  0  0
   22.2977   71.9524   -0.0315 C   0  0  1  0  0  0  0  0  0  0  0  0
   22.8676   73.8066   -1.4280 C   0  0  1  0  0  0  0  0  0  0  0  0
   25.2850   73.3074    2.3168 H   0  0  0  0  0  0  0  0  0  0  0  0
   24.3158   71.6967    2.5402 H   0  0  0  0  0  0  0  0  0  0  0  0
   25.4235   75.4833   -0.2628 H   0  0  0  0  0  0  0  0  0  0  0  0
   20.3937   70.6392   -0.6310 O   0  0  0  0  0  0  0  0  0  0  0  0
   21.0701   71.2008    0.4787 C   0  0  0  0  0  0  0  0  0  0  0  0
   19.6103   70.1575   -0.3213 H   0  0  0  0  0  0  0  0  0  0  0  0
 25 28  1  0
 25 24  1  0
 25 26  1  1
 25 27  2  0
  1  4  1  0
  1 24  1  0
  1  2  1  6
  1  3  2  0
  6 11  1  0
  6 12  1  0
 29 36  1  0
 29 37  1  0
  9  7  1  6
  7 13  1  0
 10  8  1  1
  8 14  1  0
 37 28  1  6
  4  5  1  0
 33 30  1  1
 30 38  1  0
 34 31  1  6
 31 39  1  0
 35 32  1  6
 32 40  1  0
 41 42  1  0
 41 43  1  0
 15 19  2  0
 16 22  2  0
 12 17  1  6
 17 19  1  0
 17 20  1  0
 18 19  1  0
 18 22  1  0
 18 23  1  0
  9 10  1  0
  9 11  1  0
 10 12  1  0
 11  5  1  6
 33 34  1  0
 33 35  1  0
 34 36  1  0
 35 37  1  0
 36 42  1  1
 20 21  2  0
 21 22  1  0
M  CHG  2   2  -1  26  -1
M  END
>  <COMPND>  (13) 
    8629 

>  <AUTHOR>  (13) 
    GENERATED BY OPEN BABEL 3.1.1

>  <MASTER>  (13) 
        0    0    0    0    0    0    0    0   58    0   58    0

>  <minimizedAffinity>  (13) 
-6.98199

>  <CNNscore>  (13) 
0.6702859402

>  <CNNaffinity>  (13) 
4.3715143204

>  <CNN_VS>  (13) 
2.9301645756

>  <CNNaffinity_variance>  (13) 
0.0426853672

$$$$
14
     RDKit          3D

 43 45  0  0  0  0  0  0  0  0999 V2000
   22.8026   71.6378   -2.5889 P   0  0  2  0  0  0  0  0  0  0  0  0
   22.8188   73.2228   -2.2652 O   0  0  0  0  0  0  0  0  0  0  0  0
   24.1469   71.0355   -2.8745 O   0  0  0  0  0  0  0  0  0  0  0  0
   21.7032   71.4932   -3.7672 O   0  0  0  0  0  0  0  0  0  0  0  0
   21.7117   72.4417   -4.8199 C   0  0  0  0  0  0  0  0  0  0  0  0
   20.7412   70.5374   -5.9178 O   0  0  0  0  0  0  0  0  0  0  0  0
   21.1789   72.0281   -8.4823 O   0  0  0  0  0  0  0  0  0  0  0  0
   18.5228   72.4259   -8.0096 O   0  0  0  0  0  0  0  0  0  0  0  0
   20.8124   72.5301   -7.1982 C   0  0  1  0  0  0  0  0  0  0  0  0
   19.3653   72.1996   -6.8979 C   0  0  2  0  0  0  0  0  0  0  0  0
   21.5506   71.7117   -6.1463 C   0  0  1  0  0  0  0  0  0  0  0  0
   19.4499   70.7312   -6.5176 C   0  0  2  0  0  0  0  0  0  0  0  0
   20.7201   72.5356   -9.1707 H   0  0  0  0  0  0  0  0  0  0  0  0
   18.5021   73.3742   -8.2121 H   0  0  0  0  0  0  0  0  0  0  0  0
   16.8577   69.8617   -7.2267 O   0  0  0  0  0  0  0  0  0  0  0  0
   15.6423   69.2967   -2.8171 O   0  0  0  0  0  0  0  0  0  0  0  0
   18.4360   70.3502   -5.5752 N   0  0  0  0  0  0  0  0  0  0  0  0
   16.2547   69.5809   -5.0305 N   0  0  0  0  0  0  0  0  0  0  0  0
   17.1665   69.9292   -6.0352 C   0  0  0  0  0  0  0  0  0  0  0  0
   18.7051   70.3958   -4.2116 C   0  0  0  0  0  0  0  0  0  0  0  0
   17.8243   70.0616   -3.2662 C   0  0  0  0  0  0  0  0  0  0  0  0
   16.4745   69.6108   -3.6624 C   0  0  0  0  0  0  0  0  0  0  0  0
   15.3636   69.2850   -5.3273 H   0  0  0  0  0  0  0  0  0  0  0  0
   22.0442   71.0124   -1.3056 O   0  0  0  0  0  0  0  0  0  0  0  0
   22.2139   71.3060    0.2749 P   0  0  2  0  0  0  0  0  0  0  0  0
   23.7885   71.6476    0.4219 O   0  0  0  0  0  0  0  0  0  0  0  0
   21.7362   70.1932    1.1622 O   0  0  0  0  0  0  0  0  0  0  0  0
   21.4669   72.7172    0.5107 O   0  0  0  0  0  0  0  0  0  0  0  0
   22.0996   74.8678    1.2795 O   0  0  0  0  0  0  0  0  0  0  0  0
   18.6254   74.3840    3.4582 O   0  0  0  0  0  0  0  0  0  0  0  0
   18.6717   76.2234    1.2530 O   0  0  0  0  0  0  0  0  0  0  0  0
   20.3899   72.1287    3.0344 O   0  0  0  0  0  0  0  0  0  0  0  0
   19.4805   74.2417    2.3207 C   0  0  1  0  0  0  0  0  0  0  0  0
   19.8434   75.6396    1.8157 C   0  0  1  0  0  0  0  0  0  0  0  0
   20.7364   73.4761    2.7329 C   0  0  2  0  0  0  0  0  0  0  0  0
   20.9644   75.5769    0.7694 C   0  0  1  0  0  0  0  0  0  0  0  0
   21.8066   73.5166    1.6406 C   0  0  1  0  0  0  0  0  0  0  0  0
   17.8258   74.8689    3.2031 H   0  0  0  0  0  0  0  0  0  0  0  0
   17.9715   76.2566    1.9238 H   0  0  0  0  0  0  0  0  0  0  0  0
   19.7119   72.1166    3.7273 H   0  0  0  0  0  0  0  0  0  0  0  0
   22.5408   76.8229   -0.5234 O   0  0  0  0  0  0  0  0  0  0  0  0
   21.4507   76.9678    0.3682 C   0  0  0  0  0  0  0  0  0  0  0  0
   22.8605   77.7002   -0.7875 H   0  0  0  0  0  0  0  0  0  0  0  0
 25 28  1  0
 25 24  1  0
 25 26  1  6
 25 27  2  0
  1  4  1  0
  1 24  1  0
  1  2  1  1
  1  3  2  0
  6 11  1  0
  6 12  1  0
 29 36  1  0
 29 37  1  0
  9  7  1  6
  7 13  1  0
 10  8  1  6
  8 14  1  0
 37 28  1  6
  4  5  1  0
 33 30  1  1
 30 38  1  0
 34 31  1  6
 31 39  1  0
 35 32  1  6
 32 40  1  0
 41 42  1  0
 41 43  1  0
 15 19  2  0
 16 22  2  0
 12 17  1  1
 17 19  1  0
 17 20  1  0
 18 19  1  0
 18 22  1  0
 18 23  1  0
  9 10  1  0
  9 11  1  0
 10 12  1  0
 11  5  1  1
 33 34  1  0
 33 35  1  0
 34 36  1  0
 35 37  1  0
 36 42  1  1
 20 21  2  0
 21 22  1  0
M  CHG  2   2  -1  26  -1
M  END
>  <COMPND>  (14) 
    8629 

>  <AUTHOR>  (14) 
    GENERATED BY OPEN BABEL 3.1.1

>  <MASTER>  (14) 
        0    0    0    0    0    0    0    0   58    0   58    0

>  <minimizedAffinity>  (14) 
-6.76434

>  <CNNscore>  (14) 
0.6383692026

>  <CNNaffinity>  (14) 
4.2086615562

>  <CNN_VS>  (14) 
2.6866798401

>  <CNNaffinity_variance>  (14) 
0.1907627136

$$$$
15
     RDKit          3D

 43 45  0  0  0  0  0  0  0  0999 V2000
   23.4890   71.9906   -3.2165 P   0  0  2  0  0  0  0  0  0  0  0  0
   24.1949   73.1070   -4.1506 O   0  0  0  0  0  0  0  0  0  0  0  0
   24.3199   70.7699   -2.9499 O   0  0  0  0  0  0  0  0  0  0  0  0
   22.0638   71.7271   -3.9356 O   0  0  0  0  0  0  0  0  0  0  0  0
   21.6642   72.5944   -4.9825 C   0  0  0  0  0  0  0  0  0  0  0  0
   20.7583   70.5961   -5.9625 O   0  0  0  0  0  0  0  0  0  0  0  0
   21.1034   71.9619   -8.6094 O   0  0  0  0  0  0  0  0  0  0  0  0
   18.4394   72.2785   -8.1200 O   0  0  0  0  0  0  0  0  0  0  0  0
   20.7327   72.5178   -7.3489 C   0  0  1  0  0  0  0  0  0  0  0  0
   19.3040   72.1466   -7.0102 C   0  0  2  0  0  0  0  0  0  0  0  0
   21.5165   71.7877   -6.2654 C   0  0  1  0  0  0  0  0  0  0  0  0
   19.4529   70.7054   -6.5530 C   0  0  2  0  0  0  0  0  0  0  0  0
   20.6158   72.4126   -9.3173 H   0  0  0  0  0  0  0  0  0  0  0  0
   18.3776   73.2128   -8.3728 H   0  0  0  0  0  0  0  0  0  0  0  0
   16.8627   69.7673   -7.1767 O   0  0  0  0  0  0  0  0  0  0  0  0
   15.7544   69.3192   -2.7256 O   0  0  0  0  0  0  0  0  0  0  0  0
   18.4671   70.3360   -5.5767 N   0  0  0  0  0  0  0  0  0  0  0  0
   16.3130   69.5448   -4.9599 N   0  0  0  0  0  0  0  0  0  0  0  0
   17.1960   69.8778   -5.9950 C   0  0  0  0  0  0  0  0  0  0  0  0
   18.7649   70.4293   -4.2216 C   0  0  0  0  0  0  0  0  0  0  0  0
   17.9113   70.1090   -3.2469 C   0  0  0  0  0  0  0  0  0  0  0  0
   16.5619   69.6216   -3.5987 C   0  0  0  0  0  0  0  0  0  0  0  0
   15.4214   69.2235   -5.2275 H   0  0  0  0  0  0  0  0  0  0  0  0
   23.0802   72.8277   -1.8954 O   0  0  0  0  0  0  0  0  0  0  0  0
   21.7935   72.7154   -0.9236 P   0  0  2  0  0  0  0  0  0  0  0  0
   21.3828   71.1542   -1.0305 O   0  0  0  0  0  0  0  0  0  0  0  0
   20.6851   73.6715   -1.2571 O   0  0  0  0  0  0  0  0  0  0  0  0
   22.3916   72.8784    0.5666 O   0  0  0  0  0  0  0  0  0  0  0  0
   21.9754   73.8344    2.6949 O   0  0  0  0  0  0  0  0  0  0  0  0
   25.4359   75.8672    1.7238 O   0  0  0  0  0  0  0  0  0  0  0  0
   25.5119   73.8184    3.7349 O   0  0  0  0  0  0  0  0  0  0  0  0
   23.4633   75.3151   -0.3216 O   0  0  0  0  0  0  0  0  0  0  0  0
   24.5475   74.7468    1.7528 C   0  0  1  0  0  0  0  0  0  0  0  0
   24.3037   74.3658    3.2144 C   0  0  1  0  0  0  0  0  0  0  0  0
   23.2357   75.1323    1.0717 C   0  0  2  0  0  0  0  0  0  0  0  0
   23.1598   73.3504    3.3388 C   0  0  1  0  0  0  0  0  0  0  0  0
   22.1507   74.0778    1.2978 C   0  0  1  0  0  0  0  0  0  0  0  0
   26.2711   75.6289    2.1543 H   0  0  0  0  0  0  0  0  0  0  0  0
   26.2262   74.4693    3.6499 H   0  0  0  0  0  0  0  0  0  0  0  0
   24.1519   75.9851   -0.4514 H   0  0  0  0  0  0  0  0  0  0  0  0
   23.2743   74.1461    5.5888 O   0  0  0  0  0  0  0  0  0  0  0  0
   22.7949   73.0757    4.7960 C   0  0  0  0  0  0  0  0  0  0  0  0
   23.0490   73.9851    6.5188 H   0  0  0  0  0  0  0  0  0  0  0  0
 25 28  1  0
 25 24  1  0
 25 26  1  1
 25 27  2  0
  1  4  1  0
  1 24  1  0
  1  2  1  6
  1  3  2  0
  6 11  1  0
  6 12  1  0
 29 36  1  0
 29 37  1  0
  9  7  1  6
  7 13  1  0
 10  8  1  6
  8 14  1  0
 37 28  1  6
  4  5  1  0
 33 30  1  1
 30 38  1  0
 34 31  1  6
 31 39  1  0
 35 32  1  6
 32 40  1  0
 41 42  1  0
 41 43  1  0
 15 19  2  0
 16 22  2  0
 12 17  1  1
 17 19  1  0
 17 20  1  0
 18 19  1  0
 18 22  1  0
 18 23  1  0
  9 10  1  0
  9 11  1  0
 10 12  1  0
 11  5  1  1
 33 34  1  0
 33 35  1  0
 34 36  1  0
 35 37  1  0
 36 42  1  1
 20 21  2  0
 21 22  1  0
M  CHG  2   2  -1  26  -1
M  END
>  <COMPND>  (15) 
    8629 

>  <AUTHOR>  (15) 
    GENERATED BY OPEN BABEL 3.1.1

>  <MASTER>  (15) 
        0    0    0    0    0    0    0    0   58    0   58    0

>  <minimizedAffinity>  (15) 
-6.58785

>  <CNNscore>  (15) 
0.6173508763

>  <CNNaffinity>  (15) 
4.1964426041

>  <CNN_VS>  (15) 
2.5906774998

>  <CNNaffinity_variance>  (15) 
0.1036398858

$$$$
16
     RDKit          3D

 43 45  0  0  0  0  0  0  0  0999 V2000
   14.3200   70.7169   -1.8708 P   0  0  2  0  0  0  0  0  0  0  0  0
   15.2612   71.2011   -0.6472 O   0  0  0  0  0  0  0  0  0  0  0  0
   13.5820   71.8165   -2.5763 O   0  0  0  0  0  0  0  0  0  0  0  0
   13.3983   69.5589   -1.2171 O   0  0  0  0  0  0  0  0  0  0  0  0
   13.9996   68.6426   -0.3189 C   0  0  0  0  0  0  0  0  0  0  0  0
   11.8417   68.5726    0.7358 O   0  0  0  0  0  0  0  0  0  0  0  0
   13.3091   67.9295    3.2704 O   0  0  0  0  0  0  0  0  0  0  0  0
   12.3967   65.4857    2.4753 O   0  0  0  0  0  0  0  0  0  0  0  0
   13.5998   67.5276    1.9328 C   0  0  1  0  0  0  0  0  0  0  0  0
   12.6232   66.4625    1.4797 C   0  0  2  0  0  0  0  0  0  0  0  0
   13.2554   68.6889    1.0086 C   0  0  1  0  0  0  0  0  0  0  0  0
   11.3821   67.2831    1.1726 C   0  0  2  0  0  0  0  0  0  0  0  0
   13.5214   67.2041    3.8792 H   0  0  0  0  0  0  0  0  0  0  0  0
   13.2153   64.9905    2.6349 H   0  0  0  0  0  0  0  0  0  0  0  0
    8.5640   67.4330    1.0552 O   0  0  0  0  0  0  0  0  0  0  0  0
    8.4146   64.9974   -2.8546 O   0  0  0  0  0  0  0  0  0  0  0  0
   10.5812   66.6974    0.1349 N   0  0  0  0  0  0  0  0  0  0  0  0
    8.4919   66.2202   -0.8915 N   0  0  0  0  0  0  0  0  0  0  0  0
    9.1734   66.8296    0.1697 C   0  0  0  0  0  0  0  0  0  0  0  0
   11.1921   66.0016   -0.9027 C   0  0  0  0  0  0  0  0  0  0  0  0
   10.5278   65.4252   -1.9065 C   0  0  0  0  0  0  0  0  0  0  0  0
    9.0540   65.5167   -1.9450 C   0  0  0  0  0  0  0  0  0  0  0  0
    7.5103   66.2989   -0.8881 H   0  0  0  0  0  0  0  0  0  0  0  0
   15.3409   69.8835   -2.8069 O   0  0  0  0  0  0  0  0  0  0  0  0
   16.9441   69.9888   -2.9853 P   0  0  2  0  0  0  0  0  0  0  0  0
   17.4571   68.4996   -2.6160 O   0  0  0  0  0  0  0  0  0  0  0  0
   17.5826   71.0817   -2.1780 O   0  0  0  0  0  0  0  0  0  0  0  0
   17.1704   70.1146   -4.5784 O   0  0  0  0  0  0  0  0  0  0  0  0
   18.8057   71.2898   -5.8279 O   0  0  0  0  0  0  0  0  0  0  0  0
   15.5361   71.9100   -8.2724 O   0  0  0  0  0  0  0  0  0  0  0  0
   17.6039   70.0983   -9.1027 O   0  0  0  0  0  0  0  0  0  0  0  0
   15.2177   71.9570   -5.3956 O   0  0  0  0  0  0  0  0  0  0  0  0
   16.3644   71.1778   -7.3652 C   0  0  1  0  0  0  0  0  0  0  0  0
   17.7411   71.0010   -8.0088 C   0  0  1  0  0  0  0  0  0  0  0  0
   16.4791   71.9554   -6.0554 C   0  0  2  0  0  0  0  0  0  0  0  0
   18.7610   70.4626   -6.9964 C   0  0  1  0  0  0  0  0  0  0  0  0
   17.5549   71.3663   -5.1412 C   0  0  1  0  0  0  0  0  0  0  0  0
   15.4587   71.4215   -9.1060 H   0  0  0  0  0  0  0  0  0  0  0  0
   16.9569   70.4497   -9.7344 H   0  0  0  0  0  0  0  0  0  0  0  0
   14.5454   72.3325   -5.9845 H   0  0  0  0  0  0  0  0  0  0  0  0
   20.2233   69.4385   -8.5844 O   0  0  0  0  0  0  0  0  0  0  0  0
   20.1748   70.4275   -7.5724 C   0  0  0  0  0  0  0  0  0  0  0  0
   21.1173   69.4051   -8.9603 H   0  0  0  0  0  0  0  0  0  0  0  0
 25 28  1  0
 25 24  1  0
 25 26  1  1
 25 27  2  0
  1  4  1  0
  1 24  1  0
  1  2  1  1
  1  3  2  0
  6 11  1  0
  6 12  1  0
 29 36  1  0
 29 37  1  0
  9  7  1  1
  7 13  1  0
 10  8  1  1
  8 14  1  0
 37 28  1  6
  4  5  1  0
 33 30  1  6
 30 38  1  0
 34 31  1  6
 31 39  1  0
 35 32  1  1
 32 40  1  0
 41 42  1  0
 41 43  1  0
 15 19  2  0
 16 22  2  0
 12 17  1  6
 17 19  1  0
 17 20  1  0
 18 19  1  0
 18 22  1  0
 18 23  1  0
  9 10  1  0
  9 11  1  0
 10 12  1  0
 11  5  1  6
 33 34  1  0
 33 35  1  0
 34 36  1  0
 35 37  1  0
 36 42  1  6
 20 21  2  0
 21 22  1  0
M  CHG  2   2  -1  26  -1
M  END
>  <COMPND>  (16) 
    8629 

>  <AUTHOR>  (16) 
    GENERATED BY OPEN BABEL 3.1.1

>  <MASTER>  (16) 
        0    0    0    0    0    0    0    0   58    0   58    0

>  <minimizedAffinity>  (16) 
-6.99037

>  <CNNscore>  (16) 
0.6010934114

>  <CNNaffinity>  (16) 
4.2545456886

>  <CNN_VS>  (16) 
2.5573794842

>  <CNNaffinity_variance>  (16) 
0.2128208876

$$$$
17
     RDKit          3D

 43 45  0  0  0  0  0  0  0  0999 V2000
   21.7292   72.6264   -3.5266 P   0  0  2  0  0  0  0  0  0  0  0  0
   23.1462   72.0414   -4.0438 O   0  0  0  0  0  0  0  0  0  0  0  0
   21.4884   74.0737   -3.8409 O   0  0  0  0  0  0  0  0  0  0  0  0
   21.6961   72.2332   -1.9575 O   0  0  0  0  0  0  0  0  0  0  0  0
   22.8600   72.4546   -1.1803 C   0  0  0  0  0  0  0  0  0  0  0  0
   23.8010   71.9048    0.9612 O   0  0  0  0  0  0  0  0  0  0  0  0
   21.6151   69.8649    1.1887 O   0  0  0  0  0  0  0  0  0  0  0  0
   20.6820   71.9106    2.7317 O   0  0  0  0  0  0  0  0  0  0  0  0
   21.5795   71.1635    0.5992 C   0  0  1  0  0  0  0  0  0  0  0  0
   21.5645   72.2292    1.6751 C   0  0  2  0  0  0  0  0  0  0  0  0
   22.9237   71.4102   -0.0742 C   0  0  1  0  0  0  0  0  0  0  0  0
   23.0185   72.2533    2.1150 C   0  0  2  0  0  0  0  0  0  0  0  0
   20.7670   69.6845    1.6247 H   0  0  0  0  0  0  0  0  0  0  0  0
   19.7699   71.9080    2.4017 H   0  0  0  0  0  0  0  0  0  0  0  0
   22.7553   73.1432    4.7827 O   0  0  0  0  0  0  0  0  0  0  0  0
   24.6225   77.2391    3.7937 O   0  0  0  0  0  0  0  0  0  0  0  0
   23.4280   73.5476    2.5824 N   0  0  0  0  0  0  0  0  0  0  0  0
   23.6854   75.1818    4.2881 N   0  0  0  0  0  0  0  0  0  0  0  0
   23.2508   73.8961    3.9417 C   0  0  0  0  0  0  0  0  0  0  0  0
   23.9984   74.4556    1.6970 C   0  0  0  0  0  0  0  0  0  0  0  0
   24.4065   75.6783    2.0430 C   0  0  0  0  0  0  0  0  0  0  0  0
   24.2571   76.1209    3.4443 C   0  0  0  0  0  0  0  0  0  0  0  0
   23.5716   75.4467    5.2297 H   0  0  0  0  0  0  0  0  0  0  0  0
   20.6560   71.6087   -4.1790 O   0  0  0  0  0  0  0  0  0  0  0  0
   19.1827   71.1611   -3.6873 P   0  0  2  0  0  0  0  0  0  0  0  0
   18.5523   72.5335   -3.1070 O   0  0  0  0  0  0  0  0  0  0  0  0
   19.1796   70.0181   -2.7139 O   0  0  0  0  0  0  0  0  0  0  0  0
   18.3647   70.8811   -5.0502 O   0  0  0  0  0  0  0  0  0  0  0  0
   19.2156   72.0511   -6.9273 O   0  0  0  0  0  0  0  0  0  0  0  0
   15.6167   70.7905   -8.5114 O   0  0  0  0  0  0  0  0  0  0  0  0
   18.0600   69.5625   -9.3891 O   0  0  0  0  0  0  0  0  0  0  0  0
   15.7576   71.6481   -5.7502 O   0  0  0  0  0  0  0  0  0  0  0  0
   16.7914   70.6878   -7.7022 C   0  0  1  0  0  0  0  0  0  0  0  0
   18.0136   70.7609   -8.6197 C   0  0  1  0  0  0  0  0  0  0  0  0
   16.8057   71.8361   -6.6950 C   0  0  2  0  0  0  0  0  0  0  0  0
   19.3060   70.9256   -7.8087 C   0  0  1  0  0  0  0  0  0  0  0  0
   18.1530   71.9419   -5.9782 C   0  0  1  0  0  0  0  0  0  0  0  0
   15.6012   70.0640   -9.1528 H   0  0  0  0  0  0  0  0  0  0  0  0
   17.2379   69.4702   -9.8960 H   0  0  0  0  0  0  0  0  0  0  0  0
   14.9101   71.5830   -6.2164 H   0  0  0  0  0  0  0  0  0  0  0  0
   21.2555   72.2527   -8.1922 O   0  0  0  0  0  0  0  0  0  0  0  0
   20.5189   71.1586   -8.7068 C   0  0  0  0  0  0  0  0  0  0  0  0
   22.0308   72.4124   -8.7537 H   0  0  0  0  0  0  0  0  0  0  0  0
 25 28  1  0
 25 24  1  0
 25 26  1  1
 25 27  2  0
  1  4  1  0
  1 24  1  0
  1  2  1  6
  1  3  2  0
  6 11  1  0
  6 12  1  0
 29 36  1  0
 29 37  1  0
  9  7  1  1
  7 13  1  0
 10  8  1  1
  8 14  1  0
 37 28  1  6
  4  5  1  0
 33 30  1  6
 30 38  1  0
 34 31  1  1
 31 39  1  0
 35 32  1  1
 32 40  1  0
 41 42  1  0
 41 43  1  0
 15 19  2  0
 16 22  2  0
 12 17  1  6
 17 19  1  0
 17 20  1  0
 18 19  1  0
 18 22  1  0
 18 23  1  0
  9 10  1  0
  9 11  1  0
 10 12  1  0
 11  5  1  6
 33 34  1  0
 33 35  1  0
 34 36  1  0
 35 37  1  0
 36 42  1  6
 20 21  2  0
 21 22  1  0
M  CHG  2   2  -1  26  -1
M  END
>  <COMPND>  (17) 
    8629 

>  <AUTHOR>  (17) 
    GENERATED BY OPEN BABEL 3.1.1

>  <MASTER>  (17) 
        0    0    0    0    0    0    0    0   58    0   58    0

>  <minimizedAffinity>  (17) 
-6.64412

>  <CNNscore>  (17) 
0.5820938349

>  <CNNaffinity>  (17) 
4.2135343552

>  <CNN_VS>  (17) 
2.4526724815

>  <CNNaffinity_variance>  (17) 
0.2063709497

$$$$
18
     RDKit          3D

 43 45  0  0  0  0  0  0  0  0999 V2000
   23.8615   72.8572   -3.4309 P   0  0  2  0  0  0  0  0  0  0  0  0
   24.2304   71.2876   -3.2976 O   0  0  0  0  0  0  0  0  0  0  0  0
   24.8856   73.6907   -4.1436 O   0  0  0  0  0  0  0  0  0  0  0  0
   23.5219   73.3066   -1.9141 O   0  0  0  0  0  0  0  0  0  0  0  0
   22.2035   73.1152   -1.4314 C   0  0  0  0  0  0  0  0  0  0  0  0
   23.4056   71.5346   -0.0784 O   0  0  0  0  0  0  0  0  0  0  0  0
   20.7267   70.3944    0.6386 O   0  0  0  0  0  0  0  0  0  0  0  0
   21.3342   71.9055    2.8258 O   0  0  0  0  0  0  0  0  0  0  0  0
   21.0972   71.7531    0.4109 C   0  0  1  0  0  0  0  0  0  0  0  0
   21.8929   72.2849    1.5846 C   0  0  2  0  0  0  0  0  0  0  0  0
   22.1292   71.7766   -0.7098 C   0  0  1  0  0  0  0  0  0  0  0  0
   23.2596   71.6660    1.3451 C   0  0  2  0  0  0  0  0  0  0  0  0
   20.0679   70.3540    1.3502 H   0  0  0  0  0  0  0  0  0  0  0  0
   20.4658   72.3246    2.9313 H   0  0  0  0  0  0  0  0  0  0  0  0
   25.6484   70.6576    2.4651 O   0  0  0  0  0  0  0  0  0  0  0  0
   27.2841   74.8941    3.2507 O   0  0  0  0  0  0  0  0  0  0  0  0
   24.3269   72.4830    1.8498 N   0  0  0  0  0  0  0  0  0  0  0  0
   26.4610   72.7679    2.8552 N   0  0  0  0  0  0  0  0  0  0  0  0
   25.4838   71.8772    2.3930 C   0  0  0  0  0  0  0  0  0  0  0  0
   24.2204   73.8688    1.8031 C   0  0  0  0  0  0  0  0  0  0  0  0
   25.1608   74.7042    2.2492 C   0  0  0  0  0  0  0  0  0  0  0  0
   26.4010   74.1523    2.8317 C   0  0  0  0  0  0  0  0  0  0  0  0
   27.2756   72.3685    3.2381 H   0  0  0  0  0  0  0  0  0  0  0  0
   22.4072   72.8301   -4.1361 O   0  0  0  0  0  0  0  0  0  0  0  0
   21.9419   73.2500   -5.6261 P   0  0  2  0  0  0  0  0  0  0  0  0
   22.9528   72.4198   -6.5782 O   0  0  0  0  0  0  0  0  0  0  0  0
   21.9335   74.7307   -5.8738 O   0  0  0  0  0  0  0  0  0  0  0  0
   20.5110   72.5304   -5.8252 O   0  0  0  0  0  0  0  0  0  0  0  0
   19.5031   70.3951   -5.6218 O   0  0  0  0  0  0  0  0  0  0  0  0
   18.4846   71.2354   -9.5342 O   0  0  0  0  0  0  0  0  0  0  0  0
   16.4634   71.3113   -7.4953 O   0  0  0  0  0  0  0  0  0  0  0  0
   21.0847   72.0059   -8.5217 O   0  0  0  0  0  0  0  0  0  0  0  0
   18.7489   71.5409   -8.1623 C   0  0  1  0  0  0  0  0  0  0  0  0
   17.7607   70.7561   -7.2973 C   0  0  1  0  0  0  0  0  0  0  0  0
   20.1864   71.1445   -7.8307 C   0  0  2  0  0  0  0  0  0  0  0  0
   18.1493   70.8217   -5.8141 C   0  0  1  0  0  0  0  0  0  0  0  0
   20.4538   71.1970   -6.3254 C   0  0  1  0  0  0  0  0  0  0  0  0
   17.5735   71.4851   -9.7514 H   0  0  0  0  0  0  0  0  0  0  0  0
   16.2304   71.2643   -8.4358 H   0  0  0  0  0  0  0  0  0  0  0  0
   20.9054   71.9634   -9.4735 H   0  0  0  0  0  0  0  0  0  0  0  0
   16.4182   69.1748   -5.8040 O   0  0  0  0  0  0  0  0  0  0  0  0
   17.2702   69.9182   -4.9521 C   0  0  0  0  0  0  0  0  0  0  0  0
   15.8531   68.5949   -5.2691 H   0  0  0  0  0  0  0  0  0  0  0  0
 25 28  1  0
 25 24  1  0
 25 26  1  6
 25 27  2  0
  1  4  1  0
  1 24  1  0
  1  2  1  1
  1  3  2  0
  6 11  1  0
  6 12  1  0
 29 36  1  0
 29 37  1  0
  9  7  1  1
  7 13  1  0
 10  8  1  1
  8 14  1  0
 37 28  1  1
  4  5  1  0
 33 30  1  6
 30 38  1  0
 34 31  1  1
 31 39  1  0
 35 32  1  6
 32 40  1  0
 41 42  1  0
 41 43  1  0
 15 19  2  0
 16 22  2  0
 12 17  1  6
 17 19  1  0
 17 20  1  0
 18 19  1  0
 18 22  1  0
 18 23  1  0
  9 10  1  0
  9 11  1  0
 10 12  1  0
 11  5  1  1
 33 34  1  0
 33 35  1  0
 34 36  1  0
 35 37  1  0
 36 42  1  1
 20 21  2  0
 21 22  1  0
M  CHG  2   2  -1  26  -1
M  END
>  <COMPND>  (18) 
    8629 

>  <AUTHOR>  (18) 
    GENERATED BY OPEN BABEL 3.1.1

>  <MASTER>  (18) 
        0    0    0    0    0    0    0    0   58    0   58    0

>  <minimizedAffinity>  (18) 
-7.70613

>  <CNNscore>  (18) 
0.5775454640

>  <CNNaffinity>  (18) 
4.1862468719

>  <CNN_VS>  (18) 
2.4177479744

>  <CNNaffinity_variance>  (18) 
0.1532539874

$$$$
19
     RDKit          3D

 43 45  0  0  0  0  0  0  0  0999 V2000
   22.5755   72.9753   -3.8907 P   0  0  2  0  0  0  0  0  0  0  0  0
   23.8524   72.9498   -4.8839 O   0  0  0  0  0  0  0  0  0  0  0  0
   22.1012   74.3451   -3.5033 O   0  0  0  0  0  0  0  0  0  0  0  0
   23.0157   72.0121   -2.6674 O   0  0  0  0  0  0  0  0  0  0  0  0
   22.8258   72.4738   -1.3413 C   0  0  0  0  0  0  0  0  0  0  0  0
   23.8650   71.1587    0.3804 O   0  0  0  0  0  0  0  0  0  0  0  0
   21.1179   70.1204    0.9853 O   0  0  0  0  0  0  0  0  0  0  0  0
   21.4921   71.9852    2.9396 O   0  0  0  0  0  0  0  0  0  0  0  0
   21.5184   71.4263    0.5735 C   0  0  1  0  0  0  0  0  0  0  0  0
   22.1846   72.1579    1.7200 C   0  0  2  0  0  0  0  0  0  0  0  0
   22.6662   71.2746   -0.4169 C   0  0  1  0  0  0  0  0  0  0  0  0
   23.5658   71.5254    1.7372 C   0  0  2  0  0  0  0  0  0  0  0  0
   20.3854   70.1915    1.6181 H   0  0  0  0  0  0  0  0  0  0  0  0
   20.6198   72.4047    2.8785 H   0  0  0  0  0  0  0  0  0  0  0  0
   26.2117   70.7693    2.3742 O   0  0  0  0  0  0  0  0  0  0  0  0
   27.3565   75.0782    3.5420 O   0  0  0  0  0  0  0  0  0  0  0  0
   24.5763   72.4293    2.2096 N   0  0  0  0  0  0  0  0  0  0  0  0
   26.7796   72.9155    2.9550 N   0  0  0  0  0  0  0  0  0  0  0  0
   25.8738   71.9480    2.5018 C   0  0  0  0  0  0  0  0  0  0  0  0
   24.2766   73.7767    2.3785 C   0  0  0  0  0  0  0  0  0  0  0  0
   25.1514   74.6863    2.8128 C   0  0  0  0  0  0  0  0  0  0  0  0
   26.5291   74.2659    3.1404 C   0  0  0  0  0  0  0  0  0  0  0  0
   27.6896   72.6031    3.1651 H   0  0  0  0  0  0  0  0  0  0  0  0
   21.4829   72.0834   -4.6804 O   0  0  0  0  0  0  0  0  0  0  0  0
   20.3833   71.0287   -4.1406 P   0  0  2  0  0  0  0  0  0  0  0  0
   19.6906   71.8135   -2.9071 O   0  0  0  0  0  0  0  0  0  0  0  0
   20.9453   69.6836   -3.7814 O   0  0  0  0  0  0  0  0  0  0  0  0
   19.2507   70.9951   -5.2900 O   0  0  0  0  0  0  0  0  0  0  0  0
   19.2081   72.0474   -7.4131 O   0  0  0  0  0  0  0  0  0  0  0  0
   15.2074   72.3623   -6.4400 O   0  0  0  0  0  0  0  0  0  0  0  0
   16.0327   70.4955   -8.4605 O   0  0  0  0  0  0  0  0  0  0  0  0
   17.2235   72.7158   -4.3931 O   0  0  0  0  0  0  0  0  0  0  0  0
   16.4956   71.7418   -6.4722 C   0  0  1  0  0  0  0  0  0  0  0  0
   16.8810   71.5125   -7.9350 C   0  0  1  0  0  0  0  0  0  0  0  0
   17.5080   72.6576   -5.7867 C   0  0  2  0  0  0  0  0  0  0  0  0
   18.3533   71.0984   -8.0616 C   0  0  1  0  0  0  0  0  0  0  0  0
   18.9442   72.1831   -6.0153 C   0  0  1  0  0  0  0  0  0  0  0  0
   14.5599   71.7857   -6.8733 H   0  0  0  0  0  0  0  0  0  0  0  0
   15.1059   70.7692   -8.3741 H   0  0  0  0  0  0  0  0  0  0  0  0
   16.3116   73.0178   -4.2617 H   0  0  0  0  0  0  0  0  0  0  0  0
   18.1123   69.9497  -10.1427 O   0  0  0  0  0  0  0  0  0  0  0  0
   18.8014   71.0177   -9.5192 C   0  0  0  0  0  0  0  0  0  0  0  0
   18.3872   69.8865  -11.0712 H   0  0  0  0  0  0  0  0  0  0  0  0
 25 28  1  0
 25 24  1  0
 25 26  1  1
 25 27  2  0
  1  4  1  0
  1 24  1  0
  1  2  1  6
  1  3  2  0
  6 11  1  0
  6 12  1  0
 29 36  1  0
 29 37  1  0
  9  7  1  1
  7 13  1  0
 10  8  1  1
  8 14  1  0
 37 28  1  1
  4  5  1  0
 33 30  1  6
 30 38  1  0
 34 31  1  1
 31 39  1  0
 35 32  1  1
 32 40  1  0
 41 42  1  0
 41 43  1  0
 15 19  2  0
 16 22  2  0
 12 17  1  6
 17 19  1  0
 17 20  1  0
 18 19  1  0
 18 22  1  0
 18 23  1  0
  9 10  1  0
  9 11  1  0
 10 12  1  0
 11  5  1  6
 33 34  1  0
 33 35  1  0
 34 36  1  0
 35 37  1  0
 36 42  1  6
 20 21  2  0
 21 22  1  0
M  CHG  2   2  -1  26  -1
M  END
>  <COMPND>  (19) 
    8629 

>  <AUTHOR>  (19) 
    GENERATED BY OPEN BABEL 3.1.1

>  <MASTER>  (19) 
        0    0    0    0    0    0    0    0   58    0   58    0

>  <minimizedAffinity>  (19) 
-7.19231

>  <CNNscore>  (19) 
0.5632684231

>  <CNNaffinity>  (19) 
4.2709951401

>  <CNN_VS>  (19) 
2.4057166576

>  <CNNaffinity_variance>  (19) 
0.1200662032

$$$$
20
     RDKit          3D

 43 45  0  0  0  0  0  0  0  0999 V2000
   23.5244   72.4368   -3.3937 P   0  0  2  0  0  0  0  0  0  0  0  0
   24.1484   70.9705   -3.1144 O   0  0  0  0  0  0  0  0  0  0  0  0
   24.5303   73.5027   -3.7154 O   0  0  0  0  0  0  0  0  0  0  0  0
   22.5943   72.7161   -2.0995 O   0  0  0  0  0  0  0  0  0  0  0  0
   23.2217   72.8924   -0.8413 C   0  0  0  0  0  0  0  0  0  0  0  0
   23.7906   71.7454    1.1920 O   0  0  0  0  0  0  0  0  0  0  0  0
   21.1894   70.2874    0.8769 O   0  0  0  0  0  0  0  0  0  0  0  0
   20.5891   72.1761    2.7502 O   0  0  0  0  0  0  0  0  0  0  0  0
   21.5080   71.6422    0.5635 C   0  0  1  0  0  0  0  0  0  0  0  0
   21.6240   72.4621    1.8315 C   0  0  2  0  0  0  0  0  0  0  0  0
   22.9349   71.6775    0.0303 C   0  0  1  0  0  0  0  0  0  0  0  0
   22.9932   72.0528    2.3472 C   0  0  2  0  0  0  0  0  0  0  0  0
   20.2825   70.2396    1.2191 H   0  0  0  0  0  0  0  0  0  0  0  0
   19.7386   72.4546    2.3764 H   0  0  0  0  0  0  0  0  0  0  0  0
   22.4976   72.6090    5.0718 O   0  0  0  0  0  0  0  0  0  0  0  0
   25.5089   76.0979    5.0962 O   0  0  0  0  0  0  0  0  0  0  0  0
   23.6340   73.1005    3.0908 N   0  0  0  0  0  0  0  0  0  0  0  0
   23.9976   74.3456    5.0818 N   0  0  0  0  0  0  0  0  0  0  0  0
   23.3134   73.2967    4.4543 C   0  0  0  0  0  0  0  0  0  0  0  0
   24.5691   73.9201    2.4681 C   0  0  0  0  0  0  0  0  0  0  0  0
   25.2118   74.9169    3.0802 C   0  0  0  0  0  0  0  0  0  0  0  0
   24.9345   75.1886    4.5054 C   0  0  0  0  0  0  0  0  0  0  0  0
   23.7901   74.5012    6.0318 H   0  0  0  0  0  0  0  0  0  0  0  0
   22.4447   72.1556   -4.5633 O   0  0  0  0  0  0  0  0  0  0  0  0
   20.9150   71.6377   -4.4937 P   0  0  2  0  0  0  0  0  0  0  0  0
   20.0983   72.9544   -4.0279 O   0  0  0  0  0  0  0  0  0  0  0  0
   20.7107   70.4387   -3.6137 O   0  0  0  0  0  0  0  0  0  0  0  0
   20.4880   71.4171   -6.0345 O   0  0  0  0  0  0  0  0  0  0  0  0
   18.1785   70.8861   -6.0073 O   0  0  0  0  0  0  0  0  0  0  0  0
   18.8687   70.6211  -10.0699 O   0  0  0  0  0  0  0  0  0  0  0  0
   17.3785   72.8435   -9.0268 O   0  0  0  0  0  0  0  0  0  0  0  0
   20.8662   69.6741   -8.2010 O   0  0  0  0  0  0  0  0  0  0  0  0
   19.0404   71.1458   -8.7506 C   0  0  1  0  0  0  0  0  0  0  0  0
   17.6904   71.6792   -8.2671 C   0  0  1  0  0  0  0  0  0  0  0  0
   19.5390   70.0322   -7.8315 C   0  0  2  0  0  0  0  0  0  0  0  0
   17.7308   72.0131   -6.7697 C   0  0  1  0  0  0  0  0  0  0  0  0
   19.4927   70.4505   -6.3608 C   0  0  1  0  0  0  0  0  0  0  0  0
   18.5527   71.3232  -10.6586 H   0  0  0  0  0  0  0  0  0  0  0  0
   17.3566   72.6191   -9.9704 H   0  0  0  0  0  0  0  0  0  0  0  0
   20.8821   69.4110   -9.1340 H   0  0  0  0  0  0  0  0  0  0  0  0
   15.3681   71.8189   -7.0676 O   0  0  0  0  0  0  0  0  0  0  0  0
   16.3540   72.3969   -6.2320 C   0  0  0  0  0  0  0  0  0  0  0  0
   14.4866   72.0546   -6.7373 H   0  0  0  0  0  0  0  0  0  0  0  0
 25 28  1  0
 25 24  1  0
 25 26  1  1
 25 27  2  0
  1  4  1  0
  1 24  1  0
  1  2  1  1
  1  3  2  0
  6 11  1  0
  6 12  1  0
 29 36  1  0
 29 37  1  0
  9  7  1  1
  7 13  1  0
 10  8  1  1
  8 14  1  0
 37 28  1  6
  4  5  1  0
 33 30  1  6
 30 38  1  0
 34 31  1  6
 31 39  1  0
 35 32  1  6
 32 40  1  0
 41 42  1  0
 41 43  1  0
 15 19  2  0
 16 22  2  0
 12 17  1  6
 17 19  1  0
 17 20  1  0
 18 19  1  0
 18 22  1  0
 18 23  1  0
  9 10  1  0
  9 11  1  0
 10 12  1  0
 11  5  1  6
 33 34  1  0
 33 35  1  0
 34 36  1  0
 35 37  1  0
 36 42  1  1
 20 21  2  0
 21 22  1  0
M  CHG  2   2  -1  26  -1
M  END
>  <COMPND>  (20) 
    8629 

>  <AUTHOR>  (20) 
    GENERATED BY OPEN BABEL 3.1.1

>  <MASTER>  (20) 
        0    0    0    0    0    0    0    0   58    0   58    0

>  <minimizedAffinity>  (20) 
-7.32906

>  <CNNscore>  (20) 
0.5624217391

>  <CNNaffinity>  (20) 
4.1491937637

>  <CNN_VS>  (20) 
2.3335967064

>  <CNNaffinity_variance>  (20) 
0.1429729909

$$$$
21
     RDKit          3D

 43 45  0  0  0  0  0  0  0  0999 V2000
   22.4156   71.5575   -2.9199 P   0  0  2  0  0  0  0  0  0  0  0  0
   22.1658   73.1473   -2.7541 O   0  0  0  0  0  0  0  0  0  0  0  0
   23.8428   71.1621   -3.1612 O   0  0  0  0  0  0  0  0  0  0  0  0
   21.3610   71.1159   -4.0647 O   0  0  0  0  0  0  0  0  0  0  0  0
   20.4201   70.1006   -3.7618 C   0  0  0  0  0  0  0  0  0  0  0  0
   18.7379   71.4611   -4.8071 O   0  0  0  0  0  0  0  0  0  0  0  0
   16.8393   70.3497   -2.7698 O   0  0  0  0  0  0  0  0  0  0  0  0
   16.2560   68.8786   -4.9906 O   0  0  0  0  0  0  0  0  0  0  0  0
   17.9279   69.7088   -3.4327 C   0  0  1  0  0  0  0  0  0  0  0  0
   17.5621   69.4044   -4.8705 C   0  0  2  0  0  0  0  0  0  0  0  0
   19.0444   70.7321   -3.5984 C   0  0  1  0  0  0  0  0  0  0  0  0
   17.7067   70.7665   -5.5276 C   0  0  2  0  0  0  0  0  0  0  0  0
   16.1139   69.7157   -2.6523 H   0  0  0  0  0  0  0  0  0  0  0  0
   16.2151   68.0118   -4.5572 H   0  0  0  0  0  0  0  0  0  0  0  0
   15.9136   70.2254   -7.6418 O   0  0  0  0  0  0  0  0  0  0  0  0
   19.2763   70.4206  -10.7874 O   0  0  0  0  0  0  0  0  0  0  0  0
   18.0865   70.6707   -6.9089 N   0  0  0  0  0  0  0  0  0  0  0  0
   17.5894   70.3232   -9.2064 N   0  0  0  0  0  0  0  0  0  0  0  0
   17.1087   70.3940   -7.8926 C   0  0  0  0  0  0  0  0  0  0  0  0
   19.4156   70.8506   -7.2762 C   0  0  0  0  0  0  0  0  0  0  0  0
   19.8580   70.7785   -8.5333 C   0  0  0  0  0  0  0  0  0  0  0  0
   18.9006   70.4933   -9.6215 C   0  0  0  0  0  0  0  0  0  0  0  0
   16.9262   70.1311   -9.9086 H   0  0  0  0  0  0  0  0  0  0  0  0
   21.7665   70.9451   -1.5721 O   0  0  0  0  0  0  0  0  0  0  0  0
   21.2761   71.6626   -0.2092 P   0  0  2  0  0  0  0  0  0  0  0  0
   21.1350   70.4298    0.8291 O   0  0  0  0  0  0  0  0  0  0  0  0
   20.0320   72.4889   -0.3620 O   0  0  0  0  0  0  0  0  0  0  0  0
   22.5657   72.4845    0.3068 O   0  0  0  0  0  0  0  0  0  0  0  0
   22.0127   73.9858    2.0552 O   0  0  0  0  0  0  0  0  0  0  0  0
   25.8678   75.2532    1.2919 O   0  0  0  0  0  0  0  0  0  0  0  0
   25.3092   73.7779    3.6918 O   0  0  0  0  0  0  0  0  0  0  0  0
   24.1466   74.4654   -0.8981 O   0  0  0  0  0  0  0  0  0  0  0  0
   24.8098   74.2984    1.4113 C   0  0  1  0  0  0  0  0  0  0  0  0
   24.2975   74.3280    2.8527 C   0  0  1  0  0  0  0  0  0  0  0  0
   23.6930   74.6663    0.4362 C   0  0  2  0  0  0  0  0  0  0  0  0
   22.9941   73.5303    2.9939 C   0  0  1  0  0  0  0  0  0  0  0  0
   22.4259   73.8489    0.6941 C   0  0  1  0  0  0  0  0  0  0  0  0
   26.5804   75.0251    1.9082 H   0  0  0  0  0  0  0  0  0  0  0  0
   26.1270   74.2903    3.5928 H   0  0  0  0  0  0  0  0  0  0  0  0
   24.9489   74.9884   -1.0489 H   0  0  0  0  0  0  0  0  0  0  0  0
   22.3948   72.4095    5.0171 O   0  0  0  0  0  0  0  0  0  0  0  0
   22.3820   73.6764    4.3853 C   0  0  0  0  0  0  0  0  0  0  0  0
   22.0084   72.4872    5.9039 H   0  0  0  0  0  0  0  0  0  0  0  0
 25 28  1  0
 25 24  1  0
 25 26  1  1
 25 27  2  0
  1  4  1  0
  1 24  1  0
  1  2  1  1
  1  3  2  0
  6 11  1  0
  6 12  1  0
 29 36  1  0
 29 37  1  0
  9  7  1  1
  7 13  1  0
 10  8  1  1
  8 14  1  0
 37 28  1  1
  4  5  1  0
 33 30  1  1
 30 38  1  0
 34 31  1  1
 31 39  1  0
 35 32  1  6
 32 40  1  0
 41 42  1  0
 41 43  1  0
 15 19  2  0
 16 22  2  0
 12 17  1  6
 17 19  1  0
 17 20  1  0
 18 19  1  0
 18 22  1  0
 18 23  1  0
  9 10  1  0
  9 11  1  0
 10 12  1  0
 11  5  1  6
 33 34  1  0
 33 35  1  0
 34 36  1  0
 35 37  1  0
 36 42  1  1
 20 21  2  0
 21 22  1  0
M  CHG  2   2  -1  26  -1
M  END
>  <COMPND>  (21) 
    8629 

>  <AUTHOR>  (21) 
    GENERATED BY OPEN BABEL 3.1.1

>  <MASTER>  (21) 
        0    0    0    0    0    0    0    0   58    0   58    0

>  <minimizedAffinity>  (21) 
-7.65120

>  <CNNscore>  (21) 
0.9351349473

>  <CNNaffinity>  (21) 
4.7803635597

>  <CNN_VS>  (21) 
4.4702849388

>  <CNNaffinity_variance>  (21) 
0.0424145758

$$$$
22
     RDKit          3D

 43 45  0  0  0  0  0  0  0  0999 V2000
   20.5934   71.2453   -0.9449 P   0  0  2  0  0  0  0  0  0  0  0  0
   20.8459   70.4423    0.4366 O   0  0  0  0  0  0  0  0  0  0  0  0
   20.2299   72.6917   -0.7799 O   0  0  0  0  0  0  0  0  0  0  0  0
   19.5121   70.3344   -1.7316 O   0  0  0  0  0  0  0  0  0  0  0  0
   19.2063   70.6582   -3.0768 C   0  0  0  0  0  0  0  0  0  0  0  0
   17.4612   71.5701   -4.4542 O   0  0  0  0  0  0  0  0  0  0  0  0
   15.5675   69.9042   -2.8326 O   0  0  0  0  0  0  0  0  0  0  0  0
   15.8516   68.4332   -5.1112 O   0  0  0  0  0  0  0  0  0  0  0  0
   16.8969   69.6054   -3.2553 C   0  0  1  0  0  0  0  0  0  0  0  0
   16.9179   69.2803   -4.7343 C   0  0  2  0  0  0  0  0  0  0  0  0
   17.7073   70.8945   -3.2014 C   0  0  1  0  0  0  0  0  0  0  0  0
   16.8180   70.6604   -5.3617 C   0  0  2  0  0  0  0  0  0  0  0  0
   15.0309   69.0959   -2.8583 H   0  0  0  0  0  0  0  0  0  0  0  0
   15.9604   67.5679   -4.6867 H   0  0  0  0  0  0  0  0  0  0  0  0
   15.5951   70.0152   -7.8246 O   0  0  0  0  0  0  0  0  0  0  0  0
   19.4344   70.9680  -10.1896 O   0  0  0  0  0  0  0  0  0  0  0  0
   17.4747   70.7313   -6.6365 N   0  0  0  0  0  0  0  0  0  0  0  0
   17.5078   70.4904   -9.0002 N   0  0  0  0  0  0  0  0  0  0  0  0
   16.7712   70.3846   -7.8135 C   0  0  0  0  0  0  0  0  0  0  0  0
   18.8014   71.1413   -6.7107 C   0  0  0  0  0  0  0  0  0  0  0  0
   19.4899   71.2357   -7.8502 C   0  0  0  0  0  0  0  0  0  0  0  0
   18.8284   70.8917   -9.1253 C   0  0  0  0  0  0  0  0  0  0  0  0
   17.0383   70.2535   -9.8329 H   0  0  0  0  0  0  0  0  0  0  0  0
   21.9579   70.9847   -1.7714 O   0  0  0  0  0  0  0  0  0  0  0  0
   23.2028   71.9619   -2.1006 P   0  0  2  0  0  0  0  0  0  0  0  0
   24.2112   71.0102   -2.9343 O   0  0  0  0  0  0  0  0  0  0  0  0
   23.8165   72.6053   -0.8909 O   0  0  0  0  0  0  0  0  0  0  0  0
   22.6279   73.0022   -3.1924 O   0  0  0  0  0  0  0  0  0  0  0  0
   23.5558   73.0749   -5.3719 O   0  0  0  0  0  0  0  0  0  0  0  0
   21.8715   76.8429   -5.2459 O   0  0  0  0  0  0  0  0  0  0  0  0
   20.6700   74.8065   -6.8760 O   0  0  0  0  0  0  0  0  0  0  0  0
   23.1326   75.7453   -2.8828 O   0  0  0  0  0  0  0  0  0  0  0  0
   21.9565   75.4436   -4.9630 C   0  0  1  0  0  0  0  0  0  0  0  0
   21.9639   74.6853   -6.2917 C   0  0  1  0  0  0  0  0  0  0  0  0
   23.2394   75.1696   -4.1804 C   0  0  2  0  0  0  0  0  0  0  0  0
   22.3200   73.2071   -6.0839 C   0  0  1  0  0  0  0  0  0  0  0  0
   23.5266   73.6709   -4.0735 C   0  0  1  0  0  0  0  0  0  0  0  0
   21.0588   77.0238   -5.7423 H   0  0  0  0  0  0  0  0  0  0  0  0
   20.4571   75.7447   -7.0015 H   0  0  0  0  0  0  0  0  0  0  0  0
   22.9511   76.6941   -2.9641 H   0  0  0  0  0  0  0  0  0  0  0  0
   23.1076   73.3401   -8.3358 O   0  0  0  0  0  0  0  0  0  0  0  0
   22.4876   72.4674   -7.4094 C   0  0  0  0  0  0  0  0  0  0  0  0
   23.2210   72.8826   -9.1841 H   0  0  0  0  0  0  0  0  0  0  0  0
 25 28  1  0
 25 24  1  0
 25 26  1  6
 25 27  2  0
  1  4  1  0
  1 24  1  0
  1  2  1  1
  1  3  2  0
  6 11  1  0
  6 12  1  0
 29 36  1  0
 29 37  1  0
  9  7  1  6
  7 13  1  0
 10  8  1  1
  8 14  1  0
 37 28  1  1
  4  5  1  0
 33 30  1  6
 30 38  1  0
 34 31  1  1
 31 39  1  0
 35 32  1  1
 32 40  1  0
 41 42  1  0
 41 43  1  0
 15 19  2  0
 16 22  2  0
 12 17  1  6
 17 19  1  0
 17 20  1  0
 18 19  1  0
 18 22  1  0
 18 23  1  0
  9 10  1  0
  9 11  1  0
 10 12  1  0
 11  5  1  6
 33 34  1  0
 33 35  1  0
 34 36  1  0
 35 37  1  0
 36 42  1  6
 20 21  2  0
 21 22  1  0
M  CHG  2   2  -1  26  -1
M  END
>  <COMPND>  (22) 
    8629 

>  <AUTHOR>  (22) 
    GENERATED BY OPEN BABEL 3.1.1

>  <MASTER>  (22) 
        0    0    0    0    0    0    0    0   58    0   58    0

>  <minimizedAffinity>  (22) 
-7.97801

>  <CNNscore>  (22) 
0.9054900408

>  <CNNaffinity>  (22) 
4.6531562805

>  <CNN_VS>  (22) 
4.2133865356

>  <CNNaffinity_variance>  (22) 
0.5321596265

$$$$
23
     RDKit          3D

 43 45  0  0  0  0  0  0  0  0999 V2000
   21.8704   72.5018   -5.5018 P   0  0  2  0  0  0  0  0  0  0  0  0
   21.1313   73.9221   -5.2695 O   0  0  0  0  0  0  0  0  0  0  0  0
   23.1840   72.5814   -6.2226 O   0  0  0  0  0  0  0  0  0  0  0  0
   20.7377   71.5849   -6.2047 O   0  0  0  0  0  0  0  0  0  0  0  0
   20.2597   71.9629   -7.4839 C   0  0  0  0  0  0  0  0  0  0  0  0
   19.0086   69.9528   -7.0742 O   0  0  0  0  0  0  0  0  0  0  0  0
   18.1797   70.1050   -9.9518 O   0  0  0  0  0  0  0  0  0  0  0  0
   15.9924   71.0844   -8.6506 O   0  0  0  0  0  0  0  0  0  0  0  0
   18.3946   71.1617   -9.0177 C   0  0  1  0  0  0  0  0  0  0  0  0
   17.2518   71.2274   -8.0261 C   0  0  2  0  0  0  0  0  0  0  0  0
   19.5667   70.7694   -8.1268 C   0  0  1  0  0  0  0  0  0  0  0  0
   17.5767   70.0725   -7.0940 C   0  0  2  0  0  0  0  0  0  0  0  0
   17.4359   70.3329  -10.5321 H   0  0  0  0  0  0  0  0  0  0  0  0
   15.8320   71.8433   -9.2329 H   0  0  0  0  0  0  0  0  0  0  0  0
   16.2640   68.1366   -5.5106 O   0  0  0  0  0  0  0  0  0  0  0  0
   15.8264   71.0598   -1.9743 O   0  0  0  0  0  0  0  0  0  0  0  0
   17.1093   70.3005   -5.7558 N   0  0  0  0  0  0  0  0  0  0  0  0
   16.0474   69.5937   -3.7510 N   0  0  0  0  0  0  0  0  0  0  0  0
   16.4614   69.2618   -5.0473 C   0  0  0  0  0  0  0  0  0  0  0  0
   17.2953   71.5428   -5.1591 C   0  0  0  0  0  0  0  0  0  0  0  0
   16.8933   71.8436   -3.9224 C   0  0  0  0  0  0  0  0  0  0  0  0
   16.2080   70.8142   -3.1145 C   0  0  0  0  0  0  0  0  0  0  0  0
   15.5933   68.8858   -3.2386 H   0  0  0  0  0  0  0  0  0  0  0  0
   21.9585   71.8894   -4.0085 O   0  0  0  0  0  0  0  0  0  0  0  0
   23.1147   71.9961   -2.8839 P   0  0  2  0  0  0  0  0  0  0  0  0
   23.6211   73.5270   -3.0164 O   0  0  0  0  0  0  0  0  0  0  0  0
   24.2023   70.9702   -3.0201 O   0  0  0  0  0  0  0  0  0  0  0  0
   22.3230   71.9488   -1.4782 O   0  0  0  0  0  0  0  0  0  0  0  0
   24.0154   72.2384    0.1553 O   0  0  0  0  0  0  0  0  0  0  0  0
   20.7279   72.0145    2.6439 O   0  0  0  0  0  0  0  0  0  0  0  0
   22.0344   74.5407    2.2443 O   0  0  0  0  0  0  0  0  0  0  0  0
   20.8816   70.3242    0.2989 O   0  0  0  0  0  0  0  0  0  0  0  0
   21.4395   72.3632    1.4533 C   0  0  1  0  0  0  0  0  0  0  0  0
   22.5914   73.2936    1.8382 C   0  0  1  0  0  0  0  0  0  0  0  0
   21.9725   71.0898    0.7993 C   0  0  2  0  0  0  0  0  0  0  0  0
   23.5560   73.4969    0.6621 C   0  0  1  0  0  0  0  0  0  0  0  0
   22.9602   71.4036   -0.3259 C   0  0  1  0  0  0  0  0  0  0  0  0
   20.3864   72.8186    3.0638 H   0  0  0  0  0  0  0  0  0  0  0  0
   21.4269   74.3983    2.9871 H   0  0  0  0  0  0  0  0  0  0  0  0
   20.2637   70.1319    1.0208 H   0  0  0  0  0  0  0  0  0  0  0  0
   25.4748   73.5776    2.0835 O   0  0  0  0  0  0  0  0  0  0  0  0
   24.7942   74.2928    1.0689 C   0  0  0  0  0  0  0  0  0  0  0  0
   26.2654   74.0722    2.3521 H   0  0  0  0  0  0  0  0  0  0  0  0
 25 28  1  0
 25 24  1  0
 25 26  1  6
 25 27  2  0
  1  4  1  0
  1 24  1  0
  1  2  1  1
  1  3  2  0
  6 11  1  0
  6 12  1  0
 29 36  1  0
 29 37  1  0
  9  7  1  6
  7 13  1  0
 10  8  1  6
  8 14  1  0
 37 28  1  6
  4  5  1  0
 33 30  1  1
 30 38  1  0
 34 31  1  6
 31 39  1  0
 35 32  1  6
 32 40  1  0
 41 42  1  0
 41 43  1  0
 15 19  2  0
 16 22  2  0
 12 17  1  1
 17 19  1  0
 17 20  1  0
 18 19  1  0
 18 22  1  0
 18 23  1  0
  9 10  1  0
  9 11  1  0
 10 12  1  0
 11  5  1  1
 33 34  1  0
 33 35  1  0
 34 36  1  0
 35 37  1  0
 36 42  1  1
 20 21  2  0
 21 22  1  0
M  CHG  2   2  -1  26  -1
M  END
>  <COMPND>  (23) 
    8629 

>  <AUTHOR>  (23) 
    GENERATED BY OPEN BABEL 3.1.1

>  <MASTER>  (23) 
        0    0    0    0    0    0    0    0   58    0   58    0

>  <minimizedAffinity>  (23) 
-8.02403

>  <CNNscore>  (23) 
0.8296887875

>  <CNNaffinity>  (23) 
4.5906691551

>  <CNN_VS>  (23) 
3.8088266850

>  <CNNaffinity_variance>  (23) 
0.1655344069

$$$$
24
     RDKit          3D

 43 45  0  0  0  0  0  0  0  0999 V2000
   22.7592   72.9504   -4.2655 P   0  0  2  0  0  0  0  0  0  0  0  0
   22.6821   74.2500   -5.2260 O   0  0  0  0  0  0  0  0  0  0  0  0
   24.1043   72.2886   -4.2015 O   0  0  0  0  0  0  0  0  0  0  0  0
   21.5404   72.0170   -4.7765 O   0  0  0  0  0  0  0  0  0  0  0  0
   21.0014   71.0592   -3.8820 C   0  0  0  0  0  0  0  0  0  0  0  0
   18.9662   71.9167   -4.8288 O   0  0  0  0  0  0  0  0  0  0  0  0
   17.5690   70.6546   -2.4951 O   0  0  0  0  0  0  0  0  0  0  0  0
   17.1094   68.8658   -4.5015 O   0  0  0  0  0  0  0  0  0  0  0  0
   18.7016   70.1898   -3.2276 C   0  0  1  0  0  0  0  0  0  0  0  0
   18.2726   69.6640   -4.5815 C   0  0  2  0  0  0  0  0  0  0  0  0
   19.5432   71.4013   -3.6090 C   0  0  1  0  0  0  0  0  0  0  0  0
   18.0480   70.9482   -5.3615 C   0  0  2  0  0  0  0  0  0  0  0  0
   17.0165   69.8984   -2.2402 H   0  0  0  0  0  0  0  0  0  0  0  0
   17.3034   68.0610   -3.9961 H   0  0  0  0  0  0  0  0  0  0  0  0
   16.1555   69.9894   -7.2262 O   0  0  0  0  0  0  0  0  0  0  0  0
   19.1339   70.3730  -10.7224 O   0  0  0  0  0  0  0  0  0  0  0  0
   18.3020   70.7878   -6.7655 N   0  0  0  0  0  0  0  0  0  0  0  0
   17.6400   70.1814   -8.9656 N   0  0  0  0  0  0  0  0  0  0  0  0
   17.2837   70.2976   -7.6159 C   0  0  0  0  0  0  0  0  0  0  0  0
   19.5492   71.1155   -7.2859 C   0  0  0  0  0  0  0  0  0  0  0  0
   19.8735   70.9976   -8.5752 C   0  0  0  0  0  0  0  0  0  0  0  0
   18.8665   70.4928   -9.5308 C   0  0  0  0  0  0  0  0  0  0  0  0
   16.9466   69.8415   -9.5768 H   0  0  0  0  0  0  0  0  0  0  0  0
   22.2178   73.5122   -2.8498 O   0  0  0  0  0  0  0  0  0  0  0  0
   22.8462   74.5945   -1.8268 P   0  0  2  0  0  0  0  0  0  0  0  0
   21.7415   75.7764   -1.8123 O   0  0  0  0  0  0  0  0  0  0  0  0
   24.2324   75.0468   -2.1846 O   0  0  0  0  0  0  0  0  0  0  0  0
   22.7225   73.9031   -0.3737 O   0  0  0  0  0  0  0  0  0  0  0  0
   23.5637   71.7565    0.1753 O   0  0  0  0  0  0  0  0  0  0  0  0
   20.4343   71.9460    2.8626 O   0  0  0  0  0  0  0  0  0  0  0  0
   23.1347   72.1802    3.8119 O   0  0  0  0  0  0  0  0  0  0  0  0
   20.1170   73.0315    0.1979 O   0  0  0  0  0  0  0  0  0  0  0  0
   21.5116   72.4655    2.0784 C   0  0  1  0  0  0  0  0  0  0  0  0
   22.7976   71.7496    2.4962 C   0  0  1  0  0  0  0  0  0  0  0  0
   21.2160   72.2208    0.5999 C   0  0  2  0  0  0  0  0  0  0  0  0
   23.9438   72.0570    1.5232 C   0  0  1  0  0  0  0  0  0  0  0  0
   22.4366   72.5103   -0.2756 C   0  0  1  0  0  0  0  0  0  0  0  0
   20.6155   72.0986    3.8025 H   0  0  0  0  0  0  0  0  0  0  0  0
   22.4024   71.9807    4.4163 H   0  0  0  0  0  0  0  0  0  0  0  0
   19.3507   72.8386    0.7595 H   0  0  0  0  0  0  0  0  0  0  0  0
   24.8005   70.0790    2.5540 O   0  0  0  0  0  0  0  0  0  0  0  0
   25.1912   71.2310    1.8296 C   0  0  0  0  0  0  0  0  0  0  0  0
   25.5842   69.5435    2.7557 H   0  0  0  0  0  0  0  0  0  0  0  0
 25 28  1  0
 25 24  1  0
 25 26  1  1
 25 27  2  0
  1  4  1  0
  1 24  1  0
  1  2  1  6
  1  3  2  0
  6 11  1  0
  6 12  1  0
 29 36  1  0
 29 37  1  0
  9  7  1  1
  7 13  1  0
 10  8  1  1
  8 14  1  0
 37 28  1  1
  4  5  1  0
 33 30  1  1
 30 38  1  0
 34 31  1  1
 31 39  1  0
 35 32  1  6
 32 40  1  0
 41 42  1  0
 41 43  1  0
 15 19  2  0
 16 22  2  0
 12 17  1  6
 17 19  1  0
 17 20  1  0
 18 19  1  0
 18 22  1  0
 18 23  1  0
  9 10  1  0
  9 11  1  0
 10 12  1  0
 11  5  1  6
 33 34  1  0
 33 35  1  0
 34 36  1  0
 35 37  1  0
 36 42  1  1
 20 21  2  0
 21 22  1  0
M  CHG  2   2  -1  26  -1
M  END
>  <COMPND>  (24) 
    8629 

>  <AUTHOR>  (24) 
    GENERATED BY OPEN BABEL 3.1.1

>  <MASTER>  (24) 
        0    0    0    0    0    0    0    0   58    0   58    0

>  <minimizedAffinity>  (24) 
-7.50669

>  <CNNscore>  (24) 
0.8108236790

>  <CNNaffinity>  (24) 
4.6104426384

>  <CNN_VS>  (24) 
3.7382559776

>  <CNNaffinity_variance>  (24) 
0.0487947054

$$$$
25
     RDKit          3D

 43 45  0  0  0  0  0  0  0  0999 V2000
   22.4030   73.5236   -4.5746 P   0  0  2  0  0  0  0  0  0  0  0  0
   22.4087   75.1065   -4.2401 O   0  0  0  0  0  0  0  0  0  0  0  0
   23.3338   73.1049   -5.6744 O   0  0  0  0  0  0  0  0  0  0  0  0
   20.8390   73.1820   -4.8096 O   0  0  0  0  0  0  0  0  0  0  0  0
   19.9367   74.2543   -5.0185 C   0  0  0  0  0  0  0  0  0  0  0  0
   17.8378   73.4189   -5.8374 O   0  0  0  0  0  0  0  0  0  0  0  0
   17.2888   72.5679   -3.0152 O   0  0  0  0  0  0  0  0  0  0  0  0
   18.0594   70.2357   -4.2000 O   0  0  0  0  0  0  0  0  0  0  0  0
   18.5227   72.5760   -3.7312 C   0  0  1  0  0  0  0  0  0  0  0  0
   18.5538   71.4452   -4.7381 C   0  0  2  0  0  0  0  0  0  0  0  0
   18.5343   73.8046   -4.6322 C   0  0  1  0  0  0  0  0  0  0  0  0
   17.6768   71.9911   -5.8521 C   0  0  2  0  0  0  0  0  0  0  0  0
   17.2584   71.7922   -2.4326 H   0  0  0  0  0  0  0  0  0  0  0  0
   18.6515   69.9292   -3.4956 H   0  0  0  0  0  0  0  0  0  0  0  0
   15.9083   70.7407   -7.6651 O   0  0  0  0  0  0  0  0  0  0  0  0
   19.2496   70.1152  -10.7772 O   0  0  0  0  0  0  0  0  0  0  0  0
   18.0577   71.4922   -7.1434 N   0  0  0  0  0  0  0  0  0  0  0  0
   17.5734   70.4304   -9.2133 N   0  0  0  0  0  0  0  0  0  0  0  0
   17.0928   70.8800   -7.9768 C   0  0  0  0  0  0  0  0  0  0  0  0
   19.3752   71.6126   -7.5718 C   0  0  0  0  0  0  0  0  0  0  0  0
   19.8178   71.1775   -8.7534 C   0  0  0  0  0  0  0  0  0  0  0  0
   18.8735   70.5259   -9.6838 C   0  0  0  0  0  0  0  0  0  0  0  0
   16.9191   70.0002   -9.8104 H   0  0  0  0  0  0  0  0  0  0  0  0
   22.7108   72.8476   -3.1389 O   0  0  0  0  0  0  0  0  0  0  0  0
   22.7822   71.2966   -2.6893 P   0  0  2  0  0  0  0  0  0  0  0  0
   24.3089   70.8820   -3.0280 O   0  0  0  0  0  0  0  0  0  0  0  0
   21.7456   70.4213   -3.3321 O   0  0  0  0  0  0  0  0  0  0  0  0
   22.7184   71.3353   -1.0770 O   0  0  0  0  0  0  0  0  0  0  0  0
   22.1276   73.4425   -0.1676 O   0  0  0  0  0  0  0  0  0  0  0  0
   23.5017   71.6041    3.2651 O   0  0  0  0  0  0  0  0  0  0  0  0
   20.6847   72.0479    2.9247 O   0  0  0  0  0  0  0  0  0  0  0  0
   24.8456   71.1428    0.7431 O   0  0  0  0  0  0  0  0  0  0  0  0
   22.8541   71.6688    1.9916 C   0  0  1  0  0  0  0  0  0  0  0  0
   21.6809   72.6448    2.0991 C   0  0  1  0  0  0  0  0  0  0  0  0
   23.8581   72.1481    0.9448 C   0  0  2  0  0  0  0  0  0  0  0  0
   21.1030   72.9709    0.7153 C   0  0  1  0  0  0  0  0  0  0  0  0
   23.1731   72.4917   -0.3791 C   0  0  1  0  0  0  0  0  0  0  0  0
   22.8697   71.3000    3.9342 H   0  0  0  0  0  0  0  0  0  0  0  0
   21.0627   71.8466    3.7952 H   0  0  0  0  0  0  0  0  0  0  0  0
   25.2721   70.9344    1.5884 H   0  0  0  0  0  0  0  0  0  0  0  0
   20.2442   74.8205    1.9605 O   0  0  0  0  0  0  0  0  0  0  0  0
   20.0363   74.0616    0.7836 C   0  0  0  0  0  0  0  0  0  0  0  0
   19.5726   75.5188    2.0171 H   0  0  0  0  0  0  0  0  0  0  0  0
 25 28  1  0
 25 24  1  0
 25 26  1  1
 25 27  2  0
  1  4  1  0
  1 24  1  0
  1  2  1  1
  1  3  2  0
  6 11  1  0
  6 12  1  0
 29 36  1  0
 29 37  1  0
  9  7  1  6
  7 13  1  0
 10  8  1  1
  8 14  1  0
 37 28  1  1
  4  5  1  0
 33 30  1  1
 30 38  1  0
 34 31  1  1
 31 39  1  0
 35 32  1  6
 32 40  1  0
 41 42  1  0
 41 43  1  0
 15 19  2  0
 16 22  2  0
 12 17  1  6
 17 19  1  0
 17 20  1  0
 18 19  1  0
 18 22  1  0
 18 23  1  0
  9 10  1  0
  9 11  1  0
 10 12  1  0
 11  5  1  6
 33 34  1  0
 33 35  1  0
 34 36  1  0
 35 37  1  0
 36 42  1  1
 20 21  2  0
 21 22  1  0
M  CHG  2   2  -1  26  -1
M  END
>  <COMPND>  (25) 
    8629 

>  <AUTHOR>  (25) 
    GENERATED BY OPEN BABEL 3.1.1

>  <MASTER>  (25) 
        0    0    0    0    0    0    0    0   58    0   58    0

>  <minimizedAffinity>  (25) 
-6.93556

>  <CNNscore>  (25) 
0.8092285991

>  <CNNaffinity>  (25) 
4.4426765442

>  <CNN_VS>  (25) 
3.5951409340

>  <CNNaffinity_variance>  (25) 
0.0128033487

$$$$
26
     RDKit          3D

 43 45  0  0  0  0  0  0  0  0999 V2000
   23.1047   72.0191   -3.1416 P   0  0  2  0  0  0  0  0  0  0  0  0
   24.2929   70.9275   -3.0233 O   0  0  0  0  0  0  0  0  0  0  0  0
   23.3600   73.3136   -2.4271 O   0  0  0  0  0  0  0  0  0  0  0  0
   21.7843   71.2081   -2.6761 O   0  0  0  0  0  0  0  0  0  0  0  0
   20.9590   70.6310   -3.6729 C   0  0  0  0  0  0  0  0  0  0  0  0
   18.9543   71.6188   -4.5557 O   0  0  0  0  0  0  0  0  0  0  0  0
   17.5053   70.1969   -2.3490 O   0  0  0  0  0  0  0  0  0  0  0  0
   17.0188   68.5998   -4.5052 O   0  0  0  0  0  0  0  0  0  0  0  0
   18.6324   69.7679   -3.1113 C   0  0  1  0  0  0  0  0  0  0  0  0
   18.2024   69.3718   -4.5083 C   0  0  2  0  0  0  0  0  0  0  0  0
   19.5074   70.9857   -3.3811 C   0  0  1  0  0  0  0  0  0  0  0  0
   18.0169   70.7237   -5.1761 C   0  0  2  0  0  0  0  0  0  0  0  0
   16.9319   69.4360   -2.1640 H   0  0  0  0  0  0  0  0  0  0  0  0
   17.1882   67.7498   -4.0699 H   0  0  0  0  0  0  0  0  0  0  0  0
   16.1077   70.0116   -7.1321 O   0  0  0  0  0  0  0  0  0  0  0  0
   19.1361   70.5826  -10.5591 O   0  0  0  0  0  0  0  0  0  0  0  0
   18.2792   70.6783   -6.5869 N   0  0  0  0  0  0  0  0  0  0  0  0
   17.6171   70.2967   -8.8369 N   0  0  0  0  0  0  0  0  0  0  0  0
   17.2514   70.3071   -7.4848 C   0  0  0  0  0  0  0  0  0  0  0  0
   19.5440   71.0000   -7.0673 C   0  0  0  0  0  0  0  0  0  0  0  0
   19.8770   70.9839   -8.3596 C   0  0  0  0  0  0  0  0  0  0  0  0
   18.8610   70.6070   -9.3635 C   0  0  0  0  0  0  0  0  0  0  0  0
   16.9173   70.0408   -9.4808 H   0  0  0  0  0  0  0  0  0  0  0  0
   22.8996   72.1613   -4.7387 O   0  0  0  0  0  0  0  0  0  0  0  0
   22.6177   73.4583   -5.6615 P   0  0  2  0  0  0  0  0  0  0  0  0
   22.8337   72.8986   -7.1640 O   0  0  0  0  0  0  0  0  0  0  0  0
   23.4604   74.6525   -5.3184 O   0  0  0  0  0  0  0  0  0  0  0  0
   21.0272   73.7058   -5.5434 O   0  0  0  0  0  0  0  0  0  0  0  0
   19.4179   75.1655   -6.4900 O   0  0  0  0  0  0  0  0  0  0  0  0
   18.4092   75.5657   -2.5058 O   0  0  0  0  0  0  0  0  0  0  0  0
   16.6828   74.0908   -4.2643 O   0  0  0  0  0  0  0  0  0  0  0  0
   21.1912   75.3519   -3.2765 O   0  0  0  0  0  0  0  0  0  0  0  0
   18.8640   74.8731   -3.6715 C   0  0  1  0  0  0  0  0  0  0  0  0
   17.7507   74.9167   -4.7201 C   0  0  1  0  0  0  0  0  0  0  0  0
   20.1251   75.5559   -4.1976 C   0  0  2  0  0  0  0  0  0  0  0  0
   18.2564   74.4314   -6.0854 C   0  0  1  0  0  0  0  0  0  0  0  0
   20.5138   75.0348   -5.5823 C   0  0  1  0  0  0  0  0  0  0  0  0
   17.6089   75.1369   -2.1665 H   0  0  0  0  0  0  0  0  0  0  0  0
   16.3731   74.4077   -3.4013 H   0  0  0  0  0  0  0  0  0  0  0  0
   20.9329   75.6862   -2.4040 H   0  0  0  0  0  0  0  0  0  0  0  0
   17.3928   73.6010   -8.1526 O   0  0  0  0  0  0  0  0  0  0  0  0
   17.2088   74.6144   -7.1813 C   0  0  0  0  0  0  0  0  0  0  0  0
   16.7326   73.7048   -8.8563 H   0  0  0  0  0  0  0  0  0  0  0  0
 25 28  1  0
 25 24  1  0
 25 26  1  6
 25 27  2  0
  1  4  1  0
  1 24  1  0
  1  2  1  6
  1  3  2  0
  6 11  1  0
  6 12  1  0
 29 36  1  0
 29 37  1  0
  9  7  1  1
  7 13  1  0
 10  8  1  1
  8 14  1  0
 37 28  1  1
  4  5  1  0
 33 30  1  1
 30 38  1  0
 34 31  1  1
 31 39  1  0
 35 32  1  1
 32 40  1  0
 41 42  1  0
 41 43  1  0
 15 19  2  0
 16 22  2  0
 12 17  1  6
 17 19  1  0
 17 20  1  0
 18 19  1  0
 18 22  1  0
 18 23  1  0
  9 10  1  0
  9 11  1  0
 10 12  1  0
 11  5  1  6
 33 34  1  0
 33 35  1  0
 34 36  1  0
 35 37  1  0
 36 42  1  6
 20 21  2  0
 21 22  1  0
M  CHG  2   2  -1  26  -1
M  END
>  <COMPND>  (26) 
    8629 

>  <AUTHOR>  (26) 
    GENERATED BY OPEN BABEL 3.1.1

>  <MASTER>  (26) 
        0    0    0    0    0    0    0    0   58    0   58    0

>  <minimizedAffinity>  (26) 
-6.76355

>  <CNNscore>  (26) 
0.7011163831

>  <CNNaffinity>  (26) 
4.2671475410

>  <CNN_VS>  (26) 
2.9917671680

>  <CNNaffinity_variance>  (26) 
0.5393137336

$$$$
27
     RDKit          3D

 43 45  0  0  0  0  0  0  0  0999 V2000
   20.2815   73.8104   -2.8370 P   0  0  2  0  0  0  0  0  0  0  0  0
   19.9462   75.3708   -3.1020 O   0  0  0  0  0  0  0  0  0  0  0  0
   19.1441   72.8656   -3.0922 O   0  0  0  0  0  0  0  0  0  0  0  0
   20.8866   73.7925   -1.3366 O   0  0  0  0  0  0  0  0  0  0  0  0
   22.2247   73.3642   -1.1523 C   0  0  0  0  0  0  0  0  0  0  0  0
   23.5250   71.7173    0.0184 O   0  0  0  0  0  0  0  0  0  0  0  0
   20.9116   70.4297    0.7275 O   0  0  0  0  0  0  0  0  0  0  0  0
   21.5529   71.7711    3.0135 O   0  0  0  0  0  0  0  0  0  0  0  0
   21.2309   71.8147    0.6040 C   0  0  1  0  0  0  0  0  0  0  0  0
   22.0529   72.2726    1.7907 C   0  0  2  0  0  0  0  0  0  0  0  0
   22.2190   71.9678   -0.5455 C   0  0  1  0  0  0  0  0  0  0  0  0
   23.4282   71.7232    1.4521 C   0  0  2  0  0  0  0  0  0  0  0  0
   20.2814   70.3070    1.4554 H   0  0  0  0  0  0  0  0  0  0  0  0
   20.6765   72.1499    3.1844 H   0  0  0  0  0  0  0  0  0  0  0  0
   25.9255   70.7174    2.3064 O   0  0  0  0  0  0  0  0  0  0  0  0
   27.4167   74.9144    3.4911 O   0  0  0  0  0  0  0  0  0  0  0  0
   24.4877   72.5307    1.9876 N   0  0  0  0  0  0  0  0  0  0  0  0
   26.6661   72.8080    2.8954 N   0  0  0  0  0  0  0  0  0  0  0  0
   25.7024   71.9271    2.3882 C   0  0  0  0  0  0  0  0  0  0  0  0
   24.3168   73.9053    2.1108 C   0  0  0  0  0  0  0  0  0  0  0  0
   25.2451   74.7314    2.5977 C   0  0  0  0  0  0  0  0  0  0  0  0
   26.5430   74.1810    3.0389 C   0  0  0  0  0  0  0  0  0  0  0  0
   27.5202   72.4099    3.1812 H   0  0  0  0  0  0  0  0  0  0  0  0
   21.5857   73.5574   -3.7579 O   0  0  0  0  0  0  0  0  0  0  0  0
   21.9544   72.3500   -4.7674 P   0  0  2  0  0  0  0  0  0  0  0  0
   21.9354   71.0464   -3.8094 O   0  0  0  0  0  0  0  0  0  0  0  0
   23.2387   72.5472   -5.5195 O   0  0  0  0  0  0  0  0  0  0  0  0
   20.6495   72.1872   -5.7032 O   0  0  0  0  0  0  0  0  0  0  0  0
   19.3338   70.2164   -5.6623 O   0  0  0  0  0  0  0  0  0  0  0  0
   18.3554   71.5847   -9.4334 O   0  0  0  0  0  0  0  0  0  0  0  0
   16.4222   71.7574   -7.3166 O   0  0  0  0  0  0  0  0  0  0  0  0
   21.0675   71.8543   -8.4582 O   0  0  0  0  0  0  0  0  0  0  0  0
   18.6981   71.7091   -8.0505 C   0  0  1  0  0  0  0  0  0  0  0  0
   17.6244   70.9981   -7.2244 C   0  0  1  0  0  0  0  0  0  0  0  0
   20.0665   71.0719   -7.8161 C   0  0  2  0  0  0  0  0  0  0  0  0
   18.0562   70.8569   -5.7586 C   0  0  1  0  0  0  0  0  0  0  0  0
   20.3771   70.9338   -6.3246 C   0  0  1  0  0  0  0  0  0  0  0  0
   17.4877   71.9877   -9.5891 H   0  0  0  0  0  0  0  0  0  0  0  0
   16.1607   71.8395   -8.2472 H   0  0  0  0  0  0  0  0  0  0  0  0
   20.8596   71.9341   -9.4017 H   0  0  0  0  0  0  0  0  0  0  0  0
   16.2415   69.3055   -5.8532 O   0  0  0  0  0  0  0  0  0  0  0  0
   17.0722   70.0132   -4.9512 C   0  0  0  0  0  0  0  0  0  0  0  0
   15.6102   68.7639   -5.3533 H   0  0  0  0  0  0  0  0  0  0  0  0
 25 28  1  0
 25 24  1  0
 25 26  1  1
 25 27  2  0
  1  4  1  0
  1 24  1  0
  1  2  1  6
  1  3  2  0
  6 11  1  0
  6 12  1  0
 29 36  1  0
 29 37  1  0
  9  7  1  1
  7 13  1  0
 10  8  1  1
  8 14  1  0
 37 28  1  1
  4  5  1  0
 33 30  1  6
 30 38  1  0
 34 31  1  1
 31 39  1  0
 35 32  1  6
 32 40  1  0
 41 42  1  0
 41 43  1  0
 15 19  2  0
 16 22  2  0
 12 17  1  1
 17 19  1  0
 17 20  1  0
 18 19  1  0
 18 22  1  0
 18 23  1  0
  9 10  1  0
  9 11  1  0
 10 12  1  0
 11  5  1  1
 33 34  1  0
 33 35  1  0
 34 36  1  0
 35 37  1  0
 36 42  1  1
 20 21  2  0
 21 22  1  0
M  CHG  2   2  -1  26  -1
M  END
>  <COMPND>  (27) 
    8629 

>  <AUTHOR>  (27) 
    GENERATED BY OPEN BABEL 3.1.1

>  <MASTER>  (27) 
        0    0    0    0    0    0    0    0   58    0   58    0

>  <minimizedAffinity>  (27) 
-6.88707

>  <CNNscore>  (27) 
0.6991763711

>  <CNNaffinity>  (27) 
4.3053164482

>  <CNN_VS>  (27) 
3.0101754665

>  <CNNaffinity_variance>  (27) 
0.1513366252

$$$$
28
     RDKit          3D

 43 45  0  0  0  0  0  0  0  0999 V2000
   23.5514   72.6826   -3.5962 P   0  0  2  0  0  0  0  0  0  0  0  0
   23.9347   71.1714   -3.1639 O   0  0  0  0  0  0  0  0  0  0  0  0
   24.6231   73.4185   -4.3453 O   0  0  0  0  0  0  0  0  0  0  0  0
   23.0613   73.3691   -2.2155 O   0  0  0  0  0  0  0  0  0  0  0  0
   22.1143   74.4210   -2.2824 C   0  0  0  0  0  0  0  0  0  0  0  0
   21.1359   72.7592   -0.8489 O   0  0  0  0  0  0  0  0  0  0  0  0
   19.1025   74.8433   -0.1332 O   0  0  0  0  0  0  0  0  0  0  0  0
   20.7958   74.9066    2.0035 O   0  0  0  0  0  0  0  0  0  0  0  0
   20.4940   74.9972   -0.4073 C   0  0  1  0  0  0  0  0  0  0  0  0
   21.3186   74.4916    0.7580 C   0  0  2  0  0  0  0  0  0  0  0  0
   20.8664   74.0146   -1.5106 C   0  0  1  0  0  0  0  0  0  0  0  0
   21.2460   72.9863    0.5657 C   0  0  2  0  0  0  0  0  0  0  0  0
   18.8410   75.4610    0.5683 H   0  0  0  0  0  0  0  0  0  0  0  0
   20.8645   75.8712    2.0779 H   0  0  0  0  0  0  0  0  0  0  0  0
   21.3635   70.2331    1.1853 O   0  0  0  0  0  0  0  0  0  0  0  0
   25.7887   70.5176    2.4417 O   0  0  0  0  0  0  0  0  0  0  0  0
   22.4163   72.3145    1.0562 N   0  0  0  0  0  0  0  0  0  0  0  0
   23.5668   70.3769    1.8102 N   0  0  0  0  0  0  0  0  0  0  0  0
   22.3695   70.9292    1.3375 C   0  0  0  0  0  0  0  0  0  0  0  0
   23.5935   73.0280    1.2531 C   0  0  0  0  0  0  0  0  0  0  0  0
   24.7265   72.4868    1.7057 C   0  0  0  0  0  0  0  0  0  0  0  0
   24.7623   71.0447    2.0237 C   0  0  0  0  0  0  0  0  0  0  0  0
   23.5579   69.4134    2.0133 H   0  0  0  0  0  0  0  0  0  0  0  0
   22.1713   72.4875   -4.4149 O   0  0  0  0  0  0  0  0  0  0  0  0
   21.6504   73.1549   -5.7919 P   0  0  2  0  0  0  0  0  0  0  0  0
   22.6953   72.5961   -6.8935 O   0  0  0  0  0  0  0  0  0  0  0  0
   21.5393   74.6514   -5.7469 O   0  0  0  0  0  0  0  0  0  0  0  0
   20.2666   72.3909   -6.1183 O   0  0  0  0  0  0  0  0  0  0  0  0
   19.5953   70.2173   -5.4540 O   0  0  0  0  0  0  0  0  0  0  0  0
   17.7450   70.3811   -9.1418 O   0  0  0  0  0  0  0  0  0  0  0  0
   16.1609   70.5473   -6.7520 O   0  0  0  0  0  0  0  0  0  0  0  0
   20.3725   71.5443   -8.7917 O   0  0  0  0  0  0  0  0  0  0  0  0
   18.2275   70.9053   -7.9018 C   0  0  1  0  0  0  0  0  0  0  0  0
   17.5316   70.1583   -6.7622 C   0  0  1  0  0  0  0  0  0  0  0  0
   19.7403   70.7060   -7.8305 C   0  0  2  0  0  0  0  0  0  0  0  0
   18.1868   70.4747   -5.4110 C   0  0  1  0  0  0  0  0  0  0  0  0
   20.2835   71.0005   -6.4311 C   0  0  1  0  0  0  0  0  0  0  0  0
   16.7850   70.5050   -9.1936 H   0  0  0  0  0  0  0  0  0  0  0  0
   15.7591   70.3426   -7.6110 H   0  0  0  0  0  0  0  0  0  0  0  0
   20.0203   71.3479   -9.6733 H   0  0  0  0  0  0  0  0  0  0  0  0
   16.7155   68.6797   -4.8435 O   0  0  0  0  0  0  0  0  0  0  0  0
   17.6117   69.6213   -4.2827 C   0  0  0  0  0  0  0  0  0  0  0  0
   16.3418   68.1293   -4.1370 H   0  0  0  0  0  0  0  0  0  0  0  0
 25 28  1  0
 25 24  1  0
 25 26  1  6
 25 27  2  0
  1  4  1  0
  1 24  1  0
  1  2  1  1
  1  3  2  0
  6 11  1  0
  6 12  1  0
 29 36  1  0
 29 37  1  0
  9  7  1  1
  7 13  1  0
 10  8  1  1
  8 14  1  0
 37 28  1  1
  4  5  1  0
 33 30  1  6
 30 38  1  0
 34 31  1  1
 31 39  1  0
 35 32  1  6
 32 40  1  0
 41 42  1  0
 41 43  1  0
 15 19  2  0
 16 22  2  0
 12 17  1  6
 17 19  1  0
 17 20  1  0
 18 19  1  0
 18 22  1  0
 18 23  1  0
  9 10  1  0
  9 11  1  0
 10 12  1  0
 11  5  1  1
 33 34  1  0
 33 35  1  0
 34 36  1  0
 35 37  1  0
 36 42  1  1
 20 21  2  0
 21 22  1  0
M  CHG  2   2  -1  26  -1
M  END
>  <COMPND>  (28) 
    8629 

>  <AUTHOR>  (28) 
    GENERATED BY OPEN BABEL 3.1.1

>  <MASTER>  (28) 
        0    0    0    0    0    0    0    0   58    0   58    0

>  <minimizedAffinity>  (28) 
-7.53761

>  <CNNscore>  (28) 
0.6759309173

>  <CNNaffinity>  (28) 
4.3977704048

>  <CNN_VS>  (28) 
2.9725890160

>  <CNNaffinity_variance>  (28) 
0.0916061774

$$$$
29
     RDKit          3D

 43 45  0  0  0  0  0  0  0  0999 V2000
   23.1735   73.5011   -4.2136 P   0  0  2  0  0  0  0  0  0  0  0  0
   24.1784   72.2379   -4.1041 O   0  0  0  0  0  0  0  0  0  0  0  0
   23.6909   74.6542   -5.0224 O   0  0  0  0  0  0  0  0  0  0  0  0
   22.7989   73.8339   -2.6752 O   0  0  0  0  0  0  0  0  0  0  0  0
   22.8340   75.1844   -2.2477 C   0  0  0  0  0  0  0  0  0  0  0  0
   21.3653   74.1860   -0.6291 O   0  0  0  0  0  0  0  0  0  0  0  0
   20.7876   76.9800    0.2933 O   0  0  0  0  0  0  0  0  0  0  0  0
   22.5644   76.0926    2.1620 O   0  0  0  0  0  0  0  0  0  0  0  0
   22.0113   76.4219   -0.1825 C   0  0  1  0  0  0  0  0  0  0  0  0
   22.6234   75.5220    0.8706 C   0  0  2  0  0  0  0  0  0  0  0  0
   21.6757   75.4318   -1.2909 C   0  0  1  0  0  0  0  0  0  0  0  0
   21.7743   74.2683    0.7460 C   0  0  2  0  0  0  0  0  0  0  0  0
   20.9764   77.6159    1.0018 H   0  0  0  0  0  0  0  0  0  0  0  0
   23.1204   76.8867    2.1905 H   0  0  0  0  0  0  0  0  0  0  0  0
   20.6330   72.0037    1.9897 O   0  0  0  0  0  0  0  0  0  0  0  0
   24.6589   69.7604    2.0137 O   0  0  0  0  0  0  0  0  0  0  0  0
   22.5011   73.0784    1.0883 N   0  0  0  0  0  0  0  0  0  0  0  0
   22.6385   70.8885    2.0004 N   0  0  0  0  0  0  0  0  0  0  0  0
   21.8339   71.9981    1.7115 C   0  0  0  0  0  0  0  0  0  0  0  0
   23.8599   72.9909    0.8058 C   0  0  0  0  0  0  0  0  0  0  0  0
   24.6132   71.9261    1.0889 C   0  0  0  0  0  0  0  0  0  0  0  0
   23.9931   70.7544    1.7405 C   0  0  0  0  0  0  0  0  0  0  0  0
   22.1953   70.1240    2.4351 H   0  0  0  0  0  0  0  0  0  0  0  0
   21.8145   72.8362   -4.7828 O   0  0  0  0  0  0  0  0  0  0  0  0
   20.7757   71.7991   -4.1059 P   0  0  2  0  0  0  0  0  0  0  0  0
   19.8807   72.7443   -3.1451 O   0  0  0  0  0  0  0  0  0  0  0  0
   21.4290   70.6440   -3.4037 O   0  0  0  0  0  0  0  0  0  0  0  0
   19.7804   71.3771   -5.3043 O   0  0  0  0  0  0  0  0  0  0  0  0
   19.8348   71.4669   -7.6719 O   0  0  0  0  0  0  0  0  0  0  0  0
   16.0255   72.9316   -7.0433 O   0  0  0  0  0  0  0  0  0  0  0  0
   16.3700   70.2847   -8.1031 O   0  0  0  0  0  0  0  0  0  0  0  0
   18.1730   73.6767   -5.2510 O   0  0  0  0  0  0  0  0  0  0  0  0
   17.1658   72.1101   -6.7782 C   0  0  1  0  0  0  0  0  0  0  0  0
   17.4248   71.2378   -8.0082 C   0  0  1  0  0  0  0  0  0  0  0  0
   18.3698   73.0051   -6.4906 C   0  0  2  0  0  0  0  0  0  0  0  0
   18.7807   70.5261   -7.9070 C   0  0  1  0  0  0  0  0  0  0  0  0
   19.6735   72.2053   -6.4592 C   0  0  1  0  0  0  0  0  0  0  0  0
   15.2574   72.3694   -7.2263 H   0  0  0  0  0  0  0  0  0  0  0  0
   15.5194   70.7471   -8.1659 H   0  0  0  0  0  0  0  0  0  0  0  0
   17.3448   74.1796   -5.2837 H   0  0  0  0  0  0  0  0  0  0  0  0
   18.2654   70.2199  -10.2199 O   0  0  0  0  0  0  0  0  0  0  0  0
   19.1301   69.7761   -9.1906 C   0  0  0  0  0  0  0  0  0  0  0  0
   18.4765   69.7513  -11.0431 H   0  0  0  0  0  0  0  0  0  0  0  0
 25 28  1  0
 25 24  1  0
 25 26  1  1
 25 27  2  0
  1  4  1  0
  1 24  1  0
  1  2  1  1
  1  3  2  0
  6 11  1  0
  6 12  1  0
 29 36  1  0
 29 37  1  0
  9  7  1  1
  7 13  1  0
 10  8  1  1
  8 14  1  0
 37 28  1  1
  4  5  1  0
 33 30  1  6
 30 38  1  0
 34 31  1  1
 31 39  1  0
 35 32  1  1
 32 40  1  0
 41 42  1  0
 41 43  1  0
 15 19  2  0
 16 22  2  0
 12 17  1  6
 17 19  1  0
 17 20  1  0
 18 19  1  0
 18 22  1  0
 18 23  1  0
  9 10  1  0
  9 11  1  0
 10 12  1  0
 11  5  1  6
 33 34  1  0
 33 35  1  0
 34 36  1  0
 35 37  1  0
 36 42  1  6
 20 21  2  0
 21 22  1  0
M  CHG  2   2  -1  26  -1
M  END
>  <COMPND>  (29) 
    8629 

>  <AUTHOR>  (29) 
    GENERATED BY OPEN BABEL 3.1.1

>  <MASTER>  (29) 
        0    0    0    0    0    0    0    0   58    0   58    0

>  <minimizedAffinity>  (29) 
-6.37603

>  <CNNscore>  (29) 
0.5627512336

>  <CNNaffinity>  (29) 
4.2424159050

>  <CNN_VS>  (29) 
2.3874247074

>  <CNNaffinity_variance>  (29) 
0.2585602701

$$$$
30
     RDKit          3D

 43 45  0  0  0  0  0  0  0  0999 V2000
   21.9834   72.4636   -5.7264 P   0  0  2  0  0  0  0  0  0  0  0  0
   21.3069   73.7622   -5.0385 O   0  0  0  0  0  0  0  0  0  0  0  0
   23.0689   72.7645   -6.7176 O   0  0  0  0  0  0  0  0  0  0  0  0
   20.7227   71.6257   -6.2979 O   0  0  0  0  0  0  0  0  0  0  0  0
   20.2713   71.8965   -7.6134 C   0  0  0  0  0  0  0  0  0  0  0  0
   18.9541   69.9775   -7.0168 O   0  0  0  0  0  0  0  0  0  0  0  0
   18.0901   69.9115   -9.8873 O   0  0  0  0  0  0  0  0  0  0  0  0
   15.9586   71.0807   -8.6518 O   0  0  0  0  0  0  0  0  0  0  0  0
   18.3566   71.0361   -9.0510 C   0  0  1  0  0  0  0  0  0  0  0  0
   17.2313   71.2299   -8.0561 C   0  0  2  0  0  0  0  0  0  0  0  0
   19.5263   70.6787   -8.1425 C   0  0  1  0  0  0  0  0  0  0  0  0
   17.5274   70.1485   -7.0309 C   0  0  2  0  0  0  0  0  0  0  0  0
   17.3468   70.1161  -10.4769 H   0  0  0  0  0  0  0  0  0  0  0  0
   15.8176   71.7919   -9.2960 H   0  0  0  0  0  0  0  0  0  0  0  0
   16.5835   68.3098   -5.1058 O   0  0  0  0  0  0  0  0  0  0  0  0
   15.8660   71.6438   -2.0057 O   0  0  0  0  0  0  0  0  0  0  0  0
   17.0878   70.5086   -5.7124 N   0  0  0  0  0  0  0  0  0  0  0  0
   16.2272   69.9713   -3.5637 N   0  0  0  0  0  0  0  0  0  0  0  0
   16.6312   69.5086   -4.8225 C   0  0  0  0  0  0  0  0  0  0  0  0
   17.1124   71.8405   -5.3134 C   0  0  0  0  0  0  0  0  0  0  0  0
   16.7225   72.2656   -4.1099 C   0  0  0  0  0  0  0  0  0  0  0  0
   16.2317   71.2845   -3.1206 C   0  0  0  0  0  0  0  0  0  0  0  0
   15.9049   69.2925   -2.9272 H   0  0  0  0  0  0  0  0  0  0  0  0
   22.4577   71.5846   -4.4554 O   0  0  0  0  0  0  0  0  0  0  0  0
   23.4658   71.9328   -3.2408 P   0  0  2  0  0  0  0  0  0  0  0  0
   24.1566   73.3162   -3.7169 O   0  0  0  0  0  0  0  0  0  0  0  0
   24.4374   70.8360   -2.9137 O   0  0  0  0  0  0  0  0  0  0  0  0
   22.5013   72.3583   -2.0186 O   0  0  0  0  0  0  0  0  0  0  0  0
   21.9328   71.1944   -0.0341 O   0  0  0  0  0  0  0  0  0  0  0  0
   18.2975   72.9932   -0.8084 O   0  0  0  0  0  0  0  0  0  0  0  0
   19.9150   73.9434    1.3661 O   0  0  0  0  0  0  0  0  0  0  0  0
   19.8983   71.9730   -2.9938 O   0  0  0  0  0  0  0  0  0  0  0  0
   19.7242   72.8990   -0.7772 C   0  0  1  0  0  0  0  0  0  0  0  0
   20.1612   72.7202    0.6781 C   0  0  1  0  0  0  0  0  0  0  0  0
   20.1642   71.7044   -1.6214 C   0  0  2  0  0  0  0  0  0  0  0  0
   21.6468   72.3459    0.7684 C   0  0  1  0  0  0  0  0  0  0  0  0
   21.6471   71.3866   -1.4209 C   0  0  1  0  0  0  0  0  0  0  0  0
   18.0115   73.7501   -0.2747 H   0  0  0  0  0  0  0  0  0  0  0  0
   18.9736   74.1685    1.3011 H   0  0  0  0  0  0  0  0  0  0  0  0
   18.9564   72.1724   -3.1076 H   0  0  0  0  0  0  0  0  0  0  0  0
   20.9036   71.9447    3.0034 O   0  0  0  0  0  0  0  0  0  0  0  0
   22.0658   72.0089    2.1977 C   0  0  0  0  0  0  0  0  0  0  0  0
   21.1549   71.7307    3.9160 H   0  0  0  0  0  0  0  0  0  0  0  0
 25 28  1  0
 25 24  1  0
 25 26  1  6
 25 27  2  0
  1  4  1  0
  1 24  1  0
  1  2  1  1
  1  3  2  0
  6 11  1  0
  6 12  1  0
 29 36  1  0
 29 37  1  0
  9  7  1  6
  7 13  1  0
 10  8  1  6
  8 14  1  0
 37 28  1  1
  4  5  1  0
 33 30  1  1
 30 38  1  0
 34 31  1  1
 31 39  1  0
 35 32  1  6
 32 40  1  0
 41 42  1  0
 41 43  1  0
 15 19  2  0
 16 22  2  0
 12 17  1  1
 17 19  1  0
 17 20  1  0
 18 19  1  0
 18 22  1  0
 18 23  1  0
  9 10  1  0
  9 11  1  0
 10 12  1  0
 11  5  1  1
 33 34  1  0
 33 35  1  0
 34 36  1  0
 35 37  1  0
 36 42  1  1
 20 21  2  0
 21 22  1  0
M  CHG  2   2  -1  26  -1
M  END
>  <COMPND>  (30) 
    8629 

>  <AUTHOR>  (30) 
    GENERATED BY OPEN BABEL 3.1.1

>  <MASTER>  (30) 
        0    0    0    0    0    0    0    0   58    0   58    0

>  <minimizedAffinity>  (30) 
-7.44247

>  <CNNscore>  (30) 
0.5579568148

>  <CNNaffinity>  (30) 
4.2452788353

>  <CNN_VS>  (30) 
2.3686821461

>  <CNNaffinity_variance>  (30) 
0.5039036870

$$$$
31
     RDKit          3D

 43 45  0  0  0  0  0  0  0  0999 V2000
   22.3179   72.1948   -2.5530 P   0  0  2  0  0  0  0  0  0  0  0  0
   21.5728   70.7638   -2.4325 O   0  0  0  0  0  0  0  0  0  0  0  0
   23.4290   72.4156   -1.5690 O   0  0  0  0  0  0  0  0  0  0  0  0
   21.1085   73.2682   -2.4996 O   0  0  0  0  0  0  0  0  0  0  0  0
   21.0990   74.2246   -1.4541 C   0  0  0  0  0  0  0  0  0  0  0  0
   20.5828   72.5651    0.2052 O   0  0  0  0  0  0  0  0  0  0  0  0
   18.6884   74.5809    1.3621 O   0  0  0  0  0  0  0  0  0  0  0  0
   20.8483   74.7779    3.0152 O   0  0  0  0  0  0  0  0  0  0  0  0
   19.9613   74.7857    0.7514 C   0  0  1  0  0  0  0  0  0  0  0  0
   21.0696   74.3495    1.6869 C   0  0  2  0  0  0  0  0  0  0  0  0
   20.0992   73.7881   -0.3919 C   0  0  1  0  0  0  0  0  0  0  0  0
   21.0248   72.8376    1.5451 C   0  0  2  0  0  0  0  0  0  0  0  0
   18.5772   75.2071    2.0952 H   0  0  0  0  0  0  0  0  0  0  0  0
   20.8865   75.7463    3.0534 H   0  0  0  0  0  0  0  0  0  0  0  0
   21.5559   70.0823    1.2219 O   0  0  0  0  0  0  0  0  0  0  0  0
   25.9950   70.6201    2.3384 O   0  0  0  0  0  0  0  0  0  0  0  0
   22.3105   72.2305    1.7445 N   0  0  0  0  0  0  0  0  0  0  0  0
   23.7658   70.3524    1.7779 N   0  0  0  0  0  0  0  0  0  0  0  0
   22.4706   70.8378    1.5571 C   0  0  0  0  0  0  0  0  0  0  0  0
   23.3959   73.0140    2.1213 C   0  0  0  0  0  0  0  0  0  0  0  0
   24.6243   72.5355    2.3292 C   0  0  0  0  0  0  0  0  0  0  0  0
   24.8766   71.0906    2.1547 C   0  0  0  0  0  0  0  0  0  0  0  0
   23.9011   69.3849    1.6537 H   0  0  0  0  0  0  0  0  0  0  0  0
   22.7737   72.2378   -4.1032 O   0  0  0  0  0  0  0  0  0  0  0  0
   22.0535   72.8716   -5.4042 P   0  0  2  0  0  0  0  0  0  0  0  0
   22.9651   72.3381   -6.6298 O   0  0  0  0  0  0  0  0  0  0  0  0
   21.8951   74.3637   -5.3542 O   0  0  0  0  0  0  0  0  0  0  0  0
   20.6676   72.0560   -5.5419 O   0  0  0  0  0  0  0  0  0  0  0  0
   19.1720   72.0196   -7.3800 O   0  0  0  0  0  0  0  0  0  0  0  0
   16.4476   71.6084   -4.3044 O   0  0  0  0  0  0  0  0  0  0  0  0
   17.0382   69.3564   -5.9860 O   0  0  0  0  0  0  0  0  0  0  0  0
   18.7297   73.3608   -3.9872 O   0  0  0  0  0  0  0  0  0  0  0  0
   17.6988   71.4188   -4.9707 C   0  0  1  0  0  0  0  0  0  0  0  0
   17.4340   70.6910   -6.2901 C   0  0  1  0  0  0  0  0  0  0  0  0
   18.3390   72.7817   -5.2276 C   0  0  2  0  0  0  0  0  0  0  0  0
   18.6832   70.6879   -7.1815 C   0  0  1  0  0  0  0  0  0  0  0  0
   19.5434   72.6725   -6.1644 C   0  0  1  0  0  0  0  0  0  0  0  0
   16.0361   70.7467   -4.1378 H   0  0  0  0  0  0  0  0  0  0  0  0
   16.2487   69.3725   -5.4223 H   0  0  0  0  0  0  0  0  0  0  0  0
   17.9585   73.4248   -3.4032 H   0  0  0  0  0  0  0  0  0  0  0  0
   17.0276   70.3053   -8.8611 O   0  0  0  0  0  0  0  0  0  0  0  0
   18.3975   70.1067   -8.5645 C   0  0  0  0  0  0  0  0  0  0  0  0
   16.8312   69.9406   -9.7387 H   0  0  0  0  0  0  0  0  0  0  0  0
 25 28  1  0
 25 24  1  0
 25 26  1  6
 25 27  2  0
  1  4  1  0
  1 24  1  0
  1  2  1  1
  1  3  2  0
  6 11  1  0
  6 12  1  0
 29 36  1  0
 29 37  1  0
  9  7  1  1
  7 13  1  0
 10  8  1  1
  8 14  1  0
 37 28  1  1
  4  5  1  0
 33 30  1  6
 30 38  1  0
 34 31  1  1
 31 39  1  0
 35 32  1  1
 32 40  1  0
 41 42  1  0
 41 43  1  0
 15 19  2  0
 16 22  2  0
 12 17  1  6
 17 19  1  0
 17 20  1  0
 18 19  1  0
 18 22  1  0
 18 23  1  0
  9 10  1  0
  9 11  1  0
 10 12  1  0
 11  5  1  6
 33 34  1  0
 33 35  1  0
 34 36  1  0
 35 37  1  0
 36 42  1  6
 20 21  2  0
 21 22  1  0
M  CHG  2   2  -1  26  -1
M  END
>  <COMPND>  (31) 
    8629 

>  <AUTHOR>  (31) 
    GENERATED BY OPEN BABEL 3.1.1

>  <MASTER>  (31) 
        0    0    0    0    0    0    0    0   58    0   58    0

>  <minimizedAffinity>  (31) 
-6.26137

>  <CNNscore>  (31) 
0.5398277640

>  <CNNaffinity>  (31) 
4.2038469315

>  <CNN_VS>  (31) 
2.2693533897

>  <CNNaffinity_variance>  (31) 
0.1096409932

$$$$
32
     RDKit          3D

 43 45  0  0  0  0  0  0  0  0999 V2000
   18.7213   73.3709   -3.1694 P   0  0  2  0  0  0  0  0  0  0  0  0
   18.8347   74.9839   -3.1181 O   0  0  0  0  0  0  0  0  0  0  0  0
   17.4884   72.8433   -3.8426 O   0  0  0  0  0  0  0  0  0  0  0  0
   18.9298   72.9177   -1.6302 O   0  0  0  0  0  0  0  0  0  0  0  0
   19.7591   73.7103   -0.7985 C   0  0  0  0  0  0  0  0  0  0  0  0
   21.8803   73.6662    0.3294 O   0  0  0  0  0  0  0  0  0  0  0  0
   22.4282   71.1441   -1.1969 O   0  0  0  0  0  0  0  0  0  0  0  0
   21.7143   70.2072    1.2626 O   0  0  0  0  0  0  0  0  0  0  0  0
   21.1992   71.6182   -0.6492 C   0  0  1  0  0  0  0  0  0  0  0  0
   21.1984   71.4586    0.8569 C   0  0  2  0  0  0  0  0  0  0  0  0
   21.1680   73.1331   -0.8084 C   0  0  1  0  0  0  0  0  0  0  0  0
   22.0712   72.6214    1.2974 C   0  0  2  0  0  0  0  0  0  0  0  0
   22.4709   70.1786   -1.1070 H   0  0  0  0  0  0  0  0  0  0  0  0
   21.1241   69.5000    0.9588 H   0  0  0  0  0  0  0  0  0  0  0  0
   23.1153   71.6355    3.7296 O   0  0  0  0  0  0  0  0  0  0  0  0
   20.6092   74.5970    6.2177 O   0  0  0  0  0  0  0  0  0  0  0  0
   21.7093   73.1168    2.5955 N   0  0  0  0  0  0  0  0  0  0  0  0
   21.8667   73.1110    4.9665 N   0  0  0  0  0  0  0  0  0  0  0  0
   22.2910   72.5518    3.7544 C   0  0  0  0  0  0  0  0  0  0  0  0
   20.7874   74.1516    2.7102 C   0  0  0  0  0  0  0  0  0  0  0  0
   20.3924   74.6727    3.8736 C   0  0  0  0  0  0  0  0  0  0  0  0
   20.9523   74.1392    5.1321 C   0  0  0  0  0  0  0  0  0  0  0  0
   22.2583   72.7331    5.7873 H   0  0  0  0  0  0  0  0  0  0  0  0
   20.1104   72.9309   -3.8691 O   0  0  0  0  0  0  0  0  0  0  0  0
   20.7600   73.3429   -5.2908 P   0  0  2  0  0  0  0  0  0  0  0  0
   22.1538   72.5216   -5.3139 O   0  0  0  0  0  0  0  0  0  0  0  0
   20.9100   74.8229   -5.4931 O   0  0  0  0  0  0  0  0  0  0  0  0
   19.8355   72.6077   -6.3907 O   0  0  0  0  0  0  0  0  0  0  0  0
   19.0438   70.4037   -6.0272 O   0  0  0  0  0  0  0  0  0  0  0  0
   18.7740   70.5308  -10.1457 O   0  0  0  0  0  0  0  0  0  0  0  0
   16.3779   70.6133   -8.5645 O   0  0  0  0  0  0  0  0  0  0  0  0
   21.0090   71.7911   -8.8055 O   0  0  0  0  0  0  0  0  0  0  0  0
   18.7136   71.0615   -8.8190 C   0  0  1  0  0  0  0  0  0  0  0  0
   17.6581   70.2776   -8.0365 C   0  0  1  0  0  0  0  0  0  0  0  0
   20.0853   70.9199   -8.1618 C   0  0  2  0  0  0  0  0  0  0  0  0
   17.7213   70.6062   -6.5388 C   0  0  1  0  0  0  0  0  0  0  0  0
   20.0275   71.2221   -6.6633 C   0  0  1  0  0  0  0  0  0  0  0  0
   17.9063   70.6180  -10.5687 H   0  0  0  0  0  0  0  0  0  0  0  0
   16.3514   70.4013   -9.5108 H   0  0  0  0  0  0  0  0  0  0  0  0
   21.0366   71.5895   -9.7534 H   0  0  0  0  0  0  0  0  0  0  0  0
   15.9648   70.5529   -4.9199 O   0  0  0  0  0  0  0  0  0  0  0  0
   16.7855   69.7208   -5.7190 C   0  0  0  0  0  0  0  0  0  0  0  0
   15.3637   70.0029   -4.3928 H   0  0  0  0  0  0  0  0  0  0  0  0
 25 28  1  0
 25 24  1  0
 25 26  1  1
 25 27  2  0
  1  4  1  0
  1 24  1  0
  1  2  1  1
  1  3  2  0
  6 11  1  0
  6 12  1  0
 29 36  1  0
 29 37  1  0
  9  7  1  1
  7 13  1  0
 10  8  1  6
  8 14  1  0
 37 28  1  6
  4  5  1  0
 33 30  1  6
 30 38  1  0
 34 31  1  6
 31 39  1  0
 35 32  1  6
 32 40  1  0
 41 42  1  0
 41 43  1  0
 15 19  2  0
 16 22  2  0
 12 17  1  1
 17 19  1  0
 17 20  1  0
 18 19  1  0
 18 22  1  0
 18 23  1  0
  9 10  1  0
  9 11  1  0
 10 12  1  0
 11  5  1  1
 33 34  1  0
 33 35  1  0
 34 36  1  0
 35 37  1  0
 36 42  1  1
 20 21  2  0
 21 22  1  0
M  CHG  2   2  -1  26  -1
M  END
>  <COMPND>  (32) 
    8629 

>  <AUTHOR>  (32) 
    GENERATED BY OPEN BABEL 3.1.1

>  <MASTER>  (32) 
        0    0    0    0    0    0    0    0   58    0   58    0

>  <minimizedAffinity>  (32) 
-6.63160

>  <CNNscore>  (32) 
0.5258309841

>  <CNNaffinity>  (32) 
3.9683601856

>  <CNN_VS>  (32) 
2.0866868496

>  <CNNaffinity_variance>  (32) 
0.0662477463

$$$$
33
     RDKit          3D

 43 45  0  0  0  0  0  0  0  0999 V2000
   22.4750   72.5451   -4.8576 P   0  0  2  0  0  0  0  0  0  0  0  0
   21.6054   73.8688   -4.5273 O   0  0  0  0  0  0  0  0  0  0  0  0
   23.9368   72.6506   -4.5360 O   0  0  0  0  0  0  0  0  0  0  0  0
   22.1170   72.2205   -6.4017 O   0  0  0  0  0  0  0  0  0  0  0  0
   20.7603   72.2745   -6.8070 C   0  0  0  0  0  0  0  0  0  0  0  0
   19.4771   70.3324   -6.2108 O   0  0  0  0  0  0  0  0  0  0  0  0
   19.5716   69.6079   -9.1189 O   0  0  0  0  0  0  0  0  0  0  0  0
   17.0742   70.6700   -8.8518 O   0  0  0  0  0  0  0  0  0  0  0  0
   19.4711   70.8954   -8.5127 C   0  0  1  0  0  0  0  0  0  0  0  0
   18.0777   71.1086   -7.9589 C   0  0  2  0  0  0  0  0  0  0  0  0
   20.3185   70.8853   -7.2465 C   0  0  1  0  0  0  0  0  0  0  0  0
   18.1190   70.2917   -6.6787 C   0  0  2  0  0  0  0  0  0  0  0  0
   19.0388   69.5901   -9.9299 H   0  0  0  0  0  0  0  0  0  0  0  0
   17.0882   71.2207   -9.6501 H   0  0  0  0  0  0  0  0  0  0  0  0
   16.7936   68.7329   -4.7316 O   0  0  0  0  0  0  0  0  0  0  0  0
   14.8424   72.4463   -2.8225 O   0  0  0  0  0  0  0  0  0  0  0  0
   17.2588   70.8252   -5.6605 N   0  0  0  0  0  0  0  0  0  0  0  0
   15.8233   70.5832   -3.7825 N   0  0  0  0  0  0  0  0  0  0  0  0
   16.6406   69.9561   -4.7315 C   0  0  0  0  0  0  0  0  0  0  0  0
   17.0357   72.1960   -5.5902 C   0  0  0  0  0  0  0  0  0  0  0  0
   16.2524   72.7781   -4.6798 C   0  0  0  0  0  0  0  0  0  0  0  0
   15.5692   71.9411   -3.6725 C   0  0  0  0  0  0  0  0  0  0  0  0
   15.3819   69.9976   -3.1252 H   0  0  0  0  0  0  0  0  0  0  0  0
   21.6908   71.3844   -4.0511 O   0  0  0  0  0  0  0  0  0  0  0  0
   20.5029   71.4681   -2.9580 P   0  0  2  0  0  0  0  0  0  0  0  0
   19.7707   70.0320   -3.0949 O   0  0  0  0  0  0  0  0  0  0  0  0
   19.5901   72.6475   -3.1304 O   0  0  0  0  0  0  0  0  0  0  0  0
   21.2554   71.4077   -1.5314 O   0  0  0  0  0  0  0  0  0  0  0  0
   21.5710   73.1770    0.0133 O   0  0  0  0  0  0  0  0  0  0  0  0
   25.0443   71.0581    0.7185 O   0  0  0  0  0  0  0  0  0  0  0  0
   22.9397   71.0218    2.6724 O   0  0  0  0  0  0  0  0  0  0  0  0
   24.0236   71.3011   -1.9794 O   0  0  0  0  0  0  0  0  0  0  0  0
   23.6596   71.2215    0.4002 C   0  0  1  0  0  0  0  0  0  0  0  0
   22.9779   71.9282    1.5736 C   0  0  1  0  0  0  0  0  0  0  0  0
   23.5353   72.0542   -0.8744 C   0  0  2  0  0  0  0  0  0  0  0  0
   21.5583   72.3766    1.2011 C   0  0  1  0  0  0  0  0  0  0  0  0
   22.0905   72.4892   -1.1263 C   0  0  1  0  0  0  0  0  0  0  0  0
   25.1301   70.5299    1.5267 H   0  0  0  0  0  0  0  0  0  0  0  0
   23.8422   70.7460    2.8971 H   0  0  0  0  0  0  0  0  0  0  0  0
   24.9390   71.0319   -1.8078 H   0  0  0  0  0  0  0  0  0  0  0  0
   20.2517   72.3550    3.2014 O   0  0  0  0  0  0  0  0  0  0  0  0
   20.9181   73.2207    2.3010 C   0  0  0  0  0  0  0  0  0  0  0  0
   19.8396   72.8784    3.9071 H   0  0  0  0  0  0  0  0  0  0  0  0
 25 28  1  0
 25 24  1  0
 25 26  1  6
 25 27  2  0
  1  4  1  0
  1 24  1  0
  1  2  1  1
  1  3  2  0
  6 11  1  0
  6 12  1  0
 29 36  1  0
 29 37  1  0
  9  7  1  1
  7 13  1  0
 10  8  1  6
  8 14  1  0
 37 28  1  1
  4  5  1  0
 33 30  1  1
 30 38  1  0
 34 31  1  1
 31 39  1  0
 35 32  1  6
 32 40  1  0
 41 42  1  0
 41 43  1  0
 15 19  2  0
 16 22  2  0
 12 17  1  1
 17 19  1  0
 17 20  1  0
 18 19  1  0
 18 22  1  0
 18 23  1  0
  9 10  1  0
  9 11  1  0
 10 12  1  0
 11  5  1  1
 33 34  1  0
 33 35  1  0
 34 36  1  0
 35 37  1  0
 36 42  1  1
 20 21  2  0
 21 22  1  0
M  CHG  2   2  -1  26  -1
M  END
>  <COMPND>  (33) 
    8629 

>  <AUTHOR>  (33) 
    GENERATED BY OPEN BABEL 3.1.1

>  <MASTER>  (33) 
        0    0    0    0    0    0    0    0   58    0   58    0

>  <minimizedAffinity>  (33) 
-7.01157

>  <CNNscore>  (33) 
0.5137391686

>  <CNNaffinity>  (33) 
4.2334833145

>  <CNN_VS>  (33) 
2.1749062538

>  <CNNaffinity_variance>  (33) 
0.3588051796

$$$$
34
     RDKit          3D

 43 45  0  0  0  0  0  0  0  0999 V2000
   19.3648   70.7699   -2.4891 P   0  0  2  0  0  0  0  0  0  0  0  0
   18.4200   72.0655   -2.2747 O   0  0  0  0  0  0  0  0  0  0  0  0
   18.6620   69.5530   -3.0152 O   0  0  0  0  0  0  0  0  0  0  0  0
   20.1077   70.5906   -1.0629 O   0  0  0  0  0  0  0  0  0  0  0  0
   20.6556   71.7378   -0.4371 C   0  0  0  0  0  0  0  0  0  0  0  0
   23.0545   71.8606   -0.4999 O   0  0  0  0  0  0  0  0  0  0  0  0
   22.9803   71.1519    2.4127 O   0  0  0  0  0  0  0  0  0  0  0  0
   23.3862   73.8480    2.4671 O   0  0  0  0  0  0  0  0  0  0  0  0
   22.0811   71.9628    1.6583 C   0  0  1  0  0  0  0  0  0  0  0  0
   22.7147   73.3032    1.3494 C   0  0  2  0  0  0  0  0  0  0  0  0
   21.9458   71.3477    0.2709 C   0  0  1  0  0  0  0  0  0  0  0  0
   23.6606   72.9505    0.2140 C   0  0  2  0  0  0  0  0  0  0  0  0
   23.0824   71.5247    3.3029 H   0  0  0  0  0  0  0  0  0  0  0  0
   22.7420   74.0557    3.1618 H   0  0  0  0  0  0  0  0  0  0  0  0
   25.3761   75.1381    0.7130 O   0  0  0  0  0  0  0  0  0  0  0  0
   24.3537   77.0979   -3.3311 O   0  0  0  0  0  0  0  0  0  0  0  0
   23.8620   74.0463   -0.6915 N   0  0  0  0  0  0  0  0  0  0  0  0
   24.8658   76.1121   -1.3011 N   0  0  0  0  0  0  0  0  0  0  0  0
   24.7447   75.0957   -0.3449 C   0  0  0  0  0  0  0  0  0  0  0  0
   23.1886   74.0730   -1.9079 C   0  0  0  0  0  0  0  0  0  0  0  0
   23.3140   75.0501   -2.8082 C   0  0  0  0  0  0  0  0  0  0  0  0
   24.2168   76.1841   -2.5235 C   0  0  0  0  0  0  0  0  0  0  0  0
   25.4750   76.8538   -1.0811 H   0  0  0  0  0  0  0  0  0  0  0  0
   20.5418   71.3323   -3.4437 O   0  0  0  0  0  0  0  0  0  0  0  0
   20.5364   72.5033   -4.5580 P   0  0  2  0  0  0  0  0  0  0  0  0
   21.9728   72.3327   -5.2826 O   0  0  0  0  0  0  0  0  0  0  0  0
   20.2800   73.8761   -4.0068 O   0  0  0  0  0  0  0  0  0  0  0  0
   19.4633   72.0138   -5.6598 O   0  0  0  0  0  0  0  0  0  0  0  0
   18.7038   69.8159   -6.1170 O   0  0  0  0  0  0  0  0  0  0  0  0
   18.5973   71.3606   -9.9450 O   0  0  0  0  0  0  0  0  0  0  0  0
   16.1384   70.8767   -8.5424 O   0  0  0  0  0  0  0  0  0  0  0  0
   20.7498   72.0910   -8.1526 O   0  0  0  0  0  0  0  0  0  0  0  0
   18.4725   71.3984   -8.5208 C   0  0  1  0  0  0  0  0  0  0  0  0
   17.4030   70.3860   -8.1061 C   0  0  1  0  0  0  0  0  0  0  0  0
   19.8193   71.0457   -7.8922 C   0  0  2  0  0  0  0  0  0  0  0  0
   17.3990   70.1757   -6.5860 C   0  0  1  0  0  0  0  0  0  0  0  0
   19.6950   70.8095   -6.3859 C   0  0  1  0  0  0  0  0  0  0  0  0
   17.7457   71.5841  -10.3504 H   0  0  0  0  0  0  0  0  0  0  0  0
   16.1544   71.0056   -9.5038 H   0  0  0  0  0  0  0  0  0  0  0  0
   20.8197   72.2306   -9.1094 H   0  0  0  0  0  0  0  0  0  0  0  0
   16.6082   68.8292   -4.7776 O   0  0  0  0  0  0  0  0  0  0  0  0
   16.4496   69.0558   -6.1660 C   0  0  0  0  0  0  0  0  0  0  0  0
   16.0098   68.1190   -4.4960 H   0  0  0  0  0  0  0  0  0  0  0  0
 25 28  1  0
 25 24  1  0
 25 26  1  6
 25 27  2  0
  1  4  1  0
  1 24  1  0
  1  2  1  1
  1  3  2  0
  6 11  1  0
  6 12  1  0
 29 36  1  0
 29 37  1  0
  9  7  1  1
  7 13  1  0
 10  8  1  1
  8 14  1  0
 37 28  1  1
  4  5  1  0
 33 30  1  6
 30 38  1  0
 34 31  1  1
 31 39  1  0
 35 32  1  1
 32 40  1  0
 41 42  1  0
 41 43  1  0
 15 19  2  0
 16 22  2  0
 12 17  1  6
 17 19  1  0
 17 20  1  0
 18 19  1  0
 18 22  1  0
 18 23  1  0
  9 10  1  0
  9 11  1  0
 10 12  1  0
 11  5  1  6
 33 34  1  0
 33 35  1  0
 34 36  1  0
 35 37  1  0
 36 42  1  6
 20 21  2  0
 21 22  1  0
M  CHG  2   2  -1  26  -1
M  END
>  <COMPND>  (34) 
    8629 

>  <AUTHOR>  (34) 
    GENERATED BY OPEN BABEL 3.1.1

>  <MASTER>  (34) 
        0    0    0    0    0    0    0    0   58    0   58    0

>  <minimizedAffinity>  (34) 
-6.51838

>  <CNNscore>  (34) 
0.4909561276

>  <CNNaffinity>  (34) 
4.0405936241

>  <CNN_VS>  (34) 
1.9837541580

>  <CNNaffinity_variance>  (34) 
0.0756915137

$$$$
35
     RDKit          3D

 43 45  0  0  0  0  0  0  0  0999 V2000
   20.7273   75.5999   -2.4932 P   0  0  2  0  0  0  0  0  0  0  0  0
   19.9803   75.7889   -1.0706 O   0  0  0  0  0  0  0  0  0  0  0  0
   20.2503   76.5113   -3.5855 O   0  0  0  0  0  0  0  0  0  0  0  0
   20.5966   74.0153   -2.7930 O   0  0  0  0  0  0  0  0  0  0  0  0
   20.2116   73.6027   -4.0928 C   0  0  0  0  0  0  0  0  0  0  0  0
   20.5017   71.4154   -5.0443 O   0  0  0  0  0  0  0  0  0  0  0  0
   23.2202   72.3512   -5.8956 O   0  0  0  0  0  0  0  0  0  0  0  0
   21.7709   72.5647   -8.1957 O   0  0  0  0  0  0  0  0  0  0  0  0
   21.9951   73.0792   -5.8300 C   0  0  1  0  0  0  0  0  0  0  0  0
   21.0809   72.6737   -6.9673 C   0  0  2  0  0  0  0  0  0  0  0  0
   21.2229   72.5896   -4.6113 C   0  0  1  0  0  0  0  0  0  0  0  0
   20.5428   71.3396   -6.4787 C   0  0  2  0  0  0  0  0  0  0  0  0
   23.7310   72.6469   -6.6661 H   0  0  0  0  0  0  0  0  0  0  0  0
   22.0935   73.4391   -8.4641 H   0  0  0  0  0  0  0  0  0  0  0  0
   19.9830   70.0257   -8.9156 O   0  0  0  0  0  0  0  0  0  0  0  0
   15.4331   70.3582   -8.2609 O   0  0  0  0  0  0  0  0  0  0  0  0
   19.2209   71.0692   -6.9694 N   0  0  0  0  0  0  0  0  0  0  0  0
   17.7180   70.1922   -8.5875 N   0  0  0  0  0  0  0  0  0  0  0  0
   19.0489   70.4043   -8.2059 C   0  0  0  0  0  0  0  0  0  0  0  0
   18.1124   71.4619   -6.2272 C   0  0  0  0  0  0  0  0  0  0  0  0
   16.8497   71.2532   -6.6058 C   0  0  0  0  0  0  0  0  0  0  0  0
   16.5828   70.5647   -7.8851 C   0  0  0  0  0  0  0  0  0  0  0  0
   17.5737   69.7310   -9.4456 H   0  0  0  0  0  0  0  0  0  0  0  0
   22.2884   75.7695   -2.1093 O   0  0  0  0  0  0  0  0  0  0  0  0
   23.3866   74.6860   -1.6267 P   0  0  2  0  0  0  0  0  0  0  0  0
   24.6196   75.6056   -1.1251 O   0  0  0  0  0  0  0  0  0  0  0  0
   23.7543   73.6745   -2.6735 O   0  0  0  0  0  0  0  0  0  0  0  0
   22.7717   74.0556   -0.2742 O   0  0  0  0  0  0  0  0  0  0  0  0
   23.6921   71.9588    0.3364 O   0  0  0  0  0  0  0  0  0  0  0  0
   20.4042   71.9888    2.8345 O   0  0  0  0  0  0  0  0  0  0  0  0
   23.0277   72.3700    3.9390 O   0  0  0  0  0  0  0  0  0  0  0  0
   20.1871   73.0477    0.1491 O   0  0  0  0  0  0  0  0  0  0  0  0
   21.4967   72.5628    2.1116 C   0  0  1  0  0  0  0  0  0  0  0  0
   22.7921   71.9180    2.6084 C   0  0  1  0  0  0  0  0  0  0  0  0
   21.3021   72.2981    0.6198 C   0  0  2  0  0  0  0  0  0  0  0  0
   23.9757   72.2833    1.7025 C   0  0  1  0  0  0  0  0  0  0  0  0
   22.5549   72.6498   -0.1844 C   0  0  1  0  0  0  0  0  0  0  0  0
   20.5214   72.1537    3.7824 H   0  0  0  0  0  0  0  0  0  0  0  0
   22.2728   72.1334    4.5006 H   0  0  0  0  0  0  0  0  0  0  0  0
   19.4004   72.8158    0.6659 H   0  0  0  0  0  0  0  0  0  0  0  0
   25.5771   70.6417    1.0322 O   0  0  0  0  0  0  0  0  0  0  0  0
   25.2450   71.5261    2.0866 C   0  0  0  0  0  0  0  0  0  0  0  0
   26.3833   70.1531    1.2626 H   0  0  0  0  0  0  0  0  0  0  0  0
 25 28  1  0
 25 24  1  0
 25 26  1  1
 25 27  2  0
  1  4  1  0
  1 24  1  0
  1  2  1  1
  1  3  2  0
  6 11  1  0
  6 12  1  0
 29 36  1  0
 29 37  1  0
  9  7  1  6
  7 13  1  0
 10  8  1  6
  8 14  1  0
 37 28  1  1
  4  5  1  0
 33 30  1  1
 30 38  1  0
 34 31  1  1
 31 39  1  0
 35 32  1  6
 32 40  1  0
 41 42  1  0
 41 43  1  0
 15 19  2  0
 16 22  2  0
 12 17  1  6
 17 19  1  0
 17 20  1  0
 18 19  1  0
 18 22  1  0
 18 23  1  0
  9 10  1  0
  9 11  1  0
 10 12  1  0
 11  5  1  6
 33 34  1  0
 33 35  1  0
 34 36  1  0
 35 37  1  0
 36 42  1  1
 20 21  2  0
 21 22  1  0
M  CHG  2   2  -1  26  -1
M  END
>  <COMPND>  (35) 
    8629 

>  <AUTHOR>  (35) 
    GENERATED BY OPEN BABEL 3.1.1

>  <MASTER>  (35) 
        0    0    0    0    0    0    0    0   58    0   58    0

>  <minimizedAffinity>  (35) 
-6.40399

>  <CNNscore>  (35) 
0.4617958665

>  <CNNaffinity>  (35) 
4.1172308922

>  <CNN_VS>  (35) 
1.9013202190

>  <CNNaffinity_variance>  (35) 
0.1223740131

$$$$
36
     RDKit          3D

 43 45  0  0  0  0  0  0  0  0999 V2000
   23.4052   72.4342   -3.7352 P   0  0  2  0  0  0  0  0  0  0  0  0
   24.2241   71.1285   -3.2432 O   0  0  0  0  0  0  0  0  0  0  0  0
   24.2418   73.6593   -3.9604 O   0  0  0  0  0  0  0  0  0  0  0  0
   22.2201   72.5835   -2.6437 O   0  0  0  0  0  0  0  0  0  0  0  0
   22.5713   72.8414   -1.2954 C   0  0  0  0  0  0  0  0  0  0  0  0
   23.7224   71.3470    0.1931 O   0  0  0  0  0  0  0  0  0  0  0  0
   21.0196   70.2390    0.8699 O   0  0  0  0  0  0  0  0  0  0  0  0
   21.5380   71.8770    2.9877 O   0  0  0  0  0  0  0  0  0  0  0  0
   21.3962   71.5838    0.5783 C   0  0  1  0  0  0  0  0  0  0  0  0
   22.1443   72.1861    1.7493 C   0  0  2  0  0  0  0  0  0  0  0  0
   22.4713   71.5466   -0.5006 C   0  0  1  0  0  0  0  0  0  0  0  0
   23.5204   71.5601    1.5997 C   0  0  2  0  0  0  0  0  0  0  0  0
   20.3335   70.2372    1.5564 H   0  0  0  0  0  0  0  0  0  0  0  0
   20.6654   72.2979    3.0347 H   0  0  0  0  0  0  0  0  0  0  0  0
   26.0767   70.6515    2.3856 O   0  0  0  0  0  0  0  0  0  0  0  0
   27.4502   74.9087    3.4954 O   0  0  0  0  0  0  0  0  0  0  0  0
   24.5655   72.4094    2.0975 N   0  0  0  0  0  0  0  0  0  0  0  0
   26.7586   72.7720    2.9374 N   0  0  0  0  0  0  0  0  0  0  0  0
   25.8126   71.8530    2.4656 C   0  0  0  0  0  0  0  0  0  0  0  0
   24.3489   73.7780    2.2161 C   0  0  0  0  0  0  0  0  0  0  0  0
   25.2609   74.6407    2.6690 C   0  0  0  0  0  0  0  0  0  0  0  0
   26.5903   74.1408    3.0749 C   0  0  0  0  0  0  0  0  0  0  0  0
   27.6347   72.4071    3.2002 H   0  0  0  0  0  0  0  0  0  0  0  0
   22.6257   71.9013   -5.0472 O   0  0  0  0  0  0  0  0  0  0  0  0
   21.2246   72.3611   -5.7094 P   0  0  2  0  0  0  0  0  0  0  0  0
   21.4238   72.0145   -7.2771 O   0  0  0  0  0  0  0  0  0  0  0  0
   20.8528   73.7892   -5.4332 O   0  0  0  0  0  0  0  0  0  0  0  0
   20.1499   71.2768   -5.1855 O   0  0  0  0  0  0  0  0  0  0  0  0
   17.8738   71.9356   -5.2268 O   0  0  0  0  0  0  0  0  0  0  0  0
   17.5774   68.6971   -2.6822 O   0  0  0  0  0  0  0  0  0  0  0  0
   16.5610   68.4935   -5.3605 O   0  0  0  0  0  0  0  0  0  0  0  0
   19.8680   70.4592   -2.5159 O   0  0  0  0  0  0  0  0  0  0  0  0
   18.0940   69.4419   -3.7884 C   0  0  1  0  0  0  0  0  0  0  0  0
   16.9425   69.7257   -4.7550 C   0  0  1  0  0  0  0  0  0  0  0  0
   18.6974   70.7472   -3.2731 C   0  0  2  0  0  0  0  0  0  0  0  0
   17.3571   70.7422   -5.8274 C   0  0  1  0  0  0  0  0  0  0  0  0
   19.0290   71.7067   -4.4175 C   0  0  1  0  0  0  0  0  0  0  0  0
   17.1931   67.8669   -3.0024 H   0  0  0  0  0  0  0  0  0  0  0  0
   16.3020   67.8604   -4.6726 H   0  0  0  0  0  0  0  0  0  0  0  0
   19.6448   69.8513   -1.7945 H   0  0  0  0  0  0  0  0  0  0  0  0
   15.8618   70.0836   -7.5707 O   0  0  0  0  0  0  0  0  0  0  0  0
   16.1798   71.1588   -6.7062 C   0  0  0  0  0  0  0  0  0  0  0  0
   15.1138   70.3343   -8.1359 H   0  0  0  0  0  0  0  0  0  0  0  0
 25 28  1  0
 25 24  1  0
 25 26  1  6
 25 27  2  0
  1  4  1  0
  1 24  1  0
  1  2  1  1
  1  3  2  0
  6 11  1  0
  6 12  1  0
 29 36  1  0
 29 37  1  0
  9  7  1  1
  7 13  1  0
 10  8  1  1
  8 14  1  0
 37 28  1  6
  4  5  1  0
 33 30  1  1
 30 38  1  0
 34 31  1  6
 31 39  1  0
 35 32  1  6
 32 40  1  0
 41 42  1  0
 41 43  1  0
 15 19  2  0
 16 22  2  0
 12 17  1  6
 17 19  1  0
 17 20  1  0
 18 19  1  0
 18 22  1  0
 18 23  1  0
  9 10  1  0
  9 11  1  0
 10 12  1  0
 11  5  1  1
 33 34  1  0
 33 35  1  0
 34 36  1  0
 35 37  1  0
 36 42  1  1
 20 21  2  0
 21 22  1  0
M  CHG  2   2  -1  26  -1
M  END
>  <COMPND>  (36) 
    8629 

>  <AUTHOR>  (36) 
    GENERATED BY OPEN BABEL 3.1.1

>  <MASTER>  (36) 
        0    0    0    0    0    0    0    0   58    0   58    0

>  <minimizedAffinity>  (36) 
-7.38152

>  <CNNscore>  (36) 
0.4226565361

>  <CNNaffinity>  (36) 
4.0434479713

>  <CNN_VS>  (36) 
1.7089897394

>  <CNNaffinity_variance>  (36) 
0.3302108943

$$$$
37
     RDKit          3D

 43 45  0  0  0  0  0  0  0  0999 V2000
   23.4947   72.3729   -3.2940 P   0  0  2  0  0  0  0  0  0  0  0  0
   24.1525   70.9097   -3.0848 O   0  0  0  0  0  0  0  0  0  0  0  0
   24.4528   73.4420   -3.7304 O   0  0  0  0  0  0  0  0  0  0  0  0
   22.7170   72.6516   -1.9028 O   0  0  0  0  0  0  0  0  0  0  0  0
   23.4764   72.7413   -0.7099 C   0  0  0  0  0  0  0  0  0  0  0  0
   23.9218   71.6654    1.3919 O   0  0  0  0  0  0  0  0  0  0  0  0
   21.3278   70.2169    0.9870 O   0  0  0  0  0  0  0  0  0  0  0  0
   20.6440   72.1776    2.7546 O   0  0  0  0  0  0  0  0  0  0  0  0
   21.6762   71.5568    0.6426 C   0  0  1  0  0  0  0  0  0  0  0  0
   21.7304   72.4217    1.8846 C   0  0  2  0  0  0  0  0  0  0  0  0
   23.1304   71.5615    0.1881 C   0  0  1  0  0  0  0  0  0  0  0  0
   23.0653   72.0211    2.4895 C   0  0  2  0  0  0  0  0  0  0  0  0
   20.4030   70.1886    1.2801 H   0  0  0  0  0  0  0  0  0  0  0  0
   19.8180   72.4488    2.3246 H   0  0  0  0  0  0  0  0  0  0  0  0
   22.4422   72.6669    5.1677 O   0  0  0  0  0  0  0  0  0  0  0  0
   25.4649   76.1457    5.2243 O   0  0  0  0  0  0  0  0  0  0  0  0
   23.6745   73.0905    3.2289 N   0  0  0  0  0  0  0  0  0  0  0  0
   23.9479   74.3984    5.1938 N   0  0  0  0  0  0  0  0  0  0  0  0
   23.2898   73.3318    4.5684 C   0  0  0  0  0  0  0  0  0  0  0  0
   24.6422   73.8866    2.6257 C   0  0  0  0  0  0  0  0  0  0  0  0
   25.2593   74.9007    3.2355 C   0  0  0  0  0  0  0  0  0  0  0  0
   24.9153   75.2194    4.6362 C   0  0  0  0  0  0  0  0  0  0  0  0
   23.6959   74.5854    6.1272 H   0  0  0  0  0  0  0  0  0  0  0  0
   22.2898   72.0846   -4.3324 O   0  0  0  0  0  0  0  0  0  0  0  0
   21.7951   72.9003   -5.6373 P   0  0  2  0  0  0  0  0  0  0  0  0
   22.7868   72.3736   -6.8021 O   0  0  0  0  0  0  0  0  0  0  0  0
   21.7820   74.3913   -5.4626 O   0  0  0  0  0  0  0  0  0  0  0  0
   20.3605   72.2569   -6.0016 O   0  0  0  0  0  0  0  0  0  0  0  0
   19.5452   70.1332   -5.3366 O   0  0  0  0  0  0  0  0  0  0  0  0
   17.6337   70.4618   -8.9820 O   0  0  0  0  0  0  0  0  0  0  0  0
   16.1175   70.7250   -6.5571 O   0  0  0  0  0  0  0  0  0  0  0  0
   20.3466   71.4260   -8.6820 O   0  0  0  0  0  0  0  0  0  0  0  0
   18.1799   70.9393   -7.7494 C   0  0  1  0  0  0  0  0  0  0  0  0
   17.4554   70.2365   -6.5997 C   0  0  1  0  0  0  0  0  0  0  0  0
   19.6751   70.6288   -7.7126 C   0  0  2  0  0  0  0  0  0  0  0  0
   18.1608   70.4931   -5.2612 C   0  0  1  0  0  0  0  0  0  0  0  0
   20.2682   70.8715   -6.3236 C   0  0  1  0  0  0  0  0  0  0  0  0
   16.6846   70.6562   -9.0120 H   0  0  0  0  0  0  0  0  0  0  0  0
   15.6835   70.5571   -7.4083 H   0  0  0  0  0  0  0  0  0  0  0  0
   19.9621   71.2630   -9.5570 H   0  0  0  0  0  0  0  0  0  0  0  0
   16.7317   68.6656   -4.6894 O   0  0  0  0  0  0  0  0  0  0  0  0
   17.5486   69.6753   -4.1260 C   0  0  0  0  0  0  0  0  0  0  0  0
   16.3355   68.1370   -3.9785 H   0  0  0  0  0  0  0  0  0  0  0  0
 25 28  1  0
 25 24  1  0
 25 26  1  6
 25 27  2  0
  1  4  1  0
  1 24  1  0
  1  2  1  1
  1  3  2  0
  6 11  1  0
  6 12  1  0
 29 36  1  0
 29 37  1  0
  9  7  1  1
  7 13  1  0
 10  8  1  1
  8 14  1  0
 37 28  1  1
  4  5  1  0
 33 30  1  6
 30 38  1  0
 34 31  1  1
 31 39  1  0
 35 32  1  6
 32 40  1  0
 41 42  1  0
 41 43  1  0
 15 19  2  0
 16 22  2  0
 12 17  1  6
 17 19  1  0
 17 20  1  0
 18 19  1  0
 18 22  1  0
 18 23  1  0
  9 10  1  0
  9 11  1  0
 10 12  1  0
 11  5  1  6
 33 34  1  0
 33 35  1  0
 34 36  1  0
 35 37  1  0
 36 42  1  1
 20 21  2  0
 21 22  1  0
M  CHG  2   2  -1  26  -1
M  END
>  <COMPND>  (37) 
    8629 

>  <AUTHOR>  (37) 
    GENERATED BY OPEN BABEL 3.1.1

>  <MASTER>  (37) 
        0    0    0    0    0    0    0    0   58    0   58    0

>  <minimizedAffinity>  (37) 
-7.65433

>  <CNNscore>  (37) 
0.4198454618

>  <CNNaffinity>  (37) 
3.9925899506

>  <CNN_VS>  (37) 
1.6762707233

>  <CNNaffinity_variance>  (37) 
0.2316946089

$$$$
38
     RDKit          3D

 43 45  0  0  0  0  0  0  0  0999 V2000
   20.4709   71.3823   -1.8968 P   0  0  2  0  0  0  0  0  0  0  0  0
   20.1330   70.5065   -0.5792 O   0  0  0  0  0  0  0  0  0  0  0  0
   21.4942   70.7790   -2.8135 O   0  0  0  0  0  0  0  0  0  0  0  0
   20.8307   72.8460   -1.3085 O   0  0  0  0  0  0  0  0  0  0  0  0
   21.2642   73.8493   -2.2103 C   0  0  0  0  0  0  0  0  0  0  0  0
   21.9165   74.6770   -0.0509 O   0  0  0  0  0  0  0  0  0  0  0  0
   23.0151   77.0591   -1.5031 O   0  0  0  0  0  0  0  0  0  0  0  0
   25.2523   75.5801   -1.0095 O   0  0  0  0  0  0  0  0  0  0  0  0
   22.9937   75.6898   -1.9028 C   0  0  1  0  0  0  0  0  0  0  0  0
   24.0200   74.8975   -1.1200 C   0  0  2  0  0  0  0  0  0  0  0  0
   21.6842   75.0800   -1.4183 C   0  0  1  0  0  0  0  0  0  0  0  0
   23.3269   74.7216    0.2204 C   0  0  2  0  0  0  0  0  0  0  0  0
   23.8421   77.4700   -1.8017 H   0  0  0  0  0  0  0  0  0  0  0  0
   25.6540   75.6669   -1.8881 H   0  0  0  0  0  0  0  0  0  0  0  0
   23.6735   74.4651    3.0118 O   0  0  0  0  0  0  0  0  0  0  0  0
   24.8123   70.0142    2.6459 O   0  0  0  0  0  0  0  0  0  0  0  0
   23.7132   73.5071    0.8816 N   0  0  0  0  0  0  0  0  0  0  0  0
   24.2401   72.2490    2.8273 N   0  0  0  0  0  0  0  0  0  0  0  0
   23.8607   73.4849    2.2881 C   0  0  0  0  0  0  0  0  0  0  0  0
   23.9413   72.3550    0.1369 C   0  0  0  0  0  0  0  0  0  0  0  0
   24.3038   71.1847    0.6663 C   0  0  0  0  0  0  0  0  0  0  0  0
   24.4796   71.0762    2.1289 C   0  0  0  0  0  0  0  0  0  0  0  0
   24.3493   72.2098    3.8053 H   0  0  0  0  0  0  0  0  0  0  0  0
   19.0170   71.6072   -2.5665 O   0  0  0  0  0  0  0  0  0  0  0  0
   17.8155   70.5690   -2.8689 P   0  0  2  0  0  0  0  0  0  0  0  0
   16.4926   71.3992   -2.4469 O   0  0  0  0  0  0  0  0  0  0  0  0
   17.9602   69.2428   -2.1802 O   0  0  0  0  0  0  0  0  0  0  0  0
   17.7461   70.4824   -4.4791 O   0  0  0  0  0  0  0  0  0  0  0  0
   19.1223   71.6842   -5.9885 O   0  0  0  0  0  0  0  0  0  0  0  0
   15.7354   71.3285   -8.3237 O   0  0  0  0  0  0  0  0  0  0  0  0
   18.0643   69.7718   -8.9570 O   0  0  0  0  0  0  0  0  0  0  0  0
   15.4848   71.8088   -5.4801 O   0  0  0  0  0  0  0  0  0  0  0  0
   16.7000   70.9087   -7.3548 C   0  0  1  0  0  0  0  0  0  0  0  0
   18.0702   70.8569   -8.0335 C   0  0  1  0  0  0  0  0  0  0  0  0
   16.7108   71.9052   -6.1971 C   0  0  2  0  0  0  0  0  0  0  0  0
   19.1925   70.6751   -7.0027 C   0  0  1  0  0  0  0  0  0  0  0  0
   17.8944   71.6668   -5.2578 C   0  0  1  0  0  0  0  0  0  0  0  0
   15.7232   70.6998   -9.0613 H   0  0  0  0  0  0  0  0  0  0  0  0
   17.3508   69.8985   -9.6021 H   0  0  0  0  0  0  0  0  0  0  0  0
   14.7433   71.9619   -6.0857 H   0  0  0  0  0  0  0  0  0  0  0  0
   20.9842   69.4836   -8.0414 O   0  0  0  0  0  0  0  0  0  0  0  0
   20.5765   70.7785   -7.6398 C   0  0  0  0  0  0  0  0  0  0  0  0
   21.8634   69.5340   -8.4490 H   0  0  0  0  0  0  0  0  0  0  0  0
 25 28  1  0
 25 24  1  0
 25 26  1  1
 25 27  2  0
  1  4  1  0
  1 24  1  0
  1  2  1  1
  1  3  2  0
  6 11  1  0
  6 12  1  0
 29 36  1  0
 29 37  1  0
  9  7  1  1
  7 13  1  0
 10  8  1  1
  8 14  1  0
 37 28  1  6
  4  5  1  0
 33 30  1  6
 30 38  1  0
 34 31  1  6
 31 39  1  0
 35 32  1  1
 32 40  1  0
 41 42  1  0
 41 43  1  0
 15 19  2  0
 16 22  2  0
 12 17  1  6
 17 19  1  0
 17 20  1  0
 18 19  1  0
 18 22  1  0
 18 23  1  0
  9 10  1  0
  9 11  1  0
 10 12  1  0
 11  5  1  6
 33 34  1  0
 33 35  1  0
 34 36  1  0
 35 37  1  0
 36 42  1  6
 20 21  2  0
 21 22  1  0
M  CHG  2   2  -1  26  -1
M  END
>  <COMPND>  (38) 
    8629 

>  <AUTHOR>  (38) 
    GENERATED BY OPEN BABEL 3.1.1

>  <MASTER>  (38) 
        0    0    0    0    0    0    0    0   58    0   58    0

>  <minimizedAffinity>  (38) 
-6.63970

>  <CNNscore>  (38) 
0.4025108814

>  <CNNaffinity>  (38) 
4.0011739731

>  <CNN_VS>  (38) 
1.6105160713

>  <CNNaffinity_variance>  (38) 
0.1771169603

$$$$
39
     RDKit          3D

 43 45  0  0  0  0  0  0  0  0999 V2000
   19.3927   70.7911   -2.4604 P   0  0  2  0  0  0  0  0  0  0  0  0
   18.4246   72.0783   -2.3083 O   0  0  0  0  0  0  0  0  0  0  0  0
   18.7122   69.5378   -2.9268 O   0  0  0  0  0  0  0  0  0  0  0  0
   20.1383   70.6943   -1.0277 O   0  0  0  0  0  0  0  0  0  0  0  0
   20.3431   71.8867   -0.2902 C   0  0  0  0  0  0  0  0  0  0  0  0
   22.0224   73.4257    0.4747 O   0  0  0  0  0  0  0  0  0  0  0  0
   23.9467   71.1350    0.2733 O   0  0  0  0  0  0  0  0  0  0  0  0
   23.4154   71.2317    2.9463 O   0  0  0  0  0  0  0  0  0  0  0  0
   22.5755   71.1294    0.6670 C   0  0  1  0  0  0  0  0  0  0  0  0
   22.4254   71.7090    2.0581 C   0  0  2  0  0  0  0  0  0  0  0  0
   21.8383   72.1545   -0.1858 C   0  0  1  0  0  0  0  0  0  0  0  0
   22.5475   73.2000    1.7931 C   0  0  2  0  0  0  0  0  0  0  0  0
   24.4379   70.4877    0.8041 H   0  0  0  0  0  0  0  0  0  0  0  0
   23.2953   70.2790    3.0828 H   0  0  0  0  0  0  0  0  0  0  0  0
   23.3188   75.7611    2.7006 O   0  0  0  0  0  0  0  0  0  0  0  0
   19.6032   76.1236    5.4033 O   0  0  0  0  0  0  0  0  0  0  0  0
   21.8002   73.9864    2.7336 N   0  0  0  0  0  0  0  0  0  0  0  0
   21.4680   75.9396    4.0454 N   0  0  0  0  0  0  0  0  0  0  0  0
   22.2754   75.2599    3.1245 C   0  0  0  0  0  0  0  0  0  0  0  0
   20.6101   73.4937    3.2578 C   0  0  0  0  0  0  0  0  0  0  0  0
   19.8525   74.1539    4.1362 C   0  0  0  0  0  0  0  0  0  0  0  0
   20.2779   75.4915    4.5963 C   0  0  0  0  0  0  0  0  0  0  0  0
   21.7794   76.8287    4.3325 H   0  0  0  0  0  0  0  0  0  0  0  0
   20.5597   71.3279   -3.4417 O   0  0  0  0  0  0  0  0  0  0  0  0
   20.5506   72.4898   -4.5655 P   0  0  2  0  0  0  0  0  0  0  0  0
   21.9768   72.3011   -5.3059 O   0  0  0  0  0  0  0  0  0  0  0  0
   20.3125   73.8691   -4.0227 O   0  0  0  0  0  0  0  0  0  0  0  0
   19.4603   72.0004   -5.6502 O   0  0  0  0  0  0  0  0  0  0  0  0
   18.7101   69.8005   -6.1131 O   0  0  0  0  0  0  0  0  0  0  0  0
   18.5193   71.3782   -9.9243 O   0  0  0  0  0  0  0  0  0  0  0  0
   16.0911   70.8616   -8.4803 O   0  0  0  0  0  0  0  0  0  0  0  0
   20.6991   72.1104   -8.1659 O   0  0  0  0  0  0  0  0  0  0  0  0
   18.4210   71.4023   -8.4977 C   0  0  1  0  0  0  0  0  0  0  0  0
   17.3676   70.3775   -8.0723 C   0  0  1  0  0  0  0  0  0  0  0  0
   19.7821   71.0551   -7.8976 C   0  0  2  0  0  0  0  0  0  0  0  0
   17.3939   70.1537   -6.5543 C   0  0  1  0  0  0  0  0  0  0  0  0
   19.6880   70.8046   -6.3915 C   0  0  1  0  0  0  0  0  0  0  0  0
   17.6585   71.5983  -10.3116 H   0  0  0  0  0  0  0  0  0  0  0  0
   16.0881   70.9992   -9.4407 H   0  0  0  0  0  0  0  0  0  0  0  0
   20.7499   72.2590   -9.1225 H   0  0  0  0  0  0  0  0  0  0  0  0
   16.5475   68.8759   -4.7212 O   0  0  0  0  0  0  0  0  0  0  0  0
   16.4616   69.0222   -6.1268 C   0  0  0  0  0  0  0  0  0  0  0  0
   15.9591   68.1594   -4.4348 H   0  0  0  0  0  0  0  0  0  0  0  0
 25 28  1  0
 25 24  1  0
 25 26  1  6
 25 27  2  0
  1  4  1  0
  1 24  1  0
  1  2  1  1
  1  3  2  0
  6 11  1  0
  6 12  1  0
 29 36  1  0
 29 37  1  0
  9  7  1  6
  7 13  1  0
 10  8  1  1
  8 14  1  0
 37 28  1  1
  4  5  1  0
 33 30  1  6
 30 38  1  0
 34 31  1  1
 31 39  1  0
 35 32  1  1
 32 40  1  0
 41 42  1  0
 41 43  1  0
 15 19  2  0
 16 22  2  0
 12 17  1  1
 17 19  1  0
 17 20  1  0
 18 19  1  0
 18 22  1  0
 18 23  1  0
  9 10  1  0
  9 11  1  0
 10 12  1  0
 11  5  1  1
 33 34  1  0
 33 35  1  0
 34 36  1  0
 35 37  1  0
 36 42  1  6
 20 21  2  0
 21 22  1  0
M  CHG  2   2  -1  26  -1
M  END
>  <COMPND>  (39) 
    8629 

>  <AUTHOR>  (39) 
    GENERATED BY OPEN BABEL 3.1.1

>  <MASTER>  (39) 
        0    0    0    0    0    0    0    0   58    0   58    0

>  <minimizedAffinity>  (39) 
-6.45274

>  <CNNscore>  (39) 
0.3921845555

>  <CNNaffinity>  (39) 
3.9643356800

>  <CNN_VS>  (39) 
1.5547512770

>  <CNNaffinity_variance>  (39) 
0.0644055530

$$$$
40
     RDKit          3D

 43 45  0  0  0  0  0  0  0  0999 V2000
   23.6180   72.4493   -3.4978 P   0  0  2  0  0  0  0  0  0  0  0  0
   24.0657   70.9367   -3.1389 O   0  0  0  0  0  0  0  0  0  0  0  0
   24.6795   73.2872   -4.1478 O   0  0  0  0  0  0  0  0  0  0  0  0
   23.0274   73.0206   -2.1040 O   0  0  0  0  0  0  0  0  0  0  0  0
   21.7926   72.5095   -1.6329 C   0  0  0  0  0  0  0  0  0  0  0  0
   23.2981   72.3107    0.2293 O   0  0  0  0  0  0  0  0  0  0  0  0
   20.9235   71.3866    1.8098 O   0  0  0  0  0  0  0  0  0  0  0  0
   21.1756   73.9896    2.5828 O   0  0  0  0  0  0  0  0  0  0  0  0
   20.9937   72.3699    0.7786 C   0  0  1  0  0  0  0  0  0  0  0  0
   21.6478   73.6325    1.2997 C   0  0  2  0  0  0  0  0  0  0  0  0
   22.0039   71.8925   -0.2571 C   0  0  1  0  0  0  0  0  0  0  0  0
   23.1174   73.2474    1.3039 C   0  0  2  0  0  0  0  0  0  0  0  0
   20.2841   71.6693    2.4830 H   0  0  0  0  0  0  0  0  0  0  0  0
   20.2366   74.2261    2.5276 H   0  0  0  0  0  0  0  0  0  0  0  0
   25.6948   73.5216    2.4263 O   0  0  0  0  0  0  0  0  0  0  0  0
   26.3355   77.6177    0.4132 O   0  0  0  0  0  0  0  0  0  0  0  0
   23.9798   74.3751    1.0894 N   0  0  0  0  0  0  0  0  0  0  0  0
   26.0118   75.5608    1.4229 N   0  0  0  0  0  0  0  0  0  0  0  0
   25.2548   74.4154    1.7002 C   0  0  0  0  0  0  0  0  0  0  0  0
   23.5590   75.4253    0.2808 C   0  0  0  0  0  0  0  0  0  0  0  0
   24.2924   76.5112    0.0274 C   0  0  0  0  0  0  0  0  0  0  0  0
   25.6370   76.6317    0.6270 C   0  0  0  0  0  0  0  0  0  0  0  0
   26.9034   75.6110    1.8380 H   0  0  0  0  0  0  0  0  0  0  0  0
   22.2899   72.2324   -4.3934 O   0  0  0  0  0  0  0  0  0  0  0  0
   21.7532   73.0137   -5.7028 P   0  0  2  0  0  0  0  0  0  0  0  0
   22.7467   72.5026   -6.8730 O   0  0  0  0  0  0  0  0  0  0  0  0
   21.6947   74.5059   -5.5481 O   0  0  0  0  0  0  0  0  0  0  0  0
   20.3354   72.3200   -6.0400 O   0  0  0  0  0  0  0  0  0  0  0  0
   19.5237   70.1742   -5.4457 O   0  0  0  0  0  0  0  0  0  0  0  0
   17.8208   70.5095   -9.1926 O   0  0  0  0  0  0  0  0  0  0  0  0
   16.1618   70.7167   -6.8574 O   0  0  0  0  0  0  0  0  0  0  0  0
   20.4929   71.5201   -8.7252 O   0  0  0  0  0  0  0  0  0  0  0  0
   18.2854   70.9827   -7.9254 C   0  0  1  0  0  0  0  0  0  0  0  0
   17.5090   70.2535   -6.8272 C   0  0  1  0  0  0  0  0  0  0  0  0
   19.7816   70.6995   -7.8048 C   0  0  2  0  0  0  0  0  0  0  0  0
   18.1306   70.5076   -5.4473 C   0  0  1  0  0  0  0  0  0  0  0  0
   20.2885   70.9370   -6.3812 C   0  0  1  0  0  0  0  0  0  0  0  0
   16.8715   70.6868   -9.2757 H   0  0  0  0  0  0  0  0  0  0  0  0
   15.7812   70.5507   -7.7342 H   0  0  0  0  0  0  0  0  0  0  0  0
   20.1630   71.3602   -9.6227 H   0  0  0  0  0  0  0  0  0  0  0  0
   16.1240   70.0847   -4.2211 O   0  0  0  0  0  0  0  0  0  0  0  0
   17.4693   69.6656   -4.3583 C   0  0  0  0  0  0  0  0  0  0  0  0
   15.6904   69.5573   -3.5315 H   0  0  0  0  0  0  0  0  0  0  0  0
 25 28  1  0
 25 24  1  0
 25 26  1  6
 25 27  2  0
  1  4  1  0
  1 24  1  0
  1  2  1  1
  1  3  2  0
  6 11  1  0
  6 12  1  0
 29 36  1  0
 29 37  1  0
  9  7  1  1
  7 13  1  0
 10  8  1  1
  8 14  1  0
 37 28  1  1
  4  5  1  0
 33 30  1  6
 30 38  1  0
 34 31  1  1
 31 39  1  0
 35 32  1  6
 32 40  1  0
 41 42  1  0
 41 43  1  0
 15 19  2  0
 16 22  2  0
 12 17  1  6
 17 19  1  0
 17 20  1  0
 18 19  1  0
 18 22  1  0
 18 23  1  0
  9 10  1  0
  9 11  1  0
 10 12  1  0
 11  5  1  6
 33 34  1  0
 33 35  1  0
 34 36  1  0
 35 37  1  0
 36 42  1  1
 20 21  2  0
 21 22  1  0
M  CHG  2   2  -1  26  -1
M  END
>  <COMPND>  (40) 
    8629 

>  <AUTHOR>  (40) 
    GENERATED BY OPEN BABEL 3.1.1

>  <MASTER>  (40) 
        0    0    0    0    0    0    0    0   58    0   58    0

>  <minimizedAffinity>  (40) 
-6.75900

>  <CNNscore>  (40) 
0.3744974434

>  <CNNaffinity>  (40) 
4.0281386375

>  <CNN_VS>  (40) 
1.5085276365

>  <CNNaffinity_variance>  (40) 
0.2402421236

$$$$
41
     RDKit          3D

 43 45  0  0  0  0  0  0  0  0999 V2000
   20.6107   71.2795   -0.9819 P   0  0  2  0  0  0  0  0  0  0  0  0
   20.9019   70.4506    0.3767 O   0  0  0  0  0  0  0  0  0  0  0  0
   20.2734   72.7276   -0.7807 O   0  0  0  0  0  0  0  0  0  0  0  0
   19.4891   70.3960   -1.7431 O   0  0  0  0  0  0  0  0  0  0  0  0
   19.2006   70.6918   -3.0984 C   0  0  0  0  0  0  0  0  0  0  0  0
   17.4726   71.5857   -4.5087 O   0  0  0  0  0  0  0  0  0  0  0  0
   15.5627   69.9183   -2.9079 O   0  0  0  0  0  0  0  0  0  0  0  0
   15.8915   68.4359   -5.1730 O   0  0  0  0  0  0  0  0  0  0  0  0
   16.9004   69.6248   -3.3075 C   0  0  1  0  0  0  0  0  0  0  0  0
   16.9468   69.2913   -4.7841 C   0  0  2  0  0  0  0  0  0  0  0  0
   17.7025   70.9188   -3.2483 C   0  0  1  0  0  0  0  0  0  0  0  0
   16.8492   70.6671   -5.4210 C   0  0  2  0  0  0  0  0  0  0  0  0
   15.0312   69.1068   -2.9374 H   0  0  0  0  0  0  0  0  0  0  0  0
   15.9983   67.5737   -4.7418 H   0  0  0  0  0  0  0  0  0  0  0  0
   15.6361   70.1142   -7.9112 O   0  0  0  0  0  0  0  0  0  0  0  0
   19.5422   70.9562  -10.2078 O   0  0  0  0  0  0  0  0  0  0  0  0
   17.5257   70.7345   -6.6856 N   0  0  0  0  0  0  0  0  0  0  0  0
   17.5820   70.5341   -9.0527 N   0  0  0  0  0  0  0  0  0  0  0  0
   16.8255   70.4366   -7.8779 C   0  0  0  0  0  0  0  0  0  0  0  0
   18.8684   71.0931   -6.7350 C   0  0  0  0  0  0  0  0  0  0  0  0
   19.5758   71.1802   -7.8634 C   0  0  0  0  0  0  0  0  0  0  0  0
   18.9189   70.8851   -9.1532 C   0  0  0  0  0  0  0  0  0  0  0  0
   17.1152   70.3307   -9.8956 H   0  0  0  0  0  0  0  0  0  0  0  0
   21.9407   71.0144   -1.8615 O   0  0  0  0  0  0  0  0  0  0  0  0
   23.3564   71.7932   -1.9064 P   0  0  2  0  0  0  0  0  0  0  0  0
   24.2034   70.9604   -3.0049 O   0  0  0  0  0  0  0  0  0  0  0  0
   24.0309   71.9212   -0.5713 O   0  0  0  0  0  0  0  0  0  0  0  0
   23.0264   73.1994   -2.6265 O   0  0  0  0  0  0  0  0  0  0  0  0
   24.2850   75.0266   -3.4596 O   0  0  0  0  0  0  0  0  0  0  0  0
   21.3932   77.1124   -1.3769 O   0  0  0  0  0  0  0  0  0  0  0  0
   21.3373   77.0950   -4.2482 O   0  0  0  0  0  0  0  0  0  0  0  0
   22.4604   74.6499   -0.2919 O   0  0  0  0  0  0  0  0  0  0  0  0
   21.9070   76.0438   -2.1766 C   0  0  1  0  0  0  0  0  0  0  0  0
   22.4463   76.6367   -3.4798 C   0  0  1  0  0  0  0  0  0  0  0  0
   23.0200   75.3350   -1.4071 C   0  0  2  0  0  0  0  0  0  0  0  0
   23.2508   75.5962   -4.2706 C   0  0  1  0  0  0  0  0  0  0  0  0
   23.7890   74.3579   -2.2982 C   0  0  1  0  0  0  0  0  0  0  0  0
   20.6856   77.5662   -1.8595 H   0  0  0  0  0  0  0  0  0  0  0  0
   20.8375   77.7510   -3.7373 H   0  0  0  0  0  0  0  0  0  0  0  0
   21.9765   75.2794    0.2646 H   0  0  0  0  0  0  0  0  0  0  0  0
   23.0511   76.0939   -6.5989 O   0  0  0  0  0  0  0  0  0  0  0  0
   23.9294   76.2075   -5.4944 C   0  0  0  0  0  0  0  0  0  0  0  0
   23.4697   76.4792   -7.3851 H   0  0  0  0  0  0  0  0  0  0  0  0
 25 28  1  0
 25 24  1  0
 25 26  1  6
 25 27  2  0
  1  4  1  0
  1 24  1  0
  1  2  1  1
  1  3  2  0
  6 11  1  0
  6 12  1  0
 29 36  1  0
 29 37  1  0
  9  7  1  6
  7 13  1  0
 10  8  1  6
  8 14  1  0
 37 28  1  6
  4  5  1  0
 33 30  1  1
 30 38  1  0
 34 31  1  6
 31 39  1  0
 35 32  1  1
 32 40  1  0
 41 42  1  0
 41 43  1  0
 15 19  2  0
 16 22  2  0
 12 17  1  6
 17 19  1  0
 17 20  1  0
 18 19  1  0
 18 22  1  0
 18 23  1  0
  9 10  1  0
  9 11  1  0
 10 12  1  0
 11  5  1  6
 33 34  1  0
 33 35  1  0
 34 36  1  0
 35 37  1  0
 36 42  1  6
 20 21  2  0
 21 22  1  0
M  CHG  2   2  -1  26  -1
M  END
>  <COMPND>  (41) 
    8629 

>  <AUTHOR>  (41) 
    GENERATED BY OPEN BABEL 3.1.1

>  <MASTER>  (41) 
        0    0    0    0    0    0    0    0   58    0   58    0

>  <minimizedAffinity>  (41) 
-6.84810

>  <CNNscore>  (41) 
0.9282067418

>  <CNNaffinity>  (41) 
4.7909641266

>  <CNN_VS>  (41) 
4.4470052719

>  <CNNaffinity_variance>  (41) 
0.0766077489

$$$$
42
     RDKit          3D

 43 45  0  0  0  0  0  0  0  0999 V2000
   22.7540   71.6722   -2.8383 P   0  0  2  0  0  0  0  0  0  0  0  0
   24.1537   70.9170   -3.1349 O   0  0  0  0  0  0  0  0  0  0  0  0
   22.2424   71.5306   -1.4349 O   0  0  0  0  0  0  0  0  0  0  0  0
   21.7681   71.1345   -4.0032 O   0  0  0  0  0  0  0  0  0  0  0  0
   20.8221   70.1308   -3.6783 C   0  0  0  0  0  0  0  0  0  0  0  0
   19.0882   71.5017   -4.6205 O   0  0  0  0  0  0  0  0  0  0  0  0
   17.3268   70.4499   -2.4337 O   0  0  0  0  0  0  0  0  0  0  0  0
   16.5626   68.9555   -4.5829 O   0  0  0  0  0  0  0  0  0  0  0  0
   18.3550   69.7826   -3.1635 C   0  0  1  0  0  0  0  0  0  0  0  0
   17.8814   69.4627   -4.5660 C   0  0  2  0  0  0  0  0  0  0  0  0
   19.4712   70.7859   -3.4258 C   0  0  1  0  0  0  0  0  0  0  0  0
   17.9975   70.8126   -5.2533 C   0  0  2  0  0  0  0  0  0  0  0  0
   16.6028   69.8290   -2.2541 H   0  0  0  0  0  0  0  0  0  0  0  0
   16.5409   68.0959   -4.1341 H   0  0  0  0  0  0  0  0  0  0  0  0
   16.0507   70.2511   -7.2213 O   0  0  0  0  0  0  0  0  0  0  0  0
   19.1756   70.3660  -10.6070 O   0  0  0  0  0  0  0  0  0  0  0  0
   18.2745   70.6906   -6.6568 N   0  0  0  0  0  0  0  0  0  0  0  0
   17.6082   70.3089   -8.9055 N   0  0  0  0  0  0  0  0  0  0  0  0
   17.2254   70.4057   -7.5616 C   0  0  0  0  0  0  0  0  0  0  0  0
   19.5745   70.8534   -7.1233 C   0  0  0  0  0  0  0  0  0  0  0  0
   19.9232   70.7567   -8.4079 C   0  0  0  0  0  0  0  0  0  0  0  0
   18.8868   70.4612   -9.4182 C   0  0  0  0  0  0  0  0  0  0  0  0
   16.8941   70.1107   -9.5540 H   0  0  0  0  0  0  0  0  0  0  0  0
   23.0581   73.1932   -3.2932 O   0  0  0  0  0  0  0  0  0  0  0  0
   22.0704   74.4546   -3.5081 P   0  0  2  0  0  0  0  0  0  0  0  0
   22.7080   75.5925   -2.5509 O   0  0  0  0  0  0  0  0  0  0  0  0
   20.6241   74.1568   -3.2372 O   0  0  0  0  0  0  0  0  0  0  0  0
   22.3788   74.9641   -5.0082 O   0  0  0  0  0  0  0  0  0  0  0  0
   20.9222   75.6217   -6.7581 O   0  0  0  0  0  0  0  0  0  0  0  0
   23.7854   73.6520   -8.9882 O   0  0  0  0  0  0  0  0  0  0  0  0
   23.6315   76.5179   -9.0916 O   0  0  0  0  0  0  0  0  0  0  0  0
   22.9984   72.6101   -6.4046 O   0  0  0  0  0  0  0  0  0  0  0  0
   23.3002   74.4624   -7.9143 C   0  0  1  0  0  0  0  0  0  0  0  0
   22.6215   75.6959   -8.5132 C   0  0  1  0  0  0  0  0  0  0  0  0
   22.3060   73.6507   -7.0860 C   0  0  2  0  0  0  0  0  0  0  0  0
   21.8458   76.4758   -7.4430 C   0  0  1  0  0  0  0  0  0  0  0  0
   21.5533   74.5301   -6.0859 C   0  0  1  0  0  0  0  0  0  0  0  0
   24.4175   74.1614   -9.5177 H   0  0  0  0  0  0  0  0  0  0  0  0
   24.1141   76.0135   -9.7652 H   0  0  0  0  0  0  0  0  0  0  0  0
   23.4705   72.0604   -7.0486 H   0  0  0  0  0  0  0  0  0  0  0  0
   19.6825   77.4691   -7.6488 O   0  0  0  0  0  0  0  0  0  0  0  0
   21.0331   77.6197   -8.0456 C   0  0  0  0  0  0  0  0  0  0  0  0
   19.1533   78.1904   -8.0247 H   0  0  0  0  0  0  0  0  0  0  0  0
 25 28  1  0
 25 24  1  0
 25 26  1  1
 25 27  2  0
  1  4  1  0
  1 24  1  0
  1  2  1  1
  1  3  2  0
  6 11  1  0
  6 12  1  0
 29 36  1  0
 29 37  1  0
  9  7  1  1
  7 13  1  0
 10  8  1  1
  8 14  1  0
 37 28  1  1
  4  5  1  0
 33 30  1  6
 30 38  1  0
 34 31  1  1
 31 39  1  0
 35 32  1  1
 32 40  1  0
 41 42  1  0
 41 43  1  0
 15 19  2  0
 16 22  2  0
 12 17  1  6
 17 19  1  0
 17 20  1  0
 18 19  1  0
 18 22  1  0
 18 23  1  0
  9 10  1  0
  9 11  1  0
 10 12  1  0
 11  5  1  6
 33 34  1  0
 33 35  1  0
 34 36  1  0
 35 37  1  0
 36 42  1  6
 20 21  2  0
 21 22  1  0
M  CHG  2   2  -1  26  -1
M  END
>  <COMPND>  (42) 
    8629 

>  <AUTHOR>  (42) 
    GENERATED BY OPEN BABEL 3.1.1

>  <MASTER>  (42) 
        0    0    0    0    0    0    0    0   58    0   58    0

>  <minimizedAffinity>  (42) 
-7.04358

>  <CNNscore>  (42) 
0.9224033952

>  <CNNaffinity>  (42) 
4.7146539688

>  <CNN_VS>  (42) 
4.3488130569

>  <CNNaffinity_variance>  (42) 
0.2137571573

$$$$
43
     RDKit          3D

 43 45  0  0  0  0  0  0  0  0999 V2000
   22.5569   71.8560   -2.8223 P   0  0  2  0  0  0  0  0  0  0  0  0
   22.4523   73.4234   -2.4353 O   0  0  0  0  0  0  0  0  0  0  0  0
   23.9049   71.4122   -3.3096 O   0  0  0  0  0  0  0  0  0  0  0  0
   21.3279   71.6266   -3.8493 O   0  0  0  0  0  0  0  0  0  0  0  0
   20.4936   70.4965   -3.6636 C   0  0  0  0  0  0  0  0  0  0  0  0
   18.6665   71.6038   -4.7634 O   0  0  0  0  0  0  0  0  0  0  0  0
   16.9021   70.3473   -2.6900 O   0  0  0  0  0  0  0  0  0  0  0  0
   16.5161   68.7349   -4.8552 O   0  0  0  0  0  0  0  0  0  0  0  0
   18.0647   69.8186   -3.3258 C   0  0  1  0  0  0  0  0  0  0  0  0
   17.7483   69.4190   -4.7519 C   0  0  2  0  0  0  0  0  0  0  0  0
   19.0505   70.9626   -3.5274 C   0  0  1  0  0  0  0  0  0  0  0  0
   17.7318   70.7632   -5.4596 C   0  0  2  0  0  0  0  0  0  0  0  0
   16.2579   69.6349   -2.5505 H   0  0  0  0  0  0  0  0  0  0  0  0
   16.5773   67.8863   -4.3895 H   0  0  0  0  0  0  0  0  0  0  0  0
   15.9865   70.1100   -7.5822 O   0  0  0  0  0  0  0  0  0  0  0  0
   19.3700   70.4054  -10.6977 O   0  0  0  0  0  0  0  0  0  0  0  0
   18.1299   70.6628   -6.8354 N   0  0  0  0  0  0  0  0  0  0  0  0
   17.6726   70.2578   -9.1317 N   0  0  0  0  0  0  0  0  0  0  0  0
   17.1756   70.3277   -7.8241 C   0  0  0  0  0  0  0  0  0  0  0  0
   19.4535   70.8959   -7.1926 C   0  0  0  0  0  0  0  0  0  0  0  0
   19.9117   70.8239   -8.4440 C   0  0  0  0  0  0  0  0  0  0  0  0
   18.9794   70.4795   -9.5367 C   0  0  0  0  0  0  0  0  0  0  0  0
   17.0260   70.0255   -9.8372 H   0  0  0  0  0  0  0  0  0  0  0  0
   22.0501   71.1152   -1.4779 O   0  0  0  0  0  0  0  0  0  0  0  0
   21.3997   71.7059   -0.1212 P   0  0  2  0  0  0  0  0  0  0  0  0
   21.2378   70.3955    0.8138 O   0  0  0  0  0  0  0  0  0  0  0  0
   20.1287   72.4764   -0.3329 O   0  0  0  0  0  0  0  0  0  0  0  0
   22.5888   72.5531    0.5667 O   0  0  0  0  0  0  0  0  0  0  0  0
   21.7580   73.9805    2.2665 O   0  0  0  0  0  0  0  0  0  0  0  0
   25.6390   75.3769    2.0708 O   0  0  0  0  0  0  0  0  0  0  0  0
   24.8085   73.8088    4.3289 O   0  0  0  0  0  0  0  0  0  0  0  0
   24.2546   74.6150   -0.3546 O   0  0  0  0  0  0  0  0  0  0  0  0
   24.6051   74.3902    2.0178 C   0  0  1  0  0  0  0  0  0  0  0  0
   23.9024   74.3584    3.3764 C   0  0  1  0  0  0  0  0  0  0  0  0
   23.6191   74.7594    0.9110 C   0  0  2  0  0  0  0  0  0  0  0  0
   22.6177   73.5213    3.3162 C   0  0  1  0  0  0  0  0  0  0  0  0
   22.3552   73.8997    0.9708 C   0  0  1  0  0  0  0  0  0  0  0  0
   26.2688   75.1482    2.7712 H   0  0  0  0  0  0  0  0  0  0  0  0
   25.6157   74.3463    4.3568 H   0  0  0  0  0  0  0  0  0  0  0  0
   25.0531   75.1643   -0.3799 H   0  0  0  0  0  0  0  0  0  0  0  0
   22.3693   72.6854    5.5407 O   0  0  0  0  0  0  0  0  0  0  0  0
   21.8192   73.6048    4.6153 C   0  0  0  0  0  0  0  0  0  0  0  0
   21.8712   72.7277    6.3725 H   0  0  0  0  0  0  0  0  0  0  0  0
 25 28  1  0
 25 24  1  0
 25 26  1  1
 25 27  2  0
  1  4  1  0
  1 24  1  0
  1  2  1  1
  1  3  2  0
  6 11  1  0
  6 12  1  0
 29 36  1  0
 29 37  1  0
  9  7  1  6
  7 13  1  0
 10  8  1  1
  8 14  1  0
 37 28  1  1
  4  5  1  0
 33 30  1  1
 30 38  1  0
 34 31  1  1
 31 39  1  0
 35 32  1  6
 32 40  1  0
 41 42  1  0
 41 43  1  0
 15 19  2  0
 16 22  2  0
 12 17  1  6
 17 19  1  0
 17 20  1  0
 18 19  1  0
 18 22  1  0
 18 23  1  0
  9 10  1  0
  9 11  1  0
 10 12  1  0
 11  5  1  6
 33 34  1  0
 33 35  1  0
 34 36  1  0
 35 37  1  0
 36 42  1  1
 20 21  2  0
 21 22  1  0
M  CHG  2   2  -1  26  -1
M  END
>  <COMPND>  (43) 
    8629 

>  <AUTHOR>  (43) 
    GENERATED BY OPEN BABEL 3.1.1

>  <MASTER>  (43) 
        0    0    0    0    0    0    0    0   58    0   58    0

>  <minimizedAffinity>  (43) 
-7.41833

>  <CNNscore>  (43) 
0.9206910729

>  <CNNaffinity>  (43) 
4.7829627991

>  <CNN_VS>  (43) 
4.4036312103

>  <CNNaffinity_variance>  (43) 
0.0572818518

$$$$
44
     RDKit          3D

 43 45  0  0  0  0  0  0  0  0999 V2000
   23.3361   71.8908   -2.8583 P   0  0  2  0  0  0  0  0  0  0  0  0
   23.6062   73.1815   -3.7956 O   0  0  0  0  0  0  0  0  0  0  0  0
   24.3756   70.8126   -2.9495 O   0  0  0  0  0  0  0  0  0  0  0  0
   21.8270   71.4456   -3.2358 O   0  0  0  0  0  0  0  0  0  0  0  0
   21.1462   72.1590   -4.2534 C   0  0  0  0  0  0  0  0  0  0  0  0
   18.9260   72.4614   -5.1212 O   0  0  0  0  0  0  0  0  0  0  0  0
   17.9594   71.2513   -2.5537 O   0  0  0  0  0  0  0  0  0  0  0  0
   17.7723   69.1660   -4.3011 O   0  0  0  0  0  0  0  0  0  0  0  0
   19.1209   70.9348   -3.3192 C   0  0  1  0  0  0  0  0  0  0  0  0
   18.7358   70.1654   -4.5655 C   0  0  2  0  0  0  0  0  0  0  0  0
   19.6665   72.2323   -3.9024 C   0  0  1  0  0  0  0  0  0  0  0  0
   18.2028   71.2681   -5.4644 C   0  0  2  0  0  0  0  0  0  0  0  0
   17.5933   70.4381   -2.1708 H   0  0  0  0  0  0  0  0  0  0  0  0
   18.1593   68.4878   -3.7258 H   0  0  0  0  0  0  0  0  0  0  0  0
   16.3231   69.9565   -7.1150 O   0  0  0  0  0  0  0  0  0  0  0  0
   19.0860   70.2334  -10.7935 O   0  0  0  0  0  0  0  0  0  0  0  0
   18.4048   70.9848   -6.8574 N   0  0  0  0  0  0  0  0  0  0  0  0
   17.7003   70.0956   -8.9453 N   0  0  0  0  0  0  0  0  0  0  0  0
   17.3981   70.3205   -7.5962 C   0  0  0  0  0  0  0  0  0  0  0  0
   19.5903   71.3648   -7.4770 C   0  0  0  0  0  0  0  0  0  0  0  0
   19.8635   71.1419   -8.7642 C   0  0  0  0  0  0  0  0  0  0  0  0
   18.8645   70.4531   -9.6067 C   0  0  0  0  0  0  0  0  0  0  0  0
   17.0139   69.6339   -9.4797 H   0  0  0  0  0  0  0  0  0  0  0  0
   23.1664   72.5390   -1.3873 O   0  0  0  0  0  0  0  0  0  0  0  0
   21.8648   72.7020   -0.4427 P   0  0  2  0  0  0  0  0  0  0  0  0
   21.3829   71.1754   -0.2084 O   0  0  0  0  0  0  0  0  0  0  0  0
   20.8061   73.6062   -1.0044 O   0  0  0  0  0  0  0  0  0  0  0  0
   22.4528   73.1677    0.9864 O   0  0  0  0  0  0  0  0  0  0  0  0
   24.4109   72.4763    2.1286 O   0  0  0  0  0  0  0  0  0  0  0  0
   21.8960   72.9652    5.3669 O   0  0  0  0  0  0  0  0  0  0  0  0
   24.0026   74.8625    4.9086 O   0  0  0  0  0  0  0  0  0  0  0  0
   20.8713   71.8555    2.8974 O   0  0  0  0  0  0  0  0  0  0  0  0
   22.4294   73.2657    4.0744 C   0  0  1  0  0  0  0  0  0  0  0  0
   23.9114   73.6100    4.2354 C   0  0  1  0  0  0  0  0  0  0  0  0
   22.2555   72.0489    3.1674 C   0  0  2  0  0  0  0  0  0  0  0  0
   24.6143   73.6829    2.8732 C   0  0  1  0  0  0  0  0  0  0  0  0
   23.0343   72.2032    1.8598 C   0  0  1  0  0  0  0  0  0  0  0  0
   22.0027   73.7339    5.9475 H   0  0  0  0  0  0  0  0  0  0  0  0
   23.5545   74.8030    5.7670 H   0  0  0  0  0  0  0  0  0  0  0  0
   20.3894   71.7589    3.7331 H   0  0  0  0  0  0  0  0  0  0  0  0
   26.7389   72.5948    2.9788 O   0  0  0  0  0  0  0  0  0  0  0  0
   26.1232   73.8691    3.0175 C   0  0  0  0  0  0  0  0  0  0  0  0
   27.6996   72.6977    3.0692 H   0  0  0  0  0  0  0  0  0  0  0  0
 25 28  1  0
 25 24  1  0
 25 26  1  1
 25 27  2  0
  1  4  1  0
  1 24  1  0
  1  2  1  6
  1  3  2  0
  6 11  1  0
  6 12  1  0
 29 36  1  0
 29 37  1  0
  9  7  1  1
  7 13  1  0
 10  8  1  1
  8 14  1  0
 37 28  1  6
  4  5  1  0
 33 30  1  1
 30 38  1  0
 34 31  1  6
 31 39  1  0
 35 32  1  6
 32 40  1  0
 41 42  1  0
 41 43  1  0
 15 19  2  0
 16 22  2  0
 12 17  1  6
 17 19  1  0
 17 20  1  0
 18 19  1  0
 18 22  1  0
 18 23  1  0
  9 10  1  0
  9 11  1  0
 10 12  1  0
 11  5  1  6
 33 34  1  0
 33 35  1  0
 34 36  1  0
 35 37  1  0
 36 42  1  1
 20 21  2  0
 21 22  1  0
M  CHG  2   2  -1  26  -1
M  END
>  <COMPND>  (44) 
    8629 

>  <AUTHOR>  (44) 
    GENERATED BY OPEN BABEL 3.1.1

>  <MASTER>  (44) 
        0    0    0    0    0    0    0    0   58    0   58    0

>  <minimizedAffinity>  (44) 
-7.26432

>  <CNNscore>  (44) 
0.8950453401

>  <CNNaffinity>  (44) 
4.5793199539

>  <CNN_VS>  (44) 
4.0986990929

>  <CNNaffinity_variance>  (44) 
0.0402079895

$$$$
45
     RDKit          3D

 43 45  0  0  0  0  0  0  0  0999 V2000
   22.7350   71.6096   -2.6378 P   0  0  2  0  0  0  0  0  0  0  0  0
   24.1701   71.0561   -3.1395 O   0  0  0  0  0  0  0  0  0  0  0  0
   22.3012   71.1149   -1.2893 O   0  0  0  0  0  0  0  0  0  0  0  0
   21.7370   71.2699   -3.8652 O   0  0  0  0  0  0  0  0  0  0  0  0
   20.7913   70.2279   -3.6992 C   0  0  0  0  0  0  0  0  0  0  0  0
   19.0147   71.5389   -4.6472 O   0  0  0  0  0  0  0  0  0  0  0  0
   17.2853   70.4346   -2.4607 O   0  0  0  0  0  0  0  0  0  0  0  0
   16.5743   68.9110   -4.6078 O   0  0  0  0  0  0  0  0  0  0  0  0
   18.3361   69.7998   -3.1875 C   0  0  1  0  0  0  0  0  0  0  0  0
   17.8756   69.4614   -4.5900 C   0  0  2  0  0  0  0  0  0  0  0  0
   19.4191   70.8388   -3.4503 C   0  0  1  0  0  0  0  0  0  0  0  0
   17.9483   70.8129   -5.2802 C   0  0  2  0  0  0  0  0  0  0  0  0
   16.5819   69.7905   -2.2808 H   0  0  0  0  0  0  0  0  0  0  0  0
   16.5801   68.0522   -4.1570 H   0  0  0  0  0  0  0  0  0  0  0  0
   16.0116   70.2515   -7.2580 O   0  0  0  0  0  0  0  0  0  0  0  0
   19.1498   70.3898  -10.6306 O   0  0  0  0  0  0  0  0  0  0  0  0
   18.2315   70.6969   -6.6829 N   0  0  0  0  0  0  0  0  0  0  0  0
   17.5757   70.3210   -8.9357 N   0  0  0  0  0  0  0  0  0  0  0  0
   17.1871   70.4115   -7.5930 C   0  0  0  0  0  0  0  0  0  0  0  0
   19.5327   70.8661   -7.1435 C   0  0  0  0  0  0  0  0  0  0  0  0
   19.8870   70.7753   -8.4270 C   0  0  0  0  0  0  0  0  0  0  0  0
   18.8558   70.4797   -9.4426 C   0  0  0  0  0  0  0  0  0  0  0  0
   16.8650   70.1225   -9.5878 H   0  0  0  0  0  0  0  0  0  0  0  0
   22.9071   73.2134   -2.7426 O   0  0  0  0  0  0  0  0  0  0  0  0
   21.9504   74.4184   -2.2470 P   0  0  2  0  0  0  0  0  0  0  0  0
   20.6330   74.2502   -3.1709 O   0  0  0  0  0  0  0  0  0  0  0  0
   22.5858   75.7768   -2.3159 O   0  0  0  0  0  0  0  0  0  0  0  0
   21.4712   73.9783   -0.7699 O   0  0  0  0  0  0  0  0  0  0  0  0
   20.9822   75.1507    1.2309 O   0  0  0  0  0  0  0  0  0  0  0  0
   23.1530   72.0163    2.8165 O   0  0  0  0  0  0  0  0  0  0  0  0
   20.3097   72.1136    3.2090 O   0  0  0  0  0  0  0  0  0  0  0  0
   23.9464   73.1913    0.2927 O   0  0  0  0  0  0  0  0  0  0  0  0
   22.2449   72.6438    1.9072 C   0  0  1  0  0  0  0  0  0  0  0  0
   21.0736   73.2093    2.7129 C   0  0  1  0  0  0  0  0  0  0  0  0
   22.9750   73.7608    1.1637 C   0  0  2  0  0  0  0  0  0  0  0  0
   20.1964   74.1241    1.8476 C   0  0  1  0  0  0  0  0  0  0  0  0
   22.0053   74.6410    0.3733 C   0  0  1  0  0  0  0  0  0  0  0  0
   22.6957   71.3057    3.2914 H   0  0  0  0  0  0  0  0  0  0  0  0
   20.8754   71.5436    3.7533 H   0  0  0  0  0  0  0  0  0  0  0  0
   24.5544   72.6367    0.8051 H   0  0  0  0  0  0  0  0  0  0  0  0
   19.7283   75.4485    3.7804 O   0  0  0  0  0  0  0  0  0  0  0  0
   19.1147   74.8228    2.6685 C   0  0  0  0  0  0  0  0  0  0  0  0
   19.0519   75.8976    4.3119 H   0  0  0  0  0  0  0  0  0  0  0  0
 25 28  1  0
 25 24  1  0
 25 26  1  6
 25 27  2  0
  1  4  1  0
  1 24  1  0
  1  2  1  6
  1  3  2  0
  6 11  1  0
  6 12  1  0
 29 36  1  0
 29 37  1  0
  9  7  1  1
  7 13  1  0
 10  8  1  1
  8 14  1  0
 37 28  1  6
  4  5  1  0
 33 30  1  1
 30 38  1  0
 34 31  1  6
 31 39  1  0
 35 32  1  6
 32 40  1  0
 41 42  1  0
 41 43  1  0
 15 19  2  0
 16 22  2  0
 12 17  1  6
 17 19  1  0
 17 20  1  0
 18 19  1  0
 18 22  1  0
 18 23  1  0
  9 10  1  0
  9 11  1  0
 10 12  1  0
 11  5  1  6
 33 34  1  0
 33 35  1  0
 34 36  1  0
 35 37  1  0
 36 42  1  1
 20 21  2  0
 21 22  1  0
M  CHG  2   2  -1  26  -1
M  END
>  <COMPND>  (45) 
    8629 

>  <AUTHOR>  (45) 
    GENERATED BY OPEN BABEL 3.1.1

>  <MASTER>  (45) 
        0    0    0    0    0    0    0    0   58    0   58    0

>  <minimizedAffinity>  (45) 
-7.03100

>  <CNNscore>  (45) 
0.8841576576

>  <CNNaffinity>  (45) 
4.6130909920

>  <CNN_VS>  (45) 
4.0786995888

>  <CNNaffinity_variance>  (45) 
0.0212904848

$$$$
46
     RDKit          3D

 43 45  0  0  0  0  0  0  0  0999 V2000
   20.6137   71.3552   -1.1858 P   0  0  2  0  0  0  0  0  0  0  0  0
   21.1774   70.6377    0.1502 O   0  0  0  0  0  0  0  0  0  0  0  0
   20.0658   72.7369   -0.9800 O   0  0  0  0  0  0  0  0  0  0  0  0
   19.5793   70.2736   -1.8006 O   0  0  0  0  0  0  0  0  0  0  0  0
   19.2389   70.3678   -3.1729 C   0  0  0  0  0  0  0  0  0  0  0  0
   17.5464   71.4117   -4.5217 O   0  0  0  0  0  0  0  0  0  0  0  0
   15.5678   69.7741   -2.9744 O   0  0  0  0  0  0  0  0  0  0  0  0
   15.7982   68.3802   -5.3070 O   0  0  0  0  0  0  0  0  0  0  0  0
   16.8847   69.4306   -3.4024 C   0  0  1  0  0  0  0  0  0  0  0  0
   16.9000   69.1620   -4.8927 C   0  0  2  0  0  0  0  0  0  0  0  0
   17.7533   70.6778   -3.2950 C   0  0  1  0  0  0  0  0  0  0  0  0
   16.8677   70.5683   -5.4667 C   0  0  2  0  0  0  0  0  0  0  0  0
   14.9947   68.9931   -3.0338 H   0  0  0  0  0  0  0  0  0  0  0  0
   15.8643   67.4951   -4.9158 H   0  0  0  0  0  0  0  0  0  0  0  0
   15.6139   70.1485   -7.9626 O   0  0  0  0  0  0  0  0  0  0  0  0
   19.5267   70.9363  -10.2670 O   0  0  0  0  0  0  0  0  0  0  0  0
   17.5350   70.6578   -6.7348 N   0  0  0  0  0  0  0  0  0  0  0  0
   17.5632   70.5413   -9.1080 N   0  0  0  0  0  0  0  0  0  0  0  0
   16.8142   70.4277   -7.9298 C   0  0  0  0  0  0  0  0  0  0  0  0
   18.8890   70.9709   -6.7849 C   0  0  0  0  0  0  0  0  0  0  0  0
   19.5889   71.0740   -7.9165 C   0  0  0  0  0  0  0  0  0  0  0  0
   18.9107   70.8488   -9.2093 C   0  0  0  0  0  0  0  0  0  0  0  0
   17.0821   70.3849   -9.9529 H   0  0  0  0  0  0  0  0  0  0  0  0
   21.8699   71.2738   -2.1998 O   0  0  0  0  0  0  0  0  0  0  0  0
   23.0359   72.3425   -2.5333 P   0  0  2  0  0  0  0  0  0  0  0  0
   24.1095   71.4705   -3.3726 O   0  0  0  0  0  0  0  0  0  0  0  0
   23.6048   73.0295   -1.3257 O   0  0  0  0  0  0  0  0  0  0  0  0
   22.3791   73.3373   -3.6214 O   0  0  0  0  0  0  0  0  0  0  0  0
   20.1550   73.3988   -4.4375 O   0  0  0  0  0  0  0  0  0  0  0  0
   22.1516   74.5016   -7.8797 O   0  0  0  0  0  0  0  0  0  0  0  0
   20.6425   76.4649   -6.4250 O   0  0  0  0  0  0  0  0  0  0  0  0
   23.2820   72.4847   -6.1379 O   0  0  0  0  0  0  0  0  0  0  0  0
   21.9201   74.4434   -6.4696 C   0  0  1  0  0  0  0  0  0  0  0  0
   20.5514   75.0639   -6.1823 C   0  0  1  0  0  0  0  0  0  0  0  0
   21.9546   72.9845   -6.0179 C   0  0  2  0  0  0  0  0  0  0  0  0
   20.1163   74.7996   -4.7346 C   0  0  1  0  0  0  0  0  0  0  0  0
   21.4565   72.8265   -4.5802 C   0  0  1  0  0  0  0  0  0  0  0  0
   22.1314   75.4252   -8.1729 H   0  0  0  0  0  0  0  0  0  0  0  0
   20.9186   76.6181   -7.3424 H   0  0  0  0  0  0  0  0  0  0  0  0
   23.5856   72.5902   -7.0526 H   0  0  0  0  0  0  0  0  0  0  0  0
   17.8052   74.1932   -4.7180 O   0  0  0  0  0  0  0  0  0  0  0  0
   18.6881   75.2720   -4.4713 C   0  0  0  0  0  0  0  0  0  0  0  0
   16.8925   74.4792   -4.5542 H   0  0  0  0  0  0  0  0  0  0  0  0
 25 28  1  0
 25 24  1  0
 25 26  1  6
 25 27  2  0
  1  4  1  0
  1 24  1  0
  1  2  1  1
  1  3  2  0
  6 11  1  0
  6 12  1  0
 29 36  1  0
 29 37  1  0
  9  7  1  6
  7 13  1  0
 10  8  1  6
  8 14  1  0
 37 28  1  1
  4  5  1  0
 33 30  1  6
 30 38  1  0
 34 31  1  1
 31 39  1  0
 35 32  1  1
 32 40  1  0
 41 42  1  0
 41 43  1  0
 15 19  2  0
 16 22  2  0
 12 17  1  6
 17 19  1  0
 17 20  1  0
 18 19  1  0
 18 22  1  0
 18 23  1  0
  9 10  1  0
  9 11  1  0
 10 12  1  0
 11  5  1  6
 33 34  1  0
 33 35  1  0
 34 36  1  0
 35 37  1  0
 36 42  1  6
 20 21  2  0
 21 22  1  0
M  CHG  2   2  -1  26  -1
M  END
>  <COMPND>  (46) 
    8629 

>  <AUTHOR>  (46) 
    GENERATED BY OPEN BABEL 3.1.1

>  <MASTER>  (46) 
        0    0    0    0    0    0    0    0   58    0   58    0

>  <minimizedAffinity>  (46) 
-7.46278

>  <CNNscore>  (46) 
0.8704291582

>  <CNNaffinity>  (46) 
4.5452766418

>  <CNN_VS>  (46) 
3.9563412666

>  <CNNaffinity_variance>  (46) 
0.6809773445

$$$$
47
     RDKit          3D

 43 45  0  0  0  0  0  0  0  0999 V2000
   22.1173   72.7275   -4.5412 P   0  0  2  0  0  0  0  0  0  0  0  0
   21.3698   74.0586   -5.0770 O   0  0  0  0  0  0  0  0  0  0  0  0
   23.5144   72.5355   -5.0537 O   0  0  0  0  0  0  0  0  0  0  0  0
   21.0758   71.5356   -4.8766 O   0  0  0  0  0  0  0  0  0  0  0  0
   20.4837   70.8318   -3.7986 C   0  0  0  0  0  0  0  0  0  0  0  0
   18.6113   71.8386   -4.9185 O   0  0  0  0  0  0  0  0  0  0  0  0
   16.9135   70.6402   -2.7570 O   0  0  0  0  0  0  0  0  0  0  0  0
   16.5344   68.9158   -4.8353 O   0  0  0  0  0  0  0  0  0  0  0  0
   18.0789   70.1106   -3.3867 C   0  0  1  0  0  0  0  0  0  0  0  0
   17.7500   69.6346   -4.7863 C   0  0  2  0  0  0  0  0  0  0  0  0
   19.0315   71.2678   -3.6600 C   0  0  1  0  0  0  0  0  0  0  0  0
   17.6874   70.9422   -5.5572 C   0  0  2  0  0  0  0  0  0  0  0  0
   16.2902   69.9195   -2.5723 H   0  0  0  0  0  0  0  0  0  0  0  0
   16.6249   68.0925   -4.3306 H   0  0  0  0  0  0  0  0  0  0  0  0
   15.9415   70.0820   -7.6041 O   0  0  0  0  0  0  0  0  0  0  0  0
   19.2490   70.3756  -10.8003 O   0  0  0  0  0  0  0  0  0  0  0  0
   18.0658   70.7854   -6.9333 N   0  0  0  0  0  0  0  0  0  0  0  0
   17.5898   70.2290   -9.1939 N   0  0  0  0  0  0  0  0  0  0  0  0
   17.1130   70.3466   -7.8821 C   0  0  0  0  0  0  0  0  0  0  0  0
   19.3688   71.0658   -7.3301 C   0  0  0  0  0  0  0  0  0  0  0  0
   19.8079   70.9474   -8.5848 C   0  0  0  0  0  0  0  0  0  0  0  0
   18.8757   70.4946   -9.6374 C   0  0  0  0  0  0  0  0  0  0  0  0
   16.9438   69.9246   -9.8720 H   0  0  0  0  0  0  0  0  0  0  0  0
   22.0033   72.8683   -2.9349 O   0  0  0  0  0  0  0  0  0  0  0  0
   22.0412   74.1706   -1.9781 P   0  0  2  0  0  0  0  0  0  0  0  0
   20.4921   74.6338   -1.9204 O   0  0  0  0  0  0  0  0  0  0  0  0
   22.9910   75.2408   -2.4327 O   0  0  0  0  0  0  0  0  0  0  0  0
   22.3472   73.5865   -0.5050 O   0  0  0  0  0  0  0  0  0  0  0  0
   23.2682   71.5211    0.2038 O   0  0  0  0  0  0  0  0  0  0  0  0
   20.3989   72.0042    3.1338 O   0  0  0  0  0  0  0  0  0  0  0  0
   23.1718   72.3581    3.7925 O   0  0  0  0  0  0  0  0  0  0  0  0
   19.8195   72.7747    0.4043 O   0  0  0  0  0  0  0  0  0  0  0  0
   21.3908   72.4349    2.1979 C   0  0  1  0  0  0  0  0  0  0  0  0
   22.7208   71.7776    2.5719 C   0  0  1  0  0  0  0  0  0  0  0  0
   20.9632   72.0206    0.7912 C   0  0  2  0  0  0  0  0  0  0  0  0
   23.7671   71.9763    1.4670 C   0  0  1  0  0  0  0  0  0  0  0  0
   22.0928   72.2129   -0.2223 C   0  0  1  0  0  0  0  0  0  0  0  0
   20.6642   72.2647    4.0290 H   0  0  0  0  0  0  0  0  0  0  0  0
   22.5019   72.2261    4.4817 H   0  0  0  0  0  0  0  0  0  0  0  0
   19.1115   72.6443    1.0537 H   0  0  0  0  0  0  0  0  0  0  0  0
   24.7241   70.0607    2.5271 O   0  0  0  0  0  0  0  0  0  0  0  0
   25.0499   71.1965    1.7472 C   0  0  0  0  0  0  0  0  0  0  0  0
   25.5310   69.5547    2.7129 H   0  0  0  0  0  0  0  0  0  0  0  0
 25 28  1  0
 25 24  1  0
 25 26  1  1
 25 27  2  0
  1  4  1  0
  1 24  1  0
  1  2  1  6
  1  3  2  0
  6 11  1  0
  6 12  1  0
 29 36  1  0
 29 37  1  0
  9  7  1  6
  7 13  1  0
 10  8  1  1
  8 14  1  0
 37 28  1  1
  4  5  1  0
 33 30  1  1
 30 38  1  0
 34 31  1  1
 31 39  1  0
 35 32  1  6
 32 40  1  0
 41 42  1  0
 41 43  1  0
 15 19  2  0
 16 22  2  0
 12 17  1  6
 17 19  1  0
 17 20  1  0
 18 19  1  0
 18 22  1  0
 18 23  1  0
  9 10  1  0
  9 11  1  0
 10 12  1  0
 11  5  1  6
 33 34  1  0
 33 35  1  0
 34 36  1  0
 35 37  1  0
 36 42  1  1
 20 21  2  0
 21 22  1  0
M  CHG  2   2  -1  26  -1
M  END
>  <COMPND>  (47) 
    8629 

>  <AUTHOR>  (47) 
    GENERATED BY OPEN BABEL 3.1.1

>  <MASTER>  (47) 
        0    0    0    0    0    0    0    0   58    0   58    0

>  <minimizedAffinity>  (47) 
-7.57097

>  <CNNscore>  (47) 
0.8521522284

>  <CNNaffinity>  (47) 
4.5717339516

>  <CNN_VS>  (47) 
3.8958132267

>  <CNNaffinity_variance>  (47) 
0.0548107401

$$$$
48
     RDKit          3D

 43 45  0  0  0  0  0  0  0  0999 V2000
   21.8587   72.5050   -5.4397 P   0  0  2  0  0  0  0  0  0  0  0  0
   21.2321   73.9744   -5.1840 O   0  0  0  0  0  0  0  0  0  0  0  0
   23.1397   72.4894   -6.2209 O   0  0  0  0  0  0  0  0  0  0  0  0
   20.6333   71.6667   -6.0829 O   0  0  0  0  0  0  0  0  0  0  0  0
   20.2039   71.9946   -7.3929 C   0  0  0  0  0  0  0  0  0  0  0  0
   18.9485   69.9935   -6.9530 O   0  0  0  0  0  0  0  0  0  0  0  0
   18.2108   70.0414   -9.8589 O   0  0  0  0  0  0  0  0  0  0  0  0
   15.9793   71.0541   -8.6624 O   0  0  0  0  0  0  0  0  0  0  0  0
   18.3916   71.1310   -8.9559 C   0  0  1  0  0  0  0  0  0  0  0  0
   17.2177   71.2252   -8.0037 C   0  0  2  0  0  0  0  0  0  0  0  0
   19.5364   70.7759   -8.0153 C   0  0  1  0  0  0  0  0  0  0  0  0
   17.5175   70.1050   -7.0222 C   0  0  2  0  0  0  0  0  0  0  0  0
   17.4848   70.2452  -10.4700 H   0  0  0  0  0  0  0  0  0  0  0  0
   15.8344   71.7916   -9.2755 H   0  0  0  0  0  0  0  0  0  0  0  0
   16.4035   68.1560   -5.3081 O   0  0  0  0  0  0  0  0  0  0  0  0
   15.5891   71.2636   -2.0034 O   0  0  0  0  0  0  0  0  0  0  0  0
   17.0069   70.3770   -5.7081 N   0  0  0  0  0  0  0  0  0  0  0  0
   15.9991   69.7049   -3.6639 N   0  0  0  0  0  0  0  0  0  0  0  0
   16.4675   69.3272   -4.9288 C   0  0  0  0  0  0  0  0  0  0  0  0
   17.0445   71.6728   -5.2046 C   0  0  0  0  0  0  0  0  0  0  0  0
   16.5924   72.0166   -3.9968 C   0  0  0  0  0  0  0  0  0  0  0  0
   16.0133   70.9792   -3.1192 C   0  0  0  0  0  0  0  0  0  0  0  0
   15.6186   68.9902   -3.1034 H   0  0  0  0  0  0  0  0  0  0  0  0
   21.9732   71.8939   -3.9476 O   0  0  0  0  0  0  0  0  0  0  0  0
   23.1483   72.0033   -2.8430 P   0  0  2  0  0  0  0  0  0  0  0  0
   23.6962   73.5138   -3.0325 O   0  0  0  0  0  0  0  0  0  0  0  0
   24.2039   70.9423   -2.9604 O   0  0  0  0  0  0  0  0  0  0  0  0
   22.3761   72.0246   -1.4258 O   0  0  0  0  0  0  0  0  0  0  0  0
   24.0463   72.1203    0.2528 O   0  0  0  0  0  0  0  0  0  0  0  0
   20.6977   71.9506    2.6629 O   0  0  0  0  0  0  0  0  0  0  0  0
   22.1570   74.4136    2.4345 O   0  0  0  0  0  0  0  0  0  0  0  0
   20.8043   70.3900    0.2272 O   0  0  0  0  0  0  0  0  0  0  0  0
   21.4542   72.3236    1.5079 C   0  0  1  0  0  0  0  0  0  0  0  0
   22.6495   73.1609    1.9673 C   0  0  1  0  0  0  0  0  0  0  0  0
   21.9266   71.0600    0.7912 C   0  0  2  0  0  0  0  0  0  0  0  0
   23.6497   73.3731    0.8230 C   0  0  1  0  0  0  0  0  0  0  0  0
   22.9553   71.3781   -0.2954 C   0  0  1  0  0  0  0  0  0  0  0  0
   20.3943   72.7484    3.1222 H   0  0  0  0  0  0  0  0  0  0  0  0
   21.5261   74.2655    3.1565 H   0  0  0  0  0  0  0  0  0  0  0  0
   20.1606   70.1939    0.9251 H   0  0  0  0  0  0  0  0  0  0  0  0
   25.0564   73.8606    2.6918 O   0  0  0  0  0  0  0  0  0  0  0  0
   24.9228   74.0699    1.2980 C   0  0  0  0  0  0  0  0  0  0  0  0
   25.8626   74.2983    3.0081 H   0  0  0  0  0  0  0  0  0  0  0  0
 25 28  1  0
 25 24  1  0
 25 26  1  6
 25 27  2  0
  1  4  1  0
  1 24  1  0
  1  2  1  1
  1  3  2  0
  6 11  1  0
  6 12  1  0
 29 36  1  0
 29 37  1  0
  9  7  1  6
  7 13  1  0
 10  8  1  6
  8 14  1  0
 37 28  1  6
  4  5  1  0
 33 30  1  1
 30 38  1  0
 34 31  1  6
 31 39  1  0
 35 32  1  6
 32 40  1  0
 41 42  1  0
 41 43  1  0
 15 19  2  0
 16 22  2  0
 12 17  1  1
 17 19  1  0
 17 20  1  0
 18 19  1  0
 18 22  1  0
 18 23  1  0
  9 10  1  0
  9 11  1  0
 10 12  1  0
 11  5  1  1
 33 34  1  0
 33 35  1  0
 34 36  1  0
 35 37  1  0
 36 42  1  1
 20 21  2  0
 21 22  1  0
M  CHG  2   2  -1  26  -1
M  END
>  <COMPND>  (48) 
    8629 

>  <AUTHOR>  (48) 
    GENERATED BY OPEN BABEL 3.1.1

>  <MASTER>  (48) 
        0    0    0    0    0    0    0    0   58    0   58    0

>  <minimizedAffinity>  (48) 
-7.98702

>  <CNNscore>  (48) 
0.8143586516

>  <CNNaffinity>  (48) 
4.5647096634

>  <CNN_VS>  (48) 
3.7173109055

>  <CNNaffinity_variance>  (48) 
0.1713726223

$$$$
49
     RDKit          3D

 43 45  0  0  0  0  0  0  0  0999 V2000
   21.2936   74.3020   -4.2722 P   0  0  2  0  0  0  0  0  0  0  0  0
   20.1886   75.3296   -3.6889 O   0  0  0  0  0  0  0  0  0  0  0  0
   22.2433   74.8930   -5.2724 O   0  0  0  0  0  0  0  0  0  0  0  0
   20.4183   73.0445   -4.7924 O   0  0  0  0  0  0  0  0  0  0  0  0
   20.0690   72.0333   -3.8632 C   0  0  0  0  0  0  0  0  0  0  0  0
   18.0060   72.1940   -5.0845 O   0  0  0  0  0  0  0  0  0  0  0  0
   16.7510   70.7257   -2.7911 O   0  0  0  0  0  0  0  0  0  0  0  0
   17.0694   68.7590   -4.6531 O   0  0  0  0  0  0  0  0  0  0  0  0
   18.0500   70.5694   -3.3599 C   0  0  1  0  0  0  0  0  0  0  0  0
   17.9578   69.8571   -4.6932 C   0  0  2  0  0  0  0  0  0  0  0  0
   18.5517   71.9483   -3.7700 C   0  0  1  0  0  0  0  0  0  0  0  0
   17.4741   70.9672   -5.6108 C   0  0  2  0  0  0  0  0  0  0  0  0
   16.4099   69.8581   -2.5212 H   0  0  0  0  0  0  0  0  0  0  0  0
   17.4212   68.0800   -4.0564 H   0  0  0  0  0  0  0  0  0  0  0  0
   15.8068   70.3110   -7.7942 O   0  0  0  0  0  0  0  0  0  0  0  0
   19.3462   70.3536  -10.7457 O   0  0  0  0  0  0  0  0  0  0  0  0
   17.9334   70.8010   -6.9609 N   0  0  0  0  0  0  0  0  0  0  0  0
   17.5705   70.3330   -9.2621 N   0  0  0  0  0  0  0  0  0  0  0  0
   17.0144   70.4704   -7.9838 C   0  0  0  0  0  0  0  0  0  0  0  0
   19.2816   70.9660   -7.2595 C   0  0  0  0  0  0  0  0  0  0  0  0
   19.7961   70.8301   -8.4834 C   0  0  0  0  0  0  0  0  0  0  0  0
   18.9036   70.4856   -9.6089 C   0  0  0  0  0  0  0  0  0  0  0  0
   16.9492   70.1025   -9.9906 H   0  0  0  0  0  0  0  0  0  0  0  0
   21.9968   73.7269   -2.9352 O   0  0  0  0  0  0  0  0  0  0  0  0
   23.4923   73.1700   -2.6778 P   0  0  2  0  0  0  0  0  0  0  0  0
   24.3676   74.5204   -2.5111 O   0  0  0  0  0  0  0  0  0  0  0  0
   23.9923   72.2353   -3.7410 O   0  0  0  0  0  0  0  0  0  0  0  0
   23.4413   72.5318   -1.1962 O   0  0  0  0  0  0  0  0  0  0  0  0
   22.6774   74.2595    0.2348 O   0  0  0  0  0  0  0  0  0  0  0  0
   23.2196   71.2743    3.0357 O   0  0  0  0  0  0  0  0  0  0  0  0
   20.5576   72.0461    2.2832 O   0  0  0  0  0  0  0  0  0  0  0  0
   25.0975   71.5636    0.8518 O   0  0  0  0  0  0  0  0  0  0  0  0
   22.8790   71.8137    1.7557 C   0  0  1  0  0  0  0  0  0  0  0  0
   21.7205   72.7955    1.9420 C   0  0  1  0  0  0  0  0  0  0  0  0
   24.0987   72.5256    1.1735 C   0  0  2  0  0  0  0  0  0  0  0  0
   21.4750   73.6112    0.6655 C   0  0  1  0  0  0  0  0  0  0  0  0
   23.7355   73.3470   -0.0648 C   0  0  1  0  0  0  0  0  0  0  0  0
   22.4496   70.8205    3.4107 H   0  0  0  0  0  0  0  0  0  0  0  0
   20.7261   71.5352    3.0906 H   0  0  0  0  0  0  0  0  0  0  0  0
   25.3189   71.0503    1.6439 H   0  0  0  0  0  0  0  0  0  0  0  0
   20.6386   75.7187   -0.0880 O   0  0  0  0  0  0  0  0  0  0  0  0
   20.4301   74.7045    0.8775 C   0  0  0  0  0  0  0  0  0  0  0  0
   19.9804   76.4213    0.0346 H   0  0  0  0  0  0  0  0  0  0  0  0
 25 28  1  0
 25 24  1  0
 25 26  1  1
 25 27  2  0
  1  4  1  0
  1 24  1  0
  1  2  1  1
  1  3  2  0
  6 11  1  0
  6 12  1  0
 29 36  1  0
 29 37  1  0
  9  7  1  6
  7 13  1  0
 10  8  1  1
  8 14  1  0
 37 28  1  6
  4  5  1  0
 33 30  1  1
 30 38  1  0
 34 31  1  6
 31 39  1  0
 35 32  1  6
 32 40  1  0
 41 42  1  0
 41 43  1  0
 15 19  2  0
 16 22  2  0
 12 17  1  6
 17 19  1  0
 17 20  1  0
 18 19  1  0
 18 22  1  0
 18 23  1  0
  9 10  1  0
  9 11  1  0
 10 12  1  0
 11  5  1  6
 33 34  1  0
 33 35  1  0
 34 36  1  0
 35 37  1  0
 36 42  1  1
 20 21  2  0
 21 22  1  0
M  CHG  2   2  -1  26  -1
M  END
>  <COMPND>  (49) 
    8629 

>  <AUTHOR>  (49) 
    GENERATED BY OPEN BABEL 3.1.1

>  <MASTER>  (49) 
        0    0    0    0    0    0    0    0   58    0   58    0

>  <minimizedAffinity>  (49) 
-6.60502

>  <CNNscore>  (49) 
0.7355490923

>  <CNNaffinity>  (49) 
4.4136438370

>  <CNN_VS>  (49) 
3.2464516163

>  <CNNaffinity_variance>  (49) 
0.0178328864

$$$$
50
     RDKit          3D

 43 45  0  0  0  0  0  0  0  0999 V2000
   23.1751   71.7412   -2.6956 P   0  0  2  0  0  0  0  0  0  0  0  0
   23.3846   73.3400   -2.5634 O   0  0  0  0  0  0  0  0  0  0  0  0
   24.3835   70.9794   -3.1546 O   0  0  0  0  0  0  0  0  0  0  0  0
   21.8589   71.5975   -3.6256 O   0  0  0  0  0  0  0  0  0  0  0  0
   21.6617   72.5369   -4.6680 C   0  0  0  0  0  0  0  0  0  0  0  0
   20.7533   70.6028   -5.7669 O   0  0  0  0  0  0  0  0  0  0  0  0
   21.2089   72.0801   -8.3361 O   0  0  0  0  0  0  0  0  0  0  0  0
   18.5363   72.4250   -7.9179 O   0  0  0  0  0  0  0  0  0  0  0  0
   20.8070   72.5854   -7.0638 C   0  0  1  0  0  0  0  0  0  0  0  0
   19.3617   72.2266   -6.7883 C   0  0  2  0  0  0  0  0  0  0  0  0
   21.5419   71.7921   -5.9905 C   0  0  1  0  0  0  0  0  0  0  0  0
   19.4701   70.7636   -6.3931 C   0  0  2  0  0  0  0  0  0  0  0  0
   20.7528   72.5717   -9.0377 H   0  0  0  0  0  0  0  0  0  0  0  0
   18.4994   73.3709   -8.1294 H   0  0  0  0  0  0  0  0  0  0  0  0
   16.9173   69.8163   -7.1441 O   0  0  0  0  0  0  0  0  0  0  0  0
   15.6226   69.2810   -2.7533 O   0  0  0  0  0  0  0  0  0  0  0  0
   18.4464   70.3693   -5.4668 N   0  0  0  0  0  0  0  0  0  0  0  0
   16.2748   69.5504   -4.9572 N   0  0  0  0  0  0  0  0  0  0  0  0
   17.1985   69.9086   -5.9474 C   0  0  0  0  0  0  0  0  0  0  0  0
   18.6849   70.4410   -4.0987 C   0  0  0  0  0  0  0  0  0  0  0  0
   17.7930   70.0968   -3.1674 C   0  0  0  0  0  0  0  0  0  0  0  0
   16.4643   69.6052   -3.5854 C   0  0  0  0  0  0  0  0  0  0  0  0
   15.3983   69.2269   -5.2685 H   0  0  0  0  0  0  0  0  0  0  0  0
   22.6326   71.3234   -1.2313 O   0  0  0  0  0  0  0  0  0  0  0  0
   21.4459   71.9398   -0.3232 P   0  0  2  0  0  0  0  0  0  0  0  0
   20.7461   70.6275    0.3136 O   0  0  0  0  0  0  0  0  0  0  0  0
   20.5062   72.8427   -1.0687 O   0  0  0  0  0  0  0  0  0  0  0  0
   22.2033   72.6407    0.9179 O   0  0  0  0  0  0  0  0  0  0  0  0
   24.0793   72.0056    2.2193 O   0  0  0  0  0  0  0  0  0  0  0  0
   21.6789   73.5214    5.2178 O   0  0  0  0  0  0  0  0  0  0  0  0
   23.9897   74.9998    4.3677 O   0  0  0  0  0  0  0  0  0  0  0  0
   20.5005   72.0008    3.0548 O   0  0  0  0  0  0  0  0  0  0  0  0
   22.2286   73.4506    3.8994 C   0  0  1  0  0  0  0  0  0  0  0  0
   23.7428   73.6455    4.0001 C   0  0  1  0  0  0  0  0  0  0  0  0
   21.9011   72.0866    3.2947 C   0  0  2  0  0  0  0  0  0  0  0  0
   24.4330   73.3188    2.6689 C   0  0  1  0  0  0  0  0  0  0  0  0
   22.6769   71.8421    1.9992 C   0  0  1  0  0  0  0  0  0  0  0  0
   21.8829   74.3853    5.6073 H   0  0  0  0  0  0  0  0  0  0  0  0
   23.5480   75.1932    5.2095 H   0  0  0  0  0  0  0  0  0  0  0  0
   20.0206   72.1571    3.8825 H   0  0  0  0  0  0  0  0  0  0  0  0
   26.3771   74.7049    2.7600 O   0  0  0  0  0  0  0  0  0  0  0  0
   25.9549   73.3539    2.7902 C   0  0  0  0  0  0  0  0  0  0  0  0
   27.3437   74.7427    2.8365 H   0  0  0  0  0  0  0  0  0  0  0  0
 25 28  1  0
 25 24  1  0
 25 26  1  1
 25 27  2  0
  1  4  1  0
  1 24  1  0
  1  2  1  1
  1  3  2  0
  6 11  1  0
  6 12  1  0
 29 36  1  0
 29 37  1  0
  9  7  1  6
  7 13  1  0
 10  8  1  6
  8 14  1  0
 37 28  1  6
  4  5  1  0
 33 30  1  1
 30 38  1  0
 34 31  1  6
 31 39  1  0
 35 32  1  6
 32 40  1  0
 41 42  1  0
 41 43  1  0
 15 19  2  0
 16 22  2  0
 12 17  1  1
 17 19  1  0
 17 20  1  0
 18 19  1  0
 18 22  1  0
 18 23  1  0
  9 10  1  0
  9 11  1  0
 10 12  1  0
 11  5  1  1
 33 34  1  0
 33 35  1  0
 34 36  1  0
 35 37  1  0
 36 42  1  1
 20 21  2  0
 21 22  1  0
M  CHG  2   2  -1  26  -1
M  END
>  <COMPND>  (50) 
    8629 

>  <AUTHOR>  (50) 
    GENERATED BY OPEN BABEL 3.1.1

>  <MASTER>  (50) 
        0    0    0    0    0    0    0    0   58    0   58    0

>  <minimizedAffinity>  (50) 
-7.61361

>  <CNNscore>  (50) 
0.6676089168

>  <CNNaffinity>  (50) 
4.3762006760

>  <CNN_VS>  (50) 
2.9215905666

>  <CNNaffinity_variance>  (50) 
0.2089737654

$$$$
51
     RDKit          3D

 43 45  0  0  0  0  0  0  0  0999 V2000
   19.3337   71.9753   -1.6668 P   0  0  2  0  0  0  0  0  0  0  0  0
   19.5243   70.3719   -1.7684 O   0  0  0  0  0  0  0  0  0  0  0  0
   18.0735   72.4218   -0.9857 O   0  0  0  0  0  0  0  0  0  0  0  0
   19.5288   72.4869   -3.1893 O   0  0  0  0  0  0  0  0  0  0  0  0
   20.4198   73.5614   -3.4326 C   0  0  0  0  0  0  0  0  0  0  0  0
   21.1699   71.8765   -4.9728 O   0  0  0  0  0  0  0  0  0  0  0  0
   23.4269   73.7407   -5.6220 O   0  0  0  0  0  0  0  0  0  0  0  0
   21.7205   74.1218   -7.7148 O   0  0  0  0  0  0  0  0  0  0  0  0
   22.0682   74.0434   -5.3097 C   0  0  1  0  0  0  0  0  0  0  0  0
   21.1711   73.7041   -6.4817 C   0  0  2  0  0  0  0  0  0  0  0  0
   21.5980   73.0528   -4.2519 C   0  0  1  0  0  0  0  0  0  0  0  0
   21.0660   72.1925   -6.3707 C   0  0  2  0  0  0  0  0  0  0  0  0
   23.7495   74.3607   -6.2955 H   0  0  0  0  0  0  0  0  0  0  0  0
   21.7666   75.0904   -7.7367 H   0  0  0  0  0  0  0  0  0  0  0  0
   20.7680   69.7616   -7.7777 O   0  0  0  0  0  0  0  0  0  0  0  0
   16.2237   70.3746   -8.2406 O   0  0  0  0  0  0  0  0  0  0  0  0
   19.8163   71.6923   -6.8702 N   0  0  0  0  0  0  0  0  0  0  0  0
   18.5055   70.0687   -8.0069 N   0  0  0  0  0  0  0  0  0  0  0  0
   19.7754   70.4608   -7.5646 C   0  0  0  0  0  0  0  0  0  0  0  0
   18.6485   72.4202   -6.6694 C   0  0  0  0  0  0  0  0  0  0  0  0
   17.4455   72.0330   -7.0986 C   0  0  0  0  0  0  0  0  0  0  0  0
   17.3158   70.7580   -7.8330 C   0  0  0  0  0  0  0  0  0  0  0  0
   18.4527   69.2142   -8.4935 H   0  0  0  0  0  0  0  0  0  0  0  0
   20.6965   72.4581   -0.9438 O   0  0  0  0  0  0  0  0  0  0  0  0
   21.6578   71.7089    0.1180 P   0  0  2  0  0  0  0  0  0  0  0  0
   22.9262   71.2615   -0.7811 O   0  0  0  0  0  0  0  0  0  0  0  0
   20.9965   70.5833    0.8594 O   0  0  0  0  0  0  0  0  0  0  0  0
   22.2233   72.8901    1.0614 O   0  0  0  0  0  0  0  0  0  0  0  0
   23.7763   71.9080    2.5582 O   0  0  0  0  0  0  0  0  0  0  0  0
   23.8522   75.7846    3.9784 O   0  0  0  0  0  0  0  0  0  0  0  0
   26.1007   74.7687    2.5086 O   0  0  0  0  0  0  0  0  0  0  0  0
   21.3544   74.6198    3.0933 O   0  0  0  0  0  0  0  0  0  0  0  0
   23.7560   74.7640    2.9812 C   0  0  1  0  0  0  0  0  0  0  0  0
   25.0488   73.9461    3.0058 C   0  0  1  0  0  0  0  0  0  0  0  0
   22.5521   73.8760    3.2902 C   0  0  2  0  0  0  0  0  0  0  0  0
   24.9167   72.6754    2.1555 C   0  0  1  0  0  0  0  0  0  0  0  0
   22.5423   72.6158    2.4231 C   0  0  1  0  0  0  0  0  0  0  0  0
   24.6144   76.3523    3.7877 H   0  0  0  0  0  0  0  0  0  0  0  0
   26.1732   75.5678    3.0540 H   0  0  0  0  0  0  0  0  0  0  0  0
   21.3726   75.4147    3.6478 H   0  0  0  0  0  0  0  0  0  0  0  0
   25.9637   70.6515    1.4370 O   0  0  0  0  0  0  0  0  0  0  0  0
   26.1365   71.7668    2.2916 C   0  0  0  0  0  0  0  0  0  0  0  0
   26.7327   70.0645    1.5129 H   0  0  0  0  0  0  0  0  0  0  0  0
 25 28  1  0
 25 24  1  0
 25 26  1  6
 25 27  2  0
  1  4  1  0
  1 24  1  0
  1  2  1  6
  1  3  2  0
  6 11  1  0
  6 12  1  0
 29 36  1  0
 29 37  1  0
  9  7  1  6
  7 13  1  0
 10  8  1  6
  8 14  1  0
 37 28  1  6
  4  5  1  0
 33 30  1  1
 30 38  1  0
 34 31  1  6
 31 39  1  0
 35 32  1  6
 32 40  1  0
 41 42  1  0
 41 43  1  0
 15 19  2  0
 16 22  2  0
 12 17  1  1
 17 19  1  0
 17 20  1  0
 18 19  1  0
 18 22  1  0
 18 23  1  0
  9 10  1  0
  9 11  1  0
 10 12  1  0
 11  5  1  6
 33 34  1  0
 33 35  1  0
 34 36  1  0
 35 37  1  0
 36 42  1  1
 20 21  2  0
 21 22  1  0
M  CHG  2   2  -1  26  -1
M  END
>  <COMPND>  (51) 
    8629 

>  <AUTHOR>  (51) 
    GENERATED BY OPEN BABEL 3.1.1

>  <MASTER>  (51) 
        0    0    0    0    0    0    0    0   58    0   58    0

>  <minimizedAffinity>  (51) 
-6.50197

>  <CNNscore>  (51) 
0.6527822614

>  <CNNaffinity>  (51) 
4.2139215469

>  <CNN_VS>  (51) 
2.7507731915

>  <CNNaffinity_variance>  (51) 
0.0493562631

$$$$
52
     RDKit          3D

 43 45  0  0  0  0  0  0  0  0999 V2000
   21.2416   74.5080   -4.3673 P   0  0  2  0  0  0  0  0  0  0  0  0
   20.0324   75.3118   -3.6538 O   0  0  0  0  0  0  0  0  0  0  0  0
   22.0156   75.2973   -5.3818 O   0  0  0  0  0  0  0  0  0  0  0  0
   20.5399   73.1568   -4.9148 O   0  0  0  0  0  0  0  0  0  0  0  0
   20.2375   72.1286   -3.9879 C   0  0  0  0  0  0  0  0  0  0  0  0
   18.1251   72.2464   -5.1270 O   0  0  0  0  0  0  0  0  0  0  0  0
   16.9793   70.8097   -2.7577 O   0  0  0  0  0  0  0  0  0  0  0  0
   17.2424   68.8113   -4.5944 O   0  0  0  0  0  0  0  0  0  0  0  0
   18.2558   70.6551   -3.3759 C   0  0  1  0  0  0  0  0  0  0  0  0
   18.1171   69.9169   -4.6910 C   0  0  2  0  0  0  0  0  0  0  0  0
   18.7262   72.0308   -3.8314 C   0  0  1  0  0  0  0  0  0  0  0  0
   17.5852   71.0048   -5.6084 C   0  0  2  0  0  0  0  0  0  0  0  0
   16.6584   69.9442   -2.4581 H   0  0  0  0  0  0  0  0  0  0  0  0
   17.6251   68.1471   -4.0001 H   0  0  0  0  0  0  0  0  0  0  0  0
   15.8708   70.1371   -7.6786 O   0  0  0  0  0  0  0  0  0  0  0  0
   19.2524   70.3203  -10.8047 O   0  0  0  0  0  0  0  0  0  0  0  0
   17.9911   70.8175   -6.9728 N   0  0  0  0  0  0  0  0  0  0  0  0
   17.5559   70.2292   -9.2335 N   0  0  0  0  0  0  0  0  0  0  0  0
   17.0523   70.3776   -7.9349 C   0  0  0  0  0  0  0  0  0  0  0  0
   19.3070   71.0696   -7.3451 C   0  0  0  0  0  0  0  0  0  0  0  0
   19.7717   70.9219   -8.5875 C   0  0  0  0  0  0  0  0  0  0  0  0
   18.8555   70.4659   -9.6526 C   0  0  0  0  0  0  0  0  0  0  0  0
   16.9201   69.9234   -9.9205 H   0  0  0  0  0  0  0  0  0  0  0  0
   22.1167   73.9810   -3.1146 O   0  0  0  0  0  0  0  0  0  0  0  0
   23.7162   73.9101   -2.8921 P   0  0  2  0  0  0  0  0  0  0  0  0
   24.1083   75.4371   -2.5287 O   0  0  0  0  0  0  0  0  0  0  0  0
   24.4743   73.3358   -4.0537 O   0  0  0  0  0  0  0  0  0  0  0  0
   23.9006   73.1014   -1.5075 O   0  0  0  0  0  0  0  0  0  0  0  0
   22.3661   72.5432    0.2101 O   0  0  0  0  0  0  0  0  0  0  0  0
   25.6643   73.4252    2.5329 O   0  0  0  0  0  0  0  0  0  0  0  0
   24.8305   70.6933    2.2334 O   0  0  0  0  0  0  0  0  0  0  0  0
   25.0954   75.0039    0.1741 O   0  0  0  0  0  0  0  0  0  0  0  0
   24.9765   72.9242    1.3833 C   0  0  1  0  0  0  0  0  0  0  0  0
   24.0349   71.8069    1.8370 C   0  0  1  0  0  0  0  0  0  0  0  0
   24.1885   74.0625    0.7377 C   0  0  2  0  0  0  0  0  0  0  0  0
   23.0726   71.4027    0.7120 C   0  0  1  0  0  0  0  0  0  0  0  0
   23.2261   73.5465   -0.3336 C   0  0  1  0  0  0  0  0  0  0  0  0
   26.1670   72.7075    2.9472 H   0  0  0  0  0  0  0  0  0  0  0  0
   25.4341   70.9621    2.9438 H   0  0  0  0  0  0  0  0  0  0  0  0
   25.6990   75.3232    0.8623 H   0  0  0  0  0  0  0  0  0  0  0  0
   20.8492   70.5790    0.4173 O   0  0  0  0  0  0  0  0  0  0  0  0
   22.0224   70.4022    1.1897 C   0  0  0  0  0  0  0  0  0  0  0  0
   20.1720   69.9485    0.7101 H   0  0  0  0  0  0  0  0  0  0  0  0
 25 28  1  0
 25 24  1  0
 25 26  1  1
 25 27  2  0
  1  4  1  0
  1 24  1  0
  1  2  1  1
  1  3  2  0
  6 11  1  0
  6 12  1  0
 29 36  1  0
 29 37  1  0
  9  7  1  6
  7 13  1  0
 10  8  1  1
  8 14  1  0
 37 28  1  6
  4  5  1  0
 33 30  1  1
 30 38  1  0
 34 31  1  6
 31 39  1  0
 35 32  1  6
 32 40  1  0
 41 42  1  0
 41 43  1  0
 15 19  2  0
 16 22  2  0
 12 17  1  6
 17 19  1  0
 17 20  1  0
 18 19  1  0
 18 22  1  0
 18 23  1  0
  9 10  1  0
  9 11  1  0
 10 12  1  0
 11  5  1  6
 33 34  1  0
 33 35  1  0
 34 36  1  0
 35 37  1  0
 36 42  1  1
 20 21  2  0
 21 22  1  0
M  CHG  2   2  -1  26  -1
M  END
>  <COMPND>  (52) 
    8629 

>  <AUTHOR>  (52) 
    GENERATED BY OPEN BABEL 3.1.1

>  <MASTER>  (52) 
        0    0    0    0    0    0    0    0   58    0   58    0

>  <minimizedAffinity>  (52) 
-6.82218

>  <CNNscore>  (52) 
0.6482377052

>  <CNNaffinity>  (52) 
4.3223562241

>  <CNN_VS>  (52) 
2.8019142151

>  <CNNaffinity_variance>  (52) 
0.0224664025

$$$$
53
     RDKit          3D

 43 45  0  0  0  0  0  0  0  0999 V2000
   21.8396   72.8493   -5.4439 P   0  0  2  0  0  0  0  0  0  0  0  0
   21.2975   74.2367   -6.0753 O   0  0  0  0  0  0  0  0  0  0  0  0
   23.3138   72.6160   -5.5982 O   0  0  0  0  0  0  0  0  0  0  0  0
   20.8780   71.7236   -6.0965 O   0  0  0  0  0  0  0  0  0  0  0  0
   19.9929   72.1092   -7.1337 C   0  0  0  0  0  0  0  0  0  0  0  0
   18.6974   70.1370   -6.6801 O   0  0  0  0  0  0  0  0  0  0  0  0
   18.1655   70.0353   -9.6293 O   0  0  0  0  0  0  0  0  0  0  0  0
   15.8620   71.1146   -8.6467 O   0  0  0  0  0  0  0  0  0  0  0  0
   18.2894   71.1700   -8.7735 C   0  0  1  0  0  0  0  0  0  0  0  0
   17.0522   71.3167   -7.9123 C   0  0  2  0  0  0  0  0  0  0  0  0
   19.3632   70.8615   -7.7376 C   0  0  1  0  0  0  0  0  0  0  0  0
   17.2756   70.2485   -6.8554 C   0  0  2  0  0  0  0  0  0  0  0  0
   17.4854   70.2088  -10.2996 H   0  0  0  0  0  0  0  0  0  0  0  0
   15.7650   71.8195   -9.3059 H   0  0  0  0  0  0  0  0  0  0  0  0
   16.7411   68.3989   -4.7887 O   0  0  0  0  0  0  0  0  0  0  0  0
   14.9706   71.6713   -2.0687 O   0  0  0  0  0  0  0  0  0  0  0  0
   16.6758   70.5899   -5.5964 N   0  0  0  0  0  0  0  0  0  0  0  0
   15.8601   70.0298   -3.4360 N   0  0  0  0  0  0  0  0  0  0  0  0
   16.4494   69.5856   -4.6265 C   0  0  0  0  0  0  0  0  0  0  0  0
   16.3193   71.9081   -5.3334 C   0  0  0  0  0  0  0  0  0  0  0  0
   15.7570   72.3151   -4.1935 C   0  0  0  0  0  0  0  0  0  0  0  0
   15.4866   71.3284   -3.1280 C   0  0  0  0  0  0  0  0  0  0  0  0
   15.6925   69.3476   -2.7459 H   0  0  0  0  0  0  0  0  0  0  0  0
   21.3267   72.9219   -3.9126 O   0  0  0  0  0  0  0  0  0  0  0  0
   19.8353   73.0119   -3.2958 P   0  0  2  0  0  0  0  0  0  0  0  0
   19.2810   71.4990   -3.4431 O   0  0  0  0  0  0  0  0  0  0  0  0
   18.9662   74.0549   -3.9367 O   0  0  0  0  0  0  0  0  0  0  0  0
   20.0604   73.2110   -1.7101 O   0  0  0  0  0  0  0  0  0  0  0  0
   21.5787   74.1291   -0.1390 O   0  0  0  0  0  0  0  0  0  0  0  0
   21.5828   70.2074    1.1536 O   0  0  0  0  0  0  0  0  0  0  0  0
   20.2556   72.2153    2.7203 O   0  0  0  0  0  0  0  0  0  0  0  0
   21.4858   70.7938   -1.6794 O   0  0  0  0  0  0  0  0  0  0  0  0
   21.0112   71.3974    0.6035 C   0  0  1  0  0  0  0  0  0  0  0  0
   21.1373   72.5142    1.6416 C   0  0  1  0  0  0  0  0  0  0  0  0
   21.7601   71.7655   -0.6759 C   0  0  2  0  0  0  0  0  0  0  0  0
   20.7917   73.8792    1.0315 C   0  0  1  0  0  0  0  0  0  0  0  0
   21.3790   73.1617   -1.1715 C   0  0  1  0  0  0  0  0  0  0  0  0
   21.1115   69.9678    1.9660 H   0  0  0  0  0  0  0  0  0  0  0  0
   20.4842   71.3507    3.0964 H   0  0  0  0  0  0  0  0  0  0  0  0
   21.7316   69.9145   -1.3536 H   0  0  0  0  0  0  0  0  0  0  0  0
   21.5374   76.1369    1.2672 O   0  0  0  0  0  0  0  0  0  0  0  0
   21.0622   75.0253    2.0039 C   0  0  0  0  0  0  0  0  0  0  0  0
   21.7136   76.8742    1.8732 H   0  0  0  0  0  0  0  0  0  0  0  0
 25 28  1  0
 25 24  1  0
 25 26  1  1
 25 27  2  0
  1  4  1  0
  1 24  1  0
  1  2  1  6
  1  3  2  0
  6 11  1  0
  6 12  1  0
 29 36  1  0
 29 37  1  0
  9  7  1  6
  7 13  1  0
 10  8  1  6
  8 14  1  0
 37 28  1  1
  4  5  1  0
 33 30  1  1
 30 38  1  0
 34 31  1  1
 31 39  1  0
 35 32  1  6
 32 40  1  0
 41 42  1  0
 41 43  1  0
 15 19  2  0
 16 22  2  0
 12 17  1  1
 17 19  1  0
 17 20  1  0
 18 19  1  0
 18 22  1  0
 18 23  1  0
  9 10  1  0
  9 11  1  0
 10 12  1  0
 11  5  1  1
 33 34  1  0
 33 35  1  0
 34 36  1  0
 35 37  1  0
 36 42  1  1
 20 21  2  0
 21 22  1  0
M  CHG  2   2  -1  26  -1
M  END
>  <COMPND>  (53) 
    8629 

>  <AUTHOR>  (53) 
    GENERATED BY OPEN BABEL 3.1.1

>  <MASTER>  (53) 
        0    0    0    0    0    0    0    0   58    0   58    0

>  <minimizedAffinity>  (53) 
-6.91464

>  <CNNscore>  (53) 
0.6318638921

>  <CNNaffinity>  (53) 
4.3536033630

>  <CNN_VS>  (53) 
2.7508847713

>  <CNNaffinity_variance>  (53) 
0.1552159339

$$$$
54
     RDKit          3D

 43 45  0  0  0  0  0  0  0  0999 V2000
   22.0979   73.1821   -7.1103 P   0  0  2  0  0  0  0  0  0  0  0  0
   20.9312   74.0956   -6.4608 O   0  0  0  0  0  0  0  0  0  0  0  0
   23.1540   73.9408   -7.8589 O   0  0  0  0  0  0  0  0  0  0  0  0
   21.2904   72.0717   -7.9664 O   0  0  0  0  0  0  0  0  0  0  0  0
   20.7916   70.9295   -7.2924 C   0  0  0  0  0  0  0  0  0  0  0  0
   18.7918   69.5975   -7.3050 O   0  0  0  0  0  0  0  0  0  0  0  0
   18.4149   70.5266  -10.1309 O   0  0  0  0  0  0  0  0  0  0  0  0
   16.6921   72.1232   -8.7455 O   0  0  0  0  0  0  0  0  0  0  0  0
   18.9403   71.2363   -9.0103 C   0  0  1  0  0  0  0  0  0  0  0  0
   17.8241   71.6238   -8.0629 C   0  0  2  0  0  0  0  0  0  0  0  0
   19.7454   70.2542   -8.1685 C   0  0  1  0  0  0  0  0  0  0  0  0
   17.5454   70.3111   -7.3507 C   0  0  2  0  0  0  0  0  0  0  0  0
   17.8969   71.1332  -10.6837 H   0  0  0  0  0  0  0  0  0  0  0  0
   16.9201   72.9587   -9.1820 H   0  0  0  0  0  0  0  0  0  0  0  0
   16.3585   68.2935   -5.7700 O   0  0  0  0  0  0  0  0  0  0  0  0
   15.7574   71.1722   -2.2213 O   0  0  0  0  0  0  0  0  0  0  0  0
   17.0700   70.5056   -6.0100 N   0  0  0  0  0  0  0  0  0  0  0  0
   16.0603   69.7285   -4.0042 N   0  0  0  0  0  0  0  0  0  0  0  0
   16.4890   69.4270   -5.3032 C   0  0  0  0  0  0  0  0  0  0  0  0
   17.1824   71.7548   -5.4093 C   0  0  0  0  0  0  0  0  0  0  0  0
   16.7675   72.0262   -4.1701 C   0  0  0  0  0  0  0  0  0  0  0  0
   16.1490   70.9542   -3.3637 C   0  0  0  0  0  0  0  0  0  0  0  0
   15.6520   68.9925   -3.4929 H   0  0  0  0  0  0  0  0  0  0  0  0
   22.6453   72.3380   -5.8451 O   0  0  0  0  0  0  0  0  0  0  0  0
   23.1917   72.8215   -4.4027 P   0  0  2  0  0  0  0  0  0  0  0  0
   23.6496   74.3495   -4.6725 O   0  0  0  0  0  0  0  0  0  0  0  0
   24.2663   71.9455   -3.8265 O   0  0  0  0  0  0  0  0  0  0  0  0
   21.8691   72.9480   -3.4863 O   0  0  0  0  0  0  0  0  0  0  0  0
   21.0100   74.4697   -1.8854 O   0  0  0  0  0  0  0  0  0  0  0  0
   20.4154   70.9402    0.1736 O   0  0  0  0  0  0  0  0  0  0  0  0
   18.1607   72.3344   -0.9311 O   0  0  0  0  0  0  0  0  0  0  0  0
   22.8059   71.2975   -1.4192 O   0  0  0  0  0  0  0  0  0  0  0  0
   20.4862   71.7775   -0.9837 C   0  0  1  0  0  0  0  0  0  0  0  0
   19.4626   72.9034   -0.8243 C   0  0  1  0  0  0  0  0  0  0  0  0
   21.8985   72.3474   -1.1018 C   0  0  2  0  0  0  0  0  0  0  0  0
   19.6612   73.9877   -1.8920 C   0  0  1  0  0  0  0  0  0  0  0  0
   21.9754   73.4519   -2.1574 C   0  0  1  0  0  0  0  0  0  0  0  0
   19.5212   70.5747    0.2542 H   0  0  0  0  0  0  0  0  0  0  0  0
   18.0484   71.6510   -0.2518 H   0  0  0  0  0  0  0  0  0  0  0  0
   22.7479   70.6048   -0.7434 H   0  0  0  0  0  0  0  0  0  0  0  0
   17.4552   74.8770   -2.1192 O   0  0  0  0  0  0  0  0  0  0  0  0
   18.7551   75.1944   -1.6571 C   0  0  0  0  0  0  0  0  0  0  0  0
   16.8674   75.6357   -1.9758 H   0  0  0  0  0  0  0  0  0  0  0  0
 25 28  1  0
 25 24  1  0
 25 26  1  6
 25 27  2  0
  1  4  1  0
  1 24  1  0
  1  2  1  1
  1  3  2  0
  6 11  1  0
  6 12  1  0
 29 36  1  0
 29 37  1  0
  9  7  1  6
  7 13  1  0
 10  8  1  6
  8 14  1  0
 37 28  1  6
  4  5  1  0
 33 30  1  1
 30 38  1  0
 34 31  1  6
 31 39  1  0
 35 32  1  6
 32 40  1  0
 41 42  1  0
 41 43  1  0
 15 19  2  0
 16 22  2  0
 12 17  1  1
 17 19  1  0
 17 20  1  0
 18 19  1  0
 18 22  1  0
 18 23  1  0
  9 10  1  0
  9 11  1  0
 10 12  1  0
 11  5  1  1
 33 34  1  0
 33 35  1  0
 34 36  1  0
 35 37  1  0
 36 42  1  1
 20 21  2  0
 21 22  1  0
M  CHG  2   2  -1  26  -1
M  END
>  <COMPND>  (54) 
    8629 

>  <AUTHOR>  (54) 
    GENERATED BY OPEN BABEL 3.1.1

>  <MASTER>  (54) 
        0    0    0    0    0    0    0    0   58    0   58    0

>  <minimizedAffinity>  (54) 
-6.77271

>  <CNNscore>  (54) 
0.5780406594

>  <CNNaffinity>  (54) 
4.3286046982

>  <CNN_VS>  (54) 
2.5021095276

>  <CNNaffinity_variance>  (54) 
0.2548293769

$$$$
55
     RDKit          3D

 43 45  0  0  0  0  0  0  0  0999 V2000
   23.1512   71.8118   -2.5902 P   0  0  2  0  0  0  0  0  0  0  0  0
   23.4257   73.3995   -2.4444 O   0  0  0  0  0  0  0  0  0  0  0  0
   24.3069   71.0148   -3.1201 O   0  0  0  0  0  0  0  0  0  0  0  0
   21.7866   71.7313   -3.4558 O   0  0  0  0  0  0  0  0  0  0  0  0
   21.6053   72.6501   -4.5192 C   0  0  0  0  0  0  0  0  0  0  0  0
   20.7842   70.6818   -5.6261 O   0  0  0  0  0  0  0  0  0  0  0  0
   21.3217   72.1305   -8.1959 O   0  0  0  0  0  0  0  0  0  0  0  0
   18.6271   72.4265   -7.8990 O   0  0  0  0  0  0  0  0  0  0  0  0
   20.8549   72.6459   -6.9502 C   0  0  1  0  0  0  0  0  0  0  0  0
   19.4063   72.2616   -6.7318 C   0  0  2  0  0  0  0  0  0  0  0  0
   21.5579   71.8837   -5.8339 C   0  0  1  0  0  0  0  0  0  0  0  0
   19.5264   70.8072   -6.3097 C   0  0  2  0  0  0  0  0  0  0  0  0
   20.8869   72.6022   -8.9241 H   0  0  0  0  0  0  0  0  0  0  0  0
   18.5806   73.3682   -8.1266 H   0  0  0  0  0  0  0  0  0  0  0  0
   17.0176   69.8234   -7.1558 O   0  0  0  0  0  0  0  0  0  0  0  0
   15.5550   69.2980   -2.8169 O   0  0  0  0  0  0  0  0  0  0  0  0
   18.4715   70.4055   -5.4224 N   0  0  0  0  0  0  0  0  0  0  0  0
   16.2915   69.5624   -4.9946 N   0  0  0  0  0  0  0  0  0  0  0  0
   17.2496   69.9263   -5.9494 C   0  0  0  0  0  0  0  0  0  0  0  0
   18.6542   70.4883   -4.0463 C   0  0  0  0  0  0  0  0  0  0  0  0
   17.7300   70.1386   -3.1492 C   0  0  0  0  0  0  0  0  0  0  0  0
   16.4252   69.6277   -3.6168 C   0  0  0  0  0  0  0  0  0  0  0  0
   15.4322   69.2261   -5.3385 H   0  0  0  0  0  0  0  0  0  0  0  0
   22.6663   71.3891   -1.1072 O   0  0  0  0  0  0  0  0  0  0  0  0
   21.4020   71.8752   -0.2250 P   0  0  2  0  0  0  0  0  0  0  0  0
   20.7432   70.4852    0.2765 O   0  0  0  0  0  0  0  0  0  0  0  0
   20.4541   72.7817   -0.9555 O   0  0  0  0  0  0  0  0  0  0  0  0
   22.0543   72.5197    1.1031 O   0  0  0  0  0  0  0  0  0  0  0  0
   21.3857   74.4416    2.3180 O   0  0  0  0  0  0  0  0  0  0  0  0
   25.4746   74.7393    2.8103 O   0  0  0  0  0  0  0  0  0  0  0  0
   23.8323   73.9551    5.0320 O   0  0  0  0  0  0  0  0  0  0  0  0
   24.3860   73.8471    0.2808 O   0  0  0  0  0  0  0  0  0  0  0  0
   24.2248   74.0574    2.6748 C   0  0  1  0  0  0  0  0  0  0  0  0
   23.3120   74.4969    3.8212 C   0  0  1  0  0  0  0  0  0  0  0  0
   23.6043   74.4159    1.3258 C   0  0  2  0  0  0  0  0  0  0  0  0
   21.8714   74.0178    3.5971 C   0  0  1  0  0  0  0  0  0  0  0  0
   22.1553   73.9361    1.2253 C   0  0  1  0  0  0  0  0  0  0  0  0
   25.8741   74.5157    3.6647 H   0  0  0  0  0  0  0  0  0  0  0  0
   24.7425   74.2650    5.1614 H   0  0  0  0  0  0  0  0  0  0  0  0
   25.3010   74.1587    0.3553 H   0  0  0  0  0  0  0  0  0  0  0  0
   20.9310   73.7214    5.7735 O   0  0  0  0  0  0  0  0  0  0  0  0
   20.9128   74.5774    4.6460 C   0  0  0  0  0  0  0  0  0  0  0  0
   20.3257   74.0653    6.4496 H   0  0  0  0  0  0  0  0  0  0  0  0
 25 28  1  0
 25 24  1  0
 25 26  1  1
 25 27  2  0
  1  4  1  0
  1 24  1  0
  1  2  1  1
  1  3  2  0
  6 11  1  0
  6 12  1  0
 29 36  1  0
 29 37  1  0
  9  7  1  6
  7 13  1  0
 10  8  1  6
  8 14  1  0
 37 28  1  1
  4  5  1  0
 33 30  1  1
 30 38  1  0
 34 31  1  1
 31 39  1  0
 35 32  1  6
 32 40  1  0
 41 42  1  0
 41 43  1  0
 15 19  2  0
 16 22  2  0
 12 17  1  1
 17 19  1  0
 17 20  1  0
 18 19  1  0
 18 22  1  0
 18 23  1  0
  9 10  1  0
  9 11  1  0
 10 12  1  0
 11  5  1  1
 33 34  1  0
 33 35  1  0
 34 36  1  0
 35 37  1  0
 36 42  1  1
 20 21  2  0
 21 22  1  0
M  CHG  2   2  -1  26  -1
M  END
>  <COMPND>  (55) 
    8629 

>  <AUTHOR>  (55) 
    GENERATED BY OPEN BABEL 3.1.1

>  <MASTER>  (55) 
        0    0    0    0    0    0    0    0   58    0   58    0

>  <minimizedAffinity>  (55) 
-6.95533

>  <CNNscore>  (55) 
0.5524286628

>  <CNNaffinity>  (55) 
4.1352443695

>  <CNN_VS>  (55) 
2.2844274044

>  <CNNaffinity_variance>  (55) 
0.2453868836

$$$$
56
     RDKit          3D

 43 45  0  0  0  0  0  0  0  0999 V2000
   21.4858   75.5273   -4.0995 P   0  0  2  0  0  0  0  0  0  0  0  0
   21.6807   76.2753   -2.6782 O   0  0  0  0  0  0  0  0  0  0  0  0
   22.0836   76.2389   -5.2774 O   0  0  0  0  0  0  0  0  0  0  0  0
   19.8933   75.2526   -4.1786 O   0  0  0  0  0  0  0  0  0  0  0  0
   19.3994   74.4351   -5.2253 C   0  0  0  0  0  0  0  0  0  0  0  0
   17.5637   73.0079   -5.8311 O   0  0  0  0  0  0  0  0  0  0  0  0
   17.5642   72.1072   -2.9711 O   0  0  0  0  0  0  0  0  0  0  0  0
   18.8586   70.0678   -4.2368 O   0  0  0  0  0  0  0  0  0  0  0  0
   18.6664   72.4533   -3.8082 C   0  0  1  0  0  0  0  0  0  0  0  0
   18.9256   71.3543   -4.8175 C   0  0  2  0  0  0  0  0  0  0  0  0
   18.2327   73.6092   -4.7010 C   0  0  1  0  0  0  0  0  0  0  0  0
   17.8233   71.5946   -5.8350 C   0  0  2  0  0  0  0  0  0  0  0  0
   17.8173   71.3711   -2.3914 H   0  0  0  0  0  0  0  0  0  0  0  0
   19.5801   69.9637   -3.5970 H   0  0  0  0  0  0  0  0  0  0  0  0
   16.1050   70.3047   -7.6684 O   0  0  0  0  0  0  0  0  0  0  0  0
   19.3941   70.1034  -10.8905 O   0  0  0  0  0  0  0  0  0  0  0  0
   18.2044   71.1941   -7.1601 N   0  0  0  0  0  0  0  0  0  0  0  0
   17.7440   70.2057   -9.2713 N   0  0  0  0  0  0  0  0  0  0  0  0
   17.2659   70.5520   -8.0011 C   0  0  0  0  0  0  0  0  0  0  0  0
   19.4960   71.4391   -7.6135 C   0  0  0  0  0  0  0  0  0  0  0  0
   19.9367   71.1014   -8.8272 C   0  0  0  0  0  0  0  0  0  0  0  0
   19.0190   70.4267   -9.7678 C   0  0  0  0  0  0  0  0  0  0  0  0
   17.1079   69.7569   -9.8745 H   0  0  0  0  0  0  0  0  0  0  0  0
   22.0950   74.0559   -3.8223 O   0  0  0  0  0  0  0  0  0  0  0  0
   23.5815   73.5855   -3.3957 P   0  0  2  0  0  0  0  0  0  0  0  0
   24.3751   74.9835   -3.2136 O   0  0  0  0  0  0  0  0  0  0  0  0
   24.2243   72.6293   -4.3583 O   0  0  0  0  0  0  0  0  0  0  0  0
   23.4142   73.0133   -1.8958 O   0  0  0  0  0  0  0  0  0  0  0  0
   23.7822   71.2704   -0.3327 O   0  0  0  0  0  0  0  0  0  0  0  0
   19.8410   70.4846   -1.2814 O   0  0  0  0  0  0  0  0  0  0  0  0
   20.4858   71.6063    1.2826 O   0  0  0  0  0  0  0  0  0  0  0  0
   21.6774   71.3517   -3.3442 O   0  0  0  0  0  0  0  0  0  0  0  0
   20.9828   71.3107   -1.0383 C   0  0  1  0  0  0  0  0  0  0  0  0
   21.4582   71.0621    0.3946 C   0  0  1  0  0  0  0  0  0  0  0  0
   22.0803   70.9523   -2.0386 C   0  0  2  0  0  0  0  0  0  0  0  0
   22.8287   71.7063    0.6432 C   0  0  1  0  0  0  0  0  0  0  0  0
   23.4139   71.6058   -1.6720 C   0  0  1  0  0  0  0  0  0  0  0  0
   19.1402   70.7075   -0.6499 H   0  0  0  0  0  0  0  0  0  0  0  0
   19.6249   71.1915    1.1149 H   0  0  0  0  0  0  0  0  0  0  0  0
   20.8322   70.9312   -3.5645 H   0  0  0  0  0  0  0  0  0  0  0  0
   22.7327   72.1165    2.9951 O   0  0  0  0  0  0  0  0  0  0  0  0
   23.3933   71.3388    2.0137 C   0  0  0  0  0  0  0  0  0  0  0  0
   23.0816   71.8930    3.8726 H   0  0  0  0  0  0  0  0  0  0  0  0
 25 28  1  0
 25 24  1  0
 25 26  1  1
 25 27  2  0
  1  4  1  0
  1 24  1  0
  1  2  1  1
  1  3  2  0
  6 11  1  0
  6 12  1  0
 29 36  1  0
 29 37  1  0
  9  7  1  1
  7 13  1  0
 10  8  1  1
  8 14  1  0
 37 28  1  1
  4  5  1  0
 33 30  1  6
 30 38  1  0
 34 31  1  1
 31 39  1  0
 35 32  1  6
 32 40  1  0
 41 42  1  0
 41 43  1  0
 15 19  2  0
 16 22  2  0
 12 17  1  6
 17 19  1  0
 17 20  1  0
 18 19  1  0
 18 22  1  0
 18 23  1  0
  9 10  1  0
  9 11  1  0
 10 12  1  0
 11  5  1  6
 33 34  1  0
 33 35  1  0
 34 36  1  0
 35 37  1  0
 36 42  1  1
 20 21  2  0
 21 22  1  0
M  CHG  2   2  -1  26  -1
M  END
>  <COMPND>  (56) 
    8629 

>  <AUTHOR>  (56) 
    GENERATED BY OPEN BABEL 3.1.1

>  <MASTER>  (56) 
        0    0    0    0    0    0    0    0   58    0   58    0

>  <minimizedAffinity>  (56) 
-6.72716

>  <CNNscore>  (56) 
0.5447519422

>  <CNNaffinity>  (56) 
4.2766299248

>  <CNN_VS>  (56) 
2.3297023773

>  <CNNaffinity_variance>  (56) 
0.0657209158

$$$$
57
     RDKit          3D

 43 45  0  0  0  0  0  0  0  0999 V2000
   23.5618   72.4891   -3.6141 P   0  0  2  0  0  0  0  0  0  0  0  0
   24.1591   71.0454   -3.1941 O   0  0  0  0  0  0  0  0  0  0  0  0
   24.5849   73.5736   -3.7825 O   0  0  0  0  0  0  0  0  0  0  0  0
   22.4143   72.7711   -2.5088 O   0  0  0  0  0  0  0  0  0  0  0  0
   22.8062   72.9580   -1.1599 C   0  0  0  0  0  0  0  0  0  0  0  0
   23.8684   71.3900    0.3190 O   0  0  0  0  0  0  0  0  0  0  0  0
   21.1179   70.3290    0.8666 O   0  0  0  0  0  0  0  0  0  0  0  0
   21.6000   71.8871    3.0521 O   0  0  0  0  0  0  0  0  0  0  0  0
   21.5363   71.6724    0.6312 C   0  0  1  0  0  0  0  0  0  0  0  0
   22.2567   72.2194    1.8459 C   0  0  2  0  0  0  0  0  0  0  0  0
   22.6476   71.6420   -0.4107 C   0  0  1  0  0  0  0  0  0  0  0  0
   23.6221   71.5643    1.7239 C   0  0  2  0  0  0  0  0  0  0  0  0
   20.4082   70.3229    1.5286 H   0  0  0  0  0  0  0  0  0  0  0  0
   20.7365   72.3279    3.0824 H   0  0  0  0  0  0  0  0  0  0  0  0
   26.2445   70.6477    2.2345 O   0  0  0  0  0  0  0  0  0  0  0  0
   27.5549   74.7497    3.8769 O   0  0  0  0  0  0  0  0  0  0  0  0
   24.6688   72.3717    2.2842 N   0  0  0  0  0  0  0  0  0  0  0  0
   26.8949   72.6910    3.0517 N   0  0  0  0  0  0  0  0  0  0  0  0
   25.9506   71.8147    2.5017 C   0  0  0  0  0  0  0  0  0  0  0  0
   24.4197   73.7001    2.6114 C   0  0  0  0  0  0  0  0  0  0  0  0
   25.3307   74.5221    3.1363 C   0  0  0  0  0  0  0  0  0  0  0  0
   26.6951   74.0187    3.3950 C   0  0  0  0  0  0  0  0  0  0  0  0
   27.7948   72.3248    3.2124 H   0  0  0  0  0  0  0  0  0  0  0  0
   22.7090   72.1560   -4.9463 O   0  0  0  0  0  0  0  0  0  0  0  0
   21.9004   73.1228   -5.9584 P   0  0  2  0  0  0  0  0  0  0  0  0
   22.6648   72.9069   -7.3679 O   0  0  0  0  0  0  0  0  0  0  0  0
   21.8199   74.5534   -5.5104 O   0  0  0  0  0  0  0  0  0  0  0  0
   20.4697   72.4024   -6.1561 O   0  0  0  0  0  0  0  0  0  0  0  0
   19.7843   70.2578   -5.4159 O   0  0  0  0  0  0  0  0  0  0  0  0
   17.6414   70.4556   -8.9401 O   0  0  0  0  0  0  0  0  0  0  0  0
   16.2670   70.6936   -6.4297 O   0  0  0  0  0  0  0  0  0  0  0  0
   20.3259   71.5321   -8.8201 O   0  0  0  0  0  0  0  0  0  0  0  0
   18.2420   70.9727   -7.7496 C   0  0  1  0  0  0  0  0  0  0  0  0
   17.6186   70.2585   -6.5488 C   0  0  1  0  0  0  0  0  0  0  0  0
   19.7481   70.7230   -7.8013 C   0  0  2  0  0  0  0  0  0  0  0  0
   18.3935   70.5630   -5.2596 C   0  0  1  0  0  0  0  0  0  0  0  0
   20.4147   71.0098   -6.4546 C   0  0  1  0  0  0  0  0  0  0  0  0
   16.6851   70.6114   -8.9139 H   0  0  0  0  0  0  0  0  0  0  0  0
   15.7889   70.4960   -7.2504 H   0  0  0  0  0  0  0  0  0  0  0  0
   19.8956   71.3410   -9.6676 H   0  0  0  0  0  0  0  0  0  0  0  0
   17.0708   68.6937   -4.5777 O   0  0  0  0  0  0  0  0  0  0  0  0
   17.8858   69.7382   -4.0789 C   0  0  0  0  0  0  0  0  0  0  0  0
   16.7407   68.1602   -3.8373 H   0  0  0  0  0  0  0  0  0  0  0  0
 25 28  1  0
 25 24  1  0
 25 26  1  6
 25 27  2  0
  1  4  1  0
  1 24  1  0
  1  2  1  1
  1  3  2  0
  6 11  1  0
  6 12  1  0
 29 36  1  0
 29 37  1  0
  9  7  1  1
  7 13  1  0
 10  8  1  1
  8 14  1  0
 37 28  1  1
  4  5  1  0
 33 30  1  6
 30 38  1  0
 34 31  1  1
 31 39  1  0
 35 32  1  6
 32 40  1  0
 41 42  1  0
 41 43  1  0
 15 19  2  0
 16 22  2  0
 12 17  1  6
 17 19  1  0
 17 20  1  0
 18 19  1  0
 18 22  1  0
 18 23  1  0
  9 10  1  0
  9 11  1  0
 10 12  1  0
 11  5  1  1
 33 34  1  0
 33 35  1  0
 34 36  1  0
 35 37  1  0
 36 42  1  1
 20 21  2  0
 21 22  1  0
M  CHG  2   2  -1  26  -1
M  END
>  <COMPND>  (57) 
    8629 

>  <AUTHOR>  (57) 
    GENERATED BY OPEN BABEL 3.1.1

>  <MASTER>  (57) 
        0    0    0    0    0    0    0    0   58    0   58    0

>  <minimizedAffinity>  (57) 
-7.94877

>  <CNNscore>  (57) 
0.5280002356

>  <CNNaffinity>  (57) 
4.2569751740

>  <CNN_VS>  (57) 
2.2476840019

>  <CNNaffinity_variance>  (57) 
0.2238430679

$$$$
58
     RDKit          3D

 43 45  0  0  0  0  0  0  0  0999 V2000
   23.0031   72.8999   -3.9727 P   0  0  2  0  0  0  0  0  0  0  0  0
   24.0578   71.7066   -3.6879 O   0  0  0  0  0  0  0  0  0  0  0  0
   23.5921   74.2800   -3.9711 O   0  0  0  0  0  0  0  0  0  0  0  0
   21.8218   72.6389   -2.8983 O   0  0  0  0  0  0  0  0  0  0  0  0
   21.1544   71.3891   -2.9176 C   0  0  0  0  0  0  0  0  0  0  0  0
   20.5557   70.7448   -0.6815 O   0  0  0  0  0  0  0  0  0  0  0  0
   18.3244   72.7352   -0.9058 O   0  0  0  0  0  0  0  0  0  0  0  0
   20.1818   74.0875    0.5631 O   0  0  0  0  0  0  0  0  0  0  0  0
   19.6493   72.8021   -1.4307 C   0  0  1  0  0  0  0  0  0  0  0  0
   20.6406   73.0857   -0.3215 C   0  0  2  0  0  0  0  0  0  0  0  0
   20.0526   71.3991   -1.8669 C   0  0  1  0  0  0  0  0  0  0  0  0
   20.7628   71.7268    0.3469 C   0  0  2  0  0  0  0  0  0  0  0  0
   18.0446   73.6198   -0.6209 H   0  0  0  0  0  0  0  0  0  0  0  0
   20.1209   74.9326    0.0912 H   0  0  0  0  0  0  0  0  0  0  0  0
   21.3080   71.9239    3.1113 O   0  0  0  0  0  0  0  0  0  0  0  0
   25.7620   70.9148    2.4911 O   0  0  0  0  0  0  0  0  0  0  0  0
   22.0560   71.5202    0.9354 N   0  0  0  0  0  0  0  0  0  0  0  0
   23.5252   71.4211    2.8002 N   0  0  0  0  0  0  0  0  0  0  0  0
   22.2232   71.6439    2.3343 C   0  0  0  0  0  0  0  0  0  0  0  0
   23.1414   71.1984    0.1278 C   0  0  0  0  0  0  0  0  0  0  0  0
   24.3770   70.9903    0.5875 C   0  0  0  0  0  0  0  0  0  0  0  0
   24.6370   71.1002    2.0375 C   0  0  0  0  0  0  0  0  0  0  0  0
   23.6657   71.5022    3.7716 H   0  0  0  0  0  0  0  0  0  0  0  0
   22.3251   72.4594   -5.3724 O   0  0  0  0  0  0  0  0  0  0  0  0
   21.4155   73.2901   -6.4191 P   0  0  2  0  0  0  0  0  0  0  0  0
   22.1805   73.0743   -7.8282 O   0  0  0  0  0  0  0  0  0  0  0  0
   21.2031   74.7281   -6.0437 O   0  0  0  0  0  0  0  0  0  0  0  0
   20.0585   72.4270   -6.5556 O   0  0  0  0  0  0  0  0  0  0  0  0
   19.4670   70.2816   -5.7406 O   0  0  0  0  0  0  0  0  0  0  0  0
   17.6520   70.1035   -9.4452 O   0  0  0  0  0  0  0  0  0  0  0  0
   16.0366   70.3775   -7.0865 O   0  0  0  0  0  0  0  0  0  0  0  0
   20.2271   71.3945   -9.1595 O   0  0  0  0  0  0  0  0  0  0  0  0
   18.0997   70.7350   -8.2427 C   0  0  1  0  0  0  0  0  0  0  0  0
   17.4218   70.0447   -7.0575 C   0  0  1  0  0  0  0  0  0  0  0  0
   19.6184   70.6028   -8.1451 C   0  0  2  0  0  0  0  0  0  0  0  0
   18.0491   70.4842   -5.7276 C   0  0  1  0  0  0  0  0  0  0  0  0
   20.1341   71.0195   -6.7665 C   0  0  1  0  0  0  0  0  0  0  0  0
   16.6885   70.1842   -9.5136 H   0  0  0  0  0  0  0  0  0  0  0  0
   15.6526   70.0952   -7.9316 H   0  0  0  0  0  0  0  0  0  0  0  0
   19.8926   71.1208  -10.0274 H   0  0  0  0  0  0  0  0  0  0  0  0
   16.1223   70.0015   -4.3997 O   0  0  0  0  0  0  0  0  0  0  0  0
   17.4961   69.6919   -4.5450 C   0  0  0  0  0  0  0  0  0  0  0  0
   15.7568   69.5042   -3.6508 H   0  0  0  0  0  0  0  0  0  0  0  0
 25 28  1  0
 25 24  1  0
 25 26  1  6
 25 27  2  0
  1  4  1  0
  1 24  1  0
  1  2  1  1
  1  3  2  0
  6 11  1  0
  6 12  1  0
 29 36  1  0
 29 37  1  0
  9  7  1  1
  7 13  1  0
 10  8  1  1
  8 14  1  0
 37 28  1  1
  4  5  1  0
 33 30  1  6
 30 38  1  0
 34 31  1  1
 31 39  1  0
 35 32  1  6
 32 40  1  0
 41 42  1  0
 41 43  1  0
 15 19  2  0
 16 22  2  0
 12 17  1  6
 17 19  1  0
 17 20  1  0
 18 19  1  0
 18 22  1  0
 18 23  1  0
  9 10  1  0
  9 11  1  0
 10 12  1  0
 11  5  1  6
 33 34  1  0
 33 35  1  0
 34 36  1  0
 35 37  1  0
 36 42  1  1
 20 21  2  0
 21 22  1  0
M  CHG  2   2  -1  26  -1
M  END
>  <COMPND>  (58) 
    8629 

>  <AUTHOR>  (58) 
    GENERATED BY OPEN BABEL 3.1.1

>  <MASTER>  (58) 
        0    0    0    0    0    0    0    0   58    0   58    0

>  <minimizedAffinity>  (58) 
-7.48519

>  <CNNscore>  (58) 
0.5168279409

>  <CNNaffinity>  (58) 
4.1968879700

>  <CNN_VS>  (58) 
2.1690690517

>  <CNNaffinity_variance>  (58) 
0.1869736910

$$$$
59
     RDKit          3D

 43 45  0  0  0  0  0  0  0  0999 V2000
   21.8693   72.5689   -5.7286 P   0  0  2  0  0  0  0  0  0  0  0  0
   21.2388   73.9337   -5.1311 O   0  0  0  0  0  0  0  0  0  0  0  0
   22.9984   72.7634   -6.6975 O   0  0  0  0  0  0  0  0  0  0  0  0
   20.5858   71.7646   -6.2976 O   0  0  0  0  0  0  0  0  0  0  0  0
   20.2566   71.9003   -7.6691 C   0  0  0  0  0  0  0  0  0  0  0  0
   18.9333   70.0256   -6.9561 O   0  0  0  0  0  0  0  0  0  0  0  0
   18.0540   69.7984   -9.8138 O   0  0  0  0  0  0  0  0  0  0  0  0
   15.9347   71.0478   -8.6374 O   0  0  0  0  0  0  0  0  0  0  0  0
   18.3302   70.9681   -9.0451 C   0  0  1  0  0  0  0  0  0  0  0  0
   17.2111   71.2247   -8.0576 C   0  0  2  0  0  0  0  0  0  0  0  0
   19.5029   70.6577   -8.1233 C   0  0  1  0  0  0  0  0  0  0  0  0
   17.5073   70.2027   -6.9731 C   0  0  2  0  0  0  0  0  0  0  0  0
   17.3087   69.9724  -10.4105 H   0  0  0  0  0  0  0  0  0  0  0  0
   15.7937   71.7214   -9.3208 H   0  0  0  0  0  0  0  0  0  0  0  0
   16.6976   68.4725   -4.8926 O   0  0  0  0  0  0  0  0  0  0  0  0
   15.8725   71.9946   -2.0369 O   0  0  0  0  0  0  0  0  0  0  0  0
   17.0764   70.6406   -5.6755 N   0  0  0  0  0  0  0  0  0  0  0  0
   16.2876   70.2276   -3.4724 N   0  0  0  0  0  0  0  0  0  0  0  0
   16.6895   69.6904   -4.7019 C   0  0  0  0  0  0  0  0  0  0  0  0
   17.0407   71.9988   -5.3789 C   0  0  0  0  0  0  0  0  0  0  0  0
   16.6537   72.4950   -4.2019 C   0  0  0  0  0  0  0  0  0  0  0  0
   16.2337   71.5695   -3.1299 C   0  0  0  0  0  0  0  0  0  0  0  0
   16.0133   69.5845   -2.7789 H   0  0  0  0  0  0  0  0  0  0  0  0
   22.2596   71.7363   -4.3991 O   0  0  0  0  0  0  0  0  0  0  0  0
   23.3251   72.0500   -3.2248 P   0  0  2  0  0  0  0  0  0  0  0  0
   24.0158   73.4304   -3.7095 O   0  0  0  0  0  0  0  0  0  0  0  0
   24.2929   70.9338   -2.9577 O   0  0  0  0  0  0  0  0  0  0  0  0
   22.4217   72.4702   -1.9550 O   0  0  0  0  0  0  0  0  0  0  0  0
   21.8218   71.2940    0.0131 O   0  0  0  0  0  0  0  0  0  0  0  0
   18.2441   73.2209   -0.7204 O   0  0  0  0  0  0  0  0  0  0  0  0
   19.8980   74.0841    1.4631 O   0  0  0  0  0  0  0  0  0  0  0  0
   19.8048   72.1843   -2.9270 O   0  0  0  0  0  0  0  0  0  0  0  0
   19.6672   73.0804   -0.6956 C   0  0  1  0  0  0  0  0  0  0  0  0
   20.1026   72.8646    0.7552 C   0  0  1  0  0  0  0  0  0  0  0  0
   20.0659   71.8857   -1.5599 C   0  0  2  0  0  0  0  0  0  0  0  0
   21.5755   72.4414    0.8344 C   0  0  1  0  0  0  0  0  0  0  0  0
   21.5383   71.5172   -1.3696 C   0  0  1  0  0  0  0  0  0  0  0  0
   17.9844   73.9781   -0.1738 H   0  0  0  0  0  0  0  0  0  0  0  0
   18.9641   74.3405    1.4049 H   0  0  0  0  0  0  0  0  0  0  0  0
   18.8694   72.4157   -3.0344 H   0  0  0  0  0  0  0  0  0  0  0  0
   20.8173   71.9158    3.0384 O   0  0  0  0  0  0  0  0  0  0  0  0
   21.9878   72.0685    2.2568 C   0  0  0  0  0  0  0  0  0  0  0  0
   21.0643   71.6781    3.9463 H   0  0  0  0  0  0  0  0  0  0  0  0
 25 28  1  0
 25 24  1  0
 25 26  1  6
 25 27  2  0
  1  4  1  0
  1 24  1  0
  1  2  1  1
  1  3  2  0
  6 11  1  0
  6 12  1  0
 29 36  1  0
 29 37  1  0
  9  7  1  6
  7 13  1  0
 10  8  1  6
  8 14  1  0
 37 28  1  1
  4  5  1  0
 33 30  1  1
 30 38  1  0
 34 31  1  1
 31 39  1  0
 35 32  1  6
 32 40  1  0
 41 42  1  0
 41 43  1  0
 15 19  2  0
 16 22  2  0
 12 17  1  1
 17 19  1  0
 17 20  1  0
 18 19  1  0
 18 22  1  0
 18 23  1  0
  9 10  1  0
  9 11  1  0
 10 12  1  0
 11  5  1  1
 33 34  1  0
 33 35  1  0
 34 36  1  0
 35 37  1  0
 36 42  1  1
 20 21  2  0
 21 22  1  0
M  CHG  2   2  -1  26  -1
M  END
>  <COMPND>  (59) 
    8629 

>  <AUTHOR>  (59) 
    GENERATED BY OPEN BABEL 3.1.1

>  <MASTER>  (59) 
        0    0    0    0    0    0    0    0   58    0   58    0

>  <minimizedAffinity>  (59) 
-7.40769

>  <CNNscore>  (59) 
0.5003988147

>  <CNNaffinity>  (59) 
4.1638007164

>  <CNN_VS>  (59) 
2.0835609436

>  <CNNaffinity_variance>  (59) 
0.5944043994

$$$$
60
     RDKit          3D

 43 45  0  0  0  0  0  0  0  0999 V2000
   19.3782   70.7340   -3.0762 P   0  0  2  0  0  0  0  0  0  0  0  0
   19.6186   70.9302   -1.4884 O   0  0  0  0  0  0  0  0  0  0  0  0
   19.7405   69.3790   -3.6093 O   0  0  0  0  0  0  0  0  0  0  0  0
   20.1586   71.9838   -3.7446 O   0  0  0  0  0  0  0  0  0  0  0  0
   20.5576   73.0566   -2.9093 C   0  0  0  0  0  0  0  0  0  0  0  0
   22.6638   73.8471   -2.0649 O   0  0  0  0  0  0  0  0  0  0  0  0
   23.8396   72.9240   -4.6641 O   0  0  0  0  0  0  0  0  0  0  0  0
   24.5262   70.9139   -2.9540 O   0  0  0  0  0  0  0  0  0  0  0  0
   22.7936   72.3403   -3.8893 C   0  0  1  0  0  0  0  0  0  0  0  0
   23.3644   71.6630   -2.6609 C   0  0  2  0  0  0  0  0  0  0  0  0
   21.9756   73.4709   -3.2779 C   0  0  1  0  0  0  0  0  0  0  0  0
   23.6459   72.8464   -1.7507 C   0  0  2  0  0  0  0  0  0  0  0  0
   24.3756   72.2212   -5.0651 H   0  0  0  0  0  0  0  0  0  0  0  0
   24.2952   70.1729   -3.5356 H   0  0  0  0  0  0  0  0  0  0  0  0
   24.7706   74.3561    0.3550 O   0  0  0  0  0  0  0  0  0  0  0  0
   23.1636   71.4442    3.5456 O   0  0  0  0  0  0  0  0  0  0  0  0
   23.5365   72.5060   -0.3602 N   0  0  0  0  0  0  0  0  0  0  0  0
   23.9693   72.9051    1.9420 N   0  0  0  0  0  0  0  0  0  0  0  0
   24.1388   73.3308    0.6183 C   0  0  0  0  0  0  0  0  0  0  0  0
   22.8378   71.3657    0.0213 C   0  0  0  0  0  0  0  0  0  0  0  0
   22.6865   70.9729    1.2878 C   0  0  0  0  0  0  0  0  0  0  0  0
   23.2850   71.7790    2.3713 C   0  0  0  0  0  0  0  0  0  0  0  0
   24.3807   73.4639    2.6407 H   0  0  0  0  0  0  0  0  0  0  0  0
   17.8233   71.1358   -3.2607 O   0  0  0  0  0  0  0  0  0  0  0  0
   16.6734   70.5186   -4.2145 P   0  0  2  0  0  0  0  0  0  0  0  0
   15.7000   71.7817   -4.4873 O   0  0  0  0  0  0  0  0  0  0  0  0
   15.9809   69.3150   -3.6437 O   0  0  0  0  0  0  0  0  0  0  0  0
   17.4100   70.2591   -5.6270 O   0  0  0  0  0  0  0  0  0  0  0  0
   18.8507   71.8844   -6.5755 O   0  0  0  0  0  0  0  0  0  0  0  0
   17.8297   69.8254  -10.0060 O   0  0  0  0  0  0  0  0  0  0  0  0
   20.4684   69.5348   -8.9102 O   0  0  0  0  0  0  0  0  0  0  0  0
   15.8413   70.2876   -7.9537 O   0  0  0  0  0  0  0  0  0  0  0  0
   18.1352   69.9719   -8.6166 C   0  0  1  0  0  0  0  0  0  0  0  0
   19.5499   70.5415   -8.4941 C   0  0  1  0  0  0  0  0  0  0  0  0
   17.1182   70.9164   -7.9787 C   0  0  2  0  0  0  0  0  0  0  0  0
   19.8495   70.9755   -7.0530 C   0  0  1  0  0  0  0  0  0  0  0  0
   17.5359   71.3248   -6.5649 C   0  0  1  0  0  0  0  0  0  0  0  0
   18.4715   69.2264  -10.4169 H   0  0  0  0  0  0  0  0  0  0  0  0
   20.2680   69.2693   -9.8216 H   0  0  0  0  0  0  0  0  0  0  0  0
   15.5881   70.0341   -8.8545 H   0  0  0  0  0  0  0  0  0  0  0  0
   21.5103   72.2568   -8.1971 O   0  0  0  0  0  0  0  0  0  0  0  0
   21.1942   71.6903   -6.9387 C   0  0  0  0  0  0  0  0  0  0  0  0
   22.3636   72.7153   -8.1394 H   0  0  0  0  0  0  0  0  0  0  0  0
 25 28  1  0
 25 24  1  0
 25 26  1  6
 25 27  2  0
  1  4  1  0
  1 24  1  0
  1  2  1  1
  1  3  2  0
  6 11  1  0
  6 12  1  0
 29 36  1  0
 29 37  1  0
  9  7  1  6
  7 13  1  0
 10  8  1  6
  8 14  1  0
 37 28  1  1
  4  5  1  0
 33 30  1  6
 30 38  1  0
 34 31  1  1
 31 39  1  0
 35 32  1  1
 32 40  1  0
 41 42  1  0
 41 43  1  0
 15 19  2  0
 16 22  2  0
 12 17  1  1
 17 19  1  0
 17 20  1  0
 18 19  1  0
 18 22  1  0
 18 23  1  0
  9 10  1  0
  9 11  1  0
 10 12  1  0
 11  5  1  1
 33 34  1  0
 33 35  1  0
 34 36  1  0
 35 37  1  0
 36 42  1  6
 20 21  2  0
 21 22  1  0
M  CHG  2   2  -1  26  -1
M  END
>  <COMPND>  (60) 
    8629 

>  <AUTHOR>  (60) 
    GENERATED BY OPEN BABEL 3.1.1

>  <MASTER>  (60) 
        0    0    0    0    0    0    0    0   58    0   58    0

>  <minimizedAffinity>  (60) 
-7.96826

>  <CNNscore>  (60) 
0.4917001724

>  <CNNaffinity>  (60) 
4.0732069016

>  <CNN_VS>  (60) 
2.0027966499

>  <CNNaffinity_variance>  (60) 
0.5328384638

$$$$
61
     RDKit          3D

 43 45  0  0  0  0  0  0  0  0999 V2000
   22.9194   71.5068   -2.5520 P   0  0  2  0  0  0  0  0  0  0  0  0
   22.8846   73.1242   -2.5635 O   0  0  0  0  0  0  0  0  0  0  0  0
   24.1593   70.8953   -3.1351 O   0  0  0  0  0  0  0  0  0  0  0  0
   21.5274   71.0833   -3.2599 O   0  0  0  0  0  0  0  0  0  0  0  0
   20.8660   72.0356   -4.0744 C   0  0  0  0  0  0  0  0  0  0  0  0
   18.6529   72.2671   -4.9812 O   0  0  0  0  0  0  0  0  0  0  0  0
   17.6961   70.8636   -2.5102 O   0  0  0  0  0  0  0  0  0  0  0  0
   17.6638   68.8735   -4.3744 O   0  0  0  0  0  0  0  0  0  0  0  0
   18.8904   70.6537   -3.2618 C   0  0  1  0  0  0  0  0  0  0  0  0
   18.5766   69.9364   -4.5582 C   0  0  2  0  0  0  0  0  0  0  0  0
   19.3769   72.0095   -3.7581 C   0  0  1  0  0  0  0  0  0  0  0  0
   18.0044   71.0580   -5.4083 C   0  0  2  0  0  0  0  0  0  0  0  0
   17.3666   70.0116   -2.1824 H   0  0  0  0  0  0  0  0  0  0  0  0
   18.0743   68.1856   -3.8275 H   0  0  0  0  0  0  0  0  0  0  0  0
   15.9887   70.6731   -7.3492 O   0  0  0  0  0  0  0  0  0  0  0  0
   19.0766   70.3268  -10.7529 O   0  0  0  0  0  0  0  0  0  0  0  0
   18.2533   70.8652   -6.8091 N   0  0  0  0  0  0  0  0  0  0  0  0
   17.5279   70.5012   -9.0424 N   0  0  0  0  0  0  0  0  0  0  0  0
   17.1704   70.6796   -7.6999 C   0  0  0  0  0  0  0  0  0  0  0  0
   19.5593   70.8616   -7.2868 C   0  0  0  0  0  0  0  0  0  0  0  0
   19.8834   70.6888   -8.5699 C   0  0  0  0  0  0  0  0  0  0  0  0
   18.8110   70.4884   -9.5658 C   0  0  0  0  0  0  0  0  0  0  0  0
   16.7900   70.3697   -9.6812 H   0  0  0  0  0  0  0  0  0  0  0  0
   22.6599   71.1487   -0.9972 O   0  0  0  0  0  0  0  0  0  0  0  0
   21.6029   71.7491    0.0683 P   0  0  2  0  0  0  0  0  0  0  0  0
   21.0970   70.4372    0.8686 O   0  0  0  0  0  0  0  0  0  0  0  0
   20.5013   72.5613   -0.5486 O   0  0  0  0  0  0  0  0  0  0  0  0
   22.5097   72.5526    1.1348 O   0  0  0  0  0  0  0  0  0  0  0  0
   24.3565   72.0485    2.5318 O   0  0  0  0  0  0  0  0  0  0  0  0
   21.9873   74.0420    5.2638 O   0  0  0  0  0  0  0  0  0  0  0  0
   24.3492   75.3152    4.2399 O   0  0  0  0  0  0  0  0  0  0  0  0
   20.7744   72.2705    3.3221 O   0  0  0  0  0  0  0  0  0  0  0  0
   22.5425   73.7705    3.9741 C   0  0  1  0  0  0  0  0  0  0  0  0
   24.0615   73.9310    4.0624 C   0  0  1  0  0  0  0  0  0  0  0  0
   22.1755   72.3460    3.5624 C   0  0  2  0  0  0  0  0  0  0  0  0
   24.7491   73.4002    2.7973 C   0  0  1  0  0  0  0  0  0  0  0  0
   22.9510   71.8990    2.3219 C   0  0  1  0  0  0  0  0  0  0  0  0
   22.2163   74.9451    5.5309 H   0  0  0  0  0  0  0  0  0  0  0  0
   23.9087   75.6380    5.0418 H   0  0  0  0  0  0  0  0  0  0  0  0
   20.2947   72.5557    4.1148 H   0  0  0  0  0  0  0  0  0  0  0  0
   26.6080   73.8476    4.2302 O   0  0  0  0  0  0  0  0  0  0  0  0
   26.2706   73.4053    2.9284 C   0  0  0  0  0  0  0  0  0  0  0  0
   27.5734   73.8556    4.3282 H   0  0  0  0  0  0  0  0  0  0  0  0
 25 28  1  0
 25 24  1  0
 25 26  1  1
 25 27  2  0
  1  4  1  0
  1 24  1  0
  1  2  1  1
  1  3  2  0
  6 11  1  0
  6 12  1  0
 29 36  1  0
 29 37  1  0
  9  7  1  1
  7 13  1  0
 10  8  1  1
  8 14  1  0
 37 28  1  6
  4  5  1  0
 33 30  1  1
 30 38  1  0
 34 31  1  6
 31 39  1  0
 35 32  1  6
 32 40  1  0
 41 42  1  0
 41 43  1  0
 15 19  2  0
 16 22  2  0
 12 17  1  6
 17 19  1  0
 17 20  1  0
 18 19  1  0
 18 22  1  0
 18 23  1  0
  9 10  1  0
  9 11  1  0
 10 12  1  0
 11  5  1  6
 33 34  1  0
 33 35  1  0
 34 36  1  0
 35 37  1  0
 36 42  1  1
 20 21  2  0
 21 22  1  0
M  CHG  2   2  -1  26  -1
M  END
>  <COMPND>  (61) 
    8629 

>  <AUTHOR>  (61) 
    GENERATED BY OPEN BABEL 3.1.1

>  <MASTER>  (61) 
        0    0    0    0    0    0    0    0   58    0   58    0

>  <minimizedAffinity>  (61) 
-7.51030

>  <CNNscore>  (61) 
0.9412060976

>  <CNNaffinity>  (61) 
4.7234067917

>  <CNN_VS>  (61) 
4.4456992149

>  <CNNaffinity_variance>  (61) 
0.0452511273

$$$$
62
     RDKit          3D

 43 45  0  0  0  0  0  0  0  0999 V2000
   20.7643   71.8074   -2.3203 P   0  0  2  0  0  0  0  0  0  0  0  0
   20.7788   70.7672   -1.0813 O   0  0  0  0  0  0  0  0  0  0  0  0
   19.8714   72.9993   -2.1367 O   0  0  0  0  0  0  0  0  0  0  0  0
   20.4401   70.8777   -3.6043 O   0  0  0  0  0  0  0  0  0  0  0  0
   19.5866   69.7600   -3.4314 C   0  0  0  0  0  0  0  0  0  0  0  0
   17.9467   71.0895   -4.5790 O   0  0  0  0  0  0  0  0  0  0  0  0
   15.8896   69.5467   -3.0366 O   0  0  0  0  0  0  0  0  0  0  0  0
   15.8283   68.3396   -5.4811 O   0  0  0  0  0  0  0  0  0  0  0  0
   17.1331   69.1023   -3.5766 C   0  0  1  0  0  0  0  0  0  0  0  0
   17.0326   68.9613   -5.0811 C   0  0  2  0  0  0  0  0  0  0  0  0
   18.1404   70.2360   -3.4299 C   0  0  1  0  0  0  0  0  0  0  0  0
   17.1248   70.4067   -5.5399 C   0  0  2  0  0  0  0  0  0  0  0  0
   15.2304   68.8392   -3.1187 H   0  0  0  0  0  0  0  0  0  0  0  0
   15.8174   67.4225   -5.1656 H   0  0  0  0  0  0  0  0  0  0  0  0
   15.7073   70.2194   -7.9758 O   0  0  0  0  0  0  0  0  0  0  0  0
   19.5272   70.9018  -10.4625 O   0  0  0  0  0  0  0  0  0  0  0  0
   17.7239   70.5320   -6.8387 N   0  0  0  0  0  0  0  0  0  0  0  0
   17.6105   70.5595   -9.2120 N   0  0  0  0  0  0  0  0  0  0  0  0
   16.9233   70.4209   -7.9993 C   0  0  0  0  0  0  0  0  0  0  0  0
   19.0905   70.7626   -6.9521 C   0  0  0  0  0  0  0  0  0  0  0  0
   19.7308   70.8911   -8.1160 C   0  0  0  0  0  0  0  0  0  0  0  0
   18.9674   70.7882   -9.3764 C   0  0  0  0  0  0  0  0  0  0  0  0
   17.0732   70.4855  -10.0340 H   0  0  0  0  0  0  0  0  0  0  0  0
   22.3292   72.1628   -2.5149 O   0  0  0  0  0  0  0  0  0  0  0  0
   23.0707   73.1602   -3.5484 P   0  0  2  0  0  0  0  0  0  0  0  0
   21.9404   73.4371   -4.6724 O   0  0  0  0  0  0  0  0  0  0  0  0
   24.3670   72.6317   -4.0908 O   0  0  0  0  0  0  0  0  0  0  0  0
   23.1999   74.5557   -2.7478 O   0  0  0  0  0  0  0  0  0  0  0  0
   25.1208   75.8273   -2.1912 O   0  0  0  0  0  0  0  0  0  0  0  0
   22.8842   76.4844    1.2171 O   0  0  0  0  0  0  0  0  0  0  0  0
   23.2230   78.6069   -0.6876 O   0  0  0  0  0  0  0  0  0  0  0  0
   22.8609   73.8795   -0.0454 O   0  0  0  0  0  0  0  0  0  0  0  0
   23.0966   76.2727   -0.1813 C   0  0  1  0  0  0  0  0  0  0  0  0
   23.9839   77.4024   -0.7080 C   0  0  1  0  0  0  0  0  0  0  0  0
   23.7733   74.9184   -0.3841 C   0  0  2  0  0  0  0  0  0  0  0  0
   24.4741   77.1040   -2.1312 C   0  0  1  0  0  0  0  0  0  0  0  0
   24.2667   74.7431   -1.8214 C   0  0  1  0  0  0  0  0  0  0  0  0
   22.4543   77.3424    1.3527 H   0  0  0  0  0  0  0  0  0  0  0  0
   22.9191   78.7836    0.2166 H   0  0  0  0  0  0  0  0  0  0  0  0
   22.5562   74.0016    0.8668 H   0  0  0  0  0  0  0  0  0  0  0  0
   25.8903   78.9256   -1.5105 O   0  0  0  0  0  0  0  0  0  0  0  0
   25.4859   78.1398   -2.6165 C   0  0  0  0  0  0  0  0  0  0  0  0
   26.5346   79.5890   -1.8043 H   0  0  0  0  0  0  0  0  0  0  0  0
 25 28  1  0
 25 24  1  0
 25 26  1  6
 25 27  2  0
  1  4  1  0
  1 24  1  0
  1  2  1  1
  1  3  2  0
  6 11  1  0
  6 12  1  0
 29 36  1  0
 29 37  1  0
  9  7  1  6
  7 13  1  0
 10  8  1  1
  8 14  1  0
 37 28  1  6
  4  5  1  0
 33 30  1  1
 30 38  1  0
 34 31  1  6
 31 39  1  0
 35 32  1  6
 32 40  1  0
 41 42  1  0
 41 43  1  0
 15 19  2  0
 16 22  2  0
 12 17  1  6
 17 19  1  0
 17 20  1  0
 18 19  1  0
 18 22  1  0
 18 23  1  0
  9 10  1  0
  9 11  1  0
 10 12  1  0
 11  5  1  6
 33 34  1  0
 33 35  1  0
 34 36  1  0
 35 37  1  0
 36 42  1  1
 20 21  2  0
 21 22  1  0
M  CHG  2   2  -1  26  -1
M  END
>  <COMPND>  (62) 
    8629 

>  <AUTHOR>  (62) 
    GENERATED BY OPEN BABEL 3.1.1

>  <MASTER>  (62) 
        0    0    0    0    0    0    0    0   58    0   58    0

>  <minimizedAffinity>  (62) 
-6.23392

>  <CNNscore>  (62) 
0.9282116890

>  <CNNaffinity>  (62) 
4.7247467041

>  <CNN_VS>  (62) 
4.3855652809

>  <CNNaffinity_variance>  (62) 
0.1494702995

$$$$
63
     RDKit          3D

 43 45  0  0  0  0  0  0  0  0999 V2000
   21.8681   72.6010   -4.9204 P   0  0  2  0  0  0  0  0  0  0  0  0
   21.0020   73.9315   -5.2320 O   0  0  0  0  0  0  0  0  0  0  0  0
   23.0931   72.4290   -5.7696 O   0  0  0  0  0  0  0  0  0  0  0  0
   20.7831   71.4035   -5.0015 O   0  0  0  0  0  0  0  0  0  0  0  0
   20.2165   70.9217   -3.7954 C   0  0  0  0  0  0  0  0  0  0  0  0
   18.3909   71.9104   -5.0051 O   0  0  0  0  0  0  0  0  0  0  0  0
   16.6077   70.7496   -2.8924 O   0  0  0  0  0  0  0  0  0  0  0  0
   16.3089   68.9905   -4.9547 O   0  0  0  0  0  0  0  0  0  0  0  0
   17.7965   70.2088   -3.4666 C   0  0  1  0  0  0  0  0  0  0  0  0
   17.5224   69.7094   -4.8699 C   0  0  2  0  0  0  0  0  0  0  0  0
   18.7605   71.3607   -3.7215 C   0  0  1  0  0  0  0  0  0  0  0  0
   17.4919   71.0039   -5.6646 C   0  0  2  0  0  0  0  0  0  0  0  0
   15.9768   70.0325   -2.7203 H   0  0  0  0  0  0  0  0  0  0  0  0
   16.3784   68.1758   -4.4330 H   0  0  0  0  0  0  0  0  0  0  0  0
   15.8175   70.1478   -7.7721 O   0  0  0  0  0  0  0  0  0  0  0  0
   19.2589   70.3460  -10.8313 O   0  0  0  0  0  0  0  0  0  0  0  0
   17.9241   70.8236   -7.0219 N   0  0  0  0  0  0  0  0  0  0  0  0
   17.5324   70.2473   -9.2936 N   0  0  0  0  0  0  0  0  0  0  0  0
   17.0039   70.3892   -8.0042 C   0  0  0  0  0  0  0  0  0  0  0  0
   19.2470   71.0771   -7.3674 C   0  0  0  0  0  0  0  0  0  0  0  0
   19.7355   70.9358   -8.6013 C   0  0  0  0  0  0  0  0  0  0  0  0
   18.8399   70.4857   -9.6864 C   0  0  0  0  0  0  0  0  0  0  0  0
   16.9098   69.9454   -9.9944 H   0  0  0  0  0  0  0  0  0  0  0  0
   22.1598   72.7202   -3.3350 O   0  0  0  0  0  0  0  0  0  0  0  0
   23.4913   72.4059   -2.4741 P   0  0  2  0  0  0  0  0  0  0  0  0
   24.3734   73.7506   -2.6506 O   0  0  0  0  0  0  0  0  0  0  0  0
   24.1993   71.1439   -2.8743 O   0  0  0  0  0  0  0  0  0  0  0  0
   23.0010   72.4389   -0.9367 O   0  0  0  0  0  0  0  0  0  0  0  0
   24.1298   71.0032    0.5737 O   0  0  0  0  0  0  0  0  0  0  0  0
   20.7708   71.8256    2.8303 O   0  0  0  0  0  0  0  0  0  0  0  0
   23.2924   72.9869    3.5658 O   0  0  0  0  0  0  0  0  0  0  0  0
   20.5333   71.4565   -0.0310 O   0  0  0  0  0  0  0  0  0  0  0  0
   21.8169   72.1131    1.8984 C   0  0  1  0  0  0  0  0  0  0  0  0
   23.1580   71.9359    2.6132 C   0  0  1  0  0  0  0  0  0  0  0  0
   21.7080   71.1543    0.7142 C   0  0  2  0  0  0  0  0  0  0  0  0
   24.3249   71.9653    1.6169 C   0  0  1  0  0  0  0  0  0  0  0  0
   22.9415   71.2280   -0.1875 C   0  0  1  0  0  0  0  0  0  0  0  0
   20.8340   72.4313    3.5844 H   0  0  0  0  0  0  0  0  0  0  0  0
   22.5492   72.9575    4.1886 H   0  0  0  0  0  0  0  0  0  0  0  0
   19.7595   71.4062    0.5509 H   0  0  0  0  0  0  0  0  0  0  0  0
   26.1775   72.8174    2.8621 O   0  0  0  0  0  0  0  0  0  0  0  0
   25.6569   71.6336    2.2862 C   0  0  0  0  0  0  0  0  0  0  0  0
   27.0251   72.6214    3.2920 H   0  0  0  0  0  0  0  0  0  0  0  0
 25 28  1  0
 25 24  1  0
 25 26  1  1
 25 27  2  0
  1  4  1  0
  1 24  1  0
  1  2  1  6
  1  3  2  0
  6 11  1  0
  6 12  1  0
 29 36  1  0
 29 37  1  0
  9  7  1  6
  7 13  1  0
 10  8  1  1
  8 14  1  0
 37 28  1  1
  4  5  1  0
 33 30  1  1
 30 38  1  0
 34 31  1  1
 31 39  1  0
 35 32  1  6
 32 40  1  0
 41 42  1  0
 41 43  1  0
 15 19  2  0
 16 22  2  0
 12 17  1  6
 17 19  1  0
 17 20  1  0
 18 19  1  0
 18 22  1  0
 18 23  1  0
  9 10  1  0
  9 11  1  0
 10 12  1  0
 11  5  1  6
 33 34  1  0
 33 35  1  0
 34 36  1  0
 35 37  1  0
 36 42  1  1
 20 21  2  0
 21 22  1  0
M  CHG  2   2  -1  26  -1
M  END
>  <COMPND>  (63) 
    8629 

>  <AUTHOR>  (63) 
    GENERATED BY OPEN BABEL 3.1.1

>  <MASTER>  (63) 
        0    0    0    0    0    0    0    0   58    0   58    0

>  <minimizedAffinity>  (63) 
-8.02687

>  <CNNscore>  (63) 
0.9058297276

>  <CNNaffinity>  (63) 
4.7788019180

>  <CNN_VS>  (63) 
4.3287806511

>  <CNNaffinity_variance>  (63) 
0.0568909571

$$$$
64
     RDKit          3D

 43 45  0  0  0  0  0  0  0  0999 V2000
   21.1032   72.3944   -2.4220 P   0  0  2  0  0  0  0  0  0  0  0  0
   19.9498   73.4540   -2.0166 O   0  0  0  0  0  0  0  0  0  0  0  0
   22.4566   72.9939   -2.6677 O   0  0  0  0  0  0  0  0  0  0  0  0
   20.4612   71.5770   -3.6621 O   0  0  0  0  0  0  0  0  0  0  0  0
   19.6879   70.4229   -3.3832 C   0  0  0  0  0  0  0  0  0  0  0  0
   17.9458   71.5091   -4.6318 O   0  0  0  0  0  0  0  0  0  0  0  0
   16.0198   70.0050   -2.8943 O   0  0  0  0  0  0  0  0  0  0  0  0
   16.0107   68.5426   -5.1960 O   0  0  0  0  0  0  0  0  0  0  0  0
   17.2839   69.5901   -3.4091 C   0  0  1  0  0  0  0  0  0  0  0  0
   17.1743   69.2829   -4.8880 C   0  0  2  0  0  0  0  0  0  0  0  0
   18.2124   70.7981   -3.4031 C   0  0  1  0  0  0  0  0  0  0  0  0
   17.1608   70.6740   -5.4986 C   0  0  2  0  0  0  0  0  0  0  0  0
   15.4098   69.2501   -2.8880 H   0  0  0  0  0  0  0  0  0  0  0  0
   16.0671   67.6657   -4.7853 H   0  0  0  0  0  0  0  0  0  0  0  0
   15.7137   70.2000   -7.8775 O   0  0  0  0  0  0  0  0  0  0  0  0
   19.4613   70.7978  -10.4927 O   0  0  0  0  0  0  0  0  0  0  0  0
   17.7332   70.6999   -6.8150 N   0  0  0  0  0  0  0  0  0  0  0  0
   17.5808   70.4982   -9.1778 N   0  0  0  0  0  0  0  0  0  0  0  0
   16.9195   70.4473   -7.9440 C   0  0  0  0  0  0  0  0  0  0  0  0
   19.0870   70.9738   -6.9768 C   0  0  0  0  0  0  0  0  0  0  0  0
   19.7026   71.0174   -8.1601 C   0  0  0  0  0  0  0  0  0  0  0  0
   18.9242   70.7649   -9.3899 C   0  0  0  0  0  0  0  0  0  0  0  0
   17.0341   70.3251   -9.9783 H   0  0  0  0  0  0  0  0  0  0  0  0
   21.0519   71.3214   -1.2142 O   0  0  0  0  0  0  0  0  0  0  0  0
   21.8115   71.2917    0.2124 P   0  0  2  0  0  0  0  0  0  0  0  0
   23.3759   71.3096   -0.1998 O   0  0  0  0  0  0  0  0  0  0  0  0
   21.4170   70.1437    1.0959 O   0  0  0  0  0  0  0  0  0  0  0  0
   21.5411   72.7497    0.8496 O   0  0  0  0  0  0  0  0  0  0  0  0
   21.0168   72.5323    3.1505 O   0  0  0  0  0  0  0  0  0  0  0  0
   20.2927   76.5711    2.6877 O   0  0  0  0  0  0  0  0  0  0  0  0
   22.6193   75.7040    4.1310 O   0  0  0  0  0  0  0  0  0  0  0  0
   19.5636   74.7229    0.5824 O   0  0  0  0  0  0  0  0  0  0  0  0
   20.9637   75.3315    2.4455 C   0  0  1  0  0  0  0  0  0  0  0  0
   21.5486   74.8361    3.7696 C   0  0  1  0  0  0  0  0  0  0  0  0
   19.9614   74.3219    1.8891 C   0  0  2  0  0  0  0  0  0  0  0  0
   22.0501   73.3909    3.6473 C   0  0  1  0  0  0  0  0  0  0  0  0
   20.5439   72.9078    1.8555 C   0  0  1  0  0  0  0  0  0  0  0  0
   20.9237   77.2168    3.0406 H   0  0  0  0  0  0  0  0  0  0  0  0
   22.2893   76.6133    4.2044 H   0  0  0  0  0  0  0  0  0  0  0  0
   19.1964   75.6194    0.6173 H   0  0  0  0  0  0  0  0  0  0  0  0
   21.7534   73.4650    6.0170 O   0  0  0  0  0  0  0  0  0  0  0  0
   22.4926   72.8232    4.9942 C   0  0  0  0  0  0  0  0  0  0  0  0
   22.0243   73.1135    6.8800 H   0  0  0  0  0  0  0  0  0  0  0  0
 25 28  1  0
 25 24  1  0
 25 26  1  6
 25 27  2  0
  1  4  1  0
  1 24  1  0
  1  2  1  1
  1  3  2  0
  6 11  1  0
  6 12  1  0
 29 36  1  0
 29 37  1  0
  9  7  1  6
  7 13  1  0
 10  8  1  1
  8 14  1  0
 37 28  1  6
  4  5  1  0
 33 30  1  1
 30 38  1  0
 34 31  1  6
 31 39  1  0
 35 32  1  6
 32 40  1  0
 41 42  1  0
 41 43  1  0
 15 19  2  0
 16 22  2  0
 12 17  1  6
 17 19  1  0
 17 20  1  0
 18 19  1  0
 18 22  1  0
 18 23  1  0
  9 10  1  0
  9 11  1  0
 10 12  1  0
 11  5  1  6
 33 34  1  0
 33 35  1  0
 34 36  1  0
 35 37  1  0
 36 42  1  1
 20 21  2  0
 21 22  1  0
M  CHG  2   2  -1  26  -1
M  END
>  <COMPND>  (64) 
    8629 

>  <AUTHOR>  (64) 
    GENERATED BY OPEN BABEL 3.1.1

>  <MASTER>  (64) 
        0    0    0    0    0    0    0    0   58    0   58    0

>  <minimizedAffinity>  (64) 
-6.97482

>  <CNNscore>  (64) 
0.9018272758

>  <CNNaffinity>  (64) 
4.5808687210

>  <CNN_VS>  (64) 
4.1311521530

>  <CNNaffinity_variance>  (64) 
0.0705233738

$$$$
65
     RDKit          3D

 43 45  0  0  0  0  0  0  0  0999 V2000
   22.7689   71.6273   -2.6262 P   0  0  2  0  0  0  0  0  0  0  0  0
   24.1622   71.0257   -3.1866 O   0  0  0  0  0  0  0  0  0  0  0  0
   22.3657   71.1329   -1.2681 O   0  0  0  0  0  0  0  0  0  0  0  0
   21.7144   71.3413   -3.8196 O   0  0  0  0  0  0  0  0  0  0  0  0
   20.7977   70.2713   -3.6698 C   0  0  0  0  0  0  0  0  0  0  0  0
   18.9875   71.5421   -4.6092 O   0  0  0  0  0  0  0  0  0  0  0  0
   17.2836   70.3656   -2.4404 O   0  0  0  0  0  0  0  0  0  0  0  0
   16.6221   68.8463   -4.6061 O   0  0  0  0  0  0  0  0  0  0  0  0
   18.3540   69.7687   -3.1706 C   0  0  1  0  0  0  0  0  0  0  0  0
   17.9073   69.4328   -4.5782 C   0  0  2  0  0  0  0  0  0  0  0  0
   19.4080   70.8406   -3.4186 C   0  0  1  0  0  0  0  0  0  0  0  0
   17.9439   70.7933   -5.2534 C   0  0  2  0  0  0  0  0  0  0  0  0
   16.5982   69.7001   -2.2698 H   0  0  0  0  0  0  0  0  0  0  0  0
   16.6508   67.9831   -4.1647 H   0  0  0  0  0  0  0  0  0  0  0  0
   16.0322   70.1859   -7.2420 O   0  0  0  0  0  0  0  0  0  0  0  0
   19.1722   70.4636  -10.6043 O   0  0  0  0  0  0  0  0  0  0  0  0
   18.2343   70.7008   -6.6564 N   0  0  0  0  0  0  0  0  0  0  0  0
   17.5972   70.3248   -8.9146 N   0  0  0  0  0  0  0  0  0  0  0  0
   17.2025   70.3890   -7.5722 C   0  0  0  0  0  0  0  0  0  0  0  0
   19.5302   70.9184   -7.1117 C   0  0  0  0  0  0  0  0  0  0  0  0
   19.8905   70.8522   -8.3951 C   0  0  0  0  0  0  0  0  0  0  0  0
   18.8724   70.5318   -9.4163 C   0  0  0  0  0  0  0  0  0  0  0  0
   16.8952   70.1088   -9.5705 H   0  0  0  0  0  0  0  0  0  0  0  0
   22.9989   73.2246   -2.7196 O   0  0  0  0  0  0  0  0  0  0  0  0
   21.9511   74.4376   -2.9284 P   0  0  2  0  0  0  0  0  0  0  0  0
   22.5852   75.6325   -2.0409 O   0  0  0  0  0  0  0  0  0  0  0  0
   20.5325   74.0923   -2.5788 O   0  0  0  0  0  0  0  0  0  0  0  0
   22.1680   74.9063   -4.4575 O   0  0  0  0  0  0  0  0  0  0  0  0
   20.5145   75.2868   -6.1121 O   0  0  0  0  0  0  0  0  0  0  0  0
   23.5587   73.8942   -8.5296 O   0  0  0  0  0  0  0  0  0  0  0  0
   22.8683   76.6814   -8.5826 O   0  0  0  0  0  0  0  0  0  0  0  0
   23.1321   72.7144   -5.9209 O   0  0  0  0  0  0  0  0  0  0  0  0
   22.9949   74.5959   -7.4183 C   0  0  1  0  0  0  0  0  0  0  0  0
   22.0646   75.6833   -7.9596 C   0  0  1  0  0  0  0  0  0  0  0  0
   22.2195   73.6099   -6.5467 C   0  0  2  0  0  0  0  0  0  0  0  0
   21.2214   76.3008   -6.8359 C   0  0  1  0  0  0  0  0  0  0  0  0
   21.3761   74.3297   -5.4928 C   0  0  1  0  0  0  0  0  0  0  0  0
   24.0529   74.5145   -9.0868 H   0  0  0  0  0  0  0  0  0  0  0  0
   23.3961   76.2784   -9.2898 H   0  0  0  0  0  0  0  0  0  0  0  0
   23.6597   72.2647   -6.5986 H   0  0  0  0  0  0  0  0  0  0  0  0
   19.0472   76.5335   -7.7991 O   0  0  0  0  0  0  0  0  0  0  0  0
   20.1761   77.2750   -7.3747 C   0  0  0  0  0  0  0  0  0  0  0  0
   18.3734   77.1407   -8.1442 H   0  0  0  0  0  0  0  0  0  0  0  0
 25 28  1  0
 25 24  1  0
 25 26  1  1
 25 27  2  0
  1  4  1  0
  1 24  1  0
  1  2  1  6
  1  3  2  0
  6 11  1  0
  6 12  1  0
 29 36  1  0
 29 37  1  0
  9  7  1  1
  7 13  1  0
 10  8  1  1
  8 14  1  0
 37 28  1  1
  4  5  1  0
 33 30  1  6
 30 38  1  0
 34 31  1  1
 31 39  1  0
 35 32  1  1
 32 40  1  0
 41 42  1  0
 41 43  1  0
 15 19  2  0
 16 22  2  0
 12 17  1  6
 17 19  1  0
 17 20  1  0
 18 19  1  0
 18 22  1  0
 18 23  1  0
  9 10  1  0
  9 11  1  0
 10 12  1  0
 11  5  1  6
 33 34  1  0
 33 35  1  0
 34 36  1  0
 35 37  1  0
 36 42  1  6
 20 21  2  0
 21 22  1  0
M  CHG  2   2  -1  26  -1
M  END
>  <COMPND>  (65) 
    8629 

>  <AUTHOR>  (65) 
    GENERATED BY OPEN BABEL 3.1.1

>  <MASTER>  (65) 
        0    0    0    0    0    0    0    0   58    0   58    0

>  <minimizedAffinity>  (65) 
-7.21953

>  <CNNscore>  (65) 
0.8799698949

>  <CNNaffinity>  (65) 
4.6235146523

>  <CNN_VS>  (65) 
4.0685539246

>  <CNNaffinity_variance>  (65) 
0.3851958811

$$$$
66
     RDKit          3D

 43 45  0  0  0  0  0  0  0  0999 V2000
   21.2663   71.9690   -2.6188 P   0  0  2  0  0  0  0  0  0  0  0  0
   21.2706   70.5599   -3.4137 O   0  0  0  0  0  0  0  0  0  0  0  0
   22.0594   71.9805   -1.3451 O   0  0  0  0  0  0  0  0  0  0  0  0
   19.6953   72.3271   -2.4716 O   0  0  0  0  0  0  0  0  0  0  0  0
   19.0056   72.8228   -3.6058 C   0  0  0  0  0  0  0  0  0  0  0  0
   17.1134   72.2572   -4.9744 O   0  0  0  0  0  0  0  0  0  0  0  0
   16.1910   70.5692   -2.6743 O   0  0  0  0  0  0  0  0  0  0  0  0
   17.2776   68.7266   -4.3656 O   0  0  0  0  0  0  0  0  0  0  0  0
   17.5174   70.8126   -3.1399 C   0  0  1  0  0  0  0  0  0  0  0  0
   17.7729   70.0488   -4.4224 C   0  0  2  0  0  0  0  0  0  0  0  0
   17.5911   72.2595   -3.6113 C   0  0  1  0  0  0  0  0  0  0  0  0
   17.0454   70.9020   -5.4475 C   0  0  2  0  0  0  0  0  0  0  0  0
   16.1195   69.6512   -2.3675 H   0  0  0  0  0  0  0  0  0  0  0  0
   17.7722   68.2242   -3.6995 H   0  0  0  0  0  0  0  0  0  0  0  0
   15.6864   70.1293   -7.8000 O   0  0  0  0  0  0  0  0  0  0  0  0
   19.4681   70.6649  -10.3794 O   0  0  0  0  0  0  0  0  0  0  0  0
   17.6504   70.8311   -6.7477 N   0  0  0  0  0  0  0  0  0  0  0  0
   17.5705   70.3968   -9.0825 N   0  0  0  0  0  0  0  0  0  0  0  0
   16.8801   70.4304   -7.8642 C   0  0  0  0  0  0  0  0  0  0  0  0
   18.9930   71.1571   -6.9059 C   0  0  0  0  0  0  0  0  0  0  0  0
   19.6368   71.1187   -8.0744 C   0  0  0  0  0  0  0  0  0  0  0  0
   18.9043   70.7103   -9.2904 C   0  0  0  0  0  0  0  0  0  0  0  0
   17.0542   70.1201   -9.8741 H   0  0  0  0  0  0  0  0  0  0  0  0
   21.7750   73.0190   -3.7376 O   0  0  0  0  0  0  0  0  0  0  0  0
   23.0359   72.9661   -4.7477 P   0  0  2  0  0  0  0  0  0  0  0  0
   22.4764   72.1000   -5.9944 O   0  0  0  0  0  0  0  0  0  0  0  0
   24.2944   72.4254   -4.1331 O   0  0  0  0  0  0  0  0  0  0  0  0
   23.1637   74.4696   -5.3206 O   0  0  0  0  0  0  0  0  0  0  0  0
   25.0945   75.8148   -5.6018 O   0  0  0  0  0  0  0  0  0  0  0  0
   22.3902   78.7534   -4.5520 O   0  0  0  0  0  0  0  0  0  0  0  0
   23.3057   78.5738   -7.2682 O   0  0  0  0  0  0  0  0  0  0  0  0
   22.2798   76.1630   -3.2648 O   0  0  0  0  0  0  0  0  0  0  0  0
   22.8172   77.5361   -5.1693 C   0  0  1  0  0  0  0  0  0  0  0  0
   23.9104   77.8716   -6.1858 C   0  0  1  0  0  0  0  0  0  0  0  0
   23.3538   76.5928   -4.0943 C   0  0  2  0  0  0  0  0  0  0  0  0
   24.6031   76.6001   -6.6943 C   0  0  1  0  0  0  0  0  0  0  0  0
   24.0666   75.3857   -4.7067 C   0  0  1  0  0  0  0  0  0  0  0  0
   22.0479   79.3567   -5.2291 H   0  0  0  0  0  0  0  0  0  0  0  0
   22.8715   79.3742   -6.9335 H   0  0  0  0  0  0  0  0  0  0  0  0
   21.8369   76.9362   -2.8829 H   0  0  0  0  0  0  0  0  0  0  0  0
   26.8699   76.0653   -7.2277 O   0  0  0  0  0  0  0  0  0  0  0  0
   25.7995   76.9191   -7.5881 C   0  0  0  0  0  0  0  0  0  0  0  0
   27.6383   76.2568   -7.7886 H   0  0  0  0  0  0  0  0  0  0  0  0
 25 28  1  0
 25 24  1  0
 25 26  1  6
 25 27  2  0
  1  4  1  0
  1 24  1  0
  1  2  1  6
  1  3  2  0
  6 11  1  0
  6 12  1  0
 29 36  1  0
 29 37  1  0
  9  7  1  6
  7 13  1  0
 10  8  1  1
  8 14  1  0
 37 28  1  6
  4  5  1  0
 33 30  1  1
 30 38  1  0
 34 31  1  6
 31 39  1  0
 35 32  1  6
 32 40  1  0
 41 42  1  0
 41 43  1  0
 15 19  2  0
 16 22  2  0
 12 17  1  6
 17 19  1  0
 17 20  1  0
 18 19  1  0
 18 22  1  0
 18 23  1  0
  9 10  1  0
  9 11  1  0
 10 12  1  0
 11  5  1  6
 33 34  1  0
 33 35  1  0
 34 36  1  0
 35 37  1  0
 36 42  1  6
 20 21  2  0
 21 22  1  0
M  CHG  2   2  -1  26  -1
M  END
>  <COMPND>  (66) 
    8629 

>  <AUTHOR>  (66) 
    GENERATED BY OPEN BABEL 3.1.1

>  <MASTER>  (66) 
        0    0    0    0    0    0    0    0   58    0   58    0

>  <minimizedAffinity>  (66) 
-6.38875

>  <CNNscore>  (66) 
0.8656070828

>  <CNNaffinity>  (66) 
4.6949753761

>  <CNN_VS>  (66) 
4.0640039444

>  <CNNaffinity_variance>  (66) 
0.0756960809

$$$$
67
     RDKit          3D

 43 45  0  0  0  0  0  0  0  0999 V2000
   20.8637   71.4891   -1.6757 P   0  0  2  0  0  0  0  0  0  0  0  0
   22.2004   70.9415   -2.4041 O   0  0  0  0  0  0  0  0  0  0  0  0
   19.8604   70.4332   -1.3154 O   0  0  0  0  0  0  0  0  0  0  0  0
   20.3326   72.6549   -2.6640 O   0  0  0  0  0  0  0  0  0  0  0  0
   19.8801   72.2913   -3.9566 C   0  0  0  0  0  0  0  0  0  0  0  0
   18.0732   72.8179   -5.4505 O   0  0  0  0  0  0  0  0  0  0  0  0
   16.2416   71.9387   -3.2452 O   0  0  0  0  0  0  0  0  0  0  0  0
   16.2599   69.7726   -4.9019 O   0  0  0  0  0  0  0  0  0  0  0  0
   17.5144   71.4165   -3.6231 C   0  0  1  0  0  0  0  0  0  0  0  0
   17.3949   70.6143   -4.9021 C   0  0  2  0  0  0  0  0  0  0  0  0
   18.3896   72.5843   -4.0606 C   0  0  1  0  0  0  0  0  0  0  0  0
   17.3116   71.7079   -5.9533 C   0  0  2  0  0  0  0  0  0  0  0  0
   15.6651   71.2113   -2.9615 H   0  0  0  0  0  0  0  0  0  0  0  0
   16.3606   69.0939   -4.2164 H   0  0  0  0  0  0  0  0  0  0  0  0
   15.8487   70.3939   -7.9809 O   0  0  0  0  0  0  0  0  0  0  0  0
   19.5261   70.1820  -10.7509 O   0  0  0  0  0  0  0  0  0  0  0  0
   17.8617   71.2982   -7.2146 N   0  0  0  0  0  0  0  0  0  0  0  0
   17.6809   70.2896   -9.3586 N   0  0  0  0  0  0  0  0  0  0  0  0
   17.0418   70.6443   -8.1637 C   0  0  0  0  0  0  0  0  0  0  0  0
   19.2000   71.5459   -7.5003 C   0  0  0  0  0  0  0  0  0  0  0  0
   19.7945   71.2001   -8.6440 C   0  0  0  0  0  0  0  0  0  0  0  0
   19.0083   70.5128   -9.6887 C   0  0  0  0  0  0  0  0  0  0  0  0
   17.1295   69.8326  -10.0344 H   0  0  0  0  0  0  0  0  0  0  0  0
   21.4490   72.3181   -0.4175 O   0  0  0  0  0  0  0  0  0  0  0  0
   21.4099   72.0085    1.1686 P   0  0  2  0  0  0  0  0  0  0  0  0
   21.4068   70.3918    1.2310 O   0  0  0  0  0  0  0  0  0  0  0  0
   20.2677   72.6585    1.8944 O   0  0  0  0  0  0  0  0  0  0  0  0
   22.8717   72.4343    1.7041 O   0  0  0  0  0  0  0  0  0  0  0  0
   24.5904   73.6878    0.6593 O   0  0  0  0  0  0  0  0  0  0  0  0
   26.9144   70.9303    2.6708 O   0  0  0  0  0  0  0  0  0  0  0  0
   26.8238   73.6490    3.5918 O   0  0  0  0  0  0  0  0  0  0  0  0
   24.4179   70.1052    1.4600 O   0  0  0  0  0  0  0  0  0  0  0  0
   25.7937   71.7982    2.4807 C   0  0  1  0  0  0  0  0  0  0  0  0
   26.3153   73.2285    2.3289 C   0  0  1  0  0  0  0  0  0  0  0  0
   25.0351   71.3667    1.2271 C   0  0  2  0  0  0  0  0  0  0  0  0
   25.2040   74.1763    1.8579 C   0  0  1  0  0  0  0  0  0  0  0  0
   23.9866   72.4023    0.8169 C   0  0  1  0  0  0  0  0  0  0  0  0
   27.4001   71.1986    3.4656 H   0  0  0  0  0  0  0  0  0  0  0  0
   27.5243   73.0419    3.8780 H   0  0  0  0  0  0  0  0  0  0  0  0
   25.0921   69.4583    1.7186 H   0  0  0  0  0  0  0  0  0  0  0  0
   25.4271   75.8850    0.2028 O   0  0  0  0  0  0  0  0  0  0  0  0
   25.7370   75.5736    1.5486 C   0  0  0  0  0  0  0  0  0  0  0  0
   25.7601   76.7718   -0.0081 H   0  0  0  0  0  0  0  0  0  0  0  0
 25 28  1  0
 25 24  1  0
 25 26  1  6
 25 27  2  0
  1  4  1  0
  1 24  1  0
  1  2  1  6
  1  3  2  0
  6 11  1  0
  6 12  1  0
 29 36  1  0
 29 37  1  0
  9  7  1  6
  7 13  1  0
 10  8  1  1
  8 14  1  0
 37 28  1  1
  4  5  1  0
 33 30  1  6
 30 38  1  0
 34 31  1  1
 31 39  1  0
 35 32  1  1
 32 40  1  0
 41 42  1  0
 41 43  1  0
 15 19  2  0
 16 22  2  0
 12 17  1  6
 17 19  1  0
 17 20  1  0
 18 19  1  0
 18 22  1  0
 18 23  1  0
  9 10  1  0
  9 11  1  0
 10 12  1  0
 11  5  1  6
 33 34  1  0
 33 35  1  0
 34 36  1  0
 35 37  1  0
 36 42  1  6
 20 21  2  0
 21 22  1  0
M  CHG  2   2  -1  26  -1
M  END
>  <COMPND>  (67) 
    8629 

>  <AUTHOR>  (67) 
    GENERATED BY OPEN BABEL 3.1.1

>  <MASTER>  (67) 
        0    0    0    0    0    0    0    0   58    0   58    0

>  <minimizedAffinity>  (67) 
-7.27868

>  <CNNscore>  (67) 
0.8483368754

>  <CNNaffinity>  (67) 
4.5333676338

>  <CNN_VS>  (67) 
3.8458230495

>  <CNNaffinity_variance>  (67) 
0.0575571433

$$$$
68
     RDKit          3D

 43 45  0  0  0  0  0  0  0  0999 V2000
   20.1812   72.1961   -1.1543 P   0  0  2  0  0  0  0  0  0  0  0  0
   20.3119   70.6442   -0.7162 O   0  0  0  0  0  0  0  0  0  0  0  0
   18.9275   72.8808   -0.6951 O   0  0  0  0  0  0  0  0  0  0  0  0
   20.4216   72.1696   -2.7542 O   0  0  0  0  0  0  0  0  0  0  0  0
   19.7895   71.1558   -3.5161 C   0  0  0  0  0  0  0  0  0  0  0  0
   17.9548   71.9505   -4.8487 O   0  0  0  0  0  0  0  0  0  0  0  0
   16.1692   70.5464   -2.8914 O   0  0  0  0  0  0  0  0  0  0  0  0
   16.2323   68.8080   -4.9915 O   0  0  0  0  0  0  0  0  0  0  0  0
   17.4524   70.1596   -3.3804 C   0  0  1  0  0  0  0  0  0  0  0  0
   17.3434   69.6612   -4.8063 C   0  0  2  0  0  0  0  0  0  0  0  0
   18.2906   71.4209   -3.5475 C   0  0  1  0  0  0  0  0  0  0  0  0
   17.2197   70.9596   -5.5854 C   0  0  2  0  0  0  0  0  0  0  0  0
   15.6159   69.7574   -2.7764 H   0  0  0  0  0  0  0  0  0  0  0  0
   16.3583   67.9962   -4.4760 H   0  0  0  0  0  0  0  0  0  0  0  0
   15.7541   70.1675   -7.8662 O   0  0  0  0  0  0  0  0  0  0  0  0
   19.4318   70.6088  -10.6086 O   0  0  0  0  0  0  0  0  0  0  0  0
   17.7692   70.8592   -6.9080 N   0  0  0  0  0  0  0  0  0  0  0  0
   17.5865   70.3880   -9.2299 N   0  0  0  0  0  0  0  0  0  0  0  0
   16.9479   70.4510   -7.9848 C   0  0  0  0  0  0  0  0  0  0  0  0
   19.1082   71.1640   -7.1272 C   0  0  0  0  0  0  0  0  0  0  0  0
   19.7022   71.0977   -8.3205 C   0  0  0  0  0  0  0  0  0  0  0  0
   18.9145   70.6797   -9.4981 C   0  0  0  0  0  0  0  0  0  0  0  0
   17.0341   70.1057   -9.9947 H   0  0  0  0  0  0  0  0  0  0  0  0
   21.5489   72.8490   -0.5922 O   0  0  0  0  0  0  0  0  0  0  0  0
   23.0510   72.8449   -1.1895 P   0  0  2  0  0  0  0  0  0  0  0  0
   23.2751   71.3013   -1.6192 O   0  0  0  0  0  0  0  0  0  0  0  0
   24.0892   73.3826   -0.2477 O   0  0  0  0  0  0  0  0  0  0  0  0
   22.9371   73.6446   -2.5868 O   0  0  0  0  0  0  0  0  0  0  0  0
   23.5336   73.0970   -4.8142 O   0  0  0  0  0  0  0  0  0  0  0  0
   24.7765   77.0343   -4.7471 O   0  0  0  0  0  0  0  0  0  0  0  0
   22.4236   76.3151   -6.2286 O   0  0  0  0  0  0  0  0  0  0  0  0
   25.1493   75.3625   -2.4135 O   0  0  0  0  0  0  0  0  0  0  0  0
   23.9331   75.9283   -4.4140 C   0  0  1  0  0  0  0  0  0  0  0  0
   23.3487   75.3634   -5.7102 C   0  0  1  0  0  0  0  0  0  0  0  0
   24.7621   74.8683   -3.6912 C   0  0  2  0  0  0  0  0  0  0  0  0
   22.6506   74.0192   -5.4635 C   0  0  1  0  0  0  0  0  0  0  0  0
   23.9923   73.5550   -3.5407 C   0  0  1  0  0  0  0  0  0  0  0  0
   24.2561   77.7112   -5.2059 H   0  0  0  0  0  0  0  0  0  0  0  0
   22.8769   77.1595   -6.3794 H   0  0  0  0  0  0  0  0  0  0  0  0
   25.6360   76.1938   -2.5224 H   0  0  0  0  0  0  0  0  0  0  0  0
   22.9971   72.2151   -6.9913 O   0  0  0  0  0  0  0  0  0  0  0  0
   22.1984   73.3621   -6.7658 C   0  0  0  0  0  0  0  0  0  0  0  0
   22.7203   71.7863   -7.8167 H   0  0  0  0  0  0  0  0  0  0  0  0
 25 28  1  0
 25 24  1  0
 25 26  1  6
 25 27  2  0
  1  4  1  0
  1 24  1  0
  1  2  1  1
  1  3  2  0
  6 11  1  0
  6 12  1  0
 29 36  1  0
 29 37  1  0
  9  7  1  6
  7 13  1  0
 10  8  1  1
  8 14  1  0
 37 28  1  1
  4  5  1  0
 33 30  1  6
 30 38  1  0
 34 31  1  1
 31 39  1  0
 35 32  1  1
 32 40  1  0
 41 42  1  0
 41 43  1  0
 15 19  2  0
 16 22  2  0
 12 17  1  6
 17 19  1  0
 17 20  1  0
 18 19  1  0
 18 22  1  0
 18 23  1  0
  9 10  1  0
  9 11  1  0
 10 12  1  0
 11  5  1  6
 33 34  1  0
 33 35  1  0
 34 36  1  0
 35 37  1  0
 36 42  1  6
 20 21  2  0
 21 22  1  0
M  CHG  2   2  -1  26  -1
M  END
>  <COMPND>  (68) 
    8629 

>  <AUTHOR>  (68) 
    GENERATED BY OPEN BABEL 3.1.1

>  <MASTER>  (68) 
        0    0    0    0    0    0    0    0   58    0   58    0

>  <minimizedAffinity>  (68) 
-7.36027

>  <CNNscore>  (68) 
0.8427191377

>  <CNNaffinity>  (68) 
4.5983676910

>  <CNN_VS>  (68) 
3.8751325607

>  <CNNaffinity_variance>  (68) 
0.1499179155

$$$$
69
     RDKit          3D

 43 45  0  0  0  0  0  0  0  0999 V2000
   21.8434   72.5528   -5.4244 P   0  0  2  0  0  0  0  0  0  0  0  0
   21.2340   74.0245   -5.1413 O   0  0  0  0  0  0  0  0  0  0  0  0
   23.1096   72.5353   -6.2293 O   0  0  0  0  0  0  0  0  0  0  0  0
   20.5994   71.7317   -6.0536 O   0  0  0  0  0  0  0  0  0  0  0  0
   20.1786   72.0455   -7.3698 C   0  0  0  0  0  0  0  0  0  0  0  0
   18.9636   70.0193   -6.9315 O   0  0  0  0  0  0  0  0  0  0  0  0
   18.2340   70.0488   -9.8397 O   0  0  0  0  0  0  0  0  0  0  0  0
   15.9784   71.0163   -8.6511 O   0  0  0  0  0  0  0  0  0  0  0  0
   18.3895   71.1429   -8.9374 C   0  0  1  0  0  0  0  0  0  0  0  0
   17.2109   71.2137   -7.9889 C   0  0  2  0  0  0  0  0  0  0  0  0
   19.5385   70.8126   -7.9929 C   0  0  1  0  0  0  0  0  0  0  0  0
   17.5309   70.1011   -7.0051 C   0  0  2  0  0  0  0  0  0  0  0  0
   17.5059   70.2368  -10.4532 H   0  0  0  0  0  0  0  0  0  0  0  0
   15.8201   71.7499   -9.2655 H   0  0  0  0  0  0  0  0  0  0  0  0
   16.3807   68.1449   -5.3233 O   0  0  0  0  0  0  0  0  0  0  0  0
   15.5672   71.2241   -1.9919 O   0  0  0  0  0  0  0  0  0  0  0  0
   17.0108   70.3638   -5.6929 N   0  0  0  0  0  0  0  0  0  0  0  0
   15.9768   69.6797   -3.6658 N   0  0  0  0  0  0  0  0  0  0  0  0
   16.4532   69.3111   -4.9304 C   0  0  0  0  0  0  0  0  0  0  0  0
   17.0569   71.6534   -5.1747 C   0  0  0  0  0  0  0  0  0  0  0  0
   16.5971   71.9886   -3.9674 C   0  0  0  0  0  0  0  0  0  0  0  0
   15.9990   70.9476   -3.1068 C   0  0  0  0  0  0  0  0  0  0  0  0
   15.5836   68.9628   -3.1169 H   0  0  0  0  0  0  0  0  0  0  0  0
   21.9804   71.9247   -3.9413 O   0  0  0  0  0  0  0  0  0  0  0  0
   23.1601   72.0440   -2.8427 P   0  0  2  0  0  0  0  0  0  0  0  0
   23.7133   73.5496   -3.0543 O   0  0  0  0  0  0  0  0  0  0  0  0
   24.2111   70.9773   -2.9500 O   0  0  0  0  0  0  0  0  0  0  0  0
   22.3935   72.0872   -1.4230 O   0  0  0  0  0  0  0  0  0  0  0  0
   24.0341   72.0047    0.2853 O   0  0  0  0  0  0  0  0  0  0  0  0
   20.6356   71.9139    2.6291 O   0  0  0  0  0  0  0  0  0  0  0  0
   22.2376   74.2960    2.5462 O   0  0  0  0  0  0  0  0  0  0  0  0
   20.6994   70.4689    0.1216 O   0  0  0  0  0  0  0  0  0  0  0  0
   21.4342   72.2975    1.5064 C   0  0  1  0  0  0  0  0  0  0  0  0
   22.6665   73.0407    2.0260 C   0  0  1  0  0  0  0  0  0  0  0  0
   21.8471   71.0446    0.7362 C   0  0  2  0  0  0  0  0  0  0  0  0
   23.6990   73.2494    0.9099 C   0  0  1  0  0  0  0  0  0  0  0  0
   22.9130   71.3544   -0.3165 C   0  0  1  0  0  0  0  0  0  0  0  0
   20.3697   72.7048    3.1222 H   0  0  0  0  0  0  0  0  0  0  0  0
   21.5856   74.1502    3.2496 H   0  0  0  0  0  0  0  0  0  0  0  0
   20.0323   70.2771    0.7984 H   0  0  0  0  0  0  0  0  0  0  0  0
   25.1026   73.5504    2.8200 O   0  0  0  0  0  0  0  0  0  0  0  0
   25.0006   73.8474    1.4395 C   0  0  0  0  0  0  0  0  0  0  0  0
   25.9265   73.9246    3.1705 H   0  0  0  0  0  0  0  0  0  0  0  0
 25 28  1  0
 25 24  1  0
 25 26  1  6
 25 27  2  0
  1  4  1  0
  1 24  1  0
  1  2  1  1
  1  3  2  0
  6 11  1  0
  6 12  1  0
 29 36  1  0
 29 37  1  0
  9  7  1  6
  7 13  1  0
 10  8  1  6
  8 14  1  0
 37 28  1  6
  4  5  1  0
 33 30  1  1
 30 38  1  0
 34 31  1  6
 31 39  1  0
 35 32  1  6
 32 40  1  0
 41 42  1  0
 41 43  1  0
 15 19  2  0
 16 22  2  0
 12 17  1  1
 17 19  1  0
 17 20  1  0
 18 19  1  0
 18 22  1  0
 18 23  1  0
  9 10  1  0
  9 11  1  0
 10 12  1  0
 11  5  1  1
 33 34  1  0
 33 35  1  0
 34 36  1  0
 35 37  1  0
 36 42  1  1
 20 21  2  0
 21 22  1  0
M  CHG  2   2  -1  26  -1
M  END
>  <COMPND>  (69) 
    8629 

>  <AUTHOR>  (69) 
    GENERATED BY OPEN BABEL 3.1.1

>  <MASTER>  (69) 
        0    0    0    0    0    0    0    0   58    0   58    0

>  <minimizedAffinity>  (69) 
-7.98178

>  <CNNscore>  (69) 
0.8105597496

>  <CNNaffinity>  (69) 
4.5541749001

>  <CNN_VS>  (69) 
3.6914308071

>  <CNNaffinity_variance>  (69) 
0.1694653779

$$$$
70
     RDKit          3D

 43 45  0  0  0  0  0  0  0  0999 V2000
   21.8885   72.5304   -5.5168 P   0  0  2  0  0  0  0  0  0  0  0  0
   21.2739   73.9983   -5.2256 O   0  0  0  0  0  0  0  0  0  0  0  0
   23.1403   72.5201   -6.3439 O   0  0  0  0  0  0  0  0  0  0  0  0
   20.6393   71.6994   -6.1224 O   0  0  0  0  0  0  0  0  0  0  0  0
   20.2091   71.9905   -7.4408 C   0  0  0  0  0  0  0  0  0  0  0  0
   18.9824   69.9845   -6.9460 O   0  0  0  0  0  0  0  0  0  0  0  0
   18.2048   69.9691   -9.8419 O   0  0  0  0  0  0  0  0  0  0  0  0
   15.9785   70.9798   -8.6339 O   0  0  0  0  0  0  0  0  0  0  0  0
   18.3856   71.0776   -8.9621 C   0  0  1  0  0  0  0  0  0  0  0  0
   17.2238   71.1770   -7.9958 C   0  0  2  0  0  0  0  0  0  0  0  0
   19.5470   70.7530   -8.0309 C   0  0  1  0  0  0  0  0  0  0  0  0
   17.5495   70.0790   -6.9975 C   0  0  2  0  0  0  0  0  0  0  0  0
   17.4683   70.1533  -10.4466 H   0  0  0  0  0  0  0  0  0  0  0  0
   15.8170   71.7038   -9.2588 H   0  0  0  0  0  0  0  0  0  0  0  0
   16.3314   68.1826   -5.2951 O   0  0  0  0  0  0  0  0  0  0  0  0
   15.6844   71.3099   -1.9720 O   0  0  0  0  0  0  0  0  0  0  0  0
   17.0538   70.3703   -5.6819 N   0  0  0  0  0  0  0  0  0  0  0  0
   16.0104   69.7412   -3.6418 N   0  0  0  0  0  0  0  0  0  0  0  0
   16.4583   69.3464   -4.9089 C   0  0  0  0  0  0  0  0  0  0  0  0
   17.1609   71.6591   -5.1706 C   0  0  0  0  0  0  0  0  0  0  0  0
   16.7276   72.0196   -3.9609 C   0  0  0  0  0  0  0  0  0  0  0  0
   16.0930   71.0096   -3.0895 C   0  0  0  0  0  0  0  0  0  0  0  0
   15.5917   69.0448   -3.0855 H   0  0  0  0  0  0  0  0  0  0  0  0
   22.0561   71.9060   -4.0352 O   0  0  0  0  0  0  0  0  0  0  0  0
   23.2615   72.0220   -2.9645 P   0  0  2  0  0  0  0  0  0  0  0  0
   23.8755   73.4904   -3.2546 O   0  0  0  0  0  0  0  0  0  0  0  0
   24.2626   70.9058   -3.0417 O   0  0  0  0  0  0  0  0  0  0  0  0
   22.5259   72.1629   -1.5348 O   0  0  0  0  0  0  0  0  0  0  0  0
   22.1012   73.9562   -0.0447 O   0  0  0  0  0  0  0  0  0  0  0  0
   23.3182   71.1054    2.6835 O   0  0  0  0  0  0  0  0  0  0  0  0
   20.5459   71.8420    2.5437 O   0  0  0  0  0  0  0  0  0  0  0  0
   24.6272   71.2913    0.1083 O   0  0  0  0  0  0  0  0  0  0  0  0
   22.6806   71.5843    1.4963 C   0  0  1  0  0  0  0  0  0  0  0  0
   21.5879   72.5742    1.9047 C   0  0  1  0  0  0  0  0  0  0  0  0
   23.7217   72.2676    0.6115 C   0  0  2  0  0  0  0  0  0  0  0  0
   21.0406   73.3292    0.6859 C   0  0  1  0  0  0  0  0  0  0  0  0
   23.0689   73.0302   -0.5428 C   0  0  1  0  0  0  0  0  0  0  0  0
   22.6627   70.6700    3.2494 H   0  0  0  0  0  0  0  0  0  0  0  0
   20.9048   71.3695    3.3113 H   0  0  0  0  0  0  0  0  0  0  0  0
   25.0340   70.8157    0.8487 H   0  0  0  0  0  0  0  0  0  0  0  0
   20.3013   74.7721    2.4410 O   0  0  0  0  0  0  0  0  0  0  0  0
   20.0632   74.4317    1.0876 C   0  0  0  0  0  0  0  0  0  0  0  0
   19.6866   75.4730    2.7104 H   0  0  0  0  0  0  0  0  0  0  0  0
 25 28  1  0
 25 24  1  0
 25 26  1  6
 25 27  2  0
  1  4  1  0
  1 24  1  0
  1  2  1  1
  1  3  2  0
  6 11  1  0
  6 12  1  0
 29 36  1  0
 29 37  1  0
  9  7  1  6
  7 13  1  0
 10  8  1  6
  8 14  1  0
 37 28  1  6
  4  5  1  0
 33 30  1  1
 30 38  1  0
 34 31  1  6
 31 39  1  0
 35 32  1  6
 32 40  1  0
 41 42  1  0
 41 43  1  0
 15 19  2  0
 16 22  2  0
 12 17  1  1
 17 19  1  0
 17 20  1  0
 18 19  1  0
 18 22  1  0
 18 23  1  0
  9 10  1  0
  9 11  1  0
 10 12  1  0
 11  5  1  1
 33 34  1  0
 33 35  1  0
 34 36  1  0
 35 37  1  0
 36 42  1  1
 20 21  2  0
 21 22  1  0
M  CHG  2   2  -1  26  -1
M  END
>  <COMPND>  (70) 
    8629 

>  <AUTHOR>  (70) 
    GENERATED BY OPEN BABEL 3.1.1

>  <MASTER>  (70) 
        0    0    0    0    0    0    0    0   58    0   58    0

>  <minimizedAffinity>  (70) 
-7.55458

>  <CNNscore>  (70) 
0.7722861171

>  <CNNaffinity>  (70) 
4.5008878708

>  <CNN_VS>  (70) 
3.4759731293

>  <CNNaffinity_variance>  (70) 
0.2253774405

$$$$
71
     RDKit          3D

 43 45  0  0  0  0  0  0  0  0999 V2000
   23.6408   72.6199   -3.5592 P   0  0  2  0  0  0  0  0  0  0  0  0
   24.0217   71.1150   -3.1036 O   0  0  0  0  0  0  0  0  0  0  0  0
   24.7266   73.3554   -4.2882 O   0  0  0  0  0  0  0  0  0  0  0  0
   23.1127   73.3160   -2.1974 O   0  0  0  0  0  0  0  0  0  0  0  0
   22.2053   74.3995   -2.2998 C   0  0  0  0  0  0  0  0  0  0  0  0
   21.1414   72.7960   -0.8608 O   0  0  0  0  0  0  0  0  0  0  0  0
   19.1852   74.9693   -0.1966 O   0  0  0  0  0  0  0  0  0  0  0  0
   20.8516   74.9894    1.9620 O   0  0  0  0  0  0  0  0  0  0  0  0
   20.5854   75.0633   -0.4536 C   0  0  1  0  0  0  0  0  0  0  0  0
   21.3734   74.5387    0.7285 C   0  0  2  0  0  0  0  0  0  0  0  0
   20.9319   74.0532   -1.5403 C   0  0  1  0  0  0  0  0  0  0  0  0
   21.2421   73.0354    0.5525 C   0  0  2  0  0  0  0  0  0  0  0  0
   18.9400   75.6055    0.4941 H   0  0  0  0  0  0  0  0  0  0  0  0
   20.9585   75.9513    2.0263 H   0  0  0  0  0  0  0  0  0  0  0  0
   21.2772   70.2620    1.0861 O   0  0  0  0  0  0  0  0  0  0  0  0
   25.6535   70.4084    2.5242 O   0  0  0  0  0  0  0  0  0  0  0  0
   22.3775   72.3226    1.0665 N   0  0  0  0  0  0  0  0  0  0  0  0
   23.4563   70.3371    1.8016 N   0  0  0  0  0  0  0  0  0  0  0  0
   22.2906   70.9304    1.3004 C   0  0  0  0  0  0  0  0  0  0  0  0
   23.5606   73.0033    1.3328 C   0  0  0  0  0  0  0  0  0  0  0  0
   24.6629   72.4230    1.8117 C   0  0  0  0  0  0  0  0  0  0  0  0
   24.6560   70.9711    2.0836 C   0  0  0  0  0  0  0  0  0  0  0  0
   23.4191   69.3680    1.9726 H   0  0  0  0  0  0  0  0  0  0  0  0
   22.2825   72.4093   -4.4099 O   0  0  0  0  0  0  0  0  0  0  0  0
   21.7997   73.0481   -5.8141 P   0  0  2  0  0  0  0  0  0  0  0  0
   22.8115   72.3873   -6.8898 O   0  0  0  0  0  0  0  0  0  0  0  0
   21.7726   74.5491   -5.8303 O   0  0  0  0  0  0  0  0  0  0  0  0
   20.3752   72.3502   -6.1121 O   0  0  0  0  0  0  0  0  0  0  0  0
   19.6259   70.2112   -5.4193 O   0  0  0  0  0  0  0  0  0  0  0  0
   17.6773   70.4483   -9.0521 O   0  0  0  0  0  0  0  0  0  0  0  0
   16.1733   70.6931   -6.6177 O   0  0  0  0  0  0  0  0  0  0  0  0
   20.3639   71.4920   -8.7839 O   0  0  0  0  0  0  0  0  0  0  0  0
   18.2193   70.9536   -7.8289 C   0  0  1  0  0  0  0  0  0  0  0  0
   17.5241   70.2423   -6.6663 C   0  0  1  0  0  0  0  0  0  0  0  0
   19.7230   70.6860   -7.8010 C   0  0  2  0  0  0  0  0  0  0  0  0
   18.2325   70.5324   -5.3362 C   0  0  1  0  0  0  0  0  0  0  0  0
   20.3199   70.9596   -6.4194 C   0  0  1  0  0  0  0  0  0  0  0  0
   16.7228   70.6155   -9.0763 H   0  0  0  0  0  0  0  0  0  0  0  0
   15.7375   70.5044   -7.4637 H   0  0  0  0  0  0  0  0  0  0  0  0
   19.9774   71.3093   -9.6540 H   0  0  0  0  0  0  0  0  0  0  0  0
   16.8718   68.6627   -4.7350 O   0  0  0  0  0  0  0  0  0  0  0  0
   17.6526   69.7093   -4.1880 C   0  0  0  0  0  0  0  0  0  0  0  0
   16.4966   68.1302   -4.0157 H   0  0  0  0  0  0  0  0  0  0  0  0
 25 28  1  0
 25 24  1  0
 25 26  1  6
 25 27  2  0
  1  4  1  0
  1 24  1  0
  1  2  1  1
  1  3  2  0
  6 11  1  0
  6 12  1  0
 29 36  1  0
 29 37  1  0
  9  7  1  1
  7 13  1  0
 10  8  1  1
  8 14  1  0
 37 28  1  1
  4  5  1  0
 33 30  1  6
 30 38  1  0
 34 31  1  1
 31 39  1  0
 35 32  1  6
 32 40  1  0
 41 42  1  0
 41 43  1  0
 15 19  2  0
 16 22  2  0
 12 17  1  6
 17 19  1  0
 17 20  1  0
 18 19  1  0
 18 22  1  0
 18 23  1  0
  9 10  1  0
  9 11  1  0
 10 12  1  0
 11  5  1  1
 33 34  1  0
 33 35  1  0
 34 36  1  0
 35 37  1  0
 36 42  1  1
 20 21  2  0
 21 22  1  0
M  CHG  2   2  -1  26  -1
M  END
>  <COMPND>  (71) 
    8629 

>  <AUTHOR>  (71) 
    GENERATED BY OPEN BABEL 3.1.1

>  <MASTER>  (71) 
        0    0    0    0    0    0    0    0   58    0   58    0

>  <minimizedAffinity>  (71) 
-7.64740

>  <CNNscore>  (71) 
0.6773021817

>  <CNNaffinity>  (71) 
4.3882923126

>  <CNN_VS>  (71) 
2.9721999168

>  <CNNaffinity_variance>  (71) 
0.1035214886

$$$$
72
     RDKit          3D

 43 45  0  0  0  0  0  0  0  0999 V2000
   20.7093   71.4294   -0.7711 P   0  0  2  0  0  0  0  0  0  0  0  0
   21.5812   70.9134   -2.0324 O   0  0  0  0  0  0  0  0  0  0  0  0
   20.8728   70.6240    0.4843 O   0  0  0  0  0  0  0  0  0  0  0  0
   19.2028   71.5250   -1.3534 O   0  0  0  0  0  0  0  0  0  0  0  0
   18.7945   70.5833   -2.3303 C   0  0  0  0  0  0  0  0  0  0  0  0
   17.3148   71.5794   -3.9403 O   0  0  0  0  0  0  0  0  0  0  0  0
   15.1616   69.8734   -2.7386 O   0  0  0  0  0  0  0  0  0  0  0  0
   15.8169   68.4978   -5.0001 O   0  0  0  0  0  0  0  0  0  0  0  0
   16.5412   69.5735   -2.9435 C   0  0  1  0  0  0  0  0  0  0  0  0
   16.8101   69.3121   -4.4108 C   0  0  2  0  0  0  0  0  0  0  0  0
   17.3401   70.8469   -2.6956 C   0  0  1  0  0  0  0  0  0  0  0  0
   16.8280   70.7192   -4.9834 C   0  0  2  0  0  0  0  0  0  0  0  0
   14.6312   69.0750   -2.8908 H   0  0  0  0  0  0  0  0  0  0  0  0
   15.8459   67.6135   -4.6026 H   0  0  0  0  0  0  0  0  0  0  0  0
   15.9372   71.2407   -7.6125 O   0  0  0  0  0  0  0  0  0  0  0  0
   20.2315   71.1416   -9.2831 O   0  0  0  0  0  0  0  0  0  0  0  0
   17.6917   70.8352   -6.1244 N   0  0  0  0  0  0  0  0  0  0  0  0
   18.0762   71.1911   -8.4422 N   0  0  0  0  0  0  0  0  0  0  0  0
   17.1433   71.0976   -7.4015 C   0  0  0  0  0  0  0  0  0  0  0  0
   19.0661   70.6894   -5.9709 C   0  0  0  0  0  0  0  0  0  0  0  0
   19.9421   70.7801   -6.9737 C   0  0  0  0  0  0  0  0  0  0  0  0
   19.4513   71.0525   -8.3401 C   0  0  0  0  0  0  0  0  0  0  0  0
   17.7171   71.3731   -9.3409 H   0  0  0  0  0  0  0  0  0  0  0  0
   21.1462   72.9799   -0.6372 O   0  0  0  0  0  0  0  0  0  0  0  0
   22.5409   73.6537   -0.1750 P   0  0  2  0  0  0  0  0  0  0  0  0
   22.4016   75.1826   -0.6857 O   0  0  0  0  0  0  0  0  0  0  0  0
   23.7641   72.9423   -0.6767 O   0  0  0  0  0  0  0  0  0  0  0  0
   22.4352   73.7497    1.4326 O   0  0  0  0  0  0  0  0  0  0  0  0
   24.4159   73.1764    2.6010 O   0  0  0  0  0  0  0  0  0  0  0  0
   21.7421   73.0759    5.7461 O   0  0  0  0  0  0  0  0  0  0  0  0
   23.6318   75.2305    5.5598 O   0  0  0  0  0  0  0  0  0  0  0  0
   20.9451   72.0960    3.1414 O   0  0  0  0  0  0  0  0  0  0  0  0
   22.2853   73.5540    4.5125 C   0  0  1  0  0  0  0  0  0  0  0  0
   23.7106   74.0444    4.7742 C   0  0  1  0  0  0  0  0  0  0  0  0
   22.2868   72.4160    3.4934 C   0  0  2  0  0  0  0  0  0  0  0  0
   24.4509   74.3229    3.4590 C   0  0  1  0  0  0  0  0  0  0  0  0
   23.0909   72.7782    2.2435 C   0  0  1  0  0  0  0  0  0  0  0  0
   21.7378   73.7937    6.3973 H   0  0  0  0  0  0  0  0  0  0  0  0
   23.1617   75.0412    6.3871 H   0  0  0  0  0  0  0  0  0  0  0  0
   20.4467   71.8682    3.9411 H   0  0  0  0  0  0  0  0  0  0  0  0
   26.2238   74.4397    5.0565 O   0  0  0  0  0  0  0  0  0  0  0  0
   25.9218   74.6614    3.6913 C   0  0  0  0  0  0  0  0  0  0  0  0
   27.1570   74.6508    5.2190 H   0  0  0  0  0  0  0  0  0  0  0  0
 25 28  1  0
 25 24  1  0
 25 26  1  6
 25 27  2  0
  1  4  1  0
  1 24  1  0
  1  2  1  6
  1  3  2  0
  6 11  1  0
  6 12  1  0
 29 36  1  0
 29 37  1  0
  9  7  1  6
  7 13  1  0
 10  8  1  6
  8 14  1  0
 37 28  1  1
  4  5  1  0
 33 30  1  1
 30 38  1  0
 34 31  1  1
 31 39  1  0
 35 32  1  6
 32 40  1  0
 41 42  1  0
 41 43  1  0
 15 19  2  0
 16 22  2  0
 12 17  1  6
 17 19  1  0
 17 20  1  0
 18 19  1  0
 18 22  1  0
 18 23  1  0
  9 10  1  0
  9 11  1  0
 10 12  1  0
 11  5  1  6
 33 34  1  0
 33 35  1  0
 34 36  1  0
 35 37  1  0
 36 42  1  1
 20 21  2  0
 21 22  1  0
M  CHG  2   2  -1  26  -1
M  END
>  <COMPND>  (72) 
    8629 

>  <AUTHOR>  (72) 
    GENERATED BY OPEN BABEL 3.1.1

>  <MASTER>  (72) 
        0    0    0    0    0    0    0    0   58    0   58    0

>  <minimizedAffinity>  (72) 
-6.51101

>  <CNNscore>  (72) 
0.6643877625

>  <CNNaffinity>  (72) 
4.3272781372

>  <CNN_VS>  (72) 
2.8749907017

>  <CNNaffinity_variance>  (72) 
0.1080997959

$$$$
73
     RDKit          3D

 43 45  0  0  0  0  0  0  0  0999 V2000
   17.1629   69.5179   -2.6659 P   0  0  2  0  0  0  0  0  0  0  0  0
   17.5050   68.5230   -3.8950 O   0  0  0  0  0  0  0  0  0  0  0  0
   18.3398   69.9102   -1.8218 O   0  0  0  0  0  0  0  0  0  0  0  0
   15.9568   68.7722   -1.8867 O   0  0  0  0  0  0  0  0  0  0  0  0
   15.2814   69.4735   -0.8572 C   0  0  0  0  0  0  0  0  0  0  0  0
   13.0785   68.5147   -0.9007 O   0  0  0  0  0  0  0  0  0  0  0  0
   12.0769   71.3037   -1.3580 O   0  0  0  0  0  0  0  0  0  0  0  0
   11.5972   70.9283    1.3001 O   0  0  0  0  0  0  0  0  0  0  0  0
   13.1679   70.8573   -0.5544 C   0  0  1  0  0  0  0  0  0  0  0  0
   12.6553   70.2006    0.7103 C   0  0  2  0  0  0  0  0  0  0  0  0
   13.8325   69.6893   -1.2724 C   0  0  1  0  0  0  0  0  0  0  0  0
   12.2156   68.8381    0.2019 C   0  0  2  0  0  0  0  0  0  0  0  0
   11.6370   72.0498   -0.9200 H   0  0  0  0  0  0  0  0  0  0  0  0
   11.9272   71.7870    1.6075 H   0  0  0  0  0  0  0  0  0  0  0  0
   10.2483   66.8800    0.7245 O   0  0  0  0  0  0  0  0  0  0  0  0
   12.7797   64.9655    4.0663 O   0  0  0  0  0  0  0  0  0  0  0  0
   12.3347   67.8156    1.2027 N   0  0  0  0  0  0  0  0  0  0  0  0
   11.5104   65.9282    2.3879 N   0  0  0  0  0  0  0  0  0  0  0  0
   11.2888   66.8812    1.3856 C   0  0  0  0  0  0  0  0  0  0  0  0
   13.4789   67.7463    1.9899 C   0  0  0  0  0  0  0  0  0  0  0  0
   13.6743   66.8321    2.9425 C   0  0  0  0  0  0  0  0  0  0  0  0
   12.6299   65.8190    3.1975 C   0  0  0  0  0  0  0  0  0  0  0  0
   10.7951   65.2671    2.5335 H   0  0  0  0  0  0  0  0  0  0  0  0
   16.4163   70.7525   -3.3946 O   0  0  0  0  0  0  0  0  0  0  0  0
   16.9888   71.9260   -4.3476 P   0  0  2  0  0  0  0  0  0  0  0  0
   18.4343   72.2572   -3.7008 O   0  0  0  0  0  0  0  0  0  0  0  0
   16.0800   73.1144   -4.4740 O   0  0  0  0  0  0  0  0  0  0  0  0
   17.3259   71.1903   -5.7440 O   0  0  0  0  0  0  0  0  0  0  0  0
   18.9258   72.5033   -6.8987 O   0  0  0  0  0  0  0  0  0  0  0  0
   18.2498   69.6122   -9.7684 O   0  0  0  0  0  0  0  0  0  0  0  0
   20.7270   69.6158   -8.3153 O   0  0  0  0  0  0  0  0  0  0  0  0
   16.0481   70.6057   -8.1731 O   0  0  0  0  0  0  0  0  0  0  0  0
   18.3923   70.1204   -8.4392 C   0  0  1  0  0  0  0  0  0  0  0  0
   19.8014   70.6989   -8.2955 C   0  0  1  0  0  0  0  0  0  0  0  0
   17.3402   71.2025   -8.2031 C   0  0  2  0  0  0  0  0  0  0  0  0
   19.9419   71.4981   -6.9929 C   0  0  1  0  0  0  0  0  0  0  0  0
   17.6003   71.9695   -6.9054 C   0  0  1  0  0  0  0  0  0  0  0  0
   18.9146   68.9244   -9.9247 H   0  0  0  0  0  0  0  0  0  0  0  0
   20.6276   69.1190   -9.1427 H   0  0  0  0  0  0  0  0  0  0  0  0
   15.8955   70.1235   -9.0002 H   0  0  0  0  0  0  0  0  0  0  0  0
   21.7770   72.4164   -8.2168 O   0  0  0  0  0  0  0  0  0  0  0  0
   21.2876   72.2145   -6.9038 C   0  0  0  0  0  0  0  0  0  0  0  0
   22.6330   72.8717   -8.1757 H   0  0  0  0  0  0  0  0  0  0  0  0
 25 28  1  0
 25 24  1  0
 25 26  1  1
 25 27  2  0
  1  4  1  0
  1 24  1  0
  1  2  1  6
  1  3  2  0
  6 11  1  0
  6 12  1  0
 29 36  1  0
 29 37  1  0
  9  7  1  6
  7 13  1  0
 10  8  1  6
  8 14  1  0
 37 28  1  1
  4  5  1  0
 33 30  1  6
 30 38  1  0
 34 31  1  1
 31 39  1  0
 35 32  1  1
 32 40  1  0
 41 42  1  0
 41 43  1  0
 15 19  2  0
 16 22  2  0
 12 17  1  1
 17 19  1  0
 17 20  1  0
 18 19  1  0
 18 22  1  0
 18 23  1  0
  9 10  1  0
  9 11  1  0
 10 12  1  0
 11  5  1  1
 33 34  1  0
 33 35  1  0
 34 36  1  0
 35 37  1  0
 36 42  1  6
 20 21  2  0
 21 22  1  0
M  CHG  2   2  -1  26  -1
M  END
>  <COMPND>  (73) 
    8629 

>  <AUTHOR>  (73) 
    GENERATED BY OPEN BABEL 3.1.1

>  <MASTER>  (73) 
        0    0    0    0    0    0    0    0   58    0   58    0

>  <minimizedAffinity>  (73) 
-7.40917

>  <CNNscore>  (73) 
0.6452916265

>  <CNNaffinity>  (73) 
4.2545523643

>  <CNN_VS>  (73) 
2.7454271317

>  <CNNaffinity_variance>  (73) 
0.1019322872

$$$$
74
     RDKit          3D

 43 45  0  0  0  0  0  0  0  0999 V2000
   23.2960   72.2847   -3.4755 P   0  0  2  0  0  0  0  0  0  0  0  0
   23.9794   70.8396   -3.2264 O   0  0  0  0  0  0  0  0  0  0  0  0
   24.2127   73.3307   -4.0384 O   0  0  0  0  0  0  0  0  0  0  0  0
   22.6123   72.6414   -2.0531 O   0  0  0  0  0  0  0  0  0  0  0  0
   23.4319   72.6714   -0.8976 C   0  0  0  0  0  0  0  0  0  0  0  0
   23.8638   71.5858    1.2021 O   0  0  0  0  0  0  0  0  0  0  0  0
   21.2121   70.2349    0.8359 O   0  0  0  0  0  0  0  0  0  0  0  0
   20.6258   72.2254    2.6053 O   0  0  0  0  0  0  0  0  0  0  0  0
   21.6062   71.5597    0.4823 C   0  0  1  0  0  0  0  0  0  0  0  0
   21.7092   72.4257    1.7205 C   0  0  2  0  0  0  0  0  0  0  0  0
   23.0535   71.5081    0.0090 C   0  0  1  0  0  0  0  0  0  0  0  0
   23.0358   71.9769    2.3094 C   0  0  2  0  0  0  0  0  0  0  0  0
   20.2908   70.2424    1.1411 H   0  0  0  0  0  0  0  0  0  0  0  0
   19.8050   72.5262    2.1851 H   0  0  0  0  0  0  0  0  0  0  0  0
   22.4689   72.6574    4.9915 O   0  0  0  0  0  0  0  0  0  0  0  0
   25.6247   76.0163    4.9984 O   0  0  0  0  0  0  0  0  0  0  0  0
   23.6945   73.0248    3.0370 N   0  0  0  0  0  0  0  0  0  0  0  0
   24.0409   74.3292    4.9928 N   0  0  0  0  0  0  0  0  0  0  0  0
   23.3348   73.2863    4.3797 C   0  0  0  0  0  0  0  0  0  0  0  0
   24.6853   73.7803    2.4194 C   0  0  0  0  0  0  0  0  0  0  0  0
   25.3483   74.7722    3.0176 C   0  0  0  0  0  0  0  0  0  0  0  0
   25.0329   75.1097    4.4207 C   0  0  0  0  0  0  0  0  0  0  0  0
   23.8069   74.5296    5.9282 H   0  0  0  0  0  0  0  0  0  0  0  0
   22.0258   71.9298   -4.4103 O   0  0  0  0  0  0  0  0  0  0  0  0
   20.5384   72.5603   -4.4642 P   0  0  2  0  0  0  0  0  0  0  0  0
   20.8112   74.1550   -4.4663 O   0  0  0  0  0  0  0  0  0  0  0  0
   19.6300   72.0889   -3.3658 O   0  0  0  0  0  0  0  0  0  0  0  0
   20.0106   72.2350   -5.9544 O   0  0  0  0  0  0  0  0  0  0  0  0
   19.1255   70.0368   -5.9846 O   0  0  0  0  0  0  0  0  0  0  0  0
   18.8262   70.9239  -10.0063 O   0  0  0  0  0  0  0  0  0  0  0  0
   16.4498   70.8169   -8.3972 O   0  0  0  0  0  0  0  0  0  0  0  0
   21.1261   71.8240   -8.4965 O   0  0  0  0  0  0  0  0  0  0  0  0
   18.8007   71.2058   -8.6045 C   0  0  1  0  0  0  0  0  0  0  0  0
   17.7184   70.3373   -7.9602 C   0  0  1  0  0  0  0  0  0  0  0  0
   20.1704   70.8895   -8.0067 C   0  0  2  0  0  0  0  0  0  0  0  0
   17.8089   70.3844   -6.4290 C   0  0  1  0  0  0  0  0  0  0  0  0
   20.1389   70.9155   -6.4775 C   0  0  1  0  0  0  0  0  0  0  0  0
   17.9596   71.1230  -10.3921 H   0  0  0  0  0  0  0  0  0  0  0  0
   16.4058   70.7824   -9.3657 H   0  0  0  0  0  0  0  0  0  0  0  0
   21.1366   71.7977   -9.4655 H   0  0  0  0  0  0  0  0  0  0  0  0
   17.4105   68.9653   -4.5485 O   0  0  0  0  0  0  0  0  0  0  0  0
   16.8419   69.4042   -5.7685 C   0  0  0  0  0  0  0  0  0  0  0  0
   16.8058   68.3410   -4.1168 H   0  0  0  0  0  0  0  0  0  0  0  0
 25 28  1  0
 25 24  1  0
 25 26  1  6
 25 27  2  0
  1  4  1  0
  1 24  1  0
  1  2  1  1
  1  3  2  0
  6 11  1  0
  6 12  1  0
 29 36  1  0
 29 37  1  0
  9  7  1  1
  7 13  1  0
 10  8  1  1
  8 14  1  0
 37 28  1  6
  4  5  1  0
 33 30  1  6
 30 38  1  0
 34 31  1  1
 31 39  1  0
 35 32  1  6
 32 40  1  0
 41 42  1  0
 41 43  1  0
 15 19  2  0
 16 22  2  0
 12 17  1  6
 17 19  1  0
 17 20  1  0
 18 19  1  0
 18 22  1  0
 18 23  1  0
  9 10  1  0
  9 11  1  0
 10 12  1  0
 11  5  1  6
 33 34  1  0
 33 35  1  0
 34 36  1  0
 35 37  1  0
 36 42  1  1
 20 21  2  0
 21 22  1  0
M  CHG  2   2  -1  26  -1
M  END
>  <COMPND>  (74) 
    8629 

>  <AUTHOR>  (74) 
    GENERATED BY OPEN BABEL 3.1.1

>  <MASTER>  (74) 
        0    0    0    0    0    0    0    0   58    0   58    0

>  <minimizedAffinity>  (74) 
-7.53712

>  <CNNscore>  (74) 
0.6362634301

>  <CNNaffinity>  (74) 
4.3066735268

>  <CNN_VS>  (74) 
2.7401788235

>  <CNNaffinity_variance>  (74) 
0.0871608779

$$$$
75
     RDKit          3D

 43 45  0  0  0  0  0  0  0  0999 V2000
   23.0280   73.2997   -4.5717 P   0  0  2  0  0  0  0  0  0  0  0  0
   23.2852   74.1865   -5.9002 O   0  0  0  0  0  0  0  0  0  0  0  0
   24.1601   72.3938   -4.1854 O   0  0  0  0  0  0  0  0  0  0  0  0
   21.6120   72.5715   -4.8589 O   0  0  0  0  0  0  0  0  0  0  0  0
   21.1936   71.5380   -3.9845 C   0  0  0  0  0  0  0  0  0  0  0  0
   19.0330   72.1320   -4.8522 O   0  0  0  0  0  0  0  0  0  0  0  0
   17.8991   70.8499   -2.3903 O   0  0  0  0  0  0  0  0  0  0  0  0
   17.5294   68.9254   -4.2866 O   0  0  0  0  0  0  0  0  0  0  0  0
   19.0355   70.4690   -3.1640 C   0  0  1  0  0  0  0  0  0  0  0  0
   18.5958   69.8348   -4.4671 C   0  0  2  0  0  0  0  0  0  0  0  0
   19.7232   71.7406   -3.6452 C   0  0  1  0  0  0  0  0  0  0  0  0
   18.1966   71.0483   -5.2892 C   0  0  2  0  0  0  0  0  0  0  0  0
   17.4437   70.0543   -2.0716 H   0  0  0  0  0  0  0  0  0  0  0  0
   17.8333   68.1712   -3.7579 H   0  0  0  0  0  0  0  0  0  0  0  0
   16.2743   69.9190   -7.0234 O   0  0  0  0  0  0  0  0  0  0  0  0
   19.0636   70.3163  -10.6708 O   0  0  0  0  0  0  0  0  0  0  0  0
   18.3938   70.8453   -6.6968 N   0  0  0  0  0  0  0  0  0  0  0  0
   17.6646   70.1179   -8.8382 N   0  0  0  0  0  0  0  0  0  0  0  0
   17.3652   70.2694   -7.4782 C   0  0  0  0  0  0  0  0  0  0  0  0
   19.5964   71.2161   -7.2886 C   0  0  0  0  0  0  0  0  0  0  0  0
   19.8667   71.0637   -8.5866 C   0  0  0  0  0  0  0  0  0  0  0  0
   18.8453   70.4696   -9.4730 C   0  0  0  0  0  0  0  0  0  0  0  0
   16.9631   69.7185   -9.4021 H   0  0  0  0  0  0  0  0  0  0  0  0
   22.6466   74.4108   -3.4612 O   0  0  0  0  0  0  0  0  0  0  0  0
   23.5256   75.0746   -2.2782 P   0  0  2  0  0  0  0  0  0  0  0  0
   22.6976   76.4143   -1.9078 O   0  0  0  0  0  0  0  0  0  0  0  0
   24.9627   75.3150   -2.6400 O   0  0  0  0  0  0  0  0  0  0  0  0
   23.3091   74.0983   -1.0114 O   0  0  0  0  0  0  0  0  0  0  0  0
   21.8915   74.0764    0.8877 O   0  0  0  0  0  0  0  0  0  0  0  0
   25.4703   73.1452    2.7251 O   0  0  0  0  0  0  0  0  0  0  0  0
   23.4662   71.1121    2.4115 O   0  0  0  0  0  0  0  0  0  0  0  0
   25.4139   75.0741    0.5674 O   0  0  0  0  0  0  0  0  0  0  0  0
   24.5063   73.1338    1.6687 C   0  0  1  0  0  0  0  0  0  0  0  0
   23.2196   72.4995    2.2004 C   0  0  1  0  0  0  0  0  0  0  0  0
   24.2496   74.5686    1.2117 C   0  0  2  0  0  0  0  0  0  0  0  0
   22.0589   72.6920    1.2151 C   0  0  1  0  0  0  0  0  0  0  0  0
   23.0445   74.6554    0.2735 C   0  0  1  0  0  0  0  0  0  0  0  0
   25.6382   72.2371    3.0195 H   0  0  0  0  0  0  0  0  0  0  0  0
   24.2016   71.0044    3.0351 H   0  0  0  0  0  0  0  0  0  0  0  0
   26.1696   75.0139    1.1717 H   0  0  0  0  0  0  0  0  0  0  0  0
   20.8600   72.1171    3.2003 O   0  0  0  0  0  0  0  0  0  0  0  0
   20.7314   72.2067    1.7933 C   0  0  0  0  0  0  0  0  0  0  0  0
   20.0225   71.8097    3.5821 H   0  0  0  0  0  0  0  0  0  0  0  0
 25 28  1  0
 25 24  1  0
 25 26  1  1
 25 27  2  0
  1  4  1  0
  1 24  1  0
  1  2  1  6
  1  3  2  0
  6 11  1  0
  6 12  1  0
 29 36  1  0
 29 37  1  0
  9  7  1  1
  7 13  1  0
 10  8  1  1
  8 14  1  0
 37 28  1  6
  4  5  1  0
 33 30  1  1
 30 38  1  0
 34 31  1  6
 31 39  1  0
 35 32  1  6
 32 40  1  0
 41 42  1  0
 41 43  1  0
 15 19  2  0
 16 22  2  0
 12 17  1  6
 17 19  1  0
 17 20  1  0
 18 19  1  0
 18 22  1  0
 18 23  1  0
  9 10  1  0
  9 11  1  0
 10 12  1  0
 11  5  1  6
 33 34  1  0
 33 35  1  0
 34 36  1  0
 35 37  1  0
 36 42  1  1
 20 21  2  0
 21 22  1  0
M  CHG  2   2  -1  26  -1
M  END
>  <COMPND>  (75) 
    8629 

>  <AUTHOR>  (75) 
    GENERATED BY OPEN BABEL 3.1.1

>  <MASTER>  (75) 
        0    0    0    0    0    0    0    0   58    0   58    0

>  <minimizedAffinity>  (75) 
-6.83892

>  <CNNscore>  (75) 
0.6146722436

>  <CNNaffinity>  (75) 
4.3001565933

>  <CNN_VS>  (75) 
2.6431868076

>  <CNNaffinity_variance>  (75) 
0.0756903589

$$$$
76
     RDKit          3D

 43 45  0  0  0  0  0  0  0  0999 V2000
   22.3190   72.5568   -4.9809 P   0  0  2  0  0  0  0  0  0  0  0  0
   21.5284   73.9500   -4.7544 O   0  0  0  0  0  0  0  0  0  0  0  0
   23.7534   72.5632   -4.5406 O   0  0  0  0  0  0  0  0  0  0  0  0
   22.0647   72.2152   -6.5419 O   0  0  0  0  0  0  0  0  0  0  0  0
   20.7416   72.2899   -7.0435 C   0  0  0  0  0  0  0  0  0  0  0  0
   19.5427   70.3107   -6.3962 O   0  0  0  0  0  0  0  0  0  0  0  0
   19.4432   69.6419   -9.3174 O   0  0  0  0  0  0  0  0  0  0  0  0
   16.9509   70.6463   -8.8524 O   0  0  0  0  0  0  0  0  0  0  0  0
   19.3611   70.9157   -8.6802 C   0  0  1  0  0  0  0  0  0  0  0  0
   18.0070   71.0894   -8.0247 C   0  0  2  0  0  0  0  0  0  0  0  0
   20.2969   70.9001   -7.4779 C   0  0  1  0  0  0  0  0  0  0  0  0
   18.1557   70.2501   -6.7671 C   0  0  2  0  0  0  0  0  0  0  0  0
   18.8542   69.6279  -10.0887 H   0  0  0  0  0  0  0  0  0  0  0  0
   16.8971   71.2118   -9.6386 H   0  0  0  0  0  0  0  0  0  0  0  0
   16.6348   68.6234   -5.0297 O   0  0  0  0  0  0  0  0  0  0  0  0
   15.1407   72.2648   -2.6319 O   0  0  0  0  0  0  0  0  0  0  0  0
   17.3602   70.7466   -5.6799 N   0  0  0  0  0  0  0  0  0  0  0  0
   15.8923   70.4378   -3.8370 N   0  0  0  0  0  0  0  0  0  0  0  0
   16.6333   69.8454   -4.8676 C   0  0  0  0  0  0  0  0  0  0  0  0
   17.3066   72.1132   -5.4281 C   0  0  0  0  0  0  0  0  0  0  0  0
   16.5942   72.6623   -4.4422 C   0  0  0  0  0  0  0  0  0  0  0  0
   15.8061   71.7904   -3.5474 C   0  0  0  0  0  0  0  0  0  0  0  0
   15.3775   69.8295   -3.2584 H   0  0  0  0  0  0  0  0  0  0  0  0
   21.3856   71.4808   -4.2168 O   0  0  0  0  0  0  0  0  0  0  0  0
   20.4462   71.6292   -2.9097 P   0  0  2  0  0  0  0  0  0  0  0  0
   19.5190   70.3045   -2.9668 O   0  0  0  0  0  0  0  0  0  0  0  0
   19.6803   72.9188   -2.8456 O   0  0  0  0  0  0  0  0  0  0  0  0
   21.4392   71.3782   -1.6624 O   0  0  0  0  0  0  0  0  0  0  0  0
   21.7102   73.1087   -0.0659 O   0  0  0  0  0  0  0  0  0  0  0  0
   25.1179   70.9224    0.7459 O   0  0  0  0  0  0  0  0  0  0  0  0
   22.9274   70.8758    2.6027 O   0  0  0  0  0  0  0  0  0  0  0  0
   24.2230   71.2393   -1.9887 O   0  0  0  0  0  0  0  0  0  0  0  0
   23.7513   71.1138    0.3699 C   0  0  1  0  0  0  0  0  0  0  0  0
   23.0278   71.8051    1.5272 C   0  0  1  0  0  0  0  0  0  0  0  0
   23.6963   71.9756   -0.8901 C   0  0  2  0  0  0  0  0  0  0  0  0
   21.6329   72.2830    1.1020 C   0  0  1  0  0  0  0  0  0  0  0  0
   22.2706   72.4379   -1.1964 C   0  0  1  0  0  0  0  0  0  0  0  0
   25.1599   70.3755    1.5451 H   0  0  0  0  0  0  0  0  0  0  0  0
   23.8149   70.5815    2.8613 H   0  0  0  0  0  0  0  0  0  0  0  0
   25.1258   70.9526   -1.7826 H   0  0  0  0  0  0  0  0  0  0  0  0
   20.4002   72.2302    3.1481 O   0  0  0  0  0  0  0  0  0  0  0  0
   20.9560   73.1127    2.1908 C   0  0  0  0  0  0  0  0  0  0  0  0
   19.9663   72.7443    3.8475 H   0  0  0  0  0  0  0  0  0  0  0  0
 25 28  1  0
 25 24  1  0
 25 26  1  6
 25 27  2  0
  1  4  1  0
  1 24  1  0
  1  2  1  6
  1  3  2  0
  6 11  1  0
  6 12  1  0
 29 36  1  0
 29 37  1  0
  9  7  1  1
  7 13  1  0
 10  8  1  6
  8 14  1  0
 37 28  1  1
  4  5  1  0
 33 30  1  1
 30 38  1  0
 34 31  1  1
 31 39  1  0
 35 32  1  6
 32 40  1  0
 41 42  1  0
 41 43  1  0
 15 19  2  0
 16 22  2  0
 12 17  1  1
 17 19  1  0
 17 20  1  0
 18 19  1  0
 18 22  1  0
 18 23  1  0
  9 10  1  0
  9 11  1  0
 10 12  1  0
 11  5  1  1
 33 34  1  0
 33 35  1  0
 34 36  1  0
 35 37  1  0
 36 42  1  1
 20 21  2  0
 21 22  1  0
M  CHG  2   2  -1  26  -1
M  END
>  <COMPND>  (76) 
    8629 

>  <AUTHOR>  (76) 
    GENERATED BY OPEN BABEL 3.1.1

>  <MASTER>  (76) 
        0    0    0    0    0    0    0    0   58    0   58    0

>  <minimizedAffinity>  (76) 
-6.95308

>  <CNNscore>  (76) 
0.6141020060

>  <CNNaffinity>  (76) 
4.3270545006

>  <CNN_VS>  (76) 
2.6572527885

>  <CNNaffinity_variance>  (76) 
0.3141140640

$$$$
77
     RDKit          3D

 43 45  0  0  0  0  0  0  0  0999 V2000
   23.5598   73.5750   -3.7292 P   0  0  2  0  0  0  0  0  0  0  0  0
   23.7691   74.2735   -5.1733 O   0  0  0  0  0  0  0  0  0  0  0  0
   24.0569   72.1627   -3.6303 O   0  0  0  0  0  0  0  0  0  0  0  0
   21.9866   73.7895   -3.4182 O   0  0  0  0  0  0  0  0  0  0  0  0
   21.0421   73.3620   -4.3841 C   0  0  0  0  0  0  0  0  0  0  0  0
   18.9560   72.2034   -4.6670 O   0  0  0  0  0  0  0  0  0  0  0  0
   19.6604   70.7106   -2.1638 O   0  0  0  0  0  0  0  0  0  0  0  0
   20.2957   68.9216   -4.1214 O   0  0  0  0  0  0  0  0  0  0  0  0
   20.5133   71.1662   -3.2127 C   0  0  1  0  0  0  0  0  0  0  0  0
   20.3458   70.2970   -4.4415 C   0  0  2  0  0  0  0  0  0  0  0  0
   19.9831   72.5094   -3.6986 C   0  0  1  0  0  0  0  0  0  0  0  0
   19.0367   70.8117   -5.0155 C   0  0  2  0  0  0  0  0  0  0  0  0
   19.9792   69.8542   -1.8370 H   0  0  0  0  0  0  0  0  0  0  0  0
   21.1514   68.6422   -3.7602 H   0  0  0  0  0  0  0  0  0  0  0  0
   16.8367   69.7501   -6.4336 O   0  0  0  0  0  0  0  0  0  0  0  0
   18.9217   70.3713  -10.4966 O   0  0  0  0  0  0  0  0  0  0  0  0
   18.9776   70.6846   -6.4444 N   0  0  0  0  0  0  0  0  0  0  0  0
   17.8766   70.0605   -8.4555 N   0  0  0  0  0  0  0  0  0  0  0  0
   17.8267   70.1373   -7.0578 C   0  0  0  0  0  0  0  0  0  0  0  0
   20.0528   71.1006   -7.2221 C   0  0  0  0  0  0  0  0  0  0  0  0
   20.0852   71.0194   -8.5539 C   0  0  0  0  0  0  0  0  0  0  0  0
   18.9225   70.4594   -9.2726 C   0  0  0  0  0  0  0  0  0  0  0  0
   17.0860   69.6821   -8.9046 H   0  0  0  0  0  0  0  0  0  0  0  0
   24.2751   74.6123   -2.7166 O   0  0  0  0  0  0  0  0  0  0  0  0
   23.8671   75.0958   -1.2291 P   0  0  2  0  0  0  0  0  0  0  0  0
   22.7207   76.2046   -1.5006 O   0  0  0  0  0  0  0  0  0  0  0  0
   25.0209   75.5872   -0.4037 O   0  0  0  0  0  0  0  0  0  0  0  0
   23.0771   73.8399   -0.5937 O   0  0  0  0  0  0  0  0  0  0  0  0
   23.7996   73.4175    1.6236 O   0  0  0  0  0  0  0  0  0  0  0  0
   21.4472   70.0730    1.0476 O   0  0  0  0  0  0  0  0  0  0  0  0
   20.5284   72.1716    2.7796 O   0  0  0  0  0  0  0  0  0  0  0  0
   23.0759   71.0837   -1.1215 O   0  0  0  0  0  0  0  0  0  0  0  0
   21.8178   71.4464    0.9001 C   0  0  1  0  0  0  0  0  0  0  0  0
   21.8639   72.0827    2.2907 C   0  0  1  0  0  0  0  0  0  0  0  0
   23.1871   71.5245    0.2275 C   0  0  2  0  0  0  0  0  0  0  0  0
   22.5088   73.4744    2.2420 C   0  0  1  0  0  0  0  0  0  0  0  0
   23.7606   72.9418    0.2767 C   0  0  1  0  0  0  0  0  0  0  0  0
   20.5784   70.0164    1.4737 H   0  0  0  0  0  0  0  0  0  0  0  0
   20.1325   71.2863    2.8049 H   0  0  0  0  0  0  0  0  0  0  0  0
   22.7121   70.1853   -1.1391 H   0  0  0  0  0  0  0  0  0  0  0  0
   23.7425   75.0264    3.5756 O   0  0  0  0  0  0  0  0  0  0  0  0
   22.7084   74.0614    3.6376 C   0  0  0  0  0  0  0  0  0  0  0  0
   23.8803   75.4087    4.4568 H   0  0  0  0  0  0  0  0  0  0  0  0
 25 28  1  0
 25 24  1  0
 25 26  1  6
 25 27  2  0
  1  4  1  0
  1 24  1  0
  1  2  1  6
  1  3  2  0
  6 11  1  0
  6 12  1  0
 29 36  1  0
 29 37  1  0
  9  7  1  1
  7 13  1  0
 10  8  1  1
  8 14  1  0
 37 28  1  6
  4  5  1  0
 33 30  1  1
 30 38  1  0
 34 31  1  6
 31 39  1  0
 35 32  1  6
 32 40  1  0
 41 42  1  0
 41 43  1  0
 15 19  2  0
 16 22  2  0
 12 17  1  6
 17 19  1  0
 17 20  1  0
 18 19  1  0
 18 22  1  0
 18 23  1  0
  9 10  1  0
  9 11  1  0
 10 12  1  0
 11  5  1  6
 33 34  1  0
 33 35  1  0
 34 36  1  0
 35 37  1  0
 36 42  1  1
 20 21  2  0
 21 22  1  0
M  CHG  2   2  -1  26  -1
M  END
>  <COMPND>  (77) 
    8629 

>  <AUTHOR>  (77) 
    GENERATED BY OPEN BABEL 3.1.1

>  <MASTER>  (77) 
        0    0    0    0    0    0    0    0   58    0   58    0

>  <minimizedAffinity>  (77) 
-6.90631

>  <CNNscore>  (77) 
0.6136387587

>  <CNNaffinity>  (77) 
4.3327379227

>  <CNN_VS>  (77) 
2.6587359905

>  <CNNaffinity_variance>  (77) 
0.1000744924

$$$$
78
     RDKit          3D

 43 45  0  0  0  0  0  0  0  0999 V2000
   23.5219   72.1113   -3.3085 P   0  0  2  0  0  0  0  0  0  0  0  0
   24.2295   72.9732   -4.4805 O   0  0  0  0  0  0  0  0  0  0  0  0
   24.2424   70.8524   -2.9244 O   0  0  0  0  0  0  0  0  0  0  0  0
   22.0024   71.9197   -3.8305 O   0  0  0  0  0  0  0  0  0  0  0  0
   21.5512   72.7226   -4.9074 C   0  0  0  0  0  0  0  0  0  0  0  0
   20.7410   70.6627   -5.8423 O   0  0  0  0  0  0  0  0  0  0  0  0
   21.1293   71.9449   -8.5248 O   0  0  0  0  0  0  0  0  0  0  0  0
   18.4421   72.1917   -8.1314 O   0  0  0  0  0  0  0  0  0  0  0  0
   20.7004   72.5325   -7.2976 C   0  0  1  0  0  0  0  0  0  0  0  0
   19.2738   72.1272   -6.9909 C   0  0  2  0  0  0  0  0  0  0  0  0
   21.4709   71.8669   -6.1641 C   0  0  1  0  0  0  0  0  0  0  0  0
   19.4528   70.7086   -6.4772 C   0  0  2  0  0  0  0  0  0  0  0  0
   20.6512   72.3543   -9.2636 H   0  0  0  0  0  0  0  0  0  0  0  0
   18.3594   73.1141   -8.4197 H   0  0  0  0  0  0  0  0  0  0  0  0
   16.8740   69.7731   -7.1498 O   0  0  0  0  0  0  0  0  0  0  0  0
   15.6787   69.3329   -2.7205 O   0  0  0  0  0  0  0  0  0  0  0  0
   18.4477   70.3419   -5.5198 N   0  0  0  0  0  0  0  0  0  0  0  0
   16.2810   69.5545   -4.9439 N   0  0  0  0  0  0  0  0  0  0  0  0
   17.1843   69.8848   -5.9621 C   0  0  0  0  0  0  0  0  0  0  0  0
   18.7192   70.4368   -4.1593 C   0  0  0  0  0  0  0  0  0  0  0  0
   17.8463   70.1191   -3.2009 C   0  0  0  0  0  0  0  0  0  0  0  0
   16.5034   69.6330   -3.5782 C   0  0  0  0  0  0  0  0  0  0  0  0
   15.3943   69.2340   -5.2282 H   0  0  0  0  0  0  0  0  0  0  0  0
   23.3622   73.1867   -2.1123 O   0  0  0  0  0  0  0  0  0  0  0  0
   22.2027   73.3748   -1.0017 P   0  0  2  0  0  0  0  0  0  0  0  0
   22.0413   71.8905   -0.3786 O   0  0  0  0  0  0  0  0  0  0  0  0
   20.9293   73.9642   -1.5354 O   0  0  0  0  0  0  0  0  0  0  0  0
   22.8979   74.2365    0.1727 O   0  0  0  0  0  0  0  0  0  0  0  0
   21.9237   74.1308    2.3305 O   0  0  0  0  0  0  0  0  0  0  0  0
   24.1743   77.5622    2.7901 O   0  0  0  0  0  0  0  0  0  0  0  0
   24.9936   75.1427    4.1026 O   0  0  0  0  0  0  0  0  0  0  0  0
   22.8341   77.0401    0.2780 O   0  0  0  0  0  0  0  0  0  0  0  0
   23.8827   76.2515    2.2978 C   0  0  1  0  0  0  0  0  0  0  0  0
   23.7157   75.3152    3.4963 C   0  0  1  0  0  0  0  0  0  0  0  0
   22.5983   76.3025    1.4725 C   0  0  2  0  0  0  0  0  0  0  0  0
   23.1418   73.9591    3.0642 C   0  0  1  0  0  0  0  0  0  0  0  0
   22.0860   74.9006    1.1376 C   0  0  1  0  0  0  0  0  0  0  0  0
   24.9890   77.5368    3.3146 H   0  0  0  0  0  0  0  0  0  0  0  0
   25.3451   76.0064    4.3704 H   0  0  0  0  0  0  0  0  0  0  0  0
   23.1577   77.9257    0.5034 H   0  0  0  0  0  0  0  0  0  0  0  0
   21.8366   72.1267    3.8689 O   0  0  0  0  0  0  0  0  0  0  0  0
   22.8197   73.0669    4.2610 C   0  0  0  0  0  0  0  0  0  0  0  0
   21.6219   71.5517    4.6206 H   0  0  0  0  0  0  0  0  0  0  0  0
 25 28  1  0
 25 24  1  0
 25 26  1  1
 25 27  2  0
  1  4  1  0
  1 24  1  0
  1  2  1  6
  1  3  2  0
  6 11  1  0
  6 12  1  0
 29 36  1  0
 29 37  1  0
  9  7  1  6
  7 13  1  0
 10  8  1  6
  8 14  1  0
 37 28  1  6
  4  5  1  0
 33 30  1  1
 30 38  1  0
 34 31  1  6
 31 39  1  0
 35 32  1  6
 32 40  1  0
 41 42  1  0
 41 43  1  0
 15 19  2  0
 16 22  2  0
 12 17  1  1
 17 19  1  0
 17 20  1  0
 18 19  1  0
 18 22  1  0
 18 23  1  0
  9 10  1  0
  9 11  1  0
 10 12  1  0
 11  5  1  1
 33 34  1  0
 33 35  1  0
 34 36  1  0
 35 37  1  0
 36 42  1  1
 20 21  2  0
 21 22  1  0
M  CHG  2   2  -1  26  -1
M  END
>  <COMPND>  (78) 
    8629 

>  <AUTHOR>  (78) 
    GENERATED BY OPEN BABEL 3.1.1

>  <MASTER>  (78) 
        0    0    0    0    0    0    0    0   58    0   58    0

>  <minimizedAffinity>  (78) 
-6.54868

>  <CNNscore>  (78) 
0.6055734754

>  <CNNaffinity>  (78) 
4.1980290413

>  <CNN_VS>  (78) 
2.5422151089

>  <CNNaffinity_variance>  (78) 
0.0978054553

$$$$
79
     RDKit          3D

 43 45  0  0  0  0  0  0  0  0999 V2000
   15.1454   70.8890   -1.8027 P   0  0  2  0  0  0  0  0  0  0  0  0
   15.9754   72.0161   -0.9915 O   0  0  0  0  0  0  0  0  0  0  0  0
   13.7948   71.3247   -2.2900 O   0  0  0  0  0  0  0  0  0  0  0  0
   15.1558   69.6103   -0.8114 O   0  0  0  0  0  0  0  0  0  0  0  0
   14.0015   68.7906   -0.7531 C   0  0  0  0  0  0  0  0  0  0  0  0
   11.9866   68.7797    0.5561 O   0  0  0  0  0  0  0  0  0  0  0  0
   13.7272   68.0519    2.8866 O   0  0  0  0  0  0  0  0  0  0  0  0
   12.6387   65.6519    2.1853 O   0  0  0  0  0  0  0  0  0  0  0  0
   13.8389   67.6589    1.5197 C   0  0  1  0  0  0  0  0  0  0  0  0
   12.7772   66.6341    1.1789 C   0  0  2  0  0  0  0  0  0  0  0  0
   13.4262   68.8439    0.6555 C   0  0  1  0  0  0  0  0  0  0  0  0
   11.5379   67.5007    1.0333 C   0  0  2  0  0  0  0  0  0  0  0  0
   13.9860   67.3113    3.4580 H   0  0  0  0  0  0  0  0  0  0  0  0
   13.4525   65.1269    2.2391 H   0  0  0  0  0  0  0  0  0  0  0  0
    8.7668   68.0471    1.0551 O   0  0  0  0  0  0  0  0  0  0  0  0
    8.0218   65.3582   -2.6131 O   0  0  0  0  0  0  0  0  0  0  0  0
   10.5965   66.9572    0.0953 N   0  0  0  0  0  0  0  0  0  0  0  0
    8.3981   66.7079   -0.7715 N   0  0  0  0  0  0  0  0  0  0  0  0
    9.2264   67.2939    0.1942 C   0  0  0  0  0  0  0  0  0  0  0  0
   11.0347   66.1007   -0.9088 C   0  0  0  0  0  0  0  0  0  0  0  0
   10.2318   65.5492   -1.8212 C   0  0  0  0  0  0  0  0  0  0  0  0
    8.7859   65.8496   -1.7882 C   0  0  0  0  0  0  0  0  0  0  0  0
    7.4395   66.9278   -0.7220 H   0  0  0  0  0  0  0  0  0  0  0  0
   16.1731   70.4514   -2.9711 O   0  0  0  0  0  0  0  0  0  0  0  0
   17.6669   69.8383   -2.8961 P   0  0  2  0  0  0  0  0  0  0  0  0
   17.4083   68.2583   -2.6630 O   0  0  0  0  0  0  0  0  0  0  0  0
   18.5448   70.4812   -1.8617 O   0  0  0  0  0  0  0  0  0  0  0  0
   18.2271   69.9412   -4.4062 O   0  0  0  0  0  0  0  0  0  0  0  0
   19.3043   71.7190   -5.5447 O   0  0  0  0  0  0  0  0  0  0  0  0
   17.0061   70.2473   -8.6436 O   0  0  0  0  0  0  0  0  0  0  0  0
   19.8446   69.8103   -8.6517 O   0  0  0  0  0  0  0  0  0  0  0  0
   15.9242   70.3376   -5.9602 O   0  0  0  0  0  0  0  0  0  0  0  0
   17.8022   70.1642   -7.4584 C   0  0  1  0  0  0  0  0  0  0  0  0
   19.1913   70.7226   -7.7736 C   0  0  1  0  0  0  0  0  0  0  0  0
   17.1346   70.9771   -6.3507 C   0  0  2  0  0  0  0  0  0  0  0  0
   20.0149   70.9143   -6.4930 C   0  0  1  0  0  0  0  0  0  0  0  0
   18.0569   71.1496   -5.1425 C   0  0  1  0  0  0  0  0  0  0  0  0
   17.4242   69.7329   -9.3508 H   0  0  0  0  0  0  0  0  0  0  0  0
   19.3140   69.6977   -9.4561 H   0  0  0  0  0  0  0  0  0  0  0  0
   15.3489   70.2345   -6.7337 H   0  0  0  0  0  0  0  0  0  0  0  0
   21.2802   72.2124   -8.0495 O   0  0  0  0  0  0  0  0  0  0  0  0
   21.3432   71.6163   -6.7670 C   0  0  0  0  0  0  0  0  0  0  0  0
   22.1188   72.6632   -8.2374 H   0  0  0  0  0  0  0  0  0  0  0  0
 25 28  1  0
 25 24  1  0
 25 26  1  1
 25 27  2  0
  1  4  1  0
  1 24  1  0
  1  2  1  1
  1  3  2  0
  6 11  1  0
  6 12  1  0
 29 36  1  0
 29 37  1  0
  9  7  1  1
  7 13  1  0
 10  8  1  1
  8 14  1  0
 37 28  1  6
  4  5  1  0
 33 30  1  6
 30 38  1  0
 34 31  1  6
 31 39  1  0
 35 32  1  1
 32 40  1  0
 41 42  1  0
 41 43  1  0
 15 19  2  0
 16 22  2  0
 12 17  1  6
 17 19  1  0
 17 20  1  0
 18 19  1  0
 18 22  1  0
 18 23  1  0
  9 10  1  0
  9 11  1  0
 10 12  1  0
 11  5  1  6
 33 34  1  0
 33 35  1  0
 34 36  1  0
 35 37  1  0
 36 42  1  6
 20 21  2  0
 21 22  1  0
M  CHG  2   2  -1  26  -1
M  END
>  <COMPND>  (79) 
    8629 

>  <AUTHOR>  (79) 
    GENERATED BY OPEN BABEL 3.1.1

>  <MASTER>  (79) 
        0    0    0    0    0    0    0    0   58    0   58    0

>  <minimizedAffinity>  (79) 
-6.94735

>  <CNNscore>  (79) 
0.5852402449

>  <CNNaffinity>  (79) 
4.3450641632

>  <CNN_VS>  (79) 
2.5429065228

>  <CNNaffinity_variance>  (79) 
0.0720531270

$$$$
80
     RDKit          3D

 43 45  0  0  0  0  0  0  0  0999 V2000
   23.6232   72.0538   -3.2157 P   0  0  2  0  0  0  0  0  0  0  0  0
   24.2154   73.0735   -4.3234 O   0  0  0  0  0  0  0  0  0  0  0  0
   24.4019   70.7828   -3.0438 O   0  0  0  0  0  0  0  0  0  0  0  0
   22.0724   71.8756   -3.6415 O   0  0  0  0  0  0  0  0  0  0  0  0
   21.5599   72.6873   -4.6837 C   0  0  0  0  0  0  0  0  0  0  0  0
   20.7543   70.6674   -5.7059 O   0  0  0  0  0  0  0  0  0  0  0  0
   21.2413   72.0252   -8.3346 O   0  0  0  0  0  0  0  0  0  0  0  0
   18.5463   72.2949   -8.0165 O   0  0  0  0  0  0  0  0  0  0  0  0
   20.7815   72.5809   -7.1036 C   0  0  1  0  0  0  0  0  0  0  0  0
   19.3413   72.1850   -6.8534 C   0  0  2  0  0  0  0  0  0  0  0  0
   21.5083   71.8712   -5.9680 C   0  0  1  0  0  0  0  0  0  0  0  0
   19.4871   70.7494   -6.3784 C   0  0  2  0  0  0  0  0  0  0  0  0
   20.7913   72.4630   -9.0748 H   0  0  0  0  0  0  0  0  0  0  0  0
   18.4837   73.2266   -8.2788 H   0  0  0  0  0  0  0  0  0  0  0  0
   16.9634   69.7488   -7.1581 O   0  0  0  0  0  0  0  0  0  0  0  0
   15.5793   69.3159   -2.7833 O   0  0  0  0  0  0  0  0  0  0  0  0
   18.4483   70.3669   -5.4639 N   0  0  0  0  0  0  0  0  0  0  0  0
   16.2764   69.5339   -4.9792 N   0  0  0  0  0  0  0  0  0  0  0  0
   17.2171   69.8771   -5.9586 C   0  0  0  0  0  0  0  0  0  0  0  0
   18.6558   70.4788   -4.0934 C   0  0  0  0  0  0  0  0  0  0  0  0
   17.7480   70.1484   -3.1726 C   0  0  0  0  0  0  0  0  0  0  0  0
   16.4350   69.6283   -3.6056 C   0  0  0  0  0  0  0  0  0  0  0  0
   15.4110   69.1907   -5.3003 H   0  0  0  0  0  0  0  0  0  0  0  0
   23.5323   72.9718   -1.8883 O   0  0  0  0  0  0  0  0  0  0  0  0
   22.6284   72.8254   -0.5562 P   0  0  2  0  0  0  0  0  0  0  0  0
   22.6375   71.2321   -0.2749 O   0  0  0  0  0  0  0  0  0  0  0  0
   21.2574   73.4256   -0.6738 O   0  0  0  0  0  0  0  0  0  0  0  0
   23.5343   73.4527    0.6232 O   0  0  0  0  0  0  0  0  0  0  0  0
   24.5903   72.2148    2.3463 O   0  0  0  0  0  0  0  0  0  0  0  0
   24.0082   75.7759    4.3538 O   0  0  0  0  0  0  0  0  0  0  0  0
   26.6554   75.0313    3.5256 O   0  0  0  0  0  0  0  0  0  0  0  0
   21.9803   74.7951    2.5358 O   0  0  0  0  0  0  0  0  0  0  0  0
   24.2846   74.9496    3.2197 C   0  0  1  0  0  0  0  0  0  0  0  0
   25.5466   74.1365    3.5149 C   0  0  1  0  0  0  0  0  0  0  0  0
   23.0942   74.0245    2.9741 C   0  0  2  0  0  0  0  0  0  0  0  0
   25.7564   73.0382    2.4639 C   0  0  1  0  0  0  0  0  0  0  0  0
   23.4246   72.9390    1.9481 C   0  0  1  0  0  0  0  0  0  0  0  0
   24.7600   76.3661    4.5149 H   0  0  0  0  0  0  0  0  0  0  0  0
   26.5101   75.7202    4.1932 H   0  0  0  0  0  0  0  0  0  0  0  0
   21.7810   75.4784    3.1939 H   0  0  0  0  0  0  0  0  0  0  0  0
   26.7395   70.8828    2.1529 O   0  0  0  0  0  0  0  0  0  0  0  0
   26.9190   72.1161    2.8245 C   0  0  0  0  0  0  0  0  0  0  0  0
   27.4724   70.2859    2.3728 H   0  0  0  0  0  0  0  0  0  0  0  0
 25 28  1  0
 25 24  1  0
 25 26  1  1
 25 27  2  0
  1  4  1  0
  1 24  1  0
  1  2  1  6
  1  3  2  0
  6 11  1  0
  6 12  1  0
 29 36  1  0
 29 37  1  0
  9  7  1  6
  7 13  1  0
 10  8  1  6
  8 14  1  0
 37 28  1  6
  4  5  1  0
 33 30  1  1
 30 38  1  0
 34 31  1  6
 31 39  1  0
 35 32  1  6
 32 40  1  0
 41 42  1  0
 41 43  1  0
 15 19  2  0
 16 22  2  0
 12 17  1  1
 17 19  1  0
 17 20  1  0
 18 19  1  0
 18 22  1  0
 18 23  1  0
  9 10  1  0
  9 11  1  0
 10 12  1  0
 11  5  1  1
 33 34  1  0
 33 35  1  0
 34 36  1  0
 35 37  1  0
 36 42  1  1
 20 21  2  0
 21 22  1  0
M  CHG  2   2  -1  26  -1
M  END
>  <COMPND>  (80) 
    8629 

>  <AUTHOR>  (80) 
    GENERATED BY OPEN BABEL 3.1.1

>  <MASTER>  (80) 
        0    0    0    0    0    0    0    0   58    0   58    0

>  <minimizedAffinity>  (80) 
-7.16170

>  <CNNscore>  (80) 
0.5729577541

>  <CNNaffinity>  (80) 
4.2327361107

>  <CNN_VS>  (80) 
2.4251790047

>  <CNNaffinity_variance>  (80) 
0.0647197217

$$$$
81
     RDKit          3D

 43 45  0  0  0  0  0  0  0  0999 V2000
   20.9830   71.6559   -1.6147 P   0  0  2  0  0  0  0  0  0  0  0  0
   21.8586   71.0018   -0.4219 O   0  0  0  0  0  0  0  0  0  0  0  0
   20.4532   73.0308   -1.3314 O   0  0  0  0  0  0  0  0  0  0  0  0
   19.8704   70.5281   -1.9434 O   0  0  0  0  0  0  0  0  0  0  0  0
   19.4357   70.3775   -3.2836 C   0  0  0  0  0  0  0  0  0  0  0  0
   17.7379   71.4524   -4.6012 O   0  0  0  0  0  0  0  0  0  0  0  0
   15.7552   69.9047   -2.9689 O   0  0  0  0  0  0  0  0  0  0  0  0
   15.8729   68.4656   -5.2822 O   0  0  0  0  0  0  0  0  0  0  0  0
   17.0475   69.5123   -3.4285 C   0  0  1  0  0  0  0  0  0  0  0  0
   17.0105   69.2186   -4.9138 C   0  0  2  0  0  0  0  0  0  0  0  0
   17.9576   70.7327   -3.3682 C   0  0  1  0  0  0  0  0  0  0  0  0
   17.0056   70.6154   -5.5112 C   0  0  2  0  0  0  0  0  0  0  0  0
   15.1563   69.1415   -2.9980 H   0  0  0  0  0  0  0  0  0  0  0  0
   15.9227   67.5855   -4.8776 H   0  0  0  0  0  0  0  0  0  0  0  0
   15.6620   70.2161   -7.9634 O   0  0  0  0  0  0  0  0  0  0  0  0
   19.5327   70.8172  -10.3920 O   0  0  0  0  0  0  0  0  0  0  0  0
   17.6377   70.6624   -6.7994 N   0  0  0  0  0  0  0  0  0  0  0  0
   17.5904   70.5159   -9.1706 N   0  0  0  0  0  0  0  0  0  0  0  0
   16.8729   70.4471   -7.9696 C   0  0  0  0  0  0  0  0  0  0  0  0
   19.0010   70.9200   -6.8934 C   0  0  0  0  0  0  0  0  0  0  0  0
   19.6705   70.9810   -8.0464 C   0  0  0  0  0  0  0  0  0  0  0  0
   18.9455   70.7676   -9.3156 C   0  0  0  0  0  0  0  0  0  0  0  0
   17.0784   70.3687   -9.9989 H   0  0  0  0  0  0  0  0  0  0  0  0
   21.9772   71.5669   -2.8862 O   0  0  0  0  0  0  0  0  0  0  0  0
   23.4004   72.2779   -3.1728 P   0  0  2  0  0  0  0  0  0  0  0  0
   24.4423   71.0402   -3.1621 O   0  0  0  0  0  0  0  0  0  0  0  0
   23.7407   73.3821   -2.2143 O   0  0  0  0  0  0  0  0  0  0  0  0
   23.3251   72.7340   -4.7192 O   0  0  0  0  0  0  0  0  0  0  0  0
   21.1866   73.7527   -4.6432 O   0  0  0  0  0  0  0  0  0  0  0  0
   22.4682   75.1805   -8.2997 O   0  0  0  0  0  0  0  0  0  0  0  0
   22.3263   76.9628   -6.0523 O   0  0  0  0  0  0  0  0  0  0  0  0
   23.1041   72.4708   -7.5043 O   0  0  0  0  0  0  0  0  0  0  0  0
   22.6157   74.7609   -6.9405 C   0  0  1  0  0  0  0  0  0  0  0  0
   21.7444   75.6622   -6.0632 C   0  0  1  0  0  0  0  0  0  0  0  0
   22.1758   73.3033   -6.8174 C   0  0  2  0  0  0  0  0  0  0  0  0
   21.6403   75.1114   -4.6346 C   0  0  1  0  0  0  0  0  0  0  0  0
   22.0569   72.8707   -5.3550 C   0  0  1  0  0  0  0  0  0  0  0  0
   22.7463   76.1051   -8.3848 H   0  0  0  0  0  0  0  0  0  0  0  0
   22.3868   77.2989   -6.9603 H   0  0  0  0  0  0  0  0  0  0  0  0
   23.1701   72.7546   -8.4289 H   0  0  0  0  0  0  0  0  0  0  0  0
   20.9801   75.7228   -2.4212 O   0  0  0  0  0  0  0  0  0  0  0  0
   20.6508   75.9066   -3.7858 C   0  0  0  0  0  0  0  0  0  0  0  0
   20.3588   76.2235   -1.8690 H   0  0  0  0  0  0  0  0  0  0  0  0
 25 28  1  0
 25 24  1  0
 25 26  1  6
 25 27  2  0
  1  4  1  0
  1 24  1  0
  1  2  1  1
  1  3  2  0
  6 11  1  0
  6 12  1  0
 29 36  1  0
 29 37  1  0
  9  7  1  6
  7 13  1  0
 10  8  1  1
  8 14  1  0
 37 28  1  1
  4  5  1  0
 33 30  1  6
 30 38  1  0
 34 31  1  1
 31 39  1  0
 35 32  1  6
 32 40  1  0
 41 42  1  0
 41 43  1  0
 15 19  2  0
 16 22  2  0
 12 17  1  6
 17 19  1  0
 17 20  1  0
 18 19  1  0
 18 22  1  0
 18 23  1  0
  9 10  1  0
  9 11  1  0
 10 12  1  0
 11  5  1  6
 33 34  1  0
 33 35  1  0
 34 36  1  0
 35 37  1  0
 36 42  1  1
 20 21  2  0
 21 22  1  0
M  CHG  2   2  -1  26  -1
M  END
>  <COMPND>  (81) 
    8629 

>  <AUTHOR>  (81) 
    GENERATED BY OPEN BABEL 3.1.1

>  <MASTER>  (81) 
        0    0    0    0    0    0    0    0   58    0   58    0

>  <minimizedAffinity>  (81) 
-7.67636

>  <CNNscore>  (81) 
0.9443460107

>  <CNNaffinity>  (81) 
4.7123270035

>  <CNN_VS>  (81) 
4.4500670433

>  <CNNaffinity_variance>  (81) 
0.5310865045

$$$$
82
     RDKit          3D

 43 45  0  0  0  0  0  0  0  0999 V2000
   23.0146   71.7024   -2.6485 P   0  0  2  0  0  0  0  0  0  0  0  0
   23.2858   73.2354   -2.2083 O   0  0  0  0  0  0  0  0  0  0  0  0
   24.2181   70.9684   -3.1626 O   0  0  0  0  0  0  0  0  0  0  0  0
   21.7655   71.8073   -3.6716 O   0  0  0  0  0  0  0  0  0  0  0  0
   20.9009   70.6919   -3.7995 C   0  0  0  0  0  0  0  0  0  0  0  0
   18.9700   71.7519   -4.7596 O   0  0  0  0  0  0  0  0  0  0  0  0
   17.4099   70.5210   -2.5142 O   0  0  0  0  0  0  0  0  0  0  0  0
   16.8603   68.8558   -4.6026 O   0  0  0  0  0  0  0  0  0  0  0  0
   18.5203   69.9923   -3.2373 C   0  0  1  0  0  0  0  0  0  0  0  0
   18.0870   69.5569   -4.6216 C   0  0  2  0  0  0  0  0  0  0  0  0
   19.4688   71.1434   -3.5482 C   0  0  1  0  0  0  0  0  0  0  0  0
   17.9903   70.8847   -5.3536 C   0  0  2  0  0  0  0  0  0  0  0  0
   16.7903   69.8042   -2.3039 H   0  0  0  0  0  0  0  0  0  0  0  0
   16.9735   68.0187   -4.1260 H   0  0  0  0  0  0  0  0  0  0  0  0
   16.0955   70.0896   -7.2916 O   0  0  0  0  0  0  0  0  0  0  0  0
   19.1720   70.4328  -10.7061 O   0  0  0  0  0  0  0  0  0  0  0  0
   18.2689   70.7582   -6.7564 N   0  0  0  0  0  0  0  0  0  0  0  0
   17.6289   70.2614   -8.9902 N   0  0  0  0  0  0  0  0  0  0  0  0
   17.2471   70.3509   -7.6455 C   0  0  0  0  0  0  0  0  0  0  0  0
   19.5435   71.0370   -7.2377 C   0  0  0  0  0  0  0  0  0  0  0  0
   19.8917   70.9455   -8.5228 C   0  0  0  0  0  0  0  0  0  0  0  0
   18.8829   70.5266   -9.5172 C   0  0  0  0  0  0  0  0  0  0  0  0
   16.9336   69.9791   -9.6279 H   0  0  0  0  0  0  0  0  0  0  0  0
   22.3473   71.0569   -1.3253 O   0  0  0  0  0  0  0  0  0  0  0  0
   21.4577   71.7236   -0.1518 P   0  0  2  0  0  0  0  0  0  0  0  0
   20.8002   70.4439    0.5880 O   0  0  0  0  0  0  0  0  0  0  0  0
   20.4625   72.7384   -0.6352 O   0  0  0  0  0  0  0  0  0  0  0  0
   22.5365   72.2951    0.9040 O   0  0  0  0  0  0  0  0  0  0  0  0
   24.2660   71.4370    2.2784 O   0  0  0  0  0  0  0  0  0  0  0  0
   22.2666   73.7177    5.0805 O   0  0  0  0  0  0  0  0  0  0  0  0
   24.8144   74.5996    4.0911 O   0  0  0  0  0  0  0  0  0  0  0  0
   20.7729   72.2441    3.0862 O   0  0  0  0  0  0  0  0  0  0  0  0
   22.7704   73.3969    3.7810 C   0  0  1  0  0  0  0  0  0  0  0  0
   24.2941   73.2917    3.8699 C   0  0  1  0  0  0  0  0  0  0  0  0
   22.1656   72.0705    3.3246 C   0  0  2  0  0  0  0  0  0  0  0  0
   24.8839   72.6921    2.5862 C   0  0  1  0  0  0  0  0  0  0  0  0
   22.8562   71.5375    2.0680 C   0  0  1  0  0  0  0  0  0  0  0  0
   22.6463   74.5591    5.3759 H   0  0  0  0  0  0  0  0  0  0  0  0
   24.4337   74.9671    4.9043 H   0  0  0  0  0  0  0  0  0  0  0  0
   20.3472   72.5815    3.8892 H   0  0  0  0  0  0  0  0  0  0  0  0
   26.6764   71.1872    2.1055 O   0  0  0  0  0  0  0  0  0  0  0  0
   26.3833   72.4320    2.7129 C   0  0  0  0  0  0  0  0  0  0  0  0
   27.6274   71.0086    2.1782 H   0  0  0  0  0  0  0  0  0  0  0  0
 25 28  1  0
 25 24  1  0
 25 26  1  1
 25 27  2  0
  1  4  1  0
  1 24  1  0
  1  2  1  1
  1  3  2  0
  6 11  1  0
  6 12  1  0
 29 36  1  0
 29 37  1  0
  9  7  1  1
  7 13  1  0
 10  8  1  1
  8 14  1  0
 37 28  1  6
  4  5  1  0
 33 30  1  1
 30 38  1  0
 34 31  1  6
 31 39  1  0
 35 32  1  6
 32 40  1  0
 41 42  1  0
 41 43  1  0
 15 19  2  0
 16 22  2  0
 12 17  1  6
 17 19  1  0
 17 20  1  0
 18 19  1  0
 18 22  1  0
 18 23  1  0
  9 10  1  0
  9 11  1  0
 10 12  1  0
 11  5  1  6
 33 34  1  0
 33 35  1  0
 34 36  1  0
 35 37  1  0
 36 42  1  1
 20 21  2  0
 21 22  1  0
M  CHG  2   2  -1  26  -1
M  END
>  <COMPND>  (82) 
    8629 

>  <AUTHOR>  (82) 
    GENERATED BY OPEN BABEL 3.1.1

>  <MASTER>  (82) 
        0    0    0    0    0    0    0    0   58    0   58    0

>  <minimizedAffinity>  (82) 
-7.98357

>  <CNNscore>  (82) 
0.9411515594

>  <CNNaffinity>  (82) 
4.7944192886

>  <CNN_VS>  (82) 
4.5122752190

>  <CNNaffinity_variance>  (82) 
0.0398651920

$$$$
83
     RDKit          3D

 43 45  0  0  0  0  0  0  0  0999 V2000
   22.4439   71.7204   -2.9641 P   0  0  2  0  0  0  0  0  0  0  0  0
   22.1558   73.2912   -2.7056 O   0  0  0  0  0  0  0  0  0  0  0  0
   23.8592   71.3885   -3.3361 O   0  0  0  0  0  0  0  0  0  0  0  0
   21.3152   71.2904   -4.0407 O   0  0  0  0  0  0  0  0  0  0  0  0
   20.4024   70.2649   -3.6902 C   0  0  0  0  0  0  0  0  0  0  0  0
   18.6999   71.5732   -4.7690 O   0  0  0  0  0  0  0  0  0  0  0  0
   16.8072   70.4444   -2.7357 O   0  0  0  0  0  0  0  0  0  0  0  0
   16.2795   68.9324   -4.9430 O   0  0  0  0  0  0  0  0  0  0  0  0
   17.9166   69.8203   -3.3800 C   0  0  1  0  0  0  0  0  0  0  0  0
   17.5720   69.4895   -4.8171 C   0  0  2  0  0  0  0  0  0  0  0  0
   19.0111   70.8668   -3.5481 C   0  0  1  0  0  0  0  0  0  0  0  0
   17.6920   70.8462   -5.4903 C   0  0  2  0  0  0  0  0  0  0  0  0
   16.0954   69.7954   -2.6171 H   0  0  0  0  0  0  0  0  0  0  0  0
   16.2541   68.0705   -4.4989 H   0  0  0  0  0  0  0  0  0  0  0  0
   15.9569   70.1240   -7.5988 O   0  0  0  0  0  0  0  0  0  0  0  0
   19.3196   70.4759  -10.7308 O   0  0  0  0  0  0  0  0  0  0  0  0
   18.0875   70.7417   -6.8665 N   0  0  0  0  0  0  0  0  0  0  0  0
   17.6327   70.3000   -9.1566 N   0  0  0  0  0  0  0  0  0  0  0  0
   17.1388   70.3707   -7.8477 C   0  0  0  0  0  0  0  0  0  0  0  0
   19.4031   71.0060   -7.2315 C   0  0  0  0  0  0  0  0  0  0  0  0
   19.8584   70.9329   -8.4839 C   0  0  0  0  0  0  0  0  0  0  0  0
   18.9315   70.5520   -9.5691 C   0  0  0  0  0  0  0  0  0  0  0  0
   16.9898   70.0431   -9.8569 H   0  0  0  0  0  0  0  0  0  0  0  0
   21.9269   71.0265   -1.5988 O   0  0  0  0  0  0  0  0  0  0  0  0
   21.2690   71.6642   -0.2671 P   0  0  2  0  0  0  0  0  0  0  0  0
   21.0165   70.3743    0.6763 O   0  0  0  0  0  0  0  0  0  0  0  0
   20.0441   72.4938   -0.5225 O   0  0  0  0  0  0  0  0  0  0  0  0
   22.4790   72.4598    0.4456 O   0  0  0  0  0  0  0  0  0  0  0  0
   21.7839   74.0142    2.0940 O   0  0  0  0  0  0  0  0  0  0  0  0
   25.7072   75.2257    1.6574 O   0  0  0  0  0  0  0  0  0  0  0  0
   24.9125   73.8230    4.0341 O   0  0  0  0  0  0  0  0  0  0  0  0
   24.1869   74.3923   -0.6607 O   0  0  0  0  0  0  0  0  0  0  0  0
   24.6319   74.2840    1.7040 C   0  0  1  0  0  0  0  0  0  0  0  0
   23.9890   74.3584    3.0903 C   0  0  1  0  0  0  0  0  0  0  0  0
   23.6143   74.6343    0.6199 C   0  0  2  0  0  0  0  0  0  0  0  0
   22.6691   73.5765    3.1315 C   0  0  1  0  0  0  0  0  0  0  0  0
   22.3195   73.8357    0.7813 C   0  0  1  0  0  0  0  0  0  0  0  0
   26.3571   75.0086    2.3429 H   0  0  0  0  0  0  0  0  0  0  0  0
   25.7417   74.3252    3.9976 H   0  0  0  0  0  0  0  0  0  0  0  0
   25.0056   74.9037   -0.7506 H   0  0  0  0  0  0  0  0  0  0  0  0
   22.2611   72.6879    5.3116 O   0  0  0  0  0  0  0  0  0  0  0  0
   21.9328   73.7668    4.4558 C   0  0  0  0  0  0  0  0  0  0  0  0
   21.7998   72.7958    6.1585 H   0  0  0  0  0  0  0  0  0  0  0  0
 25 28  1  0
 25 24  1  0
 25 26  1  1
 25 27  2  0
  1  4  1  0
  1 24  1  0
  1  2  1  1
  1  3  2  0
  6 11  1  0
  6 12  1  0
 29 36  1  0
 29 37  1  0
  9  7  1  6
  7 13  1  0
 10  8  1  1
  8 14  1  0
 37 28  1  1
  4  5  1  0
 33 30  1  1
 30 38  1  0
 34 31  1  1
 31 39  1  0
 35 32  1  6
 32 40  1  0
 41 42  1  0
 41 43  1  0
 15 19  2  0
 16 22  2  0
 12 17  1  6
 17 19  1  0
 17 20  1  0
 18 19  1  0
 18 22  1  0
 18 23  1  0
  9 10  1  0
  9 11  1  0
 10 12  1  0
 11  5  1  6
 33 34  1  0
 33 35  1  0
 34 36  1  0
 35 37  1  0
 36 42  1  1
 20 21  2  0
 21 22  1  0
M  CHG  2   2  -1  26  -1
M  END
>  <COMPND>  (83) 
    8629 

>  <AUTHOR>  (83) 
    GENERATED BY OPEN BABEL 3.1.1

>  <MASTER>  (83) 
        0    0    0    0    0    0    0    0   58    0   58    0

>  <minimizedAffinity>  (83) 
-7.57263

>  <CNNscore>  (83) 
0.9325717688

>  <CNNaffinity>  (83) 
4.7673416138

>  <CNN_VS>  (83) 
4.4458880424

>  <CNNaffinity_variance>  (83) 
0.0467984378

$$$$
84
     RDKit          3D

 43 45  0  0  0  0  0  0  0  0999 V2000
   20.6860   71.2618   -1.0018 P   0  0  2  0  0  0  0  0  0  0  0  0
   20.8348   70.4957    0.4153 O   0  0  0  0  0  0  0  0  0  0  0  0
   20.1448   72.6585   -0.9135 O   0  0  0  0  0  0  0  0  0  0  0  0
   19.8304   70.2331   -1.9116 O   0  0  0  0  0  0  0  0  0  0  0  0
   19.5179   70.6064   -3.2423 C   0  0  0  0  0  0  0  0  0  0  0  0
   17.8011   71.6236   -4.5808 O   0  0  0  0  0  0  0  0  0  0  0  0
   15.8440   70.1138   -2.8834 O   0  0  0  0  0  0  0  0  0  0  0  0
   15.9564   68.6009   -5.1494 O   0  0  0  0  0  0  0  0  0  0  0  0
   17.1361   69.7172   -3.3401 C   0  0  1  0  0  0  0  0  0  0  0  0
   17.0903   69.3749   -4.8147 C   0  0  2  0  0  0  0  0  0  0  0  0
   18.0362   70.9465   -3.3268 C   0  0  1  0  0  0  0  0  0  0  0  0
   17.0690   70.7514   -5.4572 C   0  0  2  0  0  0  0  0  0  0  0  0
   15.2514   69.3452   -2.8829 H   0  0  0  0  0  0  0  0  0  0  0  0
   16.0167   67.7349   -4.7168 H   0  0  0  0  0  0  0  0  0  0  0  0
   15.7243   70.1963   -7.8783 O   0  0  0  0  0  0  0  0  0  0  0  0
   19.5565   70.8179  -10.3620 O   0  0  0  0  0  0  0  0  0  0  0  0
   17.6909   70.7615   -6.7513 N   0  0  0  0  0  0  0  0  0  0  0  0
   17.6335   70.5064   -9.1131 N   0  0  0  0  0  0  0  0  0  0  0  0
   16.9265   70.4677   -7.9045 C   0  0  0  0  0  0  0  0  0  0  0  0
   19.0440   71.0606   -6.8675 C   0  0  0  0  0  0  0  0  0  0  0  0
   19.7036   71.0921   -8.0273 C   0  0  0  0  0  0  0  0  0  0  0  0
   18.9782   70.7971   -9.2799 C   0  0  0  0  0  0  0  0  0  0  0  0
   17.1216   70.3047   -9.9298 H   0  0  0  0  0  0  0  0  0  0  0  0
   22.1712   71.1543   -1.6308 O   0  0  0  0  0  0  0  0  0  0  0  0
   23.1020   72.2627   -2.3504 P   0  0  2  0  0  0  0  0  0  0  0  0
   24.1115   71.3730   -3.2486 O   0  0  0  0  0  0  0  0  0  0  0  0
   23.7844   73.2039   -1.4004 O   0  0  0  0  0  0  0  0  0  0  0  0
   22.1297   72.9806   -3.4201 O   0  0  0  0  0  0  0  0  0  0  0  0
   22.7988   74.3599   -5.2274 O   0  0  0  0  0  0  0  0  0  0  0  0
   19.1371   76.0817   -4.4038 O   0  0  0  0  0  0  0  0  0  0  0  0
   19.4536   74.4866   -6.7710 O   0  0  0  0  0  0  0  0  0  0  0  0
   20.8207   75.1621   -2.2359 O   0  0  0  0  0  0  0  0  0  0  0  0
   20.0756   75.0089   -4.5213 C   0  0  1  0  0  0  0  0  0  0  0  0
   20.5455   74.9399   -5.9756 C   0  0  1  0  0  0  0  0  0  0  0  0
   21.2550   75.2729   -3.5871 C   0  0  2  0  0  0  0  0  0  0  0  0
   21.7449   73.9944   -6.1260 C   0  0  1  0  0  0  0  0  0  0  0  0
   22.4126   74.3088   -3.8526 C   0  0  1  0  0  0  0  0  0  0  0  0
   18.3855   75.9199   -4.9941 H   0  0  0  0  0  0  0  0  0  0  0  0
   18.7027   75.0920   -6.6666 H   0  0  0  0  0  0  0  0  0  0  0  0
   20.0879   75.7776   -2.0805 H   0  0  0  0  0  0  0  0  0  0  0  0
   23.0830   72.8506   -7.7416 O   0  0  0  0  0  0  0  0  0  0  0  0
   22.3286   74.0310   -7.5367 C   0  0  0  0  0  0  0  0  0  0  0  0
   23.4604   72.8599   -8.6355 H   0  0  0  0  0  0  0  0  0  0  0  0
 25 28  1  0
 25 24  1  0
 25 26  1  6
 25 27  2  0
  1  4  1  0
  1 24  1  0
  1  2  1  1
  1  3  2  0
  6 11  1  0
  6 12  1  0
 29 36  1  0
 29 37  1  0
  9  7  1  6
  7 13  1  0
 10  8  1  1
  8 14  1  0
 37 28  1  6
  4  5  1  0
 33 30  1  6
 30 38  1  0
 34 31  1  6
 31 39  1  0
 35 32  1  1
 32 40  1  0
 41 42  1  0
 41 43  1  0
 15 19  2  0
 16 22  2  0
 12 17  1  6
 17 19  1  0
 17 20  1  0
 18 19  1  0
 18 22  1  0
 18 23  1  0
  9 10  1  0
  9 11  1  0
 10 12  1  0
 11  5  1  6
 33 34  1  0
 33 35  1  0
 34 36  1  0
 35 37  1  0
 36 42  1  6
 20 21  2  0
 21 22  1  0
M  CHG  2   2  -1  26  -1
M  END
>  <COMPND>  (84) 
    8629 

>  <AUTHOR>  (84) 
    GENERATED BY OPEN BABEL 3.1.1

>  <MASTER>  (84) 
        0    0    0    0    0    0    0    0   58    0   58    0

>  <minimizedAffinity>  (84) 
-7.53762

>  <CNNscore>  (84) 
0.8596405387

>  <CNNaffinity>  (84) 
4.5393614769

>  <CNN_VS>  (84) 
3.9022190571

>  <CNNaffinity_variance>  (84) 
0.3904331326

$$$$
85
     RDKit          3D

 43 45  0  0  0  0  0  0  0  0999 V2000
   22.0892   72.7822   -4.6377 P   0  0  2  0  0  0  0  0  0  0  0  0
   21.3656   74.0882   -5.2607 O   0  0  0  0  0  0  0  0  0  0  0  0
   23.4887   72.5414   -5.1223 O   0  0  0  0  0  0  0  0  0  0  0  0
   21.0350   71.5860   -4.9124 O   0  0  0  0  0  0  0  0  0  0  0  0
   20.4646   70.9188   -3.8000 C   0  0  0  0  0  0  0  0  0  0  0  0
   18.5787   71.8859   -4.9322 O   0  0  0  0  0  0  0  0  0  0  0  0
   16.8961   70.6830   -2.7614 O   0  0  0  0  0  0  0  0  0  0  0  0
   16.5464   68.9329   -4.8232 O   0  0  0  0  0  0  0  0  0  0  0  0
   18.0704   70.1651   -3.3843 C   0  0  1  0  0  0  0  0  0  0  0  0
   17.7508   69.6705   -4.7796 C   0  0  2  0  0  0  0  0  0  0  0  0
   19.0057   71.3339   -3.6676 C   0  0  1  0  0  0  0  0  0  0  0  0
   17.6696   70.9695   -5.5634 C   0  0  2  0  0  0  0  0  0  0  0  0
   16.2835   69.9548   -2.5705 H   0  0  0  0  0  0  0  0  0  0  0  0
   16.6486   68.1160   -4.3104 H   0  0  0  0  0  0  0  0  0  0  0  0
   15.9358   70.0777   -7.6071 O   0  0  0  0  0  0  0  0  0  0  0  0
   19.2477   70.3747  -10.7984 O   0  0  0  0  0  0  0  0  0  0  0  0
   18.0523   70.8050   -6.9374 N   0  0  0  0  0  0  0  0  0  0  0  0
   17.5862   70.2265   -9.1945 N   0  0  0  0  0  0  0  0  0  0  0  0
   17.1055   70.3503   -7.8847 C   0  0  0  0  0  0  0  0  0  0  0  0
   19.3537   71.0936   -7.3335 C   0  0  0  0  0  0  0  0  0  0  0  0
   19.7966   70.9690   -8.5864 C   0  0  0  0  0  0  0  0  0  0  0  0
   18.8707   70.4997   -9.6373 C   0  0  0  0  0  0  0  0  0  0  0  0
   16.9444   69.9110   -9.8715 H   0  0  0  0  0  0  0  0  0  0  0  0
   21.9607   73.0210   -3.0442 O   0  0  0  0  0  0  0  0  0  0  0  0
   22.6167   74.1426   -2.0825 P   0  0  2  0  0  0  0  0  0  0  0  0
   21.6615   75.4289   -2.3076 O   0  0  0  0  0  0  0  0  0  0  0  0
   24.0729   74.3998   -2.3414 O   0  0  0  0  0  0  0  0  0  0  0  0
   22.2816   73.6431   -0.5848 O   0  0  0  0  0  0  0  0  0  0  0  0
   23.1760   71.5334    0.0200 O   0  0  0  0  0  0  0  0  0  0  0  0
   20.4081   71.9706    3.0529 O   0  0  0  0  0  0  0  0  0  0  0  0
   23.2070   72.2394    3.6379 O   0  0  0  0  0  0  0  0  0  0  0  0
   19.7645   72.8538    0.3724 O   0  0  0  0  0  0  0  0  0  0  0  0
   21.3810   72.4138    2.1029 C   0  0  1  0  0  0  0  0  0  0  0  0
   22.7061   71.7143    2.4117 C   0  0  1  0  0  0  0  0  0  0  0  0
   20.9017   72.0610    0.6961 C   0  0  2  0  0  0  0  0  0  0  0  0
   23.7230   71.9307    1.2828 C   0  0  1  0  0  0  0  0  0  0  0  0
   22.0044   72.2660   -0.3442 C   0  0  1  0  0  0  0  0  0  0  0  0
   20.7061   72.1920    3.9483 H   0  0  0  0  0  0  0  0  0  0  0  0
   22.5553   72.0968    4.3423 H   0  0  0  0  0  0  0  0  0  0  0  0
   19.0736   72.7149    1.0381 H   0  0  0  0  0  0  0  0  0  0  0  0
   24.7113   70.0678    2.4060 O   0  0  0  0  0  0  0  0  0  0  0  0
   24.9954   71.1134    1.4947 C   0  0  0  0  0  0  0  0  0  0  0  0
   25.5121   69.5390    2.5503 H   0  0  0  0  0  0  0  0  0  0  0  0
 25 28  1  0
 25 24  1  0
 25 26  1  6
 25 27  2  0
  1  4  1  0
  1 24  1  0
  1  2  1  6
  1  3  2  0
  6 11  1  0
  6 12  1  0
 29 36  1  0
 29 37  1  0
  9  7  1  6
  7 13  1  0
 10  8  1  1
  8 14  1  0
 37 28  1  1
  4  5  1  0
 33 30  1  1
 30 38  1  0
 34 31  1  1
 31 39  1  0
 35 32  1  6
 32 40  1  0
 41 42  1  0
 41 43  1  0
 15 19  2  0
 16 22  2  0
 12 17  1  6
 17 19  1  0
 17 20  1  0
 18 19  1  0
 18 22  1  0
 18 23  1  0
  9 10  1  0
  9 11  1  0
 10 12  1  0
 11  5  1  6
 33 34  1  0
 33 35  1  0
 34 36  1  0
 35 37  1  0
 36 42  1  1
 20 21  2  0
 21 22  1  0
M  CHG  2   2  -1  26  -1
M  END
>  <COMPND>  (85) 
    8629 

>  <AUTHOR>  (85) 
    GENERATED BY OPEN BABEL 3.1.1

>  <MASTER>  (85) 
        0    0    0    0    0    0    0    0   58    0   58    0

>  <minimizedAffinity>  (85) 
-7.60494

>  <CNNscore>  (85) 
0.8406850100

>  <CNNaffinity>  (85) 
4.5889348984

>  <CNN_VS>  (85) 
3.8578488827

>  <CNNaffinity_variance>  (85) 
0.0406741500

$$$$
86
     RDKit          3D

 43 45  0  0  0  0  0  0  0  0999 V2000
   22.3378   73.3419   -6.9384 P   0  0  2  0  0  0  0  0  0  0  0  0
   21.2190   74.2053   -6.1509 O   0  0  0  0  0  0  0  0  0  0  0  0
   23.2456   74.1409   -7.8267 O   0  0  0  0  0  0  0  0  0  0  0  0
   21.4857   72.1772   -7.6700 O   0  0  0  0  0  0  0  0  0  0  0  0
   20.0711   72.2397   -7.6172 C   0  0  0  0  0  0  0  0  0  0  0  0
   19.0623   70.1115   -7.1412 O   0  0  0  0  0  0  0  0  0  0  0  0
   18.1375   70.1223   -9.9934 O   0  0  0  0  0  0  0  0  0  0  0  0
   15.8946   70.8771   -8.6384 O   0  0  0  0  0  0  0  0  0  0  0  0
   18.2617   71.2120   -9.0811 C   0  0  1  0  0  0  0  0  0  0  0  0
   17.1483   71.1685   -8.0554 C   0  0  2  0  0  0  0  0  0  0  0  0
   19.4956   70.9664   -8.2218 C   0  0  1  0  0  0  0  0  0  0  0  0
   17.6261   70.0725   -7.1181 C   0  0  2  0  0  0  0  0  0  0  0  0
   17.3563   70.2570  -10.5534 H   0  0  0  0  0  0  0  0  0  0  0  0
   15.6342   71.6037   -9.2258 H   0  0  0  0  0  0  0  0  0  0  0  0
   16.1756   68.1646   -5.6235 O   0  0  0  0  0  0  0  0  0  0  0  0
   15.9498   70.9419   -1.9525 O   0  0  0  0  0  0  0  0  0  0  0  0
   17.1759   70.2705   -5.7692 N   0  0  0  0  0  0  0  0  0  0  0  0
   16.0645   69.5490   -3.7968 N   0  0  0  0  0  0  0  0  0  0  0  0
   16.4540   69.2494   -5.1085 C   0  0  0  0  0  0  0  0  0  0  0  0
   17.4513   71.4666   -5.1153 C   0  0  0  0  0  0  0  0  0  0  0  0
   17.0717   71.7371   -3.8647 C   0  0  0  0  0  0  0  0  0  0  0  0
   16.3131   70.7233   -3.1040 C   0  0  0  0  0  0  0  0  0  0  0  0
   15.5600   68.8525   -3.3169 H   0  0  0  0  0  0  0  0  0  0  0  0
   23.0895   72.5486   -5.7474 O   0  0  0  0  0  0  0  0  0  0  0  0
   22.8697   72.5811   -4.1463 P   0  0  2  0  0  0  0  0  0  0  0  0
   24.1201   71.7231   -3.5826 O   0  0  0  0  0  0  0  0  0  0  0  0
   21.5256   72.0834   -3.6995 O   0  0  0  0  0  0  0  0  0  0  0  0
   23.1947   74.1035   -3.7201 O   0  0  0  0  0  0  0  0  0  0  0  0
   24.9071   75.2390   -4.9011 O   0  0  0  0  0  0  0  0  0  0  0  0
   24.7026   77.6503   -1.5552 O   0  0  0  0  0  0  0  0  0  0  0  0
   23.6759   78.6102   -4.0597 O   0  0  0  0  0  0  0  0  0  0  0  0
   24.4184   74.7820   -1.2875 O   0  0  0  0  0  0  0  0  0  0  0  0
   24.1850   76.7998   -2.5819 C   0  0  1  0  0  0  0  0  0  0  0  0
   24.4863   77.4448   -3.9362 C   0  0  1  0  0  0  0  0  0  0  0  0
   24.8524   75.4296   -2.4787 C   0  0  2  0  0  0  0  0  0  0  0  0
   24.2024   76.4719   -5.0886 C   0  0  1  0  0  0  0  0  0  0  0  0
   24.5452   74.5584   -3.6979 C   0  0  1  0  0  0  0  0  0  0  0  0
   24.2825   78.5218   -1.6150 H   0  0  0  0  0  0  0  0  0  0  0  0
   23.8645   79.2160   -3.3258 H   0  0  0  0  0  0  0  0  0  0  0  0
   24.6188   75.3434   -0.5230 H   0  0  0  0  0  0  0  0  0  0  0  0
   25.3739   76.0392   -7.1255 O   0  0  0  0  0  0  0  0  0  0  0  0
   24.6440   77.0376   -6.4366 C   0  0  0  0  0  0  0  0  0  0  0  0
   25.6612   76.3851   -7.9855 H   0  0  0  0  0  0  0  0  0  0  0  0
 25 28  1  0
 25 24  1  0
 25 26  1  1
 25 27  2  0
  1  4  1  0
  1 24  1  0
  1  2  1  1
  1  3  2  0
  6 11  1  0
  6 12  1  0
 29 36  1  0
 29 37  1  0
  9  7  1  6
  7 13  1  0
 10  8  1  6
  8 14  1  0
 37 28  1  6
  4  5  1  0
 33 30  1  1
 30 38  1  0
 34 31  1  6
 31 39  1  0
 35 32  1  1
 32 40  1  0
 41 42  1  0
 41 43  1  0
 15 19  2  0
 16 22  2  0
 12 17  1  1
 17 19  1  0
 17 20  1  0
 18 19  1  0
 18 22  1  0
 18 23  1  0
  9 10  1  0
  9 11  1  0
 10 12  1  0
 11  5  1  1
 33 34  1  0
 33 35  1  0
 34 36  1  0
 35 37  1  0
 36 42  1  6
 20 21  2  0
 21 22  1  0
M  CHG  2   2  -1  26  -1
M  END
>  <COMPND>  (86) 
    8629 

>  <AUTHOR>  (86) 
    GENERATED BY OPEN BABEL 3.1.1

>  <MASTER>  (86) 
        0    0    0    0    0    0    0    0   58    0   58    0

>  <minimizedAffinity>  (86) 
-7.04087

>  <CNNscore>  (86) 
0.8367978930

>  <CNNaffinity>  (86) 
4.6479072571

>  <CNN_VS>  (86) 
3.8893589973

>  <CNNaffinity_variance>  (86) 
0.2383570224

$$$$
87
     RDKit          3D

 43 45  0  0  0  0  0  0  0  0999 V2000
   21.4392   72.9735   -1.7899 P   0  0  2  0  0  0  0  0  0  0  0  0
   20.7102   74.3547   -2.2124 O   0  0  0  0  0  0  0  0  0  0  0  0
   22.8836   72.8730   -2.1838 O   0  0  0  0  0  0  0  0  0  0  0  0
   20.4674   71.8241   -2.3835 O   0  0  0  0  0  0  0  0  0  0  0  0
   19.9484   71.9868   -3.6919 C   0  0  0  0  0  0  0  0  0  0  0  0
   17.9147   72.1901   -4.9554 O   0  0  0  0  0  0  0  0  0  0  0  0
   16.6036   70.6565   -2.7373 O   0  0  0  0  0  0  0  0  0  0  0  0
   16.9613   68.7461   -4.6502 O   0  0  0  0  0  0  0  0  0  0  0  0
   17.9152   70.5139   -3.2803 C   0  0  1  0  0  0  0  0  0  0  0  0
   17.8527   69.8425   -4.6364 C   0  0  2  0  0  0  0  0  0  0  0  0
   18.4292   71.9032   -3.6366 C   0  0  1  0  0  0  0  0  0  0  0  0
   17.3928   70.9812   -5.5308 C   0  0  2  0  0  0  0  0  0  0  0  0
   16.2545   69.7821   -2.5019 H   0  0  0  0  0  0  0  0  0  0  0  0
   17.2977   68.0484   -4.0664 H   0  0  0  0  0  0  0  0  0  0  0  0
   15.8167   70.1890   -7.7368 O   0  0  0  0  0  0  0  0  0  0  0  0
   19.3808   70.5290  -10.6389 O   0  0  0  0  0  0  0  0  0  0  0  0
   17.8831   70.8547   -6.8743 N   0  0  0  0  0  0  0  0  0  0  0  0
   17.5926   70.3591   -9.1800 N   0  0  0  0  0  0  0  0  0  0  0  0
   17.0092   70.4489   -7.9098 C   0  0  0  0  0  0  0  0  0  0  0  0
   19.2167   71.1320   -7.1543 C   0  0  0  0  0  0  0  0  0  0  0  0
   19.7578   71.0403   -8.3709 C   0  0  0  0  0  0  0  0  0  0  0  0
   18.9129   70.6228   -9.5084 C   0  0  0  0  0  0  0  0  0  0  0  0
   17.0029   70.0779   -9.9169 H   0  0  0  0  0  0  0  0  0  0  0  0
   21.1686   72.8918   -0.1984 O   0  0  0  0  0  0  0  0  0  0  0  0
   21.5854   71.7749    0.8933 P   0  0  2  0  0  0  0  0  0  0  0  0
   23.2026   71.8141    0.8654 O   0  0  0  0  0  0  0  0  0  0  0  0
   20.9944   70.4179    0.6417 O   0  0  0  0  0  0  0  0  0  0  0  0
   21.1864   72.4250    2.3157 O   0  0  0  0  0  0  0  0  0  0  0  0
   20.5725   74.6523    2.8435 O   0  0  0  0  0  0  0  0  0  0  0  0
   22.6739   73.7168    6.2728 O   0  0  0  0  0  0  0  0  0  0  0  0
   19.8119   73.9311    6.3777 O   0  0  0  0  0  0  0  0  0  0  0  0
   23.6024   72.7588    3.7038 O   0  0  0  0  0  0  0  0  0  0  0  0
   21.8148   73.4567    5.1594 C   0  0  1  0  0  0  0  0  0  0  0  0
   20.5941   74.3723    5.2714 C   0  0  1  0  0  0  0  0  0  0  0  0
   22.5774   73.7335    3.8651 C   0  0  2  0  0  0  0  0  0  0  0  0
   19.7609   74.3447    3.9830 C   0  0  1  0  0  0  0  0  0  0  0  0
   21.6478   73.7313    2.6502 C   0  0  1  0  0  0  0  0  0  0  0  0
   22.1959   73.5425    7.0978 H   0  0  0  0  0  0  0  0  0  0  0  0
   20.3499   73.9528    7.1848 H   0  0  0  0  0  0  0  0  0  0  0  0
   24.1843   72.7703    4.4791 H   0  0  0  0  0  0  0  0  0  0  0  0
   17.5465   74.8200    4.7443 O   0  0  0  0  0  0  0  0  0  0  0  0
   18.6277   75.3680    4.0128 C   0  0  0  0  0  0  0  0  0  0  0  0
   16.8179   75.4604    4.7718 H   0  0  0  0  0  0  0  0  0  0  0  0
 25 28  1  0
 25 24  1  0
 25 26  1  1
 25 27  2  0
  1  4  1  0
  1 24  1  0
  1  2  1  6
  1  3  2  0
  6 11  1  0
  6 12  1  0
 29 36  1  0
 29 37  1  0
  9  7  1  6
  7 13  1  0
 10  8  1  1
  8 14  1  0
 37 28  1  1
  4  5  1  0
 33 30  1  1
 30 38  1  0
 34 31  1  1
 31 39  1  0
 35 32  1  6
 32 40  1  0
 41 42  1  0
 41 43  1  0
 15 19  2  0
 16 22  2  0
 12 17  1  6
 17 19  1  0
 17 20  1  0
 18 19  1  0
 18 22  1  0
 18 23  1  0
  9 10  1  0
  9 11  1  0
 10 12  1  0
 11  5  1  6
 33 34  1  0
 33 35  1  0
 34 36  1  0
 35 37  1  0
 36 42  1  1
 20 21  2  0
 21 22  1  0
M  CHG  2   2  -1  26  -1
M  END
>  <COMPND>  (87) 
    8629 

>  <AUTHOR>  (87) 
    GENERATED BY OPEN BABEL 3.1.1

>  <MASTER>  (87) 
        0    0    0    0    0    0    0    0   58    0   58    0

>  <minimizedAffinity>  (87) 
-6.65921

>  <CNNscore>  (87) 
0.8323281407

>  <CNNaffinity>  (87) 
4.3346118927

>  <CNN_VS>  (87) 
3.6078195572

>  <CNNaffinity_variance>  (87) 
0.0577775054

$$$$
88
     RDKit          3D

 43 45  0  0  0  0  0  0  0  0999 V2000
   22.8060   71.7429   -2.2501 P   0  0  2  0  0  0  0  0  0  0  0  0
   23.9570   71.2542   -3.2767 O   0  0  0  0  0  0  0  0  0  0  0  0
   23.2606   71.9351   -0.8331 O   0  0  0  0  0  0  0  0  0  0  0  0
   21.6128   70.6717   -2.4660 O   0  0  0  0  0  0  0  0  0  0  0  0
   20.9094   70.6818   -3.6960 C   0  0  0  0  0  0  0  0  0  0  0  0
   18.9623   71.7211   -4.6459 O   0  0  0  0  0  0  0  0  0  0  0  0
   17.4211   70.4425   -2.4142 O   0  0  0  0  0  0  0  0  0  0  0  0
   16.8985   68.7906   -4.5200 O   0  0  0  0  0  0  0  0  0  0  0  0
   18.5399   69.9389   -3.1422 C   0  0  1  0  0  0  0  0  0  0  0  0
   18.1140   69.5111   -4.5312 C   0  0  2  0  0  0  0  0  0  0  0  0
   19.4702   71.1080   -3.4407 C   0  0  1  0  0  0  0  0  0  0  0  0
   17.9966   70.8447   -5.2494 C   0  0  2  0  0  0  0  0  0  0  0  0
   16.8129   69.7138   -2.2116 H   0  0  0  0  0  0  0  0  0  0  0  0
   17.0248   67.9504   -4.0521 H   0  0  0  0  0  0  0  0  0  0  0  0
   16.1135   70.0460   -7.1972 O   0  0  0  0  0  0  0  0  0  0  0  0
   19.1870   70.4669  -10.6057 O   0  0  0  0  0  0  0  0  0  0  0  0
   18.2776   70.7372   -6.6533 N   0  0  0  0  0  0  0  0  0  0  0  0
   17.6453   70.2564   -8.8928 N   0  0  0  0  0  0  0  0  0  0  0  0
   17.2617   70.3263   -7.5475 C   0  0  0  0  0  0  0  0  0  0  0  0
   19.5487   71.0380   -7.1306 C   0  0  0  0  0  0  0  0  0  0  0  0
   19.8987   70.9652   -8.4165 C   0  0  0  0  0  0  0  0  0  0  0  0
   18.8960   70.5439   -9.4160 C   0  0  0  0  0  0  0  0  0  0  0  0
   16.9541   69.9720   -9.5340 H   0  0  0  0  0  0  0  0  0  0  0  0
   22.2296   73.0766   -2.9585 O   0  0  0  0  0  0  0  0  0  0  0  0
   22.7656   74.6015   -2.9460 P   0  0  2  0  0  0  0  0  0  0  0  0
   24.3395   74.4388   -2.6084 O   0  0  0  0  0  0  0  0  0  0  0  0
   22.0216   75.5076   -2.0083 O   0  0  0  0  0  0  0  0  0  0  0  0
   22.7259   75.0612   -4.4926 O   0  0  0  0  0  0  0  0  0  0  0  0
   20.9539   75.5942   -5.9734 O   0  0  0  0  0  0  0  0  0  0  0  0
   23.3510   73.4451   -8.5592 O   0  0  0  0  0  0  0  0  0  0  0  0
   23.1555   76.2960   -8.8456 O   0  0  0  0  0  0  0  0  0  0  0  0
   23.0851   72.6052   -5.8018 O   0  0  0  0  0  0  0  0  0  0  0  0
   23.0747   74.3369   -7.4758 C   0  0  1  0  0  0  0  0  0  0  0  0
   22.2829   75.5260   -8.0235 C   0  0  1  0  0  0  0  0  0  0  0  0
   22.2656   73.5958   -6.4131 C   0  0  2  0  0  0  0  0  0  0  0  0
   21.7211   76.3888   -6.8855 C   0  0  1  0  0  0  0  0  0  0  0  0
   21.7121   74.5524   -5.3555 C   0  0  1  0  0  0  0  0  0  0  0  0
   23.8649   73.9093   -9.2373 H   0  0  0  0  0  0  0  0  0  0  0  0
   23.5037   75.7394   -9.5599 H   0  0  0  0  0  0  0  0  0  0  0  0
   23.4291   72.0057   -6.4816 H   0  0  0  0  0  0  0  0  0  0  0  0
   20.3383   77.1202   -8.6915 O   0  0  0  0  0  0  0  0  0  0  0  0
   20.7978   77.4890   -7.4042 C   0  0  0  0  0  0  0  0  0  0  0  0
   19.7492   77.8111   -9.0341 H   0  0  0  0  0  0  0  0  0  0  0  0
 25 28  1  0
 25 24  1  0
 25 26  1  1
 25 27  2  0
  1  4  1  0
  1 24  1  0
  1  2  1  6
  1  3  2  0
  6 11  1  0
  6 12  1  0
 29 36  1  0
 29 37  1  0
  9  7  1  1
  7 13  1  0
 10  8  1  1
  8 14  1  0
 37 28  1  6
  4  5  1  0
 33 30  1  6
 30 38  1  0
 34 31  1  6
 31 39  1  0
 35 32  1  1
 32 40  1  0
 41 42  1  0
 41 43  1  0
 15 19  2  0
 16 22  2  0
 12 17  1  6
 17 19  1  0
 17 20  1  0
 18 19  1  0
 18 22  1  0
 18 23  1  0
  9 10  1  0
  9 11  1  0
 10 12  1  0
 11  5  1  6
 33 34  1  0
 33 35  1  0
 34 36  1  0
 35 37  1  0
 36 42  1  6
 20 21  2  0
 21 22  1  0
M  CHG  2   2  -1  26  -1
M  END
>  <COMPND>  (88) 
    8629 

>  <AUTHOR>  (88) 
    GENERATED BY OPEN BABEL 3.1.1

>  <MASTER>  (88) 
        0    0    0    0    0    0    0    0   58    0   58    0

>  <minimizedAffinity>  (88) 
-7.12232

>  <CNNscore>  (88) 
0.8292764425

>  <CNNaffinity>  (88) 
4.5865011215

>  <CNN_VS>  (88) 
3.8034772873

>  <CNNaffinity_variance>  (88) 
0.3284725547

$$$$
89
     RDKit          3D

 43 45  0  0  0  0  0  0  0  0999 V2000
   23.1969   71.6182   -2.8814 P   0  0  2  0  0  0  0  0  0  0  0  0
   23.4127   73.2101   -3.0725 O   0  0  0  0  0  0  0  0  0  0  0  0
   24.4405   70.7894   -3.0157 O   0  0  0  0  0  0  0  0  0  0  0  0
   22.0006   71.2621   -3.9111 O   0  0  0  0  0  0  0  0  0  0  0  0
   21.6353   72.2266   -4.8827 C   0  0  0  0  0  0  0  0  0  0  0  0
   20.4967   70.3813   -5.9182 O   0  0  0  0  0  0  0  0  0  0  0  0
   20.8143   71.8760   -8.4981 O   0  0  0  0  0  0  0  0  0  0  0  0
   18.2223   72.3933   -7.8266 O   0  0  0  0  0  0  0  0  0  0  0  0
   20.5680   72.3816   -7.1870 C   0  0  1  0  0  0  0  0  0  0  0  0
   19.1329   72.1163   -6.7822 C   0  0  2  0  0  0  0  0  0  0  0  0
   21.3420   71.5186   -6.1983 C   0  0  1  0  0  0  0  0  0  0  0  0
   19.1753   70.6417   -6.4192 C   0  0  2  0  0  0  0  0  0  0  0  0
   20.3305   72.4115   -9.1471 H   0  0  0  0  0  0  0  0  0  0  0  0
   18.2319   73.3436   -8.0206 H   0  0  0  0  0  0  0  0  0  0  0  0
   16.6448   69.4993   -6.9382 O   0  0  0  0  0  0  0  0  0  0  0  0
   15.5800   69.3707   -2.4559 O   0  0  0  0  0  0  0  0  0  0  0  0
   18.2169   70.2992   -5.4065 N   0  0  0  0  0  0  0  0  0  0  0  0
   16.1168   69.4360   -4.7059 N   0  0  0  0  0  0  0  0  0  0  0  0
   16.9746   69.7311   -5.7732 C   0  0  0  0  0  0  0  0  0  0  0  0
   18.5128   70.5266   -4.0669 C   0  0  0  0  0  0  0  0  0  0  0  0
   17.6833   70.2408   -3.0612 C   0  0  0  0  0  0  0  0  0  0  0  0
   16.3649   69.6447   -3.3585 C   0  0  0  0  0  0  0  0  0  0  0  0
   15.2454   69.0399   -4.9374 H   0  0  0  0  0  0  0  0  0  0  0  0
   22.4754   71.5198   -1.4383 O   0  0  0  0  0  0  0  0  0  0  0  0
   21.0110   71.9980   -0.9487 P   0  0  2  0  0  0  0  0  0  0  0  0
   20.2622   70.6059   -0.6037 O   0  0  0  0  0  0  0  0  0  0  0  0
   20.2842   72.8637   -1.9368 O   0  0  0  0  0  0  0  0  0  0  0  0
   21.2660   72.6904    0.4867 O   0  0  0  0  0  0  0  0  0  0  0  0
   22.0751   71.0078    1.9464 O   0  0  0  0  0  0  0  0  0  0  0  0
   21.8773   74.1548    4.6125 O   0  0  0  0  0  0  0  0  0  0  0  0
   24.4378   73.2309    3.6969 O   0  0  0  0  0  0  0  0  0  0  0  0
   19.8194   73.8340    2.6020 O   0  0  0  0  0  0  0  0  0  0  0  0
   22.0922   73.5356    3.3414 C   0  0  1  0  0  0  0  0  0  0  0  0
   23.2229   72.5157    3.4899 C   0  0  1  0  0  0  0  0  0  0  0  0
   20.8027   72.8478    2.8968 C   0  0  2  0  0  0  0  0  0  0  0  0
   23.3327   71.6250    2.2450 C   0  0  1  0  0  0  0  0  0  0  0  0
   21.0326   71.9483    1.6810 C   0  0  1  0  0  0  0  0  0  0  0  0
   22.6921   74.5938    4.9003 H   0  0  0  0  0  0  0  0  0  0  0  0
   24.3550   73.7897    4.4856 H   0  0  0  0  0  0  0  0  0  0  0  0
   19.6828   74.3967    3.3796 H   0  0  0  0  0  0  0  0  0  0  0  0
   25.6349   70.9984    2.1184 O   0  0  0  0  0  0  0  0  0  0  0  0
   24.3480   70.5001    2.4342 C   0  0  0  0  0  0  0  0  0  0  0  0
   26.2915   70.2933    2.2346 H   0  0  0  0  0  0  0  0  0  0  0  0
 25 28  1  0
 25 24  1  0
 25 26  1  1
 25 27  2  0
  1  4  1  0
  1 24  1  0
  1  2  1  6
  1  3  2  0
  6 11  1  0
  6 12  1  0
 29 36  1  0
 29 37  1  0
  9  7  1  6
  7 13  1  0
 10  8  1  6
  8 14  1  0
 37 28  1  6
  4  5  1  0
 33 30  1  1
 30 38  1  0
 34 31  1  6
 31 39  1  0
 35 32  1  6
 32 40  1  0
 41 42  1  0
 41 43  1  0
 15 19  2  0
 16 22  2  0
 12 17  1  1
 17 19  1  0
 17 20  1  0
 18 19  1  0
 18 22  1  0
 18 23  1  0
  9 10  1  0
  9 11  1  0
 10 12  1  0
 11  5  1  1
 33 34  1  0
 33 35  1  0
 34 36  1  0
 35 37  1  0
 36 42  1  1
 20 21  2  0
 21 22  1  0
M  CHG  2   2  -1  26  -1
M  END
>  <COMPND>  (89) 
    8629 

>  <AUTHOR>  (89) 
    GENERATED BY OPEN BABEL 3.1.1

>  <MASTER>  (89) 
        0    0    0    0    0    0    0    0   58    0   58    0

>  <minimizedAffinity>  (89) 
-7.16148

>  <CNNscore>  (89) 
0.8139523864

>  <CNNaffinity>  (89) 
4.4574003220

>  <CNN_VS>  (89) 
3.6281116009

>  <CNNaffinity_variance>  (89) 
0.2479571849

$$$$
90
     RDKit          3D

 43 45  0  0  0  0  0  0  0  0999 V2000
   21.8409   72.4681   -5.4685 P   0  0  2  0  0  0  0  0  0  0  0  0
   21.0362   73.8523   -5.2361 O   0  0  0  0  0  0  0  0  0  0  0  0
   23.1539   72.6102   -6.1807 O   0  0  0  0  0  0  0  0  0  0  0  0
   20.7556   71.5029   -6.1815 O   0  0  0  0  0  0  0  0  0  0  0  0
   20.3117   71.8324   -7.4861 C   0  0  0  0  0  0  0  0  0  0  0  0
   19.0121   69.8710   -6.9985 O   0  0  0  0  0  0  0  0  0  0  0  0
   18.1859   69.9304   -9.8803 O   0  0  0  0  0  0  0  0  0  0  0  0
   16.0237   71.0130   -8.6197 O   0  0  0  0  0  0  0  0  0  0  0  0
   18.4269   71.0173   -8.9883 C   0  0  1  0  0  0  0  0  0  0  0  0
   17.2865   71.1497   -8.0005 C   0  0  2  0  0  0  0  0  0  0  0  0
   19.5895   70.6318   -8.0821 C   0  0  1  0  0  0  0  0  0  0  0  0
   17.5836   70.0246   -7.0237 C   0  0  2  0  0  0  0  0  0  0  0  0
   17.4476   70.1534  -10.4695 H   0  0  0  0  0  0  0  0  0  0  0  0
   15.8816   71.7522   -9.2313 H   0  0  0  0  0  0  0  0  0  0  0  0
   16.2097   68.1903   -5.3728 O   0  0  0  0  0  0  0  0  0  0  0  0
   15.8609   71.2540   -1.9473 O   0  0  0  0  0  0  0  0  0  0  0  0
   17.1225   70.3163   -5.6957 N   0  0  0  0  0  0  0  0  0  0  0  0
   16.0373   69.7172   -3.6684 N   0  0  0  0  0  0  0  0  0  0  0  0
   16.4419   69.3251   -4.9509 C   0  0  0  0  0  0  0  0  0  0  0  0
   17.3467   71.5733   -5.1447 C   0  0  0  0  0  0  0  0  0  0  0  0
   16.9534   71.9318   -3.9208 C   0  0  0  0  0  0  0  0  0  0  0  0
   16.2356   70.9547   -3.0769 C   0  0  0  0  0  0  0  0  0  0  0  0
   15.5609   69.0432   -3.1312 H   0  0  0  0  0  0  0  0  0  0  0  0
   21.9477   71.8550   -3.9766 O   0  0  0  0  0  0  0  0  0  0  0  0
   23.1111   71.9743   -2.8607 P   0  0  2  0  0  0  0  0  0  0  0  0
   23.6338   73.4959   -3.0309 O   0  0  0  0  0  0  0  0  0  0  0  0
   24.1863   70.9333   -2.9789 O   0  0  0  0  0  0  0  0  0  0  0  0
   22.3264   71.9683   -1.4503 O   0  0  0  0  0  0  0  0  0  0  0  0
   24.0227   72.0873    0.2005 O   0  0  0  0  0  0  0  0  0  0  0  0
   20.7100   71.9962    2.6639 O   0  0  0  0  0  0  0  0  0  0  0  0
   22.1842   74.4421    2.3600 O   0  0  0  0  0  0  0  0  0  0  0  0
   20.7677   70.3823    0.2615 O   0  0  0  0  0  0  0  0  0  0  0  0
   21.4516   72.3381    1.4898 C   0  0  1  0  0  0  0  0  0  0  0  0
   22.6600   73.1756    1.9128 C   0  0  1  0  0  0  0  0  0  0  0  0
   21.9034   71.0556    0.7938 C   0  0  2  0  0  0  0  0  0  0  0  0
   23.6443   73.3551    0.7492 C   0  0  1  0  0  0  0  0  0  0  0  0
   22.9178   71.3419   -0.3149 C   0  0  1  0  0  0  0  0  0  0  0  0
   20.4197   72.8061    3.1104 H   0  0  0  0  0  0  0  0  0  0  0  0
   21.5633   74.3146    3.0945 H   0  0  0  0  0  0  0  0  0  0  0  0
   20.1333   70.2065    0.9732 H   0  0  0  0  0  0  0  0  0  0  0  0
   25.0305   75.2855    0.5020 O   0  0  0  0  0  0  0  0  0  0  0  0
   24.9297   74.0521    1.1897 C   0  0  0  0  0  0  0  0  0  0  0  0
   25.8439   75.7403    0.7727 H   0  0  0  0  0  0  0  0  0  0  0  0
 25 28  1  0
 25 24  1  0
 25 26  1  6
 25 27  2  0
  1  4  1  0
  1 24  1  0
  1  2  1  1
  1  3  2  0
  6 11  1  0
  6 12  1  0
 29 36  1  0
 29 37  1  0
  9  7  1  6
  7 13  1  0
 10  8  1  6
  8 14  1  0
 37 28  1  6
  4  5  1  0
 33 30  1  1
 30 38  1  0
 34 31  1  6
 31 39  1  0
 35 32  1  6
 32 40  1  0
 41 42  1  0
 41 43  1  0
 15 19  2  0
 16 22  2  0
 12 17  1  1
 17 19  1  0
 17 20  1  0
 18 19  1  0
 18 22  1  0
 18 23  1  0
  9 10  1  0
  9 11  1  0
 10 12  1  0
 11  5  1  1
 33 34  1  0
 33 35  1  0
 34 36  1  0
 35 37  1  0
 36 42  1  1
 20 21  2  0
 21 22  1  0
M  CHG  2   2  -1  26  -1
M  END
>  <COMPND>  (90) 
    8629 

>  <AUTHOR>  (90) 
    GENERATED BY OPEN BABEL 3.1.1

>  <MASTER>  (90) 
        0    0    0    0    0    0    0    0   58    0   58    0

>  <minimizedAffinity>  (90) 
-7.96645

>  <CNNscore>  (90) 
0.7892097235

>  <CNNaffinity>  (90) 
4.5430030823

>  <CNN_VS>  (90) 
3.5853822231

>  <CNNaffinity_variance>  (90) 
0.2321850508

$$$$
91
     RDKit          3D

 43 45  0  0  0  0  0  0  0  0999 V2000
   21.9120   72.5227   -5.5933 P   0  0  2  0  0  0  0  0  0  0  0  0
   21.2186   73.9626   -5.3420 O   0  0  0  0  0  0  0  0  0  0  0  0
   23.1819   72.5615   -6.3915 O   0  0  0  0  0  0  0  0  0  0  0  0
   20.7202   71.6205   -6.2126 O   0  0  0  0  0  0  0  0  0  0  0  0
   20.2090   71.9598   -7.4899 C   0  0  0  0  0  0  0  0  0  0  0  0
   18.9747   69.9529   -7.0182 O   0  0  0  0  0  0  0  0  0  0  0  0
   18.1712   69.9914   -9.9067 O   0  0  0  0  0  0  0  0  0  0  0  0
   15.9619   70.9944   -8.6618 O   0  0  0  0  0  0  0  0  0  0  0  0
   18.3665   71.0837   -9.0100 C   0  0  1  0  0  0  0  0  0  0  0  0
   17.2140   71.1734   -8.0316 C   0  0  2  0  0  0  0  0  0  0  0  0
   19.5342   70.7364   -8.0949 C   0  0  1  0  0  0  0  0  0  0  0  0
   17.5420   70.0567   -7.0551 C   0  0  2  0  0  0  0  0  0  0  0  0
   17.4305   70.1902  -10.5016 H   0  0  0  0  0  0  0  0  0  0  0  0
   15.7993   71.7299   -9.2728 H   0  0  0  0  0  0  0  0  0  0  0  0
   16.3129   68.1429   -5.3804 O   0  0  0  0  0  0  0  0  0  0  0  0
   15.7299   71.2127   -1.9925 O   0  0  0  0  0  0  0  0  0  0  0  0
   17.0598   70.3285   -5.7303 N   0  0  0  0  0  0  0  0  0  0  0  0
   16.0238   69.6729   -3.6948 N   0  0  0  0  0  0  0  0  0  0  0  0
   16.4573   69.2973   -4.9727 C   0  0  0  0  0  0  0  0  0  0  0  0
   17.1869   71.6057   -5.1950 C   0  0  0  0  0  0  0  0  0  0  0  0
   16.7672   71.9480   -3.9752 C   0  0  0  0  0  0  0  0  0  0  0  0
   16.1265   70.9292   -3.1187 C   0  0  0  0  0  0  0  0  0  0  0  0
   15.6006   68.9710   -3.1489 H   0  0  0  0  0  0  0  0  0  0  0  0
   22.0753   71.9319   -4.0976 O   0  0  0  0  0  0  0  0  0  0  0  0
   23.2860   72.0556   -3.0337 P   0  0  2  0  0  0  0  0  0  0  0  0
   23.9057   73.5172   -3.3452 O   0  0  0  0  0  0  0  0  0  0  0  0
   24.2813   70.9337   -3.1010 O   0  0  0  0  0  0  0  0  0  0  0  0
   22.5573   72.2183   -1.6028 O   0  0  0  0  0  0  0  0  0  0  0  0
   22.2211   74.0423   -0.1274 O   0  0  0  0  0  0  0  0  0  0  0  0
   23.2121   71.1353    2.6326 O   0  0  0  0  0  0  0  0  0  0  0  0
   20.4939   72.0428    2.4432 O   0  0  0  0  0  0  0  0  0  0  0  0
   24.5726   71.2257    0.0791 O   0  0  0  0  0  0  0  0  0  0  0  0
   22.6255   71.6469    1.4328 C   0  0  1  0  0  0  0  0  0  0  0  0
   21.5902   72.7052    1.8187 C   0  0  1  0  0  0  0  0  0  0  0  0
   23.7217   72.2593    0.5629 C   0  0  2  0  0  0  0  0  0  0  0  0
   21.1114   73.4866    0.5878 C   0  0  1  0  0  0  0  0  0  0  0  0
   23.1371   73.0552   -0.6053 C   0  0  1  0  0  0  0  0  0  0  0  0
   22.5214   70.7446    3.1892 H   0  0  0  0  0  0  0  0  0  0  0  0
   20.8099   71.5528    3.2186 H   0  0  0  0  0  0  0  0  0  0  0  0
   24.9365   70.7294    0.8282 H   0  0  0  0  0  0  0  0  0  0  0  0
   20.4693   75.0138    2.3095 O   0  0  0  0  0  0  0  0  0  0  0  0
   20.1983   74.6500    0.9684 C   0  0  0  0  0  0  0  0  0  0  0  0
   19.8956   75.7534    2.5654 H   0  0  0  0  0  0  0  0  0  0  0  0
 25 28  1  0
 25 24  1  0
 25 26  1  6
 25 27  2  0
  1  4  1  0
  1 24  1  0
  1  2  1  1
  1  3  2  0
  6 11  1  0
  6 12  1  0
 29 36  1  0
 29 37  1  0
  9  7  1  6
  7 13  1  0
 10  8  1  6
  8 14  1  0
 37 28  1  6
  4  5  1  0
 33 30  1  1
 30 38  1  0
 34 31  1  6
 31 39  1  0
 35 32  1  6
 32 40  1  0
 41 42  1  0
 41 43  1  0
 15 19  2  0
 16 22  2  0
 12 17  1  1
 17 19  1  0
 17 20  1  0
 18 19  1  0
 18 22  1  0
 18 23  1  0
  9 10  1  0
  9 11  1  0
 10 12  1  0
 11  5  1  1
 33 34  1  0
 33 35  1  0
 34 36  1  0
 35 37  1  0
 36 42  1  1
 20 21  2  0
 21 22  1  0
M  CHG  2   2  -1  26  -1
M  END
>  <COMPND>  (91) 
    8629 

>  <AUTHOR>  (91) 
    GENERATED BY OPEN BABEL 3.1.1

>  <MASTER>  (91) 
        0    0    0    0    0    0    0    0   58    0   58    0

>  <minimizedAffinity>  (91) 
-7.56381

>  <CNNscore>  (91) 
0.7836997509

>  <CNNaffinity>  (91) 
4.5299425125

>  <CNN_VS>  (91) 
3.5501148701

>  <CNNaffinity_variance>  (91) 
0.2081238776

$$$$
92
     RDKit          3D

 43 45  0  0  0  0  0  0  0  0999 V2000
   23.1121   72.8707   -4.3256 P   0  0  2  0  0  0  0  0  0  0  0  0
   22.8472   72.6914   -5.9115 O   0  0  0  0  0  0  0  0  0  0  0  0
   24.2187   72.0246   -3.7682 O   0  0  0  0  0  0  0  0  0  0  0  0
   21.6540   72.6477   -3.6606 O   0  0  0  0  0  0  0  0  0  0  0  0
   20.9084   71.5022   -4.0346 C   0  0  0  0  0  0  0  0  0  0  0  0
   18.8378   72.1803   -5.0478 O   0  0  0  0  0  0  0  0  0  0  0  0
   17.4894   70.9784   -2.6544 O   0  0  0  0  0  0  0  0  0  0  0  0
   17.1589   69.0498   -4.5538 O   0  0  0  0  0  0  0  0  0  0  0  0
   18.6558   70.5388   -3.3483 C   0  0  1  0  0  0  0  0  0  0  0  0
   18.2743   69.9092   -4.6718 C   0  0  2  0  0  0  0  0  0  0  0  0
   19.4295   71.7732   -3.7946 C   0  0  1  0  0  0  0  0  0  0  0  0
   17.9842   71.1294   -5.5292 C   0  0  2  0  0  0  0  0  0  0  0  0
   16.9791   70.2074   -2.3593 H   0  0  0  0  0  0  0  0  0  0  0  0
   17.3937   68.2893   -3.9995 H   0  0  0  0  0  0  0  0  0  0  0  0
   16.1260   70.0792   -7.3792 O   0  0  0  0  0  0  0  0  0  0  0  0
   19.1675   70.2957  -10.8352 O   0  0  0  0  0  0  0  0  0  0  0  0
   18.2637   70.9013   -6.9189 N   0  0  0  0  0  0  0  0  0  0  0  0
   17.6419   70.1881   -9.0986 N   0  0  0  0  0  0  0  0  0  0  0  0
   17.2611   70.3693   -7.7628 C   0  0  0  0  0  0  0  0  0  0  0  0
   19.5201   71.2046   -7.4319 C   0  0  0  0  0  0  0  0  0  0  0  0
   19.8678   71.0246   -8.7078 C   0  0  0  0  0  0  0  0  0  0  0  0
   18.8784   70.4730   -9.6559 C   0  0  0  0  0  0  0  0  0  0  0  0
   16.9598   69.8182   -9.7050 H   0  0  0  0  0  0  0  0  0  0  0  0
   23.3411   74.4636   -4.1731 O   0  0  0  0  0  0  0  0  0  0  0  0
   23.4954   75.3930   -2.8596 P   0  0  2  0  0  0  0  0  0  0  0  0
   21.9900   75.9277   -2.6044 O   0  0  0  0  0  0  0  0  0  0  0  0
   24.5242   76.4785   -2.9912 O   0  0  0  0  0  0  0  0  0  0  0  0
   23.7690   74.3548   -1.6545 O   0  0  0  0  0  0  0  0  0  0  0  0
   21.9787   73.4415   -0.3985 O   0  0  0  0  0  0  0  0  0  0  0  0
   25.0247   72.9589    2.3473 O   0  0  0  0  0  0  0  0  0  0  0  0
   23.9639   70.6621    0.9882 O   0  0  0  0  0  0  0  0  0  0  0  0
   24.9252   75.3405    0.7049 O   0  0  0  0  0  0  0  0  0  0  0  0
   24.4426   73.0049    1.0418 C   0  0  1  0  0  0  0  0  0  0  0  0
   23.3424   71.9442    0.9696 C   0  0  1  0  0  0  0  0  0  0  0  0
   23.8630   74.3978    0.8025 C   0  0  2  0  0  0  0  0  0  0  0  0
   22.4960   72.1094   -0.2997 C   0  0  1  0  0  0  0  0  0  0  0  0
   22.9984   74.4408   -0.4587 C   0  0  1  0  0  0  0  0  0  0  0  0
   25.3950   72.0772    2.5054 H   0  0  0  0  0  0  0  0  0  0  0  0
   24.4956   70.5708    1.7945 H   0  0  0  0  0  0  0  0  0  0  0  0
   25.4650   75.3037    1.5094 H   0  0  0  0  0  0  0  0  0  0  0  0
   21.1789   70.5673    0.9636 O   0  0  0  0  0  0  0  0  0  0  0  0
   21.2974   71.1632   -0.3152 C   0  0  0  0  0  0  0  0  0  0  0  0
   20.4199   69.9627    0.9687 H   0  0  0  0  0  0  0  0  0  0  0  0
 25 28  1  0
 25 24  1  0
 25 26  1  1
 25 27  2  0
  1  4  1  0
  1 24  1  0
  1  2  1  6
  1  3  2  0
  6 11  1  0
  6 12  1  0
 29 36  1  0
 29 37  1  0
  9  7  1  6
  7 13  1  0
 10  8  1  1
  8 14  1  0
 37 28  1  6
  4  5  1  0
 33 30  1  1
 30 38  1  0
 34 31  1  6
 31 39  1  0
 35 32  1  6
 32 40  1  0
 41 42  1  0
 41 43  1  0
 15 19  2  0
 16 22  2  0
 12 17  1  6
 17 19  1  0
 17 20  1  0
 18 19  1  0
 18 22  1  0
 18 23  1  0
  9 10  1  0
  9 11  1  0
 10 12  1  0
 11  5  1  6
 33 34  1  0
 33 35  1  0
 34 36  1  0
 35 37  1  0
 36 42  1  1
 20 21  2  0
 21 22  1  0
M  CHG  2   2  -1  26  -1
M  END
>  <COMPND>  (92) 
    8629 

>  <AUTHOR>  (92) 
    GENERATED BY OPEN BABEL 3.1.1

>  <MASTER>  (92) 
        0    0    0    0    0    0    0    0   58    0   58    0

>  <minimizedAffinity>  (92) 
-7.17672

>  <CNNscore>  (92) 
0.7724767923

>  <CNNaffinity>  (92) 
4.5092153549

>  <CNN_VS>  (92) 
3.4832642078

>  <CNNaffinity_variance>  (92) 
0.0661667436

$$$$
93
     RDKit          3D

 43 45  0  0  0  0  0  0  0  0999 V2000
   23.1221   72.7139   -3.7137 P   0  0  2  0  0  0  0  0  0  0  0  0
   23.0300   71.1350   -3.3729 O   0  0  0  0  0  0  0  0  0  0  0  0
   24.3561   73.1305   -4.4586 O   0  0  0  0  0  0  0  0  0  0  0  0
   22.8875   73.4342   -2.2840 O   0  0  0  0  0  0  0  0  0  0  0  0
   22.0895   74.6042   -2.2392 C   0  0  0  0  0  0  0  0  0  0  0  0
   21.0109   73.0482   -0.7596 O   0  0  0  0  0  0  0  0  0  0  0  0
   19.1961   75.3125   -0.0042 O   0  0  0  0  0  0  0  0  0  0  0  0
   20.9539   75.2391    2.0794 O   0  0  0  0  0  0  0  0  0  0  0  0
   20.5867   75.3383   -0.3220 C   0  0  1  0  0  0  0  0  0  0  0  0
   21.3984   74.7693    0.8230 C   0  0  2  0  0  0  0  0  0  0  0  0
   20.8348   74.3177   -1.4258 C   0  0  1  0  0  0  0  0  0  0  0  0
   21.1849   73.2753    0.6486 C   0  0  2  0  0  0  0  0  0  0  0  0
   19.0132   75.9566    0.6984 H   0  0  0  0  0  0  0  0  0  0  0  0
   21.1113   76.1942    2.1417 H   0  0  0  0  0  0  0  0  0  0  0  0
   21.1392   70.4807    1.0562 O   0  0  0  0  0  0  0  0  0  0  0  0
   25.5400   70.4238    2.4238 O   0  0  0  0  0  0  0  0  0  0  0  0
   22.3047   72.5044    1.1103 N   0  0  0  0  0  0  0  0  0  0  0  0
   23.3305   70.4546    1.7366 N   0  0  0  0  0  0  0  0  0  0  0  0
   22.1768   71.1065    1.2828 C   0  0  0  0  0  0  0  0  0  0  0  0
   23.5132   73.1347    1.3865 C   0  0  0  0  0  0  0  0  0  0  0  0
   24.6037   72.4989    1.8198 C   0  0  0  0  0  0  0  0  0  0  0  0
   24.5543   71.0370    2.0262 C   0  0  0  0  0  0  0  0  0  0  0  0
   23.2649   69.4804    1.8645 H   0  0  0  0  0  0  0  0  0  0  0  0
   21.7361   72.9984   -4.4956 O   0  0  0  0  0  0  0  0  0  0  0  0
   21.4069   73.0829   -6.0759 P   0  0  2  0  0  0  0  0  0  0  0  0
   22.4980   72.0873   -6.7360 O   0  0  0  0  0  0  0  0  0  0  0  0
   21.4226   74.4765   -6.6341 O   0  0  0  0  0  0  0  0  0  0  0  0
   19.9987   72.3118   -6.2415 O   0  0  0  0  0  0  0  0  0  0  0  0
   19.1856   70.1817   -5.5949 O   0  0  0  0  0  0  0  0  0  0  0  0
   17.6686   70.3298   -9.4326 O   0  0  0  0  0  0  0  0  0  0  0  0
   15.8921   70.6126   -7.1938 O   0  0  0  0  0  0  0  0  0  0  0  0
   20.3007   71.3994   -8.8781 O   0  0  0  0  0  0  0  0  0  0  0  0
   18.0630   70.8641   -8.1659 C   0  0  1  0  0  0  0  0  0  0  0  0
   17.2419   70.1713   -7.0766 C   0  0  1  0  0  0  0  0  0  0  0  0
   19.5547   70.6086   -7.9590 C   0  0  2  0  0  0  0  0  0  0  0  0
   17.7902   70.4938   -5.6800 C   0  0  1  0  0  0  0  0  0  0  0  0
   19.9865   70.9149   -6.5238 C   0  0  1  0  0  0  0  0  0  0  0  0
   16.7225   70.4891   -9.5703 H   0  0  0  0  0  0  0  0  0  0  0  0
   15.5581   70.4034   -8.0802 H   0  0  0  0  0  0  0  0  0  0  0  0
   20.0183   71.1960   -9.7829 H   0  0  0  0  0  0  0  0  0  0  0  0
   16.2572   68.7229   -5.2080 O   0  0  0  0  0  0  0  0  0  0  0  0
   17.0859   69.6898   -4.5893 C   0  0  0  0  0  0  0  0  0  0  0  0
   15.8028   68.2034   -4.5258 H   0  0  0  0  0  0  0  0  0  0  0  0
 25 28  1  0
 25 24  1  0
 25 26  1  6
 25 27  2  0
  1  4  1  0
  1 24  1  0
  1  2  1  1
  1  3  2  0
  6 11  1  0
  6 12  1  0
 29 36  1  0
 29 37  1  0
  9  7  1  1
  7 13  1  0
 10  8  1  1
  8 14  1  0
 37 28  1  1
  4  5  1  0
 33 30  1  6
 30 38  1  0
 34 31  1  1
 31 39  1  0
 35 32  1  6
 32 40  1  0
 41 42  1  0
 41 43  1  0
 15 19  2  0
 16 22  2  0
 12 17  1  6
 17 19  1  0
 17 20  1  0
 18 19  1  0
 18 22  1  0
 18 23  1  0
  9 10  1  0
  9 11  1  0
 10 12  1  0
 11  5  1  1
 33 34  1  0
 33 35  1  0
 34 36  1  0
 35 37  1  0
 36 42  1  1
 20 21  2  0
 21 22  1  0
M  CHG  2   2  -1  26  -1
M  END
>  <COMPND>  (93) 
    8629 

>  <AUTHOR>  (93) 
    GENERATED BY OPEN BABEL 3.1.1

>  <MASTER>  (93) 
        0    0    0    0    0    0    0    0   58    0   58    0

>  <minimizedAffinity>  (93) 
-7.40354

>  <CNNscore>  (93) 
0.6300239563

>  <CNNaffinity>  (93) 
4.3617234230

>  <CNN_VS>  (93) 
2.7479901314

>  <CNNaffinity_variance>  (93) 
0.1195268407

$$$$
94
     RDKit          3D

 43 45  0  0  0  0  0  0  0  0999 V2000
   21.8738   72.5384   -5.1672 P   0  0  2  0  0  0  0  0  0  0  0  0
   21.5239   74.0757   -5.5299 O   0  0  0  0  0  0  0  0  0  0  0  0
   23.3119   72.2793   -4.8260 O   0  0  0  0  0  0  0  0  0  0  0  0
   21.2871   71.7003   -6.4207 O   0  0  0  0  0  0  0  0  0  0  0  0
   20.0790   72.1361   -7.0193 C   0  0  0  0  0  0  0  0  0  0  0  0
   18.7400   70.1629   -6.7234 O   0  0  0  0  0  0  0  0  0  0  0  0
   18.1988   70.3155   -9.6687 O   0  0  0  0  0  0  0  0  0  0  0  0
   15.9229   71.3621   -8.5911 O   0  0  0  0  0  0  0  0  0  0  0  0
   18.3506   71.3731   -8.7232 C   0  0  1  0  0  0  0  0  0  0  0  0
   17.1191   71.4764   -7.8477 C   0  0  2  0  0  0  0  0  0  0  0  0
   19.4196   70.9566   -7.7207 C   0  0  1  0  0  0  0  0  0  0  0  0
   17.3206   70.3203   -6.8829 C   0  0  2  0  0  0  0  0  0  0  0  0
   17.5213   70.5587  -10.3196 H   0  0  0  0  0  0  0  0  0  0  0  0
   15.8404   72.1207   -9.1899 H   0  0  0  0  0  0  0  0  0  0  0  0
   16.5775   68.3053   -5.0484 O   0  0  0  0  0  0  0  0  0  0  0  0
   15.0690   71.3978   -1.9820 O   0  0  0  0  0  0  0  0  0  0  0  0
   16.7319   70.5706   -5.5976 N   0  0  0  0  0  0  0  0  0  0  0  0
   15.8271   69.8468   -3.5230 N   0  0  0  0  0  0  0  0  0  0  0  0
   16.3947   69.4879   -4.7523 C   0  0  0  0  0  0  0  0  0  0  0  0
   16.4949   71.8779   -5.1867 C   0  0  0  0  0  0  0  0  0  0  0  0
   15.9517   72.2032   -4.0117 C   0  0  0  0  0  0  0  0  0  0  0  0
   15.5706   71.1311   -3.0698 C   0  0  0  0  0  0  0  0  0  0  0  0
   15.5838   69.1090   -2.9178 H   0  0  0  0  0  0  0  0  0  0  0  0
   20.8292   72.1978   -3.9816 O   0  0  0  0  0  0  0  0  0  0  0  0
   20.5164   70.8137   -3.2074 P   0  0  2  0  0  0  0  0  0  0  0  0
   21.5541   69.7701   -3.8795 O   0  0  0  0  0  0  0  0  0  0  0  0
   19.0790   70.3849   -3.2701 O   0  0  0  0  0  0  0  0  0  0  0  0
   21.0810   71.0447   -1.7132 O   0  0  0  0  0  0  0  0  0  0  0  0
   21.2780   72.9477   -0.3144 O   0  0  0  0  0  0  0  0  0  0  0  0
   24.9351   71.1879    0.4468 O   0  0  0  0  0  0  0  0  0  0  0  0
   22.8855   71.1254    2.4576 O   0  0  0  0  0  0  0  0  0  0  0  0
   23.8374   71.1366   -2.2313 O   0  0  0  0  0  0  0  0  0  0  0  0
   23.5347   71.2097    0.1571 C   0  0  1  0  0  0  0  0  0  0  0  0
   22.8213   71.9447    1.2936 C   0  0  1  0  0  0  0  0  0  0  0  0
   23.3111   71.9287   -1.1720 C   0  0  2  0  0  0  0  0  0  0  0  0
   21.3605   72.2426    0.9297 C   0  0  1  0  0  0  0  0  0  0  0  0
   21.8291   72.2204   -1.4140 C   0  0  1  0  0  0  0  0  0  0  0  0
   25.0840   70.7323    1.2892 H   0  0  0  0  0  0  0  0  0  0  0  0
   23.8132   70.9443    2.6762 H   0  0  0  0  0  0  0  0  0  0  0  0
   24.7762   70.9592   -2.0665 H   0  0  0  0  0  0  0  0  0  0  0  0
   20.2822   72.2851    3.0615 O   0  0  0  0  0  0  0  0  0  0  0  0
   20.6750   73.1120    1.9815 C   0  0  0  0  0  0  0  0  0  0  0  0
   19.8447   72.8250    3.7388 H   0  0  0  0  0  0  0  0  0  0  0  0
 25 28  1  0
 25 24  1  0
 25 26  1  6
 25 27  2  0
  1  4  1  0
  1 24  1  0
  1  2  1  6
  1  3  2  0
  6 11  1  0
  6 12  1  0
 29 36  1  0
 29 37  1  0
  9  7  1  6
  7 13  1  0
 10  8  1  6
  8 14  1  0
 37 28  1  1
  4  5  1  0
 33 30  1  1
 30 38  1  0
 34 31  1  1
 31 39  1  0
 35 32  1  6
 32 40  1  0
 41 42  1  0
 41 43  1  0
 15 19  2  0
 16 22  2  0
 12 17  1  1
 17 19  1  0
 17 20  1  0
 18 19  1  0
 18 22  1  0
 18 23  1  0
  9 10  1  0
  9 11  1  0
 10 12  1  0
 11  5  1  1
 33 34  1  0
 33 35  1  0
 34 36  1  0
 35 37  1  0
 36 42  1  1
 20 21  2  0
 21 22  1  0
M  CHG  2   2  -1  26  -1
M  END
>  <COMPND>  (94) 
    8629 

>  <AUTHOR>  (94) 
    GENERATED BY OPEN BABEL 3.1.1

>  <MASTER>  (94) 
        0    0    0    0    0    0    0    0   58    0   58    0

>  <minimizedAffinity>  (94) 
-6.92922

>  <CNNscore>  (94) 
0.5891109705

>  <CNNaffinity>  (94) 
4.3906078339

>  <CNN_VS>  (94) 
2.5865552425

>  <CNNaffinity_variance>  (94) 
0.2887762189

$$$$
95
     RDKit          3D

 43 45  0  0  0  0  0  0  0  0999 V2000
   21.5295   73.6489   -2.1201 P   0  0  2  0  0  0  0  0  0  0  0  0
   20.2832   74.6613   -2.3187 O   0  0  0  0  0  0  0  0  0  0  0  0
   22.8365   74.3093   -1.7929 O   0  0  0  0  0  0  0  0  0  0  0  0
   21.5149   72.7468   -3.4632 O   0  0  0  0  0  0  0  0  0  0  0  0
   21.1709   73.3665   -4.6902 C   0  0  0  0  0  0  0  0  0  0  0  0
   20.8023   71.1147   -5.4435 O   0  0  0  0  0  0  0  0  0  0  0  0
   21.3862   72.1403   -8.2000 O   0  0  0  0  0  0  0  0  0  0  0  0
   18.6628   72.0022   -8.1818 O   0  0  0  0  0  0  0  0  0  0  0  0
   20.7071   72.7839   -7.1230 C   0  0  1  0  0  0  0  0  0  0  0  0
   19.3230   72.1950   -6.9473 C   0  0  2  0  0  0  0  0  0  0  0  0
   21.3933   72.3763   -5.8252 C   0  0  1  0  0  0  0  0  0  0  0  0
   19.6250   70.8873   -6.2354 C   0  0  2  0  0  0  0  0  0  0  0  0
   20.9661   72.3858   -9.0397 H   0  0  0  0  0  0  0  0  0  0  0  0
   18.4928   72.8628   -8.5955 H   0  0  0  0  0  0  0  0  0  0  0  0
   17.2265   69.6913   -7.1269 O   0  0  0  0  0  0  0  0  0  0  0  0
   15.5890   69.3439   -2.8328 O   0  0  0  0  0  0  0  0  0  0  0  0
   18.5549   70.4740   -5.3720 N   0  0  0  0  0  0  0  0  0  0  0  0
   16.4131   69.5191   -4.9880 N   0  0  0  0  0  0  0  0  0  0  0  0
   17.3924   69.8842   -5.9207 C   0  0  0  0  0  0  0  0  0  0  0  0
   18.6646   70.6544   -3.9974 C   0  0  0  0  0  0  0  0  0  0  0  0
   17.7212   70.3019   -3.1216 C   0  0  0  0  0  0  0  0  0  0  0  0
   16.4751   69.6789   -3.6128 C   0  0  0  0  0  0  0  0  0  0  0  0
   15.5942   69.1067   -5.3473 H   0  0  0  0  0  0  0  0  0  0  0  0
   20.9907   72.6266   -0.9899 O   0  0  0  0  0  0  0  0  0  0  0  0
   21.7795   71.5860   -0.0370 P   0  0  2  0  0  0  0  0  0  0  0  0
   23.0634   71.1671   -0.9278 O   0  0  0  0  0  0  0  0  0  0  0  0
   20.9467   70.4281    0.4318 O   0  0  0  0  0  0  0  0  0  0  0  0
   22.3860   72.4972    1.1491 O   0  0  0  0  0  0  0  0  0  0  0  0
   24.2505   72.0607    2.5454 O   0  0  0  0  0  0  0  0  0  0  0  0
   21.8636   74.0790    5.2436 O   0  0  0  0  0  0  0  0  0  0  0  0
   24.1958   75.3680    4.1725 O   0  0  0  0  0  0  0  0  0  0  0  0
   20.6701   72.2388    3.3545 O   0  0  0  0  0  0  0  0  0  0  0  0
   22.4153   73.7855    3.9572 C   0  0  1  0  0  0  0  0  0  0  0  0
   23.9317   73.9750    4.0311 C   0  0  1  0  0  0  0  0  0  0  0  0
   22.0711   72.3450    3.5833 C   0  0  2  0  0  0  0  0  0  0  0  0
   24.6206   73.4252    2.7748 C   0  0  1  0  0  0  0  0  0  0  0  0
   22.8465   71.8811    2.3489 C   0  0  1  0  0  0  0  0  0  0  0  0
   22.0782   74.9924    5.4868 H   0  0  0  0  0  0  0  0  0  0  0  0
   23.7548   75.7028    4.9691 H   0  0  0  0  0  0  0  0  0  0  0  0
   20.1904   72.5351    4.1432 H   0  0  0  0  0  0  0  0  0  0  0  0
   26.5865   74.7719    2.6003 O   0  0  0  0  0  0  0  0  0  0  0  0
   26.1425   73.4604    2.8954 C   0  0  0  0  0  0  0  0  0  0  0  0
   27.5535   74.8094    2.6734 H   0  0  0  0  0  0  0  0  0  0  0  0
 25 28  1  0
 25 24  1  0
 25 26  1  6
 25 27  2  0
  1  4  1  0
  1 24  1  0
  1  2  1  6
  1  3  2  0
  6 11  1  0
  6 12  1  0
 29 36  1  0
 29 37  1  0
  9  7  1  6
  7 13  1  0
 10  8  1  6
  8 14  1  0
 37 28  1  6
  4  5  1  0
 33 30  1  1
 30 38  1  0
 34 31  1  6
 31 39  1  0
 35 32  1  6
 32 40  1  0
 41 42  1  0
 41 43  1  0
 15 19  2  0
 16 22  2  0
 12 17  1  1
 17 19  1  0
 17 20  1  0
 18 19  1  0
 18 22  1  0
 18 23  1  0
  9 10  1  0
  9 11  1  0
 10 12  1  0
 11  5  1  1
 33 34  1  0
 33 35  1  0
 34 36  1  0
 35 37  1  0
 36 42  1  1
 20 21  2  0
 21 22  1  0
M  CHG  2   2  -1  26  -1
M  END
>  <COMPND>  (95) 
    8629 

>  <AUTHOR>  (95) 
    GENERATED BY OPEN BABEL 3.1.1

>  <MASTER>  (95) 
        0    0    0    0    0    0    0    0   58    0   58    0

>  <minimizedAffinity>  (95) 
-6.67526

>  <CNNscore>  (95) 
0.5469409227

>  <CNNaffinity>  (95) 
4.1084966660

>  <CNN_VS>  (95) 
2.2471048832

>  <CNNaffinity_variance>  (95) 
0.2436759174

$$$$
96
     RDKit          3D

 43 45  0  0  0  0  0  0  0  0999 V2000
   21.8859   72.4478   -5.7349 P   0  0  2  0  0  0  0  0  0  0  0  0
   21.1513   73.7934   -5.2179 O   0  0  0  0  0  0  0  0  0  0  0  0
   23.0532   72.6747   -6.6500 O   0  0  0  0  0  0  0  0  0  0  0  0
   20.6801   71.5559   -6.3419 O   0  0  0  0  0  0  0  0  0  0  0  0
   20.2573   71.8056   -7.6711 C   0  0  0  0  0  0  0  0  0  0  0  0
   18.9125   69.9160   -7.0429 O   0  0  0  0  0  0  0  0  0  0  0  0
   18.0162   69.8399   -9.9032 O   0  0  0  0  0  0  0  0  0  0  0  0
   15.9197   71.0583   -8.6556 O   0  0  0  0  0  0  0  0  0  0  0  0
   18.3119   70.9670   -9.0801 C   0  0  1  0  0  0  0  0  0  0  0  0
   17.2012   71.1899   -8.0750 C   0  0  2  0  0  0  0  0  0  0  0  0
   19.4849   70.5967   -8.1810 C   0  0  1  0  0  0  0  0  0  0  0  0
   17.4891   70.1125   -7.0432 C   0  0  2  0  0  0  0  0  0  0  0  0
   17.2703   70.0526  -10.4866 H   0  0  0  0  0  0  0  0  0  0  0  0
   15.7843   71.7662   -9.3046 H   0  0  0  0  0  0  0  0  0  0  0  0
   16.5824   68.3019   -5.0740 O   0  0  0  0  0  0  0  0  0  0  0  0
   15.9071   71.6825   -2.0151 O   0  0  0  0  0  0  0  0  0  0  0  0
   17.0704   70.4922   -5.7234 N   0  0  0  0  0  0  0  0  0  0  0  0
   16.2471   69.9866   -3.5525 N   0  0  0  0  0  0  0  0  0  0  0  0
   16.6315   69.5051   -4.8104 C   0  0  0  0  0  0  0  0  0  0  0  0
   17.0979   71.8303   -5.3458 C   0  0  0  0  0  0  0  0  0  0  0  0
   16.7268   72.2732   -4.1428 C   0  0  0  0  0  0  0  0  0  0  0  0
   16.2553   71.3066   -3.1302 C   0  0  0  0  0  0  0  0  0  0  0  0
   15.9373   69.3171   -2.9001 H   0  0  0  0  0  0  0  0  0  0  0  0
   22.2487   71.6803   -4.3593 O   0  0  0  0  0  0  0  0  0  0  0  0
   23.3318   72.0195   -3.2083 P   0  0  2  0  0  0  0  0  0  0  0  0
   23.9784   73.4160   -3.7072 O   0  0  0  0  0  0  0  0  0  0  0  0
   24.3316   70.9268   -2.9630 O   0  0  0  0  0  0  0  0  0  0  0  0
   22.4464   72.4178   -1.9189 O   0  0  0  0  0  0  0  0  0  0  0  0
   21.8506   71.2579    0.0601 O   0  0  0  0  0  0  0  0  0  0  0  0
   18.2335   73.0759   -0.7536 O   0  0  0  0  0  0  0  0  0  0  0  0
   19.8330   74.0185    1.4375 O   0  0  0  0  0  0  0  0  0  0  0  0
   19.8519   72.0460   -2.9215 O   0  0  0  0  0  0  0  0  0  0  0  0
   19.6593   72.9740   -0.7072 C   0  0  1  0  0  0  0  0  0  0  0  0
   20.0799   72.7936    0.7527 C   0  0  1  0  0  0  0  0  0  0  0  0
   20.1017   71.7766   -1.5461 C   0  0  2  0  0  0  0  0  0  0  0  0
   21.5624   72.4114    0.8589 C   0  0  1  0  0  0  0  0  0  0  0  0
   21.5807   71.4510   -1.3298 C   0  0  1  0  0  0  0  0  0  0  0  0
   17.9460   73.8346   -0.2233 H   0  0  0  0  0  0  0  0  0  0  0  0
   18.8936   74.2487    1.3624 H   0  0  0  0  0  0  0  0  0  0  0  0
   18.9123   72.2504   -3.0453 H   0  0  0  0  0  0  0  0  0  0  0  0
   20.7896   71.9652    3.0753 O   0  0  0  0  0  0  0  0  0  0  0  0
   21.9644   72.0729    2.2927 C   0  0  0  0  0  0  0  0  0  0  0  0
   21.0301   71.7497    3.9905 H   0  0  0  0  0  0  0  0  0  0  0  0
 25 28  1  0
 25 24  1  0
 25 26  1  6
 25 27  2  0
  1  4  1  0
  1 24  1  0
  1  2  1  1
  1  3  2  0
  6 11  1  0
  6 12  1  0
 29 36  1  0
 29 37  1  0
  9  7  1  6
  7 13  1  0
 10  8  1  6
  8 14  1  0
 37 28  1  1
  4  5  1  0
 33 30  1  1
 30 38  1  0
 34 31  1  1
 31 39  1  0
 35 32  1  6
 32 40  1  0
 41 42  1  0
 41 43  1  0
 15 19  2  0
 16 22  2  0
 12 17  1  1
 17 19  1  0
 17 20  1  0
 18 19  1  0
 18 22  1  0
 18 23  1  0
  9 10  1  0
  9 11  1  0
 10 12  1  0
 11  5  1  1
 33 34  1  0
 33 35  1  0
 34 36  1  0
 35 37  1  0
 36 42  1  1
 20 21  2  0
 21 22  1  0
M  CHG  2   2  -1  26  -1
M  END
>  <COMPND>  (96) 
    8629 

>  <AUTHOR>  (96) 
    GENERATED BY OPEN BABEL 3.1.1

>  <MASTER>  (96) 
        0    0    0    0    0    0    0    0   58    0   58    0

>  <minimizedAffinity>  (96) 
-7.54518

>  <CNNscore>  (96) 
0.5418428183

>  <CNNaffinity>  (96) 
4.2216939926

>  <CNN_VS>  (96) 
2.2874946594

>  <CNNaffinity_variance>  (96) 
0.5683817863

$$$$
97
     RDKit          3D

 43 45  0  0  0  0  0  0  0  0999 V2000
   18.2667   72.9791   -3.0186 P   0  0  2  0  0  0  0  0  0  0  0  0
   17.2614   74.2440   -2.9354 O   0  0  0  0  0  0  0  0  0  0  0  0
   17.6564   71.7189   -3.5579 O   0  0  0  0  0  0  0  0  0  0  0  0
   18.8870   72.8773   -1.5277 O   0  0  0  0  0  0  0  0  0  0  0  0
   19.7819   73.8881   -1.0972 C   0  0  0  0  0  0  0  0  0  0  0  0
   21.7434   73.7947    0.2874 O   0  0  0  0  0  0  0  0  0  0  0  0
   22.4356   71.2769   -1.1864 O   0  0  0  0  0  0  0  0  0  0  0  0
   21.4023   70.3311    1.1533 O   0  0  0  0  0  0  0  0  0  0  0  0
   21.1558   71.7686   -0.7920 C   0  0  1  0  0  0  0  0  0  0  0  0
   20.9630   71.5954    0.7002 C   0  0  2  0  0  0  0  0  0  0  0  0
   21.1707   73.2852   -0.9368 C   0  0  1  0  0  0  0  0  0  0  0  0
   21.7932   72.7380    1.2599 C   0  0  2  0  0  0  0  0  0  0  0  0
   22.4502   70.3101   -1.1027 H   0  0  0  0  0  0  0  0  0  0  0  0
   20.8430   69.6377    0.7698 H   0  0  0  0  0  0  0  0  0  0  0  0
   23.0207   72.3129    3.7679 O   0  0  0  0  0  0  0  0  0  0  0  0
   19.7322   74.6641    5.9813 O   0  0  0  0  0  0  0  0  0  0  0  0
   21.2796   73.2281    2.5078 N   0  0  0  0  0  0  0  0  0  0  0  0
   21.3824   73.4841    4.8679 N   0  0  0  0  0  0  0  0  0  0  0  0
   21.9720   72.9584    3.7112 C   0  0  0  0  0  0  0  0  0  0  0  0
   20.1020   73.9675    2.5300 C   0  0  0  0  0  0  0  0  0  0  0  0
   19.5522   74.4607    3.6416 C   0  0  0  0  0  0  0  0  0  0  0  0
   20.2128   74.2239    4.9415 C   0  0  0  0  0  0  0  0  0  0  0  0
   21.8470   73.3085    5.7183 H   0  0  0  0  0  0  0  0  0  0  0  0
   19.5025   73.5536   -3.8878 O   0  0  0  0  0  0  0  0  0  0  0  0
   20.5597   72.8042   -4.8542 P   0  0  2  0  0  0  0  0  0  0  0  0
   20.9624   71.4838   -4.0103 O   0  0  0  0  0  0  0  0  0  0  0  0
   21.7258   73.6546   -5.2673 O   0  0  0  0  0  0  0  0  0  0  0  0
   19.6695   72.2484   -6.0804 O   0  0  0  0  0  0  0  0  0  0  0  0
   18.8728   70.0170   -6.1337 O   0  0  0  0  0  0  0  0  0  0  0  0
   18.8325   70.8288  -10.1821 O   0  0  0  0  0  0  0  0  0  0  0  0
   16.3514   70.6541   -8.7462 O   0  0  0  0  0  0  0  0  0  0  0  0
   20.9811   71.8417   -8.5277 O   0  0  0  0  0  0  0  0  0  0  0  0
   18.6947   71.1314   -8.7911 C   0  0  1  0  0  0  0  0  0  0  0  0
   17.6022   70.2313   -8.2105 C   0  0  1  0  0  0  0  0  0  0  0  0
   20.0284   70.8783   -8.0908 C   0  0  2  0  0  0  0  0  0  0  0  0
   17.5797   70.3058   -6.6778 C   0  0  1  0  0  0  0  0  0  0  0  0
   19.8852   70.9269   -6.5685 C   0  0  1  0  0  0  0  0  0  0  0  0
   17.9892   70.9879  -10.6328 H   0  0  0  0  0  0  0  0  0  0  0  0
   16.3791   70.6027   -9.7146 H   0  0  0  0  0  0  0  0  0  0  0  0
   21.0628   71.8007   -9.4928 H   0  0  0  0  0  0  0  0  0  0  0  0
   17.0046   69.0342   -4.7384 O   0  0  0  0  0  0  0  0  0  0  0  0
   16.6052   69.2990   -6.0706 C   0  0  0  0  0  0  0  0  0  0  0  0
   16.3932   68.3951   -4.3391 H   0  0  0  0  0  0  0  0  0  0  0  0
 25 28  1  0
 25 24  1  0
 25 26  1  1
 25 27  2  0
  1  4  1  0
  1 24  1  0
  1  2  1  1
  1  3  2  0
  6 11  1  0
  6 12  1  0
 29 36  1  0
 29 37  1  0
  9  7  1  1
  7 13  1  0
 10  8  1  1
  8 14  1  0
 37 28  1  6
  4  5  1  0
 33 30  1  6
 30 38  1  0
 34 31  1  6
 31 39  1  0
 35 32  1  6
 32 40  1  0
 41 42  1  0
 41 43  1  0
 15 19  2  0
 16 22  2  0
 12 17  1  1
 17 19  1  0
 17 20  1  0
 18 19  1  0
 18 22  1  0
 18 23  1  0
  9 10  1  0
  9 11  1  0
 10 12  1  0
 11  5  1  1
 33 34  1  0
 33 35  1  0
 34 36  1  0
 35 37  1  0
 36 42  1  1
 20 21  2  0
 21 22  1  0
M  CHG  2   2  -1  26  -1
M  END
>  <COMPND>  (97) 
    8629 

>  <AUTHOR>  (97) 
    GENERATED BY OPEN BABEL 3.1.1

>  <MASTER>  (97) 
        0    0    0    0    0    0    0    0   58    0   58    0

>  <minimizedAffinity>  (97) 
-6.60869

>  <CNNscore>  (97) 
0.5379945040

>  <CNNaffinity>  (97) 
3.9736237526

>  <CNN_VS>  (97) 
2.1377878189

>  <CNNaffinity_variance>  (97) 
0.1022205725

$$$$
98
     RDKit          3D

 43 45  0  0  0  0  0  0  0  0999 V2000
   23.5782   73.7293   -3.9763 P   0  0  2  0  0  0  0  0  0  0  0  0
   24.3087   72.2905   -4.0930 O   0  0  0  0  0  0  0  0  0  0  0  0
   24.3346   74.8751   -4.5816 O   0  0  0  0  0  0  0  0  0  0  0  0
   23.2387   73.8658   -2.4003 O   0  0  0  0  0  0  0  0  0  0  0  0
   21.9104   73.6221   -1.9712 C   0  0  0  0  0  0  0  0  0  0  0  0
   23.0284   71.7322   -0.9955 O   0  0  0  0  0  0  0  0  0  0  0  0
   20.2986   70.5523   -0.6120 O   0  0  0  0  0  0  0  0  0  0  0  0
   20.8918   71.4990    1.8757 O   0  0  0  0  0  0  0  0  0  0  0  0
   20.7153   71.9132   -0.5136 C   0  0  1  0  0  0  0  0  0  0  0  0
   21.4946   72.1333    0.7661 C   0  0  2  0  0  0  0  0  0  0  0  0
   21.7771   72.1571   -1.5786 C   0  0  1  0  0  0  0  0  0  0  0  0
   22.8483   71.5385    0.4169 C   0  0  2  0  0  0  0  0  0  0  0  0
   19.6201   70.3728    0.0583 H   0  0  0  0  0  0  0  0  0  0  0  0
   20.0337   71.9128    2.0580 H   0  0  0  0  0  0  0  0  0  0  0  0
   24.7616   70.1812    1.9901 O   0  0  0  0  0  0  0  0  0  0  0  0
   26.9354   74.1026    3.0570 O   0  0  0  0  0  0  0  0  0  0  0  0
   23.9254   72.1799    1.1167 N   0  0  0  0  0  0  0  0  0  0  0  0
   25.8425   72.1348    2.5199 N   0  0  0  0  0  0  0  0  0  0  0  0
   24.8312   71.4070    1.8800 C   0  0  0  0  0  0  0  0  0  0  0  0
   24.0755   73.5604    1.0419 C   0  0  0  0  0  0  0  0  0  0  0  0
   25.0446   74.2395    1.6592 C   0  0  0  0  0  0  0  0  0  0  0  0
   26.0328   73.5069    2.4771 C   0  0  0  0  0  0  0  0  0  0  0  0
   26.4850   71.6174    3.0577 H   0  0  0  0  0  0  0  0  0  0  0  0
   22.1288   73.4557   -4.6378 O   0  0  0  0  0  0  0  0  0  0  0  0
   21.6700   73.3539   -6.1844 P   0  0  2  0  0  0  0  0  0  0  0  0
   22.7538   72.3392   -6.8270 O   0  0  0  0  0  0  0  0  0  0  0  0
   21.5699   74.6780   -6.8850 O   0  0  0  0  0  0  0  0  0  0  0  0
   20.2941   72.5110   -6.1477 O   0  0  0  0  0  0  0  0  0  0  0  0
   19.6620   70.3590   -5.3824 O   0  0  0  0  0  0  0  0  0  0  0  0
   17.7133   70.3632   -9.0229 O   0  0  0  0  0  0  0  0  0  0  0  0
   16.1914   70.6080   -6.5997 O   0  0  0  0  0  0  0  0  0  0  0  0
   20.3375   71.5623   -8.7884 O   0  0  0  0  0  0  0  0  0  0  0  0
   18.2232   70.9394   -7.8173 C   0  0  1  0  0  0  0  0  0  0  0  0
   17.5651   70.2311   -6.6316 C   0  0  1  0  0  0  0  0  0  0  0  0
   19.7393   70.7563   -7.7790 C   0  0  2  0  0  0  0  0  0  0  0  0
   18.2527   70.6054   -5.3116 C   0  0  1  0  0  0  0  0  0  0  0  0
   20.3163   71.1097   -6.4070 C   0  0  1  0  0  0  0  0  0  0  0  0
   16.7511   70.4765   -9.0537 H   0  0  0  0  0  0  0  0  0  0  0  0
   15.7690   70.3666   -7.4391 H   0  0  0  0  0  0  0  0  0  0  0  0
   19.9641   71.3288   -9.6520 H   0  0  0  0  0  0  0  0  0  0  0  0
   16.9996   68.6824   -4.6475 O   0  0  0  0  0  0  0  0  0  0  0  0
   17.7160   69.7914   -4.1363 C   0  0  0  0  0  0  0  0  0  0  0  0
   16.6524   68.1550   -3.9107 H   0  0  0  0  0  0  0  0  0  0  0  0
 25 28  1  0
 25 24  1  0
 25 26  1  6
 25 27  2  0
  1  4  1  0
  1 24  1  0
  1  2  1  1
  1  3  2  0
  6 11  1  0
  6 12  1  0
 29 36  1  0
 29 37  1  0
  9  7  1  1
  7 13  1  0
 10  8  1  1
  8 14  1  0
 37 28  1  1
  4  5  1  0
 33 30  1  6
 30 38  1  0
 34 31  1  1
 31 39  1  0
 35 32  1  6
 32 40  1  0
 41 42  1  0
 41 43  1  0
 15 19  2  0
 16 22  2  0
 12 17  1  1
 17 19  1  0
 17 20  1  0
 18 19  1  0
 18 22  1  0
 18 23  1  0
  9 10  1  0
  9 11  1  0
 10 12  1  0
 11  5  1  1
 33 34  1  0
 33 35  1  0
 34 36  1  0
 35 37  1  0
 36 42  1  1
 20 21  2  0
 21 22  1  0
M  CHG  2   2  -1  26  -1
M  END
>  <COMPND>  (98) 
    8629 

>  <AUTHOR>  (98) 
    GENERATED BY OPEN BABEL 3.1.1

>  <MASTER>  (98) 
        0    0    0    0    0    0    0    0   58    0   58    0

>  <minimizedAffinity>  (98) 
-7.68562

>  <CNNscore>  (98) 
0.5377657413

>  <CNNaffinity>  (98) 
4.2408595085

>  <CNN_VS>  (98) 
2.2805888653

>  <CNNaffinity_variance>  (98) 
0.1649235934

$$$$
99
     RDKit          3D

 43 45  0  0  0  0  0  0  0  0999 V2000
   20.0588   71.1518   -3.0422 P   0  0  2  0  0  0  0  0  0  0  0  0
   19.5958   70.3035   -1.7447 O   0  0  0  0  0  0  0  0  0  0  0  0
   19.7626   72.6213   -2.9774 O   0  0  0  0  0  0  0  0  0  0  0  0
   19.3948   70.3553   -4.2842 O   0  0  0  0  0  0  0  0  0  0  0  0
   19.5232   70.9029   -5.5848 C   0  0  0  0  0  0  0  0  0  0  0  0
   17.1453   70.9092   -5.9302 O   0  0  0  0  0  0  0  0  0  0  0  0
   17.7348   69.9481   -8.7086 O   0  0  0  0  0  0  0  0  0  0  0  0
   17.2500   72.6045   -9.0890 O   0  0  0  0  0  0  0  0  0  0  0  0
   18.4649   70.8676   -7.8982 C   0  0  1  0  0  0  0  0  0  0  0  0
   17.7417   72.1964   -7.8287 C   0  0  2  0  0  0  0  0  0  0  0  0
   18.3854   70.3864   -6.4547 C   0  0  1  0  0  0  0  0  0  0  0  0
   16.6308   71.8990   -6.8360 C   0  0  2  0  0  0  0  0  0  0  0  0
   17.7715   70.2343   -9.6353 H   0  0  0  0  0  0  0  0  0  0  0  0
   17.9945   72.7818   -9.6848 H   0  0  0  0  0  0  0  0  0  0  0  0
   14.7777   73.8318   -7.7351 O   0  0  0  0  0  0  0  0  0  0  0  0
   15.2134   76.3118   -3.8749 O   0  0  0  0  0  0  0  0  0  0  0  0
   16.2412   73.0597   -6.0861 N   0  0  0  0  0  0  0  0  0  0  0  0
   14.9960   75.0650   -5.8122 N   0  0  0  0  0  0  0  0  0  0  0  0
   15.3036   73.9691   -6.6287 C   0  0  0  0  0  0  0  0  0  0  0  0
   16.7868   73.2868   -4.8273 C   0  0  0  0  0  0  0  0  0  0  0  0
   16.4840   74.3374   -4.0619 C   0  0  0  0  0  0  0  0  0  0  0  0
   15.5126   75.3350   -4.5549 C   0  0  0  0  0  0  0  0  0  0  0  0
   14.3454   75.7120   -6.1697 H   0  0  0  0  0  0  0  0  0  0  0  0
   21.6280   70.7870   -3.1739 O   0  0  0  0  0  0  0  0  0  0  0  0
   22.9449   71.5529   -2.6333 P   0  0  2  0  0  0  0  0  0  0  0  0
   22.7486   73.0617   -3.1832 O   0  0  0  0  0  0  0  0  0  0  0  0
   24.2400   70.9101   -3.0375 O   0  0  0  0  0  0  0  0  0  0  0  0
   22.7246   71.6683   -1.0386 O   0  0  0  0  0  0  0  0  0  0  0  0
   21.4843   73.5423   -0.2860 O   0  0  0  0  0  0  0  0  0  0  0  0
   23.2006   72.4062    3.2938 O   0  0  0  0  0  0  0  0  0  0  0  0
   20.3991   71.9496    2.8564 O   0  0  0  0  0  0  0  0  0  0  0  0
   24.7291   72.2363    0.8414 O   0  0  0  0  0  0  0  0  0  0  0  0
   22.6197   72.1987    2.0034 C   0  0  1  0  0  0  0  0  0  0  0  0
   21.2024   72.7747    2.0173 C   0  0  1  0  0  0  0  0  0  0  0  0
   23.4757   72.9020    0.9518 C   0  0  2  0  0  0  0  0  0  0  0  0
   20.6134   72.8309    0.6013 C   0  0  1  0  0  0  0  0  0  0  0  0
   22.7769   72.9456   -0.4083 C   0  0  1  0  0  0  0  0  0  0  0  0
   22.6621   71.9617    3.9661 H   0  0  0  0  0  0  0  0  0  0  0  0
   20.7821   71.9222    3.7473 H   0  0  0  0  0  0  0  0  0  0  0  0
   25.1616   72.2156    1.7088 H   0  0  0  0  0  0  0  0  0  0  0  0
   19.1403   74.3213    1.7490 O   0  0  0  0  0  0  0  0  0  0  0  0
   19.2645   73.5462    0.5709 C   0  0  0  0  0  0  0  0  0  0  0  0
   18.2865   74.7826    1.7433 H   0  0  0  0  0  0  0  0  0  0  0  0
 25 28  1  0
 25 24  1  0
 25 26  1  6
 25 27  2  0
  1  4  1  0
  1 24  1  0
  1  2  1  1
  1  3  2  0
  6 11  1  0
  6 12  1  0
 29 36  1  0
 29 37  1  0
  9  7  1  6
  7 13  1  0
 10  8  1  6
  8 14  1  0
 37 28  1  1
  4  5  1  0
 33 30  1  1
 30 38  1  0
 34 31  1  1
 31 39  1  0
 35 32  1  6
 32 40  1  0
 41 42  1  0
 41 43  1  0
 15 19  2  0
 16 22  2  0
 12 17  1  1
 17 19  1  0
 17 20  1  0
 18 19  1  0
 18 22  1  0
 18 23  1  0
  9 10  1  0
  9 11  1  0
 10 12  1  0
 11  5  1  1
 33 34  1  0
 33 35  1  0
 34 36  1  0
 35 37  1  0
 36 42  1  1
 20 21  2  0
 21 22  1  0
M  CHG  2   2  -1  26  -1
M  END
>  <COMPND>  (99) 
    8629 

>  <AUTHOR>  (99) 
    GENERATED BY OPEN BABEL 3.1.1

>  <MASTER>  (99) 
        0    0    0    0    0    0    0    0   58    0   58    0

>  <minimizedAffinity>  (99) 
-6.11310

>  <CNNscore>  (99) 
0.5244295597

>  <CNNaffinity>  (99) 
4.0413885117

>  <CNN_VS>  (99) 
2.1194236279

>  <CNNaffinity_variance>  (99) 
0.0667395666

$$$$
100
     RDKit          3D

 43 45  0  0  0  0  0  0  0  0999 V2000
   19.3493   75.0081   -4.5272 P   0  0  2  0  0  0  0  0  0  0  0  0
   20.9452   75.2416   -4.4008 O   0  0  0  0  0  0  0  0  0  0  0  0
   18.5338   75.5834   -3.4067 O   0  0  0  0  0  0  0  0  0  0  0  0
   19.2069   73.4122   -4.7524 O   0  0  0  0  0  0  0  0  0  0  0  0
   19.1384   72.5721   -3.6133 C   0  0  0  0  0  0  0  0  0  0  0  0
   17.2067   71.9247   -4.8874 O   0  0  0  0  0  0  0  0  0  0  0  0
   16.5087   70.1484   -2.5748 O   0  0  0  0  0  0  0  0  0  0  0  0
   17.5989   68.3990   -4.3602 O   0  0  0  0  0  0  0  0  0  0  0  0
   17.7915   70.4738   -3.1074 C   0  0  1  0  0  0  0  0  0  0  0  0
   18.0167   69.7477   -4.4172 C   0  0  2  0  0  0  0  0  0  0  0  0
   17.7590   71.9305   -3.5527 C   0  0  1  0  0  0  0  0  0  0  0  0
   17.1872   70.5762   -5.3834 C   0  0  2  0  0  0  0  0  0  0  0  0
   16.5051   69.2227   -2.2833 H   0  0  0  0  0  0  0  0  0  0  0  0
   18.1569   67.9138   -3.7325 H   0  0  0  0  0  0  0  0  0  0  0  0
   15.6339   70.2694   -7.7225 O   0  0  0  0  0  0  0  0  0  0  0  0
   19.3454   70.5342  -10.4420 O   0  0  0  0  0  0  0  0  0  0  0  0
   17.7216   70.5617   -6.7159 N   0  0  0  0  0  0  0  0  0  0  0  0
   17.4832   70.4017   -9.0747 N   0  0  0  0  0  0  0  0  0  0  0  0
   16.8556   70.4007   -7.8225 C   0  0  0  0  0  0  0  0  0  0  0  0
   19.0903   70.7065   -6.9152 C   0  0  0  0  0  0  0  0  0  0  0  0
   19.6732   70.7039   -8.1158 C   0  0  0  0  0  0  0  0  0  0  0  0
   18.8393   70.5408   -9.3241 C   0  0  0  0  0  0  0  0  0  0  0  0
   16.8997   70.2906   -9.8602 H   0  0  0  0  0  0  0  0  0  0  0  0
   19.0080   75.6128   -5.9869 O   0  0  0  0  0  0  0  0  0  0  0  0
   18.1980   76.9422   -6.4224 P   0  0  2  0  0  0  0  0  0  0  0  0
   19.0376   77.4888   -7.6928 O   0  0  0  0  0  0  0  0  0  0  0  0
   18.0221   77.9447   -5.3187 O   0  0  0  0  0  0  0  0  0  0  0  0
   16.8178   76.3917   -7.0522 O   0  0  0  0  0  0  0  0  0  0  0  0
   14.8259   75.5347   -6.0959 O   0  0  0  0  0  0  0  0  0  0  0  0
   15.2352   72.8946   -9.2445 O   0  0  0  0  0  0  0  0  0  0  0  0
   13.1806   74.8993   -9.3329 O   0  0  0  0  0  0  0  0  0  0  0  0
   17.5776   73.7966   -7.8026 O   0  0  0  0  0  0  0  0  0  0  0  0
   15.3286   74.1600   -8.5846 C   0  0  1  0  0  0  0  0  0  0  0  0
   13.9217   74.5833   -8.1577 C   0  0  1  0  0  0  0  0  0  0  0  0
   16.2411   74.0219   -7.3673 C   0  0  2  0  0  0  0  0  0  0  0  0
   13.9694   75.7930   -7.2146 C   0  0  1  0  0  0  0  0  0  0  0  0
   16.1772   75.2594   -6.4702 C   0  0  1  0  0  0  0  0  0  0  0  0
   14.6576   72.9755  -10.0187 H   0  0  0  0  0  0  0  0  0  0  0  0
   13.1585   74.1274   -9.9201 H   0  0  0  0  0  0  0  0  0  0  0  0
   17.6047   73.0105   -8.3693 H   0  0  0  0  0  0  0  0  0  0  0  0
   11.7637   74.9914   -6.7663 O   0  0  0  0  0  0  0  0  0  0  0  0
   12.5914   76.1343   -6.6520 C   0  0  0  0  0  0  0  0  0  0  0  0
   10.8833   75.1937   -6.4117 H   0  0  0  0  0  0  0  0  0  0  0  0
 25 28  1  0
 25 24  1  0
 25 26  1  6
 25 27  2  0
  1  4  1  0
  1 24  1  0
  1  2  1  1
  1  3  2  0
  6 11  1  0
  6 12  1  0
 29 36  1  0
 29 37  1  0
  9  7  1  6
  7 13  1  0
 10  8  1  1
  8 14  1  0
 37 28  1  6
  4  5  1  0
 33 30  1  1
 30 38  1  0
 34 31  1  6
 31 39  1  0
 35 32  1  6
 32 40  1  0
 41 42  1  0
 41 43  1  0
 15 19  2  0
 16 22  2  0
 12 17  1  6
 17 19  1  0
 17 20  1  0
 18 19  1  0
 18 22  1  0
 18 23  1  0
  9 10  1  0
  9 11  1  0
 10 12  1  0
 11  5  1  6
 33 34  1  0
 33 35  1  0
 34 36  1  0
 35 37  1  0
 36 42  1  1
 20 21  2  0
 21 22  1  0
M  CHG  2   2  -1  26  -1
M  END
>  <COMPND>  (100) 
    8629 

>  <AUTHOR>  (100) 
    GENERATED BY OPEN BABEL 3.1.1

>  <MASTER>  (100) 
        0    0    0    0    0    0    0    0   58    0   58    0

>  <minimizedAffinity>  (100) 
-5.51943

>  <CNNscore>  (100) 
0.5136219859

>  <CNNaffinity>  (100) 
4.2968797684

>  <CNN_VS>  (100) 
2.2069718838

>  <CNNaffinity_variance>  (100) 
0.1846563667

$$$$
101
     RDKit          3D

 43 45  0  0  0  0  0  0  0  0999 V2000
   22.9215   71.6193   -2.4890 P   0  0  2  0  0  0  0  0  0  0  0  0
   22.5487   73.0141   -3.2192 O   0  0  0  0  0  0  0  0  0  0  0  0
   24.1934   70.9776   -2.9601 O   0  0  0  0  0  0  0  0  0  0  0  0
   21.5821   70.7261   -2.6507 O   0  0  0  0  0  0  0  0  0  0  0  0
   20.8885   70.7650   -3.8857 C   0  0  0  0  0  0  0  0  0  0  0  0
   18.9455   71.7960   -4.8530 O   0  0  0  0  0  0  0  0  0  0  0  0
   17.4043   70.5869   -2.5828 O   0  0  0  0  0  0  0  0  0  0  0  0
   16.8586   68.8867   -4.6439 O   0  0  0  0  0  0  0  0  0  0  0  0
   18.5156   70.0559   -3.3028 C   0  0  1  0  0  0  0  0  0  0  0  0
   18.0799   69.5967   -4.6786 C   0  0  2  0  0  0  0  0  0  0  0  0
   19.4540   71.2094   -3.6349 C   0  0  1  0  0  0  0  0  0  0  0  0
   17.9700   70.9126   -5.4299 C   0  0  2  0  0  0  0  0  0  0  0  0
   16.7911   69.8686   -2.3593 H   0  0  0  0  0  0  0  0  0  0  0  0
   16.9802   68.0576   -4.1555 H   0  0  0  0  0  0  0  0  0  0  0  0
   16.0638   70.1089   -7.3529 O   0  0  0  0  0  0  0  0  0  0  0  0
   19.1329   70.3885  -10.7798 O   0  0  0  0  0  0  0  0  0  0  0  0
   18.2436   70.7675   -6.8318 N   0  0  0  0  0  0  0  0  0  0  0  0
   17.5934   70.2489   -9.0577 N   0  0  0  0  0  0  0  0  0  0  0  0
   17.2162   70.3573   -7.7131 C   0  0  0  0  0  0  0  0  0  0  0  0
   19.5188   71.0310   -7.3199 C   0  0  0  0  0  0  0  0  0  0  0  0
   19.8627   70.9217   -8.6048 C   0  0  0  0  0  0  0  0  0  0  0  0
   18.8479   70.4985   -9.5913 C   0  0  0  0  0  0  0  0  0  0  0  0
   16.8942   69.9643   -9.6901 H   0  0  0  0  0  0  0  0  0  0  0  0
   22.9077   72.0145   -0.9217 O   0  0  0  0  0  0  0  0  0  0  0  0
   21.6909   72.4318    0.0572 P   0  0  2  0  0  0  0  0  0  0  0  0
   21.1628   71.0097    0.6196 O   0  0  0  0  0  0  0  0  0  0  0  0
   20.6324   73.2697   -0.5996 O   0  0  0  0  0  0  0  0  0  0  0  0
   22.4068   73.1305    1.3238 O   0  0  0  0  0  0  0  0  0  0  0  0
   24.4854   72.8104    2.4163 O   0  0  0  0  0  0  0  0  0  0  0  0
   22.0606   73.2561    5.7288 O   0  0  0  0  0  0  0  0  0  0  0  0
   23.8694   75.3650    5.0015 O   0  0  0  0  0  0  0  0  0  0  0  0
   21.0972   71.8008    3.4194 O   0  0  0  0  0  0  0  0  0  0  0  0
   22.4954   73.5053    4.3893 C   0  0  1  0  0  0  0  0  0  0  0  0
   23.9221   74.0553    4.4427 C   0  0  1  0  0  0  0  0  0  0  0  0
   22.4521   72.1988    3.5992 C   0  0  2  0  0  0  0  0  0  0  0  0
   24.5528   74.0960    3.0443 C   0  0  1  0  0  0  0  0  0  0  0  0
   23.1490   72.3347    2.2442 C   0  0  1  0  0  0  0  0  0  0  0  0
   22.0853   74.0818    6.2358 H   0  0  0  0  0  0  0  0  0  0  0  0
   23.4687   75.3253    5.8842 H   0  0  0  0  0  0  0  0  0  0  0  0
   20.6671   71.7179    4.2843 H   0  0  0  0  0  0  0  0  0  0  0  0
   26.6879   73.6499    4.0195 O   0  0  0  0  0  0  0  0  0  0  0  0
   26.0269   74.4919    3.0930 C   0  0  0  0  0  0  0  0  0  0  0  0
   27.6273   73.8901    4.0608 H   0  0  0  0  0  0  0  0  0  0  0  0
 25 28  1  0
 25 24  1  0
 25 26  1  1
 25 27  2  0
  1  4  1  0
  1 24  1  0
  1  2  1  6
  1  3  2  0
  6 11  1  0
  6 12  1  0
 29 36  1  0
 29 37  1  0
  9  7  1  1
  7 13  1  0
 10  8  1  1
  8 14  1  0
 37 28  1  6
  4  5  1  0
 33 30  1  1
 30 38  1  0
 34 31  1  6
 31 39  1  0
 35 32  1  6
 32 40  1  0
 41 42  1  0
 41 43  1  0
 15 19  2  0
 16 22  2  0
 12 17  1  6
 17 19  1  0
 17 20  1  0
 18 19  1  0
 18 22  1  0
 18 23  1  0
  9 10  1  0
  9 11  1  0
 10 12  1  0
 11  5  1  6
 33 34  1  0
 33 35  1  0
 34 36  1  0
 35 37  1  0
 36 42  1  1
 20 21  2  0
 21 22  1  0
M  CHG  2   2  -1  26  -1
M  END
>  <COMPND>  (101) 
    8629 

>  <AUTHOR>  (101) 
    GENERATED BY OPEN BABEL 3.1.1

>  <MASTER>  (101) 
        0    0    0    0    0    0    0    0   58    0   58    0

>  <minimizedAffinity>  (101) 
-7.55654

>  <CNNscore>  (101) 
0.8976363540

>  <CNNaffinity>  (101) 
4.6263723373

>  <CNN_VS>  (101) 
4.1528000832

>  <CNNaffinity_variance>  (101) 
0.0587270968

$$$$
102
     RDKit          3D

 43 45  0  0  0  0  0  0  0  0999 V2000
   22.7468   71.5957   -2.6557 P   0  0  2  0  0  0  0  0  0  0  0  0
   24.1631   70.9471   -3.0926 O   0  0  0  0  0  0  0  0  0  0  0  0
   22.2639   71.2026   -1.2906 O   0  0  0  0  0  0  0  0  0  0  0  0
   21.7576   71.2310   -3.8830 O   0  0  0  0  0  0  0  0  0  0  0  0
   20.8053   70.1978   -3.6997 C   0  0  0  0  0  0  0  0  0  0  0  0
   19.0437   71.5394   -4.6328 O   0  0  0  0  0  0  0  0  0  0  0  0
   17.3019   70.4306   -2.4585 O   0  0  0  0  0  0  0  0  0  0  0  0
   16.5735   68.9392   -4.6222 O   0  0  0  0  0  0  0  0  0  0  0  0
   18.3454   69.7920   -3.1924 C   0  0  1  0  0  0  0  0  0  0  0  0
   17.8811   69.4745   -4.5985 C   0  0  2  0  0  0  0  0  0  0  0  0
   19.4402   70.8214   -3.4438 C   0  0  1  0  0  0  0  0  0  0  0  0
   17.9692   70.8326   -5.2736 C   0  0  2  0  0  0  0  0  0  0  0  0
   16.5913   69.7926   -2.2856 H   0  0  0  0  0  0  0  0  0  0  0  0
   16.5696   68.0754   -4.1810 H   0  0  0  0  0  0  0  0  0  0  0  0
   16.0316   70.2825   -7.2538 O   0  0  0  0  0  0  0  0  0  0  0  0
   19.1654   70.4571  -10.6288 O   0  0  0  0  0  0  0  0  0  0  0  0
   18.2510   70.7291   -6.6776 N   0  0  0  0  0  0  0  0  0  0  0  0
   17.5935   70.3701   -8.9327 N   0  0  0  0  0  0  0  0  0  0  0  0
   17.2063   70.4484   -7.5888 C   0  0  0  0  0  0  0  0  0  0  0  0
   19.5512   70.9055   -7.1383 C   0  0  0  0  0  0  0  0  0  0  0  0
   19.9042   70.8263   -8.4230 C   0  0  0  0  0  0  0  0  0  0  0  0
   18.8726   70.5364   -9.4397 C   0  0  0  0  0  0  0  0  0  0  0  0
   16.8825   70.1751   -9.5856 H   0  0  0  0  0  0  0  0  0  0  0  0
   22.9976   73.1808   -2.8500 O   0  0  0  0  0  0  0  0  0  0  0  0
   21.9583   74.4122   -2.9774 P   0  0  2  0  0  0  0  0  0  0  0  0
   22.6288   75.5606   -2.0559 O   0  0  0  0  0  0  0  0  0  0  0  0
   20.5456   74.0661   -2.6053 O   0  0  0  0  0  0  0  0  0  0  0  0
   22.1401   74.9454   -4.4899 O   0  0  0  0  0  0  0  0  0  0  0  0
   20.4832   75.3541   -6.1343 O   0  0  0  0  0  0  0  0  0  0  0  0
   23.5297   74.0235   -8.5837 O   0  0  0  0  0  0  0  0  0  0  0  0
   22.8289   76.8086   -8.5779 O   0  0  0  0  0  0  0  0  0  0  0  0
   23.1105   72.7881   -5.9996 O   0  0  0  0  0  0  0  0  0  0  0  0
   22.9646   74.6999   -7.4573 C   0  0  1  0  0  0  0  0  0  0  0  0
   22.0296   75.7947   -7.9749 C   0  0  1  0  0  0  0  0  0  0  0  0
   22.1938   73.6930   -6.6056 C   0  0  2  0  0  0  0  0  0  0  0  0
   21.1854   76.3856   -6.8377 C   0  0  1  0  0  0  0  0  0  0  0  0
   21.3490   74.3876   -5.5360 C   0  0  1  0  0  0  0  0  0  0  0  0
   24.0209   74.6572   -9.1284 H   0  0  0  0  0  0  0  0  0  0  0  0
   23.3573   76.4223   -9.2939 H   0  0  0  0  0  0  0  0  0  0  0  0
   23.6390   72.3546   -6.6870 H   0  0  0  0  0  0  0  0  0  0  0  0
   19.8862   77.0805   -8.7187 O   0  0  0  0  0  0  0  0  0  0  0  0
   20.1358   77.3669   -7.3549 C   0  0  0  0  0  0  0  0  0  0  0  0
   19.2198   77.6971   -9.0613 H   0  0  0  0  0  0  0  0  0  0  0  0
 25 28  1  0
 25 24  1  0
 25 26  1  1
 25 27  2  0
  1  4  1  0
  1 24  1  0
  1  2  1  6
  1  3  2  0
  6 11  1  0
  6 12  1  0
 29 36  1  0
 29 37  1  0
  9  7  1  1
  7 13  1  0
 10  8  1  1
  8 14  1  0
 37 28  1  1
  4  5  1  0
 33 30  1  6
 30 38  1  0
 34 31  1  1
 31 39  1  0
 35 32  1  1
 32 40  1  0
 41 42  1  0
 41 43  1  0
 15 19  2  0
 16 22  2  0
 12 17  1  6
 17 19  1  0
 17 20  1  0
 18 19  1  0
 18 22  1  0
 18 23  1  0
  9 10  1  0
  9 11  1  0
 10 12  1  0
 11  5  1  6
 33 34  1  0
 33 35  1  0
 34 36  1  0
 35 37  1  0
 36 42  1  6
 20 21  2  0
 21 22  1  0
M  CHG  2   2  -1  26  -1
M  END
>  <COMPND>  (102) 
    8629 

>  <AUTHOR>  (102) 
    GENERATED BY OPEN BABEL 3.1.1

>  <MASTER>  (102) 
        0    0    0    0    0    0    0    0   58    0   58    0

>  <minimizedAffinity>  (102) 
-7.24700

>  <CNNscore>  (102) 
0.8942559361

>  <CNNaffinity>  (102) 
4.6739330292

>  <CNN_VS>  (102) 
4.1796922684

>  <CNNaffinity_variance>  (102) 
0.3096414208

$$$$
103
     RDKit          3D

 43 45  0  0  0  0  0  0  0  0999 V2000
   22.9488   71.5846   -2.2082 P   0  0  2  0  0  0  0  0  0  0  0  0
   22.4452   73.1192   -2.1150 O   0  0  0  0  0  0  0  0  0  0  0  0
   24.1280   71.3580   -3.1080 O   0  0  0  0  0  0  0  0  0  0  0  0
   21.6093   70.7584   -2.5838 O   0  0  0  0  0  0  0  0  0  0  0  0
   20.9656   71.0377   -3.8149 C   0  0  0  0  0  0  0  0  0  0  0  0
   18.9356   71.9057   -4.7633 O   0  0  0  0  0  0  0  0  0  0  0  0
   17.5271   70.6295   -2.4442 O   0  0  0  0  0  0  0  0  0  0  0  0
   17.0719   68.8560   -4.4652 O   0  0  0  0  0  0  0  0  0  0  0  0
   18.6617   70.1679   -3.1756 C   0  0  1  0  0  0  0  0  0  0  0  0
   18.2370   69.6526   -4.5349 C   0  0  2  0  0  0  0  0  0  0  0  0
   19.5069   71.3806   -3.5450 C   0  0  1  0  0  0  0  0  0  0  0  0
   18.0177   70.9428   -5.3066 C   0  0  2  0  0  0  0  0  0  0  0  0
   16.9722   69.8726   -2.1969 H   0  0  0  0  0  0  0  0  0  0  0  0
   17.2625   68.0473   -3.9648 H   0  0  0  0  0  0  0  0  0  0  0  0
   16.1144   70.0525   -7.1940 O   0  0  0  0  0  0  0  0  0  0  0  0
   19.1243   70.4013  -10.6667 O   0  0  0  0  0  0  0  0  0  0  0  0
   18.2769   70.7920   -6.7107 N   0  0  0  0  0  0  0  0  0  0  0  0
   17.6146   70.2271   -8.9217 N   0  0  0  0  0  0  0  0  0  0  0  0
   17.2524   70.3369   -7.5730 C   0  0  0  0  0  0  0  0  0  0  0  0
   19.5353   71.0944   -7.2194 C   0  0  0  0  0  0  0  0  0  0  0  0
   19.8650   70.9831   -8.5079 C   0  0  0  0  0  0  0  0  0  0  0  0
   18.8521   70.5143   -9.4755 C   0  0  0  0  0  0  0  0  0  0  0  0
   16.9170   69.9115   -9.5410 H   0  0  0  0  0  0  0  0  0  0  0  0
   23.1976   71.1891   -0.6607 O   0  0  0  0  0  0  0  0  0  0  0  0
   22.2056   71.2187    0.6152 P   0  0  2  0  0  0  0  0  0  0  0  0
   23.0905   70.5428    1.7890 O   0  0  0  0  0  0  0  0  0  0  0  0
   20.8796   70.5553    0.3793 O   0  0  0  0  0  0  0  0  0  0  0  0
   22.1105   72.7775    1.0227 O   0  0  0  0  0  0  0  0  0  0  0  0
   21.1660   74.0382    2.7933 O   0  0  0  0  0  0  0  0  0  0  0  0
   19.8029   76.2674   -0.4041 O   0  0  0  0  0  0  0  0  0  0  0  0
   21.8960   77.3112    1.2625 O   0  0  0  0  0  0  0  0  0  0  0  0
   19.8957   73.3803   -0.5918 O   0  0  0  0  0  0  0  0  0  0  0  0
   20.7323   75.4500    0.3125 C   0  0  1  0  0  0  0  0  0  0  0  0
   21.1093   76.1740    1.6065 C   0  0  1  0  0  0  0  0  0  0  0  0
   20.0791   74.1039    0.6203 C   0  0  2  0  0  0  0  0  0  0  0  0
   21.8900   75.2501    2.5509 C   0  0  1  0  0  0  0  0  0  0  0  0
   20.9129   73.2838    1.6064 C   0  0  1  0  0  0  0  0  0  0  0  0
   20.2116   77.1235   -0.6031 H   0  0  0  0  0  0  0  0  0  0  0  0
   21.3917   77.8861    0.6656 H   0  0  0  0  0  0  0  0  0  0  0  0
   19.3662   73.9098   -1.2074 H   0  0  0  0  0  0  0  0  0  0  0  0
   23.0673   75.1051    4.6251 O   0  0  0  0  0  0  0  0  0  0  0  0
   22.1394   75.9002    3.9101 C   0  0  0  0  0  0  0  0  0  0  0  0
   23.2358   75.5069    5.4921 H   0  0  0  0  0  0  0  0  0  0  0  0
 25 28  1  0
 25 24  1  0
 25 26  1  1
 25 27  2  0
  1  4  1  0
  1 24  1  0
  1  2  1  1
  1  3  2  0
  6 11  1  0
  6 12  1  0
 29 36  1  0
 29 37  1  0
  9  7  1  1
  7 13  1  0
 10  8  1  1
  8 14  1  0
 37 28  1  6
  4  5  1  0
 33 30  1  1
 30 38  1  0
 34 31  1  6
 31 39  1  0
 35 32  1  6
 32 40  1  0
 41 42  1  0
 41 43  1  0
 15 19  2  0
 16 22  2  0
 12 17  1  6
 17 19  1  0
 17 20  1  0
 18 19  1  0
 18 22  1  0
 18 23  1  0
  9 10  1  0
  9 11  1  0
 10 12  1  0
 11  5  1  6
 33 34  1  0
 33 35  1  0
 34 36  1  0
 35 37  1  0
 36 42  1  1
 20 21  2  0
 21 22  1  0
M  CHG  2   2  -1  26  -1
M  END
>  <COMPND>  (103) 
    8629 

>  <AUTHOR>  (103) 
    GENERATED BY OPEN BABEL 3.1.1

>  <MASTER>  (103) 
        0    0    0    0    0    0    0    0   58    0   58    0

>  <minimizedAffinity>  (103) 
-6.76712

>  <CNNscore>  (103) 
0.8933960795

>  <CNNaffinity>  (103) 
4.7883863449

>  <CNN_VS>  (103) 
4.2779254913

>  <CNNaffinity_variance>  (103) 
0.1469559222

$$$$
104
     RDKit          3D

 43 45  0  0  0  0  0  0  0  0999 V2000
   22.9123   71.4923   -2.3089 P   0  0  2  0  0  0  0  0  0  0  0  0
   22.5875   73.0587   -2.5507 O   0  0  0  0  0  0  0  0  0  0  0  0
   24.1174   70.9751   -3.0381 O   0  0  0  0  0  0  0  0  0  0  0  0
   21.5149   70.7494   -2.6455 O   0  0  0  0  0  0  0  0  0  0  0  0
   20.8886   71.0178   -3.8879 C   0  0  0  0  0  0  0  0  0  0  0  0
   18.8808   71.9017   -4.8682 O   0  0  0  0  0  0  0  0  0  0  0  0
   17.4264   70.6411   -2.5690 O   0  0  0  0  0  0  0  0  0  0  0  0
   16.9867   68.8685   -4.5942 O   0  0  0  0  0  0  0  0  0  0  0  0
   18.5679   70.1687   -3.2825 C   0  0  1  0  0  0  0  0  0  0  0  0
   18.1595   69.6550   -4.6474 C   0  0  2  0  0  0  0  0  0  0  0  0
   19.4290   71.3735   -3.6407 C   0  0  1  0  0  0  0  0  0  0  0  0
   17.9630   70.9459   -5.4240 C   0  0  2  0  0  0  0  0  0  0  0  0
   16.8614   69.8893   -2.3291 H   0  0  0  0  0  0  0  0  0  0  0  0
   17.1628   68.0589   -4.0900 H   0  0  0  0  0  0  0  0  0  0  0  0
   16.0967   70.0176   -7.3301 O   0  0  0  0  0  0  0  0  0  0  0  0
   19.1452   70.3897  -10.7665 O   0  0  0  0  0  0  0  0  0  0  0  0
   18.2421   70.7908   -6.8238 N   0  0  0  0  0  0  0  0  0  0  0  0
   17.6161   70.2038   -9.0396 N   0  0  0  0  0  0  0  0  0  0  0  0
   17.2353   70.3161   -7.6963 C   0  0  0  0  0  0  0  0  0  0  0  0
   19.5025   71.1083   -7.3184 C   0  0  0  0  0  0  0  0  0  0  0  0
   19.8500   70.9943   -8.6020 C   0  0  0  0  0  0  0  0  0  0  0  0
   18.8563   70.5055   -9.5795 C   0  0  0  0  0  0  0  0  0  0  0  0
   16.9311   69.8747   -9.6659 H   0  0  0  0  0  0  0  0  0  0  0  0
   23.0026   71.3842   -0.6986 O   0  0  0  0  0  0  0  0  0  0  0  0
   21.8965   71.6596    0.4475 P   0  0  2  0  0  0  0  0  0  0  0  0
   21.5384   70.1752    0.9819 O   0  0  0  0  0  0  0  0  0  0  0  0
   20.7104   72.4524   -0.0199 O   0  0  0  0  0  0  0  0  0  0  0  0
   22.7216   72.3401    1.6563 O   0  0  0  0  0  0  0  0  0  0  0  0
   22.3959   74.0382    3.2771 O   0  0  0  0  0  0  0  0  0  0  0  0
   26.0487   75.2478    1.7790 O   0  0  0  0  0  0  0  0  0  0  0  0
   25.9083   74.0720    4.3955 O   0  0  0  0  0  0  0  0  0  0  0  0
   24.0386   74.1765   -0.0074 O   0  0  0  0  0  0  0  0  0  0  0  0
   25.0511   74.3024    2.1745 C   0  0  1  0  0  0  0  0  0  0  0  0
   24.7640   74.5028    3.6638 C   0  0  1  0  0  0  0  0  0  0  0  0
   23.7879   74.5344    1.3474 C   0  0  2  0  0  0  0  0  0  0  0  0
   23.5225   73.7132    4.0998 C   0  0  1  0  0  0  0  0  0  0  0  0
   22.6007   73.7400    1.8947 C   0  0  1  0  0  0  0  0  0  0  0  0
   26.8536   75.1056    2.3001 H   0  0  0  0  0  0  0  0  0  0  0  0
   26.6853   74.5781    4.1103 H   0  0  0  0  0  0  0  0  0  0  0  0
   24.7921   74.6864   -0.3423 H   0  0  0  0  0  0  0  0  0  0  0  0
   22.0518   73.1733    5.9039 O   0  0  0  0  0  0  0  0  0  0  0  0
   23.1256   74.0219    5.5418 C   0  0  0  0  0  0  0  0  0  0  0  0
   21.7888   73.3583    6.8195 H   0  0  0  0  0  0  0  0  0  0  0  0
 25 28  1  0
 25 24  1  0
 25 26  1  1
 25 27  2  0
  1  4  1  0
  1 24  1  0
  1  2  1  1
  1  3  2  0
  6 11  1  0
  6 12  1  0
 29 36  1  0
 29 37  1  0
  9  7  1  1
  7 13  1  0
 10  8  1  1
  8 14  1  0
 37 28  1  1
  4  5  1  0
 33 30  1  6
 30 38  1  0
 34 31  1  1
 31 39  1  0
 35 32  1  6
 32 40  1  0
 41 42  1  0
 41 43  1  0
 15 19  2  0
 16 22  2  0
 12 17  1  6
 17 19  1  0
 17 20  1  0
 18 19  1  0
 18 22  1  0
 18 23  1  0
  9 10  1  0
  9 11  1  0
 10 12  1  0
 11  5  1  6
 33 34  1  0
 33 35  1  0
 34 36  1  0
 35 37  1  0
 36 42  1  1
 20 21  2  0
 21 22  1  0
M  CHG  2   2  -1  26  -1
M  END
>  <COMPND>  (104) 
    8629 

>  <AUTHOR>  (104) 
    GENERATED BY OPEN BABEL 3.1.1

>  <MASTER>  (104) 
        0    0    0    0    0    0    0    0   58    0   58    0

>  <minimizedAffinity>  (104) 
-7.58980

>  <CNNscore>  (104) 
0.8833312988

>  <CNNaffinity>  (104) 
4.6428947449

>  <CNN_VS>  (104) 
4.1012144089

>  <CNNaffinity_variance>  (104) 
0.0668237656

$$$$
105
     RDKit          3D

 43 45  0  0  0  0  0  0  0  0999 V2000
   21.4389   73.3434   -4.5200 P   0  0  2  0  0  0  0  0  0  0  0  0
   20.6238   74.7382   -4.4339 O   0  0  0  0  0  0  0  0  0  0  0  0
   21.4849   72.7194   -5.8838 O   0  0  0  0  0  0  0  0  0  0  0  0
   20.7800   72.4358   -3.3539 O   0  0  0  0  0  0  0  0  0  0  0  0
   20.1542   71.2176   -3.7175 C   0  0  0  0  0  0  0  0  0  0  0  0
   18.1819   71.8515   -4.9349 O   0  0  0  0  0  0  0  0  0  0  0  0
   16.6328   70.4280   -2.7984 O   0  0  0  0  0  0  0  0  0  0  0  0
   16.6454   68.6124   -4.8331 O   0  0  0  0  0  0  0  0  0  0  0  0
   17.8974   70.0957   -3.3690 C   0  0  1  0  0  0  0  0  0  0  0  0
   17.7139   69.5345   -4.7637 C   0  0  2  0  0  0  0  0  0  0  0  0
   18.6438   71.3951   -3.6447 C   0  0  1  0  0  0  0  0  0  0  0  0
   17.4554   70.7912   -5.5775 C   0  0  2  0  0  0  0  0  0  0  0  0
   16.1378   69.6139   -2.6133 H   0  0  0  0  0  0  0  0  0  0  0  0
   16.8576   67.8307   -4.2996 H   0  0  0  0  0  0  0  0  0  0  0  0
   15.7678   70.3094   -7.7906 O   0  0  0  0  0  0  0  0  0  0  0  0
   19.3141   70.3390  -10.7340 O   0  0  0  0  0  0  0  0  0  0  0  0
   17.9110   70.6688   -6.9335 N   0  0  0  0  0  0  0  0  0  0  0  0
   17.5350   70.3248   -9.2544 N   0  0  0  0  0  0  0  0  0  0  0  0
   16.9816   70.4259   -7.9716 C   0  0  0  0  0  0  0  0  0  0  0  0
   19.2658   70.7899   -7.2230 C   0  0  0  0  0  0  0  0  0  0  0  0
   19.7776   70.6897   -8.4515 C   0  0  0  0  0  0  0  0  0  0  0  0
   18.8743   70.4364   -9.5926 C   0  0  0  0  0  0  0  0  0  0  0  0
   16.9065   70.1553   -9.9934 H   0  0  0  0  0  0  0  0  0  0  0  0
   22.8844   73.7287   -3.9074 O   0  0  0  0  0  0  0  0  0  0  0  0
   23.9155   74.9148   -4.2854 P   0  0  2  0  0  0  0  0  0  0  0  0
   25.3608   74.2727   -3.9442 O   0  0  0  0  0  0  0  0  0  0  0  0
   23.6369   76.2167   -3.5915 O   0  0  0  0  0  0  0  0  0  0  0  0
   23.8746   74.9936   -5.8969 O   0  0  0  0  0  0  0  0  0  0  0  0
   24.5351   77.1698   -6.5635 O   0  0  0  0  0  0  0  0  0  0  0  0
   23.5142   75.6300  -10.2564 O   0  0  0  0  0  0  0  0  0  0  0  0
   26.2815   76.0411   -9.6074 O   0  0  0  0  0  0  0  0  0  0  0  0
   21.9354   74.9577   -7.9251 O   0  0  0  0  0  0  0  0  0  0  0  0
   24.0347   75.5860   -8.9250 C   0  0  1  0  0  0  0  0  0  0  0  0
   25.2055   76.5667   -8.8351 C   0  0  1  0  0  0  0  0  0  0  0  0
   22.9303   75.9757   -7.9443 C   0  0  2  0  0  0  0  0  0  0  0  0
   25.6440   76.7740   -7.3792 C   0  0  1  0  0  0  0  0  0  0  0  0
   23.4811   76.2054   -6.5357 C   0  0  1  0  0  0  0  0  0  0  0  0
   24.2103   75.3831  -10.8841 H   0  0  0  0  0  0  0  0  0  0  0  0
   25.9913   75.9145  -10.5244 H   0  0  0  0  0  0  0  0  0  0  0  0
   21.5945   74.8220   -8.8225 H   0  0  0  0  0  0  0  0  0  0  0  0
   27.9596   77.3170   -7.6076 O   0  0  0  0  0  0  0  0  0  0  0  0
   26.7042   77.8656   -7.2510 C   0  0  0  0  0  0  0  0  0  0  0  0
   28.6441   78.0006   -7.5310 H   0  0  0  0  0  0  0  0  0  0  0  0
 25 28  1  0
 25 24  1  0
 25 26  1  6
 25 27  2  0
  1  4  1  0
  1 24  1  0
  1  2  1  6
  1  3  2  0
  6 11  1  0
  6 12  1  0
 29 36  1  0
 29 37  1  0
  9  7  1  6
  7 13  1  0
 10  8  1  1
  8 14  1  0
 37 28  1  6
  4  5  1  0
 33 30  1  6
 30 38  1  0
 34 31  1  6
 31 39  1  0
 35 32  1  1
 32 40  1  0
 41 42  1  0
 41 43  1  0
 15 19  2  0
 16 22  2  0
 12 17  1  6
 17 19  1  0
 17 20  1  0
 18 19  1  0
 18 22  1  0
 18 23  1  0
  9 10  1  0
  9 11  1  0
 10 12  1  0
 11  5  1  6
 33 34  1  0
 33 35  1  0
 34 36  1  0
 35 37  1  0
 36 42  1  6
 20 21  2  0
 21 22  1  0
M  CHG  2   2  -1  26  -1
M  END
>  <COMPND>  (105) 
    8629 

>  <AUTHOR>  (105) 
    GENERATED BY OPEN BABEL 3.1.1

>  <MASTER>  (105) 
        0    0    0    0    0    0    0    0   58    0   58    0

>  <minimizedAffinity>  (105) 
-6.49698

>  <CNNscore>  (105) 
0.8570280075

>  <CNNaffinity>  (105) 
4.6994552612

>  <CNN_VS>  (105) 
4.0275650024

>  <CNNaffinity_variance>  (105) 
0.1226552576

$$$$
106
     RDKit          3D

 43 45  0  0  0  0  0  0  0  0999 V2000
   20.6657   71.2324   -1.0413 P   0  0  2  0  0  0  0  0  0  0  0  0
   20.8199   70.4771    0.3811 O   0  0  0  0  0  0  0  0  0  0  0  0
   20.1167   72.6266   -0.9623 O   0  0  0  0  0  0  0  0  0  0  0  0
   19.8152   70.1925   -1.9431 O   0  0  0  0  0  0  0  0  0  0  0  0
   19.4955   70.5566   -3.2746 C   0  0  0  0  0  0  0  0  0  0  0  0
   17.7660   71.5609   -4.6065 O   0  0  0  0  0  0  0  0  0  0  0  0
   15.8284   70.0109   -2.9230 O   0  0  0  0  0  0  0  0  0  0  0  0
   15.9634   68.5179   -5.2010 O   0  0  0  0  0  0  0  0  0  0  0  0
   17.1262   69.6357   -3.3817 C   0  0  1  0  0  0  0  0  0  0  0  0
   17.0862   69.3046   -4.8590 C   0  0  2  0  0  0  0  0  0  0  0  0
   18.0093   70.8770   -3.3578 C   0  0  1  0  0  0  0  0  0  0  0  0
   17.0466   70.6858   -5.4906 C   0  0  2  0  0  0  0  0  0  0  0  0
   15.2464   69.2343   -2.9291 H   0  0  0  0  0  0  0  0  0  0  0  0
   16.0351   67.6494   -4.7752 H   0  0  0  0  0  0  0  0  0  0  0  0
   15.6921   70.2182   -7.9246 O   0  0  0  0  0  0  0  0  0  0  0  0
   19.5378   70.8211  -10.3921 O   0  0  0  0  0  0  0  0  0  0  0  0
   17.6693   70.7147   -6.7839 N   0  0  0  0  0  0  0  0  0  0  0  0
   17.6080   70.5190   -9.1513 N   0  0  0  0  0  0  0  0  0  0  0  0
   16.8997   70.4652   -7.9440 C   0  0  0  0  0  0  0  0  0  0  0  0
   19.0284   70.9885   -6.8927 C   0  0  0  0  0  0  0  0  0  0  0  0
   19.6892   71.0348   -8.0513 C   0  0  0  0  0  0  0  0  0  0  0  0
   18.9586   70.7857   -9.3108 C   0  0  0  0  0  0  0  0  0  0  0  0
   17.0925   70.3480   -9.9727 H   0  0  0  0  0  0  0  0  0  0  0  0
   22.1509   71.1288   -1.6708 O   0  0  0  0  0  0  0  0  0  0  0  0
   23.0860   72.2442   -2.3740 P   0  0  2  0  0  0  0  0  0  0  0  0
   24.1191   71.3620   -3.2526 O   0  0  0  0  0  0  0  0  0  0  0  0
   23.7430   73.1915   -1.4123 O   0  0  0  0  0  0  0  0  0  0  0  0
   22.1279   72.9534   -3.4622 O   0  0  0  0  0  0  0  0  0  0  0  0
   22.8255   74.4874   -5.1285 O   0  0  0  0  0  0  0  0  0  0  0  0
   18.9751   75.8582   -4.5403 O   0  0  0  0  0  0  0  0  0  0  0  0
   19.6218   74.4378   -6.9512 O   0  0  0  0  0  0  0  0  0  0  0  0
   20.5444   74.9485   -2.2844 O   0  0  0  0  0  0  0  0  0  0  0  0
   20.0077   74.8729   -4.6312 C   0  0  1  0  0  0  0  0  0  0  0  0
   20.6012   74.9288   -6.0403 C   0  0  1  0  0  0  0  0  0  0  0  0
   21.0786   75.1742   -3.5844 C   0  0  2  0  0  0  0  0  0  0  0  0
   21.8849   74.0930   -6.1342 C   0  0  1  0  0  0  0  0  0  0  0  0
   22.3320   74.3235   -3.7976 C   0  0  1  0  0  0  0  0  0  0  0  0
   18.2917   75.6724   -5.2021 H   0  0  0  0  0  0  0  0  0  0  0  0
   18.8162   74.9739   -6.8816 H   0  0  0  0  0  0  0  0  0  0  0  0
   19.7516   75.4929   -2.1617 H   0  0  0  0  0  0  0  0  0  0  0  0
   22.8176   72.9758   -8.0292 O   0  0  0  0  0  0  0  0  0  0  0  0
   22.5788   74.2605   -7.4842 C   0  0  0  0  0  0  0  0  0  0  0  0
   23.2586   73.0668   -8.8888 H   0  0  0  0  0  0  0  0  0  0  0  0
 25 28  1  0
 25 24  1  0
 25 26  1  6
 25 27  2  0
  1  4  1  0
  1 24  1  0
  1  2  1  1
  1  3  2  0
  6 11  1  0
  6 12  1  0
 29 36  1  0
 29 37  1  0
  9  7  1  6
  7 13  1  0
 10  8  1  1
  8 14  1  0
 37 28  1  6
  4  5  1  0
 33 30  1  6
 30 38  1  0
 34 31  1  6
 31 39  1  0
 35 32  1  1
 32 40  1  0
 41 42  1  0
 41 43  1  0
 15 19  2  0
 16 22  2  0
 12 17  1  6
 17 19  1  0
 17 20  1  0
 18 19  1  0
 18 22  1  0
 18 23  1  0
  9 10  1  0
  9 11  1  0
 10 12  1  0
 11  5  1  6
 33 34  1  0
 33 35  1  0
 34 36  1  0
 35 37  1  0
 36 42  1  6
 20 21  2  0
 21 22  1  0
M  CHG  2   2  -1  26  -1
M  END
>  <COMPND>  (106) 
    8629 

>  <AUTHOR>  (106) 
    GENERATED BY OPEN BABEL 3.1.1

>  <MASTER>  (106) 
        0    0    0    0    0    0    0    0   58    0   58    0

>  <minimizedAffinity>  (106) 
-7.62030

>  <CNNscore>  (106) 
0.8516510129

>  <CNNaffinity>  (106) 
4.5384154320

>  <CNN_VS>  (106) 
3.8651461601

>  <CNNaffinity_variance>  (106) 
0.3971145153

$$$$
107
     RDKit          3D

 43 45  0  0  0  0  0  0  0  0999 V2000
   21.4276   73.4283   -4.7728 P   0  0  2  0  0  0  0  0  0  0  0  0
   21.6735   74.7459   -3.8669 O   0  0  0  0  0  0  0  0  0  0  0  0
   21.8682   73.5505   -6.2019 O   0  0  0  0  0  0  0  0  0  0  0  0
   19.8620   73.0882   -4.5469 O   0  0  0  0  0  0  0  0  0  0  0  0
   19.5142   72.1208   -3.5716 C   0  0  0  0  0  0  0  0  0  0  0  0
   17.5391   72.1683   -4.9393 O   0  0  0  0  0  0  0  0  0  0  0  0
   16.2465   70.5084   -2.8029 O   0  0  0  0  0  0  0  0  0  0  0  0
   16.8609   68.6543   -4.7059 O   0  0  0  0  0  0  0  0  0  0  0  0
   17.5918   70.4804   -3.2768 C   0  0  1  0  0  0  0  0  0  0  0  0
   17.6561   69.8205   -4.6384 C   0  0  2  0  0  0  0  0  0  0  0  0
   18.0063   71.9112   -3.5970 C   0  0  1  0  0  0  0  0  0  0  0  0
   17.1502   70.9265   -5.5488 C   0  0  2  0  0  0  0  0  0  0  0  0
   15.9596   69.6056   -2.5914 H   0  0  0  0  0  0  0  0  0  0  0  0
   17.2233   67.9807   -4.1094 H   0  0  0  0  0  0  0  0  0  0  0  0
   15.7236   70.1613   -7.8634 O   0  0  0  0  0  0  0  0  0  0  0  0
   19.4339   70.6870  -10.5465 O   0  0  0  0  0  0  0  0  0  0  0  0
   17.7185   70.8550   -6.8653 N   0  0  0  0  0  0  0  0  0  0  0  0
   17.5722   70.4238   -9.1975 N   0  0  0  0  0  0  0  0  0  0  0  0
   16.9161   70.4584   -7.9604 C   0  0  0  0  0  0  0  0  0  0  0  0
   19.0573   71.1766   -7.0605 C   0  0  0  0  0  0  0  0  0  0  0  0
   19.6682   71.1374   -8.2465 C   0  0  0  0  0  0  0  0  0  0  0  0
   18.9008   70.7330   -9.4421 C   0  0  0  0  0  0  0  0  0  0  0  0
   17.0331   70.1500   -9.9748 H   0  0  0  0  0  0  0  0  0  0  0  0
   22.1764   72.2663   -3.9350 O   0  0  0  0  0  0  0  0  0  0  0  0
   23.6408   72.2259   -3.2517 P   0  0  2  0  0  0  0  0  0  0  0  0
   24.5216   73.1923   -4.2045 O   0  0  0  0  0  0  0  0  0  0  0  0
   24.2029   70.8442   -3.0822 O   0  0  0  0  0  0  0  0  0  0  0  0
   23.4726   73.0531   -1.8761 O   0  0  0  0  0  0  0  0  0  0  0  0
   23.0902   71.6251   -0.0237 O   0  0  0  0  0  0  0  0  0  0  0  0
   22.3018   75.2593    1.7711 O   0  0  0  0  0  0  0  0  0  0  0  0
   24.7192   73.8517    2.4212 O   0  0  0  0  0  0  0  0  0  0  0  0
   21.4643   74.7853   -0.9590 O   0  0  0  0  0  0  0  0  0  0  0  0
   22.9685   74.3661    0.8749 C   0  0  1  0  0  0  0  0  0  0  0  0
   23.6368   73.2666    1.7026 C   0  0  1  0  0  0  0  0  0  0  0  0
   21.9440   73.7674   -0.0871 C   0  0  2  0  0  0  0  0  0  0  0  0
   24.1436   72.1289    0.8060 C   0  0  1  0  0  0  0  0  0  0  0  0
   22.5365   72.6122   -0.8960 C   0  0  1  0  0  0  0  0  0  0  0  0
   22.9468   75.6433    2.3843 H   0  0  0  0  0  0  0  0  0  0  0  0
   24.3858   74.5689    2.9830 H   0  0  0  0  0  0  0  0  0  0  0  0
   21.0914   75.5106   -0.4349 H   0  0  0  0  0  0  0  0  0  0  0  0
   26.0206   70.7211    1.2572 O   0  0  0  0  0  0  0  0  0  0  0  0
   24.6718   70.9504    1.6210 C   0  0  0  0  0  0  0  0  0  0  0  0
   26.3702   69.9739    1.7683 H   0  0  0  0  0  0  0  0  0  0  0  0
 25 28  1  0
 25 24  1  0
 25 26  1  6
 25 27  2  0
  1  4  1  0
  1 24  1  0
  1  2  1  1
  1  3  2  0
  6 11  1  0
  6 12  1  0
 29 36  1  0
 29 37  1  0
  9  7  1  6
  7 13  1  0
 10  8  1  1
  8 14  1  0
 37 28  1  6
  4  5  1  0
 33 30  1  1
 30 38  1  0
 34 31  1  6
 31 39  1  0
 35 32  1  6
 32 40  1  0
 41 42  1  0
 41 43  1  0
 15 19  2  0
 16 22  2  0
 12 17  1  6
 17 19  1  0
 17 20  1  0
 18 19  1  0
 18 22  1  0
 18 23  1  0
  9 10  1  0
  9 11  1  0
 10 12  1  0
 11  5  1  6
 33 34  1  0
 33 35  1  0
 34 36  1  0
 35 37  1  0
 36 42  1  1
 20 21  2  0
 21 22  1  0
M  CHG  2   2  -1  26  -1
M  END
>  <COMPND>  (107) 
    8629 

>  <AUTHOR>  (107) 
    GENERATED BY OPEN BABEL 3.1.1

>  <MASTER>  (107) 
        0    0    0    0    0    0    0    0   58    0   58    0

>  <minimizedAffinity>  (107) 
-7.39293

>  <CNNscore>  (107) 
0.8501186967

>  <CNNaffinity>  (107) 
4.6003355980

>  <CNN_VS>  (107) 
3.9108312130

>  <CNNaffinity_variance>  (107) 
0.0542190559

$$$$
108
     RDKit          3D

 43 45  0  0  0  0  0  0  0  0999 V2000
   21.8248   72.5400   -5.4553 P   0  0  2  0  0  0  0  0  0  0  0  0
   21.0760   73.9598   -5.2528 O   0  0  0  0  0  0  0  0  0  0  0  0
   23.1420   72.6144   -6.1699 O   0  0  0  0  0  0  0  0  0  0  0  0
   20.7015   71.6038   -6.1479 O   0  0  0  0  0  0  0  0  0  0  0  0
   20.2517   71.9379   -7.4494 C   0  0  0  0  0  0  0  0  0  0  0  0
   19.0011   69.9362   -6.9989 O   0  0  0  0  0  0  0  0  0  0  0  0
   18.2192   69.9971   -9.8930 O   0  0  0  0  0  0  0  0  0  0  0  0
   16.0073   71.0069   -8.6583 O   0  0  0  0  0  0  0  0  0  0  0  0
   18.4150   71.0827   -8.9882 C   0  0  1  0  0  0  0  0  0  0  0  0
   17.2558   71.1740   -8.0179 C   0  0  2  0  0  0  0  0  0  0  0  0
   19.5736   70.7225   -8.0667 C   0  0  1  0  0  0  0  0  0  0  0  0
   17.5694   70.0494   -7.0457 C   0  0  2  0  0  0  0  0  0  0  0  0
   17.4843   70.2042  -10.4920 H   0  0  0  0  0  0  0  0  0  0  0  0
   15.8539   71.7471   -9.2661 H   0  0  0  0  0  0  0  0  0  0  0  0
   16.2553   68.1518   -5.4178 O   0  0  0  0  0  0  0  0  0  0  0  0
   15.7305   71.1858   -1.9884 O   0  0  0  0  0  0  0  0  0  0  0  0
   17.0792   70.3164   -5.7229 N   0  0  0  0  0  0  0  0  0  0  0  0
   15.9953   69.6640   -3.7115 N   0  0  0  0  0  0  0  0  0  0  0  0
   16.4327   69.2942   -4.9897 C   0  0  0  0  0  0  0  0  0  0  0  0
   17.2417   71.5800   -5.1655 C   0  0  0  0  0  0  0  0  0  0  0  0
   16.8176   71.9170   -3.9458 C   0  0  0  0  0  0  0  0  0  0  0  0
   16.1322   70.9069   -3.1139 C   0  0  0  0  0  0  0  0  0  0  0  0
   15.5417   68.9682   -3.1824 H   0  0  0  0  0  0  0  0  0  0  0  0
   21.9078   71.9551   -3.9506 O   0  0  0  0  0  0  0  0  0  0  0  0
   23.0882   72.0244   -2.8484 P   0  0  2  0  0  0  0  0  0  0  0  0
   23.6470   73.5354   -2.9976 O   0  0  0  0  0  0  0  0  0  0  0  0
   24.1351   70.9591   -3.0002 O   0  0  0  0  0  0  0  0  0  0  0  0
   22.3220   72.0116   -1.4279 O   0  0  0  0  0  0  0  0  0  0  0  0
   24.0186   72.1961    0.2165 O   0  0  0  0  0  0  0  0  0  0  0  0
   20.7216   71.9708    2.6924 O   0  0  0  0  0  0  0  0  0  0  0  0
   22.0963   74.4737    2.3859 O   0  0  0  0  0  0  0  0  0  0  0  0
   20.8341   70.3631    0.2878 O   0  0  0  0  0  0  0  0  0  0  0  0
   21.4445   72.3431    1.5159 C   0  0  1  0  0  0  0  0  0  0  0  0
   22.6203   73.2276    1.9353 C   0  0  1  0  0  0  0  0  0  0  0  0
   21.9443   71.0804    0.8166 C   0  0  2  0  0  0  0  0  0  0  0  0
   23.5922   73.4473    0.7682 C   0  0  1  0  0  0  0  0  0  0  0  0
   22.9422   71.4080   -0.2956 C   0  0  1  0  0  0  0  0  0  0  0  0
   20.4011   72.7681    3.1409 H   0  0  0  0  0  0  0  0  0  0  0  0
   21.4838   74.3208    3.1225 H   0  0  0  0  0  0  0  0  0  0  0  0
   20.2099   70.1614    1.0017 H   0  0  0  0  0  0  0  0  0  0  0  0
   24.8320   74.3205    2.6147 O   0  0  0  0  0  0  0  0  0  0  0  0
   24.8506   74.1943    1.2047 C   0  0  0  0  0  0  0  0  0  0  0  0
   25.6272   74.7938    2.9068 H   0  0  0  0  0  0  0  0  0  0  0  0
 25 28  1  0
 25 24  1  0
 25 26  1  6
 25 27  2  0
  1  4  1  0
  1 24  1  0
  1  2  1  1
  1  3  2  0
  6 11  1  0
  6 12  1  0
 29 36  1  0
 29 37  1  0
  9  7  1  6
  7 13  1  0
 10  8  1  6
  8 14  1  0
 37 28  1  6
  4  5  1  0
 33 30  1  1
 30 38  1  0
 34 31  1  6
 31 39  1  0
 35 32  1  6
 32 40  1  0
 41 42  1  0
 41 43  1  0
 15 19  2  0
 16 22  2  0
 12 17  1  1
 17 19  1  0
 17 20  1  0
 18 19  1  0
 18 22  1  0
 18 23  1  0
  9 10  1  0
  9 11  1  0
 10 12  1  0
 11  5  1  1
 33 34  1  0
 33 35  1  0
 34 36  1  0
 35 37  1  0
 36 42  1  1
 20 21  2  0
 21 22  1  0
M  CHG  2   2  -1  26  -1
M  END
>  <COMPND>  (108) 
    8629 

>  <AUTHOR>  (108) 
    GENERATED BY OPEN BABEL 3.1.1

>  <MASTER>  (108) 
        0    0    0    0    0    0    0    0   58    0   58    0

>  <minimizedAffinity>  (108) 
-7.97210

>  <CNNscore>  (108) 
0.8314064741

>  <CNNaffinity>  (108) 
4.5692458153

>  <CNN_VS>  (108) 
3.7989006042

>  <CNNaffinity_variance>  (108) 
0.1821346730

$$$$
109
     RDKit          3D

 43 45  0  0  0  0  0  0  0  0999 V2000
   22.8177   72.7518   -4.2126 P   0  0  2  0  0  0  0  0  0  0  0  0
   23.1776   73.8393   -5.3551 O   0  0  0  0  0  0  0  0  0  0  0  0
   23.9542   71.8608   -3.8053 O   0  0  0  0  0  0  0  0  0  0  0  0
   21.5075   71.9994   -4.7914 O   0  0  0  0  0  0  0  0  0  0  0  0
   20.8816   71.0159   -3.9860 C   0  0  0  0  0  0  0  0  0  0  0  0
   18.9070   71.9280   -5.0071 O   0  0  0  0  0  0  0  0  0  0  0  0
   17.3954   70.7410   -2.7055 O   0  0  0  0  0  0  0  0  0  0  0  0
   16.9405   68.9439   -4.7055 O   0  0  0  0  0  0  0  0  0  0  0  0
   18.5347   70.2305   -3.3960 C   0  0  1  0  0  0  0  0  0  0  0  0
   18.1316   69.7025   -4.7570 C   0  0  2  0  0  0  0  0  0  0  0  0
   19.4276   71.4090   -3.7637 C   0  0  1  0  0  0  0  0  0  0  0  0
   17.9745   70.9837   -5.5582 C   0  0  2  0  0  0  0  0  0  0  0  0
   16.8104   70.0066   -2.4601 H   0  0  0  0  0  0  0  0  0  0  0  0
   17.0917   68.1394   -4.1852 H   0  0  0  0  0  0  0  0  0  0  0  0
   16.1277   70.0116   -7.4613 O   0  0  0  0  0  0  0  0  0  0  0  0
   19.2094   70.3104  -10.8752 O   0  0  0  0  0  0  0  0  0  0  0  0
   18.2674   70.7979   -6.9514 N   0  0  0  0  0  0  0  0  0  0  0  0
   17.6636   70.1613   -9.1597 N   0  0  0  0  0  0  0  0  0  0  0  0
   17.2696   70.3030   -7.8230 C   0  0  0  0  0  0  0  0  0  0  0  0
   19.5323   71.1056   -7.4406 C   0  0  0  0  0  0  0  0  0  0  0  0
   19.8925   70.9636   -8.7178 C   0  0  0  0  0  0  0  0  0  0  0  0
   18.9088   70.4523   -9.6940 C   0  0  0  0  0  0  0  0  0  0  0  0
   16.9850   69.8178   -9.7852 H   0  0  0  0  0  0  0  0  0  0  0  0
   22.2165   73.6628   -3.0203 O   0  0  0  0  0  0  0  0  0  0  0  0
   22.9492   74.6169   -1.9406 P   0  0  2  0  0  0  0  0  0  0  0  0
   22.1946   76.0359   -2.1269 O   0  0  0  0  0  0  0  0  0  0  0  0
   24.4414   74.6845   -2.0916 O   0  0  0  0  0  0  0  0  0  0  0  0
   22.4461   74.0729   -0.5068 O   0  0  0  0  0  0  0  0  0  0  0  0
   23.4174   73.7410    1.6294 O   0  0  0  0  0  0  0  0  0  0  0  0
   21.4473   70.1338    1.2327 O   0  0  0  0  0  0  0  0  0  0  0  0
   20.4442   72.1030    3.0668 O   0  0  0  0  0  0  0  0  0  0  0  0
   22.7321   71.3376   -1.0650 O   0  0  0  0  0  0  0  0  0  0  0  0
   21.6323   71.5423    1.0681 C   0  0  1  0  0  0  0  0  0  0  0  0
   21.7293   72.1787    2.4560 C   0  0  1  0  0  0  0  0  0  0  0  0
   22.9134   71.7879    0.2732 C   0  0  2  0  0  0  0  0  0  0  0  0
   22.1924   73.6390    2.3647 C   0  0  1  0  0  0  0  0  0  0  0  0
   23.3118   73.2648    0.2862 C   0  0  1  0  0  0  0  0  0  0  0  0
   20.6353   69.9709    1.7363 H   0  0  0  0  0  0  0  0  0  0  0  0
   20.1633   71.1758    3.1179 H   0  0  0  0  0  0  0  0  0  0  0  0
   22.4805   70.4014   -1.0597 H   0  0  0  0  0  0  0  0  0  0  0  0
   21.2095   74.6676    4.2842 O   0  0  0  0  0  0  0  0  0  0  0  0
   22.4476   74.2453    3.7428 C   0  0  0  0  0  0  0  0  0  0  0  0
   21.3564   75.0554    5.1616 H   0  0  0  0  0  0  0  0  0  0  0  0
 25 28  1  0
 25 24  1  0
 25 26  1  6
 25 27  2  0
  1  4  1  0
  1 24  1  0
  1  2  1  6
  1  3  2  0
  6 11  1  0
  6 12  1  0
 29 36  1  0
 29 37  1  0
  9  7  1  1
  7 13  1  0
 10  8  1  1
  8 14  1  0
 37 28  1  6
  4  5  1  0
 33 30  1  1
 30 38  1  0
 34 31  1  6
 31 39  1  0
 35 32  1  6
 32 40  1  0
 41 42  1  0
 41 43  1  0
 15 19  2  0
 16 22  2  0
 12 17  1  6
 17 19  1  0
 17 20  1  0
 18 19  1  0
 18 22  1  0
 18 23  1  0
  9 10  1  0
  9 11  1  0
 10 12  1  0
 11  5  1  6
 33 34  1  0
 33 35  1  0
 34 36  1  0
 35 37  1  0
 36 42  1  1
 20 21  2  0
 21 22  1  0
M  CHG  2   2  -1  26  -1
M  END
>  <COMPND>  (109) 
    8629 

>  <AUTHOR>  (109) 
    GENERATED BY OPEN BABEL 3.1.1

>  <MASTER>  (109) 
        0    0    0    0    0    0    0    0   58    0   58    0

>  <minimizedAffinity>  (109) 
-7.51750

>  <CNNscore>  (109) 
0.8302837014

>  <CNNaffinity>  (109) 
4.5947828293

>  <CNN_VS>  (109) 
3.8149733543

>  <CNNaffinity_variance>  (109) 
0.0254044887

$$$$
110
     RDKit          3D

 43 45  0  0  0  0  0  0  0  0999 V2000
   19.6110   71.0114   -2.7170 P   0  0  2  0  0  0  0  0  0  0  0  0
   19.3696   70.3981   -1.2395 O   0  0  0  0  0  0  0  0  0  0  0  0
   20.4039   70.1378   -3.6441 O   0  0  0  0  0  0  0  0  0  0  0  0
   20.2310   72.4785   -2.4321 O   0  0  0  0  0  0  0  0  0  0  0  0
   20.6467   72.7925   -1.1143 C   0  0  0  0  0  0  0  0  0  0  0  0
   22.5860   73.6022    0.0507 O   0  0  0  0  0  0  0  0  0  0  0  0
   24.0840   71.3684   -1.2749 O   0  0  0  0  0  0  0  0  0  0  0  0
   23.6560   70.3902    1.2343 O   0  0  0  0  0  0  0  0  0  0  0  0
   22.7442   71.3905   -0.7854 C   0  0  1  0  0  0  0  0  0  0  0  0
   22.7364   71.3361    0.7281 C   0  0  2  0  0  0  0  0  0  0  0  0
   22.1681   72.7746   -1.0569 C   0  0  1  0  0  0  0  0  0  0  0  0
   23.1034   72.7635    1.0966 C   0  0  2  0  0  0  0  0  0  0  0  0
   24.4729   70.4941   -1.1130 H   0  0  0  0  0  0  0  0  0  0  0  0
   23.3791   69.4980    0.9733 H   0  0  0  0  0  0  0  0  0  0  0  0
   20.7319   71.6874    2.1901 O   0  0  0  0  0  0  0  0  0  0  0  0
   20.9942   74.4043    5.9037 O   0  0  0  0  0  0  0  0  0  0  0  0
   22.5294   73.1710    2.3479 N   0  0  0  0  0  0  0  0  0  0  0  0
   20.8645   73.0409    4.0384 N   0  0  0  0  0  0  0  0  0  0  0  0
   21.3350   72.5681    2.8067 C   0  0  0  0  0  0  0  0  0  0  0  0
   23.1499   74.1577    3.1063 C   0  0  0  0  0  0  0  0  0  0  0  0
   22.6877   74.5983    4.2783 C   0  0  0  0  0  0  0  0  0  0  0  0
   21.4448   74.0204    4.8288 C   0  0  0  0  0  0  0  0  0  0  0  0
   20.0336   72.6357    4.3777 H   0  0  0  0  0  0  0  0  0  0  0  0
   18.1118   71.3425   -3.2226 O   0  0  0  0  0  0  0  0  0  0  0  0
   16.9932   70.4032   -3.9150 P   0  0  2  0  0  0  0  0  0  0  0  0
   15.7310   71.3993   -4.0937 O   0  0  0  0  0  0  0  0  0  0  0  0
   16.6873   69.1466   -3.1525 O   0  0  0  0  0  0  0  0  0  0  0  0
   17.5361   70.1598   -5.4153 O   0  0  0  0  0  0  0  0  0  0  0  0
   18.8620   71.8661   -6.3884 O   0  0  0  0  0  0  0  0  0  0  0  0
   17.8028   69.8189   -9.8145 O   0  0  0  0  0  0  0  0  0  0  0  0
   20.4931   69.6337   -8.8266 O   0  0  0  0  0  0  0  0  0  0  0  0
   15.8775   70.1536   -7.6790 O   0  0  0  0  0  0  0  0  0  0  0  0
   18.1557   69.9564   -8.4354 C   0  0  1  0  0  0  0  0  0  0  0  0
   19.5464   70.5894   -8.3570 C   0  0  1  0  0  0  0  0  0  0  0  0
   17.1221   70.8417   -7.7416 C   0  0  2  0  0  0  0  0  0  0  0  0
   19.8821   71.0129   -6.9207 C   0  0  1  0  0  0  0  0  0  0  0  0
   17.5758   71.2456   -6.3376 C   0  0  1  0  0  0  0  0  0  0  0  0
   18.4549   69.2575  -10.2608 H   0  0  0  0  0  0  0  0  0  0  0  0
   20.2695   69.3743   -9.7343 H   0  0  0  0  0  0  0  0  0  0  0  0
   15.6010   69.9036   -8.5739 H   0  0  0  0  0  0  0  0  0  0  0  0
   21.5232   72.2451   -8.1443 O   0  0  0  0  0  0  0  0  0  0  0  0
   21.1959   71.7877   -6.8451 C   0  0  0  0  0  0  0  0  0  0  0  0
   22.3571   72.7403   -8.1116 H   0  0  0  0  0  0  0  0  0  0  0  0
 25 28  1  0
 25 24  1  0
 25 26  1  6
 25 27  2  0
  1  4  1  0
  1 24  1  0
  1  2  1  1
  1  3  2  0
  6 11  1  0
  6 12  1  0
 29 36  1  0
 29 37  1  0
  9  7  1  1
  7 13  1  0
 10  8  1  6
  8 14  1  0
 37 28  1  1
  4  5  1  0
 33 30  1  6
 30 38  1  0
 34 31  1  1
 31 39  1  0
 35 32  1  1
 32 40  1  0
 41 42  1  0
 41 43  1  0
 15 19  2  0
 16 22  2  0
 12 17  1  1
 17 19  1  0
 17 20  1  0
 18 19  1  0
 18 22  1  0
 18 23  1  0
  9 10  1  0
  9 11  1  0
 10 12  1  0
 11  5  1  1
 33 34  1  0
 33 35  1  0
 34 36  1  0
 35 37  1  0
 36 42  1  6
 20 21  2  0
 21 22  1  0
M  CHG  2   2  -1  26  -1
M  END
>  <COMPND>  (110) 
    8629 

>  <AUTHOR>  (110) 
    GENERATED BY OPEN BABEL 3.1.1

>  <MASTER>  (110) 
        0    0    0    0    0    0    0    0   58    0   58    0

>  <minimizedAffinity>  (110) 
-7.36571

>  <CNNscore>  (110) 
0.7632793784

>  <CNNaffinity>  (110) 
4.2740335464

>  <CNN_VS>  (110) 
3.2622816563

>  <CNNaffinity_variance>  (110) 
0.1620592773

$$$$
111
     RDKit          3D

 43 45  0  0  0  0  0  0  0  0999 V2000
   20.1975   74.5787   -2.7070 P   0  0  2  0  0  0  0  0  0  0  0  0
   21.2972   75.6946   -3.1106 O   0  0  0  0  0  0  0  0  0  0  0  0
   18.7823   75.0742   -2.6524 O   0  0  0  0  0  0  0  0  0  0  0  0
   20.7734   73.9445   -1.3344 O   0  0  0  0  0  0  0  0  0  0  0  0
   22.1012   73.4501   -1.3230 C   0  0  0  0  0  0  0  0  0  0  0  0
   23.3993   71.7953   -0.1609 O   0  0  0  0  0  0  0  0  0  0  0  0
   20.7887   70.4641    0.4742 O   0  0  0  0  0  0  0  0  0  0  0  0
   21.3722   71.7671    2.7976 O   0  0  0  0  0  0  0  0  0  0  0  0
   21.0938   71.8548    0.3838 C   0  0  1  0  0  0  0  0  0  0  0  0
   21.8885   72.2985    1.5943 C   0  0  2  0  0  0  0  0  0  0  0  0
   22.1010   72.0420   -0.7439 C   0  0  1  0  0  0  0  0  0  0  0  0
   23.2762   71.7717    1.2706 C   0  0  2  0  0  0  0  0  0  0  0  0
   20.1468   70.3197    1.1876 H   0  0  0  0  0  0  0  0  0  0  0  0
   20.4883   72.1323    2.9595 H   0  0  0  0  0  0  0  0  0  0  0  0
   25.7715   70.7789    2.1456 O   0  0  0  0  0  0  0  0  0  0  0  0
   27.1885   74.9673    3.4458 O   0  0  0  0  0  0  0  0  0  0  0  0
   24.3160   72.5806    1.8415 N   0  0  0  0  0  0  0  0  0  0  0  0
   26.4751   72.8652    2.7921 N   0  0  0  0  0  0  0  0  0  0  0  0
   25.5315   71.9835    2.2496 C   0  0  0  0  0  0  0  0  0  0  0  0
   24.1254   73.9499    1.9914 C   0  0  0  0  0  0  0  0  0  0  0  0
   25.0347   74.7767    2.5117 C   0  0  0  0  0  0  0  0  0  0  0  0
   26.3319   74.2330    2.9631 C   0  0  0  0  0  0  0  0  0  0  0  0
   27.3294   72.4716    3.0838 H   0  0  0  0  0  0  0  0  0  0  0  0
   20.4579   73.4045   -3.7871 O   0  0  0  0  0  0  0  0  0  0  0  0
   19.6816   72.0109   -4.0479 P   0  0  2  0  0  0  0  0  0  0  0  0
   18.2256   72.2686   -3.3913 O   0  0  0  0  0  0  0  0  0  0  0  0
   20.3946   70.8007   -3.5177 O   0  0  0  0  0  0  0  0  0  0  0  0
   19.4123   71.9849   -5.6391 O   0  0  0  0  0  0  0  0  0  0  0  0
   18.6945   69.7751   -6.1061 O   0  0  0  0  0  0  0  0  0  0  0  0
   18.5058   71.3497   -9.9187 O   0  0  0  0  0  0  0  0  0  0  0  0
   16.0760   70.8008   -8.4895 O   0  0  0  0  0  0  0  0  0  0  0  0
   20.6648   72.1112   -8.1471 O   0  0  0  0  0  0  0  0  0  0  0  0
   18.3984   71.3727   -8.4927 C   0  0  1  0  0  0  0  0  0  0  0  0
   17.3563   70.3339   -8.0735 C   0  0  1  0  0  0  0  0  0  0  0  0
   19.7604   71.0438   -7.8843 C   0  0  2  0  0  0  0  0  0  0  0  0
   17.3764   70.1105   -6.5553 C   0  0  1  0  0  0  0  0  0  0  0  0
   19.6605   70.7921   -6.3787 C   0  0  1  0  0  0  0  0  0  0  0  0
   17.6444   71.5583  -10.3112 H   0  0  0  0  0  0  0  0  0  0  0  0
   16.0769   70.9382   -9.4498 H   0  0  0  0  0  0  0  0  0  0  0  0
   20.7195   72.2604   -9.1035 H   0  0  0  0  0  0  0  0  0  0  0  0
   16.1248   69.1375   -4.7677 O   0  0  0  0  0  0  0  0  0  0  0  0
   16.4567   68.9668   -6.1333 C   0  0  0  0  0  0  0  0  0  0  0  0
   15.5395   68.4168   -4.4853 H   0  0  0  0  0  0  0  0  0  0  0  0
 25 28  1  0
 25 24  1  0
 25 26  1  1
 25 27  2  0
  1  4  1  0
  1 24  1  0
  1  2  1  6
  1  3  2  0
  6 11  1  0
  6 12  1  0
 29 36  1  0
 29 37  1  0
  9  7  1  1
  7 13  1  0
 10  8  1  1
  8 14  1  0
 37 28  1  1
  4  5  1  0
 33 30  1  6
 30 38  1  0
 34 31  1  1
 31 39  1  0
 35 32  1  1
 32 40  1  0
 41 42  1  0
 41 43  1  0
 15 19  2  0
 16 22  2  0
 12 17  1  1
 17 19  1  0
 17 20  1  0
 18 19  1  0
 18 22  1  0
 18 23  1  0
  9 10  1  0
  9 11  1  0
 10 12  1  0
 11  5  1  1
 33 34  1  0
 33 35  1  0
 34 36  1  0
 35 37  1  0
 36 42  1  6
 20 21  2  0
 21 22  1  0
M  CHG  2   2  -1  26  -1
M  END
>  <COMPND>  (111) 
    8629 

>  <AUTHOR>  (111) 
    GENERATED BY OPEN BABEL 3.1.1

>  <MASTER>  (111) 
        0    0    0    0    0    0    0    0   58    0   58    0

>  <minimizedAffinity>  (111) 
-6.81686

>  <CNNscore>  (111) 
0.6926488876

>  <CNNaffinity>  (111) 
4.2660551071

>  <CNN_VS>  (111) 
2.9548783302

>  <CNNaffinity_variance>  (111) 
0.2030221969

$$$$
112
     RDKit          3D

 43 45  0  0  0  0  0  0  0  0999 V2000
   23.1960   72.1889   -3.0591 P   0  0  2  0  0  0  0  0  0  0  0  0
   24.2351   70.9564   -3.1955 O   0  0  0  0  0  0  0  0  0  0  0  0
   23.8252   73.5510   -3.0573 O   0  0  0  0  0  0  0  0  0  0  0  0
   22.3220   71.8168   -1.7493 O   0  0  0  0  0  0  0  0  0  0  0  0
   23.0005   71.3700   -0.5883 C   0  0  0  0  0  0  0  0  0  0  0  0
   22.8715   71.3627    1.8111 O   0  0  0  0  0  0  0  0  0  0  0  0
   20.2512   72.7841    1.4878 O   0  0  0  0  0  0  0  0  0  0  0  0
   21.9544   74.8154    2.1279 O   0  0  0  0  0  0  0  0  0  0  0  0
   21.4441   72.9041    0.7145 C   0  0  1  0  0  0  0  0  0  0  0  0
   22.4935   73.6793    1.4835 C   0  0  2  0  0  0  0  0  0  0  0  0
   22.0791   71.5227    0.6141 C   0  0  1  0  0  0  0  0  0  0  0  0
   22.9999   72.6359    2.4649 C   0  0  2  0  0  0  0  0  0  0  0  0
   19.8277   73.6539    1.5655 H   0  0  0  0  0  0  0  0  0  0  0  0
   21.6462   75.4494    1.4616 H   0  0  0  0  0  0  0  0  0  0  0  0
   23.9072   74.6298    4.2478 O   0  0  0  0  0  0  0  0  0  0  0  0
   28.3013   73.3298    3.7545 O   0  0  0  0  0  0  0  0  0  0  0  0
   24.3757   72.8407    2.8207 N   0  0  0  0  0  0  0  0  0  0  0  0
   26.0943   73.9808    4.0008 N   0  0  0  0  0  0  0  0  0  0  0  0
   24.7256   73.8708    3.7245 C   0  0  0  0  0  0  0  0  0  0  0  0
   25.3613   72.0250    2.2756 C   0  0  0  0  0  0  0  0  0  0  0  0
   26.6623   72.1437    2.5484 C   0  0  0  0  0  0  0  0  0  0  0  0
   27.1120   73.1951    3.4834 C   0  0  0  0  0  0  0  0  0  0  0  0
   26.3617   74.6917    4.6276 H   0  0  0  0  0  0  0  0  0  0  0  0
   22.1608   71.9276   -4.2728 O   0  0  0  0  0  0  0  0  0  0  0  0
   20.6939   71.2487   -4.2893 P   0  0  2  0  0  0  0  0  0  0  0  0
   19.7702   72.3431   -3.5365 O   0  0  0  0  0  0  0  0  0  0  0  0
   20.6445   69.8755   -3.6846 O   0  0  0  0  0  0  0  0  0  0  0  0
   20.2297   71.3166   -5.8336 O   0  0  0  0  0  0  0  0  0  0  0  0
   17.9789   70.6378   -6.1327 O   0  0  0  0  0  0  0  0  0  0  0  0
   19.1614   70.7626  -10.0871 O   0  0  0  0  0  0  0  0  0  0  0  0
   17.3980   72.7883   -9.0699 O   0  0  0  0  0  0  0  0  0  0  0  0
   20.9891   69.7912   -8.0633 O   0  0  0  0  0  0  0  0  0  0  0  0
   19.1370   71.1837   -8.7205 C   0  0  1  0  0  0  0  0  0  0  0  0
   17.7036   71.5863   -8.3684 C   0  0  1  0  0  0  0  0  0  0  0  0
   19.6047   70.0306   -7.8345 C   0  0  2  0  0  0  0  0  0  0  0  0
   17.5421   71.7942   -6.8565 C   0  0  1  0  0  0  0  0  0  0  0  0
   19.3543   70.3192   -6.3532 C   0  0  1  0  0  0  0  0  0  0  0  0
   18.8660   71.4903  -10.6551 H   0  0  0  0  0  0  0  0  0  0  0  0
   17.5043   72.6437  -10.0233 H   0  0  0  0  0  0  0  0  0  0  0  0
   21.1344   69.6096   -9.0045 H   0  0  0  0  0  0  0  0  0  0  0  0
   15.8256   71.3613   -5.2518 O   0  0  0  0  0  0  0  0  0  0  0  0
   16.0868   72.0418   -6.4654 C   0  0  0  0  0  0  0  0  0  0  0  0
   14.9030   71.5102   -4.9904 H   0  0  0  0  0  0  0  0  0  0  0  0
 25 28  1  0
 25 24  1  0
 25 26  1  1
 25 27  2  0
  1  4  1  0
  1 24  1  0
  1  2  1  6
  1  3  2  0
  6 11  1  0
  6 12  1  0
 29 36  1  0
 29 37  1  0
  9  7  1  1
  7 13  1  0
 10  8  1  1
  8 14  1  0
 37 28  1  6
  4  5  1  0
 33 30  1  6
 30 38  1  0
 34 31  1  6
 31 39  1  0
 35 32  1  1
 32 40  1  0
 41 42  1  0
 41 43  1  0
 15 19  2  0
 16 22  2  0
 12 17  1  6
 17 19  1  0
 17 20  1  0
 18 19  1  0
 18 22  1  0
 18 23  1  0
  9 10  1  0
  9 11  1  0
 10 12  1  0
 11  5  1  6
 33 34  1  0
 33 35  1  0
 34 36  1  0
 35 37  1  0
 36 42  1  6
 20 21  2  0
 21 22  1  0
M  CHG  2   2  -1  26  -1
M  END
>  <COMPND>  (112) 
    8629 

>  <AUTHOR>  (112) 
    GENERATED BY OPEN BABEL 3.1.1

>  <MASTER>  (112) 
        0    0    0    0    0    0    0    0   58    0   58    0

>  <minimizedAffinity>  (112) 
-6.83147

>  <CNNscore>  (112) 
0.6389818192

>  <CNNaffinity>  (112) 
4.3294849396

>  <CNN_VS>  (112) 
2.7664620876

>  <CNNaffinity_variance>  (112) 
0.1380575299

$$$$
113
     RDKit          3D

 43 45  0  0  0  0  0  0  0  0999 V2000
   20.5931   75.2382   -1.0126 P   0  0  2  0  0  0  0  0  0  0  0  0
   21.0057   76.4066   -2.0528 O   0  0  0  0  0  0  0  0  0  0  0  0
   19.4673   75.5854   -0.0833 O   0  0  0  0  0  0  0  0  0  0  0  0
   21.9913   74.8379   -0.3035 O   0  0  0  0  0  0  0  0  0  0  0  0
   22.0302   74.7441    1.1098 C   0  0  0  0  0  0  0  0  0  0  0  0
   22.5879   72.4222    1.3770 O   0  0  0  0  0  0  0  0  0  0  0  0
   20.1733   72.2386    3.1453 O   0  0  0  0  0  0  0  0  0  0  0  0
   22.2183   72.3764    4.9441 O   0  0  0  0  0  0  0  0  0  0  0  0
   21.1029   73.3105    2.9961 C   0  0  1  0  0  0  0  0  0  0  0  0
   22.4124   72.9694    3.6762 C   0  0  2  0  0  0  0  0  0  0  0  0
   21.5133   73.3751    1.5302 C   0  0  1  0  0  0  0  0  0  0  0  0
   23.0480   72.0178    2.6769 C   0  0  2  0  0  0  0  0  0  0  0  0
   19.8965   72.1778    4.0735 H   0  0  0  0  0  0  0  0  0  0  0  0
   21.8118   73.0212    5.5439 H   0  0  0  0  0  0  0  0  0  0  0  0
   24.7427   69.8575    2.0145 O   0  0  0  0  0  0  0  0  0  0  0  0
   28.5362   72.3505    2.8117 O   0  0  0  0  0  0  0  0  0  0  0  0
   24.4824   72.0747    2.7024 N   0  0  0  0  0  0  0  0  0  0  0  0
   26.6302   71.1006    2.4119 N   0  0  0  0  0  0  0  0  0  0  0  0
   25.2408   70.9332    2.3527 C   0  0  0  0  0  0  0  0  0  0  0  0
   25.1227   73.2529    3.0707 C   0  0  0  0  0  0  0  0  0  0  0  0
   26.4486   73.3958    3.1233 C   0  0  0  0  0  0  0  0  0  0  0  0
   27.3137   72.2508    2.7731 C   0  0  0  0  0  0  0  0  0  0  0  0
   27.1789   70.3186    2.1729 H   0  0  0  0  0  0  0  0  0  0  0  0
   20.3021   73.9764   -1.9800 O   0  0  0  0  0  0  0  0  0  0  0  0
   21.3071   73.0256   -2.8160 P   0  0  2  0  0  0  0  0  0  0  0  0
   21.4090   71.6964   -1.8992 O   0  0  0  0  0  0  0  0  0  0  0  0
   22.6297   73.6594   -3.1367 O   0  0  0  0  0  0  0  0  0  0  0  0
   20.4551   72.5658   -4.1073 O   0  0  0  0  0  0  0  0  0  0  0  0
   19.6187   70.5302   -4.9869 O   0  0  0  0  0  0  0  0  0  0  0  0
   21.3132   72.0844   -8.4168 O   0  0  0  0  0  0  0  0  0  0  0  0
   18.4543   72.0195   -8.1516 O   0  0  0  0  0  0  0  0  0  0  0  0
   22.6375   72.4326   -5.8664 O   0  0  0  0  0  0  0  0  0  0  0  0
   20.6287   72.1376   -7.1623 C   0  0  1  0  0  0  0  0  0  0  0  0
   19.3413   71.3199   -7.2833 C   0  0  1  0  0  0  0  0  0  0  0  0
   21.5329   71.5593   -6.0753 C   0  0  2  0  0  0  0  0  0  0  0  0
   18.6887   71.1078   -5.9106 C   0  0  1  0  0  0  0  0  0  0  0  0
   20.7735   71.3422   -4.7653 C   0  0  1  0  0  0  0  0  0  0  0  0
   20.7447   72.4506   -9.1112 H   0  0  0  0  0  0  0  0  0  0  0  0
   18.8786   72.1473   -9.0146 H   0  0  0  0  0  0  0  0  0  0  0  0
   23.1102   72.5617   -6.7030 H   0  0  0  0  0  0  0  0  0  0  0  0
   16.3071   70.9270   -5.8438 O   0  0  0  0  0  0  0  0  0  0  0  0
   17.4908   70.1636   -5.9866 C   0  0  0  0  0  0  0  0  0  0  0  0
   15.5364   70.3392   -5.8904 H   0  0  0  0  0  0  0  0  0  0  0  0
 25 28  1  0
 25 24  1  0
 25 26  1  1
 25 27  2  0
  1  4  1  0
  1 24  1  0
  1  2  1  6
  1  3  2  0
  6 11  1  0
  6 12  1  0
 29 36  1  0
 29 37  1  0
  9  7  1  6
  7 13  1  0
 10  8  1  1
  8 14  1  0
 37 28  1  6
  4  5  1  0
 33 30  1  6
 30 38  1  0
 34 31  1  6
 31 39  1  0
 35 32  1  1
 32 40  1  0
 41 42  1  0
 41 43  1  0
 15 19  2  0
 16 22  2  0
 12 17  1  6
 17 19  1  0
 17 20  1  0
 18 19  1  0
 18 22  1  0
 18 23  1  0
  9 10  1  0
  9 11  1  0
 10 12  1  0
 11  5  1  1
 33 34  1  0
 33 35  1  0
 34 36  1  0
 35 37  1  0
 36 42  1  6
 20 21  2  0
 21 22  1  0
M  CHG  2   2  -1  26  -1
M  END
>  <COMPND>  (113) 
    8629 

>  <AUTHOR>  (113) 
    GENERATED BY OPEN BABEL 3.1.1

>  <MASTER>  (113) 
        0    0    0    0    0    0    0    0   58    0   58    0

>  <minimizedAffinity>  (113) 
-6.39529

>  <CNNscore>  (113) 
0.6249437332

>  <CNNaffinity>  (113) 
4.2713537216

>  <CNN_VS>  (113) 
2.6693556309

>  <CNNaffinity_variance>  (113) 
0.1512021422

$$$$
114
     RDKit          3D

 43 45  0  0  0  0  0  0  0  0999 V2000
   21.7501   72.4502   -5.5312 P   0  0  2  0  0  0  0  0  0  0  0  0
   21.0024   73.8750   -5.3633 O   0  0  0  0  0  0  0  0  0  0  0  0
   23.0618   72.5045   -6.2577 O   0  0  0  0  0  0  0  0  0  0  0  0
   20.6219   71.4946   -6.1885 O   0  0  0  0  0  0  0  0  0  0  0  0
   20.1229   71.8228   -7.4735 C   0  0  0  0  0  0  0  0  0  0  0  0
   18.7440   69.9306   -6.9333 O   0  0  0  0  0  0  0  0  0  0  0  0
   17.9820   69.8947   -9.8331 O   0  0  0  0  0  0  0  0  0  0  0  0
   15.8335   71.1051   -8.6689 O   0  0  0  0  0  0  0  0  0  0  0  0
   18.2426   71.0100   -8.9825 C   0  0  1  0  0  0  0  0  0  0  0  0
   17.0870   71.2243   -8.0274 C   0  0  2  0  0  0  0  0  0  0  0  0
   19.3711   70.6235   -8.0345 C   0  0  1  0  0  0  0  0  0  0  0  0
   17.3228   70.1326   -6.9975 C   0  0  2  0  0  0  0  0  0  0  0  0
   17.2648   70.1177  -10.4478 H   0  0  0  0  0  0  0  0  0  0  0  0
   15.7310   71.8219   -9.3142 H   0  0  0  0  0  0  0  0  0  0  0  0
   16.7929   68.2933   -4.9205 O   0  0  0  0  0  0  0  0  0  0  0  0
   15.4884   71.6443   -2.0377 O   0  0  0  0  0  0  0  0  0  0  0  0
   16.8442   70.4970   -5.6938 N   0  0  0  0  0  0  0  0  0  0  0  0
   16.1440   69.9634   -3.4867 N   0  0  0  0  0  0  0  0  0  0  0  0
   16.6089   69.4961   -4.7226 C   0  0  0  0  0  0  0  0  0  0  0  0
   16.6134   71.8341   -5.3891 C   0  0  0  0  0  0  0  0  0  0  0  0
   16.1688   72.2631   -4.2061 C   0  0  0  0  0  0  0  0  0  0  0  0
   15.8980   71.2814   -3.1361 C   0  0  0  0  0  0  0  0  0  0  0  0
   15.9727   69.2839   -2.7947 H   0  0  0  0  0  0  0  0  0  0  0  0
   21.8448   71.9081   -4.0113 O   0  0  0  0  0  0  0  0  0  0  0  0
   20.7448   71.1886   -3.0704 P   0  0  2  0  0  0  0  0  0  0  0  0
   20.8341   69.6358   -3.5159 O   0  0  0  0  0  0  0  0  0  0  0  0
   19.3693   71.7825   -3.1672 O   0  0  0  0  0  0  0  0  0  0  0  0
   21.3866   71.2255   -1.5900 O   0  0  0  0  0  0  0  0  0  0  0  0
   21.5580   73.0284   -0.0613 O   0  0  0  0  0  0  0  0  0  0  0  0
   25.1259   71.1212    0.7653 O   0  0  0  0  0  0  0  0  0  0  0  0
   22.9738   70.9873    2.6623 O   0  0  0  0  0  0  0  0  0  0  0  0
   24.1677   71.2729   -1.9621 O   0  0  0  0  0  0  0  0  0  0  0  0
   23.7434   71.2009    0.4078 C   0  0  1  0  0  0  0  0  0  0  0  0
   22.9905   71.8812    1.5528 C   0  0  1  0  0  0  0  0  0  0  0  0
   23.6070   72.0098   -0.8809 C   0  0  2  0  0  0  0  0  0  0  0  0
   21.5583   72.2428    1.1364 C   0  0  1  0  0  0  0  0  0  0  0  0
   22.1472   72.3580   -1.1772 C   0  0  1  0  0  0  0  0  0  0  0  0
   25.2195   70.6084    1.5825 H   0  0  0  0  0  0  0  0  0  0  0  0
   23.8841   70.7665    2.9149 H   0  0  0  0  0  0  0  0  0  0  0  0
   25.0919   71.0589   -1.7624 H   0  0  0  0  0  0  0  0  0  0  0  0
   20.3442   72.1755    3.1932 O   0  0  0  0  0  0  0  0  0  0  0  0
   20.8409   73.0618    2.2073 C   0  0  0  0  0  0  0  0  0  0  0  0
   19.8854   72.6828    3.8815 H   0  0  0  0  0  0  0  0  0  0  0  0
 25 28  1  0
 25 24  1  0
 25 26  1  6
 25 27  2  0
  1  4  1  0
  1 24  1  0
  1  2  1  1
  1  3  2  0
  6 11  1  0
  6 12  1  0
 29 36  1  0
 29 37  1  0
  9  7  1  6
  7 13  1  0
 10  8  1  6
  8 14  1  0
 37 28  1  1
  4  5  1  0
 33 30  1  1
 30 38  1  0
 34 31  1  1
 31 39  1  0
 35 32  1  6
 32 40  1  0
 41 42  1  0
 41 43  1  0
 15 19  2  0
 16 22  2  0
 12 17  1  1
 17 19  1  0
 17 20  1  0
 18 19  1  0
 18 22  1  0
 18 23  1  0
  9 10  1  0
  9 11  1  0
 10 12  1  0
 11  5  1  1
 33 34  1  0
 33 35  1  0
 34 36  1  0
 35 37  1  0
 36 42  1  1
 20 21  2  0
 21 22  1  0
M  CHG  2   2  -1  26  -1
M  END
>  <COMPND>  (114) 
    8629 

>  <AUTHOR>  (114) 
    GENERATED BY OPEN BABEL 3.1.1

>  <MASTER>  (114) 
        0    0    0    0    0    0    0    0   58    0   58    0

>  <minimizedAffinity>  (114) 
-7.28657

>  <CNNscore>  (114) 
0.5980002880

>  <CNNaffinity>  (114) 
4.3508758545

>  <CNN_VS>  (114) 
2.6018249989

>  <CNNaffinity_variance>  (114) 
0.4177291393

$$$$
115
     RDKit          3D

 43 45  0  0  0  0  0  0  0  0999 V2000
   20.8688   75.8609   -4.4114 P   0  0  2  0  0  0  0  0  0  0  0  0
   22.4098   75.3805   -4.3025 O   0  0  0  0  0  0  0  0  0  0  0  0
   20.6678   77.2073   -5.0424 O   0  0  0  0  0  0  0  0  0  0  0  0
   20.3044   75.7002   -2.9036 O   0  0  0  0  0  0  0  0  0  0  0  0
   20.9671   74.8075   -2.0252 C   0  0  0  0  0  0  0  0  0  0  0  0
   20.4709   72.8371   -0.7425 O   0  0  0  0  0  0  0  0  0  0  0  0
   18.3372   74.4691    0.5898 O   0  0  0  0  0  0  0  0  0  0  0  0
   20.3477   74.5016    2.4320 O   0  0  0  0  0  0  0  0  0  0  0  0
   19.6298   74.8699    0.1384 C   0  0  1  0  0  0  0  0  0  0  0  0
   20.6995   74.3438    1.0725 C   0  0  2  0  0  0  0  0  0  0  0  0
   19.9324   74.1141   -1.1495 C   0  0  1  0  0  0  0  0  0  0  0  0
   20.7904   72.8851    0.6577 C   0  0  2  0  0  0  0  0  0  0  0  0
   18.1217   74.9389    1.4112 H   0  0  0  0  0  0  0  0  0  0  0  0
   20.3028   75.4464    2.6469 H   0  0  0  0  0  0  0  0  0  0  0  0
   21.3367   70.1440    1.0647 O   0  0  0  0  0  0  0  0  0  0  0  0
   25.8687   70.9099    1.4056 O   0  0  0  0  0  0  0  0  0  0  0  0
   22.1041   72.3404    0.8551 N   0  0  0  0  0  0  0  0  0  0  0  0
   23.5928   70.5275    1.2339 N   0  0  0  0  0  0  0  0  0  0  0  0
   22.2697   70.9496    1.0518 C   0  0  0  0  0  0  0  0  0  0  0  0
   23.2110   73.1822    0.8520 C   0  0  0  0  0  0  0  0  0  0  0  0
   24.4661   72.7641    1.0284 C   0  0  0  0  0  0  0  0  0  0  0  0
   24.7259   71.3255    1.2404 C   0  0  0  0  0  0  0  0  0  0  0  0
   23.7325   69.5627    1.3732 H   0  0  0  0  0  0  0  0  0  0  0  0
   20.1614   74.6376   -5.1965 O   0  0  0  0  0  0  0  0  0  0  0  0
   20.7873   73.3209   -5.8946 P   0  0  2  0  0  0  0  0  0  0  0  0
   21.4842   72.5419   -4.6597 O   0  0  0  0  0  0  0  0  0  0  0  0
   21.7098   73.6127   -7.0425 O   0  0  0  0  0  0  0  0  0  0  0  0
   19.5079   72.4148   -6.2784 O   0  0  0  0  0  0  0  0  0  0  0  0
   18.8405   70.2305   -5.6458 O   0  0  0  0  0  0  0  0  0  0  0  0
   17.8093   70.1042   -9.6423 O   0  0  0  0  0  0  0  0  0  0  0  0
   15.7468   70.2630   -7.6500 O   0  0  0  0  0  0  0  0  0  0  0  0
   20.2290   71.4623   -8.8176 O   0  0  0  0  0  0  0  0  0  0  0  0
   17.9856   70.7142   -8.3608 C   0  0  1  0  0  0  0  0  0  0  0  0
   17.1090   69.9707   -7.3511 C   0  0  1  0  0  0  0  0  0  0  0  0
   19.4578   70.6244   -7.9635 C   0  0  2  0  0  0  0  0  0  0  0  0
   17.4424   70.3905   -5.9131 C   0  0  1  0  0  0  0  0  0  0  0  0
   19.6730   71.0167   -6.5007 C   0  0  1  0  0  0  0  0  0  0  0  0
   16.8766   70.1583   -9.9007 H   0  0  0  0  0  0  0  0  0  0  0  0
   15.5494   69.9936   -8.5609 H   0  0  0  0  0  0  0  0  0  0  0  0
   20.0843   71.2037   -9.7407 H   0  0  0  0  0  0  0  0  0  0  0  0
   16.1163   68.4374   -5.5444 O   0  0  0  0  0  0  0  0  0  0  0  0
   16.6922   69.5488   -4.8831 C   0  0  0  0  0  0  0  0  0  0  0  0
   15.6358   67.8925   -4.9011 H   0  0  0  0  0  0  0  0  0  0  0  0
 25 28  1  0
 25 24  1  0
 25 26  1  1
 25 27  2  0
  1  4  1  0
  1 24  1  0
  1  2  1  1
  1  3  2  0
  6 11  1  0
  6 12  1  0
 29 36  1  0
 29 37  1  0
  9  7  1  1
  7 13  1  0
 10  8  1  1
  8 14  1  0
 37 28  1  6
  4  5  1  0
 33 30  1  6
 30 38  1  0
 34 31  1  6
 31 39  1  0
 35 32  1  6
 32 40  1  0
 41 42  1  0
 41 43  1  0
 15 19  2  0
 16 22  2  0
 12 17  1  6
 17 19  1  0
 17 20  1  0
 18 19  1  0
 18 22  1  0
 18 23  1  0
  9 10  1  0
  9 11  1  0
 10 12  1  0
 11  5  1  6
 33 34  1  0
 33 35  1  0
 34 36  1  0
 35 37  1  0
 36 42  1  1
 20 21  2  0
 21 22  1  0
M  CHG  2   2  -1  26  -1
M  END
>  <COMPND>  (115) 
    8629 

>  <AUTHOR>  (115) 
    GENERATED BY OPEN BABEL 3.1.1

>  <MASTER>  (115) 
        0    0    0    0    0    0    0    0   58    0   58    0

>  <minimizedAffinity>  (115) 
-6.62523

>  <CNNscore>  (115) 
0.5610280037

>  <CNNaffinity>  (115) 
4.3663592339

>  <CNN_VS>  (115) 
2.4496498108

>  <CNNaffinity_variance>  (115) 
0.3166989982

$$$$
116
     RDKit          3D

 43 45  0  0  0  0  0  0  0  0999 V2000
   21.8815   72.4214   -5.7309 P   0  0  2  0  0  0  0  0  0  0  0  0
   21.1045   73.7629   -5.2682 O   0  0  0  0  0  0  0  0  0  0  0  0
   23.0737   72.6516   -6.6124 O   0  0  0  0  0  0  0  0  0  0  0  0
   20.7138   71.4925   -6.3568 O   0  0  0  0  0  0  0  0  0  0  0  0
   20.2627   71.7678   -7.6716 C   0  0  0  0  0  0  0  0  0  0  0  0
   18.8940   69.8934   -7.0496 O   0  0  0  0  0  0  0  0  0  0  0  0
   17.9925   69.8419   -9.9088 O   0  0  0  0  0  0  0  0  0  0  0  0
   15.9141   71.0823   -8.6525 O   0  0  0  0  0  0  0  0  0  0  0  0
   18.3042   70.9613   -9.0812 C   0  0  1  0  0  0  0  0  0  0  0  0
   17.1981   71.1944   -8.0733 C   0  0  2  0  0  0  0  0  0  0  0  0
   19.4736   70.5715   -8.1856 C   0  0  1  0  0  0  0  0  0  0  0  0
   17.4733   70.1087   -7.0469 C   0  0  2  0  0  0  0  0  0  0  0  0
   17.2485   70.0670  -10.4901 H   0  0  0  0  0  0  0  0  0  0  0  0
   15.7871   71.7948   -9.2982 H   0  0  0  0  0  0  0  0  0  0  0  0
   16.5633   68.2993   -5.0781 O   0  0  0  0  0  0  0  0  0  0  0  0
   15.9190   71.6772   -2.0097 O   0  0  0  0  0  0  0  0  0  0  0  0
   17.0617   70.4880   -5.7247 N   0  0  0  0  0  0  0  0  0  0  0  0
   16.2434   69.9827   -3.5518 N   0  0  0  0  0  0  0  0  0  0  0  0
   16.6204   69.5016   -4.8122 C   0  0  0  0  0  0  0  0  0  0  0  0
   17.0983   71.8251   -5.3444 C   0  0  0  0  0  0  0  0  0  0  0  0
   16.7342   72.2677   -4.1391 C   0  0  0  0  0  0  0  0  0  0  0  0
   16.2608   71.3017   -3.1268 C   0  0  0  0  0  0  0  0  0  0  0  0
   15.9322   69.3136   -2.8997 H   0  0  0  0  0  0  0  0  0  0  0  0
   22.2134   71.6912   -4.3274 O   0  0  0  0  0  0  0  0  0  0  0  0
   23.3032   72.0345   -3.1840 P   0  0  2  0  0  0  0  0  0  0  0  0
   23.9403   73.4340   -3.6868 O   0  0  0  0  0  0  0  0  0  0  0  0
   24.3094   70.9459   -2.9464 O   0  0  0  0  0  0  0  0  0  0  0  0
   22.4254   72.4284   -1.8881 O   0  0  0  0  0  0  0  0  0  0  0  0
   21.8318   71.2584    0.0856 O   0  0  0  0  0  0  0  0  0  0  0  0
   18.2203   73.0990   -0.7018 O   0  0  0  0  0  0  0  0  0  0  0  0
   19.8330   74.0195    1.4891 O   0  0  0  0  0  0  0  0  0  0  0  0
   19.8251   72.0756   -2.8828 O   0  0  0  0  0  0  0  0  0  0  0  0
   19.6457   72.9900   -0.6617 C   0  0  1  0  0  0  0  0  0  0  0  0
   20.0712   72.7980    0.7953 C   0  0  1  0  0  0  0  0  0  0  0  0
   20.0791   71.7960   -1.5102 C   0  0  2  0  0  0  0  0  0  0  0  0
   21.5523   72.4080    0.8930 C   0  0  1  0  0  0  0  0  0  0  0  0
   21.5573   71.4619   -1.3019 C   0  0  1  0  0  0  0  0  0  0  0  0
   17.9385   73.8555   -0.1654 H   0  0  0  0  0  0  0  0  0  0  0  0
   18.8943   74.2547    1.4192 H   0  0  0  0  0  0  0  0  0  0  0  0
   18.8861   72.2853   -3.0015 H   0  0  0  0  0  0  0  0  0  0  0  0
   20.7871   71.9661    3.1130 O   0  0  0  0  0  0  0  0  0  0  0  0
   21.9583   72.0582    2.3230 C   0  0  0  0  0  0  0  0  0  0  0  0
   21.0302   71.7436    4.0258 H   0  0  0  0  0  0  0  0  0  0  0  0
 25 28  1  0
 25 24  1  0
 25 26  1  6
 25 27  2  0
  1  4  1  0
  1 24  1  0
  1  2  1  1
  1  3  2  0
  6 11  1  0
  6 12  1  0
 29 36  1  0
 29 37  1  0
  9  7  1  6
  7 13  1  0
 10  8  1  6
  8 14  1  0
 37 28  1  1
  4  5  1  0
 33 30  1  1
 30 38  1  0
 34 31  1  1
 31 39  1  0
 35 32  1  6
 32 40  1  0
 41 42  1  0
 41 43  1  0
 15 19  2  0
 16 22  2  0
 12 17  1  1
 17 19  1  0
 17 20  1  0
 18 19  1  0
 18 22  1  0
 18 23  1  0
  9 10  1  0
  9 11  1  0
 10 12  1  0
 11  5  1  1
 33 34  1  0
 33 35  1  0
 34 36  1  0
 35 37  1  0
 36 42  1  1
 20 21  2  0
 21 22  1  0
M  CHG  2   2  -1  26  -1
M  END
>  <COMPND>  (116) 
    8629 

>  <AUTHOR>  (116) 
    GENERATED BY OPEN BABEL 3.1.1

>  <MASTER>  (116) 
        0    0    0    0    0    0    0    0   58    0   58    0

>  <minimizedAffinity>  (116) 
-7.53907

>  <CNNscore>  (116) 
0.5430210829

>  <CNNaffinity>  (116) 
4.2261223793

>  <CNN_VS>  (116) 
2.2948734760

>  <CNNaffinity_variance>  (116) 
0.5638504028

$$$$
117
     RDKit          3D

 43 45  0  0  0  0  0  0  0  0999 V2000
   23.5340   72.4609   -3.6107 P   0  0  2  0  0  0  0  0  0  0  0  0
   24.1428   71.0152   -3.2147 O   0  0  0  0  0  0  0  0  0  0  0  0
   24.5524   73.5452   -3.8071 O   0  0  0  0  0  0  0  0  0  0  0  0
   22.4218   72.7399   -2.4692 O   0  0  0  0  0  0  0  0  0  0  0  0
   22.8556   72.9200   -1.1323 C   0  0  0  0  0  0  0  0  0  0  0  0
   23.8892   71.3581    0.3730 O   0  0  0  0  0  0  0  0  0  0  0  0
   21.1251   70.3213    0.8977 O   0  0  0  0  0  0  0  0  0  0  0  0
   21.5925   71.8957    3.0747 O   0  0  0  0  0  0  0  0  0  0  0  0
   21.5557   71.6596    0.6552 C   0  0  1  0  0  0  0  0  0  0  0  0
   22.2657   72.2124    1.8733 C   0  0  2  0  0  0  0  0  0  0  0  0
   22.6789   71.6120   -0.3733 C   0  0  1  0  0  0  0  0  0  0  0  0
   23.6277   71.5469    1.7733 C   0  0  2  0  0  0  0  0  0  0  0  0
   20.4076   70.3261    1.5513 H   0  0  0  0  0  0  0  0  0  0  0  0
   20.7319   72.3427    3.0908 H   0  0  0  0  0  0  0  0  0  0  0  0
   26.2786   70.6618    2.1824 O   0  0  0  0  0  0  0  0  0  0  0  0
   27.5554   74.7217    3.9512 O   0  0  0  0  0  0  0  0  0  0  0  0
   24.6735   72.3519    2.3387 N   0  0  0  0  0  0  0  0  0  0  0  0
   26.9122   72.6841    3.0626 N   0  0  0  0  0  0  0  0  0  0  0  0
   25.9704   71.8117    2.5024 C   0  0  0  0  0  0  0  0  0  0  0  0
   24.4085   73.6616    2.7238 C   0  0  0  0  0  0  0  0  0  0  0  0
   25.3175   74.4801    3.2577 C   0  0  0  0  0  0  0  0  0  0  0  0
   26.6970   73.9934    3.4626 C   0  0  0  0  0  0  0  0  0  0  0  0
   27.8225   72.3294    3.1865 H   0  0  0  0  0  0  0  0  0  0  0  0
   22.6398   72.1333   -4.9168 O   0  0  0  0  0  0  0  0  0  0  0  0
   21.8640   73.1105   -5.9445 P   0  0  2  0  0  0  0  0  0  0  0  0
   22.6711   72.9062   -7.3317 O   0  0  0  0  0  0  0  0  0  0  0  0
   21.7716   74.5371   -5.4862 O   0  0  0  0  0  0  0  0  0  0  0  0
   20.4391   72.3941   -6.1927 O   0  0  0  0  0  0  0  0  0  0  0  0
   19.7415   70.2540   -5.4512 O   0  0  0  0  0  0  0  0  0  0  0  0
   17.6619   70.4281   -9.0143 O   0  0  0  0  0  0  0  0  0  0  0  0
   16.2427   70.6813   -6.5304 O   0  0  0  0  0  0  0  0  0  0  0  0
   20.3433   71.5069   -8.8533 O   0  0  0  0  0  0  0  0  0  0  0  0
   18.2409   70.9532   -7.8166 C   0  0  1  0  0  0  0  0  0  0  0  0
   17.5964   70.2463   -6.6226 C   0  0  1  0  0  0  0  0  0  0  0  0
   19.7477   70.7039   -7.8398 C   0  0  2  0  0  0  0  0  0  0  0  0
   18.3480   70.5593   -5.3218 C   0  0  1  0  0  0  0  0  0  0  0  0
   20.3901   70.9997   -6.4833 C   0  0  1  0  0  0  0  0  0  0  0  0
   16.7052   70.5836   -9.0062 H   0  0  0  0  0  0  0  0  0  0  0  0
   15.7794   70.4782   -7.3583 H   0  0  0  0  0  0  0  0  0  0  0  0
   19.9283   71.3101   -9.7070 H   0  0  0  0  0  0  0  0  0  0  0  0
   17.0140   68.6937   -4.6517 O   0  0  0  0  0  0  0  0  0  0  0  0
   17.8197   69.7418   -4.1450 C   0  0  0  0  0  0  0  0  0  0  0  0
   16.6711   68.1648   -3.9139 H   0  0  0  0  0  0  0  0  0  0  0  0
 25 28  1  0
 25 24  1  0
 25 26  1  6
 25 27  2  0
  1  4  1  0
  1 24  1  0
  1  2  1  1
  1  3  2  0
  6 11  1  0
  6 12  1  0
 29 36  1  0
 29 37  1  0
  9  7  1  1
  7 13  1  0
 10  8  1  1
  8 14  1  0
 37 28  1  1
  4  5  1  0
 33 30  1  6
 30 38  1  0
 34 31  1  1
 31 39  1  0
 35 32  1  6
 32 40  1  0
 41 42  1  0
 41 43  1  0
 15 19  2  0
 16 22  2  0
 12 17  1  6
 17 19  1  0
 17 20  1  0
 18 19  1  0
 18 22  1  0
 18 23  1  0
  9 10  1  0
  9 11  1  0
 10 12  1  0
 11  5  1  1
 33 34  1  0
 33 35  1  0
 34 36  1  0
 35 37  1  0
 36 42  1  1
 20 21  2  0
 21 22  1  0
M  CHG  2   2  -1  26  -1
M  END
>  <COMPND>  (117) 
    8629 

>  <AUTHOR>  (117) 
    GENERATED BY OPEN BABEL 3.1.1

>  <MASTER>  (117) 
        0    0    0    0    0    0    0    0   58    0   58    0

>  <minimizedAffinity>  (117) 
-7.99566

>  <CNNscore>  (117) 
0.5322779417

>  <CNNaffinity>  (117) 
4.2772645950

>  <CNN_VS>  (117) 
2.2766935825

>  <CNNaffinity_variance>  (117) 
0.2159542590

$$$$
118
     RDKit          3D

 43 45  0  0  0  0  0  0  0  0999 V2000
   20.1759   73.8323   -3.5004 P   0  0  2  0  0  0  0  0  0  0  0  0
   19.6127   75.2456   -4.0506 O   0  0  0  0  0  0  0  0  0  0  0  0
   19.1509   72.7422   -3.3880 O   0  0  0  0  0  0  0  0  0  0  0  0
   20.9370   74.2253   -2.1277 O   0  0  0  0  0  0  0  0  0  0  0  0
   21.5997   73.2022   -1.4053 C   0  0  0  0  0  0  0  0  0  0  0  0
   20.9503   74.6559    0.3944 O   0  0  0  0  0  0  0  0  0  0  0  0
   22.8773   73.1076    2.0915 O   0  0  0  0  0  0  0  0  0  0  0  0
   20.4696   72.0441    2.8048 O   0  0  0  0  0  0  0  0  0  0  0  0
   22.0296   72.6475    1.0402 C   0  0  1  0  0  0  0  0  0  0  0  0
   20.5906   72.5959    1.5096 C   0  0  2  0  0  0  0  0  0  0  0  0
   21.9769   73.7320   -0.0286 C   0  0  1  0  0  0  0  0  0  0  0  0
   20.1897   74.0604    1.4582 C   0  0  2  0  0  0  0  0  0  0  0  0
   22.9268   72.4314    2.7860 H   0  0  0  0  0  0  0  0  0  0  0  0
   20.7360   71.1116    2.7853 H   0  0  0  0  0  0  0  0  0  0  0  0
   18.3748   75.3453    3.1998 O   0  0  0  0  0  0  0  0  0  0  0  0
   14.8459   74.6757    0.3121 O   0  0  0  0  0  0  0  0  0  0  0  0
   18.7910   74.2362    1.1864 N   0  0  0  0  0  0  0  0  0  0  0  0
   16.6192   75.0110    1.7605 N   0  0  0  0  0  0  0  0  0  0  0  0
   17.9659   74.8946    2.1278 C   0  0  0  0  0  0  0  0  0  0  0  0
   18.2507   73.7585   -0.0026 C   0  0  0  0  0  0  0  0  0  0  0  0
   16.9641   73.8764   -0.3373 C   0  0  0  0  0  0  0  0  0  0  0  0
   16.0344   74.5516    0.5910 C   0  0  0  0  0  0  0  0  0  0  0  0
   16.0254   75.4658    2.4010 H   0  0  0  0  0  0  0  0  0  0  0  0
   21.3946   73.5081   -4.5116 O   0  0  0  0  0  0  0  0  0  0  0  0
   21.4288   73.3646   -6.1213 P   0  0  2  0  0  0  0  0  0  0  0  0
   22.6133   72.2918   -6.3731 O   0  0  0  0  0  0  0  0  0  0  0  0
   21.6052   74.6646   -6.8514 O   0  0  0  0  0  0  0  0  0  0  0  0
   20.0735   72.5694   -6.4894 O   0  0  0  0  0  0  0  0  0  0  0  0
   19.1177   70.4508   -6.0260 O   0  0  0  0  0  0  0  0  0  0  0  0
   18.5751   70.5384  -10.1185 O   0  0  0  0  0  0  0  0  0  0  0  0
   16.3111   70.8590   -8.3808 O   0  0  0  0  0  0  0  0  0  0  0  0
   21.0001   71.6142   -8.9601 O   0  0  0  0  0  0  0  0  0  0  0  0
   18.6539   71.0926   -8.8025 C   0  0  1  0  0  0  0  0  0  0  0  0
   17.5903   70.4183   -7.9337 C   0  0  1  0  0  0  0  0  0  0  0  0
   20.0500   70.8391   -8.2368 C   0  0  2  0  0  0  0  0  0  0  0  0
   17.7859   70.7628   -6.4511 C   0  0  1  0  0  0  0  0  0  0  0  0
   20.1232   71.1680   -6.7446 C   0  0  1  0  0  0  0  0  0  0  0  0
   17.6913   70.6963  -10.4836 H   0  0  0  0  0  0  0  0  0  0  0  0
   16.2005   70.6358   -9.3185 H   0  0  0  0  0  0  0  0  0  0  0  0
   20.9440   71.3965   -9.9031 H   0  0  0  0  0  0  0  0  0  0  0  0
   16.0982   69.0743   -6.3550 O   0  0  0  0  0  0  0  0  0  0  0  0
   16.8348   69.9773   -5.5510 C   0  0  0  0  0  0  0  0  0  0  0  0
   15.4888   68.5672   -5.7954 H   0  0  0  0  0  0  0  0  0  0  0  0
 25 28  1  0
 25 24  1  0
 25 26  1  1
 25 27  2  0
  1  4  1  0
  1 24  1  0
  1  2  1  6
  1  3  2  0
  6 11  1  0
  6 12  1  0
 29 36  1  0
 29 37  1  0
  9  7  1  1
  7 13  1  0
 10  8  1  1
  8 14  1  0
 37 28  1  6
  4  5  1  0
 33 30  1  6
 30 38  1  0
 34 31  1  6
 31 39  1  0
 35 32  1  6
 32 40  1  0
 41 42  1  0
 41 43  1  0
 15 19  2  0
 16 22  2  0
 12 17  1  6
 17 19  1  0
 17 20  1  0
 18 19  1  0
 18 22  1  0
 18 23  1  0
  9 10  1  0
  9 11  1  0
 10 12  1  0
 11  5  1  6
 33 34  1  0
 33 35  1  0
 34 36  1  0
 35 37  1  0
 36 42  1  1
 20 21  2  0
 21 22  1  0
M  CHG  2   2  -1  26  -1
M  END
>  <COMPND>  (118) 
    8629 

>  <AUTHOR>  (118) 
    GENERATED BY OPEN BABEL 3.1.1

>  <MASTER>  (118) 
        0    0    0    0    0    0    0    0   58    0   58    0

>  <minimizedAffinity>  (118) 
-6.12382

>  <CNNscore>  (118) 
0.5234547257

>  <CNNaffinity>  (118) 
4.0737853050

>  <CNN_VS>  (118) 
2.1324422359

>  <CNNaffinity_variance>  (118) 
0.1084922999

$$$$
119
     RDKit          3D

 43 45  0  0  0  0  0  0  0  0999 V2000
   18.3178   70.4753   -3.1079 P   0  0  2  0  0  0  0  0  0  0  0  0
   17.8966   69.2610   -2.1253 O   0  0  0  0  0  0  0  0  0  0  0  0
   17.8552   71.8340   -2.6706 O   0  0  0  0  0  0  0  0  0  0  0  0
   17.8032   69.9929   -4.5641 O   0  0  0  0  0  0  0  0  0  0  0  0
   18.5214   70.4169   -5.7096 C   0  0  0  0  0  0  0  0  0  0  0  0
   16.3671   70.5239   -6.7685 O   0  0  0  0  0  0  0  0  0  0  0  0
   17.8117   69.9802   -9.3392 O   0  0  0  0  0  0  0  0  0  0  0  0
   17.3955   72.6730   -9.4493 O   0  0  0  0  0  0  0  0  0  0  0  0
   18.2304   70.7520   -8.2148 C   0  0  1  0  0  0  0  0  0  0  0  0
   17.4851   72.0697   -8.1746 C   0  0  2  0  0  0  0  0  0  0  0  0
   17.7224   70.0607   -6.9557 C   0  0  1  0  0  0  0  0  0  0  0  0
   16.1305   71.6491   -7.6303 C   0  0  2  0  0  0  0  0  0  0  0  0
   18.1248   70.4019  -10.1553 H   0  0  0  0  0  0  0  0  0  0  0  0
   18.2825   72.9226   -9.7521 H   0  0  0  0  0  0  0  0  0  0  0  0
   14.5991   73.7366   -8.7595 O   0  0  0  0  0  0  0  0  0  0  0  0
   13.7478   75.5935   -4.6281 O   0  0  0  0  0  0  0  0  0  0  0  0
   15.4968   72.6913   -6.8730 N   0  0  0  0  0  0  0  0  0  0  0  0
   14.1763   74.6594   -6.7014 N   0  0  0  0  0  0  0  0  0  0  0  0
   14.7510   73.6931   -7.5369 C   0  0  0  0  0  0  0  0  0  0  0  0
   15.6178   72.7130   -5.4878 C   0  0  0  0  0  0  0  0  0  0  0  0
   15.0646   73.6422   -4.7056 C   0  0  0  0  0  0  0  0  0  0  0  0
   14.2690   74.7244   -5.3201 C   0  0  0  0  0  0  0  0  0  0  0  0
   13.6524   75.3675   -7.1418 H   0  0  0  0  0  0  0  0  0  0  0  0
   19.9224   70.3141   -3.2178 O   0  0  0  0  0  0  0  0  0  0  0  0
   21.1198   71.3335   -2.8436 P   0  0  2  0  0  0  0  0  0  0  0  0
   20.7302   72.6776   -3.6555 O   0  0  0  0  0  0  0  0  0  0  0  0
   22.4932   70.8057   -3.1424 O   0  0  0  0  0  0  0  0  0  0  0  0
   20.8692   71.7065   -1.2934 O   0  0  0  0  0  0  0  0  0  0  0  0
   20.7657   73.7343   -0.0712 O   0  0  0  0  0  0  0  0  0  0  0  0
   23.0322   71.4956    2.5559 O   0  0  0  0  0  0  0  0  0  0  0  0
   20.2987   72.0977    3.1987 O   0  0  0  0  0  0  0  0  0  0  0  0
   23.4496   71.2341   -0.2967 O   0  0  0  0  0  0  0  0  0  0  0  0
   22.0146   71.7188    1.5761 C   0  0  1  0  0  0  0  0  0  0  0  0
   21.0167   72.7304    2.1430 C   0  0  1  0  0  0  0  0  0  0  0  0
   22.6596   72.2568    0.3002 C   0  0  2  0  0  0  0  0  0  0  0  0
   20.0489   73.2216    1.0580 C   0  0  1  0  0  0  0  0  0  0  0  0
   21.6115   72.7641   -0.6919 C   0  0  1  0  0  0  0  0  0  0  0  0
   22.6294   71.1534    3.3684 H   0  0  0  0  0  0  0  0  0  0  0  0
   20.9214   71.7918    3.8769 H   0  0  0  0  0  0  0  0  0  0  0  0
   24.1094   70.9216    0.3412 H   0  0  0  0  0  0  0  0  0  0  0  0
   19.7517   74.9298    2.7020 O   0  0  0  0  0  0  0  0  0  0  0  0
   19.1475   74.3464    1.5623 C   0  0  0  0  0  0  0  0  0  0  0  0
   19.1891   75.6476    3.0337 H   0  0  0  0  0  0  0  0  0  0  0  0
 25 28  1  0
 25 24  1  0
 25 26  1  6
 25 27  2  0
  1  4  1  0
  1 24  1  0
  1  2  1  1
  1  3  2  0
  6 11  1  0
  6 12  1  0
 29 36  1  0
 29 37  1  0
  9  7  1  6
  7 13  1  0
 10  8  1  6
  8 14  1  0
 37 28  1  1
  4  5  1  0
 33 30  1  1
 30 38  1  0
 34 31  1  1
 31 39  1  0
 35 32  1  6
 32 40  1  0
 41 42  1  0
 41 43  1  0
 15 19  2  0
 16 22  2  0
 12 17  1  1
 17 19  1  0
 17 20  1  0
 18 19  1  0
 18 22  1  0
 18 23  1  0
  9 10  1  0
  9 11  1  0
 10 12  1  0
 11  5  1  1
 33 34  1  0
 33 35  1  0
 34 36  1  0
 35 37  1  0
 36 42  1  1
 20 21  2  0
 21 22  1  0
M  CHG  2   2  -1  26  -1
M  END
>  <COMPND>  (119) 
    8629 

>  <AUTHOR>  (119) 
    GENERATED BY OPEN BABEL 3.1.1

>  <MASTER>  (119) 
        0    0    0    0    0    0    0    0   58    0   58    0

>  <minimizedAffinity>  (119) 
-6.37302

>  <CNNscore>  (119) 
0.5010579824

>  <CNNaffinity>  (119) 
4.0234913826

>  <CNN_VS>  (119) 
2.0160024166

>  <CNNaffinity_variance>  (119) 
0.1144291162

$$$$
120
     RDKit          3D

 43 45  0  0  0  0  0  0  0  0999 V2000
   22.9710   72.4923   -3.6991 P   0  0  2  0  0  0  0  0  0  0  0  0
   23.8664   71.1911   -3.3488 O   0  0  0  0  0  0  0  0  0  0  0  0
   23.5381   73.7981   -3.2250 O   0  0  0  0  0  0  0  0  0  0  0  0
   21.5025   72.1171   -3.1329 O   0  0  0  0  0  0  0  0  0  0  0  0
   21.3517   70.9251   -2.3817 C   0  0  0  0  0  0  0  0  0  0  0  0
   20.9319   70.7528   -0.0221 O   0  0  0  0  0  0  0  0  0  0  0  0
   18.6891   72.6920   -0.4694 O   0  0  0  0  0  0  0  0  0  0  0  0
   20.6563   74.2829    0.5483 O   0  0  0  0  0  0  0  0  0  0  0  0
   19.9683   72.6315   -1.0981 C   0  0  1  0  0  0  0  0  0  0  0  0
   21.0441   73.1167   -0.1491 C   0  0  2  0  0  0  0  0  0  0  0  0
   20.3364   71.1633   -1.2724 C   0  0  1  0  0  0  0  0  0  0  0  0
   21.2193   71.9182    0.7680 C   0  0  2  0  0  0  0  0  0  0  0  0
   18.4324   73.6201   -0.3478 H   0  0  0  0  0  0  0  0  0  0  0  0
   20.5580   75.0168   -0.0782 H   0  0  0  0  0  0  0  0  0  0  0  0
   22.0578   72.9724    3.2506 O   0  0  0  0  0  0  0  0  0  0  0  0
   26.3688   71.4596    2.6445 O   0  0  0  0  0  0  0  0  0  0  0  0
   22.5551   71.8139    1.2840 N   0  0  0  0  0  0  0  0  0  0  0  0
   24.2036   72.2181    2.9469 N   0  0  0  0  0  0  0  0  0  0  0  0
   22.8726   72.3787    2.5412 C   0  0  0  0  0  0  0  0  0  0  0  0
   23.5337   71.1571    0.5459 C   0  0  0  0  0  0  0  0  0  0  0  0
   24.7988   71.0137    0.9463 C   0  0  0  0  0  0  0  0  0  0  0  0
   25.2131   71.5748    2.2484 C   0  0  0  0  0  0  0  0  0  0  0  0
   24.4480   72.6038    3.8194 H   0  0  0  0  0  0  0  0  0  0  0  0
   22.7818   72.3829   -5.3007 O   0  0  0  0  0  0  0  0  0  0  0  0
   21.8690   73.2402   -6.3228 P   0  0  2  0  0  0  0  0  0  0  0  0
   22.5326   72.9273   -7.7647 O   0  0  0  0  0  0  0  0  0  0  0  0
   21.7759   74.7007   -5.9878 O   0  0  0  0  0  0  0  0  0  0  0  0
   20.4517   72.4686   -6.3503 O   0  0  0  0  0  0  0  0  0  0  0  0
   19.8822   70.3334   -5.4941 O   0  0  0  0  0  0  0  0  0  0  0  0
   17.4884   70.3550   -8.8586 O   0  0  0  0  0  0  0  0  0  0  0  0
   16.2905   70.6423   -6.2642 O   0  0  0  0  0  0  0  0  0  0  0  0
   20.1428   71.5048   -8.9676 O   0  0  0  0  0  0  0  0  0  0  0  0
   18.1575   70.9279   -7.7318 C   0  0  1  0  0  0  0  0  0  0  0  0
   17.6420   70.2389   -6.4668 C   0  0  1  0  0  0  0  0  0  0  0  0
   19.6625   70.7160   -7.8843 C   0  0  2  0  0  0  0  0  0  0  0  0
   18.4981   70.6072   -5.2475 C   0  0  1  0  0  0  0  0  0  0  0  0
   20.4152   71.0658   -6.5993 C   0  0  1  0  0  0  0  0  0  0  0  0
   16.5323   70.4866   -8.7682 H   0  0  0  0  0  0  0  0  0  0  0  0
   15.7609   70.4045   -7.0414 H   0  0  0  0  0  0  0  0  0  0  0  0
   19.6587   71.2737   -9.7752 H   0  0  0  0  0  0  0  0  0  0  0  0
   17.2624   68.7418   -4.4095 O   0  0  0  0  0  0  0  0  0  0  0  0
   18.0997   69.8101   -4.0073 C   0  0  0  0  0  0  0  0  0  0  0  0
   17.0013   68.2255   -3.6304 H   0  0  0  0  0  0  0  0  0  0  0  0
 25 28  1  0
 25 24  1  0
 25 26  1  6
 25 27  2  0
  1  4  1  0
  1 24  1  0
  1  2  1  1
  1  3  2  0
  6 11  1  0
  6 12  1  0
 29 36  1  0
 29 37  1  0
  9  7  1  1
  7 13  1  0
 10  8  1  1
  8 14  1  0
 37 28  1  1
  4  5  1  0
 33 30  1  6
 30 38  1  0
 34 31  1  1
 31 39  1  0
 35 32  1  6
 32 40  1  0
 41 42  1  0
 41 43  1  0
 15 19  2  0
 16 22  2  0
 12 17  1  6
 17 19  1  0
 17 20  1  0
 18 19  1  0
 18 22  1  0
 18 23  1  0
  9 10  1  0
  9 11  1  0
 10 12  1  0
 11  5  1  6
 33 34  1  0
 33 35  1  0
 34 36  1  0
 35 37  1  0
 36 42  1  1
 20 21  2  0
 21 22  1  0
M  CHG  2   2  -1  26  -1
M  END
>  <COMPND>  (120) 
    8629 

>  <AUTHOR>  (120) 
    GENERATED BY OPEN BABEL 3.1.1

>  <MASTER>  (120) 
        0    0    0    0    0    0    0    0   58    0   58    0

>  <minimizedAffinity>  (120) 
-7.19448

>  <CNNscore>  (120) 
0.4922613502

>  <CNNaffinity>  (120) 
4.1503310204

>  <CNN_VS>  (120) 
2.0430476665

>  <CNNaffinity_variance>  (120) 
0.1188900843

$$$$
121
     RDKit          3D

 43 45  0  0  0  0  0  0  0  0999 V2000
   22.8469   71.6108   -2.7254 P   0  0  2  0  0  0  0  0  0  0  0  0
   22.8351   73.1857   -2.3552 O   0  0  0  0  0  0  0  0  0  0  0  0
   24.1858   71.0637   -3.1249 O   0  0  0  0  0  0  0  0  0  0  0  0
   21.6702   71.4617   -3.8258 O   0  0  0  0  0  0  0  0  0  0  0  0
   20.7678   70.3756   -3.7078 C   0  0  0  0  0  0  0  0  0  0  0  0
   18.9388   71.5985   -4.6737 O   0  0  0  0  0  0  0  0  0  0  0  0
   17.2445   70.4134   -2.5022 O   0  0  0  0  0  0  0  0  0  0  0  0
   16.6280   68.8557   -4.6540 O   0  0  0  0  0  0  0  0  0  0  0  0
   18.3315   69.8296   -3.2184 C   0  0  1  0  0  0  0  0  0  0  0  0
   17.9010   69.4684   -4.6247 C   0  0  2  0  0  0  0  0  0  0  0  0
   19.3654   70.9196   -3.4723 C   0  0  1  0  0  0  0  0  0  0  0  0
   17.9147   70.8213   -5.3157 C   0  0  2  0  0  0  0  0  0  0  0  0
   16.5714   69.7362   -2.3281 H   0  0  0  0  0  0  0  0  0  0  0  0
   16.6711   67.9985   -4.2022 H   0  0  0  0  0  0  0  0  0  0  0  0
   16.0194   70.1966   -7.3146 O   0  0  0  0  0  0  0  0  0  0  0  0
   19.1856   70.4516  -10.6541 O   0  0  0  0  0  0  0  0  0  0  0  0
   18.2163   70.7183   -6.7157 N   0  0  0  0  0  0  0  0  0  0  0  0
   17.5974   70.3243   -8.9758 N   0  0  0  0  0  0  0  0  0  0  0  0
   17.1920   70.3984   -7.6371 C   0  0  0  0  0  0  0  0  0  0  0  0
   19.5155   70.9338   -7.1624 C   0  0  0  0  0  0  0  0  0  0  0  0
   19.8860   70.8581   -8.4423 C   0  0  0  0  0  0  0  0  0  0  0  0
   18.8763   70.5288   -9.4690 C   0  0  0  0  0  0  0  0  0  0  0  0
   16.9009   70.1024   -9.6356 H   0  0  0  0  0  0  0  0  0  0  0  0
   22.2043   70.9236   -1.4109 O   0  0  0  0  0  0  0  0  0  0  0  0
   21.5022   71.5745   -0.1085 P   0  0  2  0  0  0  0  0  0  0  0  0
   20.9257   70.2874    0.6844 O   0  0  0  0  0  0  0  0  0  0  0  0
   20.4724   72.6207   -0.4227 O   0  0  0  0  0  0  0  0  0  0  0  0
   22.7302   72.0962    0.7998 O   0  0  0  0  0  0  0  0  0  0  0  0
   24.4023   71.4020    2.3290 O   0  0  0  0  0  0  0  0  0  0  0  0
   22.2727   73.9443    4.7892 O   0  0  0  0  0  0  0  0  0  0  0  0
   24.8570   74.7413    3.8227 O   0  0  0  0  0  0  0  0  0  0  0  0
   20.8738   72.2572    2.8981 O   0  0  0  0  0  0  0  0  0  0  0  0
   22.8339   73.4942    3.5531 C   0  0  1  0  0  0  0  0  0  0  0  0
   24.3528   73.4127    3.7175 C   0  0  1  0  0  0  0  0  0  0  0  0
   22.2556   72.1220    3.2126 C   0  0  2  0  0  0  0  0  0  0  0  0
   25.0005   72.6879    2.5300 C   0  0  1  0  0  0  0  0  0  0  0  0
   23.0025   71.4671    2.0493 C   0  0  1  0  0  0  0  0  0  0  0  0
   22.6354   74.8153    5.0109 H   0  0  0  0  0  0  0  0  0  0  0  0
   24.4398   75.1881    4.5760 H   0  0  0  0  0  0  0  0  0  0  0  0
   20.4120   72.6727    3.6424 H   0  0  0  0  0  0  0  0  0  0  0  0
   26.7976   71.1194    2.3926 O   0  0  0  0  0  0  0  0  0  0  0  0
   26.4942   72.4560    2.7470 C   0  0  0  0  0  0  0  0  0  0  0  0
   27.7452   70.9575    2.5254 H   0  0  0  0  0  0  0  0  0  0  0  0
 25 28  1  0
 25 24  1  0
 25 26  1  1
 25 27  2  0
  1  4  1  0
  1 24  1  0
  1  2  1  1
  1  3  2  0
  6 11  1  0
  6 12  1  0
 29 36  1  0
 29 37  1  0
  9  7  1  1
  7 13  1  0
 10  8  1  1
  8 14  1  0
 37 28  1  6
  4  5  1  0
 33 30  1  1
 30 38  1  0
 34 31  1  6
 31 39  1  0
 35 32  1  6
 32 40  1  0
 41 42  1  0
 41 43  1  0
 15 19  2  0
 16 22  2  0
 12 17  1  6
 17 19  1  0
 17 20  1  0
 18 19  1  0
 18 22  1  0
 18 23  1  0
  9 10  1  0
  9 11  1  0
 10 12  1  0
 11  5  1  6
 33 34  1  0
 33 35  1  0
 34 36  1  0
 35 37  1  0
 36 42  1  1
 20 21  2  0
 21 22  1  0
M  CHG  2   2  -1  26  -1
M  END
>  <COMPND>  (121) 
    8629 

>  <AUTHOR>  (121) 
    GENERATED BY OPEN BABEL 3.1.1

>  <MASTER>  (121) 
        0    0    0    0    0    0    0    0   58    0   58    0

>  <minimizedAffinity>  (121) 
-7.99025

>  <CNNscore>  (121) 
0.9477313757

>  <CNNaffinity>  (121) 
4.8500537872

>  <CNN_VS>  (121) 
4.5965480804

>  <CNNaffinity_variance>  (121) 
0.0389773026

$$$$
122
     RDKit          3D

 43 45  0  0  0  0  0  0  0  0999 V2000
   22.4588   71.6140   -2.9429 P   0  0  2  0  0  0  0  0  0  0  0  0
   22.2317   73.2019   -2.7318 O   0  0  0  0  0  0  0  0  0  0  0  0
   23.8695   71.2119   -3.2582 O   0  0  0  0  0  0  0  0  0  0  0  0
   21.3485   71.2063   -4.0469 O   0  0  0  0  0  0  0  0  0  0  0  0
   20.4202   70.1847   -3.7269 C   0  0  0  0  0  0  0  0  0  0  0  0
   18.7232   71.5144   -4.7882 O   0  0  0  0  0  0  0  0  0  0  0  0
   16.8361   70.4043   -2.7394 O   0  0  0  0  0  0  0  0  0  0  0  0
   16.2709   68.9020   -4.9440 O   0  0  0  0  0  0  0  0  0  0  0  0
   17.9323   69.7684   -3.3947 C   0  0  1  0  0  0  0  0  0  0  0  0
   17.5709   69.4439   -4.8292 C   0  0  2  0  0  0  0  0  0  0  0  0
   19.0373   70.8024   -3.5713 C   0  0  1  0  0  0  0  0  0  0  0  0
   17.7004   70.8002   -5.5013 C   0  0  2  0  0  0  0  0  0  0  0  0
   16.1180   69.7634   -2.6153 H   0  0  0  0  0  0  0  0  0  0  0  0
   16.2395   68.0397   -4.5010 H   0  0  0  0  0  0  0  0  0  0  0  0
   15.9156   70.2106   -7.6096 O   0  0  0  0  0  0  0  0  0  0  0  0
   19.2769   70.4138  -10.7563 O   0  0  0  0  0  0  0  0  0  0  0  0
   18.0821   70.6933   -6.8813 N   0  0  0  0  0  0  0  0  0  0  0  0
   17.5907   70.3124   -9.1747 N   0  0  0  0  0  0  0  0  0  0  0  0
   17.1085   70.3922   -7.8620 C   0  0  0  0  0  0  0  0  0  0  0  0
   19.4089   70.8866   -7.2503 C   0  0  0  0  0  0  0  0  0  0  0  0
   19.8528   70.8058   -8.5063 C   0  0  0  0  0  0  0  0  0  0  0  0
   18.8998   70.4951   -9.5914 C   0  0  0  0  0  0  0  0  0  0  0  0
   16.9304   70.1034   -9.8748 H   0  0  0  0  0  0  0  0  0  0  0  0
   21.8665   70.9778   -1.5800 O   0  0  0  0  0  0  0  0  0  0  0  0
   21.3067   71.6805   -0.2362 P   0  0  2  0  0  0  0  0  0  0  0  0
   21.0936   70.4342    0.7731 O   0  0  0  0  0  0  0  0  0  0  0  0
   20.0822   72.5232   -0.4468 O   0  0  0  0  0  0  0  0  0  0  0  0
   22.5734   72.4799    0.3650 O   0  0  0  0  0  0  0  0  0  0  0  0
   22.0311   73.9752    2.1218 O   0  0  0  0  0  0  0  0  0  0  0  0
   25.8675   75.2710    1.3132 O   0  0  0  0  0  0  0  0  0  0  0  0
   25.3488   73.7889    3.7179 O   0  0  0  0  0  0  0  0  0  0  0  0
   24.1253   74.4735   -0.8567 O   0  0  0  0  0  0  0  0  0  0  0  0
   24.8178   74.3085    1.4443 C   0  0  1  0  0  0  0  0  0  0  0  0
   24.3230   74.3327    2.8919 C   0  0  1  0  0  0  0  0  0  0  0  0
   23.6866   74.6695    0.4833 C   0  0  2  0  0  0  0  0  0  0  0  0
   23.0271   73.5256    3.0479 C   0  0  1  0  0  0  0  0  0  0  0  0
   22.4287   73.8428    0.7557 C   0  0  1  0  0  0  0  0  0  0  0  0
   26.5891   75.0472    1.9204 H   0  0  0  0  0  0  0  0  0  0  0  0
   26.1616   74.3072    3.6096 H   0  0  0  0  0  0  0  0  0  0  0  0
   24.9220   75.0023   -1.0166 H   0  0  0  0  0  0  0  0  0  0  0  0
   22.3954   72.3855    5.0504 O   0  0  0  0  0  0  0  0  0  0  0  0
   22.4311   73.6657    4.4469 C   0  0  0  0  0  0  0  0  0  0  0  0
   22.0186   72.4593    5.9417 H   0  0  0  0  0  0  0  0  0  0  0  0
 25 28  1  0
 25 24  1  0
 25 26  1  1
 25 27  2  0
  1  4  1  0
  1 24  1  0
  1  2  1  1
  1  3  2  0
  6 11  1  0
  6 12  1  0
 29 36  1  0
 29 37  1  0
  9  7  1  1
  7 13  1  0
 10  8  1  1
  8 14  1  0
 37 28  1  1
  4  5  1  0
 33 30  1  1
 30 38  1  0
 34 31  1  1
 31 39  1  0
 35 32  1  6
 32 40  1  0
 41 42  1  0
 41 43  1  0
 15 19  2  0
 16 22  2  0
 12 17  1  6
 17 19  1  0
 17 20  1  0
 18 19  1  0
 18 22  1  0
 18 23  1  0
  9 10  1  0
  9 11  1  0
 10 12  1  0
 11  5  1  6
 33 34  1  0
 33 35  1  0
 34 36  1  0
 35 37  1  0
 36 42  1  1
 20 21  2  0
 21 22  1  0
M  CHG  2   2  -1  26  -1
M  END
>  <COMPND>  (122) 
    8629 

>  <AUTHOR>  (122) 
    GENERATED BY OPEN BABEL 3.1.1

>  <MASTER>  (122) 
        0    0    0    0    0    0    0    0   58    0   58    0

>  <minimizedAffinity>  (122) 
-7.64921

>  <CNNscore>  (122) 
0.9338609576

>  <CNNaffinity>  (122) 
4.7801361084

>  <CNN_VS>  (122) 
4.4639825821

>  <CNNaffinity_variance>  (122) 
0.0414215550

$$$$
123
     RDKit          3D

 43 45  0  0  0  0  0  0  0  0999 V2000
   20.8351   71.6306   -1.3792 P   0  0  2  0  0  0  0  0  0  0  0  0
   21.5043   70.8160   -0.1520 O   0  0  0  0  0  0  0  0  0  0  0  0
   20.4594   73.0495   -1.0680 O   0  0  0  0  0  0  0  0  0  0  0  0
   19.6246   70.6738   -1.8663 O   0  0  0  0  0  0  0  0  0  0  0  0
   19.2871   70.6581   -3.2424 C   0  0  0  0  0  0  0  0  0  0  0  0
   17.5498   71.5185   -4.6620 O   0  0  0  0  0  0  0  0  0  0  0  0
   15.6507   69.8891   -3.0099 O   0  0  0  0  0  0  0  0  0  0  0  0
   15.9650   68.3538   -5.2417 O   0  0  0  0  0  0  0  0  0  0  0  0
   16.9858   69.5863   -3.4113 C   0  0  1  0  0  0  0  0  0  0  0  0
   17.0227   69.2182   -4.8799 C   0  0  2  0  0  0  0  0  0  0  0  0
   17.7880   70.8814   -3.3877 C   0  0  1  0  0  0  0  0  0  0  0  0
   16.9205   70.5787   -5.5483 C   0  0  2  0  0  0  0  0  0  0  0  0
   15.1191   69.0771   -3.0169 H   0  0  0  0  0  0  0  0  0  0  0  0
   16.0748   67.5020   -4.7910 H   0  0  0  0  0  0  0  0  0  0  0  0
   15.6093   70.4366   -8.0460 O   0  0  0  0  0  0  0  0  0  0  0  0
   19.5862   70.7309  -10.3567 O   0  0  0  0  0  0  0  0  0  0  0  0
   17.5888   70.6163   -6.8186 N   0  0  0  0  0  0  0  0  0  0  0  0
   17.5905   70.5834   -9.1946 N   0  0  0  0  0  0  0  0  0  0  0  0
   16.8376   70.5372   -8.0143 C   0  0  0  0  0  0  0  0  0  0  0  0
   18.9737   70.7309   -6.8699 C   0  0  0  0  0  0  0  0  0  0  0  0
   19.6769   70.7724   -8.0035 C   0  0  0  0  0  0  0  0  0  0  0  0
   18.9681   70.6954   -9.2972 C   0  0  0  0  0  0  0  0  0  0  0  0
   17.0885   70.5295  -10.0400 H   0  0  0  0  0  0  0  0  0  0  0  0
   21.9255   71.4672   -2.5613 O   0  0  0  0  0  0  0  0  0  0  0  0
   23.3432   72.2040   -2.8071 P   0  0  2  0  0  0  0  0  0  0  0  0
   24.3724   70.9715   -3.0052 O   0  0  0  0  0  0  0  0  0  0  0  0
   23.7320   73.1674   -1.7233 O   0  0  0  0  0  0  0  0  0  0  0  0
   23.2114   72.8647   -4.2737 O   0  0  0  0  0  0  0  0  0  0  0  0
   21.0588   73.8539   -4.3410 O   0  0  0  0  0  0  0  0  0  0  0  0
   22.3327   74.7855   -8.1568 O   0  0  0  0  0  0  0  0  0  0  0  0
   22.1586   76.8566   -6.1749 O   0  0  0  0  0  0  0  0  0  0  0  0
   23.0033   72.2195   -6.9968 O   0  0  0  0  0  0  0  0  0  0  0  0
   22.4814   74.5582   -6.7527 C   0  0  1  0  0  0  0  0  0  0  0  0
   21.5949   75.5586   -6.0084 C   0  0  1  0  0  0  0  0  0  0  0  0
   22.0614   73.1250   -6.4318 C   0  0  2  0  0  0  0  0  0  0  0  0
   21.4935   75.2072   -4.5180 C   0  0  1  0  0  0  0  0  0  0  0  0
   21.9435   72.8951   -4.9240 C   0  0  1  0  0  0  0  0  0  0  0  0
   22.5982   75.6936   -8.3673 H   0  0  0  0  0  0  0  0  0  0  0  0
   22.2175   77.0661   -7.1203 H   0  0  0  0  0  0  0  0  0  0  0  0
   23.0685   72.3750   -7.9515 H   0  0  0  0  0  0  0  0  0  0  0  0
   20.2124   75.5190   -2.5254 O   0  0  0  0  0  0  0  0  0  0  0  0
   20.4903   76.0971   -3.7874 C   0  0  0  0  0  0  0  0  0  0  0  0
   19.5754   76.0748   -2.0490 H   0  0  0  0  0  0  0  0  0  0  0  0
 25 28  1  0
 25 24  1  0
 25 26  1  6
 25 27  2  0
  1  4  1  0
  1 24  1  0
  1  2  1  1
  1  3  2  0
  6 11  1  0
  6 12  1  0
 29 36  1  0
 29 37  1  0
  9  7  1  6
  7 13  1  0
 10  8  1  6
  8 14  1  0
 37 28  1  1
  4  5  1  0
 33 30  1  6
 30 38  1  0
 34 31  1  1
 31 39  1  0
 35 32  1  1
 32 40  1  0
 41 42  1  0
 41 43  1  0
 15 19  2  0
 16 22  2  0
 12 17  1  6
 17 19  1  0
 17 20  1  0
 18 19  1  0
 18 22  1  0
 18 23  1  0
  9 10  1  0
  9 11  1  0
 10 12  1  0
 11  5  1  6
 33 34  1  0
 33 35  1  0
 34 36  1  0
 35 37  1  0
 36 42  1  1
 20 21  2  0
 21 22  1  0
M  CHG  2   2  -1  26  -1
M  END
>  <COMPND>  (123) 
    8629 

>  <AUTHOR>  (123) 
    GENERATED BY OPEN BABEL 3.1.1

>  <MASTER>  (123) 
        0    0    0    0    0    0    0    0   58    0   58    0

>  <minimizedAffinity>  (123) 
-7.56145

>  <CNNscore>  (123) 
0.9223909974

>  <CNNaffinity>  (123) 
4.6735663414

>  <CNN_VS>  (123) 
4.3108553886

>  <CNNaffinity_variance>  (123) 
0.5479260087

$$$$
124
     RDKit          3D

 43 45  0  0  0  0  0  0  0  0999 V2000
   21.7926   72.7228   -4.7557 P   0  0  2  0  0  0  0  0  0  0  0  0
   20.8761   74.0506   -4.8763 O   0  0  0  0  0  0  0  0  0  0  0  0
   22.9814   72.6881   -5.6706 O   0  0  0  0  0  0  0  0  0  0  0  0
   20.7390   71.5068   -4.9263 O   0  0  0  0  0  0  0  0  0  0  0  0
   20.1381   70.9646   -3.7632 C   0  0  0  0  0  0  0  0  0  0  0  0
   18.3216   71.9249   -5.0089 O   0  0  0  0  0  0  0  0  0  0  0  0
   16.5185   70.7714   -2.9092 O   0  0  0  0  0  0  0  0  0  0  0  0
   16.2635   68.9882   -4.9565 O   0  0  0  0  0  0  0  0  0  0  0  0
   17.7197   70.2347   -3.4608 C   0  0  1  0  0  0  0  0  0  0  0  0
   17.4697   69.7182   -4.8624 C   0  0  2  0  0  0  0  0  0  0  0  0
   18.6776   71.3920   -3.7145 C   0  0  1  0  0  0  0  0  0  0  0  0
   17.4396   71.0039   -5.6713 C   0  0  2  0  0  0  0  0  0  0  0  0
   15.8912   70.0508   -2.7383 H   0  0  0  0  0  0  0  0  0  0  0  0
   16.3324   68.1797   -4.4253 H   0  0  0  0  0  0  0  0  0  0  0  0
   15.7859   70.1816   -7.8083 O   0  0  0  0  0  0  0  0  0  0  0  0
   19.2858   70.3028  -10.8044 O   0  0  0  0  0  0  0  0  0  0  0  0
   17.8924   70.8130   -7.0203 N   0  0  0  0  0  0  0  0  0  0  0  0
   17.5299   70.2428   -9.2984 N   0  0  0  0  0  0  0  0  0  0  0  0
   16.9812   70.3973   -8.0189 C   0  0  0  0  0  0  0  0  0  0  0  0
   19.2266   71.0377   -7.3418 C   0  0  0  0  0  0  0  0  0  0  0  0
   19.7343   70.8846   -8.5666 C   0  0  0  0  0  0  0  0  0  0  0  0
   18.8491   70.4527   -9.6675 C   0  0  0  0  0  0  0  0  0  0  0  0
   16.9138   69.9535  -10.0102 H   0  0  0  0  0  0  0  0  0  0  0  0
   22.1539   72.6723   -3.1810 O   0  0  0  0  0  0  0  0  0  0  0  0
   23.5520   72.3879   -2.4212 P   0  0  2  0  0  0  0  0  0  0  0  0
   24.4048   73.7348   -2.6968 O   0  0  0  0  0  0  0  0  0  0  0  0
   24.2379   71.1225   -2.8480 O   0  0  0  0  0  0  0  0  0  0  0  0
   23.1842   72.4524   -0.8510 O   0  0  0  0  0  0  0  0  0  0  0  0
   24.3056   71.0724    0.7157 O   0  0  0  0  0  0  0  0  0  0  0  0
   20.8530   71.8250    2.8519 O   0  0  0  0  0  0  0  0  0  0  0  0
   23.3141   73.0715    3.6498 O   0  0  0  0  0  0  0  0  0  0  0  0
   20.7187   71.4091   -0.0096 O   0  0  0  0  0  0  0  0  0  0  0  0
   21.9196   72.1307    1.9496 C   0  0  1  0  0  0  0  0  0  0  0  0
   23.2416   72.0038    2.7091 C   0  0  1  0  0  0  0  0  0  0  0  0
   21.8772   71.1527    0.7769 C   0  0  2  0  0  0  0  0  0  0  0  0
   24.4386   72.0543    1.7501 C   0  0  1  0  0  0  0  0  0  0  0  0
   23.1364   71.2508   -0.0861 C   0  0  1  0  0  0  0  0  0  0  0  0
   20.8739   72.4427    3.5986 H   0  0  0  0  0  0  0  0  0  0  0  0
   22.5524   73.0284    4.2491 H   0  0  0  0  0  0  0  0  0  0  0  0
   19.9284   71.3437    0.5481 H   0  0  0  0  0  0  0  0  0  0  0  0
   26.4836   70.8194    1.7116 O   0  0  0  0  0  0  0  0  0  0  0  0
   25.7575   71.7720    2.4662 C   0  0  0  0  0  0  0  0  0  0  0  0
   27.3257   70.6302    2.1553 H   0  0  0  0  0  0  0  0  0  0  0  0
 25 28  1  0
 25 24  1  0
 25 26  1  1
 25 27  2  0
  1  4  1  0
  1 24  1  0
  1  2  1  1
  1  3  2  0
  6 11  1  0
  6 12  1  0
 29 36  1  0
 29 37  1  0
  9  7  1  6
  7 13  1  0
 10  8  1  1
  8 14  1  0
 37 28  1  1
  4  5  1  0
 33 30  1  1
 30 38  1  0
 34 31  1  1
 31 39  1  0
 35 32  1  6
 32 40  1  0
 41 42  1  0
 41 43  1  0
 15 19  2  0
 16 22  2  0
 12 17  1  6
 17 19  1  0
 17 20  1  0
 18 19  1  0
 18 22  1  0
 18 23  1  0
  9 10  1  0
  9 11  1  0
 10 12  1  0
 11  5  1  6
 33 34  1  0
 33 35  1  0
 34 36  1  0
 35 37  1  0
 36 42  1  1
 20 21  2  0
 21 22  1  0
M  CHG  2   2  -1  26  -1
M  END
>  <COMPND>  (124) 
    8629 

>  <AUTHOR>  (124) 
    GENERATED BY OPEN BABEL 3.1.1

>  <MASTER>  (124) 
        0    0    0    0    0    0    0    0   58    0   58    0

>  <minimizedAffinity>  (124) 
-8.08153

>  <CNNscore>  (124) 
0.9016466141

>  <CNNaffinity>  (124) 
4.7663054466

>  <CNN_VS>  (124) 
4.2975230217

>  <CNNaffinity_variance>  (124) 
0.0606603734

$$$$
125
     RDKit          3D

 43 45  0  0  0  0  0  0  0  0999 V2000
   22.7609   71.5925   -2.6261 P   0  0  2  0  0  0  0  0  0  0  0  0
   24.1826   70.9666   -3.0783 O   0  0  0  0  0  0  0  0  0  0  0  0
   22.2822   71.1636   -1.2703 O   0  0  0  0  0  0  0  0  0  0  0  0
   21.7742   71.2476   -3.8612 O   0  0  0  0  0  0  0  0  0  0  0  0
   20.8192   70.2140   -3.6954 C   0  0  0  0  0  0  0  0  0  0  0  0
   19.0531   71.5462   -4.6335 O   0  0  0  0  0  0  0  0  0  0  0  0
   17.3182   70.4490   -2.4479 O   0  0  0  0  0  0  0  0  0  0  0  0
   16.5876   68.9418   -4.5999 O   0  0  0  0  0  0  0  0  0  0  0  0
   18.3612   69.8073   -3.1798 C   0  0  1  0  0  0  0  0  0  0  0  0
   17.8943   69.4795   -4.5827 C   0  0  2  0  0  0  0  0  0  0  0  0
   19.4535   70.8370   -3.4406 C   0  0  1  0  0  0  0  0  0  0  0  0
   17.9784   70.8332   -5.2671 C   0  0  2  0  0  0  0  0  0  0  0  0
   16.6090   69.8109   -2.2691 H   0  0  0  0  0  0  0  0  0  0  0  0
   16.5862   68.0810   -4.1529 H   0  0  0  0  0  0  0  0  0  0  0  0
   16.0318   70.2996   -7.2430 O   0  0  0  0  0  0  0  0  0  0  0  0
   19.1636   70.4221  -10.6221 O   0  0  0  0  0  0  0  0  0  0  0  0
   18.2573   70.7207   -6.6710 N   0  0  0  0  0  0  0  0  0  0  0  0
   17.5928   70.3612   -8.9239 N   0  0  0  0  0  0  0  0  0  0  0  0
   17.2081   70.4496   -7.5800 C   0  0  0  0  0  0  0  0  0  0  0  0
   19.5590   70.8792   -7.1338 C   0  0  0  0  0  0  0  0  0  0  0  0
   19.9095   70.7906   -8.4186 C   0  0  0  0  0  0  0  0  0  0  0  0
   18.8732   70.5096   -9.4330 C   0  0  0  0  0  0  0  0  0  0  0  0
   16.8786   70.1726   -9.5753 H   0  0  0  0  0  0  0  0  0  0  0  0
   22.9977   73.1838   -2.7836 O   0  0  0  0  0  0  0  0  0  0  0  0
   21.9475   74.4041   -2.9278 P   0  0  2  0  0  0  0  0  0  0  0  0
   22.6072   75.5704   -2.0212 O   0  0  0  0  0  0  0  0  0  0  0  0
   20.5377   74.0504   -2.5520 O   0  0  0  0  0  0  0  0  0  0  0  0
   22.1256   74.9189   -4.4471 O   0  0  0  0  0  0  0  0  0  0  0  0
   20.4454   75.2781   -6.0795 O   0  0  0  0  0  0  0  0  0  0  0  0
   23.5107   74.0332   -8.5504 O   0  0  0  0  0  0  0  0  0  0  0  0
   22.7300   76.7970   -8.5416 O   0  0  0  0  0  0  0  0  0  0  0  0
   23.1465   72.7889   -5.9623 O   0  0  0  0  0  0  0  0  0  0  0  0
   22.9347   74.6942   -7.4204 C   0  0  1  0  0  0  0  0  0  0  0  0
   21.9648   75.7612   -7.9319 C   0  0  1  0  0  0  0  0  0  0  0  0
   22.1997   73.6664   -6.5621 C   0  0  2  0  0  0  0  0  0  0  0  0
   21.1124   76.3286   -6.7889 C   0  0  1  0  0  0  0  0  0  0  0  0
   21.3432   74.3375   -5.4868 C   0  0  1  0  0  0  0  0  0  0  0  0
   23.9793   74.6802   -9.0993 H   0  0  0  0  0  0  0  0  0  0  0  0
   23.2640   76.4254   -9.2613 H   0  0  0  0  0  0  0  0  0  0  0  0
   23.6822   72.3701   -6.6533 H   0  0  0  0  0  0  0  0  0  0  0  0
   19.9060   77.1071   -8.6987 O   0  0  0  0  0  0  0  0  0  0  0  0
   20.0312   77.2787   -7.2990 C   0  0  0  0  0  0  0  0  0  0  0  0
   19.2211   77.7054   -9.0373 H   0  0  0  0  0  0  0  0  0  0  0  0
 25 28  1  0
 25 24  1  0
 25 26  1  1
 25 27  2  0
  1  4  1  0
  1 24  1  0
  1  2  1  6
  1  3  2  0
  6 11  1  0
  6 12  1  0
 29 36  1  0
 29 37  1  0
  9  7  1  1
  7 13  1  0
 10  8  1  1
  8 14  1  0
 37 28  1  1
  4  5  1  0
 33 30  1  6
 30 38  1  0
 34 31  1  1
 31 39  1  0
 35 32  1  1
 32 40  1  0
 41 42  1  0
 41 43  1  0
 15 19  2  0
 16 22  2  0
 12 17  1  6
 17 19  1  0
 17 20  1  0
 18 19  1  0
 18 22  1  0
 18 23  1  0
  9 10  1  0
  9 11  1  0
 10 12  1  0
 11  5  1  6
 33 34  1  0
 33 35  1  0
 34 36  1  0
 35 37  1  0
 36 42  1  6
 20 21  2  0
 21 22  1  0
M  CHG  2   2  -1  26  -1
M  END
>  <COMPND>  (125) 
    8629 

>  <AUTHOR>  (125) 
    GENERATED BY OPEN BABEL 3.1.1

>  <MASTER>  (125) 
        0    0    0    0    0    0    0    0   58    0   58    0

>  <minimizedAffinity>  (125) 
-7.24822

>  <CNNscore>  (125) 
0.8950092196

>  <CNNaffinity>  (125) 
4.6746616364

>  <CNN_VS>  (125) 
4.1838650703

>  <CNNaffinity_variance>  (125) 
0.3139635324

$$$$
126
     RDKit          3D

 43 45  0  0  0  0  0  0  0  0999 V2000
   22.6897   71.5956   -2.7221 P   0  0  2  0  0  0  0  0  0  0  0  0
   24.1059   70.9288   -3.1311 O   0  0  0  0  0  0  0  0  0  0  0  0
   22.2249   71.2911   -1.3283 O   0  0  0  0  0  0  0  0  0  0  0  0
   21.6897   71.1433   -3.9109 O   0  0  0  0  0  0  0  0  0  0  0  0
   20.7567   70.1086   -3.6526 C   0  0  0  0  0  0  0  0  0  0  0  0
   19.0022   71.4596   -4.5854 O   0  0  0  0  0  0  0  0  0  0  0  0
   17.2405   70.3190   -2.4439 O   0  0  0  0  0  0  0  0  0  0  0  0
   16.5367   68.8554   -4.6346 O   0  0  0  0  0  0  0  0  0  0  0  0
   18.2925   69.6920   -3.1757 C   0  0  1  0  0  0  0  0  0  0  0  0
   17.8430   69.3925   -4.5905 C   0  0  2  0  0  0  0  0  0  0  0  0
   19.3879   70.7265   -3.4022 C   0  0  1  0  0  0  0  0  0  0  0  0
   17.9354   70.7597   -5.2465 C   0  0  2  0  0  0  0  0  0  0  0  0
   16.5293   69.6776   -2.2868 H   0  0  0  0  0  0  0  0  0  0  0  0
   16.5298   67.9858   -4.2051 H   0  0  0  0  0  0  0  0  0  0  0  0
   16.0202   70.2261   -7.2527 O   0  0  0  0  0  0  0  0  0  0  0  0
   19.1863   70.4583  -10.5938 O   0  0  0  0  0  0  0  0  0  0  0  0
   18.2316   70.6755   -6.6488 N   0  0  0  0  0  0  0  0  0  0  0  0
   17.5982   70.3423   -8.9147 N   0  0  0  0  0  0  0  0  0  0  0  0
   17.1973   70.4017   -7.5739 C   0  0  0  0  0  0  0  0  0  0  0  0
   19.5355   70.8637   -7.0943 C   0  0  0  0  0  0  0  0  0  0  0  0
   19.9015   70.8026   -8.3763 C   0  0  0  0  0  0  0  0  0  0  0  0
   18.8814   70.5210   -9.4068 C   0  0  0  0  0  0  0  0  0  0  0  0
   16.8946   70.1524   -9.5771 H   0  0  0  0  0  0  0  0  0  0  0  0
   22.9266   73.1658   -3.0243 O   0  0  0  0  0  0  0  0  0  0  0  0
   23.4212   73.9265   -4.3620 P   0  0  2  0  0  0  0  0  0  0  0  0
   23.3459   72.7732   -5.4941 O   0  0  0  0  0  0  0  0  0  0  0  0
   24.7654   74.5830   -4.2353 O   0  0  0  0  0  0  0  0  0  0  0  0
   22.2158   74.9357   -4.7275 O   0  0  0  0  0  0  0  0  0  0  0  0
   20.0327   74.9951   -3.8070 O   0  0  0  0  0  0  0  0  0  0  0  0
   19.1602   76.2155   -7.6541 O   0  0  0  0  0  0  0  0  0  0  0  0
   19.0683   78.1206   -5.5070 O   0  0  0  0  0  0  0  0  0  0  0  0
   21.1526   74.1636   -7.2071 O   0  0  0  0  0  0  0  0  0  0  0  0
   19.9510   76.1154   -6.4667 C   0  0  1  0  0  0  0  0  0  0  0  0
   19.1519   76.7124   -5.3066 C   0  0  1  0  0  0  0  0  0  0  0  0
   20.2683   74.6451   -6.2007 C   0  0  2  0  0  0  0  0  0  0  0  0
   19.8171   76.4030   -3.9587 C   0  0  1  0  0  0  0  0  0  0  0  0
   20.8818   74.4415   -4.8143 C   0  0  1  0  0  0  0  0  0  0  0  0
   18.9556   77.1467   -7.8290 H   0  0  0  0  0  0  0  0  0  0  0  0
   18.6469   78.3023   -6.3618 H   0  0  0  0  0  0  0  0  0  0  0  0
   20.7526   74.2979   -8.0799 H   0  0  0  0  0  0  0  0  0  0  0  0
   17.6797   76.2527   -2.9015 O   0  0  0  0  0  0  0  0  0  0  0  0
   18.9565   76.8520   -2.7798 C   0  0  0  0  0  0  0  0  0  0  0  0
   17.1211   76.5293   -2.1577 H   0  0  0  0  0  0  0  0  0  0  0  0
 25 28  1  0
 25 24  1  0
 25 26  1  6
 25 27  2  0
  1  4  1  0
  1 24  1  0
  1  2  1  6
  1  3  2  0
  6 11  1  0
  6 12  1  0
 29 36  1  0
 29 37  1  0
  9  7  1  1
  7 13  1  0
 10  8  1  1
  8 14  1  0
 37 28  1  6
  4  5  1  0
 33 30  1  6
 30 38  1  0
 34 31  1  6
 31 39  1  0
 35 32  1  6
 32 40  1  0
 41 42  1  0
 41 43  1  0
 15 19  2  0
 16 22  2  0
 12 17  1  6
 17 19  1  0
 17 20  1  0
 18 19  1  0
 18 22  1  0
 18 23  1  0
  9 10  1  0
  9 11  1  0
 10 12  1  0
 11  5  1  6
 33 34  1  0
 33 35  1  0
 34 36  1  0
 35 37  1  0
 36 42  1  1
 20 21  2  0
 21 22  1  0
M  CHG  2   2  -1  26  -1
M  END
>  <COMPND>  (126) 
    8629 

>  <AUTHOR>  (126) 
    GENERATED BY OPEN BABEL 3.1.1

>  <MASTER>  (126) 
        0    0    0    0    0    0    0    0   58    0   58    0

>  <minimizedAffinity>  (126) 
-6.89974

>  <CNNscore>  (126) 
0.8620603085

>  <CNNaffinity>  (126) 
4.5709486008

>  <CNN_VS>  (126) 
3.9404332638

>  <CNNaffinity_variance>  (126) 
0.3043502271

$$$$
127
     RDKit          3D

 43 45  0  0  0  0  0  0  0  0999 V2000
   21.5564   71.5436   -2.1094 P   0  0  2  0  0  0  0  0  0  0  0  0
   20.7331   72.9351   -2.1659 O   0  0  0  0  0  0  0  0  0  0  0  0
   22.6793   71.4309   -3.0983 O   0  0  0  0  0  0  0  0  0  0  0  0
   20.4085   70.4085   -2.2173 O   0  0  0  0  0  0  0  0  0  0  0  0
   19.8248   70.1555   -3.4835 C   0  0  0  0  0  0  0  0  0  0  0  0
   18.1285   71.3712   -4.6744 O   0  0  0  0  0  0  0  0  0  0  0  0
   16.1490   69.9607   -2.9185 O   0  0  0  0  0  0  0  0  0  0  0  0
   15.9977   68.5429   -5.2431 O   0  0  0  0  0  0  0  0  0  0  0  0
   17.3729   69.4762   -3.4686 C   0  0  1  0  0  0  0  0  0  0  0  0
   17.2122   69.2030   -4.9494 C   0  0  2  0  0  0  0  0  0  0  0  0
   18.3760   70.6231   -3.4638 C   0  0  1  0  0  0  0  0  0  0  0  0
   17.2736   70.6028   -5.5367 C   0  0  2  0  0  0  0  0  0  0  0  0
   15.4928   69.2457   -2.9108 H   0  0  0  0  0  0  0  0  0  0  0  0
   16.0073   67.6571   -4.8482 H   0  0  0  0  0  0  0  0  0  0  0  0
   15.7416   70.3139   -7.8919 O   0  0  0  0  0  0  0  0  0  0  0  0
   19.4694   70.6676  -10.5789 O   0  0  0  0  0  0  0  0  0  0  0  0
   17.8180   70.6160   -6.8652 N   0  0  0  0  0  0  0  0  0  0  0  0
   17.5989   70.4904   -9.2279 N   0  0  0  0  0  0  0  0  0  0  0  0
   16.9622   70.4619   -7.9806 C   0  0  0  0  0  0  0  0  0  0  0  0
   19.1861   70.7808   -7.0518 C   0  0  0  0  0  0  0  0  0  0  0  0
   19.7779   70.8045   -8.2478 C   0  0  0  0  0  0  0  0  0  0  0  0
   18.9550   70.6503   -9.4649 C   0  0  0  0  0  0  0  0  0  0  0  0
   17.0227   70.3846  -10.0195 H   0  0  0  0  0  0  0  0  0  0  0  0
   22.0120   71.4534   -0.5611 O   0  0  0  0  0  0  0  0  0  0  0  0
   23.2636   72.1170    0.2175 P   0  0  2  0  0  0  0  0  0  0  0  0
   23.5211   73.4910   -0.5969 O   0  0  0  0  0  0  0  0  0  0  0  0
   24.4663   71.2245    0.3223 O   0  0  0  0  0  0  0  0  0  0  0  0
   22.6572   72.5914    1.6361 O   0  0  0  0  0  0  0  0  0  0  0  0
   21.6459   74.6636    2.1838 O   0  0  0  0  0  0  0  0  0  0  0  0
   23.4614   73.8392    5.7998 O   0  0  0  0  0  0  0  0  0  0  0  0
   20.6081   73.6146    5.5619 O   0  0  0  0  0  0  0  0  0  0  0  0
   24.8162   73.1956    3.3239 O   0  0  0  0  0  0  0  0  0  0  0  0
   22.7867   73.5240    4.5788 C   0  0  1  0  0  0  0  0  0  0  0  0
   21.4331   74.2371    4.5809 C   0  0  1  0  0  0  0  0  0  0  0  0
   23.6397   73.9932    3.4016 C   0  0  2  0  0  0  0  0  0  0  0  0
   20.7674   74.1663    3.2000 C   0  0  1  0  0  0  0  0  0  0  0  0
   22.8671   73.9284    2.0829 C   0  0  1  0  0  0  0  0  0  0  0  0
   22.9252   73.5434    6.5512 H   0  0  0  0  0  0  0  0  0  0  0  0
   21.0401   73.6658    6.4290 H   0  0  0  0  0  0  0  0  0  0  0  0
   25.2965   73.2452    4.1646 H   0  0  0  0  0  0  0  0  0  0  0  0
   19.6235   76.0914    4.0332 O   0  0  0  0  0  0  0  0  0  0  0  0
   19.4922   75.0040    3.1362 C   0  0  0  0  0  0  0  0  0  0  0  0
   18.8192   76.6336    4.0030 H   0  0  0  0  0  0  0  0  0  0  0  0
 25 28  1  0
 25 24  1  0
 25 26  1  6
 25 27  2  0
  1  4  1  0
  1 24  1  0
  1  2  1  1
  1  3  2  0
  6 11  1  0
  6 12  1  0
 29 36  1  0
 29 37  1  0
  9  7  1  6
  7 13  1  0
 10  8  1  1
  8 14  1  0
 37 28  1  1
  4  5  1  0
 33 30  1  1
 30 38  1  0
 34 31  1  1
 31 39  1  0
 35 32  1  6
 32 40  1  0
 41 42  1  0
 41 43  1  0
 15 19  2  0
 16 22  2  0
 12 17  1  6
 17 19  1  0
 17 20  1  0
 18 19  1  0
 18 22  1  0
 18 23  1  0
  9 10  1  0
  9 11  1  0
 10 12  1  0
 11  5  1  6
 33 34  1  0
 33 35  1  0
 34 36  1  0
 35 37  1  0
 36 42  1  1
 20 21  2  0
 21 22  1  0
M  CHG  2   2  -1  26  -1
M  END
>  <COMPND>  (127) 
    8629 

>  <AUTHOR>  (127) 
    GENERATED BY OPEN BABEL 3.1.1

>  <MASTER>  (127) 
        0    0    0    0    0    0    0    0   58    0   58    0

>  <minimizedAffinity>  (127) 
-6.82415

>  <CNNscore>  (127) 
0.8569625020

>  <CNNaffinity>  (127) 
4.4832353592

>  <CNN_VS>  (127) 
3.8419644833

>  <CNNaffinity_variance>  (127) 
0.0813272372

$$$$
128
     RDKit          3D

 43 45  0  0  0  0  0  0  0  0999 V2000
   21.1209   71.5621   -3.2983 P   0  0  2  0  0  0  0  0  0  0  0  0
   20.9759   71.1095   -4.8447 O   0  0  0  0  0  0  0  0  0  0  0  0
   21.7986   70.5636   -2.4066 O   0  0  0  0  0  0  0  0  0  0  0  0
   19.6162   71.9771   -2.8723 O   0  0  0  0  0  0  0  0  0  0  0  0
   18.9021   72.8762   -3.7027 C   0  0  0  0  0  0  0  0  0  0  0  0
   17.0174   72.4891   -5.1421 O   0  0  0  0  0  0  0  0  0  0  0  0
   15.8629   70.8843   -2.8877 O   0  0  0  0  0  0  0  0  0  0  0  0
   16.8388   68.9562   -4.5509 O   0  0  0  0  0  0  0  0  0  0  0  0
   17.2219   71.0078   -3.3037 C   0  0  1  0  0  0  0  0  0  0  0  0
   17.4536   70.2282   -4.5813 C   0  0  2  0  0  0  0  0  0  0  0  0
   17.4435   72.4436   -3.7627 C   0  0  1  0  0  0  0  0  0  0  0  0
   16.8442   71.1473   -5.6262 C   0  0  2  0  0  0  0  0  0  0  0  0
   15.6974   69.9756   -2.5897 H   0  0  0  0  0  0  0  0  0  0  0  0
   17.2614   68.4088   -3.8708 H   0  0  0  0  0  0  0  0  0  0  0  0
   15.6197   70.0713   -7.9329 O   0  0  0  0  0  0  0  0  0  0  0  0
   19.4077   70.7302  -10.4743 O   0  0  0  0  0  0  0  0  0  0  0  0
   17.4872   71.0260   -6.9042 N   0  0  0  0  0  0  0  0  0  0  0  0
   17.5068   70.4004   -9.1965 N   0  0  0  0  0  0  0  0  0  0  0  0
   16.7842   70.4705   -7.9986 C   0  0  0  0  0  0  0  0  0  0  0  0
   18.8002   71.4556   -7.0628 C   0  0  0  0  0  0  0  0  0  0  0  0
   19.4756   71.3806   -8.2115 C   0  0  0  0  0  0  0  0  0  0  0  0
   18.8135   70.8128   -9.4038 C   0  0  0  0  0  0  0  0  0  0  0  0
   17.0374   70.0166   -9.9725 H   0  0  0  0  0  0  0  0  0  0  0  0
   21.8744   72.9881   -3.4061 O   0  0  0  0  0  0  0  0  0  0  0  0
   23.4372   73.3763   -3.2650 P   0  0  2  0  0  0  0  0  0  0  0  0
   23.4303   74.9902   -3.3776 O   0  0  0  0  0  0  0  0  0  0  0  0
   24.3335   72.6903   -4.2549 O   0  0  0  0  0  0  0  0  0  0  0  0
   23.7945   73.0771   -1.7197 O   0  0  0  0  0  0  0  0  0  0  0  0
   22.2491   72.6847    0.0337 O   0  0  0  0  0  0  0  0  0  0  0  0
   25.2770   74.4608    2.2081 O   0  0  0  0  0  0  0  0  0  0  0  0
   24.8097   71.6393    2.4707 O   0  0  0  0  0  0  0  0  0  0  0  0
   24.6466   75.4282   -0.4464 O   0  0  0  0  0  0  0  0  0  0  0  0
   24.7222   73.6459    1.1720 C   0  0  1  0  0  0  0  0  0  0  0  0
   23.9042   72.5303    1.8255 C   0  0  1  0  0  0  0  0  0  0  0  0
   23.8349   74.5104    0.2783 C   0  0  2  0  0  0  0  0  0  0  0  0
   23.0639   71.7774    0.7852 C   0  0  1  0  0  0  0  0  0  0  0  0
   23.0055   73.6603   -0.6860 C   0  0  1  0  0  0  0  0  0  0  0  0
   25.8419   73.9181    2.7789 H   0  0  0  0  0  0  0  0  0  0  0  0
   25.3345   72.1273    3.1247 H   0  0  0  0  0  0  0  0  0  0  0  0
   25.1664   75.9606    0.1752 H   0  0  0  0  0  0  0  0  0  0  0  0
   21.0011   70.5879    0.5886 O   0  0  0  0  0  0  0  0  0  0  0  0
   22.1224   70.7654    1.4344 C   0  0  0  0  0  0  0  0  0  0  0  0
   20.3932   69.9460    0.9889 H   0  0  0  0  0  0  0  0  0  0  0  0
 25 28  1  0
 25 24  1  0
 25 26  1  1
 25 27  2  0
  1  4  1  0
  1 24  1  0
  1  2  1  6
  1  3  2  0
  6 11  1  0
  6 12  1  0
 29 36  1  0
 29 37  1  0
  9  7  1  6
  7 13  1  0
 10  8  1  1
  8 14  1  0
 37 28  1  6
  4  5  1  0
 33 30  1  1
 30 38  1  0
 34 31  1  6
 31 39  1  0
 35 32  1  6
 32 40  1  0
 41 42  1  0
 41 43  1  0
 15 19  2  0
 16 22  2  0
 12 17  1  6
 17 19  1  0
 17 20  1  0
 18 19  1  0
 18 22  1  0
 18 23  1  0
  9 10  1  0
  9 11  1  0
 10 12  1  0
 11  5  1  6
 33 34  1  0
 33 35  1  0
 34 36  1  0
 35 37  1  0
 36 42  1  1
 20 21  2  0
 21 22  1  0
M  CHG  2   2  -1  26  -1
M  END
>  <COMPND>  (128) 
    8629 

>  <AUTHOR>  (128) 
    GENERATED BY OPEN BABEL 3.1.1

>  <MASTER>  (128) 
        0    0    0    0    0    0    0    0   58    0   58    0

>  <minimizedAffinity>  (128) 
-6.92309

>  <CNNscore>  (128) 
0.8411985040

>  <CNNaffinity>  (128) 
4.5502700806

>  <CNN_VS>  (128) 
3.8276803493

>  <CNNaffinity_variance>  (128) 
0.0200139657

$$$$
129
     RDKit          3D

 43 45  0  0  0  0  0  0  0  0999 V2000
   20.0882   72.0617   -1.0828 P   0  0  2  0  0  0  0  0  0  0  0  0
   20.1713   70.4782   -0.7618 O   0  0  0  0  0  0  0  0  0  0  0  0
   18.7763   72.7083   -0.7477 O   0  0  0  0  0  0  0  0  0  0  0  0
   20.5496   72.1691   -2.6299 O   0  0  0  0  0  0  0  0  0  0  0  0
   19.9218   71.3287   -3.5826 C   0  0  0  0  0  0  0  0  0  0  0  0
   18.0833   72.1102   -4.9178 O   0  0  0  0  0  0  0  0  0  0  0  0
   16.2996   70.8340   -2.8731 O   0  0  0  0  0  0  0  0  0  0  0  0
   16.2854   69.0069   -4.8975 O   0  0  0  0  0  0  0  0  0  0  0  0
   17.5647   70.3959   -3.3660 C   0  0  1  0  0  0  0  0  0  0  0  0
   17.4192   69.8401   -4.7673 C   0  0  2  0  0  0  0  0  0  0  0  0
   18.4291   71.6284   -3.6008 C   0  0  1  0  0  0  0  0  0  0  0  0
   17.3125   71.1069   -5.5991 C   0  0  2  0  0  0  0  0  0  0  0  0
   15.7300   70.0641   -2.7153 H   0  0  0  0  0  0  0  0  0  0  0  0
   16.4014   68.2149   -4.3497 H   0  0  0  0  0  0  0  0  0  0  0  0
   15.8094   70.1753   -7.8016 O   0  0  0  0  0  0  0  0  0  0  0  0
   19.4271   70.4938  -10.6392 O   0  0  0  0  0  0  0  0  0  0  0  0
   17.8363   70.9372   -6.9251 N   0  0  0  0  0  0  0  0  0  0  0  0
   17.6119   70.3348   -9.2127 N   0  0  0  0  0  0  0  0  0  0  0  0
   16.9978   70.4620   -7.9603 C   0  0  0  0  0  0  0  0  0  0  0  0
   19.1676   71.2408   -7.1884 C   0  0  0  0  0  0  0  0  0  0  0  0
   19.7383   71.1128   -8.3881 C   0  0  0  0  0  0  0  0  0  0  0  0
   18.9314   70.6225   -9.5240 C   0  0  0  0  0  0  0  0  0  0  0  0
   17.0472   70.0052   -9.9491 H   0  0  0  0  0  0  0  0  0  0  0  0
   21.3579   72.6620   -0.2826 O   0  0  0  0  0  0  0  0  0  0  0  0
   21.5430   73.0523    1.2751 P   0  0  2  0  0  0  0  0  0  0  0  0
   20.3933   72.1864    2.0138 O   0  0  0  0  0  0  0  0  0  0  0  0
   21.4816   74.5267    1.5515 O   0  0  0  0  0  0  0  0  0  0  0  0
   22.9278   72.3472    1.7111 O   0  0  0  0  0  0  0  0  0  0  0  0
   24.6107   73.6758    0.7015 O   0  0  0  0  0  0  0  0  0  0  0  0
   27.0111   70.9303    2.6383 O   0  0  0  0  0  0  0  0  0  0  0  0
   26.8453   73.6195    3.6327 O   0  0  0  0  0  0  0  0  0  0  0  0
   24.5380   70.0694    1.4045 O   0  0  0  0  0  0  0  0  0  0  0  0
   25.8667   71.7717    2.4714 C   0  0  1  0  0  0  0  0  0  0  0  0
   26.3482   73.2195    2.3587 C   0  0  1  0  0  0  0  0  0  0  0  0
   25.1199   71.3534    1.2062 C   0  0  2  0  0  0  0  0  0  0  0  0
   25.2109   74.1485    1.9131 C   0  0  1  0  0  0  0  0  0  0  0  0
   24.0429   72.3702    0.8238 C   0  0  1  0  0  0  0  0  0  0  0  0
   27.4894   71.1903    3.4402 H   0  0  0  0  0  0  0  0  0  0  0  0
   27.5626   73.0246    3.9026 H   0  0  0  0  0  0  0  0  0  0  0  0
   25.2300   69.4347    1.6458 H   0  0  0  0  0  0  0  0  0  0  0  0
   24.7548   76.4809    2.1601 O   0  0  0  0  0  0  0  0  0  0  0  0
   25.7048   75.5679    1.6421 C   0  0  0  0  0  0  0  0  0  0  0  0
   25.0560   77.3884    1.9951 H   0  0  0  0  0  0  0  0  0  0  0  0
 25 28  1  0
 25 24  1  0
 25 26  1  1
 25 27  2  0
  1  4  1  0
  1 24  1  0
  1  2  1  1
  1  3  2  0
  6 11  1  0
  6 12  1  0
 29 36  1  0
 29 37  1  0
  9  7  1  6
  7 13  1  0
 10  8  1  1
  8 14  1  0
 37 28  1  1
  4  5  1  0
 33 30  1  6
 30 38  1  0
 34 31  1  1
 31 39  1  0
 35 32  1  1
 32 40  1  0
 41 42  1  0
 41 43  1  0
 15 19  2  0
 16 22  2  0
 12 17  1  6
 17 19  1  0
 17 20  1  0
 18 19  1  0
 18 22  1  0
 18 23  1  0
  9 10  1  0
  9 11  1  0
 10 12  1  0
 11  5  1  6
 33 34  1  0
 33 35  1  0
 34 36  1  0
 35 37  1  0
 36 42  1  6
 20 21  2  0
 21 22  1  0
M  CHG  2   2  -1  26  -1
M  END
>  <COMPND>  (129) 
    8629 

>  <AUTHOR>  (129) 
    GENERATED BY OPEN BABEL 3.1.1

>  <MASTER>  (129) 
        0    0    0    0    0    0    0    0   58    0   58    0

>  <minimizedAffinity>  (129) 
-7.03938

>  <CNNscore>  (129) 
0.8385841846

>  <CNNaffinity>  (129) 
4.5463171005

>  <CNN_VS>  (129) 
3.8124697208

>  <CNNaffinity_variance>  (129) 
0.0602892749

$$$$
130
     RDKit          3D

 43 45  0  0  0  0  0  0  0  0999 V2000
   20.6533   71.2662   -1.0642 P   0  0  2  0  0  0  0  0  0  0  0  0
   20.8493   70.5539    0.3752 O   0  0  0  0  0  0  0  0  0  0  0  0
   20.2494   72.7101   -1.0071 O   0  0  0  0  0  0  0  0  0  0  0  0
   19.6361   70.2826   -1.8490 O   0  0  0  0  0  0  0  0  0  0  0  0
   19.3227   70.5725   -3.2001 C   0  0  0  0  0  0  0  0  0  0  0  0
   17.5983   71.5484   -4.5595 O   0  0  0  0  0  0  0  0  0  0  0  0
   15.6638   69.9307   -2.9372 O   0  0  0  0  0  0  0  0  0  0  0  0
   15.8872   68.4681   -5.2279 O   0  0  0  0  0  0  0  0  0  0  0  0
   16.9805   69.5936   -3.3707 C   0  0  1  0  0  0  0  0  0  0  0  0
   16.9819   69.2788   -4.8521 C   0  0  2  0  0  0  0  0  0  0  0  0
   17.8311   70.8564   -3.3131 C   0  0  1  0  0  0  0  0  0  0  0  0
   16.9212   70.6658   -5.4691 C   0  0  2  0  0  0  0  0  0  0  0  0
   15.1020   69.1398   -2.9651 H   0  0  0  0  0  0  0  0  0  0  0  0
   15.9716   67.5968   -4.8102 H   0  0  0  0  0  0  0  0  0  0  0  0
   15.6451   70.1445   -7.9344 O   0  0  0  0  0  0  0  0  0  0  0  0
   19.5161   70.9230  -10.3116 O   0  0  0  0  0  0  0  0  0  0  0  0
   17.5716   70.7254   -6.7477 N   0  0  0  0  0  0  0  0  0  0  0  0
   17.5736   70.5327   -9.1161 N   0  0  0  0  0  0  0  0  0  0  0  0
   16.8407   70.4448   -7.9256 C   0  0  0  0  0  0  0  0  0  0  0  0
   18.9194   71.0594   -6.8247 C   0  0  0  0  0  0  0  0  0  0  0  0
   19.6039   71.1377   -7.9677 C   0  0  0  0  0  0  0  0  0  0  0  0
   18.9143   70.8595   -9.2440 C   0  0  0  0  0  0  0  0  0  0  0  0
   17.0852   70.3411   -9.9494 H   0  0  0  0  0  0  0  0  0  0  0  0
   22.0655   70.9912   -1.8011 O   0  0  0  0  0  0  0  0  0  0  0  0
   23.1783   72.0120   -2.3780 P   0  0  2  0  0  0  0  0  0  0  0  0
   24.2794   71.0267   -3.0369 O   0  0  0  0  0  0  0  0  0  0  0  0
   23.7306   72.9623   -1.3554 O   0  0  0  0  0  0  0  0  0  0  0  0
   22.4642   72.7255   -3.6374 O   0  0  0  0  0  0  0  0  0  0  0  0
   23.1985   74.1776   -5.3604 O   0  0  0  0  0  0  0  0  0  0  0  0
   19.6445   76.0446   -4.3940 O   0  0  0  0  0  0  0  0  0  0  0  0
   19.8562   74.5882   -6.8602 O   0  0  0  0  0  0  0  0  0  0  0  0
   21.2871   74.8968   -2.3051 O   0  0  0  0  0  0  0  0  0  0  0  0
   20.5204   74.9309   -4.5881 C   0  0  1  0  0  0  0  0  0  0  0  0
   20.9767   74.9286   -6.0484 C   0  0  1  0  0  0  0  0  0  0  0  0
   21.7186   75.0689   -3.6507 C   0  0  2  0  0  0  0  0  0  0  0  0
   22.1202   73.9292   -6.2699 C   0  0  1  0  0  0  0  0  0  0  0  0
   22.8186   74.0607   -3.9878 C   0  0  1  0  0  0  0  0  0  0  0  0
   18.8813   75.9629   -4.9860 H   0  0  0  0  0  0  0  0  0  0  0  0
   19.1412   75.2266   -6.7105 H   0  0  0  0  0  0  0  0  0  0  0  0
   20.5911   75.5409   -2.1039 H   0  0  0  0  0  0  0  0  0  0  0  0
   22.5540   72.7622   -8.3092 O   0  0  0  0  0  0  0  0  0  0  0  0
   22.6963   74.0230   -7.6811 C   0  0  0  0  0  0  0  0  0  0  0  0
   22.9162   72.8069   -9.2084 H   0  0  0  0  0  0  0  0  0  0  0  0
 25 28  1  0
 25 24  1  0
 25 26  1  6
 25 27  2  0
  1  4  1  0
  1 24  1  0
  1  2  1  1
  1  3  2  0
  6 11  1  0
  6 12  1  0
 29 36  1  0
 29 37  1  0
  9  7  1  6
  7 13  1  0
 10  8  1  1
  8 14  1  0
 37 28  1  6
  4  5  1  0
 33 30  1  6
 30 38  1  0
 34 31  1  6
 31 39  1  0
 35 32  1  1
 32 40  1  0
 41 42  1  0
 41 43  1  0
 15 19  2  0
 16 22  2  0
 12 17  1  6
 17 19  1  0
 17 20  1  0
 18 19  1  0
 18 22  1  0
 18 23  1  0
  9 10  1  0
  9 11  1  0
 10 12  1  0
 11  5  1  6
 33 34  1  0
 33 35  1  0
 34 36  1  0
 35 37  1  0
 36 42  1  6
 20 21  2  0
 21 22  1  0
M  CHG  2   2  -1  26  -1
M  END
>  <COMPND>  (130) 
    8629 

>  <AUTHOR>  (130) 
    GENERATED BY OPEN BABEL 3.1.1

>  <MASTER>  (130) 
        0    0    0    0    0    0    0    0   58    0   58    0

>  <minimizedAffinity>  (130) 
-7.87891

>  <CNNscore>  (130) 
0.8338916302

>  <CNNaffinity>  (130) 
4.5534362793

>  <CNN_VS>  (130) 
3.7970724106

>  <CNNaffinity_variance>  (130) 
0.3824128509

$$$$
131
     RDKit          3D

 43 45  0  0  0  0  0  0  0  0999 V2000
   22.7490   72.6554   -3.9591 P   0  0  2  0  0  0  0  0  0  0  0  0
   22.2269   72.7054   -5.4896 O   0  0  0  0  0  0  0  0  0  0  0  0
   24.1405   72.1230   -3.7812 O   0  0  0  0  0  0  0  0  0  0  0  0
   21.5834   71.8505   -3.1772 O   0  0  0  0  0  0  0  0  0  0  0  0
   20.7716   70.9521   -3.9132 C   0  0  0  0  0  0  0  0  0  0  0  0
   18.7993   71.8597   -4.9429 O   0  0  0  0  0  0  0  0  0  0  0  0
   17.2714   70.6009   -2.6909 O   0  0  0  0  0  0  0  0  0  0  0  0
   16.8708   68.8429   -4.7367 O   0  0  0  0  0  0  0  0  0  0  0  0
   18.4275   70.1216   -3.3756 C   0  0  1  0  0  0  0  0  0  0  0  0
   18.0517   69.6187   -4.7538 C   0  0  2  0  0  0  0  0  0  0  0  0
   19.3091   71.3202   -3.7038 C   0  0  1  0  0  0  0  0  0  0  0  0
   17.8883   70.9153   -5.5286 C   0  0  2  0  0  0  0  0  0  0  0  0
   16.6932   69.8533   -2.4705 H   0  0  0  0  0  0  0  0  0  0  0  0
   17.0256   68.0292   -4.2322 H   0  0  0  0  0  0  0  0  0  0  0  0
   16.0675   70.0095   -7.4887 O   0  0  0  0  0  0  0  0  0  0  0  0
   19.2102   70.3756  -10.8399 O   0  0  0  0  0  0  0  0  0  0  0  0
   18.2040   70.7648   -6.9211 N   0  0  0  0  0  0  0  0  0  0  0  0
   17.6338   70.1927   -9.1558 N   0  0  0  0  0  0  0  0  0  0  0  0
   17.2177   70.3015   -7.8227 C   0  0  0  0  0  0  0  0  0  0  0  0
   19.4794   71.0755   -7.3800 C   0  0  0  0  0  0  0  0  0  0  0  0
   19.8607   70.9651   -8.6542 C   0  0  0  0  0  0  0  0  0  0  0  0
   18.8902   70.4880   -9.6606 C   0  0  0  0  0  0  0  0  0  0  0  0
   16.9636   69.8715   -9.8019 H   0  0  0  0  0  0  0  0  0  0  0  0
   22.5412   74.1769   -3.4543 O   0  0  0  0  0  0  0  0  0  0  0  0
   21.6227   74.7872   -2.2724 P   0  0  2  0  0  0  0  0  0  0  0  0
   20.1259   74.6920   -2.8789 O   0  0  0  0  0  0  0  0  0  0  0  0
   22.0249   76.1640   -1.8292 O   0  0  0  0  0  0  0  0  0  0  0  0
   21.6620   73.6712   -1.1070 O   0  0  0  0  0  0  0  0  0  0  0  0
   22.4026   74.4844    0.9923 O   0  0  0  0  0  0  0  0  0  0  0  0
   22.6287   70.4293    1.7383 O   0  0  0  0  0  0  0  0  0  0  0  0
   20.5458   71.9823    2.9623 O   0  0  0  0  0  0  0  0  0  0  0  0
   23.3765   71.4634   -0.8599 O   0  0  0  0  0  0  0  0  0  0  0  0
   22.0821   71.6202    1.1652 C   0  0  1  0  0  0  0  0  0  0  0  0
   21.6718   72.5559    2.3040 C   0  0  1  0  0  0  0  0  0  0  0  0
   23.1395   72.2798    0.2819 C   0  0  2  0  0  0  0  0  0  0  0  0
   21.3262   73.9543    1.7748 C   0  0  1  0  0  0  0  0  0  0  0  0
   22.7179   73.6856   -0.1498 C   0  0  1  0  0  0  0  0  0  0  0  0
   21.9621   70.0054    2.3000 H   0  0  0  0  0  0  0  0  0  0  0  0
   20.7772   71.0994    3.2913 H   0  0  0  0  0  0  0  0  0  0  0  0
   23.6430   70.5764   -0.5734 H   0  0  0  0  0  0  0  0  0  0  0  0
   21.4922   74.3607    4.1235 O   0  0  0  0  0  0  0  0  0  0  0  0
   21.0670   74.9463    2.9066 C   0  0  0  0  0  0  0  0  0  0  0  0
   21.3335   74.9810    4.8528 H   0  0  0  0  0  0  0  0  0  0  0  0
 25 28  1  0
 25 24  1  0
 25 26  1  6
 25 27  2  0
  1  4  1  0
  1 24  1  0
  1  2  1  6
  1  3  2  0
  6 11  1  0
  6 12  1  0
 29 36  1  0
 29 37  1  0
  9  7  1  1
  7 13  1  0
 10  8  1  1
  8 14  1  0
 37 28  1  6
  4  5  1  0
 33 30  1  1
 30 38  1  0
 34 31  1  6
 31 39  1  0
 35 32  1  6
 32 40  1  0
 41 42  1  0
 41 43  1  0
 15 19  2  0
 16 22  2  0
 12 17  1  6
 17 19  1  0
 17 20  1  0
 18 19  1  0
 18 22  1  0
 18 23  1  0
  9 10  1  0
  9 11  1  0
 10 12  1  0
 11  5  1  6
 33 34  1  0
 33 35  1  0
 34 36  1  0
 35 37  1  0
 36 42  1  1
 20 21  2  0
 21 22  1  0
M  CHG  2   2  -1  26  -1
M  END
>  <COMPND>  (131) 
    8629 

>  <AUTHOR>  (131) 
    GENERATED BY OPEN BABEL 3.1.1

>  <MASTER>  (131) 
        0    0    0    0    0    0    0    0   58    0   58    0

>  <minimizedAffinity>  (131) 
-7.04778

>  <CNNscore>  (131) 
0.8289384842

>  <CNNaffinity>  (131) 
4.4956130981

>  <CNN_VS>  (131) 
3.7265868187

>  <CNNaffinity_variance>  (131) 
0.0476040617

$$$$
132
     RDKit          3D

 43 45  0  0  0  0  0  0  0  0999 V2000
   22.2351   73.0326   -6.0509 P   0  0  2  0  0  0  0  0  0  0  0  0
   21.1113   73.6489   -5.0637 O   0  0  0  0  0  0  0  0  0  0  0  0
   22.8872   74.0258   -6.9673 O   0  0  0  0  0  0  0  0  0  0  0  0
   21.4808   71.7980   -6.7753 O   0  0  0  0  0  0  0  0  0  0  0  0
   20.5104   72.0865   -7.7667 C   0  0  0  0  0  0  0  0  0  0  0  0
   19.3871   70.1055   -7.0000 O   0  0  0  0  0  0  0  0  0  0  0  0
   18.3628   69.8272   -9.8044 O   0  0  0  0  0  0  0  0  0  0  0  0
   16.2222   70.8919   -8.4926 O   0  0  0  0  0  0  0  0  0  0  0  0
   18.5882   71.0102   -9.0395 C   0  0  1  0  0  0  0  0  0  0  0  0
   17.5120   71.1681   -7.9857 C   0  0  2  0  0  0  0  0  0  0  0  0
   19.8343   70.7899   -8.1908 C   0  0  1  0  0  0  0  0  0  0  0  0
   17.9530   70.1662   -6.9323 C   0  0  2  0  0  0  0  0  0  0  0  0
   17.5720   69.9441  -10.3548 H   0  0  0  0  0  0  0  0  0  0  0  0
   15.9873   71.5565   -9.1588 H   0  0  0  0  0  0  0  0  0  0  0  0
   16.3916   68.5817   -5.1917 O   0  0  0  0  0  0  0  0  0  0  0  0
   16.5244   71.7743   -1.8704 O   0  0  0  0  0  0  0  0  0  0  0  0
   17.5650   70.5586   -5.6068 N   0  0  0  0  0  0  0  0  0  0  0  0
   16.4591   70.1726   -3.5393 N   0  0  0  0  0  0  0  0  0  0  0  0
   16.7791   69.6896   -4.8146 C   0  0  0  0  0  0  0  0  0  0  0  0
   17.9636   71.7927   -5.1049 C   0  0  0  0  0  0  0  0  0  0  0  0
   17.6490   72.2391   -3.8871 C   0  0  0  0  0  0  0  0  0  0  0  0
   16.8303   71.3922   -2.9957 C   0  0  0  0  0  0  0  0  0  0  0  0
   15.9119   69.5844   -2.9697 H   0  0  0  0  0  0  0  0  0  0  0  0
   23.2477   72.2920   -5.0315 O   0  0  0  0  0  0  0  0  0  0  0  0
   23.2225   72.1576   -3.4208 P   0  0  2  0  0  0  0  0  0  0  0  0
   24.2603   70.9502   -3.1330 O   0  0  0  0  0  0  0  0  0  0  0  0
   21.8532   71.9483   -2.8421 O   0  0  0  0  0  0  0  0  0  0  0  0
   23.9786   73.4805   -2.8887 O   0  0  0  0  0  0  0  0  0  0  0  0
   22.8733   75.2822   -1.8168 O   0  0  0  0  0  0  0  0  0  0  0  0
   26.0983   77.3273   -3.3877 O   0  0  0  0  0  0  0  0  0  0  0  0
   25.9703   76.8378   -0.5606 O   0  0  0  0  0  0  0  0  0  0  0  0
   24.8436   75.2148   -4.9182 O   0  0  0  0  0  0  0  0  0  0  0  0
   25.4232   76.2103   -2.8029 C   0  0  1  0  0  0  0  0  0  0  0  0
   24.8693   76.6425   -1.4438 C   0  0  1  0  0  0  0  0  0  0  0  0
   24.2913   75.7702   -3.7295 C   0  0  2  0  0  0  0  0  0  0  0  0
   23.9093   75.5883   -0.8762 C   0  0  1  0  0  0  0  0  0  0  0  0
   23.3671   74.7577   -3.0508 C   0  0  1  0  0  0  0  0  0  0  0  0
   26.8185   77.6114   -2.8045 H   0  0  0  0  0  0  0  0  0  0  0  0
   26.5690   77.5053   -0.9310 H   0  0  0  0  0  0  0  0  0  0  0  0
   25.4264   75.8656   -5.3386 H   0  0  0  0  0  0  0  0  0  0  0  0
   23.3517   77.4755    0.4789 O   0  0  0  0  0  0  0  0  0  0  0  0
   23.2243   76.0676    0.4017 C   0  0  0  0  0  0  0  0  0  0  0  0
   22.9200   77.7947    1.2873 H   0  0  0  0  0  0  0  0  0  0  0  0
 25 28  1  0
 25 24  1  0
 25 26  1  6
 25 27  2  0
  1  4  1  0
  1 24  1  0
  1  2  1  1
  1  3  2  0
  6 11  1  0
  6 12  1  0
 29 36  1  0
 29 37  1  0
  9  7  1  6
  7 13  1  0
 10  8  1  6
  8 14  1  0
 37 28  1  1
  4  5  1  0
 33 30  1  6
 30 38  1  0
 34 31  1  1
 31 39  1  0
 35 32  1  6
 32 40  1  0
 41 42  1  0
 41 43  1  0
 15 19  2  0
 16 22  2  0
 12 17  1  1
 17 19  1  0
 17 20  1  0
 18 19  1  0
 18 22  1  0
 18 23  1  0
  9 10  1  0
  9 11  1  0
 10 12  1  0
 11  5  1  1
 33 34  1  0
 33 35  1  0
 34 36  1  0
 35 37  1  0
 36 42  1  1
 20 21  2  0
 21 22  1  0
M  CHG  2   2  -1  26  -1
M  END
>  <COMPND>  (132) 
    8629 

>  <AUTHOR>  (132) 
    GENERATED BY OPEN BABEL 3.1.1

>  <MASTER>  (132) 
        0    0    0    0    0    0    0    0   58    0   58    0

>  <minimizedAffinity>  (132) 
-6.48579

>  <CNNscore>  (132) 
0.8254476190

>  <CNNaffinity>  (132) 
4.7163662910

>  <CNN_VS>  (132) 
3.8931133747

>  <CNNaffinity_variance>  (132) 
0.2784431577

$$$$
133
     RDKit          3D

 43 45  0  0  0  0  0  0  0  0999 V2000
   21.8093   72.5184   -5.4338 P   0  0  2  0  0  0  0  0  0  0  0  0
   21.1169   73.9472   -5.1231 O   0  0  0  0  0  0  0  0  0  0  0  0
   23.0822   72.5897   -6.2250 O   0  0  0  0  0  0  0  0  0  0  0  0
   20.6186   71.6455   -6.0956 O   0  0  0  0  0  0  0  0  0  0  0  0
   20.1979   71.9633   -7.4109 C   0  0  0  0  0  0  0  0  0  0  0  0
   18.9593   69.9534   -6.9639 O   0  0  0  0  0  0  0  0  0  0  0  0
   18.2090   69.9931   -9.8667 O   0  0  0  0  0  0  0  0  0  0  0  0
   15.9752   70.9903   -8.6618 O   0  0  0  0  0  0  0  0  0  0  0  0
   18.3856   71.0848   -8.9655 C   0  0  1  0  0  0  0  0  0  0  0  0
   17.2150   71.1712   -8.0085 C   0  0  2  0  0  0  0  0  0  0  0  0
   19.5369   70.7391   -8.0294 C   0  0  1  0  0  0  0  0  0  0  0  0
   17.5273   70.0542   -7.0272 C   0  0  2  0  0  0  0  0  0  0  0  0
   17.4790   70.1909  -10.4749 H   0  0  0  0  0  0  0  0  0  0  0  0
   15.8223   71.7261   -9.2749 H   0  0  0  0  0  0  0  0  0  0  0  0
   16.2907   68.1310   -5.3688 O   0  0  0  0  0  0  0  0  0  0  0  0
   15.6189   71.2016   -1.9981 O   0  0  0  0  0  0  0  0  0  0  0  0
   17.0202   70.3237   -5.7112 N   0  0  0  0  0  0  0  0  0  0  0  0
   15.9574   69.6615   -3.6918 N   0  0  0  0  0  0  0  0  0  0  0  0
   16.4160   69.2877   -4.9614 C   0  0  0  0  0  0  0  0  0  0  0  0
   17.1249   71.6033   -5.1768 C   0  0  0  0  0  0  0  0  0  0  0  0
   16.6813   71.9437   -3.9650 C   0  0  0  0  0  0  0  0  0  0  0  0
   16.0372   70.9200   -3.1169 C   0  0  0  0  0  0  0  0  0  0  0  0
   15.5325   68.9563   -3.1514 H   0  0  0  0  0  0  0  0  0  0  0  0
   21.9664   71.8634   -3.9643 O   0  0  0  0  0  0  0  0  0  0  0  0
   23.1442   71.9928   -2.8648 P   0  0  2  0  0  0  0  0  0  0  0  0
   23.6923   73.4992   -3.0837 O   0  0  0  0  0  0  0  0  0  0  0  0
   24.1992   70.9293   -2.9650 O   0  0  0  0  0  0  0  0  0  0  0  0
   22.3755   72.0408   -1.4464 O   0  0  0  0  0  0  0  0  0  0  0  0
   24.0315   72.0895    0.2482 O   0  0  0  0  0  0  0  0  0  0  0  0
   20.6581   71.9558    2.6258 O   0  0  0  0  0  0  0  0  0  0  0  0
   22.1633   74.3943    2.4361 O   0  0  0  0  0  0  0  0  0  0  0  0
   20.7594   70.4181    0.1753 O   0  0  0  0  0  0  0  0  0  0  0  0
   21.4319   72.3267    1.4817 C   0  0  1  0  0  0  0  0  0  0  0  0
   22.6376   73.1376    1.9605 C   0  0  1  0  0  0  0  0  0  0  0  0
   21.8882   71.0621    0.7564 C   0  0  2  0  0  0  0  0  0  0  0  0
   23.6521   73.3434    0.8276 C   0  0  1  0  0  0  0  0  0  0  0  0
   22.9325   71.3726   -0.3175 C   0  0  1  0  0  0  0  0  0  0  0  0
   20.3648   72.7542    3.0906 H   0  0  0  0  0  0  0  0  0  0  0  0
   21.5232   74.2502    3.1508 H   0  0  0  0  0  0  0  0  0  0  0  0
   20.1059   70.2266    0.8653 H   0  0  0  0  0  0  0  0  0  0  0  0
   25.0928   73.7171    2.6967 O   0  0  0  0  0  0  0  0  0  0  0  0
   24.9330   74.0124    1.3214 C   0  0  0  0  0  0  0  0  0  0  0  0
   25.9043   74.1362    3.0246 H   0  0  0  0  0  0  0  0  0  0  0  0
 25 28  1  0
 25 24  1  0
 25 26  1  6
 25 27  2  0
  1  4  1  0
  1 24  1  0
  1  2  1  1
  1  3  2  0
  6 11  1  0
  6 12  1  0
 29 36  1  0
 29 37  1  0
  9  7  1  6
  7 13  1  0
 10  8  1  6
  8 14  1  0
 37 28  1  6
  4  5  1  0
 33 30  1  1
 30 38  1  0
 34 31  1  6
 31 39  1  0
 35 32  1  6
 32 40  1  0
 41 42  1  0
 41 43  1  0
 15 19  2  0
 16 22  2  0
 12 17  1  1
 17 19  1  0
 17 20  1  0
 18 19  1  0
 18 22  1  0
 18 23  1  0
  9 10  1  0
  9 11  1  0
 10 12  1  0
 11  5  1  1
 33 34  1  0
 33 35  1  0
 34 36  1  0
 35 37  1  0
 36 42  1  1
 20 21  2  0
 21 22  1  0
M  CHG  2   2  -1  26  -1
M  END
>  <COMPND>  (133) 
    8629 

>  <AUTHOR>  (133) 
    GENERATED BY OPEN BABEL 3.1.1

>  <MASTER>  (133) 
        0    0    0    0    0    0    0    0   58    0   58    0

>  <minimizedAffinity>  (133) 
-7.99758

>  <CNNscore>  (133) 
0.8253192306

>  <CNNaffinity>  (133) 
4.5653362274

>  <CNN_VS>  (133) 
3.7678596973

>  <CNNaffinity_variance>  (133) 
0.1869934201

$$$$
134
     RDKit          3D

 43 45  0  0  0  0  0  0  0  0999 V2000
   21.7045   72.6675   -5.6971 P   0  0  2  0  0  0  0  0  0  0  0  0
   23.2955   72.3746   -5.7201 O   0  0  0  0  0  0  0  0  0  0  0  0
   21.1050   72.8041   -4.3284 O   0  0  0  0  0  0  0  0  0  0  0  0
   21.0807   71.4972   -6.6238 O   0  0  0  0  0  0  0  0  0  0  0  0
   20.5170   71.8531   -7.8742 C   0  0  0  0  0  0  0  0  0  0  0  0
   19.2661   69.8791   -7.3152 O   0  0  0  0  0  0  0  0  0  0  0  0
   18.2013   69.9876  -10.1161 O   0  0  0  0  0  0  0  0  0  0  0  0
   16.1505   71.0405   -8.6594 O   0  0  0  0  0  0  0  0  0  0  0  0
   18.5143   71.0591   -9.2278 C   0  0  1  0  0  0  0  0  0  0  0  0
   17.4605   71.1701   -8.1458 C   0  0  2  0  0  0  0  0  0  0  0  0
   19.7494   70.6611   -8.4293 C   0  0  1  0  0  0  0  0  0  0  0  0
   17.8402   70.0286   -7.2179 C   0  0  2  0  0  0  0  0  0  0  0  0
   17.4158   70.2188  -10.6372 H   0  0  0  0  0  0  0  0  0  0  0  0
   15.9564   71.7901   -9.2434 H   0  0  0  0  0  0  0  0  0  0  0  0
   16.3361   68.2821   -5.5853 O   0  0  0  0  0  0  0  0  0  0  0  0
   16.5613   71.1552   -1.9887 O   0  0  0  0  0  0  0  0  0  0  0  0
   17.4915   70.2950   -5.8508 N   0  0  0  0  0  0  0  0  0  0  0  0
   16.4496   69.7140   -3.7957 N   0  0  0  0  0  0  0  0  0  0  0  0
   16.7320   69.3525   -5.1192 C   0  0  0  0  0  0  0  0  0  0  0  0
   17.9020   71.4796   -5.2491 C   0  0  0  0  0  0  0  0  0  0  0  0
   17.6233   71.8100   -3.9864 C   0  0  0  0  0  0  0  0  0  0  0  0
   16.8341   70.8802   -3.1531 C   0  0  0  0  0  0  0  0  0  0  0  0
   15.9214   69.0729   -3.2668 H   0  0  0  0  0  0  0  0  0  0  0  0
   21.5635   73.9818   -6.6275 O   0  0  0  0  0  0  0  0  0  0  0  0
   22.2771   75.4293   -6.5354 P   0  0  2  0  0  0  0  0  0  0  0  0
   22.9471   75.4196   -5.0628 O   0  0  0  0  0  0  0  0  0  0  0  0
   21.3555   76.5870   -6.7888 O   0  0  0  0  0  0  0  0  0  0  0  0
   23.5268   75.3341   -7.5524 O   0  0  0  0  0  0  0  0  0  0  0  0
   24.7972   77.3281   -7.3894 O   0  0  0  0  0  0  0  0  0  0  0  0
   26.8066   75.5187  -10.5102 O   0  0  0  0  0  0  0  0  0  0  0  0
   28.0445   75.6669   -7.9230 O   0  0  0  0  0  0  0  0  0  0  0  0
   23.9255   75.3036  -10.3300 O   0  0  0  0  0  0  0  0  0  0  0  0
   26.0779   75.5617   -9.2804 C   0  0  1  0  0  0  0  0  0  0  0  0
   26.8756   76.3998   -8.2794 C   0  0  1  0  0  0  0  0  0  0  0  0
   24.7075   76.1872   -9.5337 C   0  0  2  0  0  0  0  0  0  0  0  0
   26.0408   76.7144   -7.0307 C   0  0  1  0  0  0  0  0  0  0  0  0
   23.9812   76.5052   -8.2255 C   0  0  1  0  0  0  0  0  0  0  0  0
   27.6775   75.1221  -10.3564 H   0  0  0  0  0  0  0  0  0  0  0  0
   28.5624   75.4743   -8.7204 H   0  0  0  0  0  0  0  0  0  0  0  0
   24.3959   75.1102  -11.1553 H   0  0  0  0  0  0  0  0  0  0  0  0
   27.7277   78.3952   -6.8351 O   0  0  0  0  0  0  0  0  0  0  0  0
   26.7595   77.6794   -6.0904 C   0  0  0  0  0  0  0  0  0  0  0  0
   28.1929   79.0135   -6.2495 H   0  0  0  0  0  0  0  0  0  0  0  0
 25 28  1  0
 25 24  1  0
 25 26  1  1
 25 27  2  0
  1  4  1  0
  1 24  1  0
  1  2  1  1
  1  3  2  0
  6 11  1  0
  6 12  1  0
 29 36  1  0
 29 37  1  0
  9  7  1  6
  7 13  1  0
 10  8  1  6
  8 14  1  0
 37 28  1  1
  4  5  1  0
 33 30  1  6
 30 38  1  0
 34 31  1  1
 31 39  1  0
 35 32  1  6
 32 40  1  0
 41 42  1  0
 41 43  1  0
 15 19  2  0
 16 22  2  0
 12 17  1  1
 17 19  1  0
 17 20  1  0
 18 19  1  0
 18 22  1  0
 18 23  1  0
  9 10  1  0
  9 11  1  0
 10 12  1  0
 11  5  1  1
 33 34  1  0
 33 35  1  0
 34 36  1  0
 35 37  1  0
 36 42  1  1
 20 21  2  0
 21 22  1  0
M  CHG  2   2  -1  26  -1
M  END
>  <COMPND>  (134) 
    8629 

>  <AUTHOR>  (134) 
    GENERATED BY OPEN BABEL 3.1.1

>  <MASTER>  (134) 
        0    0    0    0    0    0    0    0   58    0   58    0

>  <minimizedAffinity>  (134) 
-6.33893

>  <CNNscore>  (134) 
0.8190211058

>  <CNNaffinity>  (134) 
4.5905318260

>  <CNN_VS>  (134) 
3.7597424984

>  <CNNaffinity_variance>  (134) 
0.2290441096

$$$$
135
     RDKit          3D

 43 45  0  0  0  0  0  0  0  0999 V2000
   21.7176   72.7079   -5.5987 P   0  0  2  0  0  0  0  0  0  0  0  0
   20.8493   74.0483   -5.8570 O   0  0  0  0  0  0  0  0  0  0  0  0
   23.1882   72.8445   -5.8634 O   0  0  0  0  0  0  0  0  0  0  0  0
   20.9503   71.5755   -6.4630 O   0  0  0  0  0  0  0  0  0  0  0  0
   20.4867   71.9127   -7.7588 C   0  0  0  0  0  0  0  0  0  0  0  0
   19.2724   69.9003   -7.2593 O   0  0  0  0  0  0  0  0  0  0  0  0
   18.2431   70.0458  -10.0718 O   0  0  0  0  0  0  0  0  0  0  0  0
   16.1502   71.0221   -8.6217 O   0  0  0  0  0  0  0  0  0  0  0  0
   18.5205   71.1046   -9.1567 C   0  0  1  0  0  0  0  0  0  0  0  0
   17.4500   71.1691   -8.0873 C   0  0  2  0  0  0  0  0  0  0  0  0
   19.7532   70.7165   -8.3498 C   0  0  1  0  0  0  0  0  0  0  0  0
   17.8424   70.0165   -7.1787 C   0  0  2  0  0  0  0  0  0  0  0  0
   17.4598   70.2711  -10.5988 H   0  0  0  0  0  0  0  0  0  0  0  0
   15.9474   71.7798   -9.1923 H   0  0  0  0  0  0  0  0  0  0  0  0
   16.2781   68.2442   -5.6328 O   0  0  0  0  0  0  0  0  0  0  0  0
   16.4729   70.9997   -1.9435 O   0  0  0  0  0  0  0  0  0  0  0  0
   17.4696   70.2456   -5.8113 N   0  0  0  0  0  0  0  0  0  0  0  0
   16.3765   69.6176   -3.7970 N   0  0  0  0  0  0  0  0  0  0  0  0
   16.6807   69.2930   -5.1252 C   0  0  0  0  0  0  0  0  0  0  0  0
   17.8856   71.4042   -5.1644 C   0  0  0  0  0  0  0  0  0  0  0  0
   17.5859   71.6995   -3.8978 C   0  0  0  0  0  0  0  0  0  0  0  0
   16.7654   70.7568   -3.1103 C   0  0  0  0  0  0  0  0  0  0  0  0
   15.8276   68.9689   -3.2994 H   0  0  0  0  0  0  0  0  0  0  0  0
   21.3414   72.3191   -4.0754 O   0  0  0  0  0  0  0  0  0  0  0  0
   21.6389   70.9824   -3.2166 P   0  0  2  0  0  0  0  0  0  0  0  0
   23.2515   70.8608   -3.2660 O   0  0  0  0  0  0  0  0  0  0  0  0
   20.9108   69.7632   -3.7038 O   0  0  0  0  0  0  0  0  0  0  0  0
   21.3077   71.3944   -1.6916 O   0  0  0  0  0  0  0  0  0  0  0  0
   20.8722   73.4764   -0.6465 O   0  0  0  0  0  0  0  0  0  0  0  0
   23.2425   71.7591    2.2661 O   0  0  0  0  0  0  0  0  0  0  0  0
   20.4205   72.0413    2.7188 O   0  0  0  0  0  0  0  0  0  0  0  0
   23.8621   71.3427   -0.5307 O   0  0  0  0  0  0  0  0  0  0  0  0
   22.2660   71.7721    1.2213 C   0  0  1  0  0  0  0  0  0  0  0  0
   21.1145   72.6827    1.6523 C   0  0  1  0  0  0  0  0  0  0  0  0
   22.9132   72.2939   -0.0603 C   0  0  2  0  0  0  0  0  0  0  0  0
   20.1596   72.9593    0.4833 C   0  0  1  0  0  0  0  0  0  0  0  0
   21.8710   72.5827   -1.1422 C   0  0  1  0  0  0  0  0  0  0  0  0
   22.8381   71.4284    3.0826 H   0  0  0  0  0  0  0  0  0  0  0  0
   21.0349   71.8719    3.4503 H   0  0  0  0  0  0  0  0  0  0  0  0
   24.5164   71.1686    0.1631 H   0  0  0  0  0  0  0  0  0  0  0  0
   19.5171   74.6853    2.0054 O   0  0  0  0  0  0  0  0  0  0  0  0
   19.0929   73.9896    0.8477 C   0  0  0  0  0  0  0  0  0  0  0  0
   18.8480   75.3448    2.2489 H   0  0  0  0  0  0  0  0  0  0  0  0
 25 28  1  0
 25 24  1  0
 25 26  1  1
 25 27  2  0
  1  4  1  0
  1 24  1  0
  1  2  1  6
  1  3  2  0
  6 11  1  0
  6 12  1  0
 29 36  1  0
 29 37  1  0
  9  7  1  6
  7 13  1  0
 10  8  1  6
  8 14  1  0
 37 28  1  1
  4  5  1  0
 33 30  1  1
 30 38  1  0
 34 31  1  1
 31 39  1  0
 35 32  1  6
 32 40  1  0
 41 42  1  0
 41 43  1  0
 15 19  2  0
 16 22  2  0
 12 17  1  1
 17 19  1  0
 17 20  1  0
 18 19  1  0
 18 22  1  0
 18 23  1  0
  9 10  1  0
  9 11  1  0
 10 12  1  0
 11  5  1  1
 33 34  1  0
 33 35  1  0
 34 36  1  0
 35 37  1  0
 36 42  1  1
 20 21  2  0
 21 22  1  0
M  CHG  2   2  -1  26  -1
M  END
>  <COMPND>  (135) 
    8629 

>  <AUTHOR>  (135) 
    GENERATED BY OPEN BABEL 3.1.1

>  <MASTER>  (135) 
        0    0    0    0    0    0    0    0   58    0   58    0

>  <minimizedAffinity>  (135) 
-7.16639

>  <CNNscore>  (135) 
0.7042514682

>  <CNNaffinity>  (135) 
4.4704847336

>  <CNN_VS>  (135) 
3.1483454704

>  <CNNaffinity_variance>  (135) 
0.1830703318

$$$$
136
     RDKit          3D

 43 45  0  0  0  0  0  0  0  0999 V2000
   20.9216   73.4857   -1.1270 P   0  0  2  0  0  0  0  0  0  0  0  0
   19.8375   74.1052   -0.0983 O   0  0  0  0  0  0  0  0  0  0  0  0
   22.0050   74.4328   -1.5523 O   0  0  0  0  0  0  0  0  0  0  0  0
   20.0179   72.8706   -2.3198 O   0  0  0  0  0  0  0  0  0  0  0  0
   20.2144   73.3564   -3.6363 C   0  0  0  0  0  0  0  0  0  0  0  0
   20.6187   71.3813   -4.9438 O   0  0  0  0  0  0  0  0  0  0  0  0
   23.2617   72.6125   -5.6436 O   0  0  0  0  0  0  0  0  0  0  0  0
   21.7636   73.1178   -7.8655 O   0  0  0  0  0  0  0  0  0  0  0  0
   21.9964   73.2421   -5.4486 C   0  0  1  0  0  0  0  0  0  0  0  0
   21.0891   72.9769   -6.6318 C   0  0  2  0  0  0  0  0  0  0  0  0
   21.2757   72.5087   -4.3243 C   0  0  1  0  0  0  0  0  0  0  0  0
   20.6401   71.5491   -6.3707 C   0  0  2  0  0  0  0  0  0  0  0  0
   23.7407   73.0638   -6.3569 H   0  0  0  0  0  0  0  0  0  0  0  0
   22.0288   74.0430   -7.9854 H   0  0  0  0  0  0  0  0  0  0  0  0
   20.0736   71.0560   -9.0936 O   0  0  0  0  0  0  0  0  0  0  0  0
   15.5711   70.5439   -8.2532 O   0  0  0  0  0  0  0  0  0  0  0  0
   19.3287   71.2836   -6.8912 N   0  0  0  0  0  0  0  0  0  0  0  0
   17.8322   70.8013   -8.6729 N   0  0  0  0  0  0  0  0  0  0  0  0
   19.1520   71.0499   -8.2749 C   0  0  0  0  0  0  0  0  0  0  0  0
   18.2349   71.2565   -6.0329 C   0  0  0  0  0  0  0  0  0  0  0  0
   16.9825   71.0193   -6.4284 C   0  0  0  0  0  0  0  0  0  0  0  0
   16.7117   70.7651   -7.8582 C   0  0  0  0  0  0  0  0  0  0  0  0
   17.6849   70.6360   -9.6325 H   0  0  0  0  0  0  0  0  0  0  0  0
   21.4463   72.1677   -0.3520 O   0  0  0  0  0  0  0  0  0  0  0  0
   21.4752   71.8032    1.2226 P   0  0  2  0  0  0  0  0  0  0  0  0
   21.5939   70.1897    1.2277 O   0  0  0  0  0  0  0  0  0  0  0  0
   20.3089   72.3408    2.0002 O   0  0  0  0  0  0  0  0  0  0  0  0
   22.9159   72.3196    1.7351 O   0  0  0  0  0  0  0  0  0  0  0  0
   24.5717   73.6445    0.6771 O   0  0  0  0  0  0  0  0  0  0  0  0
   27.0258   70.9772    2.6554 O   0  0  0  0  0  0  0  0  0  0  0  0
   26.8350   73.6873    3.5864 O   0  0  0  0  0  0  0  0  0  0  0  0
   24.5522   70.0555    1.4673 O   0  0  0  0  0  0  0  0  0  0  0  0
   25.8691   71.7998    2.4797 C   0  0  1  0  0  0  0  0  0  0  0  0
   26.3308   73.2504    2.3274 C   0  0  1  0  0  0  0  0  0  0  0  0
   25.1156   71.3416    1.2324 C   0  0  2  0  0  0  0  0  0  0  0  0
   25.1774   74.1539    1.8710 C   0  0  1  0  0  0  0  0  0  0  0  0
   24.0219   72.3352    0.8364 C   0  0  1  0  0  0  0  0  0  0  0  0
   27.5085   71.2626    3.4460 H   0  0  0  0  0  0  0  0  0  0  0  0
   27.5624   73.1082    3.8634 H   0  0  0  0  0  0  0  0  0  0  0  0
   25.2546   69.4357    1.7169 H   0  0  0  0  0  0  0  0  0  0  0  0
   26.1044   76.1674    2.7627 O   0  0  0  0  0  0  0  0  0  0  0  0
   25.6503   75.5725    1.5610 C   0  0  0  0  0  0  0  0  0  0  0  0
   26.4089   77.0707    2.5806 H   0  0  0  0  0  0  0  0  0  0  0  0
 25 28  1  0
 25 24  1  0
 25 26  1  6
 25 27  2  0
  1  4  1  0
  1 24  1  0
  1  2  1  1
  1  3  2  0
  6 11  1  0
  6 12  1  0
 29 36  1  0
 29 37  1  0
  9  7  1  6
  7 13  1  0
 10  8  1  6
  8 14  1  0
 37 28  1  1
  4  5  1  0
 33 30  1  6
 30 38  1  0
 34 31  1  1
 31 39  1  0
 35 32  1  1
 32 40  1  0
 41 42  1  0
 41 43  1  0
 15 19  2  0
 16 22  2  0
 12 17  1  1
 17 19  1  0
 17 20  1  0
 18 19  1  0
 18 22  1  0
 18 23  1  0
  9 10  1  0
  9 11  1  0
 10 12  1  0
 11  5  1  6
 33 34  1  0
 33 35  1  0
 34 36  1  0
 35 37  1  0
 36 42  1  6
 20 21  2  0
 21 22  1  0
M  CHG  2   2  -1  26  -1
M  END
>  <COMPND>  (136) 
    8629 

>  <AUTHOR>  (136) 
    GENERATED BY OPEN BABEL 3.1.1

>  <MASTER>  (136) 
        0    0    0    0    0    0    0    0   58    0   58    0

>  <minimizedAffinity>  (136) 
-6.76357

>  <CNNscore>  (136) 
0.6946389079

>  <CNNaffinity>  (136) 
4.3591661453

>  <CNN_VS>  (136) 
3.0280463696

>  <CNNaffinity_variance>  (136) 
0.1341065466

$$$$
137
     RDKit          3D

 43 45  0  0  0  0  0  0  0  0999 V2000
   21.9837   72.5744   -5.8314 P   0  0  2  0  0  0  0  0  0  0  0  0
   21.3763   73.9616   -5.2619 O   0  0  0  0  0  0  0  0  0  0  0  0
   23.0940   72.7309   -6.8285 O   0  0  0  0  0  0  0  0  0  0  0  0
   20.6826   71.7645   -6.3500 O   0  0  0  0  0  0  0  0  0  0  0  0
   20.2046   72.0201   -7.6592 C   0  0  0  0  0  0  0  0  0  0  0  0
   19.0214   70.0126   -7.0727 O   0  0  0  0  0  0  0  0  0  0  0  0
   18.1260   69.9278   -9.9332 O   0  0  0  0  0  0  0  0  0  0  0  0
   15.9401   70.9411   -8.6559 O   0  0  0  0  0  0  0  0  0  0  0  0
   18.3305   71.0565   -9.0849 C   0  0  1  0  0  0  0  0  0  0  0  0
   17.2082   71.1645   -8.0738 C   0  0  2  0  0  0  0  0  0  0  0  0
   19.5326   70.7636   -8.1957 C   0  0  1  0  0  0  0  0  0  0  0  0
   17.5866   70.0914   -7.0672 C   0  0  2  0  0  0  0  0  0  0  0  0
   17.3635   70.0916  -10.5108 H   0  0  0  0  0  0  0  0  0  0  0  0
   15.7452   71.6500   -9.2885 H   0  0  0  0  0  0  0  0  0  0  0  0
   16.4552   68.2205   -5.2790 O   0  0  0  0  0  0  0  0  0  0  0  0
   15.9155   71.4096   -1.9958 O   0  0  0  0  0  0  0  0  0  0  0  0
   17.1420   70.4055   -5.7386 N   0  0  0  0  0  0  0  0  0  0  0  0
   16.1876   69.8099   -3.6456 N   0  0  0  0  0  0  0  0  0  0  0  0
   16.5873   69.3929   -4.9216 C   0  0  0  0  0  0  0  0  0  0  0  0
   17.2583   71.7053   -5.2581 C   0  0  0  0  0  0  0  0  0  0  0  0
   16.8711   72.0869   -4.0392 C   0  0  0  0  0  0  0  0  0  0  0  0
   16.2813   71.0899   -3.1226 C   0  0  0  0  0  0  0  0  0  0  0  0
   15.7979   69.1216   -3.0589 H   0  0  0  0  0  0  0  0  0  0  0  0
   22.3949   71.7782   -4.4861 O   0  0  0  0  0  0  0  0  0  0  0  0
   23.4578   72.1380   -3.3226 P   0  0  2  0  0  0  0  0  0  0  0  0
   24.3169   73.3485   -3.9662 O   0  0  0  0  0  0  0  0  0  0  0  0
   24.2820   70.9715   -2.8599 O   0  0  0  0  0  0  0  0  0  0  0  0
   22.5756   72.8349   -2.1646 O   0  0  0  0  0  0  0  0  0  0  0  0
   22.9486   74.5585   -0.5813 O   0  0  0  0  0  0  0  0  0  0  0  0
   21.0782   71.8081    1.8657 O   0  0  0  0  0  0  0  0  0  0  0  0
   19.6709   74.1793    1.0624 O   0  0  0  0  0  0  0  0  0  0  0  0
   22.9423   70.9080   -0.1577 O   0  0  0  0  0  0  0  0  0  0  0  0
   21.3281   72.5063    0.6429 C   0  0  1  0  0  0  0  0  0  0  0  0
   21.0722   73.9960    0.8802 C   0  0  1  0  0  0  0  0  0  0  0  0
   22.7770   72.2704    0.2204 C   0  0  2  0  0  0  0  0  0  0  0  0
   21.5723   74.8390   -0.3005 C   0  0  1  0  0  0  0  0  0  0  0  0
   23.1878   73.1931   -0.9284 C   0  0  1  0  0  0  0  0  0  0  0  0
   20.1597   71.9534    2.1392 H   0  0  0  0  0  0  0  0  0  0  0  0
   19.3678   73.6412    1.8106 H   0  0  0  0  0  0  0  0  0  0  0  0
   22.6792   70.3341    0.5780 H   0  0  0  0  0  0  0  0  0  0  0  0
   20.1308   76.7430   -0.2247 O   0  0  0  0  0  0  0  0  0  0  0  0
   21.4710   76.3363   -0.0177 C   0  0  0  0  0  0  0  0  0  0  0  0
   20.0512   77.6939   -0.0481 H   0  0  0  0  0  0  0  0  0  0  0  0
 25 28  1  0
 25 24  1  0
 25 26  1  6
 25 27  2  0
  1  4  1  0
  1 24  1  0
  1  2  1  1
  1  3  2  0
  6 11  1  0
  6 12  1  0
 29 36  1  0
 29 37  1  0
  9  7  1  6
  7 13  1  0
 10  8  1  6
  8 14  1  0
 37 28  1  6
  4  5  1  0
 33 30  1  1
 30 38  1  0
 34 31  1  6
 31 39  1  0
 35 32  1  6
 32 40  1  0
 41 42  1  0
 41 43  1  0
 15 19  2  0
 16 22  2  0
 12 17  1  1
 17 19  1  0
 17 20  1  0
 18 19  1  0
 18 22  1  0
 18 23  1  0
  9 10  1  0
  9 11  1  0
 10 12  1  0
 11  5  1  1
 33 34  1  0
 33 35  1  0
 34 36  1  0
 35 37  1  0
 36 42  1  1
 20 21  2  0
 21 22  1  0
M  CHG  2   2  -1  26  -1
M  END
>  <COMPND>  (137) 
    8629 

>  <AUTHOR>  (137) 
    GENERATED BY OPEN BABEL 3.1.1

>  <MASTER>  (137) 
        0    0    0    0    0    0    0    0   58    0   58    0

>  <minimizedAffinity>  (137) 
-7.14672

>  <CNNscore>  (137) 
0.6920472383

>  <CNNaffinity>  (137) 
4.5124592781

>  <CNN_VS>  (137) 
3.1228349209

>  <CNNaffinity_variance>  (137) 
0.2150482237

$$$$
138
     RDKit          3D

 43 45  0  0  0  0  0  0  0  0999 V2000
   23.6112   72.6001   -3.5558 P   0  0  2  0  0  0  0  0  0  0  0  0
   23.9933   71.0972   -3.0944 O   0  0  0  0  0  0  0  0  0  0  0  0
   24.6913   73.3282   -4.3006 O   0  0  0  0  0  0  0  0  0  0  0  0
   23.0986   73.3062   -2.1932 O   0  0  0  0  0  0  0  0  0  0  0  0
   22.1866   74.3861   -2.2931 C   0  0  0  0  0  0  0  0  0  0  0  0
   21.1461   72.7908   -0.8281 O   0  0  0  0  0  0  0  0  0  0  0  0
   19.1979   74.9664   -0.1485 O   0  0  0  0  0  0  0  0  0  0  0  0
   20.8964   75.0019    1.9846 O   0  0  0  0  0  0  0  0  0  0  0  0
   20.5939   75.0602   -0.4271 C   0  0  1  0  0  0  0  0  0  0  0  0
   21.4001   74.5438    0.7464 C   0  0  2  0  0  0  0  0  0  0  0  0
   20.9252   74.0435   -1.5125 C   0  0  1  0  0  0  0  0  0  0  0  0
   21.2677   73.0393    0.5819 C   0  0  2  0  0  0  0  0  0  0  0  0
   18.9624   75.6068    0.5417 H   0  0  0  0  0  0  0  0  0  0  0  0
   21.0033   75.9642    2.0412 H   0  0  0  0  0  0  0  0  0  0  0  0
   21.3177   70.2670    1.1204 O   0  0  0  0  0  0  0  0  0  0  0  0
   25.7107   70.4292    2.5046 O   0  0  0  0  0  0  0  0  0  0  0  0
   22.4115   72.3309    1.0833 N   0  0  0  0  0  0  0  0  0  0  0  0
   23.5051   70.3500    1.8090 N   0  0  0  0  0  0  0  0  0  0  0  0
   22.3316   70.9389    1.3210 C   0  0  0  0  0  0  0  0  0  0  0  0
   23.5957   73.0155    1.3338 C   0  0  0  0  0  0  0  0  0  0  0  0
   24.7055   72.4395    1.8004 C   0  0  0  0  0  0  0  0  0  0  0  0
   24.7062   70.9881    2.0751 C   0  0  0  0  0  0  0  0  0  0  0  0
   23.4729   69.3811    1.9823 H   0  0  0  0  0  0  0  0  0  0  0  0
   22.2439   72.3873   -4.3913 O   0  0  0  0  0  0  0  0  0  0  0  0
   21.7498   73.0154   -5.7964 P   0  0  2  0  0  0  0  0  0  0  0  0
   22.7638   72.3597   -6.8731 O   0  0  0  0  0  0  0  0  0  0  0  0
   21.7083   74.5160   -5.8189 O   0  0  0  0  0  0  0  0  0  0  0  0
   20.3310   72.3027   -6.0860 O   0  0  0  0  0  0  0  0  0  0  0  0
   19.5418   70.1469   -5.4975 O   0  0  0  0  0  0  0  0  0  0  0  0
   17.8024   70.4908   -9.2267 O   0  0  0  0  0  0  0  0  0  0  0  0
   16.1631   70.6706   -6.8754 O   0  0  0  0  0  0  0  0  0  0  0  0
   20.4704   71.5201   -8.7774 O   0  0  0  0  0  0  0  0  0  0  0  0
   18.2746   70.9602   -7.9609 C   0  0  1  0  0  0  0  0  0  0  0  0
   17.5141   70.2181   -6.8602 C   0  0  1  0  0  0  0  0  0  0  0  0
   19.7741   70.6882   -7.8556 C   0  0  2  0  0  0  0  0  0  0  0  0
   18.1462   70.4690   -5.4844 C   0  0  1  0  0  0  0  0  0  0  0  0
   20.2920   70.9214   -6.4352 C   0  0  1  0  0  0  0  0  0  0  0  0
   16.8510   70.6609   -9.3002 H   0  0  0  0  0  0  0  0  0  0  0  0
   15.7758   70.5069   -7.7497 H   0  0  0  0  0  0  0  0  0  0  0  0
   20.1336   71.3629   -9.6728 H   0  0  0  0  0  0  0  0  0  0  0  0
   16.1519   70.0171   -4.2484 O   0  0  0  0  0  0  0  0  0  0  0  0
   17.5015   69.6152   -4.3946 C   0  0  0  0  0  0  0  0  0  0  0  0
   15.7288   69.4820   -3.5582 H   0  0  0  0  0  0  0  0  0  0  0  0
 25 28  1  0
 25 24  1  0
 25 26  1  6
 25 27  2  0
  1  4  1  0
  1 24  1  0
  1  2  1  1
  1  3  2  0
  6 11  1  0
  6 12  1  0
 29 36  1  0
 29 37  1  0
  9  7  1  1
  7 13  1  0
 10  8  1  1
  8 14  1  0
 37 28  1  1
  4  5  1  0
 33 30  1  6
 30 38  1  0
 34 31  1  1
 31 39  1  0
 35 32  1  6
 32 40  1  0
 41 42  1  0
 41 43  1  0
 15 19  2  0
 16 22  2  0
 12 17  1  6
 17 19  1  0
 17 20  1  0
 18 19  1  0
 18 22  1  0
 18 23  1  0
  9 10  1  0
  9 11  1  0
 10 12  1  0
 11  5  1  1
 33 34  1  0
 33 35  1  0
 34 36  1  0
 35 37  1  0
 36 42  1  1
 20 21  2  0
 21 22  1  0
M  CHG  2   2  -1  26  -1
M  END
>  <COMPND>  (138) 
    8629 

>  <AUTHOR>  (138) 
    GENERATED BY OPEN BABEL 3.1.1

>  <MASTER>  (138) 
        0    0    0    0    0    0    0    0   58    0   58    0

>  <minimizedAffinity>  (138) 
-7.55545

>  <CNNscore>  (138) 
0.6907798052

>  <CNNaffinity>  (138) 
4.4339704514

>  <CNN_VS>  (138) 
3.0628972054

>  <CNNaffinity_variance>  (138) 
0.0919149369

$$$$
139
     RDKit          3D

 43 45  0  0  0  0  0  0  0  0999 V2000
   21.2337   72.0908   -5.1774 P   0  0  2  0  0  0  0  0  0  0  0  0
   20.9757   70.7659   -4.2855 O   0  0  0  0  0  0  0  0  0  0  0  0
   20.3151   73.2405   -4.8848 O   0  0  0  0  0  0  0  0  0  0  0  0
   21.2123   71.5442   -6.7001 O   0  0  0  0  0  0  0  0  0  0  0  0
   20.1791   71.9869   -7.5629 C   0  0  0  0  0  0  0  0  0  0  0  0
   18.9576   69.9654   -7.1211 O   0  0  0  0  0  0  0  0  0  0  0  0
   18.1178   70.0657   -9.9978 O   0  0  0  0  0  0  0  0  0  0  0  0
   15.9210   71.0324   -8.7033 O   0  0  0  0  0  0  0  0  0  0  0  0
   18.3207   71.1383   -9.0793 C   0  0  1  0  0  0  0  0  0  0  0  0
   17.1802   71.2018   -8.0849 C   0  0  2  0  0  0  0  0  0  0  0  0
   19.5009   70.7749   -8.1868 C   0  0  1  0  0  0  0  0  0  0  0  0
   17.5241   70.0647   -7.1379 C   0  0  2  0  0  0  0  0  0  0  0  0
   17.3691   70.2751  -10.5788 H   0  0  0  0  0  0  0  0  0  0  0  0
   15.7482   71.7808   -9.2956 H   0  0  0  0  0  0  0  0  0  0  0  0
   16.3068   68.1137   -5.4979 O   0  0  0  0  0  0  0  0  0  0  0  0
   15.7725   71.0998   -2.0282 O   0  0  0  0  0  0  0  0  0  0  0  0
   17.0577   70.3049   -5.8015 N   0  0  0  0  0  0  0  0  0  0  0  0
   16.0419   69.6021   -3.7715 N   0  0  0  0  0  0  0  0  0  0  0  0
   16.4598   69.2570   -5.0631 C   0  0  0  0  0  0  0  0  0  0  0  0
   17.1953   71.5678   -5.2359 C   0  0  0  0  0  0  0  0  0  0  0  0
   16.7903   71.8809   -4.0034 C   0  0  0  0  0  0  0  0  0  0  0  0
   16.1555   70.8432   -3.1654 C   0  0  0  0  0  0  0  0  0  0  0  0
   15.6222   68.8882   -3.2386 H   0  0  0  0  0  0  0  0  0  0  0  0
   22.8001   72.4000   -4.9244 O   0  0  0  0  0  0  0  0  0  0  0  0
   23.5290   73.4343   -3.9185 P   0  0  2  0  0  0  0  0  0  0  0  0
   22.6423   74.7798   -4.0633 O   0  0  0  0  0  0  0  0  0  0  0  0
   24.9935   73.6258   -4.1877 O   0  0  0  0  0  0  0  0  0  0  0  0
   23.1874   72.8779   -2.4424 O   0  0  0  0  0  0  0  0  0  0  0  0
   20.9897   73.2230   -1.6253 O   0  0  0  0  0  0  0  0  0  0  0  0
   22.9027   72.4208    1.9451 O   0  0  0  0  0  0  0  0  0  0  0  0
   21.1326   70.4626    0.8136 O   0  0  0  0  0  0  0  0  0  0  0  0
   24.2396   73.9872   -0.0893 O   0  0  0  0  0  0  0  0  0  0  0  0
   22.6519   72.2900    0.5432 C   0  0  1  0  0  0  0  0  0  0  0  0
   21.2113   71.8099    0.3564 C   0  0  1  0  0  0  0  0  0  0  0  0
   22.8582   73.6459   -0.1295 C   0  0  2  0  0  0  0  0  0  0  0  0
   20.7833   71.9008   -1.1145 C   0  0  1  0  0  0  0  0  0  0  0  0
   22.3548   73.6421   -1.5740 C   0  0  1  0  0  0  0  0  0  0  0  0
   22.7739   71.5633    2.3781 H   0  0  0  0  0  0  0  0  0  0  0  0
   21.4059   70.4190    1.7435 H   0  0  0  0  0  0  0  0  0  0  0  0
   24.5461   73.9865    0.8305 H   0  0  0  0  0  0  0  0  0  0  0  0
   19.1857   70.2262   -1.7082 O   0  0  0  0  0  0  0  0  0  0  0  0
   19.3025   71.5769   -1.3004 C   0  0  0  0  0  0  0  0  0  0  0  0
   18.2486   70.0058   -1.8301 H   0  0  0  0  0  0  0  0  0  0  0  0
 25 28  1  0
 25 24  1  0
 25 26  1  1
 25 27  2  0
  1  4  1  0
  1 24  1  0
  1  2  1  1
  1  3  2  0
  6 11  1  0
  6 12  1  0
 29 36  1  0
 29 37  1  0
  9  7  1  6
  7 13  1  0
 10  8  1  6
  8 14  1  0
 37 28  1  6
  4  5  1  0
 33 30  1  1
 30 38  1  0
 34 31  1  6
 31 39  1  0
 35 32  1  6
 32 40  1  0
 41 42  1  0
 41 43  1  0
 15 19  2  0
 16 22  2  0
 12 17  1  1
 17 19  1  0
 17 20  1  0
 18 19  1  0
 18 22  1  0
 18 23  1  0
  9 10  1  0
  9 11  1  0
 10 12  1  0
 11  5  1  1
 33 34  1  0
 33 35  1  0
 34 36  1  0
 35 37  1  0
 36 42  1  1
 20 21  2  0
 21 22  1  0
M  CHG  2   2  -1  26  -1
M  END
>  <COMPND>  (139) 
    8629 

>  <AUTHOR>  (139) 
    GENERATED BY OPEN BABEL 3.1.1

>  <MASTER>  (139) 
        0    0    0    0    0    0    0    0   58    0   58    0

>  <minimizedAffinity>  (139) 
-7.37363

>  <CNNscore>  (139) 
0.6222531199

>  <CNNaffinity>  (139) 
4.3564081192

>  <CNN_VS>  (139) 
2.7107884884

>  <CNNaffinity_variance>  (139) 
0.4458786845

$$$$
140
     RDKit          3D

 43 45  0  0  0  0  0  0  0  0999 V2000
   21.0340   74.2912   -2.7773 P   0  0  2  0  0  0  0  0  0  0  0  0
   22.5349   74.8317   -3.0466 O   0  0  0  0  0  0  0  0  0  0  0  0
   20.0206   75.3568   -2.4789 O   0  0  0  0  0  0  0  0  0  0  0  0
   21.2266   73.1643   -1.6323 O   0  0  0  0  0  0  0  0  0  0  0  0
   22.5413   72.8498   -1.2076 C   0  0  0  0  0  0  0  0  0  0  0  0
   23.7833   71.3810    0.2326 O   0  0  0  0  0  0  0  0  0  0  0  0
   21.1442   70.1427    0.9344 O   0  0  0  0  0  0  0  0  0  0  0  0
   21.6279   71.7633    3.0736 O   0  0  0  0  0  0  0  0  0  0  0  0
   21.4562   71.5078    0.6618 C   0  0  1  0  0  0  0  0  0  0  0  0
   22.1978   72.1213    1.8311 C   0  0  2  0  0  0  0  0  0  0  0  0
   22.5124   71.5377   -0.4358 C   0  0  1  0  0  0  0  0  0  0  0  0
   23.5973   71.5595    1.6462 C   0  0  2  0  0  0  0  0  0  0  0  0
   20.4712   70.0981    1.6323 H   0  0  0  0  0  0  0  0  0  0  0  0
   20.7387   72.1443    3.1433 H   0  0  0  0  0  0  0  0  0  0  0  0
   26.2186   70.7587    2.3282 O   0  0  0  0  0  0  0  0  0  0  0  0
   27.4089   75.0432    3.5397 O   0  0  0  0  0  0  0  0  0  0  0  0
   24.6128   72.4451    2.1420 N   0  0  0  0  0  0  0  0  0  0  0  0
   26.8092   72.8927    2.9307 N   0  0  0  0  0  0  0  0  0  0  0  0
   25.8969   71.9419    2.4557 C   0  0  0  0  0  0  0  0  0  0  0  0
   24.3312   73.7962    2.3124 C   0  0  0  0  0  0  0  0  0  0  0  0
   25.2119   74.6897    2.7676 C   0  0  0  0  0  0  0  0  0  0  0  0
   26.5765   74.2460    3.1185 C   0  0  0  0  0  0  0  0  0  0  0  0
   27.7101   72.5651    3.1560 H   0  0  0  0  0  0  0  0  0  0  0  0
   20.7202   73.4157   -4.0995 O   0  0  0  0  0  0  0  0  0  0  0  0
   21.4798   72.1358   -4.7300 P   0  0  2  0  0  0  0  0  0  0  0  0
   21.0230   70.9205   -3.7646 O   0  0  0  0  0  0  0  0  0  0  0  0
   22.9666   72.3023   -4.8545 O   0  0  0  0  0  0  0  0  0  0  0  0
   20.7189   71.8558   -6.1256 O   0  0  0  0  0  0  0  0  0  0  0  0
   18.4415   71.2589   -5.8547 O   0  0  0  0  0  0  0  0  0  0  0  0
   18.9122   70.2754   -9.8375 O   0  0  0  0  0  0  0  0  0  0  0  0
   17.3829   72.5986   -9.1218 O   0  0  0  0  0  0  0  0  0  0  0  0
   21.0536   69.7584   -7.9596 O   0  0  0  0  0  0  0  0  0  0  0  0
   19.1340   71.0395   -8.6490 C   0  0  1  0  0  0  0  0  0  0  0  0
   17.7905   71.6054   -8.1849 C   0  0  1  0  0  0  0  0  0  0  0  0
   19.7344   70.1319   -7.5770 C   0  0  2  0  0  0  0  0  0  0  0  0
   17.9001   72.2101   -6.7787 C   0  0  1  0  0  0  0  0  0  0  0  0
   19.7522   70.8117   -6.2067 C   0  0  1  0  0  0  0  0  0  0  0  0
   18.5315   70.8459  -10.5224 H   0  0  0  0  0  0  0  0  0  0  0  0
   17.3179   72.2038  -10.0056 H   0  0  0  0  0  0  0  0  0  0  0  0
   21.0288   69.3289   -8.8284 H   0  0  0  0  0  0  0  0  0  0  0  0
   15.5334   71.9112   -6.9130 O   0  0  0  0  0  0  0  0  0  0  0  0
   16.5398   72.6382   -6.2326 C   0  0  0  0  0  0  0  0  0  0  0  0
   14.6620   72.1731   -6.5755 H   0  0  0  0  0  0  0  0  0  0  0  0
 25 28  1  0
 25 24  1  0
 25 26  1  1
 25 27  2  0
  1  4  1  0
  1 24  1  0
  1  2  1  6
  1  3  2  0
  6 11  1  0
  6 12  1  0
 29 36  1  0
 29 37  1  0
  9  7  1  1
  7 13  1  0
 10  8  1  1
  8 14  1  0
 37 28  1  6
  4  5  1  0
 33 30  1  6
 30 38  1  0
 34 31  1  6
 31 39  1  0
 35 32  1  6
 32 40  1  0
 41 42  1  0
 41 43  1  0
 15 19  2  0
 16 22  2  0
 12 17  1  6
 17 19  1  0
 17 20  1  0
 18 19  1  0
 18 22  1  0
 18 23  1  0
  9 10  1  0
  9 11  1  0
 10 12  1  0
 11  5  1  1
 33 34  1  0
 33 35  1  0
 34 36  1  0
 35 37  1  0
 36 42  1  1
 20 21  2  0
 21 22  1  0
M  CHG  2   2  -1  26  -1
M  END
>  <COMPND>  (140) 
    8629 

>  <AUTHOR>  (140) 
    GENERATED BY OPEN BABEL 3.1.1

>  <MASTER>  (140) 
        0    0    0    0    0    0    0    0   58    0   58    0

>  <minimizedAffinity>  (140) 
-6.70816

>  <CNNscore>  (140) 
0.6012704968

>  <CNNaffinity>  (140) 
4.2213120461

>  <CNN_VS>  (140) 
2.5381503105

>  <CNNaffinity_variance>  (140) 
0.1796691716

$$$$
141
     RDKit          3D

 43 45  0  0  0  0  0  0  0  0999 V2000
   22.6976   71.6075   -2.5886 P   0  0  2  0  0  0  0  0  0  0  0  0
   24.1375   71.0511   -3.0727 O   0  0  0  0  0  0  0  0  0  0  0  0
   22.2258   71.0788   -1.2660 O   0  0  0  0  0  0  0  0  0  0  0  0
   21.7252   71.3168   -3.8487 O   0  0  0  0  0  0  0  0  0  0  0  0
   20.7881   70.2587   -3.7496 C   0  0  0  0  0  0  0  0  0  0  0  0
   18.9883   71.5387   -4.6963 O   0  0  0  0  0  0  0  0  0  0  0  0
   17.2777   70.3975   -2.5140 O   0  0  0  0  0  0  0  0  0  0  0  0
   16.5970   68.8660   -4.6652 O   0  0  0  0  0  0  0  0  0  0  0  0
   18.3408   69.7840   -3.2412 C   0  0  1  0  0  0  0  0  0  0  0  0
   17.8879   69.4403   -4.6449 C   0  0  2  0  0  0  0  0  0  0  0  0
   19.4045   70.8434   -3.5006 C   0  0  1  0  0  0  0  0  0  0  0  0
   17.9362   70.7945   -5.3319 C   0  0  2  0  0  0  0  0  0  0  0  0
   16.5862   69.7401   -2.3362 H   0  0  0  0  0  0  0  0  0  0  0  0
   16.6183   68.0064   -4.2164 H   0  0  0  0  0  0  0  0  0  0  0  0
   16.0059   70.2355   -7.3167 O   0  0  0  0  0  0  0  0  0  0  0  0
   19.1505   70.4044  -10.6819 O   0  0  0  0  0  0  0  0  0  0  0  0
   18.2227   70.6871   -6.7347 N   0  0  0  0  0  0  0  0  0  0  0  0
   17.5732   70.3202   -8.9907 N   0  0  0  0  0  0  0  0  0  0  0  0
   17.1814   70.4021   -7.6484 C   0  0  0  0  0  0  0  0  0  0  0  0
   19.5242   70.8639   -7.1916 C   0  0  0  0  0  0  0  0  0  0  0  0
   19.8815   70.7813   -8.4749 C   0  0  0  0  0  0  0  0  0  0  0  0
   18.8536   70.4869   -9.4941 C   0  0  0  0  0  0  0  0  0  0  0  0
   16.8646   70.1222   -9.6454 H   0  0  0  0  0  0  0  0  0  0  0  0
   22.8912   73.2115   -2.6416 O   0  0  0  0  0  0  0  0  0  0  0  0
   21.9836   74.3688   -3.3122 P   0  0  2  0  0  0  0  0  0  0  0  0
   22.5306   75.7213   -2.6130 O   0  0  0  0  0  0  0  0  0  0  0  0
   20.5050   74.1518   -3.1686 O   0  0  0  0  0  0  0  0  0  0  0  0
   22.5010   74.4608   -4.8383 O   0  0  0  0  0  0  0  0  0  0  0  0
   20.9704   75.3160   -6.4328 O   0  0  0  0  0  0  0  0  0  0  0  0
   23.6648   73.5253   -8.9988 O   0  0  0  0  0  0  0  0  0  0  0  0
   23.5740   76.3897   -8.8114 O   0  0  0  0  0  0  0  0  0  0  0  0
   22.9901   72.2464   -6.4911 O   0  0  0  0  0  0  0  0  0  0  0  0
   23.2562   74.2338   -7.8256 C   0  0  1  0  0  0  0  0  0  0  0  0
   22.5765   75.5331   -8.2623 C   0  0  1  0  0  0  0  0  0  0  0  0
   22.2879   73.3622   -7.0281 C   0  0  2  0  0  0  0  0  0  0  0  0
   21.8769   76.2168   -7.0799 C   0  0  1  0  0  0  0  0  0  0  0  0
   21.6099   74.1515   -5.9067 C   0  0  1  0  0  0  0  0  0  0  0  0
   24.2802   74.0731   -9.5095 H   0  0  0  0  0  0  0  0  0  0  0  0
   24.0084   75.9459   -9.5568 H   0  0  0  0  0  0  0  0  0  0  0  0
   23.4146   71.7548   -7.2109 H   0  0  0  0  0  0  0  0  0  0  0  0
   20.1557   77.0194   -8.5298 O   0  0  0  0  0  0  0  0  0  0  0  0
   21.0611   77.4298   -7.5217 C   0  0  0  0  0  0  0  0  0  0  0  0
   19.6295   77.7811   -8.8205 H   0  0  0  0  0  0  0  0  0  0  0  0
 25 28  1  0
 25 24  1  0
 25 26  1  1
 25 27  2  0
  1  4  1  0
  1 24  1  0
  1  2  1  6
  1  3  2  0
  6 11  1  0
  6 12  1  0
 29 36  1  0
 29 37  1  0
  9  7  1  1
  7 13  1  0
 10  8  1  1
  8 14  1  0
 37 28  1  1
  4  5  1  0
 33 30  1  6
 30 38  1  0
 34 31  1  1
 31 39  1  0
 35 32  1  1
 32 40  1  0
 41 42  1  0
 41 43  1  0
 15 19  2  0
 16 22  2  0
 12 17  1  6
 17 19  1  0
 17 20  1  0
 18 19  1  0
 18 22  1  0
 18 23  1  0
  9 10  1  0
  9 11  1  0
 10 12  1  0
 11  5  1  6
 33 34  1  0
 33 35  1  0
 34 36  1  0
 35 37  1  0
 36 42  1  6
 20 21  2  0
 21 22  1  0
M  CHG  2   2  -1  26  -1
M  END
>  <COMPND>  (141) 
    8629 

>  <AUTHOR>  (141) 
    GENERATED BY OPEN BABEL 3.1.1

>  <MASTER>  (141) 
        0    0    0    0    0    0    0    0   58    0   58    0

>  <minimizedAffinity>  (141) 
-7.49170

>  <CNNscore>  (141) 
0.9463324547

>  <CNNaffinity>  (141) 
4.7771825790

>  <CNN_VS>  (141) 
4.5208029747

>  <CNNaffinity_variance>  (141) 
0.2538772821

$$$$
142
     RDKit          3D

 43 45  0  0  0  0  0  0  0  0999 V2000
   22.9448   71.7068   -2.7107 P   0  0  2  0  0  0  0  0  0  0  0  0
   23.1442   73.2696   -2.3428 O   0  0  0  0  0  0  0  0  0  0  0  0
   24.1825   71.0049   -3.1869 O   0  0  0  0  0  0  0  0  0  0  0  0
   21.6966   71.7063   -3.7403 O   0  0  0  0  0  0  0  0  0  0  0  0
   20.8360   70.5808   -3.7588 C   0  0  0  0  0  0  0  0  0  0  0  0
   18.9286   71.6778   -4.7245 O   0  0  0  0  0  0  0  0  0  0  0  0
   17.3289   70.4331   -2.5149 O   0  0  0  0  0  0  0  0  0  0  0  0
   16.7832   68.8053   -4.6336 O   0  0  0  0  0  0  0  0  0  0  0  0
   18.4410   69.9017   -3.2334 C   0  0  1  0  0  0  0  0  0  0  0  0
   18.0182   69.4918   -4.6287 C   0  0  2  0  0  0  0  0  0  0  0  0
   19.4065   71.0458   -3.5168 C   0  0  1  0  0  0  0  0  0  0  0  0
   17.9455   70.8311   -5.3421 C   0  0  2  0  0  0  0  0  0  0  0  0
   16.6985   69.7208   -2.3222 H   0  0  0  0  0  0  0  0  0  0  0  0
   16.8811   67.9600   -4.1682 H   0  0  0  0  0  0  0  0  0  0  0  0
   16.0630   70.0888   -7.3127 O   0  0  0  0  0  0  0  0  0  0  0  0
   19.1820   70.4433  -10.6872 O   0  0  0  0  0  0  0  0  0  0  0  0
   18.2384   70.7218   -6.7434 N   0  0  0  0  0  0  0  0  0  0  0  0
   17.6175   70.2661   -8.9914 N   0  0  0  0  0  0  0  0  0  0  0  0
   17.2217   70.3407   -7.6498 C   0  0  0  0  0  0  0  0  0  0  0  0
   19.5217   70.9915   -7.2062 C   0  0  0  0  0  0  0  0  0  0  0  0
   19.8833   70.9146   -8.4887 C   0  0  0  0  0  0  0  0  0  0  0  0
   18.8807   70.5232   -9.5003 C   0  0  0  0  0  0  0  0  0  0  0  0
   16.9260   70.0021   -9.6409 H   0  0  0  0  0  0  0  0  0  0  0  0
   22.3018   71.0946   -1.3599 O   0  0  0  0  0  0  0  0  0  0  0  0
   21.3981   71.7810   -0.2087 P   0  0  2  0  0  0  0  0  0  0  0  0
   20.7094   70.5150    0.5265 O   0  0  0  0  0  0  0  0  0  0  0  0
   20.4260   72.8053   -0.7184 O   0  0  0  0  0  0  0  0  0  0  0  0
   22.4633   72.3456    0.8644 O   0  0  0  0  0  0  0  0  0  0  0  0
   24.2107   71.4611    2.1990 O   0  0  0  0  0  0  0  0  0  0  0  0
   22.2384   73.6722    5.0751 O   0  0  0  0  0  0  0  0  0  0  0  0
   24.7725   74.5831    4.0767 O   0  0  0  0  0  0  0  0  0  0  0  0
   20.7253   72.2404    3.0651 O   0  0  0  0  0  0  0  0  0  0  0  0
   22.7279   73.3824    3.7629 C   0  0  1  0  0  0  0  0  0  0  0  0
   24.2528   73.2792    3.8318 C   0  0  1  0  0  0  0  0  0  0  0  0
   22.1210   72.0651    3.2835 C   0  0  2  0  0  0  0  0  0  0  0  0
   24.8291   72.7105    2.5281 C   0  0  1  0  0  0  0  0  0  0  0  0
   22.7983   71.5626    2.0072 C   0  0  1  0  0  0  0  0  0  0  0  0
   22.6196   74.5077    5.3852 H   0  0  0  0  0  0  0  0  0  0  0  0
   24.4005   74.9310    4.9024 H   0  0  0  0  0  0  0  0  0  0  0  0
   20.3080   72.5584    3.8804 H   0  0  0  0  0  0  0  0  0  0  0  0
   26.5882   71.1260    2.2063 O   0  0  0  0  0  0  0  0  0  0  0  0
   26.3305   72.4515    2.6315 C   0  0  0  0  0  0  0  0  0  0  0  0
   27.5401   70.9471    2.2664 H   0  0  0  0  0  0  0  0  0  0  0  0
 25 28  1  0
 25 24  1  0
 25 26  1  1
 25 27  2  0
  1  4  1  0
  1 24  1  0
  1  2  1  1
  1  3  2  0
  6 11  1  0
  6 12  1  0
 29 36  1  0
 29 37  1  0
  9  7  1  1
  7 13  1  0
 10  8  1  1
  8 14  1  0
 37 28  1  6
  4  5  1  0
 33 30  1  1
 30 38  1  0
 34 31  1  6
 31 39  1  0
 35 32  1  6
 32 40  1  0
 41 42  1  0
 41 43  1  0
 15 19  2  0
 16 22  2  0
 12 17  1  6
 17 19  1  0
 17 20  1  0
 18 19  1  0
 18 22  1  0
 18 23  1  0
  9 10  1  0
  9 11  1  0
 10 12  1  0
 11  5  1  6
 33 34  1  0
 33 35  1  0
 34 36  1  0
 35 37  1  0
 36 42  1  1
 20 21  2  0
 21 22  1  0
M  CHG  2   2  -1  26  -1
M  END
>  <COMPND>  (142) 
    8629 

>  <AUTHOR>  (142) 
    GENERATED BY OPEN BABEL 3.1.1

>  <MASTER>  (142) 
        0    0    0    0    0    0    0    0   58    0   58    0

>  <minimizedAffinity>  (142) 
-8.01502

>  <CNNscore>  (142) 
0.9449619651

>  <CNNaffinity>  (142) 
4.8117003441

>  <CNN_VS>  (142) 
4.5468740463

>  <CNNaffinity_variance>  (142) 
0.0402302071

$$$$
143
     RDKit          3D

 43 45  0  0  0  0  0  0  0  0999 V2000
   22.4578   71.7227   -2.9748 P   0  0  2  0  0  0  0  0  0  0  0  0
   22.1677   73.2912   -2.7049 O   0  0  0  0  0  0  0  0  0  0  0  0
   23.8731   71.3954   -3.3507 O   0  0  0  0  0  0  0  0  0  0  0  0
   21.3284   71.2988   -4.0532 O   0  0  0  0  0  0  0  0  0  0  0  0
   20.4157   70.2714   -3.7080 C   0  0  0  0  0  0  0  0  0  0  0  0
   18.7023   71.5704   -4.7806 O   0  0  0  0  0  0  0  0  0  0  0  0
   16.8294   70.4556   -2.7214 O   0  0  0  0  0  0  0  0  0  0  0  0
   16.2824   68.9266   -4.9121 O   0  0  0  0  0  0  0  0  0  0  0  0
   17.9333   69.8274   -3.3712 C   0  0  1  0  0  0  0  0  0  0  0  0
   17.5756   69.4855   -4.8026 C   0  0  2  0  0  0  0  0  0  0  0  0
   19.0253   70.8734   -3.5575 C   0  0  1  0  0  0  0  0  0  0  0  0
   17.6882   70.8372   -5.4870 C   0  0  2  0  0  0  0  0  0  0  0  0
   16.1193   69.8070   -2.5913 H   0  0  0  0  0  0  0  0  0  0  0  0
   16.2618   68.0680   -4.4614 H   0  0  0  0  0  0  0  0  0  0  0  0
   15.9178   70.1700   -7.5843 O   0  0  0  0  0  0  0  0  0  0  0  0
   19.2680   70.4247  -10.7390 O   0  0  0  0  0  0  0  0  0  0  0  0
   18.0710   70.7225   -6.8661 N   0  0  0  0  0  0  0  0  0  0  0  0
   17.5874   70.2976   -9.1534 N   0  0  0  0  0  0  0  0  0  0  0  0
   17.1048   70.3814   -7.8411 C   0  0  0  0  0  0  0  0  0  0  0  0
   19.3914   70.9478   -7.2398 C   0  0  0  0  0  0  0  0  0  0  0  0
   19.8357   70.8625   -8.4954 C   0  0  0  0  0  0  0  0  0  0  0  0
   18.8903   70.5110   -9.5747 C   0  0  0  0  0  0  0  0  0  0  0  0
   16.9323   70.0609   -9.8496 H   0  0  0  0  0  0  0  0  0  0  0  0
   21.9431   71.0184   -1.6139 O   0  0  0  0  0  0  0  0  0  0  0  0
   21.2827   71.6453   -0.2783 P   0  0  2  0  0  0  0  0  0  0  0  0
   21.0160   70.3464    0.6486 O   0  0  0  0  0  0  0  0  0  0  0  0
   20.0652   72.4867   -0.5305 O   0  0  0  0  0  0  0  0  0  0  0  0
   22.4946   72.4239    0.4498 O   0  0  0  0  0  0  0  0  0  0  0  0
   21.8191   73.9584    2.1248 O   0  0  0  0  0  0  0  0  0  0  0  0
   25.7408   75.1669    1.6657 O   0  0  0  0  0  0  0  0  0  0  0  0
   24.9659   73.7354    4.0318 O   0  0  0  0  0  0  0  0  0  0  0  0
   24.1962   74.3666   -0.6480 O   0  0  0  0  0  0  0  0  0  0  0  0
   24.6638   74.2270    1.7106 C   0  0  1  0  0  0  0  0  0  0  0  0
   24.0345   74.2849    3.1040 C   0  0  1  0  0  0  0  0  0  0  0  0
   23.6366   74.5935    0.6411 C   0  0  2  0  0  0  0  0  0  0  0  0
   22.7133   73.5055    3.1480 C   0  0  1  0  0  0  0  0  0  0  0  0
   22.3416   73.7957    0.8048 C   0  0  1  0  0  0  0  0  0  0  0  0
   26.3968   74.9396    2.3420 H   0  0  0  0  0  0  0  0  0  0  0  0
   25.7959   74.2363    3.9937 H   0  0  0  0  0  0  0  0  0  0  0  0
   25.0152   74.8774   -0.7393 H   0  0  0  0  0  0  0  0  0  0  0  0
   22.4029   72.6458    5.3556 O   0  0  0  0  0  0  0  0  0  0  0  0
   21.9903   73.6804    4.4817 C   0  0  0  0  0  0  0  0  0  0  0  0
   21.9510   72.7445    6.2087 H   0  0  0  0  0  0  0  0  0  0  0  0
 25 28  1  0
 25 24  1  0
 25 26  1  1
 25 27  2  0
  1  4  1  0
  1 24  1  0
  1  2  1  1
  1  3  2  0
  6 11  1  0
  6 12  1  0
 29 36  1  0
 29 37  1  0
  9  7  1  1
  7 13  1  0
 10  8  1  1
  8 14  1  0
 37 28  1  1
  4  5  1  0
 33 30  1  1
 30 38  1  0
 34 31  1  1
 31 39  1  0
 35 32  1  6
 32 40  1  0
 41 42  1  0
 41 43  1  0
 15 19  2  0
 16 22  2  0
 12 17  1  6
 17 19  1  0
 17 20  1  0
 18 19  1  0
 18 22  1  0
 18 23  1  0
  9 10  1  0
  9 11  1  0
 10 12  1  0
 11  5  1  6
 33 34  1  0
 33 35  1  0
 34 36  1  0
 35 37  1  0
 36 42  1  1
 20 21  2  0
 21 22  1  0
M  CHG  2   2  -1  26  -1
M  END
>  <COMPND>  (143) 
    8629 

>  <AUTHOR>  (143) 
    GENERATED BY OPEN BABEL 3.1.1

>  <MASTER>  (143) 
        0    0    0    0    0    0    0    0   58    0   58    0

>  <minimizedAffinity>  (143) 
-7.58666

>  <CNNscore>  (143) 
0.9335413575

>  <CNNaffinity>  (143) 
4.7715768814

>  <CNN_VS>  (143) 
4.4544644356

>  <CNNaffinity_variance>  (143) 
0.0446287058

$$$$
144
     RDKit          3D

 43 45  0  0  0  0  0  0  0  0999 V2000
   20.5511   71.2572   -1.2898 P   0  0  2  0  0  0  0  0  0  0  0  0
   21.1173   70.5762    0.0641 O   0  0  0  0  0  0  0  0  0  0  0  0
   20.0329   72.6559   -1.1270 O   0  0  0  0  0  0  0  0  0  0  0  0
   19.4882   70.1753   -1.8535 O   0  0  0  0  0  0  0  0  0  0  0  0
   19.1577   70.2066   -3.2311 C   0  0  0  0  0  0  0  0  0  0  0  0
   17.5457   71.3466   -4.6007 O   0  0  0  0  0  0  0  0  0  0  0  0
   15.4595   69.7827   -3.1199 O   0  0  0  0  0  0  0  0  0  0  0  0
   15.6763   68.4110   -5.4668 O   0  0  0  0  0  0  0  0  0  0  0  0
   16.7681   69.3838   -3.5244 C   0  0  1  0  0  0  0  0  0  0  0  0
   16.8038   69.1347   -5.0178 C   0  0  2  0  0  0  0  0  0  0  0  0
   17.6911   70.5874   -3.3805 C   0  0  1  0  0  0  0  0  0  0  0  0
   16.8496   70.5486   -5.5720 C   0  0  2  0  0  0  0  0  0  0  0  0
   14.8522   69.0302   -3.2028 H   0  0  0  0  0  0  0  0  0  0  0  0
   15.6925   67.5186   -5.0871 H   0  0  0  0  0  0  0  0  0  0  0  0
   15.6118   70.3578   -8.1037 O   0  0  0  0  0  0  0  0  0  0  0  0
   19.6292   70.8489  -10.3084 O   0  0  0  0  0  0  0  0  0  0  0  0
   17.5481   70.6237   -6.8241 N   0  0  0  0  0  0  0  0  0  0  0  0
   17.6131   70.6027   -9.1994 N   0  0  0  0  0  0  0  0  0  0  0  0
   16.8327   70.5154   -8.0395 C   0  0  0  0  0  0  0  0  0  0  0  0
   18.9270   70.8031   -6.8388 C   0  0  0  0  0  0  0  0  0  0  0  0
   19.6567   70.8830   -7.9534 C   0  0  0  0  0  0  0  0  0  0  0  0
   18.9861   70.7794   -9.2655 C   0  0  0  0  0  0  0  0  0  0  0  0
   17.1363   70.5295  -10.0579 H   0  0  0  0  0  0  0  0  0  0  0  0
   21.7927   71.1148   -2.3150 O   0  0  0  0  0  0  0  0  0  0  0  0
   23.0896   72.0512   -2.5482 P   0  0  2  0  0  0  0  0  0  0  0  0
   24.1968   71.0170   -3.1155 O   0  0  0  0  0  0  0  0  0  0  0  0
   23.5229   72.8164   -1.3314 O   0  0  0  0  0  0  0  0  0  0  0  0
   22.7052   72.9729   -3.8162 O   0  0  0  0  0  0  0  0  0  0  0  0
   20.4035   73.1243   -4.3598 O   0  0  0  0  0  0  0  0  0  0  0  0
   22.0102   74.5235   -7.8969 O   0  0  0  0  0  0  0  0  0  0  0  0
   20.7130   76.3560   -6.1060 O   0  0  0  0  0  0  0  0  0  0  0  0
   23.2979   72.3479   -6.4870 O   0  0  0  0  0  0  0  0  0  0  0  0
   21.9413   74.3381   -6.4805 C   0  0  1  0  0  0  0  0  0  0  0  0
   20.6258   74.9392   -5.9816 C   0  0  1  0  0  0  0  0  0  0  0  0
   22.0020   72.8439   -6.1692 C   0  0  2  0  0  0  0  0  0  0  0  0
   20.3554   74.5466   -4.5229 C   0  0  1  0  0  0  0  0  0  0  0  0
   21.6697   72.5584   -4.7035 C   0  0  1  0  0  0  0  0  0  0  0  0
   21.9727   75.4703   -8.1014 H   0  0  0  0  0  0  0  0  0  0  0  0
   20.8844   76.5905   -7.0317 H   0  0  0  0  0  0  0  0  0  0  0  0
   23.4962   72.5345   -7.4174 H   0  0  0  0  0  0  0  0  0  0  0  0
   18.4228   73.9914   -3.2323 O   0  0  0  0  0  0  0  0  0  0  0  0
   18.9755   75.0029   -4.0542 C   0  0  0  0  0  0  0  0  0  0  0  0
   17.5444   74.2682   -2.9263 H   0  0  0  0  0  0  0  0  0  0  0  0
 25 28  1  0
 25 24  1  0
 25 26  1  6
 25 27  2  0
  1  4  1  0
  1 24  1  0
  1  2  1  1
  1  3  2  0
  6 11  1  0
  6 12  1  0
 29 36  1  0
 29 37  1  0
  9  7  1  6
  7 13  1  0
 10  8  1  6
  8 14  1  0
 37 28  1  1
  4  5  1  0
 33 30  1  6
 30 38  1  0
 34 31  1  1
 31 39  1  0
 35 32  1  1
 32 40  1  0
 41 42  1  0
 41 43  1  0
 15 19  2  0
 16 22  2  0
 12 17  1  6
 17 19  1  0
 17 20  1  0
 18 19  1  0
 18 22  1  0
 18 23  1  0
  9 10  1  0
  9 11  1  0
 10 12  1  0
 11  5  1  6
 33 34  1  0
 33 35  1  0
 34 36  1  0
 35 37  1  0
 36 42  1  6
 20 21  2  0
 21 22  1  0
M  CHG  2   2  -1  26  -1
M  END
>  <COMPND>  (144) 
    8629 

>  <AUTHOR>  (144) 
    GENERATED BY OPEN BABEL 3.1.1

>  <MASTER>  (144) 
        0    0    0    0    0    0    0    0   58    0   58    0

>  <minimizedAffinity>  (144) 
-7.76087

>  <CNNscore>  (144) 
0.8786390424

>  <CNNaffinity>  (144) 
4.5800886154

>  <CNN_VS>  (144) 
4.0242447853

>  <CNNaffinity_variance>  (144) 
0.6754319072

$$$$
145
     RDKit          3D

 43 45  0  0  0  0  0  0  0  0999 V2000
   21.3469   72.6237   -2.1296 P   0  0  2  0  0  0  0  0  0  0  0  0
   21.6399   71.0726   -2.4839 O   0  0  0  0  0  0  0  0  0  0  0  0
   21.8983   73.0882   -0.8136 O   0  0  0  0  0  0  0  0  0  0  0  0
   19.7456   72.7678   -2.3107 O   0  0  0  0  0  0  0  0  0  0  0  0
   19.2095   72.7535   -3.6223 C   0  0  0  0  0  0  0  0  0  0  0  0
   17.2616   72.2002   -4.9157 O   0  0  0  0  0  0  0  0  0  0  0  0
   16.4557   70.4596   -2.6110 O   0  0  0  0  0  0  0  0  0  0  0  0
   17.4778   68.6596   -4.3864 O   0  0  0  0  0  0  0  0  0  0  0  0
   17.7580   70.7226   -3.1307 C   0  0  1  0  0  0  0  0  0  0  0  0
   17.9607   69.9865   -4.4386 C   0  0  2  0  0  0  0  0  0  0  0  0
   17.8002   72.1792   -3.5757 C   0  0  1  0  0  0  0  0  0  0  0  0
   17.1818   70.8542   -5.4126 C   0  0  2  0  0  0  0  0  0  0  0  0
   16.4045   69.5351   -2.3200 H   0  0  0  0  0  0  0  0  0  0  0  0
   18.0055   68.1480   -3.7534 H   0  0  0  0  0  0  0  0  0  0  0  0
   15.7183   70.1375   -7.7196 O   0  0  0  0  0  0  0  0  0  0  0  0
   19.3817   70.7333  -10.4519 O   0  0  0  0  0  0  0  0  0  0  0  0
   17.7281   70.8139   -6.7397 N   0  0  0  0  0  0  0  0  0  0  0  0
   17.5436   70.4349   -9.0782 N   0  0  0  0  0  0  0  0  0  0  0  0
   16.9083   70.4398   -7.8299 C   0  0  0  0  0  0  0  0  0  0  0  0
   19.0627   71.1434   -6.9500 C   0  0  0  0  0  0  0  0  0  0  0  0
   19.6537   71.1325   -8.1466 C   0  0  0  0  0  0  0  0  0  0  0  0
   18.8672   70.7531   -9.3381 C   0  0  0  0  0  0  0  0  0  0  0  0
   16.9921   70.1771   -9.8523 H   0  0  0  0  0  0  0  0  0  0  0  0
   21.9302   73.4072   -3.4176 O   0  0  0  0  0  0  0  0  0  0  0  0
   22.9887   72.9481   -4.5497 P   0  0  2  0  0  0  0  0  0  0  0  0
   22.1201   71.9591   -5.4905 O   0  0  0  0  0  0  0  0  0  0  0  0
   24.2470   72.3373   -4.0043 O   0  0  0  0  0  0  0  0  0  0  0  0
   23.2214   74.2672   -5.4503 O   0  0  0  0  0  0  0  0  0  0  0  0
   21.7921   76.0648   -6.0352 O   0  0  0  0  0  0  0  0  0  0  0  0
   23.7407   75.5708   -9.6420 O   0  0  0  0  0  0  0  0  0  0  0  0
   24.3414   77.8542   -8.0069 O   0  0  0  0  0  0  0  0  0  0  0  0
   23.0219   73.2555   -8.0602 O   0  0  0  0  0  0  0  0  0  0  0  0
   23.6206   75.5832   -8.2170 C   0  0  1  0  0  0  0  0  0  0  0  0
   23.2267   76.9959   -7.7812 C   0  0  1  0  0  0  0  0  0  0  0  0
   22.5537   74.5739   -7.7972 C   0  0  2  0  0  0  0  0  0  0  0  0
   22.8200   77.0261   -6.3017 C   0  0  1  0  0  0  0  0  0  0  0  0
   22.1871   74.7213   -6.3193 C   0  0  1  0  0  0  0  0  0  0  0  0
   24.4170   76.2092   -9.9152 H   0  0  0  0  0  0  0  0  0  0  0  0
   24.5884   77.8256   -8.9447 H   0  0  0  0  0  0  0  0  0  0  0  0
   23.2503   73.1750   -8.9989 H   0  0  0  0  0  0  0  0  0  0  0  0
   23.3657   79.2646   -5.6692 O   0  0  0  0  0  0  0  0  0  0  0  0
   22.2736   78.3903   -5.8865 C   0  0  0  0  0  0  0  0  0  0  0  0
   23.0330   80.1370   -5.4046 H   0  0  0  0  0  0  0  0  0  0  0  0
 25 28  1  0
 25 24  1  0
 25 26  1  6
 25 27  2  0
  1  4  1  0
  1 24  1  0
  1  2  1  6
  1  3  2  0
  6 11  1  0
  6 12  1  0
 29 36  1  0
 29 37  1  0
  9  7  1  6
  7 13  1  0
 10  8  1  1
  8 14  1  0
 37 28  1  1
  4  5  1  0
 33 30  1  6
 30 38  1  0
 34 31  1  1
 31 39  1  0
 35 32  1  1
 32 40  1  0
 41 42  1  0
 41 43  1  0
 15 19  2  0
 16 22  2  0
 12 17  1  6
 17 19  1  0
 17 20  1  0
 18 19  1  0
 18 22  1  0
 18 23  1  0
  9 10  1  0
  9 11  1  0
 10 12  1  0
 11  5  1  6
 33 34  1  0
 33 35  1  0
 34 36  1  0
 35 37  1  0
 36 42  1  6
 20 21  2  0
 21 22  1  0
M  CHG  2   2  -1  26  -1
M  END
>  <COMPND>  (145) 
    8629 

>  <AUTHOR>  (145) 
    GENERATED BY OPEN BABEL 3.1.1

>  <MASTER>  (145) 
        0    0    0    0    0    0    0    0   58    0   58    0

>  <minimizedAffinity>  (145) 
-6.72680

>  <CNNscore>  (145) 
0.8622241020

>  <CNNaffinity>  (145) 
4.6693720818

>  <CNN_VS>  (145) 
4.0260453224

>  <CNNaffinity_variance>  (145) 
0.0756737068

$$$$
146
     RDKit          3D

 43 45  0  0  0  0  0  0  0  0999 V2000
   22.8596   72.1138   -3.8348 P   0  0  2  0  0  0  0  0  0  0  0  0
   23.5400   72.8694   -5.0932 O   0  0  0  0  0  0  0  0  0  0  0  0
   23.7437   71.1220   -3.1375 O   0  0  0  0  0  0  0  0  0  0  0  0
   21.4789   71.5228   -4.4367 O   0  0  0  0  0  0  0  0  0  0  0  0
   20.7801   70.5427   -3.6891 C   0  0  0  0  0  0  0  0  0  0  0  0
   18.8920   71.6600   -4.6692 O   0  0  0  0  0  0  0  0  0  0  0  0
   17.2598   70.4208   -2.4803 O   0  0  0  0  0  0  0  0  0  0  0  0
   16.7209   68.8059   -4.6107 O   0  0  0  0  0  0  0  0  0  0  0  0
   18.3743   69.8825   -3.1899 C   0  0  1  0  0  0  0  0  0  0  0  0
   17.9618   69.4816   -4.5909 C   0  0  2  0  0  0  0  0  0  0  0  0
   19.3524   71.0192   -3.4593 C   0  0  1  0  0  0  0  0  0  0  0  0
   17.9077   70.8243   -5.2997 C   0  0  2  0  0  0  0  0  0  0  0  0
   16.6214   69.7132   -2.2966 H   0  0  0  0  0  0  0  0  0  0  0  0
   16.8069   67.9580   -4.1476 H   0  0  0  0  0  0  0  0  0  0  0  0
   16.0497   70.0618   -7.2858 O   0  0  0  0  0  0  0  0  0  0  0  0
   19.1929   70.4486  -10.6342 O   0  0  0  0  0  0  0  0  0  0  0  0
   18.2135   70.7179   -6.6985 N   0  0  0  0  0  0  0  0  0  0  0  0
   17.6163   70.2552   -8.9514 N   0  0  0  0  0  0  0  0  0  0  0  0
   17.2085   70.3258   -7.6132 C   0  0  0  0  0  0  0  0  0  0  0  0
   19.4977   71.0010   -7.1506 C   0  0  0  0  0  0  0  0  0  0  0  0
   19.8708   70.9276   -8.4300 C   0  0  0  0  0  0  0  0  0  0  0  0
   18.8808   70.5255   -9.4499 C   0  0  0  0  0  0  0  0  0  0  0  0
   16.9330   69.9838   -9.6066 H   0  0  0  0  0  0  0  0  0  0  0  0
   22.3565   73.3368   -2.9051 O   0  0  0  0  0  0  0  0  0  0  0  0
   21.3608   74.5704   -3.2210 P   0  0  2  0  0  0  0  0  0  0  0  0
   20.9755   74.3473   -4.7764 O   0  0  0  0  0  0  0  0  0  0  0  0
   21.9385   75.9216   -2.9137 O   0  0  0  0  0  0  0  0  0  0  0  0
   20.0086   74.2213   -2.4119 O   0  0  0  0  0  0  0  0  0  0  0  0
   17.8604   75.0304   -3.0012 O   0  0  0  0  0  0  0  0  0  0  0  0
   17.2830   74.5194    1.0554 O   0  0  0  0  0  0  0  0  0  0  0  0
   16.0411   72.7059   -0.7930 O   0  0  0  0  0  0  0  0  0  0  0  0
   19.8174   75.5138    0.0716 O   0  0  0  0  0  0  0  0  0  0  0  0
   17.8170   74.2075   -0.2341 C   0  0  1  0  0  0  0  0  0  0  0  0
   16.6488   73.9341   -1.1836 C   0  0  1  0  0  0  0  0  0  0  0  0
   18.6474   75.3899   -0.7299 C   0  0  2  0  0  0  0  0  0  0  0  0
   17.1256   73.8550   -2.6401 C   0  0  1  0  0  0  0  0  0  0  0  0
   19.0281   75.2344   -2.2033 C   0  0  1  0  0  0  0  0  0  0  0  0
   16.7551   73.7725    1.3762 H   0  0  0  0  0  0  0  0  0  0  0  0
   15.7450   72.7690    0.1286 H   0  0  0  0  0  0  0  0  0  0  0  0
   19.5629   75.6119    1.0019 H   0  0  0  0  0  0  0  0  0  0  0  0
   14.7848   74.1991   -2.9735 O   0  0  0  0  0  0  0  0  0  0  0  0
   15.9587   73.7404   -3.6184 C   0  0  0  0  0  0  0  0  0  0  0  0
   14.0338   74.1322   -3.5844 H   0  0  0  0  0  0  0  0  0  0  0  0
 25 28  1  0
 25 24  1  0
 25 26  1  6
 25 27  2  0
  1  4  1  0
  1 24  1  0
  1  2  1  6
  1  3  2  0
  6 11  1  0
  6 12  1  0
 29 36  1  0
 29 37  1  0
  9  7  1  1
  7 13  1  0
 10  8  1  1
  8 14  1  0
 37 28  1  1
  4  5  1  0
 33 30  1  1
 30 38  1  0
 34 31  1  1
 31 39  1  0
 35 32  1  1
 32 40  1  0
 41 42  1  0
 41 43  1  0
 15 19  2  0
 16 22  2  0
 12 17  1  6
 17 19  1  0
 17 20  1  0
 18 19  1  0
 18 22  1  0
 18 23  1  0
  9 10  1  0
  9 11  1  0
 10 12  1  0
 11  5  1  6
 33 34  1  0
 33 35  1  0
 34 36  1  0
 35 37  1  0
 36 42  1  6
 20 21  2  0
 21 22  1  0
M  CHG  2   2  -1  26  -1
M  END
>  <COMPND>  (146) 
    8629 

>  <AUTHOR>  (146) 
    GENERATED BY OPEN BABEL 3.1.1

>  <MASTER>  (146) 
        0    0    0    0    0    0    0    0   58    0   58    0

>  <minimizedAffinity>  (146) 
-5.97718

>  <CNNscore>  (146) 
0.8599527478

>  <CNNaffinity>  (146) 
4.5145964622

>  <CNN_VS>  (146) 
3.8823397160

>  <CNNaffinity_variance>  (146) 
0.0675019920

$$$$
147
     RDKit          3D

 43 45  0  0  0  0  0  0  0  0999 V2000
   22.7716   72.2475   -4.0039 P   0  0  2  0  0  0  0  0  0  0  0  0
   23.3549   73.1090   -5.2429 O   0  0  0  0  0  0  0  0  0  0  0  0
   23.7701   71.3556   -3.3264 O   0  0  0  0  0  0  0  0  0  0  0  0
   21.4737   71.5061   -4.6233 O   0  0  0  0  0  0  0  0  0  0  0  0
   20.7876   70.5612   -3.8207 C   0  0  0  0  0  0  0  0  0  0  0  0
   18.9032   71.6685   -4.8191 O   0  0  0  0  0  0  0  0  0  0  0  0
   17.2638   70.4568   -2.6204 O   0  0  0  0  0  0  0  0  0  0  0  0
   16.7293   68.8173   -4.7330 O   0  0  0  0  0  0  0  0  0  0  0  0
   18.3797   69.9091   -3.3204 C   0  0  1  0  0  0  0  0  0  0  0  0
   17.9707   69.4921   -4.7177 C   0  0  2  0  0  0  0  0  0  0  0  0
   19.3597   71.0417   -3.6005 C   0  0  1  0  0  0  0  0  0  0  0  0
   17.9199   70.8263   -5.4425 C   0  0  2  0  0  0  0  0  0  0  0  0
   16.6242   69.7520   -2.4300 H   0  0  0  0  0  0  0  0  0  0  0  0
   16.8132   67.9749   -4.2597 H   0  0  0  0  0  0  0  0  0  0  0  0
   16.0767   70.0056   -7.4191 O   0  0  0  0  0  0  0  0  0  0  0  0
   19.2190   70.3883  -10.7689 O   0  0  0  0  0  0  0  0  0  0  0  0
   18.2294   70.7031   -6.8391 N   0  0  0  0  0  0  0  0  0  0  0  0
   17.6428   70.1970   -9.0855 N   0  0  0  0  0  0  0  0  0  0  0  0
   17.2319   70.2820   -7.7491 C   0  0  0  0  0  0  0  0  0  0  0  0
   19.5100   70.9986   -7.2938 C   0  0  0  0  0  0  0  0  0  0  0  0
   19.8861   70.9113   -8.5713 C   0  0  0  0  0  0  0  0  0  0  0  0
   18.9040   70.4786   -9.5863 C   0  0  0  0  0  0  0  0  0  0  0  0
   16.9648   69.9053   -9.7373 H   0  0  0  0  0  0  0  0  0  0  0  0
   22.1226   73.3784   -3.0486 O   0  0  0  0  0  0  0  0  0  0  0  0
   22.7978   74.3613   -1.9572 P   0  0  2  0  0  0  0  0  0  0  0  0
   22.0326   75.7660   -2.1992 O   0  0  0  0  0  0  0  0  0  0  0  0
   24.2938   74.4472   -2.0488 O   0  0  0  0  0  0  0  0  0  0  0  0
   22.2439   73.8350   -0.5355 O   0  0  0  0  0  0  0  0  0  0  0  0
   23.0223   71.6379   -0.1071 O   0  0  0  0  0  0  0  0  0  0  0  0
   20.3834   72.0292    3.0447 O   0  0  0  0  0  0  0  0  0  0  0  0
   23.2105   72.0866    3.5470 O   0  0  0  0  0  0  0  0  0  0  0  0
   19.7132   73.1345    0.4546 O   0  0  0  0  0  0  0  0  0  0  0  0
   21.3521   72.4779    2.0930 C   0  0  1  0  0  0  0  0  0  0  0  0
   22.6397   71.6796    2.3065 C   0  0  1  0  0  0  0  0  0  0  0  0
   20.8080   72.2538    0.6834 C   0  0  2  0  0  0  0  0  0  0  0  0
   23.6324   71.9123    1.1595 C   0  0  1  0  0  0  0  0  0  0  0  0
   21.8883   72.4637   -0.3791 C   0  0  1  0  0  0  0  0  0  0  0  0
   20.7226   72.1692    3.9419 H   0  0  0  0  0  0  0  0  0  0  0  0
   22.5735   71.9349    4.2627 H   0  0  0  0  0  0  0  0  0  0  0  0
   19.0361   72.9916    1.1335 H   0  0  0  0  0  0  0  0  0  0  0  0
   24.5520   69.9450    2.1559 O   0  0  0  0  0  0  0  0  0  0  0  0
   24.8569   71.0067    1.2704 C   0  0  0  0  0  0  0  0  0  0  0  0
   25.3223   69.3602    2.2360 H   0  0  0  0  0  0  0  0  0  0  0  0
 25 28  1  0
 25 24  1  0
 25 26  1  6
 25 27  2  0
  1  4  1  0
  1 24  1  0
  1  2  1  6
  1  3  2  0
  6 11  1  0
  6 12  1  0
 29 36  1  0
 29 37  1  0
  9  7  1  1
  7 13  1  0
 10  8  1  1
  8 14  1  0
 37 28  1  1
  4  5  1  0
 33 30  1  1
 30 38  1  0
 34 31  1  1
 31 39  1  0
 35 32  1  6
 32 40  1  0
 41 42  1  0
 41 43  1  0
 15 19  2  0
 16 22  2  0
 12 17  1  6
 17 19  1  0
 17 20  1  0
 18 19  1  0
 18 22  1  0
 18 23  1  0
  9 10  1  0
  9 11  1  0
 10 12  1  0
 11  5  1  6
 33 34  1  0
 33 35  1  0
 34 36  1  0
 35 37  1  0
 36 42  1  1
 20 21  2  0
 21 22  1  0
M  CHG  2   2  -1  26  -1
M  END
>  <COMPND>  (147) 
    8629 

>  <AUTHOR>  (147) 
    GENERATED BY OPEN BABEL 3.1.1

>  <MASTER>  (147) 
        0    0    0    0    0    0    0    0   58    0   58    0

>  <minimizedAffinity>  (147) 
-7.76159

>  <CNNscore>  (147) 
0.8575675488

>  <CNNaffinity>  (147) 
4.6591310501

>  <CNN_VS>  (147) 
3.9955196381

>  <CNNaffinity_variance>  (147) 
0.0589746311

$$$$
148
     RDKit          3D

 43 45  0  0  0  0  0  0  0  0999 V2000
   20.3138   73.3730   -2.6651 P   0  0  2  0  0  0  0  0  0  0  0  0
   20.6116   74.0578   -1.2300 O   0  0  0  0  0  0  0  0  0  0  0  0
   19.5498   74.2308   -3.6304 O   0  0  0  0  0  0  0  0  0  0  0  0
   19.6259   71.9586   -2.2853 O   0  0  0  0  0  0  0  0  0  0  0  0
   19.2050   71.1075   -3.3371 C   0  0  0  0  0  0  0  0  0  0  0  0
   17.4236   71.7652   -4.8095 O   0  0  0  0  0  0  0  0  0  0  0  0
   15.6229   70.1276   -3.0582 O   0  0  0  0  0  0  0  0  0  0  0  0
   16.0431   68.4767   -5.1877 O   0  0  0  0  0  0  0  0  0  0  0  0
   16.9762   69.8845   -3.4388 C   0  0  1  0  0  0  0  0  0  0  0  0
   17.0428   69.4271   -4.8810 C   0  0  2  0  0  0  0  0  0  0  0  0
   17.6955   71.2264   -3.4972 C   0  0  1  0  0  0  0  0  0  0  0  0
   16.8586   70.7333   -5.6347 C   0  0  2  0  0  0  0  0  0  0  0  0
   15.1434   69.2850   -3.0139 H   0  0  0  0  0  0  0  0  0  0  0  0
   16.2040   67.6638   -4.6837 H   0  0  0  0  0  0  0  0  0  0  0  0
   15.5708   70.3477   -8.1188 O   0  0  0  0  0  0  0  0  0  0  0  0
   19.5314   70.7478  -10.4415 O   0  0  0  0  0  0  0  0  0  0  0  0
   17.5290   70.7323   -6.9043 N   0  0  0  0  0  0  0  0  0  0  0  0
   17.5439   70.5474   -9.2733 N   0  0  0  0  0  0  0  0  0  0  0  0
   16.7899   70.5286   -8.0929 C   0  0  0  0  0  0  0  0  0  0  0  0
   18.9040   70.9320   -6.9622 C   0  0  0  0  0  0  0  0  0  0  0  0
   19.6083   70.9458   -8.0957 C   0  0  0  0  0  0  0  0  0  0  0  0
   18.9119   70.7407   -9.3822 C   0  0  0  0  0  0  0  0  0  0  0  0
   17.0503   70.4073  -10.1138 H   0  0  0  0  0  0  0  0  0  0  0  0
   21.7855   72.9367   -3.1720 O   0  0  0  0  0  0  0  0  0  0  0  0
   22.8085   71.8134   -2.6202 P   0  0  2  0  0  0  0  0  0  0  0  0
   24.2242   72.2492   -3.2707 O   0  0  0  0  0  0  0  0  0  0  0  0
   22.3955   70.4024   -2.9242 O   0  0  0  0  0  0  0  0  0  0  0  0
   22.9647   72.1404   -1.0474 O   0  0  0  0  0  0  0  0  0  0  0  0
   24.2647   71.1226    0.6528 O   0  0  0  0  0  0  0  0  0  0  0  0
   20.8326   71.8904    2.8167 O   0  0  0  0  0  0  0  0  0  0  0  0
   23.1918   73.4562    3.2971 O   0  0  0  0  0  0  0  0  0  0  0  0
   20.6390   71.0274    0.0604 O   0  0  0  0  0  0  0  0  0  0  0  0
   21.8338   72.1454    1.8278 C   0  0  1  0  0  0  0  0  0  0  0  0
   23.1874   72.2537    2.5326 C   0  0  1  0  0  0  0  0  0  0  0  0
   21.8430   70.9982    0.8193 C   0  0  2  0  0  0  0  0  0  0  0  0
   24.3404   72.2603    1.5199 C   0  0  1  0  0  0  0  0  0  0  0  0
   23.0567   71.0718   -0.1089 C   0  0  1  0  0  0  0  0  0  0  0  0
   20.8212   72.6154    3.4599 H   0  0  0  0  0  0  0  0  0  0  0  0
   22.4587   73.4395    3.9324 H   0  0  0  0  0  0  0  0  0  0  0  0
   19.8781   70.9799    0.6594 H   0  0  0  0  0  0  0  0  0  0  0  0
   26.0481   70.8523    2.4201 O   0  0  0  0  0  0  0  0  0  0  0  0
   25.7041   72.2087    2.2053 C   0  0  0  0  0  0  0  0  0  0  0  0
   26.9140   70.8041    2.8555 H   0  0  0  0  0  0  0  0  0  0  0  0
 25 28  1  0
 25 24  1  0
 25 26  1  6
 25 27  2  0
  1  4  1  0
  1 24  1  0
  1  2  1  1
  1  3  2  0
  6 11  1  0
  6 12  1  0
 29 36  1  0
 29 37  1  0
  9  7  1  6
  7 13  1  0
 10  8  1  6
  8 14  1  0
 37 28  1  1
  4  5  1  0
 33 30  1  1
 30 38  1  0
 34 31  1  6
 31 39  1  0
 35 32  1  6
 32 40  1  0
 41 42  1  0
 41 43  1  0
 15 19  2  0
 16 22  2  0
 12 17  1  6
 17 19  1  0
 17 20  1  0
 18 19  1  0
 18 22  1  0
 18 23  1  0
  9 10  1  0
  9 11  1  0
 10 12  1  0
 11  5  1  6
 33 34  1  0
 33 35  1  0
 34 36  1  0
 35 37  1  0
 36 42  1  1
 20 21  2  0
 21 22  1  0
M  CHG  2   2  -1  26  -1
M  END
>  <COMPND>  (148) 
    8629 

>  <AUTHOR>  (148) 
    GENERATED BY OPEN BABEL 3.1.1

>  <MASTER>  (148) 
        0    0    0    0    0    0    0    0   58    0   58    0

>  <minimizedAffinity>  (148) 
-7.38351

>  <CNNscore>  (148) 
0.8460942507

>  <CNNaffinity>  (148) 
4.7183237076

>  <CNN_VS>  (148) 
3.9921464920

>  <CNNaffinity_variance>  (148) 
0.0711153820

$$$$
149
     RDKit          3D

 43 45  0  0  0  0  0  0  0  0999 V2000
   20.6245   71.3463   -1.2352 P   0  0  2  0  0  0  0  0  0  0  0  0
   21.0440   70.7700    0.2171 O   0  0  0  0  0  0  0  0  0  0  0  0
   20.0594   72.7363   -1.2265 O   0  0  0  0  0  0  0  0  0  0  0  0
   19.6595   70.1993   -1.8443 O   0  0  0  0  0  0  0  0  0  0  0  0
   19.2980   70.2761   -3.2123 C   0  0  0  0  0  0  0  0  0  0  0  0
   17.6060   71.3649   -4.5258 O   0  0  0  0  0  0  0  0  0  0  0  0
   15.6224   69.7191   -2.9937 O   0  0  0  0  0  0  0  0  0  0  0  0
   15.8175   68.3687   -5.3549 O   0  0  0  0  0  0  0  0  0  0  0  0
   16.9317   69.3696   -3.4396 C   0  0  1  0  0  0  0  0  0  0  0  0
   16.9314   69.1301   -4.9350 C   0  0  2  0  0  0  0  0  0  0  0  0
   17.8150   70.6048   -3.3155 C   0  0  1  0  0  0  0  0  0  0  0  0
   16.9100   70.5477   -5.4811 C   0  0  2  0  0  0  0  0  0  0  0  0
   15.0401   68.9457   -3.0634 H   0  0  0  0  0  0  0  0  0  0  0  0
   15.8770   67.4755   -4.9816 H   0  0  0  0  0  0  0  0  0  0  0  0
   15.6361   70.1662   -7.9730 O   0  0  0  0  0  0  0  0  0  0  0  0
   19.5321   70.9817  -10.2962 O   0  0  0  0  0  0  0  0  0  0  0  0
   17.5675   70.6546   -6.7530 N   0  0  0  0  0  0  0  0  0  0  0  0
   17.5770   70.5728   -9.1278 N   0  0  0  0  0  0  0  0  0  0  0  0
   16.8370   70.4432   -7.9456 C   0  0  0  0  0  0  0  0  0  0  0  0
   18.9216   70.9663   -6.8091 C   0  0  0  0  0  0  0  0  0  0  0  0
   19.6129   71.0850   -7.9446 C   0  0  0  0  0  0  0  0  0  0  0  0
   18.9242   70.8797   -9.2352 C   0  0  0  0  0  0  0  0  0  0  0  0
   17.0891   70.4295   -9.9711 H   0  0  0  0  0  0  0  0  0  0  0  0
   21.9804   71.1768   -2.0989 O   0  0  0  0  0  0  0  0  0  0  0  0
   23.0253   72.2746   -2.6608 P   0  0  2  0  0  0  0  0  0  0  0  0
   24.2118   71.3708   -3.2876 O   0  0  0  0  0  0  0  0  0  0  0  0
   23.4819   73.2711   -1.6350 O   0  0  0  0  0  0  0  0  0  0  0  0
   22.2872   72.9232   -3.9413 O   0  0  0  0  0  0  0  0  0  0  0  0
   22.7262   75.2170   -4.3443 O   0  0  0  0  0  0  0  0  0  0  0  0
   19.3841   74.7565   -6.7253 O   0  0  0  0  0  0  0  0  0  0  0  0
   21.9668   75.0458   -7.9475 O   0  0  0  0  0  0  0  0  0  0  0  0
   19.5324   73.4074   -4.1684 O   0  0  0  0  0  0  0  0  0  0  0  0
   20.6079   74.3524   -6.1053 C   0  0  1  0  0  0  0  0  0  0  0  0
   21.7158   75.3006   -6.5682 C   0  0  1  0  0  0  0  0  0  0  0  0
   20.4440   74.4171   -4.5880 C   0  0  2  0  0  0  0  0  0  0  0  0
   22.9961   75.0999   -5.7461 C   0  0  1  0  0  0  0  0  0  0  0  0
   21.7837   74.2545   -3.8677 C   0  0  1  0  0  0  0  0  0  0  0  0
   19.4812   74.7172   -7.6889 H   0  0  0  0  0  0  0  0  0  0  0  0
   21.1504   75.1756   -8.4553 H   0  0  0  0  0  0  0  0  0  0  0  0
   18.6882   73.5215   -4.6312 H   0  0  0  0  0  0  0  0  0  0  0  0
   24.7368   75.7276   -7.2577 O   0  0  0  0  0  0  0  0  0  0  0  0
   24.0616   76.1404   -6.0838 C   0  0  0  0  0  0  0  0  0  0  0  0
   25.4178   76.3806   -7.4848 H   0  0  0  0  0  0  0  0  0  0  0  0
 25 28  1  0
 25 24  1  0
 25 26  1  6
 25 27  2  0
  1  4  1  0
  1 24  1  0
  1  2  1  1
  1  3  2  0
  6 11  1  0
  6 12  1  0
 29 36  1  0
 29 37  1  0
  9  7  1  6
  7 13  1  0
 10  8  1  1
  8 14  1  0
 37 28  1  6
  4  5  1  0
 33 30  1  6
 30 38  1  0
 34 31  1  6
 31 39  1  0
 35 32  1  1
 32 40  1  0
 41 42  1  0
 41 43  1  0
 15 19  2  0
 16 22  2  0
 12 17  1  6
 17 19  1  0
 17 20  1  0
 18 19  1  0
 18 22  1  0
 18 23  1  0
  9 10  1  0
  9 11  1  0
 10 12  1  0
 11  5  1  6
 33 34  1  0
 33 35  1  0
 34 36  1  0
 35 37  1  0
 36 42  1  6
 20 21  2  0
 21 22  1  0
M  CHG  2   2  -1  26  -1
M  END
>  <COMPND>  (149) 
    8629 

>  <AUTHOR>  (149) 
    GENERATED BY OPEN BABEL 3.1.1

>  <MASTER>  (149) 
        0    0    0    0    0    0    0    0   58    0   58    0

>  <minimizedAffinity>  (149) 
-7.43115

>  <CNNscore>  (149) 
0.8102145791

>  <CNNaffinity>  (149) 
4.5289878845

>  <CNN_VS>  (149) 
3.6694519520

>  <CNNaffinity_variance>  (149) 
0.5534224510

$$$$
150
     RDKit          3D

 43 45  0  0  0  0  0  0  0  0999 V2000
   20.9977   72.0442   -4.7454 P   0  0  2  0  0  0  0  0  0  0  0  0
   20.2875   72.9768   -5.8604 O   0  0  0  0  0  0  0  0  0  0  0  0
   21.5100   70.7283   -5.2527 O   0  0  0  0  0  0  0  0  0  0  0  0
   19.9048   71.9611   -3.5552 O   0  0  0  0  0  0  0  0  0  0  0  0
   19.2542   70.7245   -3.3200 C   0  0  0  0  0  0  0  0  0  0  0  0
   17.4702   71.6247   -4.6545 O   0  0  0  0  0  0  0  0  0  0  0  0
   15.6368   69.8843   -3.0419 O   0  0  0  0  0  0  0  0  0  0  0  0
   15.9214   68.4664   -5.3538 O   0  0  0  0  0  0  0  0  0  0  0  0
   16.9664   69.6240   -3.4886 C   0  0  1  0  0  0  0  0  0  0  0  0
   16.9738   69.3294   -4.9741 C   0  0  2  0  0  0  0  0  0  0  0  0
   17.7488   70.9296   -3.4193 C   0  0  1  0  0  0  0  0  0  0  0  0
   16.8346   70.7193   -5.5716 C   0  0  2  0  0  0  0  0  0  0  0  0
   15.1179   69.0648   -3.0768 H   0  0  0  0  0  0  0  0  0  0  0  0
   16.0552   67.5953   -4.9487 H   0  0  0  0  0  0  0  0  0  0  0  0
   15.9908   72.4637   -7.6266 O   0  0  0  0  0  0  0  0  0  0  0  0
   19.3534   71.0608  -10.4490 O   0  0  0  0  0  0  0  0  0  0  0  0
   17.4715   70.8307   -6.8535 N   0  0  0  0  0  0  0  0  0  0  0  0
   17.6659   71.7639   -9.0302 N   0  0  0  0  0  0  0  0  0  0  0  0
   16.9683   71.7369   -7.8158 C   0  0  0  0  0  0  0  0  0  0  0  0
   18.5825   70.0470   -7.1458 C   0  0  0  0  0  0  0  0  0  0  0  0
   19.2356   70.0837   -8.3091 C   0  0  0  0  0  0  0  0  0  0  0  0
   18.7743   71.0038   -9.3686 C   0  0  0  0  0  0  0  0  0  0  0  0
   17.3331   72.3875   -9.7158 H   0  0  0  0  0  0  0  0  0  0  0  0
   22.1332   73.0156   -4.1288 O   0  0  0  0  0  0  0  0  0  0  0  0
   23.5316   72.6792   -3.3912 P   0  0  2  0  0  0  0  0  0  0  0  0
   24.5967   73.6151   -4.1705 O   0  0  0  0  0  0  0  0  0  0  0  0
   23.8841   71.2200   -3.3764 O   0  0  0  0  0  0  0  0  0  0  0  0
   23.3938   73.3489   -1.9292 O   0  0  0  0  0  0  0  0  0  0  0  0
   21.5838   72.6491   -0.5687 O   0  0  0  0  0  0  0  0  0  0  0  0
   22.5400   76.1700    1.3651 O   0  0  0  0  0  0  0  0  0  0  0  0
   23.1751   73.6563    2.6002 O   0  0  0  0  0  0  0  0  0  0  0  0
   22.6665   76.0287   -1.5234 O   0  0  0  0  0  0  0  0  0  0  0  0
   22.8087   74.9699    0.6352 C   0  0  1  0  0  0  0  0  0  0  0  0
   22.3199   73.7828    1.4676 C   0  0  1  0  0  0  0  0  0  0  0  0
   22.0762   75.0254   -0.7040 C   0  0  2  0  0  0  0  0  0  0  0  0
   22.3287   72.4878    0.6441 C   0  0  1  0  0  0  0  0  0  0  0  0
   22.1031   73.6734   -1.4191 C   0  0  1  0  0  0  0  0  0  0  0  0
   23.0026   76.1414    2.2164 H   0  0  0  0  0  0  0  0  0  0  0  0
   23.1609   74.4808    3.1113 H   0  0  0  0  0  0  0  0  0  0  0  0
   22.6430   76.8798   -1.0597 H   0  0  0  0  0  0  0  0  0  0  0  0
   20.8475   71.8481    2.4064 O   0  0  0  0  0  0  0  0  0  0  0  0
   21.6977   71.3229    1.4036 C   0  0  0  0  0  0  0  0  0  0  0  0
   20.4386   71.1179    2.8977 H   0  0  0  0  0  0  0  0  0  0  0  0
 25 28  1  0
 25 24  1  0
 25 26  1  6
 25 27  2  0
  1  4  1  0
  1 24  1  0
  1  2  1  6
  1  3  2  0
  6 11  1  0
  6 12  1  0
 29 36  1  0
 29 37  1  0
  9  7  1  6
  7 13  1  0
 10  8  1  1
  8 14  1  0
 37 28  1  1
  4  5  1  0
 33 30  1  1
 30 38  1  0
 34 31  1  1
 31 39  1  0
 35 32  1  6
 32 40  1  0
 41 42  1  0
 41 43  1  0
 15 19  2  0
 16 22  2  0
 12 17  1  6
 17 19  1  0
 17 20  1  0
 18 19  1  0
 18 22  1  0
 18 23  1  0
  9 10  1  0
  9 11  1  0
 10 12  1  0
 11  5  1  6
 33 34  1  0
 33 35  1  0
 34 36  1  0
 35 37  1  0
 36 42  1  1
 20 21  2  0
 21 22  1  0
M  CHG  2   2  -1  26  -1
M  END
>  <COMPND>  (150) 
    8629 

>  <AUTHOR>  (150) 
    GENERATED BY OPEN BABEL 3.1.1

>  <MASTER>  (150) 
        0    0    0    0    0    0    0    0   58    0   58    0

>  <minimizedAffinity>  (150) 
-6.39979

>  <CNNscore>  (150) 
0.7977285981

>  <CNNaffinity>  (150) 
4.5599017143

>  <CNN_VS>  (150) 
3.6375639439

>  <CNNaffinity_variance>  (150) 
0.0359134749

$$$$
151
     RDKit          3D

 43 45  0  0  0  0  0  0  0  0999 V2000
   21.8791   72.5709   -5.5532 P   0  0  2  0  0  0  0  0  0  0  0  0
   21.2708   74.0471   -5.2918 O   0  0  0  0  0  0  0  0  0  0  0  0
   23.1393   72.5397   -6.3671 O   0  0  0  0  0  0  0  0  0  0  0  0
   20.6309   71.7380   -6.1584 O   0  0  0  0  0  0  0  0  0  0  0  0
   20.1876   72.0417   -7.4695 C   0  0  0  0  0  0  0  0  0  0  0  0
   18.9846   70.0167   -6.9945 O   0  0  0  0  0  0  0  0  0  0  0  0
   18.1976   70.0268   -9.8879 O   0  0  0  0  0  0  0  0  0  0  0  0
   15.9644   70.9987   -8.6611 O   0  0  0  0  0  0  0  0  0  0  0  0
   18.3692   71.1268   -8.9957 C   0  0  1  0  0  0  0  0  0  0  0  0
   17.2095   71.2020   -8.0246 C   0  0  2  0  0  0  0  0  0  0  0  0
   19.5371   70.8040   -8.0721 C   0  0  1  0  0  0  0  0  0  0  0  0
   17.5505   70.0961   -7.0404 C   0  0  2  0  0  0  0  0  0  0  0  0
   17.4572   70.2100  -10.4881 H   0  0  0  0  0  0  0  0  0  0  0  0
   15.7930   71.7282   -9.2768 H   0  0  0  0  0  0  0  0  0  0  0  0
   16.3437   68.1704   -5.3631 O   0  0  0  0  0  0  0  0  0  0  0  0
   15.6894   71.2471   -1.9945 O   0  0  0  0  0  0  0  0  0  0  0  0
   17.0560   70.3664   -5.7199 N   0  0  0  0  0  0  0  0  0  0  0  0
   16.0191   69.7039   -3.6871 N   0  0  0  0  0  0  0  0  0  0  0  0
   16.4663   69.3291   -4.9605 C   0  0  0  0  0  0  0  0  0  0  0  0
   17.1586   71.6482   -5.1904 C   0  0  0  0  0  0  0  0  0  0  0  0
   16.7260   71.9896   -3.9749 C   0  0  0  0  0  0  0  0  0  0  0  0
   16.0973   70.9646   -3.1169 C   0  0  0  0  0  0  0  0  0  0  0  0
   15.6044   68.9977   -3.1401 H   0  0  0  0  0  0  0  0  0  0  0  0
   22.0275   71.9694   -4.0601 O   0  0  0  0  0  0  0  0  0  0  0  0
   23.2337   72.0729   -2.9890 P   0  0  2  0  0  0  0  0  0  0  0  0
   23.8573   73.5385   -3.2730 O   0  0  0  0  0  0  0  0  0  0  0  0
   24.2274   70.9506   -3.0709 O   0  0  0  0  0  0  0  0  0  0  0  0
   22.4990   72.2127   -1.5587 O   0  0  0  0  0  0  0  0  0  0  0  0
   24.0556   72.0462    0.2206 O   0  0  0  0  0  0  0  0  0  0  0  0
   20.5496   71.9533    2.4002 O   0  0  0  0  0  0  0  0  0  0  0  0
   22.1978   74.3044    2.4652 O   0  0  0  0  0  0  0  0  0  0  0  0
   20.7043   70.5831   -0.1450 O   0  0  0  0  0  0  0  0  0  0  0  0
   21.4071   72.3543    1.3281 C   0  0  1  0  0  0  0  0  0  0  0  0
   22.6272   73.0569    1.9270 C   0  0  1  0  0  0  0  0  0  0  0  0
   21.8324   71.1171    0.5396 C   0  0  2  0  0  0  0  0  0  0  0  0
   23.7147   73.2781    0.8671 C   0  0  1  0  0  0  0  0  0  0  0  0
   22.9521   71.4368   -0.4524 C   0  0  1  0  0  0  0  0  0  0  0  0
   20.2756   72.7344    2.9045 H   0  0  0  0  0  0  0  0  0  0  0  0
   21.5108   74.1506    3.1328 H   0  0  0  0  0  0  0  0  0  0  0  0
   20.0027   70.3846    0.4938 H   0  0  0  0  0  0  0  0  0  0  0  0
   25.0245   73.5078    2.8522 O   0  0  0  0  0  0  0  0  0  0  0  0
   25.0009   73.8338    1.4747 C   0  0  0  0  0  0  0  0  0  0  0  0
   25.8377   73.8550    3.2520 H   0  0  0  0  0  0  0  0  0  0  0  0
 25 28  1  0
 25 24  1  0
 25 26  1  6
 25 27  2  0
  1  4  1  0
  1 24  1  0
  1  2  1  1
  1  3  2  0
  6 11  1  0
  6 12  1  0
 29 36  1  0
 29 37  1  0
  9  7  1  6
  7 13  1  0
 10  8  1  6
  8 14  1  0
 37 28  1  6
  4  5  1  0
 33 30  1  1
 30 38  1  0
 34 31  1  6
 31 39  1  0
 35 32  1  6
 32 40  1  0
 41 42  1  0
 41 43  1  0
 15 19  2  0
 16 22  2  0
 12 17  1  1
 17 19  1  0
 17 20  1  0
 18 19  1  0
 18 22  1  0
 18 23  1  0
  9 10  1  0
  9 11  1  0
 10 12  1  0
 11  5  1  1
 33 34  1  0
 33 35  1  0
 34 36  1  0
 35 37  1  0
 36 42  1  1
 20 21  2  0
 21 22  1  0
M  CHG  2   2  -1  26  -1
M  END
>  <COMPND>  (151) 
    8629 

>  <AUTHOR>  (151) 
    GENERATED BY OPEN BABEL 3.1.1

>  <MASTER>  (151) 
        0    0    0    0    0    0    0    0   58    0   58    0

>  <minimizedAffinity>  (151) 
-7.96240

>  <CNNscore>  (151) 
0.7937424779

>  <CNNaffinity>  (151) 
4.5690793991

>  <CNN_VS>  (151) 
3.6266725063

>  <CNNaffinity_variance>  (151) 
0.1526850760

$$$$
152
     RDKit          3D

 43 45  0  0  0  0  0  0  0  0999 V2000
   21.2739   71.3823   -0.2517 P   0  0  2  0  0  0  0  0  0  0  0  0
   21.0565   72.9827   -0.1566 O   0  0  0  0  0  0  0  0  0  0  0  0
   20.0933   70.6118   -0.7655 O   0  0  0  0  0  0  0  0  0  0  0  0
   21.7918   70.9722    1.2253 O   0  0  0  0  0  0  0  0  0  0  0  0
   23.1872   70.9500    1.4705 C   0  0  0  0  0  0  0  0  0  0  0  0
   24.5504   72.4014    2.8155 O   0  0  0  0  0  0  0  0  0  0  0  0
   22.3929   72.1987    4.8879 O   0  0  0  0  0  0  0  0  0  0  0  0
   21.8933   74.6237    3.7450 O   0  0  0  0  0  0  0  0  0  0  0  0
   22.2776   72.2391    3.4665 C   0  0  1  0  0  0  0  0  0  0  0  0
   22.5361   73.6419    2.9577 C   0  0  2  0  0  0  0  0  0  0  0  0
   23.4514   71.4661    2.8783 C   0  0  1  0  0  0  0  0  0  0  0  0
   24.0508   73.7308    3.0343 C   0  0  2  0  0  0  0  0  0  0  0  0
   21.6538   72.6856    5.2861 H   0  0  0  0  0  0  0  0  0  0  0  0
   20.9318   74.5256    3.6628 H   0  0  0  0  0  0  0  0  0  0  0  0
   26.0701   75.6439    3.5248 O   0  0  0  0  0  0  0  0  0  0  0  0
   26.0774   77.0320   -0.8700 O   0  0  0  0  0  0  0  0  0  0  0  0
   24.5993   74.6052    2.0364 N   0  0  0  0  0  0  0  0  0  0  0  0
   26.0722   76.3334    1.3361 N   0  0  0  0  0  0  0  0  0  0  0  0
   25.6096   75.5310    2.3868 C   0  0  0  0  0  0  0  0  0  0  0  0
   24.1357   74.5395    0.7270 C   0  0  0  0  0  0  0  0  0  0  0  0
   24.5864   75.3126   -0.2632 C   0  0  0  0  0  0  0  0  0  0  0  0
   25.6423   76.3064    0.0188 C   0  0  0  0  0  0  0  0  0  0  0  0
   26.7759   76.9860    1.5567 H   0  0  0  0  0  0  0  0  0  0  0  0
   22.6083   71.2498   -1.1544 O   0  0  0  0  0  0  0  0  0  0  0  0
   22.9709   71.8561   -2.6083 P   0  0  2  0  0  0  0  0  0  0  0  0
   24.2782   71.0102   -3.0475 O   0  0  0  0  0  0  0  0  0  0  0  0
   23.1628   73.3450   -2.6236 O   0  0  0  0  0  0  0  0  0  0  0  0
   21.7958   71.3231   -3.5779 O   0  0  0  0  0  0  0  0  0  0  0  0
   21.4171   72.9333   -5.2750 O   0  0  0  0  0  0  0  0  0  0  0  0
   18.3583   70.3058   -6.1641 O   0  0  0  0  0  0  0  0  0  0  0  0
   20.6504   70.4493   -7.8886 O   0  0  0  0  0  0  0  0  0  0  0  0
   19.0347   70.8535   -3.4033 O   0  0  0  0  0  0  0  0  0  0  0  0
   19.6651   70.6824   -5.7216 C   0  0  1  0  0  0  0  0  0  0  0  0
   20.3704   71.4060   -6.8704 C   0  0  1  0  0  0  0  0  0  0  0  0
   19.5358   71.5998   -4.5071 C   0  0  2  0  0  0  0  0  0  0  0  0
   21.6675   72.0724   -6.3921 C   0  0  1  0  0  0  0  0  0  0  0  0
   20.8727   72.2492   -4.1448 C   0  0  1  0  0  0  0  0  0  0  0  0
   18.4334   69.7228   -6.9348 H   0  0  0  0  0  0  0  0  0  0  0  0
   19.8232   70.0356   -8.1814 H   0  0  0  0  0  0  0  0  0  0  0  0
   18.1881   70.4477   -3.6451 H   0  0  0  0  0  0  0  0  0  0  0  0
   21.5993   74.1550   -7.5613 O   0  0  0  0  0  0  0  0  0  0  0  0
   22.3054   72.9304   -7.4824 C   0  0  0  0  0  0  0  0  0  0  0  0
   21.9945   74.7115   -8.2511 H   0  0  0  0  0  0  0  0  0  0  0  0
 25 28  1  0
 25 24  1  0
 25 26  1  6
 25 27  2  0
  1  4  1  0
  1 24  1  0
  1  2  1  1
  1  3  2  0
  6 11  1  0
  6 12  1  0
 29 36  1  0
 29 37  1  0
  9  7  1  1
  7 13  1  0
 10  8  1  1
  8 14  1  0
 37 28  1  6
  4  5  1  0
 33 30  1  6
 30 38  1  0
 34 31  1  6
 31 39  1  0
 35 32  1  1
 32 40  1  0
 41 42  1  0
 41 43  1  0
 15 19  2  0
 16 22  2  0
 12 17  1  6
 17 19  1  0
 17 20  1  0
 18 19  1  0
 18 22  1  0
 18 23  1  0
  9 10  1  0
  9 11  1  0
 10 12  1  0
 11  5  1  6
 33 34  1  0
 33 35  1  0
 34 36  1  0
 35 37  1  0
 36 42  1  6
 20 21  2  0
 21 22  1  0
M  CHG  2   2  -1  26  -1
M  END
>  <COMPND>  (152) 
    8629 

>  <AUTHOR>  (152) 
    GENERATED BY OPEN BABEL 3.1.1

>  <MASTER>  (152) 
        0    0    0    0    0    0    0    0   58    0   58    0

>  <minimizedAffinity>  (152) 
-6.29471

>  <CNNscore>  (152) 
0.7552865744

>  <CNNaffinity>  (152) 
4.0984354019

>  <CNN_VS>  (152) 
3.0954933167

>  <CNNaffinity_variance>  (152) 
0.1772082150

$$$$
153
     RDKit          3D

 43 45  0  0  0  0  0  0  0  0999 V2000
   23.4803   72.0217   -3.3717 P   0  0  2  0  0  0  0  0  0  0  0  0
   24.2105   73.0550   -4.3800 O   0  0  0  0  0  0  0  0  0  0  0  0
   24.3607   70.9324   -2.8334 O   0  0  0  0  0  0  0  0  0  0  0  0
   22.1779   71.5296   -4.1961 O   0  0  0  0  0  0  0  0  0  0  0  0
   21.5989   72.4162   -5.1377 C   0  0  0  0  0  0  0  0  0  0  0  0
   20.5468   70.4778   -6.0913 O   0  0  0  0  0  0  0  0  0  0  0  0
   20.7050   71.9152   -8.7180 O   0  0  0  0  0  0  0  0  0  0  0  0
   18.1053   72.2959   -7.9878 O   0  0  0  0  0  0  0  0  0  0  0  0
   20.4635   72.4420   -7.4144 C   0  0  1  0  0  0  0  0  0  0  0  0
   19.0583   72.1033   -6.9624 C   0  0  2  0  0  0  0  0  0  0  0  0
   21.3142   71.6550   -6.4252 C   0  0  1  0  0  0  0  0  0  0  0  0
   19.1992   70.6447   -6.5616 C   0  0  2  0  0  0  0  0  0  0  0  0
   20.1728   72.4024   -9.3671 H   0  0  0  0  0  0  0  0  0  0  0  0
   18.0523   73.2392   -8.2072 H   0  0  0  0  0  0  0  0  0  0  0  0
   16.5776   69.6842   -6.9884 O   0  0  0  0  0  0  0  0  0  0  0  0
   15.8015   69.2564   -2.4655 O   0  0  0  0  0  0  0  0  0  0  0  0
   18.2904   70.2744   -5.5136 N   0  0  0  0  0  0  0  0  0  0  0  0
   16.1933   69.4718   -4.7360 N   0  0  0  0  0  0  0  0  0  0  0  0
   16.9956   69.8045   -5.8349 C   0  0  0  0  0  0  0  0  0  0  0  0
   18.6859   70.3784   -4.1845 C   0  0  0  0  0  0  0  0  0  0  0  0
   17.9084   70.0582   -3.1480 C   0  0  0  0  0  0  0  0  0  0  0  0
   16.5406   69.5590   -3.3972 C   0  0  0  0  0  0  0  0  0  0  0  0
   15.2870   69.1425   -4.9356 H   0  0  0  0  0  0  0  0  0  0  0  0
   22.8509   72.9961   -2.2459 O   0  0  0  0  0  0  0  0  0  0  0  0
   21.6509   72.7605   -1.1887 P   0  0  2  0  0  0  0  0  0  0  0  0
   21.3604   71.1732   -1.3048 O   0  0  0  0  0  0  0  0  0  0  0  0
   20.4481   73.6287   -1.4196 O   0  0  0  0  0  0  0  0  0  0  0  0
   22.3402   72.9440    0.2591 O   0  0  0  0  0  0  0  0  0  0  0  0
   23.9018   71.5521    1.3731 O   0  0  0  0  0  0  0  0  0  0  0  0
   21.7256   72.8449    4.6355 O   0  0  0  0  0  0  0  0  0  0  0  0
   24.3841   73.8475    4.2169 O   0  0  0  0  0  0  0  0  0  0  0  0
   20.3776   72.2545    2.1427 O   0  0  0  0  0  0  0  0  0  0  0  0
   22.3386   72.9624    3.3487 C   0  0  1  0  0  0  0  0  0  0  0  0
   23.8427   72.7341    3.5115 C   0  0  1  0  0  0  0  0  0  0  0  0
   21.7348   71.9188    2.4109 C   0  0  2  0  0  0  0  0  0  0  0  0
   24.5303   72.5797    2.1482 C   0  0  1  0  0  0  0  0  0  0  0  0
   22.5224   71.8107    1.1040 C   0  0  1  0  0  0  0  0  0  0  0  0
   22.1042   73.5052    5.2356 H   0  0  0  0  0  0  0  0  0  0  0  0
   23.9411   73.9342    5.0756 H   0  0  0  0  0  0  0  0  0  0  0  0
   19.8896   72.3196    2.9779 H   0  0  0  0  0  0  0  0  0  0  0  0
   26.0825   70.7957    2.4905 O   0  0  0  0  0  0  0  0  0  0  0  0
   26.0013   72.1948    2.2900 C   0  0  0  0  0  0  0  0  0  0  0  0
   27.0131   70.5363    2.5821 H   0  0  0  0  0  0  0  0  0  0  0  0
 25 28  1  0
 25 24  1  0
 25 26  1  1
 25 27  2  0
  1  4  1  0
  1 24  1  0
  1  2  1  6
  1  3  2  0
  6 11  1  0
  6 12  1  0
 29 36  1  0
 29 37  1  0
  9  7  1  6
  7 13  1  0
 10  8  1  6
  8 14  1  0
 37 28  1  1
  4  5  1  0
 33 30  1  1
 30 38  1  0
 34 31  1  6
 31 39  1  0
 35 32  1  6
 32 40  1  0
 41 42  1  0
 41 43  1  0
 15 19  2  0
 16 22  2  0
 12 17  1  1
 17 19  1  0
 17 20  1  0
 18 19  1  0
 18 22  1  0
 18 23  1  0
  9 10  1  0
  9 11  1  0
 10 12  1  0
 11  5  1  1
 33 34  1  0
 33 35  1  0
 34 36  1  0
 35 37  1  0
 36 42  1  1
 20 21  2  0
 21 22  1  0
M  CHG  2   2  -1  26  -1
M  END
>  <COMPND>  (153) 
    8629 

>  <AUTHOR>  (153) 
    GENERATED BY OPEN BABEL 3.1.1

>  <MASTER>  (153) 
        0    0    0    0    0    0    0    0   58    0   58    0

>  <minimizedAffinity>  (153) 
-7.41679

>  <CNNscore>  (153) 
0.7224058509

>  <CNNaffinity>  (153) 
4.4026083946

>  <CNN_VS>  (153) 
3.1804699898

>  <CNNaffinity_variance>  (153) 
0.1353653967

$$$$
154
     RDKit          3D

 43 45  0  0  0  0  0  0  0  0999 V2000
   20.7569   74.9245   -1.9947 P   0  0  2  0  0  0  0  0  0  0  0  0
   19.2916   74.9444   -1.3092 O   0  0  0  0  0  0  0  0  0  0  0  0
   21.1346   76.1828   -2.7196 O   0  0  0  0  0  0  0  0  0  0  0  0
   20.7501   73.5747   -2.8868 O   0  0  0  0  0  0  0  0  0  0  0  0
   19.6643   73.3535   -3.7700 C   0  0  0  0  0  0  0  0  0  0  0  0
   18.0885   71.6577   -4.4143 O   0  0  0  0  0  0  0  0  0  0  0  0
   19.0636   70.1124   -2.0369 O   0  0  0  0  0  0  0  0  0  0  0  0
   20.3751   68.9121   -4.1047 O   0  0  0  0  0  0  0  0  0  0  0  0
   19.7936   70.9571   -2.9252 C   0  0  1  0  0  0  0  0  0  0  0  0
   20.0004   70.2660   -4.2568 C   0  0  2  0  0  0  0  0  0  0  0  0
   18.8929   72.1244   -3.3091 C   0  0  1  0  0  0  0  0  0  0  0  0
   18.6378   70.4257   -4.9096 C   0  0  2  0  0  0  0  0  0  0  0  0
   19.6186   69.3597   -1.7775 H   0  0  0  0  0  0  0  0  0  0  0  0
   21.2483   68.8633   -3.6852 H   0  0  0  0  0  0  0  0  0  0  0  0
   16.6216   69.5245   -6.6704 O   0  0  0  0  0  0  0  0  0  0  0  0
   19.0666   70.7384  -10.3839 O   0  0  0  0  0  0  0  0  0  0  0  0
   18.7211   70.4945   -6.3413 N   0  0  0  0  0  0  0  0  0  0  0  0
   17.8406   70.1298   -8.5180 N   0  0  0  0  0  0  0  0  0  0  0  0
   17.6536   70.0134   -7.1347 C   0  0  0  0  0  0  0  0  0  0  0  0
   19.8517   71.0346   -6.9445 C   0  0  0  0  0  0  0  0  0  0  0  0
   20.0150   71.1373   -8.2651 C   0  0  0  0  0  0  0  0  0  0  0  0
   18.9464   70.6579   -9.1653 C   0  0  0  0  0  0  0  0  0  0  0  0
   17.1101   69.8008   -9.0907 H   0  0  0  0  0  0  0  0  0  0  0  0
   21.7296   74.5405   -0.7621 O   0  0  0  0  0  0  0  0  0  0  0  0
   21.9297   73.1509    0.0392 P   0  0  2  0  0  0  0  0  0  0  0  0
   23.1735   72.4563   -0.7276 O   0  0  0  0  0  0  0  0  0  0  0  0
   20.6949   72.3001    0.1135 O   0  0  0  0  0  0  0  0  0  0  0  0
   22.5277   73.5885    1.4730 O   0  0  0  0  0  0  0  0  0  0  0  0
   24.4214   72.8905    2.7152 O   0  0  0  0  0  0  0  0  0  0  0  0
   21.6856   73.1872    5.7938 O   0  0  0  0  0  0  0  0  0  0  0  0
   23.7721   75.1465    5.5574 O   0  0  0  0  0  0  0  0  0  0  0  0
   20.8543   72.1628    3.2172 O   0  0  0  0  0  0  0  0  0  0  0  0
   22.2965   73.5539    4.5538 C   0  0  1  0  0  0  0  0  0  0  0  0
   23.7558   73.9222    4.8285 C   0  0  1  0  0  0  0  0  0  0  0  0
   22.2125   72.3736    3.5877 C   0  0  2  0  0  0  0  0  0  0  0  0
   24.5459   74.0682    3.5210 C   0  0  1  0  0  0  0  0  0  0  0  0
   23.0727   72.6001    2.3432 C   0  0  1  0  0  0  0  0  0  0  0  0
   21.7351   73.9325    6.4116 H   0  0  0  0  0  0  0  0  0  0  0  0
   23.2694   75.0409    6.3804 H   0  0  0  0  0  0  0  0  0  0  0  0
   20.3204   72.0203    4.0137 H   0  0  0  0  0  0  0  0  0  0  0  0
   26.2481   75.6405    4.1033 O   0  0  0  0  0  0  0  0  0  0  0  0
   26.0369   74.2798    3.7743 C   0  0  0  0  0  0  0  0  0  0  0  0
   27.1928   75.7899    4.2675 H   0  0  0  0  0  0  0  0  0  0  0  0
 25 28  1  0
 25 24  1  0
 25 26  1  6
 25 27  2  0
  1  4  1  0
  1 24  1  0
  1  2  1  1
  1  3  2  0
  6 11  1  0
  6 12  1  0
 29 36  1  0
 29 37  1  0
  9  7  1  1
  7 13  1  0
 10  8  1  1
  8 14  1  0
 37 28  1  1
  4  5  1  0
 33 30  1  1
 30 38  1  0
 34 31  1  6
 31 39  1  0
 35 32  1  6
 32 40  1  0
 41 42  1  0
 41 43  1  0
 15 19  2  0
 16 22  2  0
 12 17  1  6
 17 19  1  0
 17 20  1  0
 18 19  1  0
 18 22  1  0
 18 23  1  0
  9 10  1  0
  9 11  1  0
 10 12  1  0
 11  5  1  6
 33 34  1  0
 33 35  1  0
 34 36  1  0
 35 37  1  0
 36 42  1  1
 20 21  2  0
 21 22  1  0
M  CHG  2   2  -1  26  -1
M  END
>  <COMPND>  (154) 
    8629 

>  <AUTHOR>  (154) 
    GENERATED BY OPEN BABEL 3.1.1

>  <MASTER>  (154) 
        0    0    0    0    0    0    0    0   58    0   58    0

>  <minimizedAffinity>  (154) 
-6.21250

>  <CNNscore>  (154) 
0.6830835938

>  <CNNaffinity>  (154) 
4.1748280525

>  <CNN_VS>  (154) 
2.8517565727

>  <CNNaffinity_variance>  (154) 
0.0877259001

$$$$
155
     RDKit          3D

 43 45  0  0  0  0  0  0  0  0999 V2000
   23.6395   72.6340   -3.5623 P   0  0  2  0  0  0  0  0  0  0  0  0
   23.9824   71.1159   -3.1205 O   0  0  0  0  0  0  0  0  0  0  0  0
   24.7507   73.3553   -4.2669 O   0  0  0  0  0  0  0  0  0  0  0  0
   23.1069   73.3243   -2.1994 O   0  0  0  0  0  0  0  0  0  0  0  0
   22.1771   74.3888   -2.2993 C   0  0  0  0  0  0  0  0  0  0  0  0
   21.1507   72.7632   -0.8579 O   0  0  0  0  0  0  0  0  0  0  0  0
   19.1592   74.8992   -0.1778 O   0  0  0  0  0  0  0  0  0  0  0  0
   20.8372   74.9449    1.9714 O   0  0  0  0  0  0  0  0  0  0  0  0
   20.5559   75.0192   -0.4425 C   0  0  1  0  0  0  0  0  0  0  0  0
   21.3600   74.5064    0.7340 C   0  0  2  0  0  0  0  0  0  0  0  0
   20.9145   74.0179   -1.5335 C   0  0  1  0  0  0  0  0  0  0  0  0
   21.2550   73.0014    0.5553 C   0  0  2  0  0  0  0  0  0  0  0  0
   18.9064   75.5293    0.5157 H   0  0  0  0  0  0  0  0  0  0  0  0
   20.9270   75.9084    2.0373 H   0  0  0  0  0  0  0  0  0  0  0  0
   21.3271   70.2375    1.1330 O   0  0  0  0  0  0  0  0  0  0  0  0
   25.7253   70.4501    2.4935 O   0  0  0  0  0  0  0  0  0  0  0  0
   22.4061   72.3082    1.0613 N   0  0  0  0  0  0  0  0  0  0  0  0
   23.5171   70.3456    1.8098 N   0  0  0  0  0  0  0  0  0  0  0  0
   22.3372   70.9192    1.3191 C   0  0  0  0  0  0  0  0  0  0  0  0
   23.5866   73.0046    1.2963 C   0  0  0  0  0  0  0  0  0  0  0  0
   24.7027   72.4431    1.7656 C   0  0  0  0  0  0  0  0  0  0  0  0
   24.7149   70.9958    2.0610 C   0  0  0  0  0  0  0  0  0  0  0  0
   23.4925   69.3791    1.9971 H   0  0  0  0  0  0  0  0  0  0  0  0
   22.2894   72.4625   -4.4345 O   0  0  0  0  0  0  0  0  0  0  0  0
   21.8705   73.0697   -5.8728 P   0  0  2  0  0  0  0  0  0  0  0  0
   22.9143   72.3676   -6.8902 O   0  0  0  0  0  0  0  0  0  0  0  0
   21.8645   74.5699   -5.9294 O   0  0  0  0  0  0  0  0  0  0  0  0
   20.4493   72.3821   -6.2082 O   0  0  0  0  0  0  0  0  0  0  0  0
   19.7960   70.2421   -5.4271 O   0  0  0  0  0  0  0  0  0  0  0  0
   17.5351   70.4031   -8.8787 O   0  0  0  0  0  0  0  0  0  0  0  0
   16.2452   70.6589   -6.3255 O   0  0  0  0  0  0  0  0  0  0  0  0
   20.2186   71.4884   -8.8584 O   0  0  0  0  0  0  0  0  0  0  0  0
   18.1738   70.9323   -7.7136 C   0  0  1  0  0  0  0  0  0  0  0  0
   17.5934   70.2267   -6.4863 C   0  0  1  0  0  0  0  0  0  0  0  0
   19.6781   70.6865   -7.8138 C   0  0  2  0  0  0  0  0  0  0  0  0
   18.4103   70.5445   -5.2267 C   0  0  1  0  0  0  0  0  0  0  0  0
   20.3887   70.9869   -6.4929 C   0  0  1  0  0  0  0  0  0  0  0  0
   16.5797   70.5564   -8.8216 H   0  0  0  0  0  0  0  0  0  0  0  0
   15.7404   70.4528   -7.1279 H   0  0  0  0  0  0  0  0  0  0  0  0
   19.7607   71.2887   -9.6892 H   0  0  0  0  0  0  0  0  0  0  0  0
   17.0988   68.6911   -4.4824 O   0  0  0  0  0  0  0  0  0  0  0  0
   17.9453   69.7285   -4.0225 C   0  0  0  0  0  0  0  0  0  0  0  0
   16.7954   68.1633   -3.7267 H   0  0  0  0  0  0  0  0  0  0  0  0
 25 28  1  0
 25 24  1  0
 25 26  1  6
 25 27  2  0
  1  4  1  0
  1 24  1  0
  1  2  1  1
  1  3  2  0
  6 11  1  0
  6 12  1  0
 29 36  1  0
 29 37  1  0
  9  7  1  1
  7 13  1  0
 10  8  1  1
  8 14  1  0
 37 28  1  1
  4  5  1  0
 33 30  1  6
 30 38  1  0
 34 31  1  1
 31 39  1  0
 35 32  1  6
 32 40  1  0
 41 42  1  0
 41 43  1  0
 15 19  2  0
 16 22  2  0
 12 17  1  6
 17 19  1  0
 17 20  1  0
 18 19  1  0
 18 22  1  0
 18 23  1  0
  9 10  1  0
  9 11  1  0
 10 12  1  0
 11  5  1  1
 33 34  1  0
 33 35  1  0
 34 36  1  0
 35 37  1  0
 36 42  1  1
 20 21  2  0
 21 22  1  0
M  CHG  2   2  -1  26  -1
M  END
>  <COMPND>  (155) 
    8629 

>  <AUTHOR>  (155) 
    GENERATED BY OPEN BABEL 3.1.1

>  <MASTER>  (155) 
        0    0    0    0    0    0    0    0   58    0   58    0

>  <minimizedAffinity>  (155) 
-7.64916

>  <CNNscore>  (155) 
0.6729372740

>  <CNNaffinity>  (155) 
4.3805642128

>  <CNN_VS>  (155) 
2.9478449821

>  <CNNaffinity_variance>  (155) 
0.1175391525

$$$$
156
     RDKit          3D

 43 45  0  0  0  0  0  0  0  0999 V2000
   20.4557   71.2901   -1.3202 P   0  0  2  0  0  0  0  0  0  0  0  0
   20.6743   70.4832    0.0649 O   0  0  0  0  0  0  0  0  0  0  0  0
   20.0868   72.7356   -1.1601 O   0  0  0  0  0  0  0  0  0  0  0  0
   19.3954   70.3805   -2.1365 O   0  0  0  0  0  0  0  0  0  0  0  0
   19.1119   70.7170   -3.4834 C   0  0  0  0  0  0  0  0  0  0  0  0
   17.3744   71.5895   -4.8953 O   0  0  0  0  0  0  0  0  0  0  0  0
   15.4884   69.8736   -3.3175 O   0  0  0  0  0  0  0  0  0  0  0  0
   15.8563   68.4159   -5.5926 O   0  0  0  0  0  0  0  0  0  0  0  0
   16.8334   69.6085   -3.7127 C   0  0  1  0  0  0  0  0  0  0  0  0
   16.8934   69.2879   -5.1916 C   0  0  2  0  0  0  0  0  0  0  0  0
   17.6106   70.9169   -3.6391 C   0  0  1  0  0  0  0  0  0  0  0  0
   16.7729   70.6667   -5.8181 C   0  0  2  0  0  0  0  0  0  0  0  0
   14.9724   69.0525   -3.3562 H   0  0  0  0  0  0  0  0  0  0  0  0
   15.9772   67.5524   -5.1677 H   0  0  0  0  0  0  0  0  0  0  0  0
   16.3010   72.6753   -7.7469 O   0  0  0  0  0  0  0  0  0  0  0  0
   19.4450   70.9125  -10.6190 O   0  0  0  0  0  0  0  0  0  0  0  0
   17.4543   70.7569   -7.0786 N   0  0  0  0  0  0  0  0  0  0  0  0
   17.8669   71.7961   -9.1754 N   0  0  0  0  0  0  0  0  0  0  0  0
   17.1424   71.8042   -7.9766 C   0  0  0  0  0  0  0  0  0  0  0  0
   18.4200   69.8140   -7.4134 C   0  0  0  0  0  0  0  0  0  0  0  0
   19.1011   69.8195   -8.5612 C   0  0  0  0  0  0  0  0  0  0  0  0
   18.8355   70.8801   -9.5545 C   0  0  0  0  0  0  0  0  0  0  0  0
   17.6662   72.5160   -9.8166 H   0  0  0  0  0  0  0  0  0  0  0  0
   21.8408   71.0331   -2.1130 O   0  0  0  0  0  0  0  0  0  0  0  0
   23.2447   71.8338   -2.0842 P   0  0  2  0  0  0  0  0  0  0  0  0
   24.2241   70.8975   -2.9683 O   0  0  0  0  0  0  0  0  0  0  0  0
   23.7540   72.1335   -0.7041 O   0  0  0  0  0  0  0  0  0  0  0  0
   22.9903   73.1376   -3.0010 O   0  0  0  0  0  0  0  0  0  0  0  0
   23.3978   72.8398   -5.3166 O   0  0  0  0  0  0  0  0  0  0  0  0
   23.2653   76.9652   -5.1951 O   0  0  0  0  0  0  0  0  0  0  0  0
   21.0905   75.5109   -6.3797 O   0  0  0  0  0  0  0  0  0  0  0  0
   24.5105   75.4962   -3.0338 O   0  0  0  0  0  0  0  0  0  0  0  0
   22.8938   75.6378   -4.8136 C   0  0  1  0  0  0  0  0  0  0  0  0
   22.3440   74.9202   -6.0479 C   0  0  1  0  0  0  0  0  0  0  0  0
   24.1238   74.9112   -4.2727 C   0  0  2  0  0  0  0  0  0  0  0  0
   22.1739   73.4178   -5.7853 C   0  0  1  0  0  0  0  0  0  0  0  0
   23.8624   73.4146   -4.0936 C   0  0  1  0  0  0  0  0  0  0  0  0
   22.4887   77.4321   -5.5391 H   0  0  0  0  0  0  0  0  0  0  0  0
   21.2117   76.4596   -6.5426 H   0  0  0  0  0  0  0  0  0  0  0  0
   24.6733   76.4435   -3.1605 H   0  0  0  0  0  0  0  0  0  0  0  0
   20.4034   72.8909   -7.3008 O   0  0  0  0  0  0  0  0  0  0  0  0
   21.7769   72.6577   -7.0490 C   0  0  0  0  0  0  0  0  0  0  0  0
   20.1366   72.4135   -8.1024 H   0  0  0  0  0  0  0  0  0  0  0  0
 25 28  1  0
 25 24  1  0
 25 26  1  6
 25 27  2  0
  1  4  1  0
  1 24  1  0
  1  2  1  1
  1  3  2  0
  6 11  1  0
  6 12  1  0
 29 36  1  0
 29 37  1  0
  9  7  1  6
  7 13  1  0
 10  8  1  6
  8 14  1  0
 37 28  1  1
  4  5  1  0
 33 30  1  6
 30 38  1  0
 34 31  1  1
 31 39  1  0
 35 32  1  1
 32 40  1  0
 41 42  1  0
 41 43  1  0
 15 19  2  0
 16 22  2  0
 12 17  1  6
 17 19  1  0
 17 20  1  0
 18 19  1  0
 18 22  1  0
 18 23  1  0
  9 10  1  0
  9 11  1  0
 10 12  1  0
 11  5  1  6
 33 34  1  0
 33 35  1  0
 34 36  1  0
 35 37  1  0
 36 42  1  6
 20 21  2  0
 21 22  1  0
M  CHG  2   2  -1  26  -1
M  END
>  <COMPND>  (156) 
    8629 

>  <AUTHOR>  (156) 
    GENERATED BY OPEN BABEL 3.1.1

>  <MASTER>  (156) 
        0    0    0    0    0    0    0    0   58    0   58    0

>  <minimizedAffinity>  (156) 
-7.60579

>  <CNNscore>  (156) 
0.6629340649

>  <CNNaffinity>  (156) 
4.4339904785

>  <CNN_VS>  (156) 
2.9394433498

>  <CNNaffinity_variance>  (156) 
0.7571145296

$$$$
157
     RDKit          3D

 43 45  0  0  0  0  0  0  0  0999 V2000
   16.3891   69.9354   -2.6294 P   0  0  2  0  0  0  0  0  0  0  0  0
   17.4588   68.7334   -2.7984 O   0  0  0  0  0  0  0  0  0  0  0  0
   16.8131   71.0353   -1.7012 O   0  0  0  0  0  0  0  0  0  0  0  0
   15.0130   69.1787   -2.2400 O   0  0  0  0  0  0  0  0  0  0  0  0
   14.4856   69.3624   -0.9377 C   0  0  0  0  0  0  0  0  0  0  0  0
   12.3095   68.4400   -0.5048 O   0  0  0  0  0  0  0  0  0  0  0  0
   11.2753   71.2421   -0.7679 O   0  0  0  0  0  0  0  0  0  0  0  0
   11.3632   70.8924    1.9351 O   0  0  0  0  0  0  0  0  0  0  0  0
   12.5048   70.7830   -0.2087 C   0  0  1  0  0  0  0  0  0  0  0  0
   12.2616   70.1433    1.1423 C   0  0  2  0  0  0  0  0  0  0  0  0
   12.9851   69.5994   -1.0393 C   0  0  1  0  0  0  0  0  0  0  0  0
   11.7043   68.7850    0.7520 C   0  0  2  0  0  0  0  0  0  0  0  0
   10.9491   71.9983   -0.2543 H   0  0  0  0  0  0  0  0  0  0  0  0
   11.7634   71.7475    2.1572 H   0  0  0  0  0  0  0  0  0  0  0  0
    9.8789   66.8284    1.6563 O   0  0  0  0  0  0  0  0  0  0  0  0
   13.0148   64.9310    4.4505 O   0  0  0  0  0  0  0  0  0  0  0  0
   12.0172   67.7673    1.7152 N   0  0  0  0  0  0  0  0  0  0  0  0
   11.4419   65.8852    3.0467 N   0  0  0  0  0  0  0  0  0  0  0  0
   11.0281   66.8333    2.1023 C   0  0  0  0  0  0  0  0  0  0  0  0
   13.2928   67.7023    2.2651 C   0  0  0  0  0  0  0  0  0  0  0  0
   13.6710   66.7927    3.1656 C   0  0  0  0  0  0  0  0  0  0  0  0
   12.6977   65.7804    3.6235 C   0  0  0  0  0  0  0  0  0  0  0  0
   10.7695   65.2245    3.3317 H   0  0  0  0  0  0  0  0  0  0  0  0
   16.1266   70.4052   -4.1537 O   0  0  0  0  0  0  0  0  0  0  0  0
   17.1563   70.7317   -5.3561 P   0  0  2  0  0  0  0  0  0  0  0  0
   16.5038   72.0342   -6.0600 O   0  0  0  0  0  0  0  0  0  0  0  0
   17.3988   69.5802   -6.2884 O   0  0  0  0  0  0  0  0  0  0  0  0
   18.4811   71.2868   -4.6200 O   0  0  0  0  0  0  0  0  0  0  0  0
   20.4418   70.8621   -5.8817 O   0  0  0  0  0  0  0  0  0  0  0  0
   22.1853   72.1284   -2.3593 O   0  0  0  0  0  0  0  0  0  0  0  0
   22.2407   73.8405   -4.6644 O   0  0  0  0  0  0  0  0  0  0  0  0
   19.8071   70.4798   -2.2822 O   0  0  0  0  0  0  0  0  0  0  0  0
   21.1926   72.1099   -3.3887 C   0  0  1  0  0  0  0  0  0  0  0  0
   21.8694   72.4658   -4.7139 C   0  0  1  0  0  0  0  0  0  0  0  0
   20.5725   70.7157   -3.4591 C   0  0  2  0  0  0  0  0  0  0  0  0
   20.9321   72.2078   -5.9014 C   0  0  1  0  0  0  0  0  0  0  0  0
   19.6976   70.5488   -4.7028 C   0  0  1  0  0  0  0  0  0  0  0  0
   22.5826   73.0111   -2.3091 H   0  0  0  0  0  0  0  0  0  0  0  0
   22.8320   73.9900   -3.9100 H   0  0  0  0  0  0  0  0  0  0  0  0
   20.3723   70.5882   -1.5020 H   0  0  0  0  0  0  0  0  0  0  0  0
   23.0362   72.3433   -7.0255 O   0  0  0  0  0  0  0  0  0  0  0  0
   21.6383   72.4057   -7.2409 C   0  0  0  0  0  0  0  0  0  0  0  0
   23.4986   72.4673   -7.8696 H   0  0  0  0  0  0  0  0  0  0  0  0
 25 28  1  0
 25 24  1  0
 25 26  1  6
 25 27  2  0
  1  4  1  0
  1 24  1  0
  1  2  1  6
  1  3  2  0
  6 11  1  0
  6 12  1  0
 29 36  1  0
 29 37  1  0
  9  7  1  6
  7 13  1  0
 10  8  1  1
  8 14  1  0
 37 28  1  1
  4  5  1  0
 33 30  1  1
 30 38  1  0
 34 31  1  1
 31 39  1  0
 35 32  1  1
 32 40  1  0
 41 42  1  0
 41 43  1  0
 15 19  2  0
 16 22  2  0
 12 17  1  1
 17 19  1  0
 17 20  1  0
 18 19  1  0
 18 22  1  0
 18 23  1  0
  9 10  1  0
  9 11  1  0
 10 12  1  0
 11  5  1  1
 33 34  1  0
 33 35  1  0
 34 36  1  0
 35 37  1  0
 36 42  1  6
 20 21  2  0
 21 22  1  0
M  CHG  2   2  -1  26  -1
M  END
>  <COMPND>  (157) 
    8629 

>  <AUTHOR>  (157) 
    GENERATED BY OPEN BABEL 3.1.1

>  <MASTER>  (157) 
        0    0    0    0    0    0    0    0   58    0   58    0

>  <minimizedAffinity>  (157) 
-6.04103

>  <CNNscore>  (157) 
0.6341422796

>  <CNNaffinity>  (157) 
4.2803587914

>  <CNN_VS>  (157) 
2.7143564224

>  <CNNaffinity_variance>  (157) 
0.1072241291

$$$$
158
     RDKit          3D

 43 45  0  0  0  0  0  0  0  0999 V2000
   23.1480   73.6363   -4.4018 P   0  0  2  0  0  0  0  0  0  0  0  0
   24.5613   74.3831   -4.1523 O   0  0  0  0  0  0  0  0  0  0  0  0
   23.1177   72.7167   -5.5871 O   0  0  0  0  0  0  0  0  0  0  0  0
   22.0694   74.8422   -4.4204 O   0  0  0  0  0  0  0  0  0  0  0  0
   21.1456   74.9066   -5.4929 C   0  0  0  0  0  0  0  0  0  0  0  0
   18.8658   74.3729   -6.0326 O   0  0  0  0  0  0  0  0  0  0  0  0
   18.4735   73.9172   -3.0950 O   0  0  0  0  0  0  0  0  0  0  0  0
   18.7256   71.3797   -4.0617 O   0  0  0  0  0  0  0  0  0  0  0  0
   19.6128   73.6381   -3.9071 C   0  0  1  0  0  0  0  0  0  0  0  0
   19.3551   72.4244   -4.7754 C   0  0  2  0  0  0  0  0  0  0  0  0
   19.7349   74.7495   -4.9421 C   0  0  1  0  0  0  0  0  0  0  0  0
   18.4714   73.0009   -5.8685 C   0  0  2  0  0  0  0  0  0  0  0  0
   18.3751   73.2210   -2.4260 H   0  0  0  0  0  0  0  0  0  0  0  0
   19.3276   71.0465   -3.3781 H   0  0  0  0  0  0  0  0  0  0  0  0
   16.4882   72.8573   -7.8746 O   0  0  0  0  0  0  0  0  0  0  0  0
   19.1981   70.3469  -10.6306 O   0  0  0  0  0  0  0  0  0  0  0  0
   18.6320   72.3166   -7.1204 N   0  0  0  0  0  0  0  0  0  0  0  0
   17.8392   71.6076   -9.2453 N   0  0  0  0  0  0  0  0  0  0  0  0
   17.5740   72.3035   -8.0590 C   0  0  0  0  0  0  0  0  0  0  0  0
   19.8284   71.6682   -7.4073 C   0  0  0  0  0  0  0  0  0  0  0  0
   20.0649   71.0079   -8.5427 C   0  0  0  0  0  0  0  0  0  0  0  0
   19.0113   70.9463   -9.5762 C   0  0  0  0  0  0  0  0  0  0  0  0
   17.1165   71.5847   -9.9138 H   0  0  0  0  0  0  0  0  0  0  0  0
   22.8625   72.9153   -2.9835 O   0  0  0  0  0  0  0  0  0  0  0  0
   22.8209   71.3513   -2.5771 P   0  0  2  0  0  0  0  0  0  0  0  0
   24.3015   70.8275   -2.9656 O   0  0  0  0  0  0  0  0  0  0  0  0
   21.7033   70.5789   -3.2162 O   0  0  0  0  0  0  0  0  0  0  0  0
   22.7981   71.3490   -0.9633 O   0  0  0  0  0  0  0  0  0  0  0  0
   22.0280   73.4050   -0.0708 O   0  0  0  0  0  0  0  0  0  0  0  0
   23.4207   71.6586    3.4021 O   0  0  0  0  0  0  0  0  0  0  0  0
   20.5914   71.8993    2.9719 O   0  0  0  0  0  0  0  0  0  0  0  0
   24.8744   71.3041    0.9241 O   0  0  0  0  0  0  0  0  0  0  0  0
   22.8113   71.6808    2.1085 C   0  0  1  0  0  0  0  0  0  0  0  0
   21.5678   72.5694    2.1794 C   0  0  1  0  0  0  0  0  0  0  0  0
   23.8110   72.2349    1.0951 C   0  0  2  0  0  0  0  0  0  0  0  0
   21.0124   72.8578    0.7782 C   0  0  1  0  0  0  0  0  0  0  0  0
   23.1457   72.5328   -0.2497 C   0  0  1  0  0  0  0  0  0  0  0  0
   22.7913   71.3073    4.0502 H   0  0  0  0  0  0  0  0  0  0  0  0
   20.9549   71.7227    3.8539 H   0  0  0  0  0  0  0  0  0  0  0  0
   25.2876   71.1240    1.7824 H   0  0  0  0  0  0  0  0  0  0  0  0
   19.1244   73.7472   -0.3851 O   0  0  0  0  0  0  0  0  0  0  0  0
   19.8681   73.8685    0.8134 C   0  0  0  0  0  0  0  0  0  0  0  0
   18.3924   74.3843   -0.3766 H   0  0  0  0  0  0  0  0  0  0  0  0
 25 28  1  0
 25 24  1  0
 25 26  1  1
 25 27  2  0
  1  4  1  0
  1 24  1  0
  1  2  1  1
  1  3  2  0
  6 11  1  0
  6 12  1  0
 29 36  1  0
 29 37  1  0
  9  7  1  1
  7 13  1  0
 10  8  1  1
  8 14  1  0
 37 28  1  1
  4  5  1  0
 33 30  1  1
 30 38  1  0
 34 31  1  1
 31 39  1  0
 35 32  1  6
 32 40  1  0
 41 42  1  0
 41 43  1  0
 15 19  2  0
 16 22  2  0
 12 17  1  6
 17 19  1  0
 17 20  1  0
 18 19  1  0
 18 22  1  0
 18 23  1  0
  9 10  1  0
  9 11  1  0
 10 12  1  0
 11  5  1  6
 33 34  1  0
 33 35  1  0
 34 36  1  0
 35 37  1  0
 36 42  1  1
 20 21  2  0
 21 22  1  0
M  CHG  2   2  -1  26  -1
M  END
>  <COMPND>  (158) 
    8629 

>  <AUTHOR>  (158) 
    GENERATED BY OPEN BABEL 3.1.1

>  <MASTER>  (158) 
        0    0    0    0    0    0    0    0   58    0   58    0

>  <minimizedAffinity>  (158) 
-6.78285

>  <CNNscore>  (158) 
0.6198239326

>  <CNNaffinity>  (158) 
4.1775536537

>  <CNN_VS>  (158) 
2.5893478394

>  <CNNaffinity_variance>  (158) 
0.0488758609

$$$$
159
     RDKit          3D

 43 45  0  0  0  0  0  0  0  0999 V2000
   21.6736   72.4758   -5.5245 P   0  0  2  0  0  0  0  0  0  0  0  0
   21.0094   73.9383   -5.3314 O   0  0  0  0  0  0  0  0  0  0  0  0
   22.9675   72.4626   -6.2842 O   0  0  0  0  0  0  0  0  0  0  0  0
   20.4786   71.5869   -6.1566 O   0  0  0  0  0  0  0  0  0  0  0  0
   20.0627   71.8590   -7.4836 C   0  0  0  0  0  0  0  0  0  0  0  0
   18.7192   69.9460   -6.9274 O   0  0  0  0  0  0  0  0  0  0  0  0
   17.9602   69.8701   -9.8273 O   0  0  0  0  0  0  0  0  0  0  0  0
   15.7885   71.0502   -8.6751 O   0  0  0  0  0  0  0  0  0  0  0  0
   18.1992   70.9976   -8.9864 C   0  0  1  0  0  0  0  0  0  0  0  0
   17.0390   71.1985   -8.0340 C   0  0  2  0  0  0  0  0  0  0  0  0
   19.3341   70.6409   -8.0345 C   0  0  1  0  0  0  0  0  0  0  0  0
   17.2945   70.1207   -6.9943 C   0  0  2  0  0  0  0  0  0  0  0  0
   17.2395   70.0742  -10.4444 H   0  0  0  0  0  0  0  0  0  0  0  0
   15.6730   71.7591   -9.3269 H   0  0  0  0  0  0  0  0  0  0  0  0
   16.8058   68.2911   -4.8986 O   0  0  0  0  0  0  0  0  0  0  0  0
   15.4279   71.6414   -2.0493 O   0  0  0  0  0  0  0  0  0  0  0  0
   16.8082   70.4875   -5.6942 N   0  0  0  0  0  0  0  0  0  0  0  0
   16.1203   69.9608   -3.4815 N   0  0  0  0  0  0  0  0  0  0  0  0
   16.5953   69.4915   -4.7128 C   0  0  0  0  0  0  0  0  0  0  0  0
   16.5479   71.8222   -5.4028 C   0  0  0  0  0  0  0  0  0  0  0  0
   16.0940   72.2532   -4.2241 C   0  0  0  0  0  0  0  0  0  0  0  0
   15.8453   71.2766   -3.1441 C   0  0  0  0  0  0  0  0  0  0  0  0
   15.9642   69.2848   -2.7827 H   0  0  0  0  0  0  0  0  0  0  0  0
   21.7771   71.9207   -4.0098 O   0  0  0  0  0  0  0  0  0  0  0  0
   20.6627   71.2606   -3.0427 P   0  0  2  0  0  0  0  0  0  0  0  0
   20.6759   69.7008   -3.4720 O   0  0  0  0  0  0  0  0  0  0  0  0
   19.3133   71.9137   -3.1232 O   0  0  0  0  0  0  0  0  0  0  0  0
   21.3309   71.2848   -1.5736 O   0  0  0  0  0  0  0  0  0  0  0  0
   21.5711   73.0719   -0.0358 O   0  0  0  0  0  0  0  0  0  0  0  0
   25.1339   71.1084    0.6726 O   0  0  0  0  0  0  0  0  0  0  0  0
   23.0352   70.9882    2.6294 O   0  0  0  0  0  0  0  0  0  0  0  0
   24.1006   71.2967   -2.0248 O   0  0  0  0  0  0  0  0  0  0  0  0
   23.7431   71.2104    0.3555 C   0  0  1  0  0  0  0  0  0  0  0  0
   23.0328   71.8912    1.5272 C   0  0  1  0  0  0  0  0  0  0  0  0
   23.5813   72.0320   -0.9220 C   0  0  2  0  0  0  0  0  0  0  0  0
   21.5946   72.2762    1.1549 C   0  0  1  0  0  0  0  0  0  0  0  0
   22.1187   72.4030   -1.1736 C   0  0  1  0  0  0  0  0  0  0  0  0
   25.2436   70.5874    1.4826 H   0  0  0  0  0  0  0  0  0  0  0  0
   23.9491   70.7527    2.8540 H   0  0  0  0  0  0  0  0  0  0  0  0
   25.0270   71.0682   -1.8535 H   0  0  0  0  0  0  0  0  0  0  0  0
   20.3246   72.2044    3.1775 O   0  0  0  0  0  0  0  0  0  0  0  0
   20.9197   73.0958    2.2526 C   0  0  0  0  0  0  0  0  0  0  0  0
   19.8914   72.7121    3.8820 H   0  0  0  0  0  0  0  0  0  0  0  0
 25 28  1  0
 25 24  1  0
 25 26  1  6
 25 27  2  0
  1  4  1  0
  1 24  1  0
  1  2  1  1
  1  3  2  0
  6 11  1  0
  6 12  1  0
 29 36  1  0
 29 37  1  0
  9  7  1  6
  7 13  1  0
 10  8  1  6
  8 14  1  0
 37 28  1  1
  4  5  1  0
 33 30  1  1
 30 38  1  0
 34 31  1  1
 31 39  1  0
 35 32  1  6
 32 40  1  0
 41 42  1  0
 41 43  1  0
 15 19  2  0
 16 22  2  0
 12 17  1  1
 17 19  1  0
 17 20  1  0
 18 19  1  0
 18 22  1  0
 18 23  1  0
  9 10  1  0
  9 11  1  0
 10 12  1  0
 11  5  1  1
 33 34  1  0
 33 35  1  0
 34 36  1  0
 35 37  1  0
 36 42  1  1
 20 21  2  0
 21 22  1  0
M  CHG  2   2  -1  26  -1
M  END
>  <COMPND>  (159) 
    8629 

>  <AUTHOR>  (159) 
    GENERATED BY OPEN BABEL 3.1.1

>  <MASTER>  (159) 
        0    0    0    0    0    0    0    0   58    0   58    0

>  <minimizedAffinity>  (159) 
-7.24587

>  <CNNscore>  (159) 
0.6061558127

>  <CNNaffinity>  (159) 
4.3504548073

>  <CNN_VS>  (159) 
2.6370534897

>  <CNNaffinity_variance>  (159) 
0.4105573595

$$$$
160
     RDKit          3D

 43 45  0  0  0  0  0  0  0  0999 V2000
   17.4923   69.3328   -2.8041 P   0  0  2  0  0  0  0  0  0  0  0  0
   16.9057   70.6917   -3.4572 O   0  0  0  0  0  0  0  0  0  0  0  0
   17.9023   68.2804   -3.7921 O   0  0  0  0  0  0  0  0  0  0  0  0
   16.3570   68.8922   -1.7389 O   0  0  0  0  0  0  0  0  0  0  0  0
   15.1391   69.6159   -1.7107 C   0  0  0  0  0  0  0  0  0  0  0  0
   13.6253   70.6333   -0.1464 O   0  0  0  0  0  0  0  0  0  0  0  0
   13.6858   68.0213    1.3248 O   0  0  0  0  0  0  0  0  0  0  0  0
   11.3267   67.8824   -0.0361 O   0  0  0  0  0  0  0  0  0  0  0  0
   13.7271   68.2667   -0.0800 C   0  0  1  0  0  0  0  0  0  0  0  0
   12.3589   68.6781   -0.5823 C   0  0  2  0  0  0  0  0  0  0  0  0
   14.5445   69.5315   -0.3116 C   0  0  1  0  0  0  0  0  0  0  0  0
   12.2805   70.1270   -0.1322 C   0  0  2  0  0  0  0  0  0  0  0  0
   13.1693   67.2179    1.4974 H   0  0  0  0  0  0  0  0  0  0  0  0
   11.4200   66.9701   -0.3520 H   0  0  0  0  0  0  0  0  0  0  0  0
    9.4577   70.2033   -0.0693 O   0  0  0  0  0  0  0  0  0  0  0  0
    9.2802   73.2392   -3.5323 O   0  0  0  0  0  0  0  0  0  0  0  0
   11.4711   70.9289   -1.0057 N   0  0  0  0  0  0  0  0  0  0  0  0
    9.3716   71.7150   -1.7935 N   0  0  0  0  0  0  0  0  0  0  0  0
   10.0617   70.8941   -0.8925 C   0  0  0  0  0  0  0  0  0  0  0  0
   12.0754   71.7386   -1.9613 C   0  0  0  0  0  0  0  0  0  0  0  0
   11.4030   72.5146   -2.8139 C   0  0  0  0  0  0  0  0  0  0  0  0
    9.9269   72.5364   -2.7619 C   0  0  0  0  0  0  0  0  0  0  0  0
    8.3887   71.7067   -1.7335 H   0  0  0  0  0  0  0  0  0  0  0  0
   18.6883   69.8706   -1.8589 O   0  0  0  0  0  0  0  0  0  0  0  0
   19.5242   71.2538   -1.8883 P   0  0  2  0  0  0  0  0  0  0  0  0
   20.8990   70.8728   -1.1251 O   0  0  0  0  0  0  0  0  0  0  0  0
   18.7942   72.4266   -1.3006 O   0  0  0  0  0  0  0  0  0  0  0  0
   19.9535   71.4389   -3.4332 O   0  0  0  0  0  0  0  0  0  0  0  0
   21.0662   73.4884   -3.8554 O   0  0  0  0  0  0  0  0  0  0  0  0
   20.3670   72.3029   -7.7485 O   0  0  0  0  0  0  0  0  0  0  0  0
   23.0341   72.1904   -6.6894 O   0  0  0  0  0  0  0  0  0  0  0  0
   18.3643   71.8287   -5.7129 O   0  0  0  0  0  0  0  0  0  0  0  0
   20.6659   72.1141   -6.3628 C   0  0  1  0  0  0  0  0  0  0  0  0
   21.9590   72.8672   -6.0441 C   0  0  1  0  0  0  0  0  0  0  0  0
   19.5087   72.6540   -5.5244 C   0  0  2  0  0  0  0  0  0  0  0  0
   22.2019   72.9350   -4.5304 C   0  0  1  0  0  0  0  0  0  0  0  0
   19.8719   72.7258   -4.0402 C   0  0  1  0  0  0  0  0  0  0  0  0
   21.0976   71.9617   -8.2864 H   0  0  0  0  0  0  0  0  0  0  0  0
   22.8681   72.1540   -7.6445 H   0  0  0  0  0  0  0  0  0  0  0  0
   18.1444   71.7916   -6.6564 H   0  0  0  0  0  0  0  0  0  0  0  0
   24.5744   73.0285   -4.2630 O   0  0  0  0  0  0  0  0  0  0  0  0
   23.4003   73.8153   -4.1823 C   0  0  0  0  0  0  0  0  0  0  0  0
   25.3454   73.5758   -4.0443 H   0  0  0  0  0  0  0  0  0  0  0  0
 25 28  1  0
 25 24  1  0
 25 26  1  1
 25 27  2  0
  1  4  1  0
  1 24  1  0
  1  2  1  6
  1  3  2  0
  6 11  1  0
  6 12  1  0
 29 36  1  0
 29 37  1  0
  9  7  1  1
  7 13  1  0
 10  8  1  1
  8 14  1  0
 37 28  1  6
  4  5  1  0
 33 30  1  6
 30 38  1  0
 34 31  1  6
 31 39  1  0
 35 32  1  1
 32 40  1  0
 41 42  1  0
 41 43  1  0
 15 19  2  0
 16 22  2  0
 12 17  1  6
 17 19  1  0
 17 20  1  0
 18 19  1  0
 18 22  1  0
 18 23  1  0
  9 10  1  0
  9 11  1  0
 10 12  1  0
 11  5  1  6
 33 34  1  0
 33 35  1  0
 34 36  1  0
 35 37  1  0
 36 42  1  6
 20 21  2  0
 21 22  1  0
M  CHG  2   2  -1  26  -1
M  END
>  <COMPND>  (160) 
    8629 

>  <AUTHOR>  (160) 
    GENERATED BY OPEN BABEL 3.1.1

>  <MASTER>  (160) 
        0    0    0    0    0    0    0    0   58    0   58    0

>  <minimizedAffinity>  (160) 
-6.47837

>  <CNNscore>  (160) 
0.5724331141

>  <CNNaffinity>  (160) 
4.0679674149

>  <CNN_VS>  (160) 
2.3286392689

>  <CNNaffinity_variance>  (160) 
0.0323933437

$$$$
161
     RDKit          3D

 43 45  0  0  0  0  0  0  0  0999 V2000
   22.8960   72.0982   -3.1657 P   0  0  2  0  0  0  0  0  0  0  0  0
   24.1684   72.3045   -4.1434 O   0  0  0  0  0  0  0  0  0  0  0  0
   23.1572   71.2498   -1.9560 O   0  0  0  0  0  0  0  0  0  0  0  0
   21.7279   71.5721   -4.1540 O   0  0  0  0  0  0  0  0  0  0  0  0
   20.9094   70.4990   -3.7223 C   0  0  0  0  0  0  0  0  0  0  0  0
   19.0346   71.6683   -4.6666 O   0  0  0  0  0  0  0  0  0  0  0  0
   17.4162   70.4954   -2.4315 O   0  0  0  0  0  0  0  0  0  0  0  0
   16.7777   68.8840   -4.5369 O   0  0  0  0  0  0  0  0  0  0  0  0
   18.4965   69.9178   -3.1627 C   0  0  1  0  0  0  0  0  0  0  0  0
   18.0391   69.5207   -4.5508 C   0  0  2  0  0  0  0  0  0  0  0  0
   19.5030   71.0215   -3.4630 C   0  0  1  0  0  0  0  0  0  0  0  0
   18.0103   70.8596   -5.2681 C   0  0  2  0  0  0  0  0  0  0  0  0
   16.7606   69.8094   -2.2278 H   0  0  0  0  0  0  0  0  0  0  0  0
   16.8480   68.0369   -4.0697 H   0  0  0  0  0  0  0  0  0  0  0  0
   16.0813   70.1523   -7.2062 O   0  0  0  0  0  0  0  0  0  0  0  0
   19.1584   70.4078  -10.6278 O   0  0  0  0  0  0  0  0  0  0  0  0
   18.2799   70.7344   -6.6727 N   0  0  0  0  0  0  0  0  0  0  0  0
   17.6150   70.2803   -8.9084 N   0  0  0  0  0  0  0  0  0  0  0  0
   17.2409   70.3731   -7.5617 C   0  0  0  0  0  0  0  0  0  0  0  0
   19.5626   70.9691   -7.1558 C   0  0  0  0  0  0  0  0  0  0  0  0
   19.9033   70.8751   -8.4428 C   0  0  0  0  0  0  0  0  0  0  0  0
   18.8766   70.5026   -9.4373 C   0  0  0  0  0  0  0  0  0  0  0  0
   16.9077   70.0296   -9.5461 H   0  0  0  0  0  0  0  0  0  0  0  0
   22.4396   73.6140   -2.8384 O   0  0  0  0  0  0  0  0  0  0  0  0
   21.6820   74.7144   -3.7484 P   0  0  2  0  0  0  0  0  0  0  0  0
   22.2016   76.1205   -3.1397 O   0  0  0  0  0  0  0  0  0  0  0  0
   20.1883   74.5663   -3.7771 O   0  0  0  0  0  0  0  0  0  0  0  0
   22.3925   74.6085   -5.1937 O   0  0  0  0  0  0  0  0  0  0  0  0
   21.0894   75.5481   -6.9360 O   0  0  0  0  0  0  0  0  0  0  0  0
   23.9357   73.6083   -9.2135 O   0  0  0  0  0  0  0  0  0  0  0  0
   23.9858   76.4733   -9.0201 O   0  0  0  0  0  0  0  0  0  0  0  0
   22.9291   72.3698   -6.7984 O   0  0  0  0  0  0  0  0  0  0  0  0
   23.4455   74.3388   -8.0858 C   0  0  1  0  0  0  0  0  0  0  0  0
   22.8896   75.6742   -8.5844 C   0  0  1  0  0  0  0  0  0  0  0  0
   22.3511   73.5232   -7.4001 C   0  0  2  0  0  0  0  0  0  0  0  0
   22.1082   76.3964   -7.4785 C   0  0  1  0  0  0  0  0  0  0  0  0
   21.6036   74.3496   -6.3520 C   0  0  1  0  0  0  0  0  0  0  0  0
   24.6313   74.1206   -9.6531 H   0  0  0  0  0  0  0  0  0  0  0  0
   24.4711   76.0057   -9.7180 H   0  0  0  0  0  0  0  0  0  0  0  0
   23.3991   71.8549   -7.4722 H   0  0  0  0  0  0  0  0  0  0  0  0
   22.3684   78.6946   -8.0780 O   0  0  0  0  0  0  0  0  0  0  0  0
   21.4127   77.6532   -7.9970 C   0  0  0  0  0  0  0  0  0  0  0  0
   21.9400   79.5008   -8.4070 H   0  0  0  0  0  0  0  0  0  0  0  0
 25 28  1  0
 25 24  1  0
 25 26  1  1
 25 27  2  0
  1  4  1  0
  1 24  1  0
  1  2  1  6
  1  3  2  0
  6 11  1  0
  6 12  1  0
 29 36  1  0
 29 37  1  0
  9  7  1  1
  7 13  1  0
 10  8  1  1
  8 14  1  0
 37 28  1  1
  4  5  1  0
 33 30  1  6
 30 38  1  0
 34 31  1  1
 31 39  1  0
 35 32  1  1
 32 40  1  0
 41 42  1  0
 41 43  1  0
 15 19  2  0
 16 22  2  0
 12 17  1  6
 17 19  1  0
 17 20  1  0
 18 19  1  0
 18 22  1  0
 18 23  1  0
  9 10  1  0
  9 11  1  0
 10 12  1  0
 11  5  1  6
 33 34  1  0
 33 35  1  0
 34 36  1  0
 35 37  1  0
 36 42  1  6
 20 21  2  0
 21 22  1  0
M  CHG  2   2  -1  26  -1
M  END
>  <COMPND>  (161) 
    8629 

>  <AUTHOR>  (161) 
    GENERATED BY OPEN BABEL 3.1.1

>  <MASTER>  (161) 
        0    0    0    0    0    0    0    0   58    0   58    0

>  <minimizedAffinity>  (161) 
-7.15184

>  <CNNscore>  (161) 
0.9246515036

>  <CNNaffinity>  (161) 
4.7143602371

>  <CNN_VS>  (161) 
4.3591403961

>  <CNNaffinity_variance>  (161) 
0.1763582826

$$$$
162
     RDKit          3D

 43 45  0  0  0  0  0  0  0  0999 V2000
   20.6565   71.6446   -1.8500 P   0  0  2  0  0  0  0  0  0  0  0  0
   20.4511   70.4265   -0.8054 O   0  0  0  0  0  0  0  0  0  0  0  0
   19.8606   72.8801   -1.5474 O   0  0  0  0  0  0  0  0  0  0  0  0
   20.3823   70.9684   -3.2941 O   0  0  0  0  0  0  0  0  0  0  0  0
   19.4900   69.8701   -3.3679 C   0  0  0  0  0  0  0  0  0  0  0  0
   17.9088   71.2211   -4.5713 O   0  0  0  0  0  0  0  0  0  0  0  0
   15.7837   69.7903   -3.0131 O   0  0  0  0  0  0  0  0  0  0  0  0
   15.7101   68.5192   -5.4247 O   0  0  0  0  0  0  0  0  0  0  0  0
   17.0177   69.2903   -3.5255 C   0  0  1  0  0  0  0  0  0  0  0  0
   16.9298   69.1114   -5.0268 C   0  0  2  0  0  0  0  0  0  0  0  0
   18.0606   70.3936   -3.3972 C   0  0  1  0  0  0  0  0  0  0  0  0
   17.0756   70.5398   -5.5234 C   0  0  2  0  0  0  0  0  0  0  0  0
   15.1021   69.1031   -3.0842 H   0  0  0  0  0  0  0  0  0  0  0  0
   15.6649   67.6120   -5.0846 H   0  0  0  0  0  0  0  0  0  0  0  0
   15.6947   70.2396   -7.9689 O   0  0  0  0  0  0  0  0  0  0  0  0
   19.5488   70.8244  -10.4276 O   0  0  0  0  0  0  0  0  0  0  0  0
   17.6933   70.6094   -6.8175 N   0  0  0  0  0  0  0  0  0  0  0  0
   17.6148   70.5312   -9.1912 N   0  0  0  0  0  0  0  0  0  0  0  0
   16.9102   70.4441   -7.9837 C   0  0  0  0  0  0  0  0  0  0  0  0
   19.0609   70.8396   -6.9212 C   0  0  0  0  0  0  0  0  0  0  0  0
   19.7178   70.9186   -8.0802 C   0  0  0  0  0  0  0  0  0  0  0  0
   18.9734   70.7572   -9.3458 C   0  0  0  0  0  0  0  0  0  0  0  0
   17.0899   70.4188  -10.0168 H   0  0  0  0  0  0  0  0  0  0  0  0
   22.2587   71.8592   -1.8477 O   0  0  0  0  0  0  0  0  0  0  0  0
   23.2058   72.7940   -2.7653 P   0  0  2  0  0  0  0  0  0  0  0  0
   24.2521   71.7420   -3.4106 O   0  0  0  0  0  0  0  0  0  0  0  0
   23.8483   73.9322   -2.0266 O   0  0  0  0  0  0  0  0  0  0  0  0
   22.2659   73.2424   -3.9983 O   0  0  0  0  0  0  0  0  0  0  0  0
   22.7009   75.5082   -4.5401 O   0  0  0  0  0  0  0  0  0  0  0  0
   19.4900   74.8349   -7.0477 O   0  0  0  0  0  0  0  0  0  0  0  0
   22.1287   75.0739   -8.1558 O   0  0  0  0  0  0  0  0  0  0  0  0
   19.5214   73.6707   -4.3975 O   0  0  0  0  0  0  0  0  0  0  0  0
   20.6846   74.4925   -6.3399 C   0  0  1  0  0  0  0  0  0  0  0  0
   21.8048   75.4213   -6.8124 C   0  0  1  0  0  0  0  0  0  0  0  0
   20.4426   74.6612   -4.8411 C   0  0  2  0  0  0  0  0  0  0  0  0
   23.0433   75.2967   -5.9148 C   0  0  1  0  0  0  0  0  0  0  0  0
   21.7453   74.5683   -4.0446 C   0  0  1  0  0  0  0  0  0  0  0  0
   19.6368   74.7294   -7.9999 H   0  0  0  0  0  0  0  0  0  0  0  0
   21.3381   75.1563   -8.7119 H   0  0  0  0  0  0  0  0  0  0  0  0
   18.7009   73.7402   -4.9091 H   0  0  0  0  0  0  0  0  0  0  0  0
   25.3467   75.9014   -5.7196 O   0  0  0  0  0  0  0  0  0  0  0  0
   24.1138   76.3259   -6.2712 C   0  0  0  0  0  0  0  0  0  0  0  0
   26.0375   76.5467   -5.9387 H   0  0  0  0  0  0  0  0  0  0  0  0
 25 28  1  0
 25 24  1  0
 25 26  1  6
 25 27  2  0
  1  4  1  0
  1 24  1  0
  1  2  1  1
  1  3  2  0
  6 11  1  0
  6 12  1  0
 29 36  1  0
 29 37  1  0
  9  7  1  6
  7 13  1  0
 10  8  1  1
  8 14  1  0
 37 28  1  6
  4  5  1  0
 33 30  1  6
 30 38  1  0
 34 31  1  6
 31 39  1  0
 35 32  1  1
 32 40  1  0
 41 42  1  0
 41 43  1  0
 15 19  2  0
 16 22  2  0
 12 17  1  6
 17 19  1  0
 17 20  1  0
 18 19  1  0
 18 22  1  0
 18 23  1  0
  9 10  1  0
  9 11  1  0
 10 12  1  0
 11  5  1  6
 33 34  1  0
 33 35  1  0
 34 36  1  0
 35 37  1  0
 36 42  1  6
 20 21  2  0
 21 22  1  0
M  CHG  2   2  -1  26  -1
M  END
>  <COMPND>  (162) 
    8629 

>  <AUTHOR>  (162) 
    GENERATED BY OPEN BABEL 3.1.1

>  <MASTER>  (162) 
        0    0    0    0    0    0    0    0   58    0   58    0

>  <minimizedAffinity>  (162) 
-7.06179

>  <CNNscore>  (162) 
0.8719819784

>  <CNNaffinity>  (162) 
4.5110468864

>  <CNN_VS>  (162) 
3.9335515499

>  <CNNaffinity_variance>  (162) 
0.5333656669

$$$$
163
     RDKit          3D

 43 45  0  0  0  0  0  0  0  0999 V2000
   22.8649   72.3004   -3.9222 P   0  0  2  0  0  0  0  0  0  0  0  0
   23.3386   73.2778   -5.1212 O   0  0  0  0  0  0  0  0  0  0  0  0
   23.9484   71.4417   -3.3390 O   0  0  0  0  0  0  0  0  0  0  0  0
   21.5988   71.5080   -4.5443 O   0  0  0  0  0  0  0  0  0  0  0  0
   20.9188   70.5718   -3.7264 C   0  0  0  0  0  0  0  0  0  0  0  0
   19.0223   71.7034   -4.6733 O   0  0  0  0  0  0  0  0  0  0  0  0
   17.4319   70.5282   -2.4193 O   0  0  0  0  0  0  0  0  0  0  0  0
   16.8082   68.8869   -4.5059 O   0  0  0  0  0  0  0  0  0  0  0  0
   18.5175   69.9598   -3.1499 C   0  0  1  0  0  0  0  0  0  0  0  0
   18.0598   69.5423   -4.5319 C   0  0  2  0  0  0  0  0  0  0  0  0
   19.5058   71.0755   -3.4657 C   0  0  1  0  0  0  0  0  0  0  0  0
   18.0076   70.8736   -5.2620 C   0  0  2  0  0  0  0  0  0  0  0  0
   16.7876   69.8344   -2.2059 H   0  0  0  0  0  0  0  0  0  0  0  0
   16.8935   68.0456   -4.0308 H   0  0  0  0  0  0  0  0  0  0  0  0
   16.0861   70.0970   -7.1811 O   0  0  0  0  0  0  0  0  0  0  0  0
   19.1377   70.3878  -10.6226 O   0  0  0  0  0  0  0  0  0  0  0  0
   18.2726   70.7386   -6.6666 N   0  0  0  0  0  0  0  0  0  0  0  0
   17.6071   70.2426   -8.8932 N   0  0  0  0  0  0  0  0  0  0  0  0
   17.2380   70.3418   -7.5456 C   0  0  0  0  0  0  0  0  0  0  0  0
   19.5466   70.9989   -7.1596 C   0  0  0  0  0  0  0  0  0  0  0  0
   19.8827   70.8984   -8.4473 C   0  0  0  0  0  0  0  0  0  0  0  0
   18.8600   70.4894   -9.4317 C   0  0  0  0  0  0  0  0  0  0  0  0
   16.9027   69.9674   -9.5240 H   0  0  0  0  0  0  0  0  0  0  0  0
   22.1761   73.3193   -2.8732 O   0  0  0  0  0  0  0  0  0  0  0  0
   22.8263   74.3713   -1.8324 P   0  0  2  0  0  0  0  0  0  0  0  0
   21.9216   75.6977   -2.0315 O   0  0  0  0  0  0  0  0  0  0  0  0
   24.2993   74.5925   -2.0204 O   0  0  0  0  0  0  0  0  0  0  0  0
   22.4146   73.8120   -0.3754 O   0  0  0  0  0  0  0  0  0  0  0  0
   23.2561   71.6630    0.1634 O   0  0  0  0  0  0  0  0  0  0  0  0
   20.3834   72.0045    3.1099 O   0  0  0  0  0  0  0  0  0  0  0  0
   23.1619   72.2023    3.8088 O   0  0  0  0  0  0  0  0  0  0  0  0
   19.8527   73.0193    0.4512 O   0  0  0  0  0  0  0  0  0  0  0  0
   21.3971   72.4754    2.2177 C   0  0  1  0  0  0  0  0  0  0  0  0
   22.6999   71.7417    2.5421 C   0  0  1  0  0  0  0  0  0  0  0  0
   20.9658   72.1948    0.7794 C   0  0  2  0  0  0  0  0  0  0  0  0
   23.7611   71.9936    1.4624 C   0  0  1  0  0  0  0  0  0  0  0  0
   22.1093   72.4298   -0.2092 C   0  0  1  0  0  0  0  0  0  0  0  0
   20.6508   72.1801    4.0248 H   0  0  0  0  0  0  0  0  0  0  0  0
   22.4824   72.0378    4.4815 H   0  0  0  0  0  0  0  0  0  0  0  0
   19.1355   72.8610    1.0841 H   0  0  0  0  0  0  0  0  0  0  0  0
   24.6781   70.0599    2.5250 O   0  0  0  0  0  0  0  0  0  0  0  0
   25.0132   71.1475    1.6828 C   0  0  0  0  0  0  0  0  0  0  0  0
   25.4655   69.5125    2.6738 H   0  0  0  0  0  0  0  0  0  0  0  0
 25 28  1  0
 25 24  1  0
 25 26  1  6
 25 27  2  0
  1  4  1  0
  1 24  1  0
  1  2  1  6
  1  3  2  0
  6 11  1  0
  6 12  1  0
 29 36  1  0
 29 37  1  0
  9  7  1  1
  7 13  1  0
 10  8  1  1
  8 14  1  0
 37 28  1  1
  4  5  1  0
 33 30  1  1
 30 38  1  0
 34 31  1  1
 31 39  1  0
 35 32  1  6
 32 40  1  0
 41 42  1  0
 41 43  1  0
 15 19  2  0
 16 22  2  0
 12 17  1  6
 17 19  1  0
 17 20  1  0
 18 19  1  0
 18 22  1  0
 18 23  1  0
  9 10  1  0
  9 11  1  0
 10 12  1  0
 11  5  1  6
 33 34  1  0
 33 35  1  0
 34 36  1  0
 35 37  1  0
 36 42  1  1
 20 21  2  0
 21 22  1  0
M  CHG  2   2  -1  26  -1
M  END
>  <COMPND>  (163) 
    8629 

>  <AUTHOR>  (163) 
    GENERATED BY OPEN BABEL 3.1.1

>  <MASTER>  (163) 
        0    0    0    0    0    0    0    0   58    0   58    0

>  <minimizedAffinity>  (163) 
-7.67738

>  <CNNscore>  (163) 
0.8650957346

>  <CNNaffinity>  (163) 
4.6931838989

>  <CNN_VS>  (163) 
4.0600533485

>  <CNNaffinity_variance>  (163) 
0.0638814345

$$$$
164
     RDKit          3D

 43 45  0  0  0  0  0  0  0  0999 V2000
   20.4377   71.2806   -1.2956 P   0  0  2  0  0  0  0  0  0  0  0  0
   20.9202   70.6933    0.1326 O   0  0  0  0  0  0  0  0  0  0  0  0
   19.8107   72.6427   -1.2416 O   0  0  0  0  0  0  0  0  0  0  0  0
   19.5103   70.1038   -1.9062 O   0  0  0  0  0  0  0  0  0  0  0  0
   19.1829   70.1471   -3.2841 C   0  0  0  0  0  0  0  0  0  0  0  0
   17.5214   71.2206   -4.6481 O   0  0  0  0  0  0  0  0  0  0  0  0
   15.5075   69.5568   -3.1761 O   0  0  0  0  0  0  0  0  0  0  0  0
   15.7858   68.2086   -5.5301 O   0  0  0  0  0  0  0  0  0  0  0  0
   16.8328   69.2192   -3.5824 C   0  0  1  0  0  0  0  0  0  0  0  0
   16.8796   68.9799   -5.0771 C   0  0  2  0  0  0  0  0  0  0  0  0
   17.7007   70.4624   -3.4319 C   0  0  1  0  0  0  0  0  0  0  0  0
   16.8618   70.3973   -5.6238 C   0  0  2  0  0  0  0  0  0  0  0  0
   14.9346   68.7783   -3.2631 H   0  0  0  0  0  0  0  0  0  0  0  0
   15.8421   67.3159   -5.1550 H   0  0  0  0  0  0  0  0  0  0  0  0
   15.6009   70.4302   -8.1510 O   0  0  0  0  0  0  0  0  0  0  0  0
   19.6267   70.8333  -10.3582 O   0  0  0  0  0  0  0  0  0  0  0  0
   17.5562   70.5103   -6.8754 N   0  0  0  0  0  0  0  0  0  0  0  0
   17.6064   70.6311   -9.2480 N   0  0  0  0  0  0  0  0  0  0  0  0
   16.8290   70.5162   -8.0885 C   0  0  0  0  0  0  0  0  0  0  0  0
   18.9429   70.6141   -6.8916 C   0  0  0  0  0  0  0  0  0  0  0  0
   19.6695   70.7217   -8.0059 C   0  0  0  0  0  0  0  0  0  0  0  0
   18.9867   70.7356   -9.3157 C   0  0  0  0  0  0  0  0  0  0  0  0
   17.1214   70.6370  -10.1050 H   0  0  0  0  0  0  0  0  0  0  0  0
   21.7771   71.1918   -2.1963 O   0  0  0  0  0  0  0  0  0  0  0  0
   22.9127   72.2953   -2.5215 P   0  0  2  0  0  0  0  0  0  0  0  0
   24.0307   71.4500   -3.3297 O   0  0  0  0  0  0  0  0  0  0  0  0
   23.4352   73.0154   -1.3122 O   0  0  0  0  0  0  0  0  0  0  0  0
   22.2437   73.2543   -3.6339 O   0  0  0  0  0  0  0  0  0  0  0  0
   20.0552   73.1988   -4.5416 O   0  0  0  0  0  0  0  0  0  0  0  0
   22.1329   74.3994   -7.9020 O   0  0  0  0  0  0  0  0  0  0  0  0
   20.4648   76.2834   -6.5180 O   0  0  0  0  0  0  0  0  0  0  0  0
   23.2935   72.4465   -6.1079 O   0  0  0  0  0  0  0  0  0  0  0  0
   21.8464   74.3311   -6.5025 C   0  0  1  0  0  0  0  0  0  0  0  0
   20.4366   74.8798   -6.2743 C   0  0  1  0  0  0  0  0  0  0  0  0
   21.9380   72.8767   -6.0447 C   0  0  2  0  0  0  0  0  0  0  0  0
   19.9560   74.5952   -4.8449 C   0  0  1  0  0  0  0  0  0  0  0  0
   21.3895   72.6948   -4.6282 C   0  0  1  0  0  0  0  0  0  0  0  0
   22.0770   75.3203   -8.1991 H   0  0  0  0  0  0  0  0  0  0  0  0
   20.7703   76.4495   -7.4237 H   0  0  0  0  0  0  0  0  0  0  0  0
   23.6289   72.5664   -7.0096 H   0  0  0  0  0  0  0  0  0  0  0  0
   18.4408   76.3829   -4.3791 O   0  0  0  0  0  0  0  0  0  0  0  0
   18.4956   74.9930   -4.6427 C   0  0  0  0  0  0  0  0  0  0  0  0
   17.5171   76.6504   -4.2486 H   0  0  0  0  0  0  0  0  0  0  0  0
 25 28  1  0
 25 24  1  0
 25 26  1  6
 25 27  2  0
  1  4  1  0
  1 24  1  0
  1  2  1  1
  1  3  2  0
  6 11  1  0
  6 12  1  0
 29 36  1  0
 29 37  1  0
  9  7  1  6
  7 13  1  0
 10  8  1  6
  8 14  1  0
 37 28  1  1
  4  5  1  0
 33 30  1  6
 30 38  1  0
 34 31  1  1
 31 39  1  0
 35 32  1  1
 32 40  1  0
 41 42  1  0
 41 43  1  0
 15 19  2  0
 16 22  2  0
 12 17  1  6
 17 19  1  0
 17 20  1  0
 18 19  1  0
 18 22  1  0
 18 23  1  0
  9 10  1  0
  9 11  1  0
 10 12  1  0
 11  5  1  6
 33 34  1  0
 33 35  1  0
 34 36  1  0
 35 37  1  0
 36 42  1  6
 20 21  2  0
 21 22  1  0
M  CHG  2   2  -1  26  -1
M  END
>  <COMPND>  (164) 
    8629 

>  <AUTHOR>  (164) 
    GENERATED BY OPEN BABEL 3.1.1

>  <MASTER>  (164) 
        0    0    0    0    0    0    0    0   58    0   58    0

>  <minimizedAffinity>  (164) 
-7.51950

>  <CNNscore>  (164) 
0.8522546887

>  <CNNaffinity>  (164) 
4.5330705643

>  <CNN_VS>  (164) 
3.8633306026

>  <CNNaffinity_variance>  (164) 
0.8202999830

$$$$
165
     RDKit          3D

 43 45  0  0  0  0  0  0  0  0999 V2000
   22.0606   72.6702   -6.1534 P   0  0  2  0  0  0  0  0  0  0  0  0
   21.0172   73.6897   -5.4538 O   0  0  0  0  0  0  0  0  0  0  0  0
   23.0378   73.3107   -7.0949 O   0  0  0  0  0  0  0  0  0  0  0  0
   21.1142   71.5253   -6.7948 O   0  0  0  0  0  0  0  0  0  0  0  0
   20.4731   71.7918   -8.0300 C   0  0  0  0  0  0  0  0  0  0  0  0
   19.2520   69.8675   -7.2687 O   0  0  0  0  0  0  0  0  0  0  0  0
   18.0857   69.7485  -10.0285 O   0  0  0  0  0  0  0  0  0  0  0  0
   16.0845   70.9124   -8.5872 O   0  0  0  0  0  0  0  0  0  0  0  0
   18.4261   70.8886   -9.2413 C   0  0  1  0  0  0  0  0  0  0  0  0
   17.4118   71.0848   -8.1339 C   0  0  2  0  0  0  0  0  0  0  0  0
   19.6911   70.5579   -8.4591 C   0  0  1  0  0  0  0  0  0  0  0  0
   17.8300   70.0223   -7.1317 C   0  0  2  0  0  0  0  0  0  0  0  0
   17.2808   69.9359  -10.5375 H   0  0  0  0  0  0  0  0  0  0  0  0
   15.8661   71.6123   -9.2222 H   0  0  0  0  0  0  0  0  0  0  0  0
   16.3334   68.4414   -5.3320 O   0  0  0  0  0  0  0  0  0  0  0  0
   16.7400   71.5629   -1.9657 O   0  0  0  0  0  0  0  0  0  0  0  0
   17.5300   70.3974   -5.7787 N   0  0  0  0  0  0  0  0  0  0  0  0
   16.5372   69.9969   -3.6573 N   0  0  0  0  0  0  0  0  0  0  0  0
   16.7699   69.5319   -4.9579 C   0  0  0  0  0  0  0  0  0  0  0  0
   17.9880   71.6113   -5.2783 C   0  0  0  0  0  0  0  0  0  0  0  0
   17.7564   72.0407   -4.0360 C   0  0  0  0  0  0  0  0  0  0  0  0
   16.9701   71.1961   -3.1139 C   0  0  0  0  0  0  0  0  0  0  0  0
   16.0096   69.4108   -3.0675 H   0  0  0  0  0  0  0  0  0  0  0  0
   22.7359   71.9186   -4.8917 O   0  0  0  0  0  0  0  0  0  0  0  0
   23.5069   72.5026   -3.5965 P   0  0  2  0  0  0  0  0  0  0  0  0
   24.4236   71.2582   -3.1181 O   0  0  0  0  0  0  0  0  0  0  0  0
   22.5980   73.0471   -2.5329 O   0  0  0  0  0  0  0  0  0  0  0  0
   24.5549   73.5749   -4.1940 O   0  0  0  0  0  0  0  0  0  0  0  0
   26.1653   75.1673   -3.4958 O   0  0  0  0  0  0  0  0  0  0  0  0
   23.7412   77.6284   -5.7581 O   0  0  0  0  0  0  0  0  0  0  0  0
   26.3304   76.8846   -6.7536 O   0  0  0  0  0  0  0  0  0  0  0  0
   22.5642   75.5515   -4.1209 O   0  0  0  0  0  0  0  0  0  0  0  0
   24.4041   76.4076   -5.4183 C   0  0  1  0  0  0  0  0  0  0  0  0
   25.9119   76.6670   -5.4090 C   0  0  1  0  0  0  0  0  0  0  0  0
   23.9291   75.9482   -4.0411 C   0  0  2  0  0  0  0  0  0  0  0  0
   26.6738   75.4839   -4.7970 C   0  0  1  0  0  0  0  0  0  0  0  0
   24.7844   74.7999   -3.5027 C   0  0  1  0  0  0  0  0  0  0  0  0
   24.0380   77.9253   -6.6317 H   0  0  0  0  0  0  0  0  0  0  0  0
   25.8413   77.6339   -7.1285 H   0  0  0  0  0  0  0  0  0  0  0  0
   22.0333   76.2870   -4.4627 H   0  0  0  0  0  0  0  0  0  0  0  0
   28.9007   74.6861   -5.1338 O   0  0  0  0  0  0  0  0  0  0  0  0
   28.1619   75.7851   -4.6331 C   0  0  0  0  0  0  0  0  0  0  0  0
   29.8497   74.8640   -5.0363 H   0  0  0  0  0  0  0  0  0  0  0  0
 25 28  1  0
 25 24  1  0
 25 26  1  1
 25 27  2  0
  1  4  1  0
  1 24  1  0
  1  2  1  1
  1  3  2  0
  6 11  1  0
  6 12  1  0
 29 36  1  0
 29 37  1  0
  9  7  1  6
  7 13  1  0
 10  8  1  6
  8 14  1  0
 37 28  1  6
  4  5  1  0
 33 30  1  1
 30 38  1  0
 34 31  1  6
 31 39  1  0
 35 32  1  6
 32 40  1  0
 41 42  1  0
 41 43  1  0
 15 19  2  0
 16 22  2  0
 12 17  1  1
 17 19  1  0
 17 20  1  0
 18 19  1  0
 18 22  1  0
 18 23  1  0
  9 10  1  0
  9 11  1  0
 10 12  1  0
 11  5  1  1
 33 34  1  0
 33 35  1  0
 34 36  1  0
 35 37  1  0
 36 42  1  1
 20 21  2  0
 21 22  1  0
M  CHG  2   2  -1  26  -1
M  END
>  <COMPND>  (165) 
    8629 

>  <AUTHOR>  (165) 
    GENERATED BY OPEN BABEL 3.1.1

>  <MASTER>  (165) 
        0    0    0    0    0    0    0    0   58    0   58    0

>  <minimizedAffinity>  (165) 
-7.09766

>  <CNNscore>  (165) 
0.8506093621

>  <CNNaffinity>  (165) 
4.6881623268

>  <CNN_VS>  (165) 
3.9877948761

>  <CNNaffinity_variance>  (165) 
0.2761858404

$$$$
166
     RDKit          3D

 43 45  0  0  0  0  0  0  0  0999 V2000
   20.9943   73.5067   -3.3774 P   0  0  2  0  0  0  0  0  0  0  0  0
   20.5595   73.7634   -1.8403 O   0  0  0  0  0  0  0  0  0  0  0  0
   21.5435   74.7077   -4.0897 O   0  0  0  0  0  0  0  0  0  0  0  0
   19.6835   72.8326   -4.0445 O   0  0  0  0  0  0  0  0  0  0  0  0
   19.1239   71.6867   -3.4268 C   0  0  0  0  0  0  0  0  0  0  0  0
   17.3451   72.0569   -4.9994 O   0  0  0  0  0  0  0  0  0  0  0  0
   15.5907   70.5615   -3.0820 O   0  0  0  0  0  0  0  0  0  0  0  0
   16.1417   68.6784   -4.9759 O   0  0  0  0  0  0  0  0  0  0  0  0
   16.9628   70.3442   -3.4068 C   0  0  1  0  0  0  0  0  0  0  0  0
   17.0849   69.7117   -4.7774 C   0  0  2  0  0  0  0  0  0  0  0  0
   17.6144   71.7041   -3.6248 C   0  0  1  0  0  0  0  0  0  0  0  0
   16.8518   70.9001   -5.6947 C   0  0  2  0  0  0  0  0  0  0  0  0
   15.1535   69.7070   -2.9378 H   0  0  0  0  0  0  0  0  0  0  0  0
   16.3322   67.9457   -4.3696 H   0  0  0  0  0  0  0  0  0  0  0  0
   15.6022   70.4022   -8.1783 O   0  0  0  0  0  0  0  0  0  0  0  0
   19.6299   70.4326  -10.4184 O   0  0  0  0  0  0  0  0  0  0  0  0
   17.5498   70.7736   -6.9430 N   0  0  0  0  0  0  0  0  0  0  0  0
   17.6087   70.4179   -9.2917 N   0  0  0  0  0  0  0  0  0  0  0  0
   16.8282   70.5225   -8.1333 C   0  0  0  0  0  0  0  0  0  0  0  0
   18.9343   70.8987   -6.9786 C   0  0  0  0  0  0  0  0  0  0  0  0
   19.6639   70.7950   -8.0913 C   0  0  0  0  0  0  0  0  0  0  0  0
   18.9871   70.5333   -9.3780 C   0  0  0  0  0  0  0  0  0  0  0  0
   17.1276   70.2428  -10.1329 H   0  0  0  0  0  0  0  0  0  0  0  0
   22.0225   72.2648   -3.2616 O   0  0  0  0  0  0  0  0  0  0  0  0
   23.5415   72.1917   -2.7135 P   0  0  2  0  0  0  0  0  0  0  0  0
   24.1923   73.5769   -3.2382 O   0  0  0  0  0  0  0  0  0  0  0  0
   24.2883   70.9587   -3.1328 O   0  0  0  0  0  0  0  0  0  0  0  0
   23.4091   72.3828   -1.1164 O   0  0  0  0  0  0  0  0  0  0  0  0
   24.4806   71.1948    0.6321 O   0  0  0  0  0  0  0  0  0  0  0  0
   20.8269   71.8680    2.4343 O   0  0  0  0  0  0  0  0  0  0  0  0
   23.1357   73.3279    3.3210 O   0  0  0  0  0  0  0  0  0  0  0  0
   20.9507   71.2416   -0.3891 O   0  0  0  0  0  0  0  0  0  0  0  0
   21.9429   72.1785    1.5956 C   0  0  1  0  0  0  0  0  0  0  0  0
   23.2042   72.1934    2.4615 C   0  0  1  0  0  0  0  0  0  0  0  0
   22.0548   71.1189    0.5010 C   0  0  2  0  0  0  0  0  0  0  0  0
   24.4698   72.2544    1.5958 C   0  0  1  0  0  0  0  0  0  0  0  0
   23.3717   71.2381   -0.2681 C   0  0  1  0  0  0  0  0  0  0  0  0
   20.7500   72.5373    3.1312 H   0  0  0  0  0  0  0  0  0  0  0  0
   22.3319   73.2774    3.8617 H   0  0  0  0  0  0  0  0  0  0  0  0
   20.1231   71.1641    0.1098 H   0  0  0  0  0  0  0  0  0  0  0  0
   26.4142   70.9338    2.0252 O   0  0  0  0  0  0  0  0  0  0  0  0
   25.7409   72.1115    2.4302 C   0  0  0  0  0  0  0  0  0  0  0  0
   27.2254   70.8300    2.5476 H   0  0  0  0  0  0  0  0  0  0  0  0
 25 28  1  0
 25 24  1  0
 25 26  1  6
 25 27  2  0
  1  4  1  0
  1 24  1  0
  1  2  1  1
  1  3  2  0
  6 11  1  0
  6 12  1  0
 29 36  1  0
 29 37  1  0
  9  7  1  6
  7 13  1  0
 10  8  1  1
  8 14  1  0
 37 28  1  1
  4  5  1  0
 33 30  1  1
 30 38  1  0
 34 31  1  1
 31 39  1  0
 35 32  1  6
 32 40  1  0
 41 42  1  0
 41 43  1  0
 15 19  2  0
 16 22  2  0
 12 17  1  6
 17 19  1  0
 17 20  1  0
 18 19  1  0
 18 22  1  0
 18 23  1  0
  9 10  1  0
  9 11  1  0
 10 12  1  0
 11  5  1  6
 33 34  1  0
 33 35  1  0
 34 36  1  0
 35 37  1  0
 36 42  1  1
 20 21  2  0
 21 22  1  0
M  CHG  2   2  -1  26  -1
M  END
>  <COMPND>  (166) 
    8629 

>  <AUTHOR>  (166) 
    GENERATED BY OPEN BABEL 3.1.1

>  <MASTER>  (166) 
        0    0    0    0    0    0    0    0   58    0   58    0

>  <minimizedAffinity>  (166) 
-7.55664

>  <CNNscore>  (166) 
0.8379573822

>  <CNNaffinity>  (166) 
4.6757535934

>  <CNN_VS>  (166) 
3.9180822372

>  <CNNaffinity_variance>  (166) 
0.0595547333

$$$$
167
     RDKit          3D

 43 45  0  0  0  0  0  0  0  0999 V2000
   21.8740   72.5916   -5.5438 P   0  0  2  0  0  0  0  0  0  0  0  0
   21.2732   74.0584   -5.2197 O   0  0  0  0  0  0  0  0  0  0  0  0
   23.1078   72.5865   -6.3976 O   0  0  0  0  0  0  0  0  0  0  0  0
   20.6079   71.7750   -6.1338 O   0  0  0  0  0  0  0  0  0  0  0  0
   20.1700   72.0651   -7.4498 C   0  0  0  0  0  0  0  0  0  0  0  0
   18.9919   70.0272   -6.9676 O   0  0  0  0  0  0  0  0  0  0  0  0
   18.2083   70.0152   -9.8619 O   0  0  0  0  0  0  0  0  0  0  0  0
   15.9616   70.9641   -8.6417 O   0  0  0  0  0  0  0  0  0  0  0  0
   18.3650   71.1210   -8.9742 C   0  0  1  0  0  0  0  0  0  0  0  0
   17.2034   71.1858   -8.0047 C   0  0  2  0  0  0  0  0  0  0  0  0
   19.5358   70.8168   -8.0479 C   0  0  1  0  0  0  0  0  0  0  0  0
   17.5571   70.0883   -7.0154 C   0  0  2  0  0  0  0  0  0  0  0  0
   17.4663   70.1865  -10.4636 H   0  0  0  0  0  0  0  0  0  0  0  0
   15.7818   71.6888   -9.2607 H   0  0  0  0  0  0  0  0  0  0  0  0
   16.3180   68.1686   -5.3548 O   0  0  0  0  0  0  0  0  0  0  0  0
   15.6786   71.2365   -1.9753 O   0  0  0  0  0  0  0  0  0  0  0  0
   17.0577   70.3580   -5.6966 N   0  0  0  0  0  0  0  0  0  0  0  0
   16.0008   69.6977   -3.6733 N   0  0  0  0  0  0  0  0  0  0  0  0
   16.4515   69.3239   -4.9458 C   0  0  0  0  0  0  0  0  0  0  0  0
   17.1717   71.6360   -5.1603 C   0  0  0  0  0  0  0  0  0  0  0  0
   16.7356   71.9765   -3.9457 C   0  0  0  0  0  0  0  0  0  0  0  0
   16.0901   70.9547   -3.0965 C   0  0  0  0  0  0  0  0  0  0  0  0
   15.5747   68.9938   -3.1323 H   0  0  0  0  0  0  0  0  0  0  0  0
   22.0698   71.9463   -4.0747 O   0  0  0  0  0  0  0  0  0  0  0  0
   23.2756   72.0839   -3.0069 P   0  0  2  0  0  0  0  0  0  0  0  0
   23.8897   73.5460   -3.3272 O   0  0  0  0  0  0  0  0  0  0  0  0
   24.2765   70.9663   -3.0616 O   0  0  0  0  0  0  0  0  0  0  0  0
   22.5404   72.2542   -1.5802 O   0  0  0  0  0  0  0  0  0  0  0  0
   24.0262   71.9516    0.2412 O   0  0  0  0  0  0  0  0  0  0  0  0
   20.4487   71.9663    2.3033 O   0  0  0  0  0  0  0  0  0  0  0  0
   22.2084   74.2274    2.5007 O   0  0  0  0  0  0  0  0  0  0  0  0
   20.6206   70.6729   -0.2807 O   0  0  0  0  0  0  0  0  0  0  0  0
   21.3605   72.3577    1.2734 C   0  0  1  0  0  0  0  0  0  0  0  0
   22.5931   72.9777    1.9345 C   0  0  1  0  0  0  0  0  0  0  0  0
   21.7501   71.1266    0.4573 C   0  0  2  0  0  0  0  0  0  0  0  0
   23.7253   73.1777    0.9179 C   0  0  1  0  0  0  0  0  0  0  0  0
   22.9171   71.4210   -0.4870 C   0  0  1  0  0  0  0  0  0  0  0  0
   20.1969   72.7435    2.8249 H   0  0  0  0  0  0  0  0  0  0  0  0
   21.4926   74.0871    3.1404 H   0  0  0  0  0  0  0  0  0  0  0  0
   19.8889   70.4897    0.3283 H   0  0  0  0  0  0  0  0  0  0  0  0
   25.0380   73.1614    2.9143 O   0  0  0  0  0  0  0  0  0  0  0  0
   25.0163   73.6475    1.5848 C   0  0  0  0  0  0  0  0  0  0  0  0
   25.8543   73.4524    3.3510 H   0  0  0  0  0  0  0  0  0  0  0  0
 25 28  1  0
 25 24  1  0
 25 26  1  6
 25 27  2  0
  1  4  1  0
  1 24  1  0
  1  2  1  1
  1  3  2  0
  6 11  1  0
  6 12  1  0
 29 36  1  0
 29 37  1  0
  9  7  1  6
  7 13  1  0
 10  8  1  6
  8 14  1  0
 37 28  1  6
  4  5  1  0
 33 30  1  1
 30 38  1  0
 34 31  1  6
 31 39  1  0
 35 32  1  6
 32 40  1  0
 41 42  1  0
 41 43  1  0
 15 19  2  0
 16 22  2  0
 12 17  1  1
 17 19  1  0
 17 20  1  0
 18 19  1  0
 18 22  1  0
 18 23  1  0
  9 10  1  0
  9 11  1  0
 10 12  1  0
 11  5  1  1
 33 34  1  0
 33 35  1  0
 34 36  1  0
 35 37  1  0
 36 42  1  1
 20 21  2  0
 21 22  1  0
M  CHG  2   2  -1  26  -1
M  END
>  <COMPND>  (167) 
    8629 

>  <AUTHOR>  (167) 
    GENERATED BY OPEN BABEL 3.1.1

>  <MASTER>  (167) 
        0    0    0    0    0    0    0    0   58    0   58    0

>  <minimizedAffinity>  (167) 
-7.96451

>  <CNNscore>  (167) 
0.7802898288

>  <CNNaffinity>  (167) 
4.5394034386

>  <CNN_VS>  (167) 
3.5420503616

>  <CNNaffinity_variance>  (167) 
0.1759981513

$$$$
168
     RDKit          3D

 43 45  0  0  0  0  0  0  0  0999 V2000
   21.8755   72.5963   -5.3975 P   0  0  2  0  0  0  0  0  0  0  0  0
   21.2665   74.0714   -5.1318 O   0  0  0  0  0  0  0  0  0  0  0  0
   23.1221   72.5662   -6.2322 O   0  0  0  0  0  0  0  0  0  0  0  0
   20.6204   71.7567   -5.9787 O   0  0  0  0  0  0  0  0  0  0  0  0
   20.1265   72.0832   -7.2660 C   0  0  0  0  0  0  0  0  0  0  0  0
   18.8705   70.0839   -6.8198 O   0  0  0  0  0  0  0  0  0  0  0  0
   18.2287   70.0575   -9.7486 O   0  0  0  0  0  0  0  0  0  0  0  0
   15.9524   71.0818   -8.6505 O   0  0  0  0  0  0  0  0  0  0  0  0
   18.3725   71.1695   -8.8665 C   0  0  1  0  0  0  0  0  0  0  0  0
   17.1673   71.2776   -7.9558 C   0  0  2  0  0  0  0  0  0  0  0  0
   19.4880   70.8452   -7.8807 C   0  0  1  0  0  0  0  0  0  0  0  0
   17.4419   70.1833   -6.9385 C   0  0  2  0  0  0  0  0  0  0  0  0
   17.5219   70.2414  -10.3879 H   0  0  0  0  0  0  0  0  0  0  0  0
   15.8229   71.8034   -9.2855 H   0  0  0  0  0  0  0  0  0  0  0  0
   16.4980   68.2411   -5.1178 O   0  0  0  0  0  0  0  0  0  0  0  0
   15.3306   71.4475   -2.0198 O   0  0  0  0  0  0  0  0  0  0  0  0
   16.8866   70.4826   -5.6487 N   0  0  0  0  0  0  0  0  0  0  0  0
   15.9176   69.8392   -3.5766 N   0  0  0  0  0  0  0  0  0  0  0  0
   16.4407   69.4337   -4.8111 C   0  0  0  0  0  0  0  0  0  0  0  0
   16.7888   71.8038   -5.2260 C   0  0  0  0  0  0  0  0  0  0  0  0
   16.2863   72.1739   -4.0463 C   0  0  0  0  0  0  0  0  0  0  0  0
   15.7981   71.1393   -3.1117 C   0  0  0  0  0  0  0  0  0  0  0  0
   15.6004   69.1257   -2.9766 H   0  0  0  0  0  0  0  0  0  0  0  0
   22.0509   72.0012   -3.9048 O   0  0  0  0  0  0  0  0  0  0  0  0
   23.3102   72.0298   -2.8918 P   0  0  2  0  0  0  0  0  0  0  0  0
   23.9384   73.5028   -3.1222 O   0  0  0  0  0  0  0  0  0  0  0  0
   24.2835   70.9037   -3.0881 O   0  0  0  0  0  0  0  0  0  0  0  0
   22.6495   72.0940   -1.4206 O   0  0  0  0  0  0  0  0  0  0  0  0
   22.2281   73.9559   -0.0162 O   0  0  0  0  0  0  0  0  0  0  0  0
   23.2646   71.1808    2.8605 O   0  0  0  0  0  0  0  0  0  0  0  0
   20.5220   71.9905    2.5945 O   0  0  0  0  0  0  0  0  0  0  0  0
   24.6661   71.2277    0.3281 O   0  0  0  0  0  0  0  0  0  0  0  0
   22.6828   71.6308    1.6340 C   0  0  1  0  0  0  0  0  0  0  0  0
   21.6069   72.6669    1.9652 C   0  0  1  0  0  0  0  0  0  0  0  0
   23.7736   72.2487    0.7612 C   0  0  2  0  0  0  0  0  0  0  0  0
   21.1247   73.3888    0.6998 C   0  0  1  0  0  0  0  0  0  0  0  0
   23.1840   72.9837   -0.4439 C   0  0  1  0  0  0  0  0  0  0  0  0
   22.5773   70.7870    3.4191 H   0  0  0  0  0  0  0  0  0  0  0  0
   20.8400   71.5385    3.3918 H   0  0  0  0  0  0  0  0  0  0  0  0
   25.0328   70.7701    1.1002 H   0  0  0  0  0  0  0  0  0  0  0  0
   18.8696   73.9975    1.2030 O   0  0  0  0  0  0  0  0  0  0  0  0
   20.1676   74.5337    1.0241 C   0  0  0  0  0  0  0  0  0  0  0  0
   18.2498   74.7148    1.4103 H   0  0  0  0  0  0  0  0  0  0  0  0
 25 28  1  0
 25 24  1  0
 25 26  1  6
 25 27  2  0
  1  4  1  0
  1 24  1  0
  1  2  1  1
  1  3  2  0
  6 11  1  0
  6 12  1  0
 29 36  1  0
 29 37  1  0
  9  7  1  6
  7 13  1  0
 10  8  1  6
  8 14  1  0
 37 28  1  6
  4  5  1  0
 33 30  1  1
 30 38  1  0
 34 31  1  6
 31 39  1  0
 35 32  1  6
 32 40  1  0
 41 42  1  0
 41 43  1  0
 15 19  2  0
 16 22  2  0
 12 17  1  1
 17 19  1  0
 17 20  1  0
 18 19  1  0
 18 22  1  0
 18 23  1  0
  9 10  1  0
  9 11  1  0
 10 12  1  0
 11  5  1  1
 33 34  1  0
 33 35  1  0
 34 36  1  0
 35 37  1  0
 36 42  1  1
 20 21  2  0
 21 22  1  0
M  CHG  2   2  -1  26  -1
M  END
>  <COMPND>  (168) 
    8629 

>  <AUTHOR>  (168) 
    GENERATED BY OPEN BABEL 3.1.1

>  <MASTER>  (168) 
        0    0    0    0    0    0    0    0   58    0   58    0

>  <minimizedAffinity>  (168) 
-7.52694

>  <CNNscore>  (168) 
0.7481238842

>  <CNNaffinity>  (168) 
4.4558577538

>  <CNN_VS>  (168) 
3.3335335255

>  <CNNaffinity_variance>  (168) 
0.2469000071

$$$$
169
     RDKit          3D

 43 45  0  0  0  0  0  0  0  0999 V2000
   20.7765   74.6030   -2.7909 P   0  0  2  0  0  0  0  0  0  0  0  0
   21.3007   76.0227   -3.3630 O   0  0  0  0  0  0  0  0  0  0  0  0
   19.6559   74.6950   -1.7974 O   0  0  0  0  0  0  0  0  0  0  0  0
   22.1227   73.8748   -2.2663 O   0  0  0  0  0  0  0  0  0  0  0  0
   22.3340   73.7696   -0.8691 C   0  0  0  0  0  0  0  0  0  0  0  0
   23.5234   71.9125    0.0848 O   0  0  0  0  0  0  0  0  0  0  0  0
   20.8339   70.6742    0.5581 O   0  0  0  0  0  0  0  0  0  0  0  0
   21.4797   71.6519    3.0205 O   0  0  0  0  0  0  0  0  0  0  0  0
   21.2222   72.0448    0.6350 C   0  0  1  0  0  0  0  0  0  0  0  0
   22.0344   72.2916    1.8892 C   0  0  2  0  0  0  0  0  0  0  0  0
   22.2459   72.3048   -0.4632 C   0  0  1  0  0  0  0  0  0  0  0  0
   23.3901   71.7249    1.5032 C   0  0  2  0  0  0  0  0  0  0  0  0
   20.1800   70.4843    1.2497 H   0  0  0  0  0  0  0  0  0  0  0  0
   20.6183   72.0476    3.2259 H   0  0  0  0  0  0  0  0  0  0  0  0
   26.0013   70.6776    1.7539 O   0  0  0  0  0  0  0  0  0  0  0  0
   27.4635   74.3854    4.0681 O   0  0  0  0  0  0  0  0  0  0  0  0
   24.4729   72.3955    2.1660 N   0  0  0  0  0  0  0  0  0  0  0  0
   26.7273   72.5247    2.9058 N   0  0  0  0  0  0  0  0  0  0  0  0
   25.7454   71.7823    2.2374 C   0  0  0  0  0  0  0  0  0  0  0  0
   24.2676   73.6472    2.7362 C   0  0  0  0  0  0  0  0  0  0  0  0
   25.2141   74.3415    3.3713 C   0  0  0  0  0  0  0  0  0  0  0  0
   26.5718   73.7718    3.4901 C   0  0  0  0  0  0  0  0  0  0  0  0
   27.6216   72.1172    2.9683 H   0  0  0  0  0  0  0  0  0  0  0  0
   20.4181   73.7795   -4.1349 O   0  0  0  0  0  0  0  0  0  0  0  0
   19.8578   72.2775   -4.3419 P   0  0  2  0  0  0  0  0  0  0  0  0
   18.3296   72.3764   -3.8199 O   0  0  0  0  0  0  0  0  0  0  0  0
   20.6761   71.2166   -3.6646 O   0  0  0  0  0  0  0  0  0  0  0  0
   19.7317   72.1053   -5.9417 O   0  0  0  0  0  0  0  0  0  0  0  0
   18.8840   69.9009   -6.1382 O   0  0  0  0  0  0  0  0  0  0  0  0
   18.7686   71.0090  -10.1143 O   0  0  0  0  0  0  0  0  0  0  0  0
   16.3180   70.7808   -8.6343 O   0  0  0  0  0  0  0  0  0  0  0  0
   20.9771   71.8526   -8.4438 O   0  0  0  0  0  0  0  0  0  0  0  0
   18.6698   71.2113   -8.7020 C   0  0  1  0  0  0  0  0  0  0  0  0
   17.5710   70.2938   -8.1618 C   0  0  1  0  0  0  0  0  0  0  0  0
   20.0133   70.8797   -8.0551 C   0  0  2  0  0  0  0  0  0  0  0  0
   17.5855   70.2558   -6.6278 C   0  0  1  0  0  0  0  0  0  0  0  0
   19.9063   70.8191   -6.5303 C   0  0  1  0  0  0  0  0  0  0  0  0
   17.9189   71.2183  -10.5312 H   0  0  0  0  0  0  0  0  0  0  0  0
   16.3222   70.8002   -9.6042 H   0  0  0  0  0  0  0  0  0  0  0  0
   21.0356   71.8811   -9.4111 H   0  0  0  0  0  0  0  0  0  0  0  0
   17.0046   68.8867   -4.7578 O   0  0  0  0  0  0  0  0  0  0  0  0
   16.6028   69.2275   -6.0718 C   0  0  0  0  0  0  0  0  0  0  0  0
   16.3880   68.2331   -4.3911 H   0  0  0  0  0  0  0  0  0  0  0  0
 25 28  1  0
 25 24  1  0
 25 26  1  1
 25 27  2  0
  1  4  1  0
  1 24  1  0
  1  2  1  6
  1  3  2  0
  6 11  1  0
  6 12  1  0
 29 36  1  0
 29 37  1  0
  9  7  1  1
  7 13  1  0
 10  8  1  1
  8 14  1  0
 37 28  1  6
  4  5  1  0
 33 30  1  6
 30 38  1  0
 34 31  1  1
 31 39  1  0
 35 32  1  1
 32 40  1  0
 41 42  1  0
 41 43  1  0
 15 19  2  0
 16 22  2  0
 12 17  1  1
 17 19  1  0
 17 20  1  0
 18 19  1  0
 18 22  1  0
 18 23  1  0
  9 10  1  0
  9 11  1  0
 10 12  1  0
 11  5  1  1
 33 34  1  0
 33 35  1  0
 34 36  1  0
 35 37  1  0
 36 42  1  6
 20 21  2  0
 21 22  1  0
M  CHG  2   2  -1  26  -1
M  END
>  <COMPND>  (169) 
    8629 

>  <AUTHOR>  (169) 
    GENERATED BY OPEN BABEL 3.1.1

>  <MASTER>  (169) 
        0    0    0    0    0    0    0    0   58    0   58    0

>  <minimizedAffinity>  (169) 
-7.08317

>  <CNNscore>  (169) 
0.6863223314

>  <CNNaffinity>  (169) 
4.3569030762

>  <CNN_VS>  (169) 
2.9902398586

>  <CNNaffinity_variance>  (169) 
0.3211195171

$$$$
170
     RDKit          3D

 43 45  0  0  0  0  0  0  0  0999 V2000
   23.0705   73.6387   -3.8293 P   0  0  2  0  0  0  0  0  0  0  0  0
   24.3026   72.6517   -4.1830 O   0  0  0  0  0  0  0  0  0  0  0  0
   23.3987   75.1023   -3.8712 O   0  0  0  0  0  0  0  0  0  0  0  0
   22.5211   73.0821   -2.4129 O   0  0  0  0  0  0  0  0  0  0  0  0
   22.7234   73.8698   -1.2526 C   0  0  0  0  0  0  0  0  0  0  0  0
   23.1833   73.5351    1.0820 O   0  0  0  0  0  0  0  0  0  0  0  0
   24.3075   70.8715    0.2868 O   0  0  0  0  0  0  0  0  0  0  0  0
   21.8371   70.2144    1.2366 O   0  0  0  0  0  0  0  0  0  0  0  0
   23.1915   71.5773   -0.2532 C   0  0  1  0  0  0  0  0  0  0  0  0
   22.0154   71.5088    0.6985 C   0  0  2  0  0  0  0  0  0  0  0  0
   23.5253   73.0639   -0.2398 C   0  0  1  0  0  0  0  0  0  0  0  0
   22.4032   72.5318    1.7527 C   0  0  2  0  0  0  0  0  0  0  0  0
   24.1179   69.9197    0.2882 H   0  0  0  0  0  0  0  0  0  0  0  0
   21.5915   69.6003    0.5272 H   0  0  0  0  0  0  0  0  0  0  0  0
   22.0970   72.9570    4.5282 O   0  0  0  0  0  0  0  0  0  0  0  0
   17.9745   74.9364    3.9559 O   0  0  0  0  0  0  0  0  0  0  0  0
   21.2600   73.1564    2.3564 N   0  0  0  0  0  0  0  0  0  0  0  0
   20.0447   73.9424    4.2410 N   0  0  0  0  0  0  0  0  0  0  0  0
   21.2044   73.3213    3.7600 C   0  0  0  0  0  0  0  0  0  0  0  0
   20.2099   73.5983    1.5589 C   0  0  0  0  0  0  0  0  0  0  0  0
   19.1103   74.1875    2.0332 C   0  0  0  0  0  0  0  0  0  0  0  0
   18.9733   74.3977    3.4889 C   0  0  0  0  0  0  0  0  0  0  0  0
   19.9836   74.0675    5.2158 H   0  0  0  0  0  0  0  0  0  0  0  0
   21.9240   73.1764   -4.8708 O   0  0  0  0  0  0  0  0  0  0  0  0
   20.4081   72.6716   -4.6254 P   0  0  2  0  0  0  0  0  0  0  0  0
   19.6225   74.0315   -4.2366 O   0  0  0  0  0  0  0  0  0  0  0  0
   20.2822   71.5721   -3.6110 O   0  0  0  0  0  0  0  0  0  0  0  0
   19.8613   72.2911   -6.0955 O   0  0  0  0  0  0  0  0  0  0  0  0
   19.0152   70.0773   -6.0995 O   0  0  0  0  0  0  0  0  0  0  0  0
   18.7882   70.8776  -10.1441 O   0  0  0  0  0  0  0  0  0  0  0  0
   16.3795   70.7610   -8.5844 O   0  0  0  0  0  0  0  0  0  0  0  0
   21.0387   71.8487   -8.6041 O   0  0  0  0  0  0  0  0  0  0  0  0
   18.7273   71.1873   -8.7492 C   0  0  1  0  0  0  0  0  0  0  0  0
   17.6464   70.3129   -8.1105 C   0  0  1  0  0  0  0  0  0  0  0  0
   20.0889   70.9075   -8.1158 C   0  0  2  0  0  0  0  0  0  0  0  0
   17.7028   70.3924   -6.5790 C   0  0  1  0  0  0  0  0  0  0  0  0
   20.0237   70.9637   -6.5885 C   0  0  1  0  0  0  0  0  0  0  0  0
   17.9269   71.0535  -10.5523 H   0  0  0  0  0  0  0  0  0  0  0  0
   16.3573   70.7061   -9.5527 H   0  0  0  0  0  0  0  0  0  0  0  0
   21.0708   71.8030   -9.5720 H   0  0  0  0  0  0  0  0  0  0  0  0
   16.1085   70.0587   -4.8309 O   0  0  0  0  0  0  0  0  0  0  0  0
   16.7387   69.4088   -5.9193 C   0  0  0  0  0  0  0  0  0  0  0  0
   15.4918   69.4447   -4.4016 H   0  0  0  0  0  0  0  0  0  0  0  0
 25 28  1  0
 25 24  1  0
 25 26  1  1
 25 27  2  0
  1  4  1  0
  1 24  1  0
  1  2  1  6
  1  3  2  0
  6 11  1  0
  6 12  1  0
 29 36  1  0
 29 37  1  0
  9  7  1  1
  7 13  1  0
 10  8  1  1
  8 14  1  0
 37 28  1  6
  4  5  1  0
 33 30  1  6
 30 38  1  0
 34 31  1  6
 31 39  1  0
 35 32  1  6
 32 40  1  0
 41 42  1  0
 41 43  1  0
 15 19  2  0
 16 22  2  0
 12 17  1  6
 17 19  1  0
 17 20  1  0
 18 19  1  0
 18 22  1  0
 18 23  1  0
  9 10  1  0
  9 11  1  0
 10 12  1  0
 11  5  1  6
 33 34  1  0
 33 35  1  0
 34 36  1  0
 35 37  1  0
 36 42  1  1
 20 21  2  0
 21 22  1  0
M  CHG  2   2  -1  26  -1
M  END
>  <COMPND>  (170) 
    8629 

>  <AUTHOR>  (170) 
    GENERATED BY OPEN BABEL 3.1.1

>  <MASTER>  (170) 
        0    0    0    0    0    0    0    0   58    0   58    0

>  <minimizedAffinity>  (170) 
-7.13765

>  <CNNscore>  (170) 
0.6837927699

>  <CNNaffinity>  (170) 
4.2624216080

>  <CNN_VS>  (170) 
2.9146130085

>  <CNNaffinity_variance>  (170) 
0.0295778029

$$$$
171
     RDKit          3D

 43 45  0  0  0  0  0  0  0  0999 V2000
   23.5020   72.0421   -3.2338 P   0  0  2  0  0  0  0  0  0  0  0  0
   24.1960   73.0696   -4.2730 O   0  0  0  0  0  0  0  0  0  0  0  0
   24.2931   70.7998   -2.9470 O   0  0  0  0  0  0  0  0  0  0  0  0
   22.0237   71.8075   -3.8483 O   0  0  0  0  0  0  0  0  0  0  0  0
   21.5929   72.6409   -4.9102 C   0  0  0  0  0  0  0  0  0  0  0  0
   20.7376   70.6150   -5.8788 O   0  0  0  0  0  0  0  0  0  0  0  0
   21.1399   71.9382   -8.5392 O   0  0  0  0  0  0  0  0  0  0  0  0
   18.4599   72.2312   -8.1289 O   0  0  0  0  0  0  0  0  0  0  0  0
   20.7281   72.5117   -7.2995 C   0  0  1  0  0  0  0  0  0  0  0  0
   19.2950   72.1293   -6.9936 C   0  0  2  0  0  0  0  0  0  0  0  0
   21.4900   71.8101   -6.1820 C   0  0  1  0  0  0  0  0  0  0  0  0
   19.4478   70.6983   -6.5067 C   0  0  2  0  0  0  0  0  0  0  0  0
   20.6669   72.3705   -9.2682 H   0  0  0  0  0  0  0  0  0  0  0  0
   18.3944   73.1602   -8.3999 H   0  0  0  0  0  0  0  0  0  0  0  0
   16.8640   69.7806   -7.1849 O   0  0  0  0  0  0  0  0  0  0  0  0
   15.6622   69.3319   -2.7582 O   0  0  0  0  0  0  0  0  0  0  0  0
   18.4397   70.3342   -5.5515 N   0  0  0  0  0  0  0  0  0  0  0  0
   16.2678   69.5577   -4.9802 N   0  0  0  0  0  0  0  0  0  0  0  0
   17.1740   69.8863   -5.9964 C   0  0  0  0  0  0  0  0  0  0  0  0
   18.7106   70.4226   -4.1904 C   0  0  0  0  0  0  0  0  0  0  0  0
   17.8350   70.1067   -3.2339 C   0  0  0  0  0  0  0  0  0  0  0  0
   16.4895   69.6300   -3.6140 C   0  0  0  0  0  0  0  0  0  0  0  0
   15.3794   69.2436   -5.2664 H   0  0  0  0  0  0  0  0  0  0  0  0
   23.2153   72.9703   -1.9418 O   0  0  0  0  0  0  0  0  0  0  0  0
   21.9036   73.1141   -1.0080 P   0  0  2  0  0  0  0  0  0  0  0  0
   21.3383   71.6004   -0.9268 O   0  0  0  0  0  0  0  0  0  0  0  0
   20.9058   74.1223   -1.4996 O   0  0  0  0  0  0  0  0  0  0  0  0
   22.4839   73.4122    0.4683 O   0  0  0  0  0  0  0  0  0  0  0  0
   24.6442   73.0007    1.3516 O   0  0  0  0  0  0  0  0  0  0  0  0
   22.3946   72.2441    4.7306 O   0  0  0  0  0  0  0  0  0  0  0  0
   23.9710   74.6402    4.5839 O   0  0  0  0  0  0  0  0  0  0  0  0
   21.4204   71.4188    2.1327 O   0  0  0  0  0  0  0  0  0  0  0  0
   22.7251   72.9058    3.5066 C   0  0  1  0  0  0  0  0  0  0  0  0
   24.1007   73.5556    3.6690 C   0  0  1  0  0  0  0  0  0  0  0  0
   22.7451   71.8806    2.3744 C   0  0  2  0  0  0  0  0  0  0  0  0
   24.6402   74.0545    2.3217 C   0  0  1  0  0  0  0  0  0  0  0  0
   23.3450   72.4645    1.0941 C   0  0  1  0  0  0  0  0  0  0  0  0
   22.3798   72.8896    5.4535 H   0  0  0  0  0  0  0  0  0  0  0  0
   23.6291   74.3118    5.4303 H   0  0  0  0  0  0  0  0  0  0  0  0
   21.0519   71.0512    2.9506 H   0  0  0  0  0  0  0  0  0  0  0  0
   26.0450   75.8914    2.9231 O   0  0  0  0  0  0  0  0  0  0  0  0
   26.0758   74.5633    2.4335 C   0  0  0  0  0  0  0  0  0  0  0  0
   26.9518   76.2282    2.9997 H   0  0  0  0  0  0  0  0  0  0  0  0
 25 28  1  0
 25 24  1  0
 25 26  1  1
 25 27  2  0
  1  4  1  0
  1 24  1  0
  1  2  1  6
  1  3  2  0
  6 11  1  0
  6 12  1  0
 29 36  1  0
 29 37  1  0
  9  7  1  6
  7 13  1  0
 10  8  1  6
  8 14  1  0
 37 28  1  1
  4  5  1  0
 33 30  1  1
 30 38  1  0
 34 31  1  1
 31 39  1  0
 35 32  1  6
 32 40  1  0
 41 42  1  0
 41 43  1  0
 15 19  2  0
 16 22  2  0
 12 17  1  1
 17 19  1  0
 17 20  1  0
 18 19  1  0
 18 22  1  0
 18 23  1  0
  9 10  1  0
  9 11  1  0
 10 12  1  0
 11  5  1  1
 33 34  1  0
 33 35  1  0
 34 36  1  0
 35 37  1  0
 36 42  1  1
 20 21  2  0
 21 22  1  0
M  CHG  2   2  -1  26  -1
M  END
>  <COMPND>  (171) 
    8629 

>  <AUTHOR>  (171) 
    GENERATED BY OPEN BABEL 3.1.1

>  <MASTER>  (171) 
        0    0    0    0    0    0    0    0   58    0   58    0

>  <minimizedAffinity>  (171) 
-7.35436

>  <CNNscore>  (171) 
0.6477622390

>  <CNNaffinity>  (171) 
4.3436508179

>  <CNN_VS>  (171) 
2.8136529922

>  <CNNaffinity_variance>  (171) 
0.1428660303

$$$$
172
     RDKit          3D

 43 45  0  0  0  0  0  0  0  0999 V2000
   22.1699   73.4547   -5.4921 P   0  0  2  0  0  0  0  0  0  0  0  0
   21.3063   74.0917   -6.7028 O   0  0  0  0  0  0  0  0  0  0  0  0
   22.9768   72.2437   -5.8579 O   0  0  0  0  0  0  0  0  0  0  0  0
   21.0855   73.2454   -4.3096 O   0  0  0  0  0  0  0  0  0  0  0  0
   20.5687   71.9447   -4.0886 C   0  0  0  0  0  0  0  0  0  0  0  0
   18.4666   72.3182   -5.1911 O   0  0  0  0  0  0  0  0  0  0  0  0
   17.1955   71.0440   -2.7929 O   0  0  0  0  0  0  0  0  0  0  0  0
   17.1760   69.0209   -4.6213 O   0  0  0  0  0  0  0  0  0  0  0  0
   18.4315   70.7302   -3.4325 C   0  0  1  0  0  0  0  0  0  0  0  0
   18.1787   70.0094   -4.7402 C   0  0  2  0  0  0  0  0  0  0  0  0
   19.0600   72.0353   -3.9050 C   0  0  1  0  0  0  0  0  0  0  0  0
   17.7686   71.1510   -5.6550 C   0  0  2  0  0  0  0  0  0  0  0  0
   16.7756   70.2261   -2.4822 H   0  0  0  0  0  0  0  0  0  0  0  0
   17.4844   68.3169   -4.0296 H   0  0  0  0  0  0  0  0  0  0  0  0
   16.0444   69.9933   -7.5695 O   0  0  0  0  0  0  0  0  0  0  0  0
   19.2374   70.2702  -10.8815 O   0  0  0  0  0  0  0  0  0  0  0  0
   18.1233   70.9093   -7.0251 N   0  0  0  0  0  0  0  0  0  0  0  0
   17.6356   70.1323   -9.2171 N   0  0  0  0  0  0  0  0  0  0  0  0
   17.1843   70.3221   -7.9047 C   0  0  0  0  0  0  0  0  0  0  0  0
   19.3900   71.2538   -7.4841 C   0  0  0  0  0  0  0  0  0  0  0  0
   19.8054   71.0651   -8.7384 C   0  0  0  0  0  0  0  0  0  0  0  0
   18.8852   70.4569   -9.7209 C   0  0  0  0  0  0  0  0  0  0  0  0
   16.9986   69.7243   -9.8476 H   0  0  0  0  0  0  0  0  0  0  0  0
   23.0418   74.7107   -4.9674 O   0  0  0  0  0  0  0  0  0  0  0  0
   23.9938   74.8746   -3.6713 P   0  0  2  0  0  0  0  0  0  0  0  0
   23.5607   76.3138   -3.0724 O   0  0  0  0  0  0  0  0  0  0  0  0
   25.4603   74.7417   -3.9643 O   0  0  0  0  0  0  0  0  0  0  0  0
   23.4243   73.8024   -2.6079 O   0  0  0  0  0  0  0  0  0  0  0  0
   21.6896   73.4412   -1.0340 O   0  0  0  0  0  0  0  0  0  0  0  0
   24.9409   73.1957    1.4997 O   0  0  0  0  0  0  0  0  0  0  0  0
   23.4948   70.8112    0.8135 O   0  0  0  0  0  0  0  0  0  0  0  0
   24.9280   75.1354   -0.6490 O   0  0  0  0  0  0  0  0  0  0  0  0
   24.2308   73.0213    0.2706 C   0  0  1  0  0  0  0  0  0  0  0  0
   23.0195   72.1262    0.5395 C   0  0  1  0  0  0  0  0  0  0  0  0
   23.7853   74.3878   -0.2468 C   0  0  2  0  0  0  0  0  0  0  0  0
   22.0651   72.1099   -0.6622 C   0  0  1  0  0  0  0  0  0  0  0  0
   22.8004   74.2577   -1.4100 C   0  0  1  0  0  0  0  0  0  0  0  0
   25.2270   72.3318    1.8333 H   0  0  0  0  0  0  0  0  0  0  0  0
   24.0966   70.8356    1.5740 H   0  0  0  0  0  0  0  0  0  0  0  0
   25.5436   75.2109    0.0961 H   0  0  0  0  0  0  0  0  0  0  0  0
   21.0105   70.4861    0.7379 O   0  0  0  0  0  0  0  0  0  0  0  0
   20.7752   71.3512   -0.3578 C   0  0  0  0  0  0  0  0  0  0  0  0
   20.1980   69.9968    0.9431 H   0  0  0  0  0  0  0  0  0  0  0  0
 25 28  1  0
 25 24  1  0
 25 26  1  1
 25 27  2  0
  1  4  1  0
  1 24  1  0
  1  2  1  6
  1  3  2  0
  6 11  1  0
  6 12  1  0
 29 36  1  0
 29 37  1  0
  9  7  1  6
  7 13  1  0
 10  8  1  1
  8 14  1  0
 37 28  1  6
  4  5  1  0
 33 30  1  1
 30 38  1  0
 34 31  1  6
 31 39  1  0
 35 32  1  6
 32 40  1  0
 41 42  1  0
 41 43  1  0
 15 19  2  0
 16 22  2  0
 12 17  1  6
 17 19  1  0
 17 20  1  0
 18 19  1  0
 18 22  1  0
 18 23  1  0
  9 10  1  0
  9 11  1  0
 10 12  1  0
 11  5  1  6
 33 34  1  0
 33 35  1  0
 34 36  1  0
 35 37  1  0
 36 42  1  1
 20 21  2  0
 21 22  1  0
M  CHG  2   2  -1  26  -1
M  END
>  <COMPND>  (172) 
    8629 

>  <AUTHOR>  (172) 
    GENERATED BY OPEN BABEL 3.1.1

>  <MASTER>  (172) 
        0    0    0    0    0    0    0    0   58    0   58    0

>  <minimizedAffinity>  (172) 
-7.08063

>  <CNNscore>  (172) 
0.6411920786

>  <CNNaffinity>  (172) 
4.3943352699

>  <CNN_VS>  (172) 
2.8176128864

>  <CNNaffinity_variance>  (172) 
0.0813742280

$$$$
173
     RDKit          3D

 43 45  0  0  0  0  0  0  0  0999 V2000
   21.2542   72.1738   -5.2541 P   0  0  2  0  0  0  0  0  0  0  0  0
   21.0849   70.8614   -4.3233 O   0  0  0  0  0  0  0  0  0  0  0  0
   20.2853   73.2831   -4.9677 O   0  0  0  0  0  0  0  0  0  0  0  0
   21.2250   71.5872   -6.7617 O   0  0  0  0  0  0  0  0  0  0  0  0
   20.1614   71.9705   -7.6159 C   0  0  0  0  0  0  0  0  0  0  0  0
   18.9495   69.9766   -7.0421 O   0  0  0  0  0  0  0  0  0  0  0  0
   18.0995   69.8907   -9.9163 O   0  0  0  0  0  0  0  0  0  0  0  0
   15.9033   70.9295   -8.6778 O   0  0  0  0  0  0  0  0  0  0  0  0
   18.3013   71.0203   -9.0685 C   0  0  1  0  0  0  0  0  0  0  0  0
   17.1639   71.1426   -8.0760 C   0  0  2  0  0  0  0  0  0  0  0  0
   19.4860   70.7188   -8.1591 C   0  0  1  0  0  0  0  0  0  0  0  0
   17.5156   70.0693   -7.0599 C   0  0  2  0  0  0  0  0  0  0  0  0
   17.3480   70.0599  -10.5066 H   0  0  0  0  0  0  0  0  0  0  0  0
   15.7255   71.6381   -9.3157 H   0  0  0  0  0  0  0  0  0  0  0  0
   16.3535   68.2118   -5.2775 O   0  0  0  0  0  0  0  0  0  0  0  0
   15.7752   71.4212   -2.0208 O   0  0  0  0  0  0  0  0  0  0  0  0
   17.0528   70.3922   -5.7397 N   0  0  0  0  0  0  0  0  0  0  0  0
   16.0667   69.8113   -3.6573 N   0  0  0  0  0  0  0  0  0  0  0  0
   16.4836   69.3859   -4.9250 C   0  0  0  0  0  0  0  0  0  0  0  0
   17.1657   71.6945   -5.2650 C   0  0  0  0  0  0  0  0  0  0  0  0
   16.7620   72.0842   -4.0541 C   0  0  0  0  0  0  0  0  0  0  0  0
   16.1563   71.0941   -3.1404 C   0  0  0  0  0  0  0  0  0  0  0  0
   15.6667   69.1274   -3.0723 H   0  0  0  0  0  0  0  0  0  0  0  0
   22.8082   72.5679   -5.0476 O   0  0  0  0  0  0  0  0  0  0  0  0
   23.5283   73.5044   -3.9443 P   0  0  2  0  0  0  0  0  0  0  0  0
   22.7199   74.9011   -4.0585 O   0  0  0  0  0  0  0  0  0  0  0  0
   25.0137   73.6324   -4.1208 O   0  0  0  0  0  0  0  0  0  0  0  0
   23.0744   72.8856   -2.5244 O   0  0  0  0  0  0  0  0  0  0  0  0
   20.8905   73.2204   -1.6669 O   0  0  0  0  0  0  0  0  0  0  0  0
   22.8837   72.4839    1.8736 O   0  0  0  0  0  0  0  0  0  0  0  0
   21.1103   70.4940    0.8044 O   0  0  0  0  0  0  0  0  0  0  0  0
   24.1634   74.0360   -0.2080 O   0  0  0  0  0  0  0  0  0  0  0  0
   22.6057   72.3322    0.4790 C   0  0  1  0  0  0  0  0  0  0  0  0
   21.1664   71.8358    0.3281 C   0  0  1  0  0  0  0  0  0  0  0  0
   22.7849   73.6809   -0.2154 C   0  0  2  0  0  0  0  0  0  0  0  0
   20.7076   71.9032   -1.1348 C   0  0  1  0  0  0  0  0  0  0  0  0
   22.2522   73.6533   -1.6491 C   0  0  1  0  0  0  0  0  0  0  0  0
   22.7722   71.6310    2.3203 H   0  0  0  0  0  0  0  0  0  0  0  0
   21.4029   70.4653    1.7289 H   0  0  0  0  0  0  0  0  0  0  0  0
   24.4886   74.0503    0.7052 H   0  0  0  0  0  0  0  0  0  0  0  0
   18.4654   72.7065   -0.9447 O   0  0  0  0  0  0  0  0  0  0  0  0
   19.2267   71.5626   -1.2860 C   0  0  0  0  0  0  0  0  0  0  0  0
   17.5207   72.5046   -1.0366 H   0  0  0  0  0  0  0  0  0  0  0  0
 25 28  1  0
 25 24  1  0
 25 26  1  1
 25 27  2  0
  1  4  1  0
  1 24  1  0
  1  2  1  1
  1  3  2  0
  6 11  1  0
  6 12  1  0
 29 36  1  0
 29 37  1  0
  9  7  1  6
  7 13  1  0
 10  8  1  6
  8 14  1  0
 37 28  1  6
  4  5  1  0
 33 30  1  1
 30 38  1  0
 34 31  1  6
 31 39  1  0
 35 32  1  6
 32 40  1  0
 41 42  1  0
 41 43  1  0
 15 19  2  0
 16 22  2  0
 12 17  1  1
 17 19  1  0
 17 20  1  0
 18 19  1  0
 18 22  1  0
 18 23  1  0
  9 10  1  0
  9 11  1  0
 10 12  1  0
 11  5  1  1
 33 34  1  0
 33 35  1  0
 34 36  1  0
 35 37  1  0
 36 42  1  1
 20 21  2  0
 21 22  1  0
M  CHG  2   2  -1  26  -1
M  END
>  <COMPND>  (173) 
    8629 

>  <AUTHOR>  (173) 
    GENERATED BY OPEN BABEL 3.1.1

>  <MASTER>  (173) 
        0    0    0    0    0    0    0    0   58    0   58    0

>  <minimizedAffinity>  (173) 
-7.02317

>  <CNNscore>  (173) 
0.6233132482

>  <CNNaffinity>  (173) 
4.3121895790

>  <CNN_VS>  (173) 
2.6878449917

>  <CNNaffinity_variance>  (173) 
0.3552969396

$$$$
174
     RDKit          3D

 43 45  0  0  0  0  0  0  0  0999 V2000
   23.1691   72.5785   -3.7383 P   0  0  2  0  0  0  0  0  0  0  0  0
   23.9248   71.2022   -3.3483 O   0  0  0  0  0  0  0  0  0  0  0  0
   23.9610   73.8286   -3.4903 O   0  0  0  0  0  0  0  0  0  0  0  0
   21.7533   72.4779   -2.9616 O   0  0  0  0  0  0  0  0  0  0  0  0
   21.2647   71.1951   -2.6100 C   0  0  0  0  0  0  0  0  0  0  0  0
   20.7789   70.7675   -0.2960 O   0  0  0  0  0  0  0  0  0  0  0  0
   18.6249   72.8367   -0.5594 O   0  0  0  0  0  0  0  0  0  0  0  0
   20.6258   74.2159    0.6778 O   0  0  0  0  0  0  0  0  0  0  0  0
   19.9163   72.7966   -1.1644 C   0  0  1  0  0  0  0  0  0  0  0  0
   20.9858   73.1235   -0.1431 C   0  0  2  0  0  0  0  0  0  0  0  0
   20.2316   71.3447   -1.5016 C   0  0  1  0  0  0  0  0  0  0  0  0
   21.0911   71.8204    0.6308 C   0  0  2  0  0  0  0  0  0  0  0  0
   18.4013   73.7542   -0.3354 H   0  0  0  0  0  0  0  0  0  0  0  0
   20.5719   75.0210    0.1396 H   0  0  0  0  0  0  0  0  0  0  0  0
   21.7951   72.1394    3.3475 O   0  0  0  0  0  0  0  0  0  0  0  0
   26.1756   70.9554    2.5411 O   0  0  0  0  0  0  0  0  0  0  0  0
   22.4084   71.6017    1.1585 N   0  0  0  0  0  0  0  0  0  0  0  0
   23.9756   71.5494    2.9438 N   0  0  0  0  0  0  0  0  0  0  0  0
   22.6569   71.7907    2.5380 C   0  0  0  0  0  0  0  0  0  0  0  0
   23.4371   71.2042    0.3113 C   0  0  0  0  0  0  0  0  0  0  0  0
   24.6896   70.9795    0.7139 C   0  0  0  0  0  0  0  0  0  0  0  0
   25.0331   71.1542    2.1399 C   0  0  0  0  0  0  0  0  0  0  0  0
   24.1724   71.6751    3.9005 H   0  0  0  0  0  0  0  0  0  0  0  0
   22.7541   72.3403   -5.2824 O   0  0  0  0  0  0  0  0  0  0  0  0
   21.8247   73.2107   -6.2782 P   0  0  2  0  0  0  0  0  0  0  0  0
   22.4801   72.9365   -7.7318 O   0  0  0  0  0  0  0  0  0  0  0  0
   21.7196   74.6624   -5.9102 O   0  0  0  0  0  0  0  0  0  0  0  0
   20.4150   72.4254   -6.3120 O   0  0  0  0  0  0  0  0  0  0  0  0
   19.8325   70.2750   -5.5040 O   0  0  0  0  0  0  0  0  0  0  0  0
   17.5289   70.3387   -8.9304 O   0  0  0  0  0  0  0  0  0  0  0  0
   16.2612   70.5812   -6.3648 O   0  0  0  0  0  0  0  0  0  0  0  0
   20.1801   71.5007   -8.9511 O   0  0  0  0  0  0  0  0  0  0  0  0
   18.1652   70.8969   -7.7776 C   0  0  1  0  0  0  0  0  0  0  0  0
   17.6194   70.1864   -6.5374 C   0  0  1  0  0  0  0  0  0  0  0  0
   19.6748   70.6934   -7.8931 C   0  0  2  0  0  0  0  0  0  0  0  0
   18.4411   70.5394   -5.2902 C   0  0  1  0  0  0  0  0  0  0  0  0
   20.3914   71.0264   -6.5833 C   0  0  1  0  0  0  0  0  0  0  0  0
   16.5702   70.4650   -8.8635 H   0  0  0  0  0  0  0  0  0  0  0  0
   15.7535   70.3532   -7.1594 H   0  0  0  0  0  0  0  0  0  0  0  0
   19.7187   71.2801   -9.7747 H   0  0  0  0  0  0  0  0  0  0  0  0
   17.1123   68.7171   -4.5011 O   0  0  0  0  0  0  0  0  0  0  0  0
   18.0135   69.7217   -4.0734 C   0  0  0  0  0  0  0  0  0  0  0  0
   16.8319   68.1886   -3.7371 H   0  0  0  0  0  0  0  0  0  0  0  0
 25 28  1  0
 25 24  1  0
 25 26  1  6
 25 27  2  0
  1  4  1  0
  1 24  1  0
  1  2  1  1
  1  3  2  0
  6 11  1  0
  6 12  1  0
 29 36  1  0
 29 37  1  0
  9  7  1  1
  7 13  1  0
 10  8  1  1
  8 14  1  0
 37 28  1  1
  4  5  1  0
 33 30  1  6
 30 38  1  0
 34 31  1  1
 31 39  1  0
 35 32  1  6
 32 40  1  0
 41 42  1  0
 41 43  1  0
 15 19  2  0
 16 22  2  0
 12 17  1  6
 17 19  1  0
 17 20  1  0
 18 19  1  0
 18 22  1  0
 18 23  1  0
  9 10  1  0
  9 11  1  0
 10 12  1  0
 11  5  1  6
 33 34  1  0
 33 35  1  0
 34 36  1  0
 35 37  1  0
 36 42  1  1
 20 21  2  0
 21 22  1  0
M  CHG  2   2  -1  26  -1
M  END
>  <COMPND>  (174) 
    8629 

>  <AUTHOR>  (174) 
    GENERATED BY OPEN BABEL 3.1.1

>  <MASTER>  (174) 
        0    0    0    0    0    0    0    0   58    0   58    0

>  <minimizedAffinity>  (174) 
-7.52747

>  <CNNscore>  (174) 
0.5501203537

>  <CNNaffinity>  (174) 
4.1756472588

>  <CNN_VS>  (174) 
2.2971086502

>  <CNNaffinity_variance>  (174) 
0.1773904562

$$$$
175
     RDKit          3D

 43 45  0  0  0  0  0  0  0  0999 V2000
   23.4958   72.6215   -3.8549 P   0  0  2  0  0  0  0  0  0  0  0  0
   23.9930   71.1682   -3.3467 O   0  0  0  0  0  0  0  0  0  0  0  0
   24.5830   73.6432   -4.0145 O   0  0  0  0  0  0  0  0  0  0  0  0
   22.3124   73.0101   -2.8222 O   0  0  0  0  0  0  0  0  0  0  0  0
   22.6340   73.1580   -1.4501 C   0  0  0  0  0  0  0  0  0  0  0  0
   23.6819   71.5082   -0.0523 O   0  0  0  0  0  0  0  0  0  0  0  0
   20.9163   70.4875    0.4958 O   0  0  0  0  0  0  0  0  0  0  0  0
   21.4665   71.9448    2.7342 O   0  0  0  0  0  0  0  0  0  0  0  0
   21.3618   71.8297    0.3078 C   0  0  1  0  0  0  0  0  0  0  0  0
   22.1126   72.3108    1.5320 C   0  0  2  0  0  0  0  0  0  0  0  0
   22.4564   71.8167   -0.7519 C   0  0  1  0  0  0  0  0  0  0  0  0
   23.4606   71.6310    1.3622 C   0  0  2  0  0  0  0  0  0  0  0  0
   20.2166   70.4705    1.1682 H   0  0  0  0  0  0  0  0  0  0  0  0
   20.6139   72.4031    2.7957 H   0  0  0  0  0  0  0  0  0  0  0  0
   25.8648   70.5134    2.3363 O   0  0  0  0  0  0  0  0  0  0  0  0
   27.5075   74.6448    3.5506 O   0  0  0  0  0  0  0  0  0  0  0  0
   24.5339   72.3914    1.9378 N   0  0  0  0  0  0  0  0  0  0  0  0
   26.6809   72.5715    2.9400 N   0  0  0  0  0  0  0  0  0  0  0  0
   25.6983   71.7333    2.3976 C   0  0  0  0  0  0  0  0  0  0  0  0
   24.4257   73.7740    2.0415 C   0  0  0  0  0  0  0  0  0  0  0  0
   25.3713   74.5588    2.5624 C   0  0  0  0  0  0  0  0  0  0  0  0
   26.6195   73.9502    3.0660 C   0  0  0  0  0  0  0  0  0  0  0  0
   27.5008   72.1351    3.2672 H   0  0  0  0  0  0  0  0  0  0  0  0
   22.6926   72.2758   -5.2144 O   0  0  0  0  0  0  0  0  0  0  0  0
   21.7841   73.2048   -6.1760 P   0  0  2  0  0  0  0  0  0  0  0  0
   22.4772   73.0264   -7.6270 O   0  0  0  0  0  0  0  0  0  0  0  0
   21.6624   74.6297   -5.7189 O   0  0  0  0  0  0  0  0  0  0  0  0
   20.3797   72.4185   -6.2956 O   0  0  0  0  0  0  0  0  0  0  0  0
   19.8126   70.2513   -5.5221 O   0  0  0  0  0  0  0  0  0  0  0  0
   17.5394   70.3377   -8.9683 O   0  0  0  0  0  0  0  0  0  0  0  0
   16.2462   70.5320   -6.4114 O   0  0  0  0  0  0  0  0  0  0  0  0
   20.1783   71.5274   -8.9490 O   0  0  0  0  0  0  0  0  0  0  0  0
   18.1595   70.8867   -7.8023 C   0  0  1  0  0  0  0  0  0  0  0  0
   17.6100   70.1538   -6.5768 C   0  0  1  0  0  0  0  0  0  0  0  0
   19.6720   70.7005   -7.9067 C   0  0  2  0  0  0  0  0  0  0  0  0
   18.4166   70.4982   -5.3176 C   0  0  1  0  0  0  0  0  0  0  0  0
   20.3733   71.0231   -6.5860 C   0  0  1  0  0  0  0  0  0  0  0  0
   16.5789   70.4531   -8.9086 H   0  0  0  0  0  0  0  0  0  0  0  0
   15.7481   70.3096   -7.2136 H   0  0  0  0  0  0  0  0  0  0  0  0
   19.7267   71.3132   -9.7797 H   0  0  0  0  0  0  0  0  0  0  0  0
   16.8683   70.2820   -3.5106 O   0  0  0  0  0  0  0  0  0  0  0  0
   17.9867   69.6597   -4.1158 C   0  0  0  0  0  0  0  0  0  0  0  0
   16.5835   69.7591   -2.7444 H   0  0  0  0  0  0  0  0  0  0  0  0
 25 28  1  0
 25 24  1  0
 25 26  1  6
 25 27  2  0
  1  4  1  0
  1 24  1  0
  1  2  1  1
  1  3  2  0
  6 11  1  0
  6 12  1  0
 29 36  1  0
 29 37  1  0
  9  7  1  1
  7 13  1  0
 10  8  1  1
  8 14  1  0
 37 28  1  1
  4  5  1  0
 33 30  1  6
 30 38  1  0
 34 31  1  1
 31 39  1  0
 35 32  1  6
 32 40  1  0
 41 42  1  0
 41 43  1  0
 15 19  2  0
 16 22  2  0
 12 17  1  6
 17 19  1  0
 17 20  1  0
 18 19  1  0
 18 22  1  0
 18 23  1  0
  9 10  1  0
  9 11  1  0
 10 12  1  0
 11  5  1  1
 33 34  1  0
 33 35  1  0
 34 36  1  0
 35 37  1  0
 36 42  1  1
 20 21  2  0
 21 22  1  0
M  CHG  2   2  -1  26  -1
M  END
>  <COMPND>  (175) 
    8629 

>  <AUTHOR>  (175) 
    GENERATED BY OPEN BABEL 3.1.1

>  <MASTER>  (175) 
        0    0    0    0    0    0    0    0   58    0   58    0

>  <minimizedAffinity>  (175) 
-7.65233

>  <CNNscore>  (175) 
0.5468857288

>  <CNNaffinity>  (175) 
4.2416725159

>  <CNN_VS>  (175) 
2.3197102547

>  <CNNaffinity_variance>  (175) 
0.1469436884

$$$$
176
     RDKit          3D

 43 45  0  0  0  0  0  0  0  0999 V2000
   22.8276   73.0460   -3.3958 P   0  0  2  0  0  0  0  0  0  0  0  0
   23.9702   72.9126   -4.5335 O   0  0  0  0  0  0  0  0  0  0  0  0
   22.3032   74.4358   -3.1842 O   0  0  0  0  0  0  0  0  0  0  0  0
   23.4868   72.3386   -2.0985 O   0  0  0  0  0  0  0  0  0  0  0  0
   23.1277   72.8147   -0.8132 C   0  0  0  0  0  0  0  0  0  0  0  0
   23.7520   71.7632    1.2552 O   0  0  0  0  0  0  0  0  0  0  0  0
   21.1937   70.2164    1.0245 O   0  0  0  0  0  0  0  0  0  0  0  0
   20.5548   72.1556    2.8323 O   0  0  0  0  0  0  0  0  0  0  0  0
   21.4674   71.5674    0.6568 C   0  0  1  0  0  0  0  0  0  0  0  0
   21.5711   72.4377    1.8918 C   0  0  2  0  0  0  0  0  0  0  0  0
   22.8870   71.6255    0.1066 C   0  0  1  0  0  0  0  0  0  0  0  0
   22.9573   72.0898    2.4070 C   0  0  2  0  0  0  0  0  0  0  0  0
   20.2921   70.1541    1.3785 H   0  0  0  0  0  0  0  0  0  0  0  0
   19.6924   72.3940    2.4579 H   0  0  0  0  0  0  0  0  0  0  0  0
   22.5038   72.7089    5.1253 O   0  0  0  0  0  0  0  0  0  0  0  0
   25.3742   76.3116    4.9731 O   0  0  0  0  0  0  0  0  0  0  0  0
   23.5733   73.1839    3.1035 N   0  0  0  0  0  0  0  0  0  0  0  0
   23.9336   74.5022    5.0474 N   0  0  0  0  0  0  0  0  0  0  0  0
   23.2771   73.4088    4.4681 C   0  0  0  0  0  0  0  0  0  0  0  0
   24.4604   74.0199    2.4342 C   0  0  0  0  0  0  0  0  0  0  0  0
   25.0771   75.0591    3.0006 C   0  0  0  0  0  0  0  0  0  0  0  0
   24.8227   75.3631    4.4236 C   0  0  0  0  0  0  0  0  0  0  0  0
   23.7423   74.6784    5.9972 H   0  0  0  0  0  0  0  0  0  0  0  0
   21.7160   71.9723   -3.8695 O   0  0  0  0  0  0  0  0  0  0  0  0
   20.3001   71.5506   -3.2134 P   0  0  2  0  0  0  0  0  0  0  0  0
   19.6961   72.9598   -2.6968 O   0  0  0  0  0  0  0  0  0  0  0  0
   20.4044   70.4949   -2.1510 O   0  0  0  0  0  0  0  0  0  0  0  0
   19.3720   71.1455   -4.4701 O   0  0  0  0  0  0  0  0  0  0  0  0
   19.5534   72.2429   -6.5628 O   0  0  0  0  0  0  0  0  0  0  0  0
   15.6688   70.8764   -6.8689 O   0  0  0  0  0  0  0  0  0  0  0  0
   17.7348   69.6385   -8.4333 O   0  0  0  0  0  0  0  0  0  0  0  0
   16.6600   71.8533   -4.3306 O   0  0  0  0  0  0  0  0  0  0  0  0
   17.0420   70.8213   -6.4732 C   0  0  1  0  0  0  0  0  0  0  0  0
   17.9068   70.8683   -7.7344 C   0  0  1  0  0  0  0  0  0  0  0  0
   17.3484   72.0119   -5.5665 C   0  0  2  0  0  0  0  0  0  0  0  0
   19.3857   71.0817   -7.3845 C   0  0  1  0  0  0  0  0  0  0  0  0
   18.8507   72.1630   -5.3211 C   0  0  1  0  0  0  0  0  0  0  0  0
   15.4676   70.1229   -7.4444 H   0  0  0  0  0  0  0  0  0  0  0  0
   16.7967   69.5156   -8.6479 H   0  0  0  0  0  0  0  0  0  0  0  0
   15.7101   71.7590   -4.4996 H   0  0  0  0  0  0  0  0  0  0  0  0
   21.3707   72.0694   -8.2751 O   0  0  0  0  0  0  0  0  0  0  0  0
   20.2440   71.2891   -8.6304 C   0  0  0  0  0  0  0  0  0  0  0  0
   21.9263   72.2092   -9.0583 H   0  0  0  0  0  0  0  0  0  0  0  0
 25 28  1  0
 25 24  1  0
 25 26  1  1
 25 27  2  0
  1  4  1  0
  1 24  1  0
  1  2  1  6
  1  3  2  0
  6 11  1  0
  6 12  1  0
 29 36  1  0
 29 37  1  0
  9  7  1  1
  7 13  1  0
 10  8  1  1
  8 14  1  0
 37 28  1  6
  4  5  1  0
 33 30  1  6
 30 38  1  0
 34 31  1  1
 31 39  1  0
 35 32  1  1
 32 40  1  0
 41 42  1  0
 41 43  1  0
 15 19  2  0
 16 22  2  0
 12 17  1  6
 17 19  1  0
 17 20  1  0
 18 19  1  0
 18 22  1  0
 18 23  1  0
  9 10  1  0
  9 11  1  0
 10 12  1  0
 11  5  1  6
 33 34  1  0
 33 35  1  0
 34 36  1  0
 35 37  1  0
 36 42  1  6
 20 21  2  0
 21 22  1  0
M  CHG  2   2  -1  26  -1
M  END
>  <COMPND>  (176) 
    8629 

>  <AUTHOR>  (176) 
    GENERATED BY OPEN BABEL 3.1.1

>  <MASTER>  (176) 
        0    0    0    0    0    0    0    0   58    0   58    0

>  <minimizedAffinity>  (176) 
-6.60602

>  <CNNscore>  (176) 
0.5370647907

>  <CNNaffinity>  (176) 
4.1649541855

>  <CNN_VS>  (176) 
2.2368502617

>  <CNNaffinity_variance>  (176) 
0.2430293262

$$$$
177
     RDKit          3D

 43 45  0  0  0  0  0  0  0  0999 V2000
   23.0543   71.6127   -2.6902 P   0  0  2  0  0  0  0  0  0  0  0  0
   23.2247   73.2056   -2.4645 O   0  0  0  0  0  0  0  0  0  0  0  0
   24.3126   70.8880   -3.0683 O   0  0  0  0  0  0  0  0  0  0  0  0
   21.8334   71.4983   -3.7456 O   0  0  0  0  0  0  0  0  0  0  0  0
   21.7392   72.4644   -4.7779 C   0  0  0  0  0  0  0  0  0  0  0  0
   20.7798   70.5717   -5.9053 O   0  0  0  0  0  0  0  0  0  0  0  0
   21.2355   72.0926   -8.4489 O   0  0  0  0  0  0  0  0  0  0  0  0
   18.5752   72.4815   -7.9922 O   0  0  0  0  0  0  0  0  0  0  0  0
   20.8583   72.5793   -7.1620 C   0  0  1  0  0  0  0  0  0  0  0  0
   19.4094   72.2435   -6.8767 C   0  0  2  0  0  0  0  0  0  0  0  0
   21.5894   71.7496   -6.1138 C   0  0  1  0  0  0  0  0  0  0  0  0
   19.4929   70.7708   -6.5129 C   0  0  2  0  0  0  0  0  0  0  0  0
   20.7813   72.6074   -9.1350 H   0  0  0  0  0  0  0  0  0  0  0  0
   18.5548   73.4321   -8.1839 H   0  0  0  0  0  0  0  0  0  0  0  0
   16.9234   69.8615   -7.2536 O   0  0  0  0  0  0  0  0  0  0  0  0
   15.6579   69.2911   -2.8588 O   0  0  0  0  0  0  0  0  0  0  0  0
   18.4723   70.3777   -5.5828 N   0  0  0  0  0  0  0  0  0  0  0  0
   16.2954   69.5781   -5.0647 N   0  0  0  0  0  0  0  0  0  0  0  0
   17.2153   69.9369   -6.0583 C   0  0  0  0  0  0  0  0  0  0  0  0
   18.7226   70.4311   -4.2159 C   0  0  0  0  0  0  0  0  0  0  0  0
   17.8342   70.0866   -3.2813 C   0  0  0  0  0  0  0  0  0  0  0  0
   16.4966   69.6150   -3.6940 C   0  0  0  0  0  0  0  0  0  0  0  0
   15.4128   69.2683   -5.3724 H   0  0  0  0  0  0  0  0  0  0  0  0
   22.3842   71.1189   -1.3045 O   0  0  0  0  0  0  0  0  0  0  0  0
   22.7782   71.4243    0.2332 P   0  0  2  0  0  0  0  0  0  0  0  0
   24.3874   71.5821    0.1796 O   0  0  0  0  0  0  0  0  0  0  0  0
   22.2891   70.3944    1.2099 O   0  0  0  0  0  0  0  0  0  0  0  0
   22.2310   72.9180    0.5061 O   0  0  0  0  0  0  0  0  0  0  0  0
   20.4861   73.2184    2.0816 O   0  0  0  0  0  0  0  0  0  0  0  0
   20.1103   76.7630   -0.0029 O   0  0  0  0  0  0  0  0  0  0  0  0
   21.2011   76.7891    2.6537 O   0  0  0  0  0  0  0  0  0  0  0  0
   20.7398   74.3165   -1.4164 O   0  0  0  0  0  0  0  0  0  0  0  0
   20.8135   75.6624    0.5797 C   0  0  1  0  0  0  0  0  0  0  0  0
   20.5406   75.6618    2.0852 C   0  0  1  0  0  0  0  0  0  0  0  0
   20.3224   74.3633   -0.0562 C   0  0  2  0  0  0  0  0  0  0  0  0
   21.0386   74.3653    2.7380 C   0  0  1  0  0  0  0  0  0  0  0  0
   20.8357   73.1356    0.6985 C   0  0  1  0  0  0  0  0  0  0  0  0
   20.4179   77.5910    0.3962 H   0  0  0  0  0  0  0  0  0  0  0  0
   20.8780   77.6011    2.2324 H   0  0  0  0  0  0  0  0  0  0  0  0
   20.4084   75.0987   -1.8833 H   0  0  0  0  0  0  0  0  0  0  0  0
   19.5594   73.3632    4.3244 O   0  0  0  0  0  0  0  0  0  0  0  0
   20.6367   74.2744    4.2085 C   0  0  0  0  0  0  0  0  0  0  0  0
   19.2932   73.2949    5.2551 H   0  0  0  0  0  0  0  0  0  0  0  0
 25 28  1  0
 25 24  1  0
 25 26  1  6
 25 27  2  0
  1  4  1  0
  1 24  1  0
  1  2  1  1
  1  3  2  0
  6 11  1  0
  6 12  1  0
 29 36  1  0
 29 37  1  0
  9  7  1  6
  7 13  1  0
 10  8  1  6
  8 14  1  0
 37 28  1  1
  4  5  1  0
 33 30  1  6
 30 38  1  0
 34 31  1  1
 31 39  1  0
 35 32  1  6
 32 40  1  0
 41 42  1  0
 41 43  1  0
 15 19  2  0
 16 22  2  0
 12 17  1  1
 17 19  1  0
 17 20  1  0
 18 19  1  0
 18 22  1  0
 18 23  1  0
  9 10  1  0
  9 11  1  0
 10 12  1  0
 11  5  1  1
 33 34  1  0
 33 35  1  0
 34 36  1  0
 35 37  1  0
 36 42  1  1
 20 21  2  0
 21 22  1  0
M  CHG  2   2  -1  26  -1
M  END
>  <COMPND>  (177) 
    8629 

>  <AUTHOR>  (177) 
    GENERATED BY OPEN BABEL 3.1.1

>  <MASTER>  (177) 
        0    0    0    0    0    0    0    0   58    0   58    0

>  <minimizedAffinity>  (177) 
-6.49596

>  <CNNscore>  (177) 
0.5350313187

>  <CNNaffinity>  (177) 
4.0696868896

>  <CNN_VS>  (177) 
2.1774098873

>  <CNNaffinity_variance>  (177) 
0.2083836347

$$$$
178
     RDKit          3D

 43 45  0  0  0  0  0  0  0  0999 V2000
   21.8356   72.6395   -4.6137 P   0  0  2  0  0  0  0  0  0  0  0  0
   21.7549   74.0336   -3.7966 O   0  0  0  0  0  0  0  0  0  0  0  0
   23.1878   72.3115   -5.1753 O   0  0  0  0  0  0  0  0  0  0  0  0
   20.6351   72.7515   -5.6926 O   0  0  0  0  0  0  0  0  0  0  0  0
   20.9064   72.4192   -7.0430 C   0  0  0  0  0  0  0  0  0  0  0  0
   19.6960   70.5193   -6.2070 O   0  0  0  0  0  0  0  0  0  0  0  0
   20.0385   69.3343   -8.9400 O   0  0  0  0  0  0  0  0  0  0  0  0
   17.4723   70.2543   -9.0084 O   0  0  0  0  0  0  0  0  0  0  0  0
   19.8224   70.6942   -8.5669 C   0  0  1  0  0  0  0  0  0  0  0  0
   18.3832   70.9007   -8.1429 C   0  0  2  0  0  0  0  0  0  0  0  0
   20.5765   70.9500   -7.2680 C   0  0  1  0  0  0  0  0  0  0  0  0
   18.3793   70.3102   -6.7431 C   0  0  2  0  0  0  0  0  0  0  0  0
   19.5667   69.1472   -9.7673 H   0  0  0  0  0  0  0  0  0  0  0  0
   17.5121   70.6658   -9.8858 H   0  0  0  0  0  0  0  0  0  0  0  0
   16.9453   68.9867   -4.7011 O   0  0  0  0  0  0  0  0  0  0  0  0
   14.7226   72.8443   -3.5094 O   0  0  0  0  0  0  0  0  0  0  0  0
   17.4198   70.9445   -5.8838 N   0  0  0  0  0  0  0  0  0  0  0  0
   15.8399   70.9086   -4.1093 N   0  0  0  0  0  0  0  0  0  0  0  0
   16.7539   70.1897   -4.8902 C   0  0  0  0  0  0  0  0  0  0  0  0
   17.1478   72.3004   -6.0305 C   0  0  0  0  0  0  0  0  0  0  0  0
   16.2725   72.9708   -5.2785 C   0  0  0  0  0  0  0  0  0  0  0  0
   15.5341   72.2560   -4.2174 C   0  0  0  0  0  0  0  0  0  0  0  0
   15.3637   70.4033   -3.4109 H   0  0  0  0  0  0  0  0  0  0  0  0
   21.2692   71.5617   -3.5504 O   0  0  0  0  0  0  0  0  0  0  0  0
   20.1235   71.6896   -2.4173 P   0  0  2  0  0  0  0  0  0  0  0  0
   19.8078   70.1499   -2.0335 O   0  0  0  0  0  0  0  0  0  0  0  0
   18.9210   72.4804   -2.8446 O   0  0  0  0  0  0  0  0  0  0  0  0
   20.8899   72.2825   -1.1265 O   0  0  0  0  0  0  0  0  0  0  0  0
   23.2188   72.7093   -1.0242 O   0  0  0  0  0  0  0  0  0  0  0  0
   22.5067   71.9732    2.9760 O   0  0  0  0  0  0  0  0  0  0  0  0
   23.0365   74.6566    2.1005 O   0  0  0  0  0  0  0  0  0  0  0  0
   21.1374   70.4170    0.9553 O   0  0  0  0  0  0  0  0  0  0  0  0
   22.2007   72.4581    1.6658 C   0  0  1  0  0  0  0  0  0  0  0  0
   23.2480   73.5068    1.2859 C   0  0  1  0  0  0  0  0  0  0  0  0
   22.2283   71.2898    0.6821 C   0  0  2  0  0  0  0  0  0  0  0  0
   23.1464   73.8783   -0.1996 C   0  0  1  0  0  0  0  0  0  0  0  0
   22.1714   71.7715   -0.7687 C   0  0  1  0  0  0  0  0  0  0  0  0
   22.4903   72.7100    3.6055 H   0  0  0  0  0  0  0  0  0  0  0  0
   23.1028   74.4082    3.0359 H   0  0  0  0  0  0  0  0  0  0  0  0
   21.1849   70.1188    1.8765 H   0  0  0  0  0  0  0  0  0  0  0  0
   24.2877   74.8679   -2.0509 O   0  0  0  0  0  0  0  0  0  0  0  0
   24.2802   74.8034   -0.6366 C   0  0  0  0  0  0  0  0  0  0  0  0
   25.0041   75.4535   -2.3434 H   0  0  0  0  0  0  0  0  0  0  0  0
 25 28  1  0
 25 24  1  0
 25 26  1  1
 25 27  2  0
  1  4  1  0
  1 24  1  0
  1  2  1  1
  1  3  2  0
  6 11  1  0
  6 12  1  0
 29 36  1  0
 29 37  1  0
  9  7  1  1
  7 13  1  0
 10  8  1  6
  8 14  1  0
 37 28  1  1
  4  5  1  0
 33 30  1  1
 30 38  1  0
 34 31  1  1
 31 39  1  0
 35 32  1  1
 32 40  1  0
 41 42  1  0
 41 43  1  0
 15 19  2  0
 16 22  2  0
 12 17  1  1
 17 19  1  0
 17 20  1  0
 18 19  1  0
 18 22  1  0
 18 23  1  0
  9 10  1  0
  9 11  1  0
 10 12  1  0
 11  5  1  1
 33 34  1  0
 33 35  1  0
 34 36  1  0
 35 37  1  0
 36 42  1  6
 20 21  2  0
 21 22  1  0
M  CHG  2   2  -1  26  -1
M  END
>  <COMPND>  (178) 
    8629 

>  <AUTHOR>  (178) 
    GENERATED BY OPEN BABEL 3.1.1

>  <MASTER>  (178) 
        0    0    0    0    0    0    0    0   58    0   58    0

>  <minimizedAffinity>  (178) 
-6.60418

>  <CNNscore>  (178) 
0.5335640907

>  <CNNaffinity>  (178) 
4.2103958130

>  <CNN_VS>  (178) 
2.2465159893

>  <CNNaffinity_variance>  (178) 
0.2322522700

$$$$
179
     RDKit          3D

 43 45  0  0  0  0  0  0  0  0999 V2000
   21.8810   72.4477   -5.7372 P   0  0  2  0  0  0  0  0  0  0  0  0
   21.1637   73.8137   -5.2505 O   0  0  0  0  0  0  0  0  0  0  0  0
   23.0597   72.6396   -6.6456 O   0  0  0  0  0  0  0  0  0  0  0  0
   20.6664   71.5644   -6.3393 O   0  0  0  0  0  0  0  0  0  0  0  0
   20.2703   71.7857   -7.6817 C   0  0  0  0  0  0  0  0  0  0  0  0
   18.8956   69.9294   -7.0197 O   0  0  0  0  0  0  0  0  0  0  0  0
   17.9965   69.8173   -9.8780 O   0  0  0  0  0  0  0  0  0  0  0  0
   15.9206   71.0911   -8.6514 O   0  0  0  0  0  0  0  0  0  0  0  0
   18.3108   70.9538   -9.0750 C   0  0  1  0  0  0  0  0  0  0  0  0
   17.2044   71.2123   -8.0736 C   0  0  2  0  0  0  0  0  0  0  0  0
   19.4782   70.5805   -8.1699 C   0  0  1  0  0  0  0  0  0  0  0  0
   17.4755   70.1488   -7.0231 C   0  0  2  0  0  0  0  0  0  0  0  0
   17.2537   70.0316  -10.4648 H   0  0  0  0  0  0  0  0  0  0  0  0
   15.7963   71.7896   -9.3128 H   0  0  0  0  0  0  0  0  0  0  0  0
   16.6470   68.3772   -4.9852 O   0  0  0  0  0  0  0  0  0  0  0  0
   15.9166   71.8332   -2.0249 O   0  0  0  0  0  0  0  0  0  0  0  0
   17.0638   70.5584   -5.7101 N   0  0  0  0  0  0  0  0  0  0  0  0
   16.2842   70.0994   -3.5128 N   0  0  0  0  0  0  0  0  0  0  0  0
   16.6653   69.5891   -4.7603 C   0  0  0  0  0  0  0  0  0  0  0  0
   17.0582   71.9081   -5.3752 C   0  0  0  0  0  0  0  0  0  0  0  0
   16.6907   72.3786   -4.1815 C   0  0  0  0  0  0  0  0  0  0  0  0
   16.2604   71.4319   -3.1324 C   0  0  0  0  0  0  0  0  0  0  0  0
   16.0023   69.4426   -2.8354 H   0  0  0  0  0  0  0  0  0  0  0  0
   22.2194   71.6990   -4.3451 O   0  0  0  0  0  0  0  0  0  0  0  0
   23.3062   72.0340   -3.1964 P   0  0  2  0  0  0  0  0  0  0  0  0
   23.9545   73.4300   -3.6949 O   0  0  0  0  0  0  0  0  0  0  0  0
   24.3044   70.9388   -2.9554 O   0  0  0  0  0  0  0  0  0  0  0  0
   22.4251   72.4323   -1.9041 O   0  0  0  0  0  0  0  0  0  0  0  0
   21.7666   71.2380    0.0341 O   0  0  0  0  0  0  0  0  0  0  0  0
   18.2367   73.2355   -0.7411 O   0  0  0  0  0  0  0  0  0  0  0  0
   19.8608   74.0389    1.4872 O   0  0  0  0  0  0  0  0  0  0  0  0
   19.8237   72.2048   -2.9317 O   0  0  0  0  0  0  0  0  0  0  0  0
   19.6565   73.0706   -0.6903 C   0  0  1  0  0  0  0  0  0  0  0  0
   20.0592   72.8265    0.7654 C   0  0  1  0  0  0  0  0  0  0  0  0
   20.0525   71.8819   -1.5643 C   0  0  2  0  0  0  0  0  0  0  0  0
   21.5230   72.3773    0.8673 C   0  0  1  0  0  0  0  0  0  0  0  0
   21.5145   71.4860   -1.3504 C   0  0  1  0  0  0  0  0  0  0  0  0
   17.9787   73.9889   -0.1886 H   0  0  0  0  0  0  0  0  0  0  0  0
   18.9326   74.3118    1.4143 H   0  0  0  0  0  0  0  0  0  0  0  0
   18.8947   72.4534   -3.0540 H   0  0  0  0  0  0  0  0  0  0  0  0
   20.7258   71.9661    3.0819 O   0  0  0  0  0  0  0  0  0  0  0  0
   21.9006   71.9770    2.2919 C   0  0  0  0  0  0  0  0  0  0  0  0
   20.9507   71.7127    3.9912 H   0  0  0  0  0  0  0  0  0  0  0  0
 25 28  1  0
 25 24  1  0
 25 26  1  6
 25 27  2  0
  1  4  1  0
  1 24  1  0
  1  2  1  1
  1  3  2  0
  6 11  1  0
  6 12  1  0
 29 36  1  0
 29 37  1  0
  9  7  1  6
  7 13  1  0
 10  8  1  6
  8 14  1  0
 37 28  1  1
  4  5  1  0
 33 30  1  1
 30 38  1  0
 34 31  1  1
 31 39  1  0
 35 32  1  6
 32 40  1  0
 41 42  1  0
 41 43  1  0
 15 19  2  0
 16 22  2  0
 12 17  1  1
 17 19  1  0
 17 20  1  0
 18 19  1  0
 18 22  1  0
 18 23  1  0
  9 10  1  0
  9 11  1  0
 10 12  1  0
 11  5  1  1
 33 34  1  0
 33 35  1  0
 34 36  1  0
 35 37  1  0
 36 42  1  1
 20 21  2  0
 21 22  1  0
M  CHG  2   2  -1  26  -1
M  END
>  <COMPND>  (179) 
    8629 

>  <AUTHOR>  (179) 
    GENERATED BY OPEN BABEL 3.1.1

>  <MASTER>  (179) 
        0    0    0    0    0    0    0    0   58    0   58    0

>  <minimizedAffinity>  (179) 
-7.48174

>  <CNNscore>  (179) 
0.5239543319

>  <CNNaffinity>  (179) 
4.1960191727

>  <CNN_VS>  (179) 
2.1985223293

>  <CNNaffinity_variance>  (179) 
0.5981213450

$$$$
180
     RDKit          3D

 43 45  0  0  0  0  0  0  0  0999 V2000
   22.8689   72.8412   -3.9963 P   0  0  2  0  0  0  0  0  0  0  0  0
   21.7458   72.6564   -2.8466 O   0  0  0  0  0  0  0  0  0  0  0  0
   24.0494   71.9220   -3.8827 O   0  0  0  0  0  0  0  0  0  0  0  0
   23.2046   74.4236   -3.9605 O   0  0  0  0  0  0  0  0  0  0  0  0
   24.4005   74.8470   -3.3293 C   0  0  0  0  0  0  0  0  0  0  0  0
   22.9337   75.4724   -1.5318 O   0  0  0  0  0  0  0  0  0  0  0  0
   25.0240   77.4848   -0.7756 O   0  0  0  0  0  0  0  0  0  0  0  0
   25.4649   75.4705    1.0090 O   0  0  0  0  0  0  0  0  0  0  0  0
   25.1871   76.1693   -1.3031 C   0  0  1  0  0  0  0  0  0  0  0  0
   24.8901   75.1349   -0.2375 C   0  0  2  0  0  0  0  0  0  0  0  0
   24.0667   75.9237   -2.3059 C   0  0  1  0  0  0  0  0  0  0  0  0
   23.3713   75.1455   -0.2027 C   0  0  2  0  0  0  0  0  0  0  0  0
   25.7285   77.6648   -0.1327 H   0  0  0  0  0  0  0  0  0  0  0  0
   26.4318   75.4499    0.9354 H   0  0  0  0  0  0  0  0  0  0  0  0
   20.8135   74.7804    0.9384 O   0  0  0  0  0  0  0  0  0  0  0  0
   21.3733   70.2122    1.1828 O   0  0  0  0  0  0  0  0  0  0  0  0
   22.8231   73.8716    0.1685 N   0  0  0  0  0  0  0  0  0  0  0  0
   21.0942   72.5061    1.0590 N   0  0  0  0  0  0  0  0  0  0  0  0
   21.5293   73.7975    0.7352 C   0  0  0  0  0  0  0  0  0  0  0  0
   23.5660   72.7129   -0.0304 C   0  0  0  0  0  0  0  0  0  0  0  0
   23.1372   71.4890    0.2851 C   0  0  0  0  0  0  0  0  0  0  0  0
   21.7960   71.3242    0.8818 C   0  0  0  0  0  0  0  0  0  0  0  0
   20.1960   72.4300    1.4554 H   0  0  0  0  0  0  0  0  0  0  0  0
   22.0202   72.6807   -5.3626 O   0  0  0  0  0  0  0  0  0  0  0  0
   21.0831   73.7293   -6.1596 P   0  0  2  0  0  0  0  0  0  0  0  0
   21.9562   74.0814   -7.4754 O   0  0  0  0  0  0  0  0  0  0  0  0
   20.6721   74.9254   -5.3507 O   0  0  0  0  0  0  0  0  0  0  0  0
   19.8539   72.8408   -6.7118 O   0  0  0  0  0  0  0  0  0  0  0  0
   18.9911   70.7382   -6.0400 O   0  0  0  0  0  0  0  0  0  0  0  0
   18.6271   70.3238  -10.1323 O   0  0  0  0  0  0  0  0  0  0  0  0
   16.2744   70.7117   -8.5315 O   0  0  0  0  0  0  0  0  0  0  0  0
   20.9383   71.6628   -9.0164 O   0  0  0  0  0  0  0  0  0  0  0  0
   18.6181   71.0292   -8.8882 C   0  0  1  0  0  0  0  0  0  0  0  0
   17.5538   70.3993   -7.9875 C   0  0  1  0  0  0  0  0  0  0  0  0
   19.9991   70.9228   -8.2440 C   0  0  2  0  0  0  0  0  0  0  0  0
   17.6650   70.9226   -6.5491 C   0  0  1  0  0  0  0  0  0  0  0  0
   19.9885   71.4246   -6.7990 C   0  0  1  0  0  0  0  0  0  0  0  0
   17.7532   70.3879  -10.5467 H   0  0  0  0  0  0  0  0  0  0  0  0
   16.2174   70.3763   -9.4401 H   0  0  0  0  0  0  0  0  0  0  0  0
   20.9357   71.3354   -9.9289 H   0  0  0  0  0  0  0  0  0  0  0  0
   16.2015   69.0551   -6.2670 O   0  0  0  0  0  0  0  0  0  0  0  0
   16.7173   70.1924   -5.6000 C   0  0  0  0  0  0  0  0  0  0  0  0
   15.5968   68.5803   -5.6748 H   0  0  0  0  0  0  0  0  0  0  0  0
 25 28  1  0
 25 24  1  0
 25 26  1  6
 25 27  2  0
  1  4  1  0
  1 24  1  0
  1  2  1  1
  1  3  2  0
  6 11  1  0
  6 12  1  0
 29 36  1  0
 29 37  1  0
  9  7  1  1
  7 13  1  0
 10  8  1  1
  8 14  1  0
 37 28  1  6
  4  5  1  0
 33 30  1  6
 30 38  1  0
 34 31  1  6
 31 39  1  0
 35 32  1  6
 32 40  1  0
 41 42  1  0
 41 43  1  0
 15 19  2  0
 16 22  2  0
 12 17  1  6
 17 19  1  0
 17 20  1  0
 18 19  1  0
 18 22  1  0
 18 23  1  0
  9 10  1  0
  9 11  1  0
 10 12  1  0
 11  5  1  6
 33 34  1  0
 33 35  1  0
 34 36  1  0
 35 37  1  0
 36 42  1  1
 20 21  2  0
 21 22  1  0
M  CHG  2   2  -1  26  -1
M  END
>  <COMPND>  (180) 
    8629 

>  <AUTHOR>  (180) 
    GENERATED BY OPEN BABEL 3.1.1

>  <MASTER>  (180) 
        0    0    0    0    0    0    0    0   58    0   58    0

>  <minimizedAffinity>  (180) 
-6.78957

>  <CNNscore>  (180) 
0.4971703291

>  <CNNaffinity>  (180) 
4.2736539841

>  <CNN_VS>  (180) 
2.1247339249

>  <CNNaffinity_variance>  (180) 
0.1817906797

$$$$
181
     RDKit          3D

 43 45  0  0  0  0  0  0  0  0999 V2000
   20.5991   71.2334   -0.9937 P   0  0  2  0  0  0  0  0  0  0  0  0
   20.8080   70.4805    0.4229 O   0  0  0  0  0  0  0  0  0  0  0  0
   20.2246   72.6828   -0.8920 O   0  0  0  0  0  0  0  0  0  0  0  0
   19.5484   70.2900   -1.7837 O   0  0  0  0  0  0  0  0  0  0  0  0
   19.2556   70.5900   -3.1372 C   0  0  0  0  0  0  0  0  0  0  0  0
   17.5503   71.5645   -4.5215 O   0  0  0  0  0  0  0  0  0  0  0  0
   15.5930   69.9510   -2.9226 O   0  0  0  0  0  0  0  0  0  0  0  0
   15.8464   68.4841   -5.2075 O   0  0  0  0  0  0  0  0  0  0  0  0
   16.9153   69.6123   -3.3377 C   0  0  1  0  0  0  0  0  0  0  0  0
   16.9364   69.2948   -4.8184 C   0  0  2  0  0  0  0  0  0  0  0  0
   17.7659   70.8746   -3.2709 C   0  0  1  0  0  0  0  0  0  0  0  0
   16.8850   70.6807   -5.4386 C   0  0  2  0  0  0  0  0  0  0  0  0
   15.0311   69.1604   -2.9566 H   0  0  0  0  0  0  0  0  0  0  0  0
   15.9245   67.6135   -4.7871 H   0  0  0  0  0  0  0  0  0  0  0  0
   15.6509   70.1209   -7.9168 O   0  0  0  0  0  0  0  0  0  0  0  0
   19.5447   70.9293  -10.2463 O   0  0  0  0  0  0  0  0  0  0  0  0
   17.5526   70.7376   -6.7084 N   0  0  0  0  0  0  0  0  0  0  0  0
   17.5906   70.5241   -9.0747 N   0  0  0  0  0  0  0  0  0  0  0  0
   16.8422   70.4370   -7.8939 C   0  0  0  0  0  0  0  0  0  0  0  0
   18.8968   71.0886   -6.7695 C   0  0  0  0  0  0  0  0  0  0  0  0
   19.5965   71.1658   -7.9034 C   0  0  0  0  0  0  0  0  0  0  0  0
   18.9287   70.8673   -9.1867 C   0  0  0  0  0  0  0  0  0  0  0  0
   17.1167   70.3186   -9.9131 H   0  0  0  0  0  0  0  0  0  0  0  0
   21.9916   70.9508   -1.7643 O   0  0  0  0  0  0  0  0  0  0  0  0
   23.3894   71.7628   -1.7629 P   0  0  2  0  0  0  0  0  0  0  0  0
   24.2569   71.0101   -2.9023 O   0  0  0  0  0  0  0  0  0  0  0  0
   24.0586   71.8335   -0.4208 O   0  0  0  0  0  0  0  0  0  0  0  0
   23.0287   73.1981   -2.4069 O   0  0  0  0  0  0  0  0  0  0  0  0
   21.3095   73.6175   -3.9833 O   0  0  0  0  0  0  0  0  0  0  0  0
   23.9639   76.5774   -5.0988 O   0  0  0  0  0  0  0  0  0  0  0  0
   21.5444   77.2871   -3.7239 O   0  0  0  0  0  0  0  0  0  0  0  0
   24.9535   73.9788   -4.2939 O   0  0  0  0  0  0  0  0  0  0  0  0
   23.2856   75.7130   -4.1833 C   0  0  1  0  0  0  0  0  0  0  0  0
   21.7851   75.9967   -4.2779 C   0  0  1  0  0  0  0  0  0  0  0  0
   23.5827   74.2612   -4.5541 C   0  0  2  0  0  0  0  0  0  0  0  0
   20.9718   74.9330   -3.5281 C   0  0  1  0  0  0  0  0  0  0  0  0
   22.6860   73.2875   -3.7874 C   0  0  1  0  0  0  0  0  0  0  0  0
   23.7798   77.5007   -4.8685 H   0  0  0  0  0  0  0  0  0  0  0  0
   22.0642   77.9494   -4.2059 H   0  0  0  0  0  0  0  0  0  0  0  0
   25.5107   74.6017   -4.7852 H   0  0  0  0  0  0  0  0  0  0  0  0
   19.0414   74.1678   -4.7100 O   0  0  0  0  0  0  0  0  0  0  0  0
   19.4696   75.1066   -3.7407 C   0  0  0  0  0  0  0  0  0  0  0  0
   18.0870   74.2665   -4.8553 H   0  0  0  0  0  0  0  0  0  0  0  0
 25 28  1  0
 25 24  1  0
 25 26  1  6
 25 27  2  0
  1  4  1  0
  1 24  1  0
  1  2  1  1
  1  3  2  0
  6 11  1  0
  6 12  1  0
 29 36  1  0
 29 37  1  0
  9  7  1  6
  7 13  1  0
 10  8  1  6
  8 14  1  0
 37 28  1  1
  4  5  1  0
 33 30  1  6
 30 38  1  0
 34 31  1  1
 31 39  1  0
 35 32  1  1
 32 40  1  0
 41 42  1  0
 41 43  1  0
 15 19  2  0
 16 22  2  0
 12 17  1  6
 17 19  1  0
 17 20  1  0
 18 19  1  0
 18 22  1  0
 18 23  1  0
  9 10  1  0
  9 11  1  0
 10 12  1  0
 11  5  1  6
 33 34  1  0
 33 35  1  0
 34 36  1  0
 35 37  1  0
 36 42  1  6
 20 21  2  0
 21 22  1  0
M  CHG  2   2  -1  26  -1
M  END
>  <COMPND>  (181) 
    8629 

>  <AUTHOR>  (181) 
    GENERATED BY OPEN BABEL 3.1.1

>  <MASTER>  (181) 
        0    0    0    0    0    0    0    0   58    0   58    0

>  <minimizedAffinity>  (181) 
-7.23606

>  <CNNscore>  (181) 
0.9479996562

>  <CNNaffinity>  (181) 
4.8381776810

>  <CNN_VS>  (181) 
4.5865907669

>  <CNNaffinity_variance>  (181) 
0.1252807081

$$$$
182
     RDKit          3D

 43 45  0  0  0  0  0  0  0  0999 V2000
   22.8434   71.5736   -2.9761 P   0  0  2  0  0  0  0  0  0  0  0  0
   22.3829   72.2812   -4.3562 O   0  0  0  0  0  0  0  0  0  0  0  0
   24.1997   70.9329   -3.0142 O   0  0  0  0  0  0  0  0  0  0  0  0
   21.6112   70.5893   -2.6144 O   0  0  0  0  0  0  0  0  0  0  0  0
   20.7368   70.1899   -3.6553 C   0  0  0  0  0  0  0  0  0  0  0  0
   18.9650   71.5066   -4.6045 O   0  0  0  0  0  0  0  0  0  0  0  0
   17.2241   70.3882   -2.4344 O   0  0  0  0  0  0  0  0  0  0  0  0
   16.5249   68.8782   -4.5948 O   0  0  0  0  0  0  0  0  0  0  0  0
   18.2789   69.7582   -3.1595 C   0  0  1  0  0  0  0  0  0  0  0  0
   17.8260   69.4286   -4.5665 C   0  0  2  0  0  0  0  0  0  0  0  0
   19.3631   70.7990   -3.4099 C   0  0  1  0  0  0  0  0  0  0  0  0
   17.9022   70.7845   -5.2478 C   0  0  2  0  0  0  0  0  0  0  0  0
   16.5199   69.7429   -2.2623 H   0  0  0  0  0  0  0  0  0  0  0  0
   16.5284   68.0165   -4.1494 H   0  0  0  0  0  0  0  0  0  0  0  0
   15.9628   70.3247   -7.2491 O   0  0  0  0  0  0  0  0  0  0  0  0
   19.1331   70.3908  -10.5937 O   0  0  0  0  0  0  0  0  0  0  0  0
   18.1929   70.6774   -6.6497 N   0  0  0  0  0  0  0  0  0  0  0  0
   17.5429   70.3582   -8.9129 N   0  0  0  0  0  0  0  0  0  0  0  0
   17.1464   70.4446   -7.5722 C   0  0  0  0  0  0  0  0  0  0  0  0
   19.5035   70.8034   -7.0972 C   0  0  0  0  0  0  0  0  0  0  0  0
   19.8652   70.7172   -8.3790 C   0  0  0  0  0  0  0  0  0  0  0  0
   18.8324   70.4752   -9.4070 C   0  0  0  0  0  0  0  0  0  0  0  0
   16.8308   70.1960   -9.5735 H   0  0  0  0  0  0  0  0  0  0  0  0
   22.6906   72.7612   -1.8902 O   0  0  0  0  0  0  0  0  0  0  0  0
   23.4684   74.1704   -1.7418 P   0  0  2  0  0  0  0  0  0  0  0  0
   22.2886   75.2059   -1.3501 O   0  0  0  0  0  0  0  0  0  0  0  0
   24.2623   74.5656   -2.9531 O   0  0  0  0  0  0  0  0  0  0  0  0
   24.3398   74.0159   -0.3921 O   0  0  0  0  0  0  0  0  0  0  0  0
   22.9408   72.8364    1.1139 O   0  0  0  0  0  0  0  0  0  0  0  0
   26.2637   73.2952    3.5219 O   0  0  0  0  0  0  0  0  0  0  0  0
   25.6430   70.7083    2.4398 O   0  0  0  0  0  0  0  0  0  0  0  0
   25.4545   75.4397    1.7539 O   0  0  0  0  0  0  0  0  0  0  0  0
   25.5647   73.0942    2.2905 C   0  0  1  0  0  0  0  0  0  0  0  0
   24.7407   71.8107    2.4107 C   0  0  1  0  0  0  0  0  0  0  0  0
   24.6559   74.2942    2.0308 C   0  0  2  0  0  0  0  0  0  0  0  0
   23.7616   71.6690    1.2375 C   0  0  1  0  0  0  0  0  0  0  0  0
   23.6885   74.0305    0.8755 C   0  0  1  0  0  0  0  0  0  0  0  0
   26.8429   72.5369    3.6925 H   0  0  0  0  0  0  0  0  0  0  0  0
   26.2561   70.8102    3.1848 H   0  0  0  0  0  0  0  0  0  0  0  0
   26.0623   75.5962    2.4928 H   0  0  0  0  0  0  0  0  0  0  0  0
   21.4873   70.9391    1.2997 O   0  0  0  0  0  0  0  0  0  0  0  0
   22.8211   70.4795    1.4179 C   0  0  0  0  0  0  0  0  0  0  0  0
   20.8776   70.1926    1.4120 H   0  0  0  0  0  0  0  0  0  0  0  0
 25 28  1  0
 25 24  1  0
 25 26  1  1
 25 27  2  0
  1  4  1  0
  1 24  1  0
  1  2  1  6
  1  3  2  0
  6 11  1  0
  6 12  1  0
 29 36  1  0
 29 37  1  0
  9  7  1  1
  7 13  1  0
 10  8  1  1
  8 14  1  0
 37 28  1  6
  4  5  1  0
 33 30  1  1
 30 38  1  0
 34 31  1  6
 31 39  1  0
 35 32  1  6
 32 40  1  0
 41 42  1  0
 41 43  1  0
 15 19  2  0
 16 22  2  0
 12 17  1  6
 17 19  1  0
 17 20  1  0
 18 19  1  0
 18 22  1  0
 18 23  1  0
  9 10  1  0
  9 11  1  0
 10 12  1  0
 11  5  1  6
 33 34  1  0
 33 35  1  0
 34 36  1  0
 35 37  1  0
 36 42  1  1
 20 21  2  0
 21 22  1  0
M  CHG  2   2  -1  26  -1
M  END
>  <COMPND>  (182) 
    8629 

>  <AUTHOR>  (182) 
    GENERATED BY OPEN BABEL 3.1.1

>  <MASTER>  (182) 
        0    0    0    0    0    0    0    0   58    0   58    0

>  <minimizedAffinity>  (182) 
-7.56588

>  <CNNscore>  (182) 
0.9125304818

>  <CNNaffinity>  (182) 
4.7762632370

>  <CNN_VS>  (182) 
4.3584856987

>  <CNNaffinity_variance>  (182) 
0.0320106670

$$$$
183
     RDKit          3D

 43 45  0  0  0  0  0  0  0  0999 V2000
   22.9446   71.6301   -2.6235 P   0  0  2  0  0  0  0  0  0  0  0  0
   22.5271   72.8964   -3.5397 O   0  0  0  0  0  0  0  0  0  0  0  0
   24.2406   70.9746   -3.0009 O   0  0  0  0  0  0  0  0  0  0  0  0
   21.6381   70.6764   -2.6602 O   0  0  0  0  0  0  0  0  0  0  0  0
   20.8954   70.5932   -3.8640 C   0  0  0  0  0  0  0  0  0  0  0  0
   18.9748   71.6889   -4.8045 O   0  0  0  0  0  0  0  0  0  0  0  0
   17.4088   70.4598   -2.5622 O   0  0  0  0  0  0  0  0  0  0  0  0
   16.8252   68.8215   -4.6627 O   0  0  0  0  0  0  0  0  0  0  0  0
   18.5079   69.9221   -3.2958 C   0  0  1  0  0  0  0  0  0  0  0  0
   18.0616   69.5054   -4.6817 C   0  0  2  0  0  0  0  0  0  0  0  0
   19.4710   71.0625   -3.6012 C   0  0  1  0  0  0  0  0  0  0  0  0
   17.9799   70.8410   -5.4012 C   0  0  2  0  0  0  0  0  0  0  0  0
   16.7802   69.7498   -2.3552 H   0  0  0  0  0  0  0  0  0  0  0  0
   16.9290   67.9786   -4.1943 H   0  0  0  0  0  0  0  0  0  0  0  0
   16.0600   70.1076   -7.3387 O   0  0  0  0  0  0  0  0  0  0  0  0
   19.1283   70.4204  -10.7635 O   0  0  0  0  0  0  0  0  0  0  0  0
   18.2497   70.7234   -6.8065 N   0  0  0  0  0  0  0  0  0  0  0  0
   17.5893   70.2641   -9.0424 N   0  0  0  0  0  0  0  0  0  0  0  0
   17.2154   70.3476   -7.6951 C   0  0  0  0  0  0  0  0  0  0  0  0
   19.5279   70.9797   -7.2906 C   0  0  0  0  0  0  0  0  0  0  0  0
   19.8684   70.8943   -8.5783 C   0  0  0  0  0  0  0  0  0  0  0  0
   18.8465   70.5078   -9.5724 C   0  0  0  0  0  0  0  0  0  0  0  0
   16.8853   70.0036   -9.6799 H   0  0  0  0  0  0  0  0  0  0  0  0
   22.9091   72.2376   -1.1259 O   0  0  0  0  0  0  0  0  0  0  0  0
   21.6677   72.6649   -0.1829 P   0  0  2  0  0  0  0  0  0  0  0  0
   21.0003   71.2465    0.2173 O   0  0  0  0  0  0  0  0  0  0  0  0
   20.7183   73.6385   -0.8191 O   0  0  0  0  0  0  0  0  0  0  0  0
   22.3527   73.1921    1.1801 O   0  0  0  0  0  0  0  0  0  0  0  0
   24.3416   72.5469    2.2957 O   0  0  0  0  0  0  0  0  0  0  0  0
   21.9088   73.1461    5.5780 O   0  0  0  0  0  0  0  0  0  0  0  0
   23.9969   75.0306    4.9978 O   0  0  0  0  0  0  0  0  0  0  0  0
   20.8248   71.9459    3.1771 O   0  0  0  0  0  0  0  0  0  0  0  0
   22.4079   73.4011    4.2622 C   0  0  1  0  0  0  0  0  0  0  0  0
   23.8925   73.7544    4.3727 C   0  0  1  0  0  0  0  0  0  0  0  0
   22.2149   72.1520    3.4043 C   0  0  2  0  0  0  0  0  0  0  0  0
   24.5601   73.7799    2.9911 C   0  0  1  0  0  0  0  0  0  0  0  0
   22.9595   72.2610    2.0724 C   0  0  1  0  0  0  0  0  0  0  0  0
   22.0279   73.9354    6.1277 H   0  0  0  0  0  0  0  0  0  0  0  0
   23.5710   75.0010    5.8690 H   0  0  0  0  0  0  0  0  0  0  0  0
   20.3648   71.8783    4.0277 H   0  0  0  0  0  0  0  0  0  0  0  0
   26.3434   75.3631    3.1412 O   0  0  0  0  0  0  0  0  0  0  0  0
   26.0715   73.9746    3.0898 C   0  0  0  0  0  0  0  0  0  0  0  0
   27.3017   75.5022    3.2045 H   0  0  0  0  0  0  0  0  0  0  0  0
 25 28  1  0
 25 24  1  0
 25 26  1  1
 25 27  2  0
  1  4  1  0
  1 24  1  0
  1  2  1  6
  1  3  2  0
  6 11  1  0
  6 12  1  0
 29 36  1  0
 29 37  1  0
  9  7  1  1
  7 13  1  0
 10  8  1  1
  8 14  1  0
 37 28  1  6
  4  5  1  0
 33 30  1  1
 30 38  1  0
 34 31  1  6
 31 39  1  0
 35 32  1  6
 32 40  1  0
 41 42  1  0
 41 43  1  0
 15 19  2  0
 16 22  2  0
 12 17  1  6
 17 19  1  0
 17 20  1  0
 18 19  1  0
 18 22  1  0
 18 23  1  0
  9 10  1  0
  9 11  1  0
 10 12  1  0
 11  5  1  6
 33 34  1  0
 33 35  1  0
 34 36  1  0
 35 37  1  0
 36 42  1  1
 20 21  2  0
 21 22  1  0
M  CHG  2   2  -1  26  -1
M  END
>  <COMPND>  (183) 
    8629 

>  <AUTHOR>  (183) 
    GENERATED BY OPEN BABEL 3.1.1

>  <MASTER>  (183) 
        0    0    0    0    0    0    0    0   58    0   58    0

>  <minimizedAffinity>  (183) 
-7.62605

>  <CNNscore>  (183) 
0.9092015028

>  <CNNaffinity>  (183) 
4.6503820419

>  <CNN_VS>  (183) 
4.2281341553

>  <CNNaffinity_variance>  (183) 
0.0516182370

$$$$
184
     RDKit          3D

 43 45  0  0  0  0  0  0  0  0999 V2000
   21.0575   71.2545   -2.6653 P   0  0  2  0  0  0  0  0  0  0  0  0
   20.8510   69.8871   -3.5049 O   0  0  0  0  0  0  0  0  0  0  0  0
   21.8756   71.1133   -1.4154 O   0  0  0  0  0  0  0  0  0  0  0  0
   19.5538   71.8159   -2.4613 O   0  0  0  0  0  0  0  0  0  0  0  0
   18.9543   72.5432   -3.5193 C   0  0  0  0  0  0  0  0  0  0  0  0
   17.0823   72.2858   -5.0037 O   0  0  0  0  0  0  0  0  0  0  0  0
   15.8619   70.5736   -2.8660 O   0  0  0  0  0  0  0  0  0  0  0  0
   16.8198   68.7285   -4.6308 O   0  0  0  0  0  0  0  0  0  0  0  0
   17.2291   70.6918   -3.2563 C   0  0  1  0  0  0  0  0  0  0  0  0
   17.4621   69.9860   -4.5758 C   0  0  2  0  0  0  0  0  0  0  0  0
   17.4878   72.1475   -3.6243 C   0  0  1  0  0  0  0  0  0  0  0  0
   16.8873   70.9799   -5.5707 C   0  0  2  0  0  0  0  0  0  0  0  0
   15.6729   69.6524   -2.6260 H   0  0  0  0  0  0  0  0  0  0  0  0
   17.2209   68.1317   -3.9798 H   0  0  0  0  0  0  0  0  0  0  0  0
   15.6215   70.2529   -7.9887 O   0  0  0  0  0  0  0  0  0  0  0  0
   19.5121   70.7907  -10.4001 O   0  0  0  0  0  0  0  0  0  0  0  0
   17.5455   70.9220   -6.8453 N   0  0  0  0  0  0  0  0  0  0  0  0
   17.5597   70.5215   -9.1875 N   0  0  0  0  0  0  0  0  0  0  0  0
   16.8193   70.5441   -7.9987 C   0  0  0  0  0  0  0  0  0  0  0  0
   18.8963   71.2380   -6.9427 C   0  0  0  0  0  0  0  0  0  0  0  0
   19.5881   71.2103   -8.0837 C   0  0  0  0  0  0  0  0  0  0  0  0
   18.9037   70.8258   -9.3350 C   0  0  0  0  0  0  0  0  0  0  0  0
   17.0746   70.2607  -10.0039 H   0  0  0  0  0  0  0  0  0  0  0  0
   21.6769   72.2655   -3.7641 O   0  0  0  0  0  0  0  0  0  0  0  0
   23.2069   72.6761   -4.0856 P   0  0  2  0  0  0  0  0  0  0  0  0
   23.2171   72.8382   -5.6953 O   0  0  0  0  0  0  0  0  0  0  0  0
   24.2275   71.7120   -3.5538 O   0  0  0  0  0  0  0  0  0  0  0  0
   23.3525   74.1820   -3.5233 O   0  0  0  0  0  0  0  0  0  0  0  0
   24.9055   75.1823   -2.0387 O   0  0  0  0  0  0  0  0  0  0  0  0
   21.4589   77.0550   -0.7484 O   0  0  0  0  0  0  0  0  0  0  0  0
   23.4059   78.5434   -2.2456 O   0  0  0  0  0  0  0  0  0  0  0  0
   21.3834   74.2676   -1.5258 O   0  0  0  0  0  0  0  0  0  0  0  0
   22.3423   76.4695   -1.7087 C   0  0  1  0  0  0  0  0  0  0  0  0
   23.6557   77.2540   -1.6930 C   0  0  1  0  0  0  0  0  0  0  0  0
   22.5848   75.0076   -1.3378 C   0  0  2  0  0  0  0  0  0  0  0  0
   24.7434   76.5295   -2.4975 C   0  0  1  0  0  0  0  0  0  0  0  0
   23.7187   74.3962   -2.1627 C   0  0  1  0  0  0  0  0  0  0  0  0
   21.3004   77.9831   -0.9784 H   0  0  0  0  0  0  0  0  0  0  0  0
   22.7169   78.9901   -1.7288 H   0  0  0  0  0  0  0  0  0  0  0  0
   20.6734   74.6644   -0.9982 H   0  0  0  0  0  0  0  0  0  0  0  0
   26.0646   78.0768   -1.2448 O   0  0  0  0  0  0  0  0  0  0  0  0
   26.1029   77.2124   -2.3654 C   0  0  0  0  0  0  0  0  0  0  0  0
   26.9235   78.5181   -1.1482 H   0  0  0  0  0  0  0  0  0  0  0  0
 25 28  1  0
 25 24  1  0
 25 26  1  6
 25 27  2  0
  1  4  1  0
  1 24  1  0
  1  2  1  6
  1  3  2  0
  6 11  1  0
  6 12  1  0
 29 36  1  0
 29 37  1  0
  9  7  1  6
  7 13  1  0
 10  8  1  1
  8 14  1  0
 37 28  1  6
  4  5  1  0
 33 30  1  1
 30 38  1  0
 34 31  1  6
 31 39  1  0
 35 32  1  6
 32 40  1  0
 41 42  1  0
 41 43  1  0
 15 19  2  0
 16 22  2  0
 12 17  1  6
 17 19  1  0
 17 20  1  0
 18 19  1  0
 18 22  1  0
 18 23  1  0
  9 10  1  0
  9 11  1  0
 10 12  1  0
 11  5  1  6
 33 34  1  0
 33 35  1  0
 34 36  1  0
 35 37  1  0
 36 42  1  1
 20 21  2  0
 21 22  1  0
M  CHG  2   2  -1  26  -1
M  END
>  <COMPND>  (184) 
    8629 

>  <AUTHOR>  (184) 
    GENERATED BY OPEN BABEL 3.1.1

>  <MASTER>  (184) 
        0    0    0    0    0    0    0    0   58    0   58    0

>  <minimizedAffinity>  (184) 
-6.27103

>  <CNNscore>  (184) 
0.8953356147

>  <CNNaffinity>  (184) 
4.7994947433

>  <CNN_VS>  (184) 
4.2971587181

>  <CNNaffinity_variance>  (184) 
0.1596890092

$$$$
185
     RDKit          3D

 43 45  0  0  0  0  0  0  0  0999 V2000
   22.7890   71.6313   -2.3257 P   0  0  2  0  0  0  0  0  0  0  0  0
   24.1121   70.9111   -2.9157 O   0  0  0  0  0  0  0  0  0  0  0  0
   22.2879   71.0706   -1.0273 O   0  0  0  0  0  0  0  0  0  0  0  0
   21.7424   71.5912   -3.5589 O   0  0  0  0  0  0  0  0  0  0  0  0
   20.8536   70.4919   -3.6560 C   0  0  0  0  0  0  0  0  0  0  0  0
   18.9622   71.6337   -4.6009 O   0  0  0  0  0  0  0  0  0  0  0  0
   17.3491   70.3901   -2.4004 O   0  0  0  0  0  0  0  0  0  0  0  0
   16.7673   68.7980   -4.5366 O   0  0  0  0  0  0  0  0  0  0  0  0
   18.4491   69.8482   -3.1296 C   0  0  1  0  0  0  0  0  0  0  0  0
   18.0141   69.4628   -4.5281 C   0  0  2  0  0  0  0  0  0  0  0  0
   19.4334   70.9787   -3.4028 C   0  0  1  0  0  0  0  0  0  0  0  0
   17.9622   70.8118   -5.2249 C   0  0  2  0  0  0  0  0  0  0  0  0
   16.7071   69.6865   -2.2138 H   0  0  0  0  0  0  0  0  0  0  0  0
   16.8521   67.9455   -4.0819 H   0  0  0  0  0  0  0  0  0  0  0  0
   16.0477   70.1805   -7.2033 O   0  0  0  0  0  0  0  0  0  0  0  0
   19.1728   70.4650  -10.5788 O   0  0  0  0  0  0  0  0  0  0  0  0
   18.2480   70.7146   -6.6286 N   0  0  0  0  0  0  0  0  0  0  0  0
   17.6053   70.3229   -8.8824 N   0  0  0  0  0  0  0  0  0  0  0  0
   17.2151   70.3906   -7.5388 C   0  0  0  0  0  0  0  0  0  0  0  0
   19.5405   70.9396   -7.0898 C   0  0  0  0  0  0  0  0  0  0  0  0
   19.8965   70.8698   -8.3742 C   0  0  0  0  0  0  0  0  0  0  0  0
   18.8770   70.5369   -9.3900 C   0  0  0  0  0  0  0  0  0  0  0  0
   16.9024   70.0983   -9.5346 H   0  0  0  0  0  0  0  0  0  0  0  0
   23.2193   73.1882   -2.2647 O   0  0  0  0  0  0  0  0  0  0  0  0
   23.8009   74.1743   -3.4059 P   0  0  2  0  0  0  0  0  0  0  0  0
   24.6098   73.1721   -4.3852 O   0  0  0  0  0  0  0  0  0  0  0  0
   24.6193   75.3153   -2.8746 O   0  0  0  0  0  0  0  0  0  0  0  0
   22.5056   74.6206   -4.2591 O   0  0  0  0  0  0  0  0  0  0  0  0
   21.1086   73.9826   -6.0641 O   0  0  0  0  0  0  0  0  0  0  0  0
   22.5370   77.5540   -7.5658 O   0  0  0  0  0  0  0  0  0  0  0  0
   19.8149   77.3814   -6.6666 O   0  0  0  0  0  0  0  0  0  0  0  0
   24.2948   75.8139   -6.0618 O   0  0  0  0  0  0  0  0  0  0  0  0
   22.0904   76.6543   -6.5478 C   0  0  1  0  0  0  0  0  0  0  0  0
   20.6511   76.2452   -6.8669 C   0  0  1  0  0  0  0  0  0  0  0  0
   23.0049   75.4309   -6.5267 C   0  0  2  0  0  0  0  0  0  0  0  0
   20.1951   75.0823   -5.9755 C   0  0  1  0  0  0  0  0  0  0  0  0
   22.4351   74.3148   -5.6493 C   0  0  1  0  0  0  0  0  0  0  0  0
   21.9608   78.3333   -7.5841 H   0  0  0  0  0  0  0  0  0  0  0  0
   20.1139   78.1087   -7.2349 H   0  0  0  0  0  0  0  0  0  0  0  0
   24.6447   76.5207   -6.6256 H   0  0  0  0  0  0  0  0  0  0  0  0
   18.0311   74.4118   -5.2161 O   0  0  0  0  0  0  0  0  0  0  0  0
   18.8210   74.5546   -6.3823 C   0  0  0  0  0  0  0  0  0  0  0  0
   17.1535   74.0769   -5.4598 H   0  0  0  0  0  0  0  0  0  0  0  0
 25 28  1  0
 25 24  1  0
 25 26  1  6
 25 27  2  0
  1  4  1  0
  1 24  1  0
  1  2  1  6
  1  3  2  0
  6 11  1  0
  6 12  1  0
 29 36  1  0
 29 37  1  0
  9  7  1  1
  7 13  1  0
 10  8  1  1
  8 14  1  0
 37 28  1  1
  4  5  1  0
 33 30  1  6
 30 38  1  0
 34 31  1  1
 31 39  1  0
 35 32  1  1
 32 40  1  0
 41 42  1  0
 41 43  1  0
 15 19  2  0
 16 22  2  0
 12 17  1  6
 17 19  1  0
 17 20  1  0
 18 19  1  0
 18 22  1  0
 18 23  1  0
  9 10  1  0
  9 11  1  0
 10 12  1  0
 11  5  1  6
 33 34  1  0
 33 35  1  0
 34 36  1  0
 35 37  1  0
 36 42  1  6
 20 21  2  0
 21 22  1  0
M  CHG  2   2  -1  26  -1
M  END
>  <COMPND>  (185) 
    8629 

>  <AUTHOR>  (185) 
    GENERATED BY OPEN BABEL 3.1.1

>  <MASTER>  (185) 
        0    0    0    0    0    0    0    0   58    0   58    0

>  <minimizedAffinity>  (185) 
-6.87359

>  <CNNscore>  (185) 
0.8948483467

>  <CNNaffinity>  (185) 
4.5405545235

>  <CNN_VS>  (185) 
4.0631074905

>  <CNNaffinity_variance>  (185) 
0.3208920062

$$$$
186
     RDKit          3D

 43 45  0  0  0  0  0  0  0  0999 V2000
   21.6107   72.4587   -1.7868 P   0  0  2  0  0  0  0  0  0  0  0  0
   20.4977   73.0931   -0.7989 O   0  0  0  0  0  0  0  0  0  0  0  0
   22.1554   73.4032   -2.8176 O   0  0  0  0  0  0  0  0  0  0  0  0
   20.9027   71.1225   -2.3625 O   0  0  0  0  0  0  0  0  0  0  0  0
   20.3505   71.1584   -3.6669 C   0  0  0  0  0  0  0  0  0  0  0  0
   18.4113   71.9538   -4.8421 O   0  0  0  0  0  0  0  0  0  0  0  0
   16.7954   70.6175   -2.6987 O   0  0  0  0  0  0  0  0  0  0  0  0
   16.6411   68.8357   -4.7574 O   0  0  0  0  0  0  0  0  0  0  0  0
   18.0227   70.2012   -3.2951 C   0  0  1  0  0  0  0  0  0  0  0  0
   17.7759   69.6754   -4.6938 C   0  0  2  0  0  0  0  0  0  0  0  0
   18.8587   71.4458   -3.5661 C   0  0  1  0  0  0  0  0  0  0  0  0
   17.5982   70.9594   -5.4862 C   0  0  2  0  0  0  0  0  0  0  0  0
   16.2446   69.8395   -2.5161 H   0  0  0  0  0  0  0  0  0  0  0  0
   16.8034   68.0328   -4.2380 H   0  0  0  0  0  0  0  0  0  0  0  0
   15.9379   70.0709   -7.5914 O   0  0  0  0  0  0  0  0  0  0  0  0
   19.3313   70.4759  -10.6835 O   0  0  0  0  0  0  0  0  0  0  0  0
   18.0218   70.8235   -6.8513 N   0  0  0  0  0  0  0  0  0  0  0  0
   17.6289   70.2734   -9.1293 N   0  0  0  0  0  0  0  0  0  0  0  0
   17.1099   70.3680   -7.8317 C   0  0  0  0  0  0  0  0  0  0  0  0
   19.3284   71.1408   -7.2063 C   0  0  0  0  0  0  0  0  0  0  0  0
   19.8081   71.0439   -8.4480 C   0  0  0  0  0  0  0  0  0  0  0  0
   18.9201   70.5757   -9.5317 C   0  0  0  0  0  0  0  0  0  0  0  0
   17.0118   69.9578   -9.8289 H   0  0  0  0  0  0  0  0  0  0  0  0
   22.7145   71.8721   -0.7618 O   0  0  0  0  0  0  0  0  0  0  0  0
   22.5666   71.2928    0.7400 P   0  0  2  0  0  0  0  0  0  0  0  0
   23.9549   70.4941    0.9680 O   0  0  0  0  0  0  0  0  0  0  0  0
   21.3330   70.4664    0.9621 O   0  0  0  0  0  0  0  0  0  0  0  0
   22.6822   72.5911    1.6919 O   0  0  0  0  0  0  0  0  0  0  0  0
   23.8020   73.0365    3.7326 O   0  0  0  0  0  0  0  0  0  0  0  0
   20.2044   74.8980    4.5342 O   0  0  0  0  0  0  0  0  0  0  0  0
   22.5415   76.4881    4.0268 O   0  0  0  0  0  0  0  0  0  0  0  0
   20.2436   72.4025    3.0678 O   0  0  0  0  0  0  0  0  0  0  0  0
   21.2959   74.4701    3.7152 C   0  0  1  0  0  0  0  0  0  0  0  0
   22.5821   75.0848    4.2708 C   0  0  1  0  0  0  0  0  0  0  0  0
   21.3731   72.9448    3.7435 C   0  0  2  0  0  0  0  0  0  0  0  0
   23.8219   74.4637    3.6133 C   0  0  1  0  0  0  0  0  0  0  0  0
   22.6672   72.4328    3.1082 C   0  0  1  0  0  0  0  0  0  0  0  0
   20.1495   75.8657    4.5202 H   0  0  0  0  0  0  0  0  0  0  0  0
   21.7538   76.8679    4.4468 H   0  0  0  0  0  0  0  0  0  0  0  0
   19.4309   72.7338    3.4795 H   0  0  0  0  0  0  0  0  0  0  0  0
   24.8272   75.3674    5.5835 O   0  0  0  0  0  0  0  0  0  0  0  0
   25.1166   74.9476    4.2628 C   0  0  0  0  0  0  0  0  0  0  0  0
   25.6422   75.6777    6.0093 H   0  0  0  0  0  0  0  0  0  0  0  0
 25 28  1  0
 25 24  1  0
 25 26  1  1
 25 27  2  0
  1  4  1  0
  1 24  1  0
  1  2  1  1
  1  3  2  0
  6 11  1  0
  6 12  1  0
 29 36  1  0
 29 37  1  0
  9  7  1  6
  7 13  1  0
 10  8  1  1
  8 14  1  0
 37 28  1  6
  4  5  1  0
 33 30  1  1
 30 38  1  0
 34 31  1  6
 31 39  1  0
 35 32  1  6
 32 40  1  0
 41 42  1  0
 41 43  1  0
 15 19  2  0
 16 22  2  0
 12 17  1  6
 17 19  1  0
 17 20  1  0
 18 19  1  0
 18 22  1  0
 18 23  1  0
  9 10  1  0
  9 11  1  0
 10 12  1  0
 11  5  1  6
 33 34  1  0
 33 35  1  0
 34 36  1  0
 35 37  1  0
 36 42  1  1
 20 21  2  0
 21 22  1  0
M  CHG  2   2  -1  26  -1
M  END
>  <COMPND>  (186) 
    8629 

>  <AUTHOR>  (186) 
    GENERATED BY OPEN BABEL 3.1.1

>  <MASTER>  (186) 
        0    0    0    0    0    0    0    0   58    0   58    0

>  <minimizedAffinity>  (186) 
-6.89931

>  <CNNscore>  (186) 
0.8832888007

>  <CNNaffinity>  (186) 
4.5530056953

>  <CNN_VS>  (186) 
4.0216188431

>  <CNNaffinity_variance>  (186) 
0.0675404444

$$$$
187
     RDKit          3D

 43 45  0  0  0  0  0  0  0  0999 V2000
   21.0176   71.5836   -0.5657 P   0  0  2  0  0  0  0  0  0  0  0  0
   21.0337   70.7049    0.7926 O   0  0  0  0  0  0  0  0  0  0  0  0
   20.8968   73.0651   -0.3608 O   0  0  0  0  0  0  0  0  0  0  0  0
   19.8527   70.9002   -1.4566 O   0  0  0  0  0  0  0  0  0  0  0  0
   18.8877   71.7396   -2.0665 C   0  0  0  0  0  0  0  0  0  0  0  0
   17.2212   71.1316   -3.6873 O   0  0  0  0  0  0  0  0  0  0  0  0
   16.5370   68.8589   -1.8549 O   0  0  0  0  0  0  0  0  0  0  0  0
   18.0575   67.6448   -3.7657 O   0  0  0  0  0  0  0  0  0  0  0  0
   17.8102   69.4359   -2.1402 C   0  0  1  0  0  0  0  0  0  0  0  0
   18.2801   69.0181   -3.5180 C   0  0  2  0  0  0  0  0  0  0  0  0
   17.6170   70.9375   -2.3118 C   0  0  1  0  0  0  0  0  0  0  0  0
   17.4509   69.9167   -4.4196 C   0  0  2  0  0  0  0  0  0  0  0  0
   16.6350   67.9001   -1.7409 H   0  0  0  0  0  0  0  0  0  0  0  0
   18.6073   67.1150   -3.1676 H   0  0  0  0  0  0  0  0  0  0  0  0
   16.2821   69.7036   -6.9822 O   0  0  0  0  0  0  0  0  0  0  0  0
   20.1318   71.1545   -9.0596 O   0  0  0  0  0  0  0  0  0  0  0  0
   18.1248   70.2327   -5.6474 N   0  0  0  0  0  0  0  0  0  0  0  0
   18.1999   70.4264   -8.0145 N   0  0  0  0  0  0  0  0  0  0  0  0
   17.4482   70.0904   -6.8812 C   0  0  0  0  0  0  0  0  0  0  0  0
   19.4418   70.6784   -5.6201 C   0  0  0  0  0  0  0  0  0  0  0  0
   20.1450   70.9934   -6.7098 C   0  0  0  0  0  0  0  0  0  0  0  0
   19.5117   70.8726   -8.0389 C   0  0  0  0  0  0  0  0  0  0  0  0
   17.7492   70.3347   -8.8853 H   0  0  0  0  0  0  0  0  0  0  0  0
   22.3706   71.1164   -1.3168 O   0  0  0  0  0  0  0  0  0  0  0  0
   23.1525   71.7454   -2.5841 P   0  0  2  0  0  0  0  0  0  0  0  0
   21.9726   71.9907   -3.6635 O   0  0  0  0  0  0  0  0  0  0  0  0
   24.2871   70.9011   -3.0880 O   0  0  0  0  0  0  0  0  0  0  0  0
   23.5816   73.2259   -2.1057 O   0  0  0  0  0  0  0  0  0  0  0  0
   22.3715   75.2625   -2.1711 O   0  0  0  0  0  0  0  0  0  0  0  0
   26.1475   76.7116   -3.0035 O   0  0  0  0  0  0  0  0  0  0  0  0
   24.9690   77.2182   -0.4340 O   0  0  0  0  0  0  0  0  0  0  0  0
   25.2966   74.1770   -4.1130 O   0  0  0  0  0  0  0  0  0  0  0  0
   25.1906   75.8490   -2.3825 C   0  0  1  0  0  0  0  0  0  0  0  0
   24.2401   76.7093   -1.5475 C   0  0  1  0  0  0  0  0  0  0  0  0
   24.4218   75.0946   -3.4657 C   0  0  2  0  0  0  0  0  0  0  0  0
   23.0318   75.8939   -1.0678 C   0  0  1  0  0  0  0  0  0  0  0  0
   23.2116   74.3571   -2.8896 C   0  0  1  0  0  0  0  0  0  0  0  0
   26.6395   77.1932   -2.3212 H   0  0  0  0  0  0  0  0  0  0  0  0
   25.7295   77.7306   -0.7506 H   0  0  0  0  0  0  0  0  0  0  0  0
   26.0583   74.6561   -4.4736 H   0  0  0  0  0  0  0  0  0  0  0  0
   21.2439   75.9546    0.5161 O   0  0  0  0  0  0  0  0  0  0  0  0
   21.9936   76.7679   -0.3675 C   0  0  0  0  0  0  0  0  0  0  0  0
   20.5794   76.4976    0.9691 H   0  0  0  0  0  0  0  0  0  0  0  0
 25 28  1  0
 25 24  1  0
 25 26  1  6
 25 27  2  0
  1  4  1  0
  1 24  1  0
  1  2  1  1
  1  3  2  0
  6 11  1  0
  6 12  1  0
 29 36  1  0
 29 37  1  0
  9  7  1  6
  7 13  1  0
 10  8  1  6
  8 14  1  0
 37 28  1  1
  4  5  1  0
 33 30  1  6
 30 38  1  0
 34 31  1  1
 31 39  1  0
 35 32  1  1
 32 40  1  0
 41 42  1  0
 41 43  1  0
 15 19  2  0
 16 22  2  0
 12 17  1  6
 17 19  1  0
 17 20  1  0
 18 19  1  0
 18 22  1  0
 18 23  1  0
  9 10  1  0
  9 11  1  0
 10 12  1  0
 11  5  1  6
 33 34  1  0
 33 35  1  0
 34 36  1  0
 35 37  1  0
 36 42  1  6
 20 21  2  0
 21 22  1  0
M  CHG  2   2  -1  26  -1
M  END
>  <COMPND>  (187) 
    8629 

>  <AUTHOR>  (187) 
    GENERATED BY OPEN BABEL 3.1.1

>  <MASTER>  (187) 
        0    0    0    0    0    0    0    0   58    0   58    0

>  <minimizedAffinity>  (187) 
-6.63283

>  <CNNscore>  (187) 
0.8829931021

>  <CNNaffinity>  (187) 
4.5919122696

>  <CNN_VS>  (187) 
4.0546269417

>  <CNNaffinity_variance>  (187) 
0.0733868778

$$$$
188
     RDKit          3D

 43 45  0  0  0  0  0  0  0  0999 V2000
   22.9798   71.4853   -2.2803 P   0  0  2  0  0  0  0  0  0  0  0  0
   22.6990   73.0749   -2.3893 O   0  0  0  0  0  0  0  0  0  0  0  0
   24.1943   71.0042   -3.0184 O   0  0  0  0  0  0  0  0  0  0  0  0
   21.5765   70.8119   -2.7221 O   0  0  0  0  0  0  0  0  0  0  0  0
   20.9619   71.2539   -3.9199 C   0  0  0  0  0  0  0  0  0  0  0  0
   18.8857   71.9948   -4.8760 O   0  0  0  0  0  0  0  0  0  0  0  0
   17.5552   70.7021   -2.5203 O   0  0  0  0  0  0  0  0  0  0  0  0
   17.1823   68.8614   -4.4975 O   0  0  0  0  0  0  0  0  0  0  0  0
   18.7086   70.2824   -3.2475 C   0  0  1  0  0  0  0  0  0  0  0  0
   18.3046   69.7148   -4.5922 C   0  0  2  0  0  0  0  0  0  0  0  0
   19.4888   71.5278   -3.6494 C   0  0  1  0  0  0  0  0  0  0  0  0
   18.0158   70.9739   -5.3918 C   0  0  2  0  0  0  0  0  0  0  0  0
   17.0411   69.9236   -2.2525 H   0  0  0  0  0  0  0  0  0  0  0  0
   17.4165   68.0752   -3.9800 H   0  0  0  0  0  0  0  0  0  0  0  0
   16.1352   69.9913   -7.2561 O   0  0  0  0  0  0  0  0  0  0  0  0
   19.1246   70.3636  -10.7441 O   0  0  0  0  0  0  0  0  0  0  0  0
   18.2759   70.8042   -6.7936 N   0  0  0  0  0  0  0  0  0  0  0  0
   17.6252   70.1777   -8.9914 N   0  0  0  0  0  0  0  0  0  0  0  0
   17.2633   70.3023   -7.6440 C   0  0  0  0  0  0  0  0  0  0  0  0
   19.5234   71.1342   -7.3119 C   0  0  0  0  0  0  0  0  0  0  0  0
   19.8530   71.0083   -8.5990 C   0  0  0  0  0  0  0  0  0  0  0  0
   18.8521   70.4911   -9.5545 C   0  0  0  0  0  0  0  0  0  0  0  0
   16.9358   69.8297   -9.6025 H   0  0  0  0  0  0  0  0  0  0  0  0
   23.0180   71.2315   -0.6843 O   0  0  0  0  0  0  0  0  0  0  0  0
   21.9544   71.6017    0.4752 P   0  0  2  0  0  0  0  0  0  0  0  0
   21.5576   70.1584    1.0893 O   0  0  0  0  0  0  0  0  0  0  0  0
   20.7853   72.4154    0.0008 O   0  0  0  0  0  0  0  0  0  0  0  0
   22.8362   72.3069    1.6285 O   0  0  0  0  0  0  0  0  0  0  0  0
   22.4449   73.9473    3.2936 O   0  0  0  0  0  0  0  0  0  0  0  0
   26.0465   75.3390    1.8299 O   0  0  0  0  0  0  0  0  0  0  0  0
   25.9539   74.0895    4.4142 O   0  0  0  0  0  0  0  0  0  0  0  0
   24.0791   74.2373    0.0147 O   0  0  0  0  0  0  0  0  0  0  0  0
   25.0871   74.3449    2.1996 C   0  0  1  0  0  0  0  0  0  0  0  0
   24.7932   74.4943    3.6937 C   0  0  1  0  0  0  0  0  0  0  0  0
   23.8153   74.5489    1.3785 C   0  0  2  0  0  0  0  0  0  0  0  0
   23.5839   73.6451    4.1080 C   0  0  1  0  0  0  0  0  0  0  0  0
   22.6605   73.6942    1.9039 C   0  0  1  0  0  0  0  0  0  0  0  0
   26.8567   75.2147    2.3474 H   0  0  0  0  0  0  0  0  0  0  0  0
   26.7102   74.6331    4.1429 H   0  0  0  0  0  0  0  0  0  0  0  0
   24.8117   74.7851   -0.3061 H   0  0  0  0  0  0  0  0  0  0  0  0
   21.9885   73.1761    5.8237 O   0  0  0  0  0  0  0  0  0  0  0  0
   23.1760   73.8995    5.5574 C   0  0  0  0  0  0  0  0  0  0  0  0
   21.7172   73.3283    6.7429 H   0  0  0  0  0  0  0  0  0  0  0  0
 25 28  1  0
 25 24  1  0
 25 26  1  1
 25 27  2  0
  1  4  1  0
  1 24  1  0
  1  2  1  1
  1  3  2  0
  6 11  1  0
  6 12  1  0
 29 36  1  0
 29 37  1  0
  9  7  1  1
  7 13  1  0
 10  8  1  1
  8 14  1  0
 37 28  1  1
  4  5  1  0
 33 30  1  6
 30 38  1  0
 34 31  1  1
 31 39  1  0
 35 32  1  6
 32 40  1  0
 41 42  1  0
 41 43  1  0
 15 19  2  0
 16 22  2  0
 12 17  1  6
 17 19  1  0
 17 20  1  0
 18 19  1  0
 18 22  1  0
 18 23  1  0
  9 10  1  0
  9 11  1  0
 10 12  1  0
 11  5  1  6
 33 34  1  0
 33 35  1  0
 34 36  1  0
 35 37  1  0
 36 42  1  1
 20 21  2  0
 21 22  1  0
M  CHG  2   2  -1  26  -1
M  END
>  <COMPND>  (188) 
    8629 

>  <AUTHOR>  (188) 
    GENERATED BY OPEN BABEL 3.1.1

>  <MASTER>  (188) 
        0    0    0    0    0    0    0    0   58    0   58    0

>  <minimizedAffinity>  (188) 
-7.59634

>  <CNNscore>  (188) 
0.8816776872

>  <CNNaffinity>  (188) 
4.6154289246

>  <CNN_VS>  (188) 
4.0693206787

>  <CNNaffinity_variance>  (188) 
0.0577010326

$$$$
189
     RDKit          3D

 43 45  0  0  0  0  0  0  0  0999 V2000
   21.2253   71.8772   -2.3609 P   0  0  2  0  0  0  0  0  0  0  0  0
   21.1485   70.3730   -2.9517 O   0  0  0  0  0  0  0  0  0  0  0  0
   21.9469   72.0079   -1.0519 O   0  0  0  0  0  0  0  0  0  0  0  0
   19.6862   72.3762   -2.3678 O   0  0  0  0  0  0  0  0  0  0  0  0
   19.0973   72.7348   -3.6057 C   0  0  0  0  0  0  0  0  0  0  0  0
   17.1811   72.3075   -4.9912 O   0  0  0  0  0  0  0  0  0  0  0  0
   16.1642   70.6105   -2.7380 O   0  0  0  0  0  0  0  0  0  0  0  0
   17.1555   68.7582   -4.4768 O   0  0  0  0  0  0  0  0  0  0  0  0
   17.5029   70.7951   -3.1954 C   0  0  1  0  0  0  0  0  0  0  0  0
   17.7206   70.0532   -4.4977 C   0  0  2  0  0  0  0  0  0  0  0  0
   17.6548   72.2481   -3.6279 C   0  0  1  0  0  0  0  0  0  0  0  0
   17.0423   70.9710   -5.5004 C   0  0  2  0  0  0  0  0  0  0  0  0
   16.0432   69.6897   -2.4560 H   0  0  0  0  0  0  0  0  0  0  0  0
   17.6209   68.2126   -3.8238 H   0  0  0  0  0  0  0  0  0  0  0  0
   15.6820   70.1993   -7.8524 O   0  0  0  0  0  0  0  0  0  0  0  0
   19.4601   70.7436  -10.4352 O   0  0  0  0  0  0  0  0  0  0  0  0
   17.6460   70.9026   -6.8013 N   0  0  0  0  0  0  0  0  0  0  0  0
   17.5642   70.4711   -9.1365 N   0  0  0  0  0  0  0  0  0  0  0  0
   16.8751   70.5022   -7.9174 C   0  0  0  0  0  0  0  0  0  0  0  0
   18.9880   71.2308   -6.9605 C   0  0  0  0  0  0  0  0  0  0  0  0
   19.6306   71.1948   -8.1297 C   0  0  0  0  0  0  0  0  0  0  0  0
   18.8974   70.7868   -9.3455 C   0  0  0  0  0  0  0  0  0  0  0  0
   17.0475   70.1947   -9.9280 H   0  0  0  0  0  0  0  0  0  0  0  0
   21.8836   72.7126   -3.5782 O   0  0  0  0  0  0  0  0  0  0  0  0
   23.4004   73.2148   -3.8230 P   0  0  2  0  0  0  0  0  0  0  0  0
   24.2605   71.8464   -3.7516 O   0  0  0  0  0  0  0  0  0  0  0  0
   23.8560   74.2830   -2.8714 O   0  0  0  0  0  0  0  0  0  0  0  0
   23.4431   73.6425   -5.3787 O   0  0  0  0  0  0  0  0  0  0  0  0
   21.8139   75.3621   -5.4503 O   0  0  0  0  0  0  0  0  0  0  0  0
   23.2418   75.6447   -9.3145 O   0  0  0  0  0  0  0  0  0  0  0  0
   23.9055   77.6846   -7.4049 O   0  0  0  0  0  0  0  0  0  0  0  0
   22.9374   73.0470   -8.0740 O   0  0  0  0  0  0  0  0  0  0  0  0
   23.3322   75.4171   -7.9055 C   0  0  1  0  0  0  0  0  0  0  0  0
   22.9029   76.6964   -7.1845 C   0  0  1  0  0  0  0  0  0  0  0  0
   22.4165   74.2541   -7.5280 C   0  0  2  0  0  0  0  0  0  0  0  0
   22.7173   76.4495   -5.6813 C   0  0  1  0  0  0  0  0  0  0  0  0
   22.2614   74.1265   -6.0115 C   0  0  1  0  0  0  0  0  0  0  0  0
   23.8213   76.3817   -9.5608 H   0  0  0  0  0  0  0  0  0  0  0  0
   24.0132   77.8307   -8.3579 H   0  0  0  0  0  0  0  0  0  0  0  0
   23.0305   73.1405   -9.0345 H   0  0  0  0  0  0  0  0  0  0  0  0
   21.4904   78.4849   -5.9276 O   0  0  0  0  0  0  0  0  0  0  0  0
   22.1382   77.6696   -4.9685 C   0  0  0  0  0  0  0  0  0  0  0  0
   21.1166   79.2652   -5.4882 H   0  0  0  0  0  0  0  0  0  0  0  0
 25 28  1  0
 25 24  1  0
 25 26  1  6
 25 27  2  0
  1  4  1  0
  1 24  1  0
  1  2  1  6
  1  3  2  0
  6 11  1  0
  6 12  1  0
 29 36  1  0
 29 37  1  0
  9  7  1  6
  7 13  1  0
 10  8  1  1
  8 14  1  0
 37 28  1  1
  4  5  1  0
 33 30  1  6
 30 38  1  0
 34 31  1  1
 31 39  1  0
 35 32  1  1
 32 40  1  0
 41 42  1  0
 41 43  1  0
 15 19  2  0
 16 22  2  0
 12 17  1  6
 17 19  1  0
 17 20  1  0
 18 19  1  0
 18 22  1  0
 18 23  1  0
  9 10  1  0
  9 11  1  0
 10 12  1  0
 11  5  1  6
 33 34  1  0
 33 35  1  0
 34 36  1  0
 35 37  1  0
 36 42  1  1
 20 21  2  0
 21 22  1  0
M  CHG  2   2  -1  26  -1
M  END
>  <COMPND>  (189) 
    8629 

>  <AUTHOR>  (189) 
    GENERATED BY OPEN BABEL 3.1.1

>  <MASTER>  (189) 
        0    0    0    0    0    0    0    0   58    0   58    0

>  <minimizedAffinity>  (189) 
-6.93037

>  <CNNscore>  (189) 
0.8752691150

>  <CNNaffinity>  (189) 
4.6100211143

>  <CNN_VS>  (189) 
4.0350089073

>  <CNNaffinity_variance>  (189) 
0.1391259730

$$$$
190
     RDKit          3D

 43 45  0  0  0  0  0  0  0  0999 V2000
   23.0352   71.6774   -2.9765 P   0  0  2  0  0  0  0  0  0  0  0  0
   22.5952   72.5380   -4.2740 O   0  0  0  0  0  0  0  0  0  0  0  0
   24.3023   70.8902   -3.1381 O   0  0  0  0  0  0  0  0  0  0  0  0
   21.7140   70.8160   -2.6155 O   0  0  0  0  0  0  0  0  0  0  0  0
   20.8657   70.4040   -3.6731 C   0  0  0  0  0  0  0  0  0  0  0  0
   19.0037   71.5990   -4.6105 O   0  0  0  0  0  0  0  0  0  0  0  0
   17.3636   70.3972   -2.4067 O   0  0  0  0  0  0  0  0  0  0  0  0
   16.7314   68.8250   -4.5433 O   0  0  0  0  0  0  0  0  0  0  0  0
   18.4459   69.8262   -3.1401 C   0  0  1  0  0  0  0  0  0  0  0  0
   17.9962   69.4550   -4.5378 C   0  0  2  0  0  0  0  0  0  0  0  0
   19.4602   70.9294   -3.4148 C   0  0  1  0  0  0  0  0  0  0  0  0
   17.9794   70.8060   -5.2326 C   0  0  2  0  0  0  0  0  0  0  0  0
   16.7029   69.7114   -2.2192 H   0  0  0  0  0  0  0  0  0  0  0  0
   16.7940   67.9698   -4.0901 H   0  0  0  0  0  0  0  0  0  0  0  0
   16.0550   70.1661   -7.1985 O   0  0  0  0  0  0  0  0  0  0  0  0
   19.1628   70.4372  -10.5910 O   0  0  0  0  0  0  0  0  0  0  0  0
   18.2581   70.7030   -6.6372 N   0  0  0  0  0  0  0  0  0  0  0  0
   17.6040   70.3018   -8.8861 N   0  0  0  0  0  0  0  0  0  0  0  0
   17.2206   70.3751   -7.5409 C   0  0  0  0  0  0  0  0  0  0  0  0
   19.5482   70.9264   -7.1060 C   0  0  0  0  0  0  0  0  0  0  0  0
   19.8976   70.8513   -8.3919 C   0  0  0  0  0  0  0  0  0  0  0  0
   18.8730   70.5139   -9.4010 C   0  0  0  0  0  0  0  0  0  0  0  0
   16.8979   70.0744   -9.5338 H   0  0  0  0  0  0  0  0  0  0  0  0
   23.0777   72.7870   -1.8018 O   0  0  0  0  0  0  0  0  0  0  0  0
   23.2725   72.6347   -0.2043 P   0  0  2  0  0  0  0  0  0  0  0  0
   24.2661   73.8565    0.1664 O   0  0  0  0  0  0  0  0  0  0  0  0
   23.7632   71.2839    0.2298 O   0  0  0  0  0  0  0  0  0  0  0  0
   21.8484   73.0626    0.4234 O   0  0  0  0  0  0  0  0  0  0  0  0
   20.8589   74.7784   -0.8779 O   0  0  0  0  0  0  0  0  0  0  0  0
   18.2053   74.7360    2.2856 O   0  0  0  0  0  0  0  0  0  0  0  0
   17.3967   73.6752   -0.2578 O   0  0  0  0  0  0  0  0  0  0  0  0
   21.0356   74.3695    2.7700 O   0  0  0  0  0  0  0  0  0  0  0  0
   19.1107   74.1657    1.3366 C   0  0  1  0  0  0  0  0  0  0  0  0
   18.5762   74.4518   -0.0681 C   0  0  1  0  0  0  0  0  0  0  0  0
   20.4910   74.7924    1.5246 C   0  0  2  0  0  0  0  0  0  0  0  0
   19.6204   74.1079   -1.1388 C   0  0  1  0  0  0  0  0  0  0  0  0
   21.4380   74.4267    0.3803 C   0  0  1  0  0  0  0  0  0  0  0  0
   17.3271   74.3420    2.1719 H   0  0  0  0  0  0  0  0  0  0  0  0
   16.7457   73.9016    0.4250 H   0  0  0  0  0  0  0  0  0  0  0  0
   20.4270   74.6070    3.4863 H   0  0  0  0  0  0  0  0  0  0  0  0
   18.0518   75.3914   -2.4041 O   0  0  0  0  0  0  0  0  0  0  0  0
   19.1691   74.5318   -2.5348 C   0  0  0  0  0  0  0  0  0  0  0  0
   17.7539   75.6696   -3.2848 H   0  0  0  0  0  0  0  0  0  0  0  0
 25 28  1  0
 25 24  1  0
 25 26  1  1
 25 27  2  0
  1  4  1  0
  1 24  1  0
  1  2  1  6
  1  3  2  0
  6 11  1  0
  6 12  1  0
 29 36  1  0
 29 37  1  0
  9  7  1  1
  7 13  1  0
 10  8  1  1
  8 14  1  0
 37 28  1  6
  4  5  1  0
 33 30  1  1
 30 38  1  0
 34 31  1  6
 31 39  1  0
 35 32  1  1
 32 40  1  0
 41 42  1  0
 41 43  1  0
 15 19  2  0
 16 22  2  0
 12 17  1  6
 17 19  1  0
 17 20  1  0
 18 19  1  0
 18 22  1  0
 18 23  1  0
  9 10  1  0
  9 11  1  0
 10 12  1  0
 11  5  1  6
 33 34  1  0
 33 35  1  0
 34 36  1  0
 35 37  1  0
 36 42  1  6
 20 21  2  0
 21 22  1  0
M  CHG  2   2  -1  26  -1
M  END
>  <COMPND>  (190) 
    8629 

>  <AUTHOR>  (190) 
    GENERATED BY OPEN BABEL 3.1.1

>  <MASTER>  (190) 
        0    0    0    0    0    0    0    0   58    0   58    0

>  <minimizedAffinity>  (190) 
-6.62418

>  <CNNscore>  (190) 
0.8630246520

>  <CNNaffinity>  (190) 
4.6013836861

>  <CNN_VS>  (190) 
3.9711074829

>  <CNNaffinity_variance>  (190) 
0.0400010571

$$$$
191
     RDKit          3D

 43 45  0  0  0  0  0  0  0  0999 V2000
   22.8553   72.5370   -3.9823 P   0  0  2  0  0  0  0  0  0  0  0  0
   23.1513   73.6805   -5.0879 O   0  0  0  0  0  0  0  0  0  0  0  0
   24.0270   71.6618   -3.6464 O   0  0  0  0  0  0  0  0  0  0  0  0
   21.5487   71.7729   -4.5540 O   0  0  0  0  0  0  0  0  0  0  0  0
   20.9412   70.7777   -3.7489 C   0  0  0  0  0  0  0  0  0  0  0  0
   18.9578   71.7552   -4.6894 O   0  0  0  0  0  0  0  0  0  0  0  0
   17.4744   70.4660   -2.4248 O   0  0  0  0  0  0  0  0  0  0  0  0
   16.9710   68.7750   -4.5042 O   0  0  0  0  0  0  0  0  0  0  0  0
   18.5977   69.9819   -3.1592 C   0  0  1  0  0  0  0  0  0  0  0  0
   18.1676   69.5260   -4.5379 C   0  0  2  0  0  0  0  0  0  0  0  0
   19.4944   71.1704   -3.4826 C   0  0  1  0  0  0  0  0  0  0  0  0
   18.0082   70.8470   -5.2712 C   0  0  2  0  0  0  0  0  0  0  0  0
   16.8872   69.7247   -2.2065 H   0  0  0  0  0  0  0  0  0  0  0  0
   17.1239   67.9443   -4.0275 H   0  0  0  0  0  0  0  0  0  0  0  0
   16.1062   70.0382   -7.1963 O   0  0  0  0  0  0  0  0  0  0  0  0
   19.1498   70.4291  -10.6351 O   0  0  0  0  0  0  0  0  0  0  0  0
   18.2764   70.7291   -6.6767 N   0  0  0  0  0  0  0  0  0  0  0  0
   17.6232   70.2337   -8.9070 N   0  0  0  0  0  0  0  0  0  0  0  0
   17.2518   70.3138   -7.5588 C   0  0  0  0  0  0  0  0  0  0  0  0
   19.5437   71.0241   -7.1675 C   0  0  0  0  0  0  0  0  0  0  0  0
   19.8821   70.9414   -8.4559 C   0  0  0  0  0  0  0  0  0  0  0  0
   18.8697   70.5150   -9.4434 C   0  0  0  0  0  0  0  0  0  0  0  0
   16.9257   69.9461   -9.5399 H   0  0  0  0  0  0  0  0  0  0  0  0
   22.2664   73.3806   -2.7356 O   0  0  0  0  0  0  0  0  0  0  0  0
   22.9531   74.4985   -1.7913 P   0  0  2  0  0  0  0  0  0  0  0  0
   21.7526   75.5509   -1.5290 O   0  0  0  0  0  0  0  0  0  0  0  0
   24.1978   75.1097   -2.3667 O   0  0  0  0  0  0  0  0  0  0  0  0
   23.1652   73.7600   -0.3719 O   0  0  0  0  0  0  0  0  0  0  0  0
   23.9310   71.6437    0.3707 O   0  0  0  0  0  0  0  0  0  0  0  0
   20.5024   71.9424    2.6524 O   0  0  0  0  0  0  0  0  0  0  0  0
   23.0699   72.2297    3.9068 O   0  0  0  0  0  0  0  0  0  0  0  0
   20.5085   72.9051   -0.0776 O   0  0  0  0  0  0  0  0  0  0  0  0
   21.6667   72.4301    1.9801 C   0  0  1  0  0  0  0  0  0  0  0  0
   22.8922   71.7388    2.5810 C   0  0  1  0  0  0  0  0  0  0  0  0
   21.5501   72.1177    0.4895 C   0  0  2  0  0  0  0  0  0  0  0  0
   24.1474   72.0063    1.7394 C   0  0  1  0  0  0  0  0  0  0  0  0
   22.8673   72.3720   -0.2457 C   0  0  1  0  0  0  0  0  0  0  0  0
   20.5699   72.1381    3.5993 H   0  0  0  0  0  0  0  0  0  0  0  0
   22.2702   72.0549    4.4274 H   0  0  0  0  0  0  0  0  0  0  0  0
   19.6801   72.7349    0.3963 H   0  0  0  0  0  0  0  0  0  0  0  0
   24.8857   69.9457    2.6974 O   0  0  0  0  0  0  0  0  0  0  0  0
   25.3477   71.1997    2.2302 C   0  0  0  0  0  0  0  0  0  0  0  0
   25.6389   69.4214    3.0127 H   0  0  0  0  0  0  0  0  0  0  0  0
 25 28  1  0
 25 24  1  0
 25 26  1  1
 25 27  2  0
  1  4  1  0
  1 24  1  0
  1  2  1  6
  1  3  2  0
  6 11  1  0
  6 12  1  0
 29 36  1  0
 29 37  1  0
  9  7  1  1
  7 13  1  0
 10  8  1  1
  8 14  1  0
 37 28  1  1
  4  5  1  0
 33 30  1  1
 30 38  1  0
 34 31  1  1
 31 39  1  0
 35 32  1  6
 32 40  1  0
 41 42  1  0
 41 43  1  0
 15 19  2  0
 16 22  2  0
 12 17  1  6
 17 19  1  0
 17 20  1  0
 18 19  1  0
 18 22  1  0
 18 23  1  0
  9 10  1  0
  9 11  1  0
 10 12  1  0
 11  5  1  6
 33 34  1  0
 33 35  1  0
 34 36  1  0
 35 37  1  0
 36 42  1  1
 20 21  2  0
 21 22  1  0
M  CHG  2   2  -1  26  -1
M  END
>  <COMPND>  (191) 
    8629 

>  <AUTHOR>  (191) 
    GENERATED BY OPEN BABEL 3.1.1

>  <MASTER>  (191) 
        0    0    0    0    0    0    0    0   58    0   58    0

>  <minimizedAffinity>  (191) 
-7.58616

>  <CNNscore>  (191) 
0.8573757410

>  <CNNaffinity>  (191) 
4.6779441833

>  <CNN_VS>  (191) 
4.0107560158

>  <CNNaffinity_variance>  (191) 
0.0525644906

$$$$
192
     RDKit          3D

 43 45  0  0  0  0  0  0  0  0999 V2000
   21.3532   73.6950   -4.4222 P   0  0  2  0  0  0  0  0  0  0  0  0
   21.0727   75.2058   -3.9160 O   0  0  0  0  0  0  0  0  0  0  0  0
   22.1912   73.5873   -5.6622 O   0  0  0  0  0  0  0  0  0  0  0  0
   19.8785   73.0352   -4.5113 O   0  0  0  0  0  0  0  0  0  0  0  0
   19.5446   72.0008   -3.6023 C   0  0  0  0  0  0  0  0  0  0  0  0
   17.5697   72.0332   -4.9707 O   0  0  0  0  0  0  0  0  0  0  0  0
   16.2810   70.3854   -2.8225 O   0  0  0  0  0  0  0  0  0  0  0  0
   16.9007   68.5191   -4.7118 O   0  0  0  0  0  0  0  0  0  0  0  0
   17.6265   70.3576   -3.2959 C   0  0  1  0  0  0  0  0  0  0  0  0
   17.6928   69.6879   -4.6526 C   0  0  2  0  0  0  0  0  0  0  0  0
   18.0373   71.7870   -3.6264 C   0  0  1  0  0  0  0  0  0  0  0  0
   17.1842   70.7859   -5.5712 C   0  0  2  0  0  0  0  0  0  0  0  0
   15.9963   69.4835   -2.6046 H   0  0  0  0  0  0  0  0  0  0  0  0
   17.2647   67.8509   -4.1104 H   0  0  0  0  0  0  0  0  0  0  0  0
   15.6934   70.3519   -7.9307 O   0  0  0  0  0  0  0  0  0  0  0  0
   19.4730   70.4977  -10.5640 O   0  0  0  0  0  0  0  0  0  0  0  0
   17.7530   70.7064   -6.8871 N   0  0  0  0  0  0  0  0  0  0  0  0
   17.5765   70.4250   -9.2400 N   0  0  0  0  0  0  0  0  0  0  0  0
   16.9166   70.4845   -8.0058 C   0  0  0  0  0  0  0  0  0  0  0  0
   19.1258   70.8481   -7.0583 C   0  0  0  0  0  0  0  0  0  0  0  0
   19.7397   70.7876   -8.2418 C   0  0  0  0  0  0  0  0  0  0  0  0
   18.9381   70.5586   -9.4612 C   0  0  0  0  0  0  0  0  0  0  0  0
   17.0141   70.2709  -10.0335 H   0  0  0  0  0  0  0  0  0  0  0  0
   21.9899   72.9864   -3.1163 O   0  0  0  0  0  0  0  0  0  0  0  0
   23.5280   72.7144   -2.6998 P   0  0  2  0  0  0  0  0  0  0  0  0
   24.2596   74.1151   -3.0468 O   0  0  0  0  0  0  0  0  0  0  0  0
   24.1417   71.5146   -3.3613 O   0  0  0  0  0  0  0  0  0  0  0  0
   23.5097   72.6528   -1.0870 O   0  0  0  0  0  0  0  0  0  0  0  0
   24.5348   71.1311    0.4130 O   0  0  0  0  0  0  0  0  0  0  0  0
   20.9849   71.7538    2.4283 O   0  0  0  0  0  0  0  0  0  0  0  0
   23.4146   72.8937    3.4506 O   0  0  0  0  0  0  0  0  0  0  0  0
   20.9935   71.5792   -0.4612 O   0  0  0  0  0  0  0  0  0  0  0  0
   22.0995   72.1179    1.6095 C   0  0  1  0  0  0  0  0  0  0  0  0
   23.3794   71.9090    2.4214 C   0  0  1  0  0  0  0  0  0  0  0  0
   22.1073   71.2415    0.3585 C   0  0  2  0  0  0  0  0  0  0  0  0
   24.6245   72.0216    1.5314 C   0  0  1  0  0  0  0  0  0  0  0  0
   23.4102   71.3925   -0.4289 C   0  0  1  0  0  0  0  0  0  0  0  0
   20.9738   72.3070    3.2241 H   0  0  0  0  0  0  0  0  0  0  0  0
   22.6227   72.8121    4.0051 H   0  0  0  0  0  0  0  0  0  0  0  0
   20.1750   71.4793    0.0486 H   0  0  0  0  0  0  0  0  0  0  0  0
   26.3255   72.7963    3.0198 O   0  0  0  0  0  0  0  0  0  0  0  0
   25.9020   71.6616    2.2869 C   0  0  0  0  0  0  0  0  0  0  0  0
   27.1376   72.5818    3.5059 H   0  0  0  0  0  0  0  0  0  0  0  0
 25 28  1  0
 25 24  1  0
 25 26  1  1
 25 27  2  0
  1  4  1  0
  1 24  1  0
  1  2  1  1
  1  3  2  0
  6 11  1  0
  6 12  1  0
 29 36  1  0
 29 37  1  0
  9  7  1  6
  7 13  1  0
 10  8  1  1
  8 14  1  0
 37 28  1  1
  4  5  1  0
 33 30  1  1
 30 38  1  0
 34 31  1  1
 31 39  1  0
 35 32  1  6
 32 40  1  0
 41 42  1  0
 41 43  1  0
 15 19  2  0
 16 22  2  0
 12 17  1  6
 17 19  1  0
 17 20  1  0
 18 19  1  0
 18 22  1  0
 18 23  1  0
  9 10  1  0
  9 11  1  0
 10 12  1  0
 11  5  1  6
 33 34  1  0
 33 35  1  0
 34 36  1  0
 35 37  1  0
 36 42  1  1
 20 21  2  0
 21 22  1  0
M  CHG  2   2  -1  26  -1
M  END
>  <COMPND>  (192) 
    8629 

>  <AUTHOR>  (192) 
    GENERATED BY OPEN BABEL 3.1.1

>  <MASTER>  (192) 
        0    0    0    0    0    0    0    0   58    0   58    0

>  <minimizedAffinity>  (192) 
-7.25477

>  <CNNscore>  (192) 
0.8455324769

>  <CNNaffinity>  (192) 
4.6619424820

>  <CNN_VS>  (192) 
3.9418237209

>  <CNNaffinity_variance>  (192) 
0.0292967111

$$$$
193
     RDKit          3D

 43 45  0  0  0  0  0  0  0  0999 V2000
   21.8333   72.4701   -5.5662 P   0  0  2  0  0  0  0  0  0  0  0  0
   21.0472   73.8507   -5.2601 O   0  0  0  0  0  0  0  0  0  0  0  0
   23.1334   72.6299   -6.2980 O   0  0  0  0  0  0  0  0  0  0  0  0
   20.7246   71.5457   -6.2970 O   0  0  0  0  0  0  0  0  0  0  0  0
   20.2732   71.9229   -7.5861 C   0  0  0  0  0  0  0  0  0  0  0  0
   19.0156   69.9186   -7.1677 O   0  0  0  0  0  0  0  0  0  0  0  0
   18.1172   70.1099  -10.0220 O   0  0  0  0  0  0  0  0  0  0  0  0
   15.9711   71.0926   -8.6562 O   0  0  0  0  0  0  0  0  0  0  0  0
   18.3640   71.1543   -9.0819 C   0  0  1  0  0  0  0  0  0  0  0  0
   17.2467   71.2182   -8.0616 C   0  0  2  0  0  0  0  0  0  0  0  0
   19.5544   70.7423   -8.2248 C   0  0  1  0  0  0  0  0  0  0  0  0
   17.5848   70.0503   -7.1506 C   0  0  2  0  0  0  0  0  0  0  0  0
   17.3612   70.3504  -10.5811 H   0  0  0  0  0  0  0  0  0  0  0  0
   15.8028   71.8593   -9.2259 H   0  0  0  0  0  0  0  0  0  0  0  0
   16.2345   68.1302   -5.5795 O   0  0  0  0  0  0  0  0  0  0  0  0
   15.9731   70.9933   -1.9774 O   0  0  0  0  0  0  0  0  0  0  0  0
   17.1525   70.2671   -5.7988 N   0  0  0  0  0  0  0  0  0  0  0  0
   16.1056   69.5573   -3.7872 N   0  0  0  0  0  0  0  0  0  0  0  0
   16.4816   69.2378   -5.0981 C   0  0  0  0  0  0  0  0  0  0  0  0
   17.3951   71.4893   -5.1813 C   0  0  0  0  0  0  0  0  0  0  0  0
   17.0289   71.7786   -3.9309 C   0  0  0  0  0  0  0  0  0  0  0  0
   16.3229   70.7579   -3.1298 C   0  0  0  0  0  0  0  0  0  0  0  0
   15.6365   68.8557   -3.2798 H   0  0  0  0  0  0  0  0  0  0  0  0
   21.9632   71.7940   -4.1036 O   0  0  0  0  0  0  0  0  0  0  0  0
   23.0971   71.9444   -2.9615 P   0  0  2  0  0  0  0  0  0  0  0  0
   23.5784   73.4813   -3.1167 O   0  0  0  0  0  0  0  0  0  0  0  0
   24.2050   70.9359   -3.0577 O   0  0  0  0  0  0  0  0  0  0  0  0
   22.2815   71.9113   -1.5692 O   0  0  0  0  0  0  0  0  0  0  0  0
   23.9531   72.3072    0.0634 O   0  0  0  0  0  0  0  0  0  0  0  0
   20.6478   72.1326    2.5323 O   0  0  0  0  0  0  0  0  0  0  0  0
   21.9098   74.6629    2.0292 O   0  0  0  0  0  0  0  0  0  0  0  0
   20.8550   70.3412    0.2679 O   0  0  0  0  0  0  0  0  0  0  0  0
   21.3635   72.4407    1.3331 C   0  0  1  0  0  0  0  0  0  0  0  0
   22.4940   73.4097    1.6848 C   0  0  1  0  0  0  0  0  0  0  0  0
   21.9265   71.1496    0.7420 C   0  0  2  0  0  0  0  0  0  0  0  0
   23.4653   73.5782    0.5087 C   0  0  1  0  0  0  0  0  0  0  0  0
   22.9184   71.4312   -0.3880 C   0  0  1  0  0  0  0  0  0  0  0  0
   20.2873   72.9481    2.9124 H   0  0  0  0  0  0  0  0  0  0  0  0
   21.2983   74.5425    2.7727 H   0  0  0  0  0  0  0  0  0  0  0  0
   20.2343   70.1698    0.9926 H   0  0  0  0  0  0  0  0  0  0  0  0
   24.9654   74.2030    2.2604 O   0  0  0  0  0  0  0  0  0  0  0  0
   24.6844   74.4155    0.8892 C   0  0  0  0  0  0  0  0  0  0  0  0
   25.7393   74.7295    2.5166 H   0  0  0  0  0  0  0  0  0  0  0  0
 25 28  1  0
 25 24  1  0
 25 26  1  6
 25 27  2  0
  1  4  1  0
  1 24  1  0
  1  2  1  1
  1  3  2  0
  6 11  1  0
  6 12  1  0
 29 36  1  0
 29 37  1  0
  9  7  1  6
  7 13  1  0
 10  8  1  6
  8 14  1  0
 37 28  1  6
  4  5  1  0
 33 30  1  1
 30 38  1  0
 34 31  1  6
 31 39  1  0
 35 32  1  6
 32 40  1  0
 41 42  1  0
 41 43  1  0
 15 19  2  0
 16 22  2  0
 12 17  1  1
 17 19  1  0
 17 20  1  0
 18 19  1  0
 18 22  1  0
 18 23  1  0
  9 10  1  0
  9 11  1  0
 10 12  1  0
 11  5  1  1
 33 34  1  0
 33 35  1  0
 34 36  1  0
 35 37  1  0
 36 42  1  1
 20 21  2  0
 21 22  1  0
M  CHG  2   2  -1  26  -1
M  END
>  <COMPND>  (193) 
    8629 

>  <AUTHOR>  (193) 
    GENERATED BY OPEN BABEL 3.1.1

>  <MASTER>  (193) 
        0    0    0    0    0    0    0    0   58    0   58    0

>  <minimizedAffinity>  (193) 
-7.98477

>  <CNNscore>  (193) 
0.8305448294

>  <CNNaffinity>  (193) 
4.5909690857

>  <CNN_VS>  (193) 
3.8130056858

>  <CNNaffinity_variance>  (193) 
0.1700338572

$$$$
194
     RDKit          3D

 43 45  0  0  0  0  0  0  0  0999 V2000
   20.8770   71.5521   -1.4689 P   0  0  2  0  0  0  0  0  0  0  0  0
   22.4907   71.4983   -1.3674 O   0  0  0  0  0  0  0  0  0  0  0  0
   20.1517   70.6419   -0.5218 O   0  0  0  0  0  0  0  0  0  0  0  0
   20.5785   71.3126   -3.0409 O   0  0  0  0  0  0  0  0  0  0  0  0
   19.7721   70.2093   -3.4156 C   0  0  0  0  0  0  0  0  0  0  0  0
   18.0508   71.3948   -4.6012 O   0  0  0  0  0  0  0  0  0  0  0  0
   16.0992   69.9026   -2.8821 O   0  0  0  0  0  0  0  0  0  0  0  0
   16.0051   68.5166   -5.2287 O   0  0  0  0  0  0  0  0  0  0  0  0
   17.3403   69.4612   -3.4298 C   0  0  1  0  0  0  0  0  0  0  0  0
   17.1982   69.2060   -4.9159 C   0  0  2  0  0  0  0  0  0  0  0  0
   18.3105   70.6356   -3.4001 C   0  0  1  0  0  0  0  0  0  0  0  0
   17.2244   70.6158   -5.4815 C   0  0  2  0  0  0  0  0  0  0  0  0
   15.4634   69.1693   -2.8902 H   0  0  0  0  0  0  0  0  0  0  0  0
   16.0368   67.6255   -4.8471 H   0  0  0  0  0  0  0  0  0  0  0  0
   15.7450   70.1746   -7.8469 O   0  0  0  0  0  0  0  0  0  0  0  0
   19.4530   70.8266  -10.5053 O   0  0  0  0  0  0  0  0  0  0  0  0
   17.7779   70.6645   -6.8054 N   0  0  0  0  0  0  0  0  0  0  0  0
   17.5925   70.4998   -9.1686 N   0  0  0  0  0  0  0  0  0  0  0  0
   16.9490   70.4271   -7.9266 C   0  0  0  0  0  0  0  0  0  0  0  0
   19.1283   70.9456   -6.9820 C   0  0  0  0  0  0  0  0  0  0  0  0
   19.7269   71.0100   -8.1731 C   0  0  0  0  0  0  0  0  0  0  0  0
   18.9318   70.7745   -9.3956 C   0  0  0  0  0  0  0  0  0  0  0  0
   17.0350   70.3375   -9.9640 H   0  0  0  0  0  0  0  0  0  0  0  0
   20.5526   73.1235   -1.2728 O   0  0  0  0  0  0  0  0  0  0  0  0
   19.3810   74.0507   -1.8898 P   0  0  2  0  0  0  0  0  0  0  0  0
   19.7459   75.5267   -1.3369 O   0  0  0  0  0  0  0  0  0  0  0  0
   17.9917   73.5902   -1.5556 O   0  0  0  0  0  0  0  0  0  0  0  0
   19.7018   74.1165   -3.4702 O   0  0  0  0  0  0  0  0  0  0  0  0
   21.8702   75.0690   -3.5564 O   0  0  0  0  0  0  0  0  0  0  0  0
   21.2801   74.4055   -7.5891 O   0  0  0  0  0  0  0  0  0  0  0  0
   23.1213   72.7498   -6.1342 O   0  0  0  0  0  0  0  0  0  0  0  0
   19.0795   75.3026   -5.9362 O   0  0  0  0  0  0  0  0  0  0  0  0
   21.1645   74.1240   -6.1917 C   0  0  1  0  0  0  0  0  0  0  0  0
   22.5730   73.9592   -5.6175 C   0  0  1  0  0  0  0  0  0  0  0  0
   20.4370   75.2802   -5.5081 C   0  0  2  0  0  0  0  0  0  0  0  0
   22.5449   73.9207   -4.0836 C   0  0  1  0  0  0  0  0  0  0  0  0
   20.5106   75.1716   -3.9840 C   0  0  1  0  0  0  0  0  0  0  0  0
   21.7407   73.6750   -8.0292 H   0  0  0  0  0  0  0  0  0  0  0  0
   23.1329   72.7869   -7.1036 H   0  0  0  0  0  0  0  0  0  0  0  0
   19.0465   75.3719   -6.9026 H   0  0  0  0  0  0  0  0  0  0  0  0
   24.7151   72.9231   -4.1448 O   0  0  0  0  0  0  0  0  0  0  0  0
   23.9501   73.9155   -3.4858 C   0  0  0  0  0  0  0  0  0  0  0  0
   25.6121   72.9086   -3.7748 H   0  0  0  0  0  0  0  0  0  0  0  0
 25 28  1  0
 25 24  1  0
 25 26  1  1
 25 27  2  0
  1  4  1  0
  1 24  1  0
  1  2  1  6
  1  3  2  0
  6 11  1  0
  6 12  1  0
 29 36  1  0
 29 37  1  0
  9  7  1  6
  7 13  1  0
 10  8  1  1
  8 14  1  0
 37 28  1  6
  4  5  1  0
 33 30  1  6
 30 38  1  0
 34 31  1  6
 31 39  1  0
 35 32  1  1
 32 40  1  0
 41 42  1  0
 41 43  1  0
 15 19  2  0
 16 22  2  0
 12 17  1  6
 17 19  1  0
 17 20  1  0
 18 19  1  0
 18 22  1  0
 18 23  1  0
  9 10  1  0
  9 11  1  0
 10 12  1  0
 11  5  1  6
 33 34  1  0
 33 35  1  0
 34 36  1  0
 35 37  1  0
 36 42  1  1
 20 21  2  0
 21 22  1  0
M  CHG  2   2  -1  26  -1
M  END
>  <COMPND>  (194) 
    8629 

>  <AUTHOR>  (194) 
    GENERATED BY OPEN BABEL 3.1.1

>  <MASTER>  (194) 
        0    0    0    0    0    0    0    0   58    0   58    0

>  <minimizedAffinity>  (194) 
-7.20442

>  <CNNscore>  (194) 
0.7739048004

>  <CNNaffinity>  (194) 
4.4623379707

>  <CNN_VS>  (194) 
3.4534246922

>  <CNNaffinity_variance>  (194) 
0.6589514613

$$$$
195
     RDKit          3D

 43 45  0  0  0  0  0  0  0  0999 V2000
   20.9684   74.8000   -2.9332 P   0  0  2  0  0  0  0  0  0  0  0  0
   21.6299   76.0854   -3.6594 O   0  0  0  0  0  0  0  0  0  0  0  0
   19.8306   75.1117   -2.0060 O   0  0  0  0  0  0  0  0  0  0  0  0
   22.2304   74.0387   -2.2658 O   0  0  0  0  0  0  0  0  0  0  0  0
   22.2756   73.9135   -0.8550 C   0  0  0  0  0  0  0  0  0  0  0  0
   23.5194   72.0462    0.0050 O   0  0  0  0  0  0  0  0  0  0  0  0
   20.8628   70.7629    0.5401 O   0  0  0  0  0  0  0  0  0  0  0  0
   21.5858   71.6823    3.0035 O   0  0  0  0  0  0  0  0  0  0  0  0
   21.2382   72.1356    0.6403 C   0  0  1  0  0  0  0  0  0  0  0  0
   22.0922   72.3587    1.8710 C   0  0  2  0  0  0  0  0  0  0  0  0
   22.2187   72.4374   -0.4862 C   0  0  1  0  0  0  0  0  0  0  0  0
   23.4394   71.8191    1.4216 C   0  0  2  0  0  0  0  0  0  0  0  0
   20.2364   70.5466    1.2492 H   0  0  0  0  0  0  0  0  0  0  0  0
   20.7279   72.0618    3.2502 H   0  0  0  0  0  0  0  0  0  0  0  0
   25.8631   70.5631    2.1468 O   0  0  0  0  0  0  0  0  0  0  0  0
   27.5827   74.4721    3.8801 O   0  0  0  0  0  0  0  0  0  0  0  0
   24.5377   72.4849    2.0634 N   0  0  0  0  0  0  0  0  0  0  0  0
   26.7175   72.5105    3.0091 N   0  0  0  0  0  0  0  0  0  0  0  0
   25.7101   71.7627    2.3862 C   0  0  0  0  0  0  0  0  0  0  0  0
   24.4459   73.8392    2.3657 C   0  0  0  0  0  0  0  0  0  0  0  0
   25.4151   74.5375    2.9611 C   0  0  0  0  0  0  0  0  0  0  0  0
   26.6731   73.8577    3.3315 C   0  0  0  0  0  0  0  0  0  0  0  0
   27.5434   72.0282    3.2436 H   0  0  0  0  0  0  0  0  0  0  0  0
   20.5806   73.8405   -4.1751 O   0  0  0  0  0  0  0  0  0  0  0  0
   20.1186   72.2921   -4.2162 P   0  0  2  0  0  0  0  0  0  0  0  0
   18.8238   72.2653   -3.2465 O   0  0  0  0  0  0  0  0  0  0  0  0
   21.1963   71.3180   -3.8373 O   0  0  0  0  0  0  0  0  0  0  0  0
   19.5204   72.0836   -5.7007 O   0  0  0  0  0  0  0  0  0  0  0  0
   18.7752   69.8645   -6.0710 O   0  0  0  0  0  0  0  0  0  0  0  0
   18.5868   71.2791   -9.9459 O   0  0  0  0  0  0  0  0  0  0  0  0
   16.1575   70.8191   -8.4846 O   0  0  0  0  0  0  0  0  0  0  0  0
   20.7626   72.0895   -8.2171 O   0  0  0  0  0  0  0  0  0  0  0  0
   18.4863   71.3634   -8.5217 C   0  0  1  0  0  0  0  0  0  0  0  0
   17.4344   70.3554   -8.0547 C   0  0  1  0  0  0  0  0  0  0  0  0
   19.8473   71.0447   -7.9056 C   0  0  2  0  0  0  0  0  0  0  0  0
   17.4589   70.1960   -6.5285 C   0  0  1  0  0  0  0  0  0  0  0  0
   19.7515   70.8579   -6.3903 C   0  0  1  0  0  0  0  0  0  0  0  0
   17.7260   71.4809  -10.3433 H   0  0  0  0  0  0  0  0  0  0  0  0
   16.1556   70.9159   -9.4499 H   0  0  0  0  0  0  0  0  0  0  0  0
   20.8145   72.1976   -9.1791 H   0  0  0  0  0  0  0  0  0  0  0  0
   16.2591   69.2759   -4.6785 O   0  0  0  0  0  0  0  0  0  0  0  0
   16.5282   69.0818   -6.0548 C   0  0  0  0  0  0  0  0  0  0  0  0
   15.6676   68.5742   -4.3632 H   0  0  0  0  0  0  0  0  0  0  0  0
 25 28  1  0
 25 24  1  0
 25 26  1  1
 25 27  2  0
  1  4  1  0
  1 24  1  0
  1  2  1  6
  1  3  2  0
  6 11  1  0
  6 12  1  0
 29 36  1  0
 29 37  1  0
  9  7  1  6
  7 13  1  0
 10  8  1  1
  8 14  1  0
 37 28  1  1
  4  5  1  0
 33 30  1  6
 30 38  1  0
 34 31  1  1
 31 39  1  0
 35 32  1  1
 32 40  1  0
 41 42  1  0
 41 43  1  0
 15 19  2  0
 16 22  2  0
 12 17  1  1
 17 19  1  0
 17 20  1  0
 18 19  1  0
 18 22  1  0
 18 23  1  0
  9 10  1  0
  9 11  1  0
 10 12  1  0
 11  5  1  1
 33 34  1  0
 33 35  1  0
 34 36  1  0
 35 37  1  0
 36 42  1  6
 20 21  2  0
 21 22  1  0
M  CHG  2   2  -1  26  -1
M  END
>  <COMPND>  (195) 
    8629 

>  <AUTHOR>  (195) 
    GENERATED BY OPEN BABEL 3.1.1

>  <MASTER>  (195) 
        0    0    0    0    0    0    0    0   58    0   58    0

>  <minimizedAffinity>  (195) 
-6.91120

>  <CNNscore>  (195) 
0.7311725616

>  <CNNaffinity>  (195) 
4.3668789864

>  <CNN_VS>  (195) 
3.1929421425

>  <CNNaffinity_variance>  (195) 
0.2175401747

$$$$
196
     RDKit          3D

 43 45  0  0  0  0  0  0  0  0999 V2000
   20.6346   71.3988   -1.6139 P   0  0  2  0  0  0  0  0  0  0  0  0
   21.1684   70.6941   -0.2589 O   0  0  0  0  0  0  0  0  0  0  0  0
   20.2214   72.8332   -1.4620 O   0  0  0  0  0  0  0  0  0  0  0  0
   19.4886   70.3905   -2.1506 O   0  0  0  0  0  0  0  0  0  0  0  0
   19.1471   70.4254   -3.5253 C   0  0  0  0  0  0  0  0  0  0  0  0
   17.4647   71.4692   -4.8868 O   0  0  0  0  0  0  0  0  0  0  0  0
   15.4754   69.8258   -3.3595 O   0  0  0  0  0  0  0  0  0  0  0  0
   15.7279   68.4365   -5.6925 O   0  0  0  0  0  0  0  0  0  0  0  0
   16.7964   69.4851   -3.7767 C   0  0  1  0  0  0  0  0  0  0  0  0
   16.8249   69.2192   -5.2674 C   0  0  2  0  0  0  0  0  0  0  0  0
   17.6621   70.7334   -3.6597 C   0  0  1  0  0  0  0  0  0  0  0  0
   16.7954   70.6265   -5.8391 C   0  0  2  0  0  0  0  0  0  0  0  0
   14.9040   69.0441   -3.4253 H   0  0  0  0  0  0  0  0  0  0  0  0
   15.7920   67.5509   -5.3024 H   0  0  0  0  0  0  0  0  0  0  0  0
   16.6495   72.8546   -7.5689 O   0  0  0  0  0  0  0  0  0  0  0  0
   19.4372   70.8710  -10.6568 O   0  0  0  0  0  0  0  0  0  0  0  0
   17.4734   70.7193   -7.1013 N   0  0  0  0  0  0  0  0  0  0  0  0
   18.0378   71.8652   -9.1049 N   0  0  0  0  0  0  0  0  0  0  0  0
   17.3331   71.8818   -7.8945 C   0  0  0  0  0  0  0  0  0  0  0  0
   18.2670   69.6653   -7.5407 C   0  0  0  0  0  0  0  0  0  0  0  0
   18.9314   69.6645   -8.6982 C   0  0  0  0  0  0  0  0  0  0  0  0
   18.8383   70.8413   -9.5861 C   0  0  0  0  0  0  0  0  0  0  0  0
   17.9547   72.6644   -9.6743 H   0  0  0  0  0  0  0  0  0  0  0  0
   21.8487   71.1549   -2.6530 O   0  0  0  0  0  0  0  0  0  0  0  0
   23.2241   71.9706   -2.8888 P   0  0  2  0  0  0  0  0  0  0  0  0
   24.3435   70.8036   -2.9402 O   0  0  0  0  0  0  0  0  0  0  0  0
   23.4892   73.0384   -1.8673 O   0  0  0  0  0  0  0  0  0  0  0  0
   23.1252   72.5077   -4.4076 O   0  0  0  0  0  0  0  0  0  0  0  0
   22.1755   74.5589   -5.1198 O   0  0  0  0  0  0  0  0  0  0  0  0
   21.3526   72.2595   -8.4494 O   0  0  0  0  0  0  0  0  0  0  0  0
   23.3951   74.2739   -8.5868 O   0  0  0  0  0  0  0  0  0  0  0  0
   21.1405   71.1000   -5.8056 O   0  0  0  0  0  0  0  0  0  0  0  0
   22.1194   72.6939   -7.3230 C   0  0  1  0  0  0  0  0  0  0  0  0
   22.4601   74.1729   -7.5163 C   0  0  1  0  0  0  0  0  0  0  0  0
   21.2965   72.4934   -6.0518 C   0  0  2  0  0  0  0  0  0  0  0  0
   23.0479   74.7781   -6.2344 C   0  0  1  0  0  0  0  0  0  0  0  0
   21.9449   73.1756   -4.8458 C   0  0  1  0  0  0  0  0  0  0  0  0
   21.8696   72.3837   -9.2599 H   0  0  0  0  0  0  0  0  0  0  0  0
   23.0118   73.8878   -9.3900 H   0  0  0  0  0  0  0  0  0  0  0  0
   20.7289   70.6797   -6.5761 H   0  0  0  0  0  0  0  0  0  0  0  0
   24.5131   76.5273   -6.9431 O   0  0  0  0  0  0  0  0  0  0  0  0
   23.2483   76.2872   -6.3541 C   0  0  0  0  0  0  0  0  0  0  0  0
   24.6542   77.4839   -7.0259 H   0  0  0  0  0  0  0  0  0  0  0  0
 25 28  1  0
 25 24  1  0
 25 26  1  6
 25 27  2  0
  1  4  1  0
  1 24  1  0
  1  2  1  1
  1  3  2  0
  6 11  1  0
  6 12  1  0
 29 36  1  0
 29 37  1  0
  9  7  1  6
  7 13  1  0
 10  8  1  6
  8 14  1  0
 37 28  1  6
  4  5  1  0
 33 30  1  6
 30 38  1  0
 34 31  1  6
 31 39  1  0
 35 32  1  1
 32 40  1  0
 41 42  1  0
 41 43  1  0
 15 19  2  0
 16 22  2  0
 12 17  1  6
 17 19  1  0
 17 20  1  0
 18 19  1  0
 18 22  1  0
 18 23  1  0
  9 10  1  0
  9 11  1  0
 10 12  1  0
 11  5  1  6
 33 34  1  0
 33 35  1  0
 34 36  1  0
 35 37  1  0
 36 42  1  6
 20 21  2  0
 21 22  1  0
M  CHG  2   2  -1  26  -1
M  END
>  <COMPND>  (196) 
    8629 

>  <AUTHOR>  (196) 
    GENERATED BY OPEN BABEL 3.1.1

>  <MASTER>  (196) 
        0    0    0    0    0    0    0    0   58    0   58    0

>  <minimizedAffinity>  (196) 
-7.72107

>  <CNNscore>  (196) 
0.6806505919

>  <CNNaffinity>  (196) 
4.5944161415

>  <CNN_VS>  (196) 
3.1271920204

>  <CNNaffinity_variance>  (196) 
0.7663050294

$$$$
197
     RDKit          3D

 43 45  0  0  0  0  0  0  0  0999 V2000
   20.8895   71.7152   -0.5944 P   0  0  2  0  0  0  0  0  0  0  0  0
   20.9117   70.8778    0.7896 O   0  0  0  0  0  0  0  0  0  0  0  0
   20.7501   73.2006   -0.4344 O   0  0  0  0  0  0  0  0  0  0  0  0
   19.7360   70.9913   -1.4680 O   0  0  0  0  0  0  0  0  0  0  0  0
   18.7439   71.7979   -2.0787 C   0  0  0  0  0  0  0  0  0  0  0  0
   17.1024   71.1199   -3.6972 O   0  0  0  0  0  0  0  0  0  0  0  0
   16.4776   68.8527   -1.8370 O   0  0  0  0  0  0  0  0  0  0  0  0
   18.0406   67.6584   -3.7258 O   0  0  0  0  0  0  0  0  0  0  0  0
   17.7345   69.4629   -2.1254 C   0  0  1  0  0  0  0  0  0  0  0  0
   18.2219   69.0408   -3.4957 C   0  0  2  0  0  0  0  0  0  0  0  0
   17.4982   70.9558   -2.3178 C   0  0  1  0  0  0  0  0  0  0  0  0
   17.3704   69.9027   -4.4123 C   0  0  2  0  0  0  0  0  0  0  0  0
   16.6032   67.8988   -1.7098 H   0  0  0  0  0  0  0  0  0  0  0  0
   18.6033   67.1529   -3.1187 H   0  0  0  0  0  0  0  0  0  0  0  0
   16.1859   69.7148   -6.9696 O   0  0  0  0  0  0  0  0  0  0  0  0
   20.0343   71.1518   -9.0591 O   0  0  0  0  0  0  0  0  0  0  0  0
   18.0398   70.2219   -5.6417 N   0  0  0  0  0  0  0  0  0  0  0  0
   18.1030   70.4307   -8.0079 N   0  0  0  0  0  0  0  0  0  0  0  0
   17.3554   70.0926   -6.8727 C   0  0  0  0  0  0  0  0  0  0  0  0
   19.3601   70.6580   -5.6189 C   0  0  0  0  0  0  0  0  0  0  0  0
   20.0594   70.9751   -6.7105 C   0  0  0  0  0  0  0  0  0  0  0  0
   19.4179   70.8676   -8.0368 C   0  0  0  0  0  0  0  0  0  0  0  0
   17.6469   70.3480   -8.8768 H   0  0  0  0  0  0  0  0  0  0  0  0
   22.2507   71.2424   -1.3271 O   0  0  0  0  0  0  0  0  0  0  0  0
   22.6784   71.2600   -2.8858 P   0  0  2  0  0  0  0  0  0  0  0  0
   21.7360   70.1205   -3.5422 O   0  0  0  0  0  0  0  0  0  0  0  0
   24.1475   71.0609   -3.1231 O   0  0  0  0  0  0  0  0  0  0  0  0
   22.0917   72.6518   -3.4548 O   0  0  0  0  0  0  0  0  0  0  0  0
   23.2614   73.7695   -5.1865 O   0  0  0  0  0  0  0  0  0  0  0  0
   21.0374   76.9350   -3.7428 O   0  0  0  0  0  0  0  0  0  0  0  0
   20.3605   75.7655   -6.2770 O   0  0  0  0  0  0  0  0  0  0  0  0
   22.1442   74.9910   -1.9055 O   0  0  0  0  0  0  0  0  0  0  0  0
   21.2921   75.5693   -4.0828 C   0  0  1  0  0  0  0  0  0  0  0  0
   21.5757   75.4939   -5.5844 C   0  0  1  0  0  0  0  0  0  0  0  0
   22.4945   75.0717   -3.2829 C   0  0  2  0  0  0  0  0  0  0  0  0
   22.1174   74.1128   -5.9771 C   0  0  1  0  0  0  0  0  0  0  0  0
   22.9841   73.7125   -3.7859 C   0  0  1  0  0  0  0  0  0  0  0  0
   20.2747   77.2569   -4.2469 H   0  0  0  0  0  0  0  0  0  0  0  0
   20.0288   76.6402   -6.0197 H   0  0  0  0  0  0  0  0  0  0  0  0
   21.8362   75.8577   -1.5990 H   0  0  0  0  0  0  0  0  0  0  0  0
   22.4158   72.7357   -7.9067 O   0  0  0  0  0  0  0  0  0  0  0  0
   22.5550   74.0648   -7.4394 C   0  0  0  0  0  0  0  0  0  0  0  0
   22.6904   72.6900   -8.8364 H   0  0  0  0  0  0  0  0  0  0  0  0
 25 28  1  0
 25 24  1  0
 25 26  1  6
 25 27  2  0
  1  4  1  0
  1 24  1  0
  1  2  1  1
  1  3  2  0
  6 11  1  0
  6 12  1  0
 29 36  1  0
 29 37  1  0
  9  7  1  6
  7 13  1  0
 10  8  1  6
  8 14  1  0
 37 28  1  6
  4  5  1  0
 33 30  1  1
 30 38  1  0
 34 31  1  6
 31 39  1  0
 35 32  1  1
 32 40  1  0
 41 42  1  0
 41 43  1  0
 15 19  2  0
 16 22  2  0
 12 17  1  6
 17 19  1  0
 17 20  1  0
 18 19  1  0
 18 22  1  0
 18 23  1  0
  9 10  1  0
  9 11  1  0
 10 12  1  0
 11  5  1  6
 33 34  1  0
 33 35  1  0
 34 36  1  0
 35 37  1  0
 36 42  1  6
 20 21  2  0
 21 22  1  0
M  CHG  2   2  -1  26  -1
M  END
>  <COMPND>  (197) 
    8629 

>  <AUTHOR>  (197) 
    GENERATED BY OPEN BABEL 3.1.1

>  <MASTER>  (197) 
        0    0    0    0    0    0    0    0   58    0   58    0

>  <minimizedAffinity>  (197) 
-6.85871

>  <CNNscore>  (197) 
0.6805722713

>  <CNNaffinity>  (197) 
4.2815628052

>  <CNN_VS>  (197) 
2.9139130116

>  <CNNaffinity_variance>  (197) 
0.4096372724

$$$$
198
     RDKit          3D

 43 45  0  0  0  0  0  0  0  0999 V2000
   23.5465   72.5820   -3.4993 P   0  0  2  0  0  0  0  0  0  0  0  0
   23.9964   71.0583   -3.1935 O   0  0  0  0  0  0  0  0  0  0  0  0
   24.6261   73.4615   -4.0584 O   0  0  0  0  0  0  0  0  0  0  0  0
   22.8858   73.0785   -2.1083 O   0  0  0  0  0  0  0  0  0  0  0  0
   21.7441   73.9160   -2.1632 C   0  0  0  0  0  0  0  0  0  0  0  0
   21.1092   72.0555   -0.7814 O   0  0  0  0  0  0  0  0  0  0  0  0
   18.6377   73.6234   -0.1301 O   0  0  0  0  0  0  0  0  0  0  0  0
   20.1953   74.0276    2.0715 O   0  0  0  0  0  0  0  0  0  0  0  0
   19.9690   74.0873   -0.3486 C   0  0  1  0  0  0  0  0  0  0  0  0
   20.8425   73.7592    0.8443 C   0  0  2  0  0  0  0  0  0  0  0  0
   20.5909   73.2299   -1.4437 C   0  0  1  0  0  0  0  0  0  0  0  0
   21.1143   72.2788    0.6381 C   0  0  2  0  0  0  0  0  0  0  0  0
   18.2198   74.1562    0.5652 H   0  0  0  0  0  0  0  0  0  0  0  0
   20.0446   74.9820    2.1557 H   0  0  0  0  0  0  0  0  0  0  0  0
   21.7230   72.1429    3.3929 O   0  0  0  0  0  0  0  0  0  0  0  0
   26.0275   70.7227    2.5586 O   0  0  0  0  0  0  0  0  0  0  0  0
   22.3861   71.8763    1.1689 N   0  0  0  0  0  0  0  0  0  0  0  0
   23.8657   71.4356    2.9752 N   0  0  0  0  0  0  0  0  0  0  0  0
   22.5889   71.8430    2.5682 C   0  0  0  0  0  0  0  0  0  0  0  0
   23.4160   71.5197    0.3051 C   0  0  0  0  0  0  0  0  0  0  0  0
   24.6283   71.1347    0.7092 C   0  0  0  0  0  0  0  0  0  0  0  0
   24.9225   71.0726    2.1554 C   0  0  0  0  0  0  0  0  0  0  0  0
   24.0302   71.4052    3.9457 H   0  0  0  0  0  0  0  0  0  0  0  0
   22.2636   72.3953   -4.4648 O   0  0  0  0  0  0  0  0  0  0  0  0
   21.8623   73.1253   -5.8501 P   0  0  2  0  0  0  0  0  0  0  0  0
   22.9491   72.5494   -6.9012 O   0  0  0  0  0  0  0  0  0  0  0  0
   21.8163   74.6235   -5.7653 O   0  0  0  0  0  0  0  0  0  0  0  0
   20.4691   72.4369   -6.2860 O   0  0  0  0  0  0  0  0  0  0  0  0
   19.4821   70.2983   -6.0231 O   0  0  0  0  0  0  0  0  0  0  0  0
   18.6549   70.9200  -10.0207 O   0  0  0  0  0  0  0  0  0  0  0  0
   16.5305   71.0666   -8.0936 O   0  0  0  0  0  0  0  0  0  0  0  0
   21.1883   71.7846   -8.9189 O   0  0  0  0  0  0  0  0  0  0  0  0
   18.8439   71.2997   -8.6548 C   0  0  1  0  0  0  0  0  0  0  0  0
   17.8235   70.5439   -7.8014 C   0  0  1  0  0  0  0  0  0  0  0  0
   20.2677   70.9449   -8.2305 C   0  0  2  0  0  0  0  0  0  0  0  0
   18.1341   70.6918   -6.3058 C   0  0  1  0  0  0  0  0  0  0  0  0
   20.4564   71.0789   -6.7184 C   0  0  1  0  0  0  0  0  0  0  0  0
   17.7529   71.1430  -10.2965 H   0  0  0  0  0  0  0  0  0  0  0  0
   16.3469   70.9675   -9.0411 H   0  0  0  0  0  0  0  0  0  0  0  0
   21.0590   71.6904   -9.8751 H   0  0  0  0  0  0  0  0  0  0  0  0
   15.9942   70.4953   -5.2614 O   0  0  0  0  0  0  0  0  0  0  0  0
   17.2246   69.8192   -5.4437 C   0  0  0  0  0  0  0  0  0  0  0  0
   15.4050   69.9515   -4.7148 H   0  0  0  0  0  0  0  0  0  0  0  0
 25 28  1  0
 25 24  1  0
 25 26  1  6
 25 27  2  0
  1  4  1  0
  1 24  1  0
  1  2  1  1
  1  3  2  0
  6 11  1  0
  6 12  1  0
 29 36  1  0
 29 37  1  0
  9  7  1  1
  7 13  1  0
 10  8  1  1
  8 14  1  0
 37 28  1  1
  4  5  1  0
 33 30  1  6
 30 38  1  0
 34 31  1  1
 31 39  1  0
 35 32  1  6
 32 40  1  0
 41 42  1  0
 41 43  1  0
 15 19  2  0
 16 22  2  0
 12 17  1  6
 17 19  1  0
 17 20  1  0
 18 19  1  0
 18 22  1  0
 18 23  1  0
  9 10  1  0
  9 11  1  0
 10 12  1  0
 11  5  1  1
 33 34  1  0
 33 35  1  0
 34 36  1  0
 35 37  1  0
 36 42  1  1
 20 21  2  0
 21 22  1  0
M  CHG  2   2  -1  26  -1
M  END
>  <COMPND>  (198) 
    8629 

>  <AUTHOR>  (198) 
    GENERATED BY OPEN BABEL 3.1.1

>  <MASTER>  (198) 
        0    0    0    0    0    0    0    0   58    0   58    0

>  <minimizedAffinity>  (198) 
-7.50733

>  <CNNscore>  (198) 
0.6589548588

>  <CNNaffinity>  (198) 
4.3253712654

>  <CNN_VS>  (198) 
2.8502244949

>  <CNNaffinity_variance>  (198) 
0.0906646922

$$$$
199
     RDKit          3D

 43 45  0  0  0  0  0  0  0  0999 V2000
   19.3403   70.7372   -2.5671 P   0  0  2  0  0  0  0  0  0  0  0  0
   18.4613   72.0710   -2.3105 O   0  0  0  0  0  0  0  0  0  0  0  0
   18.5723   69.5656   -3.1046 O   0  0  0  0  0  0  0  0  0  0  0  0
   20.0977   70.4942   -1.1580 O   0  0  0  0  0  0  0  0  0  0  0  0
   20.9926   71.4887   -0.6912 C   0  0  0  0  0  0  0  0  0  0  0  0
   21.3899   71.5497    1.6778 O   0  0  0  0  0  0  0  0  0  0  0  0
   19.5643   73.9277    1.7336 O   0  0  0  0  0  0  0  0  0  0  0  0
   22.0366   75.0737    1.8387 O   0  0  0  0  0  0  0  0  0  0  0  0
   20.5076   73.5377    0.7369 C   0  0  1  0  0  0  0  0  0  0  0  0
   21.9190   73.8125    1.2125 C   0  0  2  0  0  0  0  0  0  0  0  0
   20.4929   72.0168    0.6465 C   0  0  1  0  0  0  0  0  0  0  0  0
   22.1585   72.6589    2.1716 C   0  0  2  0  0  0  0  0  0  0  0  0
   19.5556   74.8953    1.8092 H   0  0  0  0  0  0  0  0  0  0  0  0
   21.8756   75.7744    1.1877 H   0  0  0  0  0  0  0  0  0  0  0  0
   24.1102   73.9810    3.7275 O   0  0  0  0  0  0  0  0  0  0  0  0
   27.4323   71.1065    2.3339 O   0  0  0  0  0  0  0  0  0  0  0  0
   23.5411   72.2769    2.2344 N   0  0  0  0  0  0  0  0  0  0  0  0
   25.7628   72.5485    3.0325 N   0  0  0  0  0  0  0  0  0  0  0  0
   24.4396   73.0080    3.0459 C   0  0  0  0  0  0  0  0  0  0  0  0
   23.9935   71.1882    1.4969 C   0  0  0  0  0  0  0  0  0  0  0  0
   25.2587   70.7636    1.4940 C   0  0  0  0  0  0  0  0  0  0  0  0
   26.2612   71.4724    2.3153 C   0  0  0  0  0  0  0  0  0  0  0  0
   26.4066   73.0427    3.5901 H   0  0  0  0  0  0  0  0  0  0  0  0
   20.5264   71.2635   -3.5310 O   0  0  0  0  0  0  0  0  0  0  0  0
   20.5535   72.4471   -4.6316 P   0  0  2  0  0  0  0  0  0  0  0  0
   21.9931   72.2573   -5.3452 O   0  0  0  0  0  0  0  0  0  0  0  0
   20.3183   73.8181   -4.0667 O   0  0  0  0  0  0  0  0  0  0  0  0
   19.4815   71.9910   -5.7486 O   0  0  0  0  0  0  0  0  0  0  0  0
   18.6854   69.8049   -6.2002 O   0  0  0  0  0  0  0  0  0  0  0  0
   18.5737   71.3516  -10.0272 O   0  0  0  0  0  0  0  0  0  0  0  0
   16.1183   70.9047   -8.6062 O   0  0  0  0  0  0  0  0  0  0  0  0
   20.7503   72.0490   -8.2509 O   0  0  0  0  0  0  0  0  0  0  0  0
   18.4601   71.3910   -8.6021 C   0  0  1  0  0  0  0  0  0  0  0  0
   17.3785   70.3949   -8.1795 C   0  0  1  0  0  0  0  0  0  0  0  0
   19.8061   71.0179   -7.9836 C   0  0  2  0  0  0  0  0  0  0  0  0
   17.3828   70.1845   -6.6593 C   0  0  1  0  0  0  0  0  0  0  0  0
   19.6895   70.7834   -6.4765 C   0  0  1  0  0  0  0  0  0  0  0  0
   17.7225   71.5880  -10.4262 H   0  0  0  0  0  0  0  0  0  0  0  0
   16.1290   71.0335   -9.5677 H   0  0  0  0  0  0  0  0  0  0  0  0
   20.8152   72.1877   -9.2083 H   0  0  0  0  0  0  0  0  0  0  0  0
   16.7221   68.7095   -4.8995 O   0  0  0  0  0  0  0  0  0  0  0  0
   16.4196   69.0790   -6.2323 C   0  0  0  0  0  0  0  0  0  0  0  0
   16.1168   68.0068   -4.6141 H   0  0  0  0  0  0  0  0  0  0  0  0
 25 28  1  0
 25 24  1  0
 25 26  1  6
 25 27  2  0
  1  4  1  0
  1 24  1  0
  1  2  1  1
  1  3  2  0
  6 11  1  0
  6 12  1  0
 29 36  1  0
 29 37  1  0
  9  7  1  1
  7 13  1  0
 10  8  1  1
  8 14  1  0
 37 28  1  1
  4  5  1  0
 33 30  1  6
 30 38  1  0
 34 31  1  1
 31 39  1  0
 35 32  1  1
 32 40  1  0
 41 42  1  0
 41 43  1  0
 15 19  2  0
 16 22  2  0
 12 17  1  6
 17 19  1  0
 17 20  1  0
 18 19  1  0
 18 22  1  0
 18 23  1  0
  9 10  1  0
  9 11  1  0
 10 12  1  0
 11  5  1  6
 33 34  1  0
 33 35  1  0
 34 36  1  0
 35 37  1  0
 36 42  1  6
 20 21  2  0
 21 22  1  0
M  CHG  2   2  -1  26  -1
M  END
>  <COMPND>  (199) 
    8629 

>  <AUTHOR>  (199) 
    GENERATED BY OPEN BABEL 3.1.1

>  <MASTER>  (199) 
        0    0    0    0    0    0    0    0   58    0   58    0

>  <minimizedAffinity>  (199) 
-7.02972

>  <CNNscore>  (199) 
0.6091623306

>  <CNNaffinity>  (199) 
4.1697912216

>  <CNN_VS>  (199) 
2.5400798321

>  <CNNaffinity_variance>  (199) 
0.0937419161

$$$$
200
     RDKit          3D

 43 45  0  0  0  0  0  0  0  0999 V2000
   20.9020   73.3067   -4.2340 P   0  0  2  0  0  0  0  0  0  0  0  0
   20.9652   71.9658   -3.3310 O   0  0  0  0  0  0  0  0  0  0  0  0
   19.6246   74.0860   -4.1227 O   0  0  0  0  0  0  0  0  0  0  0  0
   21.2843   72.7929   -5.7198 O   0  0  0  0  0  0  0  0  0  0  0  0
   20.2725   72.7789   -6.7116 C   0  0  0  0  0  0  0  0  0  0  0  0
   19.5536   70.5469   -6.1871 O   0  0  0  0  0  0  0  0  0  0  0  0
   19.4702   70.0787   -9.1476 O   0  0  0  0  0  0  0  0  0  0  0  0
   16.8439   70.4853   -8.5358 O   0  0  0  0  0  0  0  0  0  0  0  0
   19.1462   71.2568   -8.4110 C   0  0  1  0  0  0  0  0  0  0  0  0
   17.8166   71.0872   -7.7061 C   0  0  2  0  0  0  0  0  0  0  0  0
   20.1160   71.3597   -7.2404 C   0  0  1  0  0  0  0  0  0  0  0  0
   18.1966   70.2140   -6.5224 C   0  0  2  0  0  0  0  0  0  0  0  0
   18.8642   69.9917   -9.9007 H   0  0  0  0  0  0  0  0  0  0  0  0
   16.6359   71.0794   -9.2738 H   0  0  0  0  0  0  0  0  0  0  0  0
   16.5649   68.2547   -5.3071 O   0  0  0  0  0  0  0  0  0  0  0  0
   15.0365   71.2309   -2.1373 O   0  0  0  0  0  0  0  0  0  0  0  0
   17.3622   70.4494   -5.3779 N   0  0  0  0  0  0  0  0  0  0  0  0
   15.8054   69.7382   -3.7296 N   0  0  0  0  0  0  0  0  0  0  0  0
   16.5807   69.3977   -4.8454 C   0  0  0  0  0  0  0  0  0  0  0  0
   17.3249   71.7116   -4.7954 C   0  0  0  0  0  0  0  0  0  0  0  0
   16.5792   72.0204   -3.7325 C   0  0  0  0  0  0  0  0  0  0  0  0
   15.7334   70.9784   -3.1153 C   0  0  0  0  0  0  0  0  0  0  0  0
   15.2524   69.0215   -3.3418 H   0  0  0  0  0  0  0  0  0  0  0  0
   22.2252   74.1151   -3.7774 O   0  0  0  0  0  0  0  0  0  0  0  0
   23.7352   73.6093   -3.4997 P   0  0  2  0  0  0  0  0  0  0  0  0
   24.5999   74.9756   -3.5532 O   0  0  0  0  0  0  0  0  0  0  0  0
   24.2086   72.5395   -4.4407 O   0  0  0  0  0  0  0  0  0  0  0  0
   23.7433   73.1824   -1.9432 O   0  0  0  0  0  0  0  0  0  0  0  0
   21.9319   73.2219   -0.4155 O   0  0  0  0  0  0  0  0  0  0  0  0
   25.0136   74.0897    2.1924 O   0  0  0  0  0  0  0  0  0  0  0  0
   23.7673   71.5038    2.2805 O   0  0  0  0  0  0  0  0  0  0  0  0
   25.0259   75.2040   -0.4792 O   0  0  0  0  0  0  0  0  0  0  0  0
   24.4002   73.4627    1.0628 C   0  0  1  0  0  0  0  0  0  0  0  0
   23.2312   72.6117    1.5627 C   0  0  1  0  0  0  0  0  0  0  0  0
   23.9071   74.5412    0.1000 C   0  0  2  0  0  0  0  0  0  0  0  0
   22.3630   72.1227    0.3955 C   0  0  1  0  0  0  0  0  0  0  0  0
   23.0130   73.9554   -0.9943 C   0  0  1  0  0  0  0  0  0  0  0  0
   25.3294   73.4103    2.8075 H   0  0  0  0  0  0  0  0  0  0  0  0
   24.3138   71.8262    3.0144 H   0  0  0  0  0  0  0  0  0  0  0  0
   25.5839   75.5706    0.2237 H   0  0  0  0  0  0  0  0  0  0  0  0
   20.9046   71.7219    2.2452 O   0  0  0  0  0  0  0  0  0  0  0  0
   21.1049   71.4054    0.8799 C   0  0  0  0  0  0  0  0  0  0  0  0
   20.1070   71.2725    2.5670 H   0  0  0  0  0  0  0  0  0  0  0  0
 25 28  1  0
 25 24  1  0
 25 26  1  1
 25 27  2  0
  1  4  1  0
  1 24  1  0
  1  2  1  1
  1  3  2  0
  6 11  1  0
  6 12  1  0
 29 36  1  0
 29 37  1  0
  9  7  1  6
  7 13  1  0
 10  8  1  6
  8 14  1  0
 37 28  1  6
  4  5  1  0
 33 30  1  1
 30 38  1  0
 34 31  1  6
 31 39  1  0
 35 32  1  6
 32 40  1  0
 41 42  1  0
 41 43  1  0
 15 19  2  0
 16 22  2  0
 12 17  1  1
 17 19  1  0
 17 20  1  0
 18 19  1  0
 18 22  1  0
 18 23  1  0
  9 10  1  0
  9 11  1  0
 10 12  1  0
 11  5  1  1
 33 34  1  0
 33 35  1  0
 34 36  1  0
 35 37  1  0
 36 42  1  1
 20 21  2  0
 21 22  1  0
M  CHG  2   2  -1  26  -1
M  END
